AV-unprocessed.smi:2141|AV-procd|sdf|8718|dock1
  -GOLD-   2272011483D 1   1.00000     0.00000
 Structure written by MMmdl.
 42 43  0  0  0  0  0  0  0  0  1 V2000
  145.3802  136.7105  150.3457 C   0  0  0  0  0  0  0  0  0  0  0  0
  144.8663  137.5185  151.9173 S   0  0  0  0  0  0  0  0  0  0  0  0
  143.3969  137.5372  151.9790 O   0  0  0  0  0  0  0  0  0  0  0  0
  145.6479  136.9280  153.0141 O   0  0  0  0  0  0  0  0  0  0  0  0
  145.4050  139.1482  151.7247 N   0  0  0  0  0  0  0  0  0  0  0  0
  146.8338  139.4809  151.7495 C   0  0  0  0  0  0  0  0  0  0  0  0
  147.0812  140.9850  151.9859 C   0  0  0  0  0  0  0  0  0  0  0  0
  147.7287  141.2869  153.3397 C   0  0  0  0  0  0  0  0  0  0  0  0
  147.0564  141.8079  154.2291 O   0  0  0  0  0  0  0  0  0  0  0  0
  149.0220  140.9368  153.4599 N   0  0  0  0  0  0  0  0  0  0  0  0
  149.8432  141.0004  154.6163 C   0  0  0  0  0  0  0  0  0  0  0  0
  150.9037  140.1065  154.8897 C   0  0  0  0  0  0  0  0  0  0  0  0
  151.6458  140.2724  156.0747 C   0  0  0  0  0  0  0  0  0  0  0  0
  151.3077  141.3206  156.9630 C   0  0  0  0  0  0  0  0  0  0  0  0
  152.0460  141.5101  158.1508 N   0  0  0  0  0  0  0  0  0  0  0  0
  152.0626  140.3792  159.0750 C   0  0  0  0  0  0  0  0  0  0  0  0
  153.1366  140.5874  160.1571 C   0  0  0  0  0  0  0  0  0  0  0  0
  152.9296  141.8356  160.8102 O   0  0  0  0  0  0  0  0  0  0  0  0
  153.0309  142.9299  159.9055 C   0  0  0  0  0  0  0  0  0  0  0  0
  151.9478  142.8055  158.8208 C   0  0  0  0  0  0  0  0  0  0  0  0
  150.2819  142.1676  156.7019 N   0  0  0  0  0  0  0  0  0  0  0  0
  149.5708  142.0026  155.5677 C   0  0  0  0  0  0  0  0  0  0  0  0
  145.1045  135.6568  150.3758 H   0  0  0  0  0  0  0  0  0  0  0  0
  146.4601  136.7948  150.2254 H   0  0  0  0  0  0  0  0  0  0  0  0
  144.8802  137.1866  149.5032 H   0  0  0  0  0  0  0  0  0  0  0  0
  144.7874  139.8456  152.1404 H   0  0  0  0  0  0  0  0  0  0  0  0
  147.3341  138.8934  152.5202 H   0  0  0  0  0  0  0  0  0  0  0  0
  147.2740  139.1795  150.7990 H   0  0  0  0  0  0  0  0  0  0  0  0
  147.7079  141.3841  151.1871 H   0  0  0  0  0  0  0  0  0  0  0  0
  146.1357  141.5258  151.9259 H   0  0  0  0  0  0  0  0  0  0  0  0
  149.4268  140.4624  152.6656 H   0  0  0  0  0  0  0  0  0  0  0  0
  151.1576  139.2976  154.2221 H   0  0  0  0  0  0  0  0  0  0  0  0
  152.4704  139.6060  156.2796 H   0  0  0  0  0  0  0  0  0  0  0  0
  151.0793  140.2905  159.5386 H   0  0  0  0  0  0  0  0  0  0  0  0
  152.2553  139.4391  158.5599 H   0  0  0  0  0  0  0  0  0  0  0  0
  153.0839  139.7879  160.8961 H   0  0  0  0  0  0  0  0  0  0  0  0
  154.1372  140.5539  159.7230 H   0  0  0  0  0  0  0  0  0  0  0  0
  152.9045  143.8613  160.4575 H   0  0  0  0  0  0  0  0  0  0  0  0
  154.0265  142.9570  159.4595 H   0  0  0  0  0  0  0  0  0  0  0  0
  152.0653  143.6143  158.0984 H   0  0  0  0  0  0  0  0  0  0  0  0
  150.9580  142.9073  159.2681 H   0  0  0  0  0  0  0  0  0  0  0  0
  148.7645  142.7043  155.4101 H   0  0  0  0  0  0  0  0  0  0  0  0
  1  2  1  0  0  0  0
  1 23  1  0  0  0  0
  1 24  1  0  0  0  0
  1 25  1  0  0  0  0
  2  3  2  0  0  0  0
  2  4  2  0  0  0  0
  2  5  1  0  0  0  0
  5  6  1  0  0  0  0
  5 26  1  0  0  0  0
  6  7  1  0  0  0  0
  6 27  1  0  0  0  0
  6 28  1  0  0  0  0
  7  8  1  0  0  0  0
  7 29  1  0  0  0  0
  7 30  1  0  0  0  0
  8  9  2  0  0  0  0
  8 10  1  0  0  0  0
 10 11  1  0  0  0  0
 10 31  1  0  0  0  0
 11 22  1  0  0  0  0
 11 12  2  0  0  0  0
 12 13  1  0  0  0  0
 12 32  1  0  0  0  0
 13 14  2  0  0  0  0
 13 33  1  0  0  0  0
 14 15  1  0  0  0  0
 14 21  1  0  0  0  0
 15 20  1  0  0  0  0
 15 16  1  0  0  0  0
 16 17  1  0  0  0  0
 16 34  1  0  0  0  0
 16 35  1  0  0  0  0
 17 18  1  0  0  0  0
 17 36  1  0  0  0  0
 17 37  1  0  0  0  0
 18 19  1  0  0  0  0
 19 20  1  0  0  0  0
 19 38  1  0  0  0  0
 19 39  1  0  0  0  0
 20 40  1  0  0  0  0
 20 41  1  0  0  0  0
 21 22  2  0  0  0  0
 22 42  1  0  0  0  0
M  END
> <s_m_source_file>
AV-unprocessed.smi

> <i_m_source_file_index>
2141

> <i_lp_mmshare_version>
43012

> <i_f3d_flags>
0

> <s_epik_input>
W0NIM11TKD1PKSg9TylbTkhdW0NIMl1bQ0gyXUMoPU8pW05IXWMxW2NIXVtjSF1jKG5bY0hdMSlOMltDSDJdW0NIMl1PW0NIMl1bQ0gyXTI=

> <s_epik_cmdline>
J2VwaWtfcHl0aG9uJywgJy1waCcsICc3LjAnLCAnLXRuJywgJzgnLCAnLW1hJywgJzIwMCcsICctbWV0YWxfYmluZGluZycsICctaW1hZScsICc8aW5maWxlLm1hZT4nLCAnLW9tYWUnLCAnPG91dGZpbGUubWFlPic=

> <r_lp_tautomer_probability>
1

> <r_epik_Ionization_Penalty>
0.000610192

> <r_epik_Ionization_Penalty_Charging>
0

> <r_epik_Ionization_Penalty_Neutral>
0.000610192

> <r_epik_State_Penalty>
0.000370803

> <r_epik_Charging_Adjusted_Penalty>
0.000370803

> <i_epik_Tot_Q>
0

> <i_epik_Tot_abs_Q>
0

> <r_epik_Metal_State_Penalty>
0.0170256

> <b_epik_Metal_Only>
0

> <s_lp_Force_Field>
OPLS_2005

> <r_lp_Energy>
9.95274

> <b_lp_Chiralities_Consistent>
1

> <s_lp_Variant>
AV-unprocessed.smi:2141-1

> <Gold.Version>
5.8.1

> <Gold.Id.Protein>
6NUR|6NUR_protein|mol2

> <Gold.PLP.Fitness>
46.5429

> <Gold.PLP.PLP>
-40.3242

> <Gold.PLP.part.hbond>
-3.0000

> <Gold.PLP.part.metal>
0.0000

> <Gold.PLP.part.buried>
-0.3224

> <Gold.PLP.part.nonpolar>
-37.7568

> <Gold.PLP.part.repulsive>
0.6994

> <Gold.PLP.ligand.clash>
0.0000

> <Gold.PLP.ligand.torsion>
1.5708

> <Gold.PLP.Chemscore.Hbond>
1.9280

> <Gold.PLP.Chemscore.CHOScore>
0.7304

> <Gold.PLP.Chemscore.Metal>
0.0000

> <Gold.Chemscore.Hbonds>
donor molecule, donor type, donor heavy atom, donor atom, acceptor molecule, acceptor atom, score
      L1  H     5    26       P1 10175  0.42
      L1  H    10    31       P1  7957  1.00
      L1  C    22    42       P1  8028  0.92

> <Gold.PLP.Chemscore.Internal.Correction>
1.3851

> <Gold.Rescore>
     Score         DG    S(hbond)    S(metal)    S(lipo)     H(rot)  DE(clash)    DE(int)     intcor
     13.08     -16.69       1.94        0.00      83.93       1.99       0.60       3.01       ----

> <Gold.Chemscore.Fitness>
13.0815

> <Gold.Chemscore.DG>
-16.6924

> <Gold.Chemscore.ZeroCoef>
-5.4800

> <Gold.Chemscore.Hbond>
1.9440

> <Gold.Chemscore.Metal>
0.0000

> <Gold.Chemscore.Lipo>
83.9327

> <Gold.Chemscore.Internal_Hbond>
0.0000

> <Gold.Chemscore.DEClash>
0.5975

> <Gold.Chemscore.DEInternal>
3.0134

> <Gold.Chemscore.Rot>
1.9925

> <Gold.Chemscore.Internal.Correction>
   9.000000E+99

> <Gold.Chemscore.Hbonds>
donor molecule, donor type, donor heavy atom, donor atom, acceptor molecule, acceptor atom, score
      L1  H     5    26       P1 10175  0.39
      L1  H    10    31       P1  7957  0.96

> <Gold.Chemscore.Hbond.Weighted>
-6.4931

> <Gold.Chemscore.Metal.Weighted>
-0.0000

> <Gold.Chemscore.Lipo.Weighted>
-9.8201

> <Gold.Chemscore.Internal_Hbond.Weighted>
0.0000

> <Gold.Chemscore.DEClash.Weighted>
0.5975

> <Gold.Chemscore.DEInternal.Weighted>
3.0134

> <Gold.Chemscore.Rot.Weighted>
5.1008

> <Gold.Chemscore.Internal.Correction.Weighted>
   9.000000E+99

> <Gold.Protein.RotatedTorsions>
[ 6907 6896 6895 6894 ] final -164.37 input  -60.11 | X-H torsion
[ 7974 7965 7964 7962 ] final  -34.19 input  175.53 | X-H torsion
[ 8008 7997 7996 7995 ] final  127.47 input   59.86 | X-H torsion
[ 10167 10162 10161 10158 ] final   28.74 input  -65.29 | X-H torsion
[ 10718 10713 10712 10709 ] final  129.66 input   66.30 | X-H torsion
[ 10763 10752 10751 10750 ] final   98.92 input  -60.55 | X-H torsion
[ 11005 11000 10999 10996 ] final  101.57 input  -57.11 | X-H torsion

> <Gold.Protein.ActiveResidues>
 VAL166  LYS551  ARG553  GLY616  TRP617  ASP618  TYR619  PRO620  LYS621  CYS622 
 ASP623  PHE694  ASN695  SER759  ASP760  ASP761  ALA762  ILE779  LEU786  VAL792 
 PHE793  MET794  SER795  GLU796  ALA797  LYS798  CYS799  TRP800  GLU811  SER814 

> <Gold.Protein.RotatedAtoms>
  151.4108  133.3728  159.2743 H   0  0  0  0  0  0  0  0  0  0  0  0  # atno 6907 bound_to 6896
  150.9364  134.8778  159.7595 H   0  0  0  0  0  0  0  0  0  0  0  0  # atno 6908 bound_to 6896
  152.5052  134.4056  159.9483 H   0  0  0  0  0  0  0  0  0  0  0  0  # atno 6909 bound_to 6896
  146.0849  140.6009  142.8891 H   0  0  0  0  0  0  0  0  0  0  0  0  # atno 7974 bound_to 7965
  156.2891  140.2668  156.2279 H   0  0  0  0  0  0  0  0  0  0  0  0  # atno 8008 bound_to 7997
  155.0102  140.0387  157.2414 H   0  0  0  0  0  0  0  0  0  0  0  0  # atno 8009 bound_to 7997
  154.7525  140.2745  155.6286 H   0  0  0  0  0  0  0  0  0  0  0  0  # atno 8010 bound_to 7997
  140.4826  144.0592  150.6270 H   0  0  0  0  0  0  0  0  0  0  0  0  # atno 10167 bound_to 10162
  157.5134  131.1097  150.9260 H   0  0  0  0  0  0  0  0  0  0  0  0  # atno 10718 bound_to 10713
  153.2950  135.4131  155.1202 H   0  0  0  0  0  0  0  0  0  0  0  0  # atno 10763 bound_to 10752
  154.8532  135.3527  154.5929 H   0  0  0  0  0  0  0  0  0  0  0  0  # atno 10764 bound_to 10752
  153.6352  135.7059  153.5319 H   0  0  0  0  0  0  0  0  0  0  0  0  # atno 10765 bound_to 10752
  139.8774  134.9188  156.4927 H   0  0  0  0  0  0  0  0  0  0  0  0  # atno 11005 bound_to 11000
  144.7319  140.4696  143.6932 LP  0  0  0  0  0  0  0  0  0  0  0  0  # atno 17320 bound_to 7965
  145.6148  139.1517  143.3055 LP  0  0  0  0  0  0  0  0  0  0  0  0  # atno 17321 bound_to 7965
  140.3838  143.2788  152.0140 LP  0  0  0  0  0  0  0  0  0  0  0  0  # atno 17342 bound_to 10162
  139.4836  144.6133  151.7393 LP  0  0  0  0  0  0  0  0  0  0  0  0  # atno 17343 bound_to 10162
  156.9893  130.5557  149.5302 LP  0  0  0  0  0  0  0  0  0  0  0  0  # atno 17370 bound_to 10713
  156.0304  130.5396  150.8519 LP  0  0  0  0  0  0  0  0  0  0  0  0  # atno 17371 bound_to 10713
  140.8647  133.8033  155.9301 LP  0  0  0  0  0  0  0  0  0  0  0  0  # atno 17394 bound_to 11000
  140.9014  134.2374  157.5039 LP  0  0  0  0  0  0  0  0  0  0  0  0  # atno 17395 bound_to 11000

$$$$
