AV-unprocessed.smi:3275|AV-procd|sdf|12532|dock1
  -GOLD-   2272018443D 1   1.00000     0.00000
 Structure written by MMmdl.
 34 35  0  0  0  0  0  0  0  0  1 V2000
  148.6667  137.8040  153.1653 O   0  0  0  0  0  0  0  0  0  0  0  0
  149.1820  138.2708  154.3932 C   0  0  0  0  0  0  0  0  0  0  0  0
  150.6910  138.5051  154.2696 C   0  0  0  0  0  0  0  0  0  0  0  0
  150.9725  139.8347  154.6897 O   0  0  0  0  0  0  0  0  0  0  0  0
  151.4839  140.0130  156.0104 C   0  0  2  0  0  0  0  0  0  0  0  0
  151.1400  138.8477  156.9610 C   0  0  0  0  0  0  0  0  0  0  0  0
  151.8011  139.0810  158.3297 C   0  0  0  0  0  0  0  0  0  0  0  0
  151.4155  140.4570  158.9021 C   0  0  0  0  0  0  0  0  0  0  0  0
  151.7179  141.5209  157.9485 N   0  0  0  0  0  0  0  0  0  0  0  0
  151.5810  142.8041  158.4992 C   0  0  0  0  0  0  0  0  0  0  0  0
  150.6558  143.7359  157.9760 C   0  0  0  0  0  0  0  0  0  0  0  0
  150.5634  145.0075  158.5758 C   0  0  0  0  0  0  0  0  0  0  0  0
  151.3144  145.3862  159.6312 N   0  0  0  0  0  0  0  0  0  0  0  0
  152.1946  144.4928  160.1309 C   0  0  0  0  0  0  0  0  0  0  0  0
  152.3665  143.1950  159.6077 C   0  0  0  0  0  0  0  0  0  0  0  0
  153.5223  142.1251  160.3209 Cl  0  0  0  0  0  0  0  0  0  0  0  0
  151.0925  141.3674  156.6374 C   0  0  0  0  0  0  0  0  0  0  0  0
  149.0037  138.3499  152.4714 H   0  0  0  0  0  0  0  0  0  0  0  0
  148.6717  139.1947  154.6671 H   0  0  0  0  0  0  0  0  0  0  0  0
  148.9705  137.5363  155.1709 H   0  0  0  0  0  0  0  0  0  0  0  0
  151.2206  137.7813  154.8890 H   0  0  0  0  0  0  0  0  0  0  0  0
  150.9980  138.3496  153.2355 H   0  0  0  0  0  0  0  0  0  0  0  0
  152.5679  140.0169  155.8862 H   0  0  0  0  0  0  0  0  0  0  0  0
  150.0624  138.7684  157.1030 H   0  0  0  0  0  0  0  0  0  0  0  0
  151.4752  137.9008  156.5372 H   0  0  0  0  0  0  0  0  0  0  0  0
  151.5126  138.2924  159.0249 H   0  0  0  0  0  0  0  0  0  0  0  0
  152.8853  139.0211  158.2263 H   0  0  0  0  0  0  0  0  0  0  0  0
  150.3507  140.4750  159.1395 H   0  0  0  0  0  0  0  0  0  0  0  0
  151.9542  140.6335  159.8341 H   0  0  0  0  0  0  0  0  0  0  0  0
  150.0247  143.4864  157.1357 H   0  0  0  0  0  0  0  0  0  0  0  0
  149.8656  145.7397  158.1978 H   0  0  0  0  0  0  0  0  0  0  0  0
  152.7811  144.8245  160.9750 H   0  0  0  0  0  0  0  0  0  0  0  0
  151.4034  142.1838  155.9842 H   0  0  0  0  0  0  0  0  0  0  0  0
  150.0112  141.4367  156.7535 H   0  0  0  0  0  0  0  0  0  0  0  0
  1  2  1  0  0  0  0
  1 18  1  0  0  0  0
  2  3  1  0  0  0  0
  2 19  1  0  0  0  0
  2 20  1  0  0  0  0
  3  4  1  0  0  0  0
  3 21  1  0  0  0  0
  3 22  1  0  0  0  0
  4  5  1  0  0  0  0
  5 17  1  0  0  0  0
  5  6  1  0  0  0  0
  5 23  1  0  0  0  0
  6  7  1  0  0  0  0
  6 24  1  0  0  0  0
  6 25  1  0  0  0  0
  7  8  1  0  0  0  0
  7 26  1  0  0  0  0
  7 27  1  0  0  0  0
  8  9  1  0  0  0  0
  8 28  1  0  0  0  0
  8 29  1  0  0  0  0
  9 10  1  0  0  0  0
  9 17  1  0  0  0  0
 10 15  1  0  0  0  0
 10 11  2  0  0  0  0
 11 12  1  0  0  0  0
 11 30  1  0  0  0  0
 12 13  2  0  0  0  0
 12 31  1  0  0  0  0
 13 14  1  0  0  0  0
 14 15  2  0  0  0  0
 14 32  1  0  0  0  0
 15 16  1  0  0  0  0
 17 33  1  0  0  0  0
 17 34  1  0  0  0  0
M  END
> <s_m_source_file>
AV-unprocessed.smi

> <i_m_source_file_index>
3275

> <i_lp_mmshare_version>
43012

> <i_f3d_flags>
0

> <s_epik_input>
W09IXVtDSDJdW0NIMl1PW0NAQEhdMVtDSDJdW0NIMl1bQ0gyXU4oW0NIMl0xKWMyW2NIXVtjSF1uW2NIXWMyQ2w=

> <s_epik_cmdline>
J2VwaWtfcHl0aG9uJywgJy1waCcsICc3LjAnLCAnLXRuJywgJzgnLCAnLW1hJywgJzIwMCcsICctbWV0YWxfYmluZGluZycsICctaW1hZScsICc8aW5maWxlLm1hZT4nLCAnLW9tYWUnLCAnPG91dGZpbGUubWFlPic=

> <r_lp_tautomer_probability>
1

> <r_epik_Ionization_Penalty>
1.24095

> <r_epik_Ionization_Penalty_Charging>
0

> <r_epik_Ionization_Penalty_Neutral>
1.24095

> <r_epik_State_Penalty>
1.30987

> <r_epik_Charging_Adjusted_Penalty>
1.30987

> <i_epik_Tot_Q>
0

> <i_epik_Tot_abs_Q>
0

> <r_epik_Metal_State_Penalty>
0.00479332

> <b_epik_Metal_Only>
0

> <s_lp_Force_Field>
OPLS_2005

> <r_lp_Energy>
21.9158

> <b_lp_Chiralities_Consistent>
1

> <s_lp_Variant>
AV-unprocessed.smi:3275-3

> <Gold.Version>
5.8.1

> <Gold.Id.Protein>
6NUR|6NUR_protein|mol2

> <Gold.PLP.Fitness>
43.4801

> <Gold.PLP.PLP>
-36.7974

> <Gold.PLP.part.hbond>
-2.9450

> <Gold.PLP.part.metal>
0.0000

> <Gold.PLP.part.buried>
-5.2864

> <Gold.PLP.part.nonpolar>
-28.8615

> <Gold.PLP.part.repulsive>
0.2563

> <Gold.PLP.ligand.clash>
0.0000

> <Gold.PLP.ligand.torsion>
1.2597

> <Gold.PLP.Chemscore.Hbond>
2.0000

> <Gold.PLP.Chemscore.CHOScore>
1.0000

> <Gold.PLP.Chemscore.Metal>
0.0000

> <Gold.Chemscore.Hbonds>
donor molecule, donor type, donor heavy atom, donor atom, acceptor molecule, acceptor atom, score
      L1  H     1    18       P1  7957  0.59
      P1  H  7989  7998       L1     4  1.00
      L1  C    12    31       P1  8029  1.00

> <Gold.PLP.Chemscore.Internal.Correction>
0.2022

> <Gold.Rescore>
     Score         DG    S(hbond)    S(metal)    S(lipo)     H(rot)  DE(clash)    DE(int)     intcor
     17.42     -18.97       1.95        0.00     104.50       2.06       0.01       1.54       ----

> <Gold.Chemscore.Fitness>
17.4175

> <Gold.Chemscore.DG>
-18.9650

> <Gold.Chemscore.ZeroCoef>
-5.4800

> <Gold.Chemscore.Hbond>
1.9536

> <Gold.Chemscore.Metal>
0.0000

> <Gold.Chemscore.Lipo>
104.4954

> <Gold.Chemscore.Internal_Hbond>
0.0000

> <Gold.Chemscore.DEClash>
0.0089

> <Gold.Chemscore.DEInternal>
1.5386

> <Gold.Chemscore.Rot>
2.0570

> <Gold.Chemscore.Internal.Correction>
   9.000000E+99

> <Gold.Chemscore.Hbonds>
donor molecule, donor type, donor heavy atom, donor atom, acceptor molecule, acceptor atom, score
      L1  H     1    18       P1  7957  0.38
      P1  H  7989  7998       L1     4  0.86

> <Gold.Chemscore.Hbond.Weighted>
-6.5251

> <Gold.Chemscore.Metal.Weighted>
-0.0000

> <Gold.Chemscore.Lipo.Weighted>
-12.2260

> <Gold.Chemscore.Internal_Hbond.Weighted>
0.0000

> <Gold.Chemscore.DEClash.Weighted>
0.0089

> <Gold.Chemscore.DEInternal.Weighted>
1.5386

> <Gold.Chemscore.Rot.Weighted>
5.2660

> <Gold.Chemscore.Internal.Correction.Weighted>
   9.000000E+99

> <Gold.Protein.RotatedTorsions>
[ 6907 6896 6895 6894 ] final  130.75 input  -60.11 | X-H torsion
[ 7974 7965 7964 7962 ] final -168.58 input  175.53 | X-H torsion
[ 8008 7997 7996 7995 ] final   78.30 input   59.86 | X-H torsion
[ 10167 10162 10161 10158 ] final  134.53 input  -65.29 | X-H torsion
[ 10718 10713 10712 10709 ] final   81.85 input   66.30 | X-H torsion
[ 10763 10752 10751 10750 ] final  -42.00 input  -60.55 | X-H torsion
[ 11005 11000 10999 10996 ] final   77.37 input  -57.11 | X-H torsion

> <Gold.Protein.ActiveResidues>
 VAL166  LYS551  ARG553  GLY616  TRP617  ASP618  TYR619  PRO620  LYS621  CYS622 
 ASP623  PHE694  ASN695  SER759  ASP760  ASP761  ALA762  ILE779  LEU786  VAL792 
 PHE793  MET794  SER795  GLU796  ALA797  LYS798  CYS799  TRP800  GLU811  SER814 

> <Gold.Protein.RotatedAtoms>
  152.3495  133.6162  159.5933 H   0  0  0  0  0  0  0  0  0  0  0  0  # atno 6907 bound_to 6896
  150.7528  133.9597  159.3520 H   0  0  0  0  0  0  0  0  0  0  0  0  # atno 6908 bound_to 6896
  151.7451  135.0846  160.0373 H   0  0  0  0  0  0  0  0  0  0  0  0  # atno 6909 bound_to 6896
  144.7200  140.2348  143.6299 H   0  0  0  0  0  0  0  0  0  0  0  0  # atno 7974 bound_to 7965
  155.8538  140.3457  155.5711 H   0  0  0  0  0  0  0  0  0  0  0  0  # atno 8008 bound_to 7997
  155.8008  140.0885  157.1977 H   0  0  0  0  0  0  0  0  0  0  0  0  # atno 8009 bound_to 7997
  154.4009  140.1466  156.3260 H   0  0  0  0  0  0  0  0  0  0  0  0  # atno 8010 bound_to 7997
  139.5252  144.6562  151.5153 H   0  0  0  0  0  0  0  0  0  0  0  0  # atno 10167 bound_to 10162
  157.6843  131.0022  150.2288 H   0  0  0  0  0  0  0  0  0  0  0  0  # atno 10718 bound_to 10713
  153.9718  135.6727  153.4747 H   0  0  0  0  0  0  0  0  0  0  0  0  # atno 10763 bound_to 10752
  153.0789  135.4933  154.8459 H   0  0  0  0  0  0  0  0  0  0  0  0  # atno 10764 bound_to 10752
  154.7215  135.3118  154.9001 H   0  0  0  0  0  0  0  0  0  0  0  0  # atno 10765 bound_to 10752
  139.9257  134.7677  156.1514 H   0  0  0  0  0  0  0  0  0  0  0  0  # atno 11005 bound_to 11000
  145.8376  139.2114  143.1846 LP  0  0  0  0  0  0  0  0  0  0  0  0  # atno 17320 bound_to 7965
  146.0375  140.8197  142.9845 LP  0  0  0  0  0  0  0  0  0  0  0  0  # atno 17321 bound_to 7965
  140.6389  143.8928  150.6673 LP  0  0  0  0  0  0  0  0  0  0  0  0  # atno 17342 bound_to 10162
  140.2256  143.3775  152.1607 LP  0  0  0  0  0  0  0  0  0  0  0  0  # atno 17343 bound_to 10162
  156.2925  130.3747  149.7828 LP  0  0  0  0  0  0  0  0  0  0  0  0  # atno 17370 bound_to 10713
  156.5483  130.8330  151.3291 LP  0  0  0  0  0  0  0  0  0  0  0  0  # atno 17371 bound_to 10713
  141.0813  133.6753  156.2342 LP  0  0  0  0  0  0  0  0  0  0  0  0  # atno 17394 bound_to 11000
  140.6343  134.5232  157.5563 LP  0  0  0  0  0  0  0  0  0  0  0  0  # atno 17395 bound_to 11000

$$$$
