AV-unprocessed.smi:1733|AV-procd|sdf|6979|dock6
  -GOLD-   22720 8193D 1   1.00000     0.00000
 Structure written by MMmdl.
 53 55  0  0  0  0  0  0  0  0  2 V2000
  144.6785  136.5268  152.7553 O   0  0  0  0  0  0  0  0  0  0  0  0
  145.8679  136.4051  152.4626 C   0  0  0  0  0  0  0  0  0  0  0  0
  146.3973  135.3706  151.7867 N   0  0  0  0  0  0  0  0  0  0  0  0
  145.7275  134.2505  151.2238 C   0  0  0  0  0  0  0  0  0  0  0  0
  146.5068  133.3047  150.5212 C   0  0  0  0  0  0  0  0  0  0  0  0
  145.8799  132.1882  149.9311 C   0  0  0  0  0  0  0  0  0  0  0  0
  144.5418  132.0370  150.0316 N   0  3  0  0  0  0  0  0  0  0  0  0
  143.7538  132.9221  150.6790 C   0  0  0  0  0  0  0  0  0  0  0  0
  144.3240  134.0576  151.2898 C   0  0  0  0  0  0  0  0  0  0  0  0
  146.8106  137.2946  152.8057 N   0  0  0  0  0  0  0  0  0  0  0  0
  146.5767  138.5268  153.5532 C   0  0  0  0  0  0  0  0  0  0  0  0
  147.1485  139.7245  152.7640 C   0  0  0  0  0  0  0  0  0  0  0  0
  147.1069  141.0142  153.6020 C   0  0  0  0  0  0  0  0  0  0  0  0
  147.8460  140.7846  154.8545 N   0  0  0  0  0  0  0  0  0  0  0  0
  149.0811  141.2581  155.1591 C   0  0  0  0  0  0  0  0  0  0  0  0
  149.8700  141.6805  154.3123 O   0  0  0  0  0  0  0  0  0  0  0  0
  149.3822  141.2384  156.4691 N   0  0  0  0  0  0  0  0  0  0  0  0
  150.6274  141.7120  157.0652 C   0  0  0  0  0  0  0  0  0  0  0  0
  151.2362  140.5954  157.9346 C   0  0  0  0  0  0  0  0  0  0  0  0
  152.5186  141.0649  158.6401 C   0  0  0  0  0  0  0  0  0  0  0  0
  152.2644  142.3306  159.4738 C   0  0  0  0  0  0  0  0  0  0  0  0
  151.6637  143.4503  158.6103 C   0  0  0  0  0  0  0  0  0  0  0  0
  150.3808  142.9838  157.9040 C   0  0  0  0  0  0  0  0  0  0  0  0
  147.1654  139.7886  155.6905 C   0  0  0  0  0  0  0  0  0  0  0  0
  147.1963  138.4293  154.9669 C   0  0  0  0  0  0  0  0  0  0  0  0
  147.4039  135.3599  151.7096 H   0  0  0  0  0  0  0  0  0  0  0  0
  147.5774  133.4269  150.4383 H   0  0  0  0  0  0  0  0  0  0  0  0
  146.4047  131.4187  149.3837 H   0  0  0  0  0  0  0  0  0  0  0  0
  142.6964  132.7009  150.6839 H   0  0  0  0  0  0  0  0  0  0  0  0
  143.6745  134.7636  151.7848 H   0  0  0  0  0  0  0  0  0  0  0  0
  147.7639  137.1091  152.5297 H   0  0  0  0  0  0  0  0  0  0  0  0
  145.5023  138.6886  153.6600 H   0  0  0  0  0  0  0  0  0  0  0  0
  148.1810  139.5216  152.4744 H   0  0  0  0  0  0  0  0  0  0  0  0
  146.5886  139.8639  151.8383 H   0  0  0  0  0  0  0  0  0  0  0  0
  147.4791  141.8534  153.0146 H   0  0  0  0  0  0  0  0  0  0  0  0
  146.0726  141.2688  153.8380 H   0  0  0  0  0  0  0  0  0  0  0  0
  148.6855  140.8762  157.1036 H   0  0  0  0  0  0  0  0  0  0  0  0
  151.3353  141.9454  156.2672 H   0  0  0  0  0  0  0  0  0  0  0  0
  150.5116  140.2733  158.6842 H   0  0  0  0  0  0  0  0  0  0  0  0
  151.4549  139.7206  157.3211 H   0  0  0  0  0  0  0  0  0  0  0  0
  152.9030  140.2697  159.2794 H   0  0  0  0  0  0  0  0  0  0  0  0
  153.2917  141.2654  157.8972 H   0  0  0  0  0  0  0  0  0  0  0  0
  151.5854  142.0980  160.2952 H   0  0  0  0  0  0  0  0  0  0  0  0
  153.1951  142.6707  159.9284 H   0  0  0  0  0  0  0  0  0  0  0  0
  151.4507  144.3230  159.2281 H   0  0  0  0  0  0  0  0  0  0  0  0
  152.3942  143.7694  157.8658 H   0  0  0  0  0  0  0  0  0  0  0  0
  150.0032  143.7878  157.2710 H   0  0  0  0  0  0  0  0  0  0  0  0
  149.6082  142.7902  158.6495 H   0  0  0  0  0  0  0  0  0  0  0  0
  147.6116  139.6926  156.6813 H   0  0  0  0  0  0  0  0  0  0  0  0
  146.1337  140.0995  155.8612 H   0  0  0  0  0  0  0  0  0  0  0  0
  146.6669  137.6820  155.5591 H   0  0  0  0  0  0  0  0  0  0  0  0
  148.2307  138.0891  154.8948 H   0  0  0  0  0  0  0  0  0  0  0  0
  144.1072  131.2229  149.5961 H   0  0  0  0  0  0  0  0  0  0  0  0
  1  2  2  0  0  0  0
  2  3  1  0  0  0  0
  2 10  1  0  0  0  0
  3  4  1  0  0  0  0
  3 26  1  0  0  0  0
  4  9  1  0  0  0  0
  4  5  2  0  0  0  0
  5  6  1  0  0  0  0
  5 27  1  0  0  0  0
  6  7  2  0  0  0  0
  6 28  1  0  0  0  0
  7  8  1  0  0  0  0
  7 53  1  0  0  0  0
  8  9  2  0  0  0  0
  8 29  1  0  0  0  0
  9 30  1  0  0  0  0
 10 11  1  0  0  0  0
 10 31  1  0  0  0  0
 11 25  1  0  0  0  0
 11 12  1  0  0  0  0
 11 32  1  0  0  0  0
 12 13  1  0  0  0  0
 12 33  1  0  0  0  0
 12 34  1  0  0  0  0
 13 14  1  0  0  0  0
 13 35  1  0  0  0  0
 13 36  1  0  0  0  0
 14 15  1  0  0  0  0
 14 24  1  0  0  0  0
 15 16  2  0  0  0  0
 15 17  1  0  0  0  0
 17 18  1  0  0  0  0
 17 37  1  0  0  0  0
 18 23  1  0  0  0  0
 18 19  1  0  0  0  0
 18 38  1  0  0  0  0
 19 20  1  0  0  0  0
 19 39  1  0  0  0  0
 19 40  1  0  0  0  0
 20 21  1  0  0  0  0
 20 41  1  0  0  0  0
 20 42  1  0  0  0  0
 21 22  1  0  0  0  0
 21 43  1  0  0  0  0
 21 44  1  0  0  0  0
 22 23  1  0  0  0  0
 22 45  1  0  0  0  0
 22 46  1  0  0  0  0
 23 47  1  0  0  0  0
 23 48  1  0  0  0  0
 24 25  1  0  0  0  0
 24 49  1  0  0  0  0
 24 50  1  0  0  0  0
 25 51  1  0  0  0  0
 25 52  1  0  0  0  0
M  CHG  1   7   1
M  END
> <s_m_source_file>
AV-unprocessed.smi

> <i_m_source_file_index>
1733

> <i_lp_mmshare_version>
43012

> <i_f3d_flags>
0

> <s_epik_input>
W2NIXTFbY0hdbltjSF1bY0hdYzFbTkhdQyg9TylbTkhdW0NIXTJbQ0gyXVtDSDJdTihbQ0gyXVtDSDJdMilDKD1PKVtOSF1bQ0hdM1tDSDJdW0NIMl1bQ0gyXVtDSDJdW0NIMl0z

> <s_epik_cmdline>
J2VwaWtfcHl0aG9uJywgJy1waCcsICc3LjAnLCAnLXRuJywgJzgnLCAnLW1hJywgJzIwMCcsICctbWV0YWxfYmluZGluZycsICctaW1hZScsICc8aW5maWxlLm1hZT4nLCAnLW9tYWUnLCAnPG91dGZpbGUubWFlPic=

> <r_epik_Ionization_Penalty>
1.02331

> <r_epik_Ionization_Penalty_Charging>
1.02322

> <r_epik_Ionization_Penalty_Neutral>
8.7708e-05

> <r_epik_State_Penalty>
1.0737

> <r_epik_Charging_Adjusted_Penalty>
2.09692

> <i_epik_Tot_Q>
1

> <i_epik_Tot_abs_Q>
1

> <r_epik_Metal_State_Penalty>
1.17214

> <b_epik_Metal_Only>
0

> <s_lp_Force_Field>
OPLS_2005

> <r_lp_Energy>
47.1401

> <b_lp_Chiralities_Consistent>
1

> <s_lp_Variant>
AV-unprocessed.smi:1733-2

> <Gold.Version>
5.8.1

> <Gold.Id.Protein>
6NUR|6NUR_protein|mol2

> <Gold.PLP.Fitness>
47.4619

> <Gold.PLP.PLP>
-40.5211

> <Gold.PLP.part.hbond>
-4.0000

> <Gold.PLP.part.metal>
0.0000

> <Gold.PLP.part.buried>
-2.1372

> <Gold.PLP.part.nonpolar>
-33.4683

> <Gold.PLP.part.repulsive>
0.5689

> <Gold.PLP.ligand.clash>
0.0000

> <Gold.PLP.ligand.torsion>
0.3451

> <Gold.PLP.Chemscore.Hbond>
2.5304

> <Gold.PLP.Chemscore.CHOScore>
0.0000

> <Gold.PLP.Chemscore.Metal>
0.0000

> <Gold.Chemscore.Hbonds>
donor molecule, donor type, donor heavy atom, donor atom, acceptor molecule, acceptor atom, score
      L1  H     3    26       P1  7948  1.00
      L1  H    10    31       P1  7948  1.00
      P1  H  7989  7998       L1    16  0.20
      P1  H  8011  8017       L1    16  0.38

> <Gold.PLP.Chemscore.Internal.Correction>
0.0399

> <Gold.Rescore>
     Score         DG    S(hbond)    S(metal)    S(lipo)     H(rot)  DE(clash)    DE(int)     intcor
     20.67     -24.02       2.62        0.00     110.77       1.24       1.73       1.63       ----

> <Gold.Chemscore.Fitness>
20.6650

> <Gold.Chemscore.DG>
-24.0207

> <Gold.Chemscore.ZeroCoef>
-5.4800

> <Gold.Chemscore.Hbond>
2.6233

> <Gold.Chemscore.Metal>
0.0000

> <Gold.Chemscore.Lipo>
110.7692

> <Gold.Chemscore.Internal_Hbond>
0.0000

> <Gold.Chemscore.DEClash>
1.7304

> <Gold.Chemscore.DEInternal>
1.6252

> <Gold.Chemscore.Rot>
1.2426

> <Gold.Chemscore.Internal.Correction>
   9.000000E+99

> <Gold.Chemscore.Hbonds>
donor molecule, donor type, donor heavy atom, donor atom, acceptor molecule, acceptor atom, score
      L1  H     3    26       P1  7948  0.91
      L1  H    10    31       P1  7948  0.97
      P1  H  7989  7998       L1    16  0.19
      P1  H  8011  8017       L1    16  0.37

> <Gold.Chemscore.Hbond.Weighted>
-8.7618

> <Gold.Chemscore.Metal.Weighted>
-0.0000

> <Gold.Chemscore.Lipo.Weighted>
-12.9600

> <Gold.Chemscore.Internal_Hbond.Weighted>
0.0000

> <Gold.Chemscore.DEClash.Weighted>
1.7304

> <Gold.Chemscore.DEInternal.Weighted>
1.6252

> <Gold.Chemscore.Rot.Weighted>
3.1812

> <Gold.Chemscore.Internal.Correction.Weighted>
   9.000000E+99

> <Gold.Protein.RotatedTorsions>
[ 6907 6896 6895 6894 ] final  -90.37 input  -60.11 | X-H torsion
[ 7974 7965 7964 7962 ] final -131.17 input  175.53 | X-H torsion
[ 8008 7997 7996 7995 ] final    6.82 input   59.86 | X-H torsion
[ 10167 10162 10161 10158 ] final  107.78 input  -65.29 | X-H torsion
[ 10718 10713 10712 10709 ] final  127.18 input   66.30 | X-H torsion
[ 10763 10752 10751 10750 ] final -111.44 input  -60.55 | X-H torsion
[ 11005 11000 10999 10996 ] final   50.88 input  -57.11 | X-H torsion

> <Gold.Protein.ActiveResidues>
 VAL166  LYS551  ARG553  GLY616  TRP617  ASP618  TYR619  PRO620  LYS621  CYS622 
 ASP623  PHE694  ASN695  SER759  ASP760  ASP761  ALA762  ILE779  LEU786  VAL792 
 PHE793  MET794  SER795  GLU796  ALA797  LYS798  CYS799  TRP800  GLU811  SER814 

> <Gold.Protein.RotatedAtoms>
  150.6881  134.2442  159.4484 H   0  0  0  0  0  0  0  0  0  0  0  0  # atno 6907 bound_to 6896
  152.0384  134.9723  160.0583 H   0  0  0  0  0  0  0  0  0  0  0  0  # atno 6908 bound_to 6896
  152.1235  133.4332  159.4723 H   0  0  0  0  0  0  0  0  0  0  0  0  # atno 6909 bound_to 6896
  144.9405  140.7233  143.4850 H   0  0  0  0  0  0  0  0  0  0  0  0  # atno 7974 bound_to 7965
  154.7459  140.2758  155.6333 H   0  0  0  0  0  0  0  0  0  0  0  0  # atno 8008 bound_to 7997
  156.2884  140.2688  156.2126 H   0  0  0  0  0  0  0  0  0  0  0  0  # atno 8009 bound_to 7997
  155.0198  140.0371  157.2422 H   0  0  0  0  0  0  0  0  0  0  0  0  # atno 8010 bound_to 7997
  139.6900  144.7109  151.1366 H   0  0  0  0  0  0  0  0  0  0  0  0  # atno 10167 bound_to 10162
  157.5355  131.1098  150.8942 H   0  0  0  0  0  0  0  0  0  0  0  0  # atno 10718 bound_to 10713
  154.8300  135.4527  154.1039 H   0  0  0  0  0  0  0  0  0  0  0  0  # atno 10763 bound_to 10752
  153.2321  135.6906  153.7885 H   0  0  0  0  0  0  0  0  0  0  0  0  # atno 10764 bound_to 10752
  153.7264  135.3334  155.3253 H   0  0  0  0  0  0  0  0  0  0  0  0  # atno 10765 bound_to 10752
  140.0979  134.5120  155.8789 H   0  0  0  0  0  0  0  0  0  0  0  0  # atno 11005 bound_to 11000
  145.2999  139.1854  143.4695 LP  0  0  0  0  0  0  0  0  0  0  0  0  # atno 17320 bound_to 7965
  146.3284  140.2988  142.8619 LP  0  0  0  0  0  0  0  0  0  0  0  0  # atno 17321 bound_to 7965
  140.7679  143.5574  150.9137 LP  0  0  0  0  0  0  0  0  0  0  0  0  # atno 17342 bound_to 10162
  139.9250  143.6560  152.3088 LP  0  0  0  0  0  0  0  0  0  0  0  0  # atno 17343 bound_to 10162
  156.9510  130.5420  149.5282 LP  0  0  0  0  0  0  0  0  0  0  0  0  # atno 17370 bound_to 10713
  156.0455  130.5532  150.8871 LP  0  0  0  0  0  0  0  0  0  0  0  0  # atno 17371 bound_to 10713
  141.2097  133.6687  156.6460 LP  0  0  0  0  0  0  0  0  0  0  0  0  # atno 17394 bound_to 11000
  140.3260  134.7968  157.4289 LP  0  0  0  0  0  0  0  0  0  0  0  0  # atno 17395 bound_to 11000

$$$$
