AV-unprocessed.smi:1687|AV-procd|sdf|6768|dock6
  -GOLD-   22720 7533D 1   1.00000     0.00000
 Structure written by MMmdl.
 45 46  0  0  0  0  0  0  0  0  2 V2000
  144.1713  137.4747  153.2705 C   0  0  0  0  0  0  0  0  0  0  0  0
  145.4708  136.8934  152.6866 C   0  0  2  0  0  0  0  0  0  0  0  0
  146.5027  136.5386  153.7735 C   0  0  0  0  0  0  0  0  0  0  0  0
  147.1708  137.7888  154.3739 C   0  0  0  0  0  0  0  0  0  0  0  0
  147.7922  138.6207  153.3099 N   0  3  2  0  0  0  0  0  0  0  0  0
  148.6664  139.7086  153.8396 C   0  0  2  0  0  0  0  0  0  0  0  0
  149.9532  139.1709  154.5041 C   0  0  0  0  0  0  0  0  0  0  0  0
  147.8520  140.6587  154.7478 C   0  0  0  0  0  0  0  0  0  0  0  0
  148.6731  141.7127  155.3381 N   0  0  0  0  0  0  0  0  0  0  0  0
  149.5221  141.5534  156.3646 C   0  0  0  0  0  0  0  0  0  0  0  0
  149.7144  140.4728  156.9229 O   0  0  0  0  0  0  0  0  0  0  0  0
  150.1246  142.7128  156.6823 N   0  0  0  0  0  0  0  0  0  0  0  0
  151.0837  142.9528  157.7020 C   0  0  0  0  0  0  0  0  0  0  0  0
  151.4240  144.3107  157.8955 C   0  0  0  0  0  0  0  0  0  0  0  0
  152.3647  144.6548  158.8855 C   0  0  0  0  0  0  0  0  0  0  0  0
  152.9418  143.6306  159.6571 C   0  0  0  0  0  0  0  0  0  0  0  0
  152.5487  142.3044  159.3995 C   0  0  0  0  0  0  0  0  0  0  0  0
  151.6474  141.9724  158.4511 N   0  0  0  0  0  0  0  0  0  0  0  0
  146.7954  139.0433  152.2878 C   0  0  0  0  0  0  0  0  0  0  0  0
  146.1212  137.8197  151.6415 C   0  0  0  0  0  0  0  0  0  0  0  0
  144.3416  138.4075  153.8074 H   0  0  0  0  0  0  0  0  0  0  0  0
  143.7095  136.7745  153.9671 H   0  0  0  0  0  0  0  0  0  0  0  0
  143.4450  137.6764  152.4825 H   0  0  0  0  0  0  0  0  0  0  0  0
  145.1941  135.9680  152.1797 H   0  0  0  0  0  0  0  0  0  0  0  0
  146.0343  135.9478  154.5615 H   0  0  0  0  0  0  0  0  0  0  0  0
  147.2736  135.9016  153.3375 H   0  0  0  0  0  0  0  0  0  0  0  0
  146.4437  138.3780  154.9331 H   0  0  0  0  0  0  0  0  0  0  0  0
  147.9310  137.4705  155.0879 H   0  0  0  0  0  0  0  0  0  0  0  0
  148.9788  140.3103  152.9847 H   0  0  0  0  0  0  0  0  0  0  0  0
  150.6560  139.9775  154.7128 H   0  0  0  0  0  0  0  0  0  0  0  0
  150.4736  138.4615  153.8613 H   0  0  0  0  0  0  0  0  0  0  0  0
  149.7420  138.6742  155.4516 H   0  0  0  0  0  0  0  0  0  0  0  0
  147.0729  141.1449  154.1596 H   0  0  0  0  0  0  0  0  0  0  0  0
  147.3327  140.1053  155.5309 H   0  0  0  0  0  0  0  0  0  0  0  0
  148.5800  142.6362  154.9409 H   0  0  0  0  0  0  0  0  0  0  0  0
  149.8683  143.5184  156.1311 H   0  0  0  0  0  0  0  0  0  0  0  0
  150.9704  145.0855  157.2943 H   0  0  0  0  0  0  0  0  0  0  0  0
  152.6374  145.6868  159.0497 H   0  0  0  0  0  0  0  0  0  0  0  0
  153.6662  143.8552  160.4260 H   0  0  0  0  0  0  0  0  0  0  0  0
  152.9680  141.4887  159.9696 H   0  0  0  0  0  0  0  0  0  0  0  0
  146.0391  139.6850  152.7410 H   0  0  0  0  0  0  0  0  0  0  0  0
  147.2775  139.6317  151.5080 H   0  0  0  0  0  0  0  0  0  0  0  0
  146.8706  137.2576  151.0823 H   0  0  0  0  0  0  0  0  0  0  0  0
  145.3796  138.1432  150.9100 H   0  0  0  0  0  0  0  0  0  0  0  0
  148.4240  137.9951  152.8310 H   0  0  0  0  0  0  0  0  0  0  0  0
  1  2  1  0  0  0  0
  1 21  1  0  0  0  0
  1 22  1  0  0  0  0
  1 23  1  0  0  0  0
  2 20  1  0  0  0  0
  2  3  1  0  0  0  0
  2 24  1  0  0  0  0
  3  4  1  0  0  0  0
  3 25  1  0  0  0  0
  3 26  1  0  0  0  0
  4  5  1  0  0  0  0
  4 27  1  0  0  0  0
  4 28  1  0  0  0  0
  5  6  1  0  0  0  0
  5 19  1  0  0  0  0
  5 45  1  0  0  0  0
  6  7  1  0  0  0  0
  6  8  1  0  0  0  0
  6 29  1  0  0  0  0
  7 30  1  0  0  0  0
  7 31  1  0  0  0  0
  7 32  1  0  0  0  0
  8  9  1  0  0  0  0
  8 33  1  0  0  0  0
  8 34  1  0  0  0  0
  9 10  1  0  0  0  0
  9 35  1  0  0  0  0
 10 11  2  0  0  0  0
 10 12  1  0  0  0  0
 12 13  1  0  0  0  0
 12 36  1  0  0  0  0
 13 18  1  0  0  0  0
 13 14  2  0  0  0  0
 14 15  1  0  0  0  0
 14 37  1  0  0  0  0
 15 16  2  0  0  0  0
 15 38  1  0  0  0  0
 16 17  1  0  0  0  0
 16 39  1  0  0  0  0
 17 18  2  0  0  0  0
 17 40  1  0  0  0  0
 19 20  1  0  0  0  0
 19 41  1  0  0  0  0
 19 42  1  0  0  0  0
 20 43  1  0  0  0  0
 20 44  1  0  0  0  0
M  CHG  1   5   1
M  END
> <s_m_source_file>
AV-unprocessed.smi

> <i_m_source_file_index>
1687

> <i_lp_mmshare_version>
43012

> <i_f3d_flags>
0

> <s_epik_input>
W0NIM11bQ0hdMVtDSDJdW0NIMl1OKFtDSDJdW0NIMl0xKVtDQEhdKFtDSDNdKVtDSDJdW05IXUMoPU8pW05IXWMyW2NIXVtjSF1bY0hdW2NIXW4y

> <s_epik_cmdline>
J2VwaWtfcHl0aG9uJywgJy1waCcsICc3LjAnLCAnLXRuJywgJzgnLCAnLW1hJywgJzIwMCcsICctbWV0YWxfYmluZGluZycsICctaW1hZScsICc8aW5maWxlLm1hZT4nLCAnLW9tYWUnLCAnPG91dGZpbGUubWFlPic=

> <r_epik_Ionization_Penalty>
0.00142891

> <r_epik_Ionization_Penalty_Charging>
0.00139388

> <r_epik_Ionization_Penalty_Neutral>
3.50347e-05

> <r_epik_State_Penalty>
0.000929204

> <r_epik_Charging_Adjusted_Penalty>
0.00232308

> <i_epik_Tot_Q>
1

> <i_epik_Tot_abs_Q>
1

> <r_epik_Metal_State_Penalty>
-0

> <b_epik_Metal_Only>
0

> <s_lp_Force_Field>
OPLS_2005

> <r_lp_Energy>
23.5172

> <b_lp_Chiralities_Consistent>
1

> <s_lp_Variant>
AV-unprocessed.smi:1687-3

> <Gold.Version>
5.8.1

> <Gold.Id.Protein>
6NUR|6NUR_protein|mol2

> <Gold.PLP.Fitness>
47.0636

> <Gold.PLP.PLP>
-37.3816

> <Gold.PLP.part.hbond>
-3.6922

> <Gold.PLP.part.metal>
0.0000

> <Gold.PLP.part.buried>
2.2701

> <Gold.PLP.part.nonpolar>
-37.1150

> <Gold.PLP.part.repulsive>
0.2548

> <Gold.PLP.ligand.clash>
0.0000

> <Gold.PLP.ligand.torsion>
0.2830

> <Gold.PLP.Chemscore.Hbond>
3.3744

> <Gold.PLP.Chemscore.CHOScore>
0.0000

> <Gold.PLP.Chemscore.Metal>
0.0000

> <Gold.Chemscore.Hbonds>
donor molecule, donor type, donor heavy atom, donor atom, acceptor molecule, acceptor atom, score
      L1  H     5    45       P1  7948  1.85
      L1  H     9    35       P1  8028  0.41
      L1  H    12    36       P1  8028  1.00

> <Gold.PLP.Chemscore.Internal.Correction>
0.1247

> <Gold.Rescore>
     Score         DG    S(hbond)    S(metal)    S(lipo)     H(rot)  DE(clash)    DE(int)     intcor
     16.52     -19.83       2.17        0.00      93.52       1.50       0.45       2.86       ----

> <Gold.Chemscore.Fitness>
16.5232

> <Gold.Chemscore.DG>
-19.8336

> <Gold.Chemscore.ZeroCoef>
-5.4800

> <Gold.Chemscore.Hbond>
2.1679

> <Gold.Chemscore.Metal>
0.0000

> <Gold.Chemscore.Lipo>
93.5188

> <Gold.Chemscore.Internal_Hbond>
0.0000

> <Gold.Chemscore.DEClash>
0.4519

> <Gold.Chemscore.DEInternal>
2.8585

> <Gold.Chemscore.Rot>
1.4956

> <Gold.Chemscore.Internal.Correction>
   9.000000E+99

> <Gold.Chemscore.Hbonds>
donor molecule, donor type, donor heavy atom, donor atom, acceptor molecule, acceptor atom, score
      L1  H     5    45       P1  7948  0.87
      L1  H     9    35       P1  8028  0.42
      L1  H    12    36       P1  8028  0.97

> <Gold.Chemscore.Hbond.Weighted>
-7.2408

> <Gold.Chemscore.Metal.Weighted>
-0.0000

> <Gold.Chemscore.Lipo.Weighted>
-10.9417

> <Gold.Chemscore.Internal_Hbond.Weighted>
0.0000

> <Gold.Chemscore.DEClash.Weighted>
0.4519

> <Gold.Chemscore.DEInternal.Weighted>
2.8585

> <Gold.Chemscore.Rot.Weighted>
3.8289

> <Gold.Chemscore.Internal.Correction.Weighted>
   9.000000E+99

> <Gold.Protein.RotatedTorsions>
[ 6907 6896 6895 6894 ] final -166.16 input  -60.11 | X-H torsion
[ 7974 7965 7964 7962 ] final  170.49 input  175.53 | X-H torsion
[ 8008 7997 7996 7995 ] final   58.72 input   59.86 | X-H torsion
[ 10167 10162 10161 10158 ] final  154.73 input  -65.29 | X-H torsion
[ 10718 10713 10712 10709 ] final   14.05 input   66.30 | X-H torsion
[ 10763 10752 10751 10750 ] final  -14.32 input  -60.55 | X-H torsion
[ 11005 11000 10999 10996 ] final  149.03 input  -57.11 | X-H torsion

> <Gold.Protein.ActiveResidues>
 VAL166  LYS551  ARG553  GLY616  TRP617  ASP618  TYR619  PRO620  LYS621  CYS622 
 ASP623  PHE694  ASN695  SER759  ASP760  ASP761  ALA762  ILE779  LEU786  VAL792 
 PHE793  MET794  SER795  GLU796  ALA797  LYS798  CYS799  TRP800  GLU811  SER814 

> <Gold.Protein.RotatedAtoms>
  151.4392  133.3648  159.2779 H   0  0  0  0  0  0  0  0  0  0  0  0  # atno 6907 bound_to 6896
  150.9170  134.8589  159.7474 H   0  0  0  0  0  0  0  0  0  0  0  0  # atno 6908 bound_to 6896
  152.4962  134.4327  159.9569 H   0  0  0  0  0  0  0  0  0  0  0  0  # atno 6909 bound_to 6896
  144.7322  139.9210  143.6420 H   0  0  0  0  0  0  0  0  0  0  0  0  # atno 7974 bound_to 7965
  155.5545  140.3487  155.4476 H   0  0  0  0  0  0  0  0  0  0  0  0  # atno 8008 bound_to 7997
  156.0559  140.1328  157.0023 H   0  0  0  0  0  0  0  0  0  0  0  0  # atno 8009 bound_to 7997
  154.4456  140.0995  156.6430 H   0  0  0  0  0  0  0  0  0  0  0  0  # atno 8010 bound_to 7997
  139.4822  144.5161  151.7950 H   0  0  0  0  0  0  0  0  0  0  0  0  # atno 10167 bound_to 10162
  157.0335  130.6202  149.5739 H   0  0  0  0  0  0  0  0  0  0  0  0  # atno 10718 bound_to 10713
  153.5265  135.7015  153.5704 H   0  0  0  0  0  0  0  0  0  0  0  0  # atno 10763 bound_to 10752
  153.3730  135.3939  155.1802 H   0  0  0  0  0  0  0  0  0  0  0  0  # atno 10764 bound_to 10752
  154.8689  135.3816  154.4759 H   0  0  0  0  0  0  0  0  0  0  0  0  # atno 10765 bound_to 10752
  140.1010  134.8983  157.1795 H   0  0  0  0  0  0  0  0  0  0  0  0  # atno 11005 bound_to 11000
  146.0929  139.3920  143.0394 LP  0  0  0  0  0  0  0  0  0  0  0  0  # atno 17320 bound_to 7965
  145.7685  140.9906  143.1162 LP  0  0  0  0  0  0  0  0  0  0  0  0  # atno 17321 bound_to 7965
  140.4669  144.1642  150.5913 LP  0  0  0  0  0  0  0  0  0  0  0  0  # atno 17342 bound_to 10162
  140.4424  143.2521  151.9455 LP  0  0  0  0  0  0  0  0  0  0  0  0  # atno 17343 bound_to 10162
  156.0061  130.5148  150.7835 LP  0  0  0  0  0  0  0  0  0  0  0  0  # atno 17370 bound_to 10713
  157.5159  131.0928  151.0140 LP  0  0  0  0  0  0  0  0  0  0  0  0  # atno 17371 bound_to 10713
  140.3220  134.2905  155.7244 LP  0  0  0  0  0  0  0  0  0  0  0  0  # atno 17394 bound_to 11000
  141.2105  133.7716  156.9924 LP  0  0  0  0  0  0  0  0  0  0  0  0  # atno 17395 bound_to 11000

$$$$
