AV-unprocessed.smi:2562|AV-procd|sdf|10044|dock3
  -GOLD-   2272014 83D 1   1.00000     0.00000
 Structure written by MMmdl.
 31 32  0  0  0  0  0  0  0  0  2 V2000
  145.8853  131.9766  149.2924 C   0  0  0  0  0  0  0  0  0  0  0  0
  144.9102  131.8035  150.4621 C   0  0  0  0  0  0  0  0  0  0  0  0
  144.0847  133.0692  150.7354 C   0  0  0  0  0  0  0  0  0  0  0  0
  144.9349  134.2061  151.1979 C   0  0  0  0  0  0  0  0  0  0  0  0
  146.2278  134.0358  151.4703 N   0  0  0  0  0  0  0  0  0  0  0  0
  146.5907  135.2658  151.8902 N   0  0  0  0  0  0  0  0  0  0  0  0
  145.5291  136.0748  151.8599 C   0  0  0  0  0  0  0  0  0  0  0  0
  145.6021  137.5033  152.2982 C   0  0  2  0  0  0  0  0  0  0  0  0
  146.3907  138.3805  151.3063 C   0  0  0  0  0  0  0  0  0  0  0  0
  146.5201  139.7516  151.8367 N   0  3  0  0  0  0  0  0  0  0  0  0
  147.1197  139.7538  153.1857 C   0  0  0  0  0  0  0  0  0  0  0  0
  146.3188  138.8323  154.1223 C   0  0  0  0  0  0  0  0  0  0  0  0
  146.2518  137.5227  153.5673 O   0  0  0  0  0  0  0  0  0  0  0  0
  144.4323  135.4552  151.4341 N   0  0  0  0  0  0  0  0  0  0  0  0
  147.5309  135.4925  152.1814 H   0  0  0  0  0  0  0  0  0  0  0  0
  146.4416  131.0566  149.1121 H   0  0  0  0  0  0  0  0  0  0  0  0
  146.6075  132.7679  149.4960 H   0  0  0  0  0  0  0  0  0  0  0  0
  145.3574  132.2314  148.3732 H   0  0  0  0  0  0  0  0  0  0  0  0
  144.2399  130.9698  150.2499 H   0  0  0  0  0  0  0  0  0  0  0  0
  145.4696  131.5299  151.3576 H   0  0  0  0  0  0  0  0  0  0  0  0
  143.5479  133.3676  149.8338 H   0  0  0  0  0  0  0  0  0  0  0  0
  143.3266  132.8645  151.4924 H   0  0  0  0  0  0  0  0  0  0  0  0
  144.5847  137.8836  152.4097 H   0  0  0  0  0  0  0  0  0  0  0  0
  147.3877  137.9686  151.1414 H   0  0  0  0  0  0  0  0  0  0  0  0
  145.8915  138.4126  150.3375 H   0  0  0  0  0  0  0  0  0  0  0  0
  147.0940  140.3009  151.2125 H   0  0  0  0  0  0  0  0  0  0  0  0
  148.1546  139.4153  153.1185 H   0  0  0  0  0  0  0  0  0  0  0  0
  147.1382  140.7729  153.5722 H   0  0  0  0  0  0  0  0  0  0  0  0
  146.7998  138.7783  155.0990 H   0  0  0  0  0  0  0  0  0  0  0  0
  145.3123  139.2217  154.2838 H   0  0  0  0  0  0  0  0  0  0  0  0
  145.6011  140.1675  151.8903 H   0  0  0  0  0  0  0  0  0  0  0  0
  1  2  1  0  0  0  0
  1 16  1  0  0  0  0
  1 17  1  0  0  0  0
  1 18  1  0  0  0  0
  2  3  1  0  0  0  0
  2 19  1  0  0  0  0
  2 20  1  0  0  0  0
  3  4  1  0  0  0  0
  3 21  1  0  0  0  0
  3 22  1  0  0  0  0
  4 14  1  0  0  0  0
  4  5  2  0  0  0  0
  5  6  1  0  0  0  0
  6 15  1  0  0  0  0
  6  7  1  0  0  0  0
  7  8  1  0  0  0  0
  7 14  2  0  0  0  0
  8 13  1  0  0  0  0
  8  9  1  0  0  0  0
  8 23  1  0  0  0  0
  9 10  1  0  0  0  0
  9 24  1  0  0  0  0
  9 25  1  0  0  0  0
 10 11  1  0  0  0  0
 10 26  1  0  0  0  0
 10 31  1  0  0  0  0
 11 12  1  0  0  0  0
 11 27  1  0  0  0  0
 11 28  1  0  0  0  0
 12 13  1  0  0  0  0
 12 29  1  0  0  0  0
 12 30  1  0  0  0  0
M  CHG  1  10   1
M  END
> <s_m_source_file>
AV-unprocessed.smi

> <i_m_source_file_index>
2562

> <i_lp_mmshare_version>
43012

> <i_f3d_flags>
0

> <s_epik_input>
W0NIM11bQ0gyXVtDSDJdYzFuW25IXWMobjEpW0NAQEhdMltDSDJdW05IXVtDSDJdW0NIMl1PMg==

> <s_epik_cmdline>
J2VwaWtfcHl0aG9uJywgJy1waCcsICc3LjAnLCAnLXRuJywgJzgnLCAnLW1hJywgJzIwMCcsICctbWV0YWxfYmluZGluZycsICctaW1hZScsICc8aW5maWxlLm1hZT4nLCAnLW9tYWUnLCAnPG91dGZpbGUubWFlPic=

> <r_epik_Ionization_Penalty>
0.162344

> <r_epik_Ionization_Penalty_Charging>
0.125708

> <r_epik_Ionization_Penalty_Neutral>
0.0366364

> <r_epik_State_Penalty>
0.771409

> <r_epik_Charging_Adjusted_Penalty>
0.897117

> <i_epik_Tot_Q>
1

> <i_epik_Tot_abs_Q>
1

> <r_epik_Metal_State_Penalty>
0.893868

> <b_epik_Metal_Only>
0

> <s_lp_Force_Field>
OPLS_2005

> <r_lp_Energy>
9.76643

> <b_lp_Chiralities_Consistent>
1

> <s_lp_Variant>
AV-unprocessed.smi:2562-3

> <Gold.Version>
5.8.1

> <Gold.Id.Protein>
6NUR|6NUR_protein|mol2

> <Gold.PLP.Fitness>
33.9011

> <Gold.PLP.PLP>
-25.5414

> <Gold.PLP.part.hbond>
-2.6569

> <Gold.PLP.part.metal>
0.0000

> <Gold.PLP.part.buried>
-2.2926

> <Gold.PLP.part.nonpolar>
-21.9626

> <Gold.PLP.part.repulsive>
0.6225

> <Gold.PLP.ligand.clash>
0.0000

> <Gold.PLP.ligand.torsion>
0.2407

> <Gold.PLP.Chemscore.Hbond>
2.9440

> <Gold.PLP.Chemscore.CHOScore>
0.0000

> <Gold.PLP.Chemscore.Metal>
0.0000

> <Gold.Chemscore.Hbonds>
donor molecule, donor type, donor heavy atom, donor atom, acceptor molecule, acceptor atom, score
      L1  H     6    15       P1  7948  0.96
      L1  H    10    31       P1 10175  2.00

> <Gold.PLP.Chemscore.Internal.Correction>
0.0090

> <Gold.Rescore>
     Score         DG    S(hbond)    S(metal)    S(lipo)     H(rot)  DE(clash)    DE(int)     intcor
     12.79     -14.02       1.85        0.00      53.41       1.51       0.01       1.22       ----

> <Gold.Chemscore.Fitness>
12.7939

> <Gold.Chemscore.DG>
-14.0227

> <Gold.Chemscore.ZeroCoef>
-5.4800

> <Gold.Chemscore.Hbond>
1.8452

> <Gold.Chemscore.Metal>
0.0000

> <Gold.Chemscore.Lipo>
53.4119

> <Gold.Chemscore.Internal_Hbond>
0.0000

> <Gold.Chemscore.DEClash>
0.0058

> <Gold.Chemscore.DEInternal>
1.2230

> <Gold.Chemscore.Rot>
1.5115

> <Gold.Chemscore.Internal.Correction>
   9.000000E+99

> <Gold.Chemscore.Hbonds>
donor molecule, donor type, donor heavy atom, donor atom, acceptor molecule, acceptor atom, score
      L1  H     6    15       P1  7948  0.91
      L1  H    10    26       P1  7957  0.01
      L1  H    10    31       P1 10175  0.33

> <Gold.Chemscore.Hbond.Weighted>
-6.1630

> <Gold.Chemscore.Metal.Weighted>
-0.0000

> <Gold.Chemscore.Lipo.Weighted>
-6.2492

> <Gold.Chemscore.Internal_Hbond.Weighted>
0.0000

> <Gold.Chemscore.DEClash.Weighted>
0.0058

> <Gold.Chemscore.DEInternal.Weighted>
1.2230

> <Gold.Chemscore.Rot.Weighted>
3.8695

> <Gold.Chemscore.Internal.Correction.Weighted>
   9.000000E+99

> <Gold.Protein.RotatedTorsions>
[ 6907 6896 6895 6894 ] final  175.46 input  -60.11 | X-H torsion
[ 7974 7965 7964 7962 ] final   44.74 input  175.53 | X-H torsion
[ 8008 7997 7996 7995 ] final  -65.64 input   59.86 | X-H torsion
[ 10167 10162 10161 10158 ] final -166.63 input  -65.29 | X-H torsion
[ 10718 10713 10712 10709 ] final  -52.04 input   66.30 | X-H torsion
[ 10763 10752 10751 10750 ] final  -10.38 input  -60.55 | X-H torsion
[ 11005 11000 10999 10996 ] final  -69.14 input  -57.11 | X-H torsion

> <Gold.Protein.ActiveResidues>
 VAL166  LYS551  ARG553  GLY616  TRP617  ASP618  TYR619  PRO620  LYS621  CYS622 
 ASP623  PHE694  ASN695  SER759  ASP760  ASP761  ALA762  ILE779  LEU786  VAL792 
 PHE793  MET794  SER795  GLU796  ALA797  LYS798  CYS799  TRP800  GLU811  SER814 

> <Gold.Protein.RotatedAtoms>
  151.7359  133.3319  159.3352 H   0  0  0  0  0  0  0  0  0  0  0  0  # atno 6907 bound_to 6896
  150.7593  134.6322  159.6202 H   0  0  0  0  0  0  0  0  0  0  0  0  # atno 6908 bound_to 6896
  152.3562  134.6939  160.0273 H   0  0  0  0  0  0  0  0  0  0  0  0  # atno 6909 bound_to 6896
  146.0542  139.5041  142.9699 H   0  0  0  0  0  0  0  0  0  0  0  0  # atno 7974 bound_to 7965
  154.4684  140.0929  156.7082 H   0  0  0  0  0  0  0  0  0  0  0  0  # atno 8008 bound_to 7997
  155.4792  140.3467  155.4319 H   0  0  0  0  0  0  0  0  0  0  0  0  # atno 8009 bound_to 7997
  156.0997  140.1419  156.9472 H   0  0  0  0  0  0  0  0  0  0  0  0  # atno 8010 bound_to 7997
  139.6102  144.0830  152.1834 H   0  0  0  0  0  0  0  0  0  0  0  0  # atno 10167 bound_to 10162
  156.1656  130.4149  149.9725 H   0  0  0  0  0  0  0  0  0  0  0  0  # atno 10718 bound_to 10713
  153.4683  135.7016  153.6008 H   0  0  0  0  0  0  0  0  0  0  0  0  # atno 10763 bound_to 10752
  153.4273  135.3811  155.2149 H   0  0  0  0  0  0  0  0  0  0  0  0  # atno 10764 bound_to 10752
  154.8726  135.3942  154.4118 H   0  0  0  0  0  0  0  0  0  0  0  0  # atno 10765 bound_to 10752
  141.1547  133.6757  156.6554 H   0  0  0  0  0  0  0  0  0  0  0  0  # atno 11005 bound_to 11000
  145.6672  141.0226  143.1677 LP  0  0  0  0  0  0  0  0  0  0  0  0  # atno 17320 bound_to 7965
  144.7139  139.8268  143.7405 LP  0  0  0  0  0  0  0  0  0  0  0  0  # atno 17321 bound_to 7965
  140.0447  144.5980  150.7383 LP  0  0  0  0  0  0  0  0  0  0  0  0  # atno 17342 bound_to 10162
  140.7314  143.2693  151.3939 LP  0  0  0  0  0  0  0  0  0  0  0  0  # atno 17343 bound_to 10162
  156.7541  130.9126  151.3638 LP  0  0  0  0  0  0  0  0  0  0  0  0  # atno 17370 bound_to 10713
  157.6765  130.9100  150.0164 LP  0  0  0  0  0  0  0  0  0  0  0  0  # atno 17371 bound_to 10713
  140.3288  134.7946  157.4310 LP  0  0  0  0  0  0  0  0  0  0  0  0  # atno 17394 bound_to 11000
  140.1034  134.5442  155.8332 LP  0  0  0  0  0  0  0  0  0  0  0  0  # atno 17395 bound_to 11000

$$$$
