AV-unprocessed.smi:2780|AV-procd|sdf|10714|dock10
  -GOLD-   2272015153D 1   1.00000     0.00000
 Structure written by MMmdl.
 47 49  0  0  0  0  0  0  0  0  2 V2000
  148.4855  132.3147  153.0326 C   0  0  0  0  0  0  0  0  0  0  0  0
  147.1279  132.6388  152.4309 C   0  0  0  0  0  0  0  0  0  0  0  0
  146.3528  131.6440  151.9581 C   0  0  0  0  0  0  0  0  0  0  0  0
  145.0206  131.8518  151.2757 C   0  0  0  0  0  0  0  0  0  0  0  0
  144.8928  133.2808  150.7434 C   0  0  0  0  0  0  0  0  0  0  0  0
  145.2564  134.3171  151.8196 C   0  0  2  0  0  0  0  0  0  0  0  0
  145.0252  135.7351  151.2614 C   0  0  0  0  0  0  0  0  0  0  0  0
  146.7037  134.1207  152.3685 C   0  0  1  0  0  0  0  0  0  0  0  0
  146.8608  134.8478  153.7305 C   0  0  0  0  0  0  0  0  0  0  0  0
  148.2630  135.1995  154.0359 N   0  3  0  0  0  0  0  0  0  0  0  0
  148.4184  136.1311  155.1690 C   0  0  0  0  0  0  0  0  0  0  0  0
  149.9010  136.3535  155.4964 C   0  0  0  0  0  0  0  0  0  0  0  0
  150.2655  137.7552  155.4013 N   0  0  0  0  0  0  0  0  0  0  0  0
  150.2667  138.5428  154.3147 C   0  0  0  0  0  0  0  0  0  0  0  0
  150.6373  139.8036  154.5320 N   0  0  0  0  0  0  0  0  0  0  0  0
  150.8990  139.8599  155.8864 N   0  0  0  0  0  0  0  0  0  0  0  0
  150.6758  138.6241  156.3486 C   0  0  0  0  0  0  0  0  0  0  0  0
  150.8047  138.2436  157.7892 C   0  0  0  0  0  0  0  0  0  0  0  0
  152.0756  138.5170  158.5632 C   0  0  0  0  0  0  0  0  0  0  0  0
  151.6976  137.1002  158.2185 C   0  0  0  0  0  0  0  0  0  0  0  0
  149.2621  132.9304  152.5786 H   0  0  0  0  0  0  0  0  0  0  0  0
  148.7535  131.2707  152.8658 H   0  0  0  0  0  0  0  0  0  0  0  0
  148.4839  132.4799  154.1099 H   0  0  0  0  0  0  0  0  0  0  0  0
  146.6802  130.6177  152.0434 H   0  0  0  0  0  0  0  0  0  0  0  0
  144.9253  131.1425  150.4529 H   0  0  0  0  0  0  0  0  0  0  0  0
  144.2244  131.6281  151.9864 H   0  0  0  0  0  0  0  0  0  0  0  0
  145.5474  133.4067  149.8796 H   0  0  0  0  0  0  0  0  0  0  0  0
  143.8755  133.4423  150.3845 H   0  0  0  0  0  0  0  0  0  0  0  0
  144.5592  134.1693  152.6459 H   0  0  0  0  0  0  0  0  0  0  0  0
  145.7033  135.9495  150.4349 H   0  0  0  0  0  0  0  0  0  0  0  0
  145.1668  136.5089  152.0143 H   0  0  0  0  0  0  0  0  0  0  0  0
  144.0076  135.8443  150.8854 H   0  0  0  0  0  0  0  0  0  0  0  0
  147.3837  134.5856  151.6528 H   0  0  0  0  0  0  0  0  0  0  0  0
  146.2913  135.7756  153.7497 H   0  0  0  0  0  0  0  0  0  0  0  0
  146.4553  134.2243  154.5288 H   0  0  0  0  0  0  0  0  0  0  0  0
  148.7623  134.3484  154.2523 H   0  0  0  0  0  0  0  0  0  0  0  0
  147.9393  137.0790  154.9229 H   0  0  0  0  0  0  0  0  0  0  0  0
  147.8999  135.7243  156.0384 H   0  0  0  0  0  0  0  0  0  0  0  0
  150.1201  136.0131  156.5094 H   0  0  0  0  0  0  0  0  0  0  0  0
  150.5352  135.7720  154.8266 H   0  0  0  0  0  0  0  0  0  0  0  0
  149.9842  138.1847  153.3353 H   0  0  0  0  0  0  0  0  0  0  0  0
  149.8566  138.3744  158.3072 H   0  0  0  0  0  0  0  0  0  0  0  0
  152.9149  138.9555  158.0265 H   0  0  0  0  0  0  0  0  0  0  0  0
  151.9734  138.8269  159.6011 H   0  0  0  0  0  0  0  0  0  0  0  0
  151.3434  136.4627  159.0258 H   0  0  0  0  0  0  0  0  0  0  0  0
  152.2950  136.6023  157.4577 H   0  0  0  0  0  0  0  0  0  0  0  0
  148.6763  135.6158  153.2138 H   0  0  0  0  0  0  0  0  0  0  0  0
  1  2  1  0  0  0  0
  1 21  1  0  0  0  0
  1 22  1  0  0  0  0
  1 23  1  0  0  0  0
  2  8  1  0  0  0  0
  2  3  2  0  0  0  0
  3  4  1  0  0  0  0
  3 24  1  0  0  0  0
  4  5  1  0  0  0  0
  4 25  1  0  0  0  0
  4 26  1  0  0  0  0
  5  6  1  0  0  0  0
  5 27  1  0  0  0  0
  5 28  1  0  0  0  0
  6  7  1  0  0  0  0
  6  8  1  0  0  0  0
  6 29  1  0  0  0  0
  7 30  1  0  0  0  0
  7 31  1  0  0  0  0
  7 32  1  0  0  0  0
  8  9  1  0  0  0  0
  8 33  1  0  0  0  0
  9 10  1  0  0  0  0
  9 34  1  0  0  0  0
  9 35  1  0  0  0  0
 10 11  1  0  0  0  0
 10 36  1  0  0  0  0
 10 47  1  0  0  0  0
 11 12  1  0  0  0  0
 11 37  1  0  0  0  0
 11 38  1  0  0  0  0
 12 13  1  0  0  0  0
 12 39  1  0  0  0  0
 12 40  1  0  0  0  0
 13 17  1  0  0  0  0
 13 14  1  0  0  0  0
 14 15  2  0  0  0  0
 14 41  1  0  0  0  0
 15 16  1  0  0  0  0
 16 17  2  0  0  0  0
 17 18  1  0  0  0  0
 18 20  1  0  0  0  0
 18 19  1  0  0  0  0
 18 42  1  0  0  0  0
 19 20  1  0  0  0  0
 19 43  1  0  0  0  0
 19 44  1  0  0  0  0
 20 45  1  0  0  0  0
 20 46  1  0  0  0  0
M  CHG  1  10   1
M  END
> <s_m_source_file>
AV-unprocessed.smi

> <i_m_source_file_index>
2780

> <i_lp_mmshare_version>
43012

> <i_f3d_flags>
0

> <s_epik_input>
W0NIM11DMT1bQ0hdW0NIMl1bQ0gyXVtDQEBIXShbQ0gzXSlbQ0BIXTFbQ0gyXVtOSF1bQ0gyXVtDSDJdbjJbY0hdbm5jMltDSF0zW0NIMl1bQ0gyXTM=

> <s_epik_cmdline>
J2VwaWtfcHl0aG9uJywgJy1waCcsICc3LjAnLCAnLXRuJywgJzgnLCAnLW1hJywgJzIwMCcsICctbWV0YWxfYmluZGluZycsICctaW1hZScsICc8aW5maWxlLm1hZT4nLCAnLW9tYWUnLCAnPG91dGZpbGUubWFlPic=

> <r_lp_tautomer_probability>
1

> <r_epik_Ionization_Penalty>
0.00176214

> <r_epik_Ionization_Penalty_Charging>
0.00175191

> <r_epik_Ionization_Penalty_Neutral>
1.02377e-05

> <r_epik_State_Penalty>
-0

> <r_epik_Charging_Adjusted_Penalty>
0.00175191

> <i_epik_Tot_Q>
1

> <i_epik_Tot_abs_Q>
1

> <r_epik_Metal_State_Penalty>
-0

> <b_epik_Metal_Only>
0

> <s_lp_Force_Field>
OPLS_2005

> <r_lp_Energy>
22.2191

> <b_lp_Chiralities_Consistent>
1

> <s_lp_Variant>
AV-unprocessed.smi:2780-2

> <Gold.Version>
5.8.1

> <Gold.Id.Protein>
6NUR|6NUR_protein|mol2

> <Gold.PLP.Fitness>
42.2938

> <Gold.PLP.PLP>
-30.0645

> <Gold.PLP.part.hbond>
-1.9896

> <Gold.PLP.part.metal>
0.0000

> <Gold.PLP.part.buried>
-4.3127

> <Gold.PLP.part.nonpolar>
-23.5099

> <Gold.PLP.part.repulsive>
0.2134

> <Gold.PLP.ligand.clash>
0.0000

> <Gold.PLP.ligand.torsion>
0.7131

> <Gold.PLP.Chemscore.Hbond>
2.9825

> <Gold.PLP.Chemscore.CHOScore>
1.4874

> <Gold.PLP.Chemscore.Metal>
0.0000

> <Gold.Chemscore.Hbonds>
donor molecule, donor type, donor heavy atom, donor atom, acceptor molecule, acceptor atom, score
      L1  H    10    47       P1  7948  1.79
      P1  H  7989  7998       L1    15  1.00
      L1  C    14    41       P1  7948  0.80
      L1  C    14    41       P1  7957  0.14

> <Gold.PLP.Chemscore.Internal.Correction>
0.2459

> <Gold.Rescore>
     Score         DG    S(hbond)    S(metal)    S(lipo)     H(rot)  DE(clash)    DE(int)     intcor
     14.09     -15.00       1.95        0.00      68.99       1.98       0.10       0.80       ----

> <Gold.Chemscore.Fitness>
14.0918

> <Gold.Chemscore.DG>
-14.9969

> <Gold.Chemscore.ZeroCoef>
-5.4800

> <Gold.Chemscore.Hbond>
1.9502

> <Gold.Chemscore.Metal>
0.0000

> <Gold.Chemscore.Lipo>
68.9893

> <Gold.Chemscore.Internal_Hbond>
0.0000

> <Gold.Chemscore.DEClash>
0.1019

> <Gold.Chemscore.DEInternal>
0.8031

> <Gold.Chemscore.Rot>
1.9799

> <Gold.Chemscore.Internal.Correction>
   9.000000E+99

> <Gold.Chemscore.Hbonds>
donor molecule, donor type, donor heavy atom, donor atom, acceptor molecule, acceptor atom, score
      L1  H    10    47       P1  7948  0.84
      P1  H  7989  7998       L1    15  0.93

> <Gold.Chemscore.Hbond.Weighted>
-6.5137

> <Gold.Chemscore.Metal.Weighted>
-0.0000

> <Gold.Chemscore.Lipo.Weighted>
-8.0717

> <Gold.Chemscore.Internal_Hbond.Weighted>
0.0000

> <Gold.Chemscore.DEClash.Weighted>
0.1019

> <Gold.Chemscore.DEInternal.Weighted>
0.8031

> <Gold.Chemscore.Rot.Weighted>
5.0685

> <Gold.Chemscore.Internal.Correction.Weighted>
   9.000000E+99

> <Gold.Protein.RotatedTorsions>
[ 6907 6896 6895 6894 ] final  -95.06 input  -60.11 | X-H torsion
[ 7974 7965 7964 7962 ] final   95.31 input  175.53 | X-H torsion
[ 8008 7997 7996 7995 ] final  152.35 input   59.86 | X-H torsion
[ 10167 10162 10161 10158 ] final  151.03 input  -65.29 | X-H torsion
[ 10718 10713 10712 10709 ] final   34.67 input   66.30 | X-H torsion
[ 10763 10752 10751 10750 ] final   97.48 input  -60.55 | X-H torsion
[ 11005 11000 10999 10996 ] final  -53.22 input  -57.11 | X-H torsion

> <Gold.Protein.ActiveResidues>
 VAL166  LYS551  ARG553  GLY616  TRP617  ASP618  TYR619  PRO620  LYS621  CYS622 
 ASP623  PHE694  ASN695  SER759  ASP760  ASP761  ALA762  ILE779  LEU786  VAL792 
 PHE793  MET794  SER795  GLU796  ALA797  LYS798  CYS799  TRP800  GLU811  SER814 

> <Gold.Protein.RotatedAtoms>
  150.6955  134.1716  159.4214 H   0  0  0  0  0  0  0  0  0  0  0  0  # atno 6907 bound_to 6896
  151.9693  135.0082  160.0561 H   0  0  0  0  0  0  0  0  0  0  0  0  # atno 6908 bound_to 6896
  152.1856  133.4702  159.5017 H   0  0  0  0  0  0  0  0  0  0  0  0  # atno 6909 bound_to 6896
  145.4539  139.2291  143.3025 H   0  0  0  0  0  0  0  0  0  0  0  0  # atno 7974 bound_to 7965
  156.2633  140.2023  156.6320 H   0  0  0  0  0  0  0  0  0  0  0  0  # atno 8008 bound_to 7997
  154.6676  140.0554  157.0155 H   0  0  0  0  0  0  0  0  0  0  0  0  # atno 8009 bound_to 7997
  155.1184  140.3222  155.4506 H   0  0  0  0  0  0  0  0  0  0  0  0  # atno 8010 bound_to 7997
  139.4844  144.5474  151.7460 H   0  0  0  0  0  0  0  0  0  0  0  0  # atno 10167 bound_to 10162
  157.3132  130.7410  149.6738 H   0  0  0  0  0  0  0  0  0  0  0  0  # atno 10718 bound_to 10713
  153.2774  135.4182  155.1046 H   0  0  0  0  0  0  0  0  0  0  0  0  # atno 10763 bound_to 10752
  154.8477  135.3487  154.6159 H   0  0  0  0  0  0  0  0  0  0  0  0  # atno 10764 bound_to 10752
  153.6579  135.7049  153.5244 H   0  0  0  0  0  0  0  0  0  0  0  0  # atno 10765 bound_to 10752
  141.0965  133.6624  156.4139 H   0  0  0  0  0  0  0  0  0  0  0  0  # atno 11005 bound_to 11000
  146.2489  140.5301  142.8902 LP  0  0  0  0  0  0  0  0  0  0  0  0  # atno 17320 bound_to 7965
  144.8044  140.6273  143.6456 LP  0  0  0  0  0  0  0  0  0  0  0  0  # atno 17321 bound_to 7965
  140.5023  144.1151  150.5974 LP  0  0  0  0  0  0  0  0  0  0  0  0  # atno 17342 bound_to 10162
  140.4048  143.2686  151.9904 LP  0  0  0  0  0  0  0  0  0  0  0  0  # atno 17343 bound_to 10162
  155.9679  130.4245  150.4611 LP  0  0  0  0  0  0  0  0  0  0  0  0  # atno 17370 bound_to 10713
  157.2613  131.0567  151.2318 LP  0  0  0  0  0  0  0  0  0  0  0  0  # atno 17371 bound_to 10713
  140.5128  134.6379  157.5290 LP  0  0  0  0  0  0  0  0  0  0  0  0  # atno 17394 bound_to 11000
  139.9803  134.7148  155.9872 LP  0  0  0  0  0  0  0  0  0  0  0  0  # atno 17395 bound_to 11000

$$$$
