AV-unprocessed.smi:1120|AV-procd|sdf|4825|dock5
  -GOLD-   22720 3383D 1   1.00000     0.00000
 Structure written by MMmdl.
 48 49  0  0  0  0  0  0  0  0  3 V2000
  152.5453  144.9256  158.2594 C   0  0  0  0  0  0  0  0  0  0  0  0
  152.1120  143.5629  158.8176 C   0  0  2  0  0  0  0  0  0  0  0  0
  153.3262  142.6716  159.1651 C   0  0  0  0  0  0  0  0  0  0  0  0
  152.9204  141.2673  159.6846 C   0  0  0  0  0  0  0  0  0  0  0  0
  151.9723  140.4884  158.7395 C   0  0  2  0  0  0  0  0  0  0  0  0
  152.6982  140.0667  157.5492 N   0  5  0  0  0  0  0  0  0  0  0  0
  151.9600  139.1759  156.4120 S   0  0  0  0  0  0  0  0  0  0  0  0
  151.3542  140.0122  155.3635 O   0  0  0  0  0  0  0  0  0  0  0  0
  152.7637  138.0247  155.9669 O   0  0  0  0  0  0  0  0  0  0  0  0
  150.5444  138.4864  157.3828 C   0  0  0  0  0  0  0  0  0  0  0  0
  150.5555  136.9574  157.3484 C   0  0  0  0  0  0  0  0  0  0  0  0
  151.3296  136.3323  158.0735 O   0  0  0  0  0  0  0  0  0  0  0  0
  149.6878  136.3665  156.5108 N   0  0  0  0  0  0  0  0  0  0  0  0
  149.5806  134.9298  156.2722 C   0  0  0  0  0  0  0  0  0  0  0  0
  150.0117  134.5230  154.8492 C   0  0  0  0  0  0  0  0  0  0  0  0
  149.0906  133.5077  154.1961 C   0  0  0  0  0  0  0  0  0  0  0  0
  149.0235  132.1643  154.6259 C   0  0  0  0  0  0  0  0  0  0  0  0
  148.1636  131.2693  153.9559 C   0  0  0  0  0  0  0  0  0  0  0  0
  147.3878  131.7360  152.8745 C   0  0  0  0  0  0  0  0  0  0  0  0
  147.4917  133.0883  152.4901 C   0  0  0  0  0  0  0  0  0  0  0  0
  148.3260  133.9148  153.1573 N   0  3  0  0  0  0  0  0  0  0  0  0
  150.7794  141.4021  158.3568 C   0  0  0  0  0  0  0  0  0  0  0  0
  151.1942  142.8017  157.8337 C   0  0  0  0  0  0  0  0  0  0  0  0
  153.1135  144.8129  157.3355 H   0  0  0  0  0  0  0  0  0  0  0  0
  153.1732  145.4593  158.9732 H   0  0  0  0  0  0  0  0  0  0  0  0
  151.6810  145.5545  158.0446 H   0  0  0  0  0  0  0  0  0  0  0  0
  151.5499  143.7417  159.7353 H   0  0  0  0  0  0  0  0  0  0  0  0
  153.9703  142.5732  158.2887 H   0  0  0  0  0  0  0  0  0  0  0  0
  153.9346  143.1676  159.9220 H   0  0  0  0  0  0  0  0  0  0  0  0
  153.8142  140.6765  159.8892 H   0  0  0  0  0  0  0  0  0  0  0  0
  152.4226  141.3895  160.6473 H   0  0  0  0  0  0  0  0  0  0  0  0
  151.5893  139.6255  159.2854 H   0  0  0  0  0  0  0  0  0  0  0  0
  150.6071  138.8568  158.4060 H   0  0  0  0  0  0  0  0  0  0  0  0
  149.6198  138.8649  156.9474 H   0  0  0  0  0  0  0  0  0  0  0  0
  149.0961  136.9641  155.9512 H   0  0  0  0  0  0  0  0  0  0  0  0
  150.2176  134.4258  156.9992 H   0  0  0  0  0  0  0  0  0  0  0  0
  148.5647  134.5860  156.4739 H   0  0  0  0  0  0  0  0  0  0  0  0
  150.0704  135.4098  154.2168 H   0  0  0  0  0  0  0  0  0  0  0  0
  151.0197  134.1076  154.8792 H   0  0  0  0  0  0  0  0  0  0  0  0
  149.6309  131.8193  155.4500 H   0  0  0  0  0  0  0  0  0  0  0  0
  148.1032  130.2364  154.2655 H   0  0  0  0  0  0  0  0  0  0  0  0
  146.7262  131.0657  152.3454 H   0  0  0  0  0  0  0  0  0  0  0  0
  146.9410  133.5296  151.6723 H   0  0  0  0  0  0  0  0  0  0  0  0
  150.1395  140.9104  157.6242 H   0  0  0  0  0  0  0  0  0  0  0  0
  150.1559  141.5395  159.2409 H   0  0  0  0  0  0  0  0  0  0  0  0
  150.2959  143.3907  157.6467 H   0  0  0  0  0  0  0  0  0  0  0  0
  151.6903  142.7066  156.8652 H   0  0  0  0  0  0  0  0  0  0  0  0
  148.3935  134.8868  152.8546 H   0  0  0  0  0  0  0  0  0  0  0  0
  1  2  1  0  0  0  0
  1 24  1  0  0  0  0
  1 25  1  0  0  0  0
  1 26  1  0  0  0  0
  2 23  1  0  0  0  0
  2  3  1  0  0  0  0
  2 27  1  0  0  0  0
  3  4  1  0  0  0  0
  3 28  1  0  0  0  0
  3 29  1  0  0  0  0
  4  5  1  0  0  0  0
  4 30  1  0  0  0  0
  4 31  1  0  0  0  0
  5  6  1  0  0  0  0
  5 22  1  0  0  0  0
  5 32  1  0  0  0  0
  6  7  1  0  0  0  0
  7  8  2  0  0  0  0
  7  9  2  0  0  0  0
  7 10  1  0  0  0  0
 10 11  1  0  0  0  0
 10 33  1  0  0  0  0
 10 34  1  0  0  0  0
 11 12  2  0  0  0  0
 11 13  1  0  0  0  0
 13 14  1  0  0  0  0
 13 35  1  0  0  0  0
 14 15  1  0  0  0  0
 14 36  1  0  0  0  0
 14 37  1  0  0  0  0
 15 16  1  0  0  0  0
 15 38  1  0  0  0  0
 15 39  1  0  0  0  0
 16 21  1  0  0  0  0
 16 17  2  0  0  0  0
 17 18  1  0  0  0  0
 17 40  1  0  0  0  0
 18 19  2  0  0  0  0
 18 41  1  0  0  0  0
 19 20  1  0  0  0  0
 19 42  1  0  0  0  0
 20 21  2  0  0  0  0
 20 43  1  0  0  0  0
 21 48  1  0  0  0  0
 22 23  1  0  0  0  0
 22 44  1  0  0  0  0
 22 45  1  0  0  0  0
 23 46  1  0  0  0  0
 23 47  1  0  0  0  0
M  CHG  1   6  -1
M  CHG  1  21   1
M  END
> <s_m_source_file>
AV-unprocessed.smi

> <i_m_source_file_index>
1120

> <i_lp_mmshare_version>
43012

> <i_f3d_flags>
0

> <s_epik_input>
W0NIM11bQ0BASF0xW0NIMl1bQ0gyXVtDQEhdKFtDSDJdW0NIMl0xKVtOSF1TKD1PKSg9TylbQ0gyXUMoPU8pW05IXVtDSDJdW0NIMl1jMltjSF1bY0hdW2NIXVtjSF1uMg==

> <s_epik_cmdline>
J2VwaWtfcHl0aG9uJywgJy1waCcsICc3LjAnLCAnLXRuJywgJzgnLCAnLW1hJywgJzIwMCcsICctbWV0YWxfYmluZGluZycsICctaW1hZScsICc8aW5maWxlLm1hZT4nLCAnLW9tYWUnLCAnPG91dGZpbGUubWFlPic=

> <r_epik_Ionization_Penalty>
7.48373

> <r_epik_Ionization_Penalty_Charging>
7.48373

> <r_epik_Ionization_Penalty_Neutral>
1.58512e-08

> <r_epik_State_Penalty>
7.71683

> <r_epik_Charging_Adjusted_Penalty>
15.2006

> <i_epik_Tot_Q>
0

> <i_epik_Tot_abs_Q>
2

> <r_epik_Metal_State_Penalty>
3.7254

> <b_epik_Metal_Only>
1

> <s_lp_Force_Field>
OPLS_2005

> <r_lp_Energy>
13.616

> <b_lp_Chiralities_Consistent>
1

> <s_lp_Variant>
AV-unprocessed.smi:1120-8

> <Gold.Version>
5.8.1

> <Gold.Id.Protein>
6NUR|6NUR_protein|mol2

> <Gold.PLP.Fitness>
55.9668

> <Gold.PLP.PLP>
-41.6333

> <Gold.PLP.part.hbond>
-4.0000

> <Gold.PLP.part.metal>
0.0000

> <Gold.PLP.part.buried>
-4.1605

> <Gold.PLP.part.nonpolar>
-32.8076

> <Gold.PLP.part.repulsive>
0.0545

> <Gold.PLP.ligand.clash>
0.0000

> <Gold.PLP.ligand.torsion>
1.3162

> <Gold.PLP.Chemscore.Hbond>
5.2704

> <Gold.PLP.Chemscore.CHOScore>
0.0000

> <Gold.PLP.Chemscore.Metal>
0.0000

> <Gold.Chemscore.Hbonds>
donor molecule, donor type, donor heavy atom, donor atom, acceptor molecule, acceptor atom, score
      L1  H    21    48       P1  7948  2.00
      P1  H  6896  6909       L1    12  0.34
      P1  H  7989  7998       L1     8  0.91
      P1  H  7997  8008       L1     6  2.00

> <Gold.PLP.Chemscore.Internal.Correction>
1.1547

> <Gold.Rescore>
     Score         DG    S(hbond)    S(metal)    S(lipo)     H(rot)  DE(clash)    DE(int)     intcor
     20.04     -22.66       2.83        0.00     109.44       1.98       1.25       1.37       ----

> <Gold.Chemscore.Fitness>
20.0366

> <Gold.Chemscore.DG>
-22.6560

> <Gold.Chemscore.ZeroCoef>
-5.4800

> <Gold.Chemscore.Hbond>
2.8290

> <Gold.Chemscore.Metal>
0.0000

> <Gold.Chemscore.Lipo>
109.4367

> <Gold.Chemscore.Internal_Hbond>
0.0000

> <Gold.Chemscore.DEClash>
1.2520

> <Gold.Chemscore.DEInternal>
1.3674

> <Gold.Chemscore.Rot>
1.9832

> <Gold.Chemscore.Internal.Correction>
   9.000000E+99

> <Gold.Chemscore.Hbonds>
donor molecule, donor type, donor heavy atom, donor atom, acceptor molecule, acceptor atom, score
      L1  H    21    48       P1  7948  0.59
      P1  H  6896  6909       L1    12  0.35
      P1  H  7989  7998       L1     8  0.85
      P1  H  7997  8008       L1     6  0.25

> <Gold.Chemscore.Hbond.Weighted>
-9.4488

> <Gold.Chemscore.Metal.Weighted>
-0.0000

> <Gold.Chemscore.Lipo.Weighted>
-12.8041

> <Gold.Chemscore.Internal_Hbond.Weighted>
0.0000

> <Gold.Chemscore.DEClash.Weighted>
1.2520

> <Gold.Chemscore.DEInternal.Weighted>
1.3674

> <Gold.Chemscore.Rot.Weighted>
5.0769

> <Gold.Chemscore.Internal.Correction.Weighted>
   9.000000E+99

> <Gold.Protein.RotatedTorsions>
[ 6907 6896 6895 6894 ] final   92.83 input  -60.11 | X-H torsion
[ 7974 7965 7964 7962 ] final  121.41 input  175.53 | X-H torsion
[ 8008 7997 7996 7995 ] final  -73.59 input   59.86 | X-H torsion
[ 10167 10162 10161 10158 ] final   86.39 input  -65.29 | X-H torsion
[ 10718 10713 10712 10709 ] final  -86.18 input   66.30 | X-H torsion
[ 10763 10752 10751 10750 ] final -169.27 input  -60.55 | X-H torsion
[ 11005 11000 10999 10996 ] final   99.98 input  -57.11 | X-H torsion

> <Gold.Protein.ActiveResidues>
 VAL166  LYS551  ARG553  GLY616  TRP617  ASP618  TYR619  PRO620  LYS621  CYS622 
 ASP623  PHE694  ASN695  SER759  ASP760  ASP761  ALA762  ILE779  LEU786  VAL792 
 PHE793  MET794  SER795  GLU796  ALA797  LYS798  CYS799  TRP800  GLU811  SER814 

> <Gold.Protein.RotatedAtoms>
  152.5453  134.1442  159.8491 H   0  0  0  0  0  0  0  0  0  0  0  0  # atno 6907 bound_to 6896
  151.1475  133.4922  159.2603 H   0  0  0  0  0  0  0  0  0  0  0  0  # atno 6908 bound_to 6896
  151.1507  135.0236  159.8722 H   0  0  0  0  0  0  0  0  0  0  0  0  # atno 6909 bound_to 6896
  145.1196  139.3398  143.4721 H   0  0  0  0  0  0  0  0  0  0  0  0  # atno 7974 bound_to 7965
  154.5260  140.0776  156.8259 H   0  0  0  0  0  0  0  0  0  0  0  0  # atno 8008 bound_to 7997
  155.3475  140.3411  155.4221 H   0  0  0  0  0  0  0  0  0  0  0  0  # atno 8009 bound_to 7997
  156.1732  140.1626  156.8397 H   0  0  0  0  0  0  0  0  0  0  0  0  # atno 8010 bound_to 7997
  139.8880  144.6402  150.8770 H   0  0  0  0  0  0  0  0  0  0  0  0  # atno 10167 bound_to 10162
  155.9991  130.4756  150.4676 H   0  0  0  0  0  0  0  0  0  0  0  0  # atno 10718 bound_to 10713
  154.6541  135.2915  154.9950 H   0  0  0  0  0  0  0  0  0  0  0  0  # atno 10763 bound_to 10752
  154.1032  135.6573  153.4876 H   0  0  0  0  0  0  0  0  0  0  0  0  # atno 10764 bound_to 10752
  153.0392  135.5247  154.7462 H   0  0  0  0  0  0  0  0  0  0  0  0  # atno 10765 bound_to 10752
  139.8771  134.9120  156.4687 H   0  0  0  0  0  0  0  0  0  0  0  0  # atno 11005 bound_to 11000
  146.3522  140.1149  142.8602 LP  0  0  0  0  0  0  0  0  0  0  0  0  # atno 17320 bound_to 7965
  145.0755  140.9185  143.4856 LP  0  0  0  0  0  0  0  0  0  0  0  0  # atno 17321 bound_to 7965
  140.7732  143.3533  151.1971 LP  0  0  0  0  0  0  0  0  0  0  0  0  # atno 17342 bound_to 10162
  139.7136  143.9337  152.2957 LP  0  0  0  0  0  0  0  0  0  0  0  0  # atno 17343 bound_to 10162
  157.2694  131.0584  151.2269 LP  0  0  0  0  0  0  0  0  0  0  0  0  # atno 17370 bound_to 10713
  157.3355  130.7007  149.6350 LP  0  0  0  0  0  0  0  0  0  0  0  0  # atno 17371 bound_to 10713
  140.8811  133.7917  155.9468 LP  0  0  0  0  0  0  0  0  0  0  0  0  # atno 17394 bound_to 11000
  140.8853  134.2562  157.5123 LP  0  0  0  0  0  0  0  0  0  0  0  0  # atno 17395 bound_to 11000

$$$$
