AV-unprocessed.smi:873|AV-procd|sdf|4014|dock2
  -GOLD-   22720 1503D 1   1.00000     0.00000
 Structure written by MMmdl.
 46 49  0  0  0  0  0  0  0  0  2 V2000
  140.4828  137.1324  153.6728 O   0  0  0  0  0  0  0  0  0  0  0  0
  141.3320  137.9810  153.4028 C   0  0  0  0  0  0  0  0  0  0  0  0
  142.5644  137.7223  152.9336 N   0  0  0  0  0  0  0  0  0  0  0  0
  143.1311  136.4665  152.5858 C   0  0  0  0  0  0  0  0  0  0  0  0
  144.3020  136.4398  151.7992 C   0  0  0  0  0  0  0  0  0  0  0  0
  144.8813  135.2825  151.4150 N   0  0  0  0  0  0  0  0  0  0  0  0
  144.2817  134.1522  151.7989 C   0  0  0  0  0  0  0  0  0  0  0  0
  144.9431  132.8697  151.4004 C   0  0  0  0  0  0  0  0  0  0  0  0
  145.2606  132.5760  149.9482 C   0  0  0  0  0  0  0  0  0  0  0  0
  144.1735  131.8059  150.6442 C   0  0  0  0  0  0  0  0  0  0  0  0
  143.1771  134.0500  152.5428 N   0  0  0  0  0  0  0  0  0  0  0  0
  142.5929  135.2030  152.9350 C   0  0  0  0  0  0  0  0  0  0  0  0
  141.1429  139.2990  153.5639 N   0  0  0  0  0  0  0  0  0  0  0  0
  139.9249  139.9316  154.0654 C   0  0  2  0  0  0  0  0  0  0  0  0
  138.7107  139.4573  153.2502 C   0  0  0  0  0  0  0  0  0  0  0  0
  137.4304  140.1856  153.6918 C   0  0  0  0  0  0  0  0  0  0  0  0
  137.5894  141.6574  153.5835 N   0  3  1  0  0  0  0  0  0  0  0  0
  136.3353  142.3767  153.8961 C   0  0  0  0  0  0  0  0  0  0  0  0
  135.0924  141.6699  153.4070 C   0  0  0  0  0  0  0  0  0  0  0  0
  135.6068  142.8901  152.6759 C   0  0  0  0  0  0  0  0  0  0  0  0
  138.7332  142.1488  154.3922 C   0  0  0  0  0  0  0  0  0  0  0  0
  140.0448  141.4622  153.9730 C   0  0  0  0  0  0  0  0  0  0  0  0
  143.1819  138.5153  152.8401 H   0  0  0  0  0  0  0  0  0  0  0  0
  144.7808  137.3528  151.4764 H   0  0  0  0  0  0  0  0  0  0  0  0
  145.6553  132.5405  152.1546 H   0  0  0  0  0  0  0  0  0  0  0  0
  144.9557  133.3074  149.2023 H   0  0  0  0  0  0  0  0  0  0  0  0
  146.1905  132.0529  149.7351 H   0  0  0  0  0  0  0  0  0  0  0  0
  144.3755  130.7667  150.8952 H   0  0  0  0  0  0  0  0  0  0  0  0
  143.1456  132.0264  150.3626 H   0  0  0  0  0  0  0  0  0  0  0  0
  141.6867  135.0911  153.5092 H   0  0  0  0  0  0  0  0  0  0  0  0
  141.9045  139.9145  153.3179 H   0  0  0  0  0  0  0  0  0  0  0  0
  139.7570  139.6627  155.1099 H   0  0  0  0  0  0  0  0  0  0  0  0
  138.8815  139.6379  152.1876 H   0  0  0  0  0  0  0  0  0  0  0  0
  138.5799  138.3805  153.3643 H   0  0  0  0  0  0  0  0  0  0  0  0
  136.5948  139.8605  153.0709 H   0  0  0  0  0  0  0  0  0  0  0  0
  137.1821  139.9199  154.7208 H   0  0  0  0  0  0  0  0  0  0  0  0
  136.3191  142.9396  154.8281 H   0  0  0  0  0  0  0  0  0  0  0  0
  135.2068  140.7049  152.9164 H   0  0  0  0  0  0  0  0  0  0  0  0
  134.1850  141.7862  153.9962 H   0  0  0  0  0  0  0  0  0  0  0  0
  135.0363  143.8107  152.7815 H   0  0  0  0  0  0  0  0  0  0  0  0
  136.0626  142.7357  151.6994 H   0  0  0  0  0  0  0  0  0  0  0  0
  138.8318  143.2280  154.2682 H   0  0  0  0  0  0  0  0  0  0  0  0
  138.5366  141.9691  155.4505 H   0  0  0  0  0  0  0  0  0  0  0  0
  140.8622  141.8124  154.6046 H   0  0  0  0  0  0  0  0  0  0  0  0
  140.2959  141.7545  152.9521 H   0  0  0  0  0  0  0  0  0  0  0  0
  137.8053  141.8586  152.6175 H   0  0  0  0  0  0  0  0  0  0  0  0
  1  2  2  0  0  0  0
  2  3  1  0  0  0  0
  2 13  1  0  0  0  0
  3  4  1  0  0  0  0
  3 23  1  0  0  0  0
  4 12  1  0  0  0  0
  4  5  2  0  0  0  0
  5  6  1  0  0  0  0
  5 24  1  0  0  0  0
  6  7  2  0  0  0  0
  7  8  1  0  0  0  0
  7 11  1  0  0  0  0
  8 10  1  0  0  0  0
  8  9  1  0  0  0  0
  8 25  1  0  0  0  0
  9 10  1  0  0  0  0
  9 26  1  0  0  0  0
  9 27  1  0  0  0  0
 10 28  1  0  0  0  0
 10 29  1  0  0  0  0
 11 12  2  0  0  0  0
 12 30  1  0  0  0  0
 13 14  1  0  0  0  0
 13 31  1  0  0  0  0
 14 22  1  0  0  0  0
 14 15  1  0  0  0  0
 14 32  1  0  0  0  0
 15 16  1  0  0  0  0
 15 33  1  0  0  0  0
 15 34  1  0  0  0  0
 16 17  1  0  0  0  0
 16 35  1  0  0  0  0
 16 36  1  0  0  0  0
 17 18  1  0  0  0  0
 17 21  1  0  0  0  0
 17 46  1  0  0  0  0
 18 20  1  0  0  0  0
 18 19  1  0  0  0  0
 18 37  1  0  0  0  0
 19 20  1  0  0  0  0
 19 38  1  0  0  0  0
 19 39  1  0  0  0  0
 20 40  1  0  0  0  0
 20 41  1  0  0  0  0
 21 22  1  0  0  0  0
 21 42  1  0  0  0  0
 21 43  1  0  0  0  0
 22 44  1  0  0  0  0
 22 45  1  0  0  0  0
M  CHG  1  17   1
M  END
> <s_m_source_file>
AV-unprocessed.smi

> <i_m_source_file_index>
873

> <i_lp_mmshare_version>
43012

> <i_f3d_flags>
0

> <s_epik_input>
W0NIMl0xW0NIMl1bQ0hdMU4oW0NIMl1bQ0gyXTIpW0NIMl1bQ0gyXVtDSF0yW05IXUMoPU8pW05IXWMzW2NIXW5jKG5bY0hdMylbQ0hdNFtDSDJdW0NIMl00

> <s_epik_cmdline>
J2VwaWtfcHl0aG9uJywgJy1waCcsICc3LjAnLCAnLXRuJywgJzgnLCAnLW1hJywgJzIwMCcsICctbWV0YWxfYmluZGluZycsICctaW1hZScsICc8aW5maWxlLm1hZT4nLCAnLW9tYWUnLCAnPG91dGZpbGUubWFlPic=

> <r_lp_tautomer_probability>
1

> <r_epik_Ionization_Penalty>
0.123264

> <r_epik_Ionization_Penalty_Charging>
0.123242

> <r_epik_Ionization_Penalty_Neutral>
2.24743e-05

> <r_epik_State_Penalty>
0.112739

> <r_epik_Charging_Adjusted_Penalty>
0.235981

> <i_epik_Tot_Q>
1

> <i_epik_Tot_abs_Q>
1

> <r_epik_Metal_State_Penalty>
0.112739

> <b_epik_Metal_Only>
0

> <s_lp_Force_Field>
OPLS_2005

> <r_lp_Energy>
28.2326

> <b_lp_Chiralities_Consistent>
1

> <s_lp_Variant>
AV-unprocessed.smi:873-1

> <Gold.Version>
5.8.1

> <Gold.Id.Protein>
6NUR|6NUR_protein|mol2

> <Gold.PLP.Fitness>
44.6935

> <Gold.PLP.PLP>
-36.9452

> <Gold.PLP.part.hbond>
-3.0000

> <Gold.PLP.part.metal>
0.0000

> <Gold.PLP.part.buried>
-3.4172

> <Gold.PLP.part.nonpolar>
-31.1522

> <Gold.PLP.part.repulsive>
0.5653

> <Gold.PLP.ligand.clash>
0.0000

> <Gold.PLP.ligand.torsion>
0.9908

> <Gold.PLP.Chemscore.Hbond>
2.0000

> <Gold.PLP.Chemscore.CHOScore>
0.7808

> <Gold.PLP.Chemscore.Metal>
0.0000

> <Gold.Chemscore.Hbonds>
donor molecule, donor type, donor heavy atom, donor atom, acceptor molecule, acceptor atom, score
      L1  H     3    23       P1 10175  1.00
      L1  H    13    31       P1 10175  1.00
      L1  C     5    24       P1 10171  0.80

> <Gold.PLP.Chemscore.Internal.Correction>
1.3877

> <Gold.Rescore>
     Score         DG    S(hbond)    S(metal)    S(lipo)     H(rot)  DE(clash)    DE(int)     intcor
     14.77     -18.04       1.48        0.00      94.66       1.36       0.08       3.18       ----

> <Gold.Chemscore.Fitness>
14.7722

> <Gold.Chemscore.DG>
-18.0359

> <Gold.Chemscore.ZeroCoef>
-5.4800

> <Gold.Chemscore.Hbond>
1.4836

> <Gold.Chemscore.Metal>
0.0000

> <Gold.Chemscore.Lipo>
94.6578

> <Gold.Chemscore.Internal_Hbond>
0.0000

> <Gold.Chemscore.DEClash>
0.0799

> <Gold.Chemscore.DEInternal>
3.1838

> <Gold.Chemscore.Rot>
1.3571

> <Gold.Chemscore.Internal.Correction>
   9.000000E+99

> <Gold.Chemscore.Hbonds>
donor molecule, donor type, donor heavy atom, donor atom, acceptor molecule, acceptor atom, score
      L1  H     3    23       P1 10175  0.94
      L1  H    13    31       P1 10175  0.54

> <Gold.Chemscore.Hbond.Weighted>
-4.9552

> <Gold.Chemscore.Metal.Weighted>
-0.0000

> <Gold.Chemscore.Lipo.Weighted>
-11.0750

> <Gold.Chemscore.Internal_Hbond.Weighted>
0.0000

> <Gold.Chemscore.DEClash.Weighted>
0.0799

> <Gold.Chemscore.DEInternal.Weighted>
3.1838

> <Gold.Chemscore.Rot.Weighted>
3.4742

> <Gold.Chemscore.Internal.Correction.Weighted>
   9.000000E+99

> <Gold.Protein.RotatedTorsions>
[ 6907 6896 6895 6894 ] final  -35.03 input  -60.11 | X-H torsion
[ 7974 7965 7964 7962 ] final -149.95 input  175.53 | X-H torsion
[ 8008 7997 7996 7995 ] final   26.11 input   59.86 | X-H torsion
[ 10167 10162 10161 10158 ] final   -3.78 input  -65.29 | X-H torsion
[ 10718 10713 10712 10709 ] final -158.24 input   66.30 | X-H torsion
[ 10763 10752 10751 10750 ] final  -33.16 input  -60.55 | X-H torsion
[ 11005 11000 10999 10996 ] final  -38.73 input  -57.11 | X-H torsion

> <Gold.Protein.ActiveResidues>
 VAL166  LYS551  ARG553  GLY616  TRP617  ASP618  TYR619  PRO620  LYS621  CYS622 
 ASP623  PHE694  ASN695  SER759  ASP760  ASP761  ALA762  ILE779  LEU786  VAL792 
 PHE793  MET794  SER795  GLU796  ALA797  LYS798  CYS799  TRP800  GLU811  SER814 

> <Gold.Protein.RotatedAtoms>
  151.0450  134.9633  159.8181 H   0  0  0  0  0  0  0  0  0  0  0  0  # atno 6907 bound_to 6896
  152.5371  134.2610  159.8945 H   0  0  0  0  0  0  0  0  0  0  0  0  # atno 6908 bound_to 6896
  151.2623  133.4253  159.2650 H   0  0  0  0  0  0  0  0  0  0  0  0  # atno 6909 bound_to 6896
  144.7936  140.4996  143.5755 H   0  0  0  0  0  0  0  0  0  0  0  0  # atno 7974 bound_to 7965
  155.0222  140.3149  155.4789 H   0  0  0  0  0  0  0  0  0  0  0  0  # atno 8008 bound_to 7997
  156.2890  140.2195  156.5282 H   0  0  0  0  0  0  0  0  0  0  0  0  # atno 8009 bound_to 7997
  154.7442  140.0471  157.0825 H   0  0  0  0  0  0  0  0  0  0  0  0  # atno 8010 bound_to 7997
  140.6903  143.6500  150.8358 H   0  0  0  0  0  0  0  0  0  0  0  0  # atno 10167 bound_to 10162
  156.5513  130.8607  151.2781 H   0  0  0  0  0  0  0  0  0  0  0  0  # atno 10718 bound_to 10713
  153.8257  135.6870  153.4821 H   0  0  0  0  0  0  0  0  0  0  0  0  # atno 10763 bound_to 10752
  153.1542  135.4606  154.9678 H   0  0  0  0  0  0  0  0  0  0  0  0  # atno 10764 bound_to 10752
  154.7908  135.3301  154.7725 H   0  0  0  0  0  0  0  0  0  0  0  0  # atno 10765 bound_to 10752
  141.0050  133.6936  156.2093 H   0  0  0  0  0  0  0  0  0  0  0  0  # atno 11005 bound_to 11000
  145.5730  139.1484  143.3278 LP  0  0  0  0  0  0  0  0  0  0  0  0  # atno 17320 bound_to 7965
  146.2197  140.5862  142.9022 LP  0  0  0  0  0  0  0  0  0  0  0  0  # atno 17321 bound_to 7965
  140.0212  143.5540  152.2799 LP  0  0  0  0  0  0  0  0  0  0  0  0  # atno 17342 bound_to 10162
  139.6299  144.7643  151.2558 LP  0  0  0  0  0  0  0  0  0  0  0  0  # atno 17343 bound_to 10162
  157.7387  130.9818  150.2267 LP  0  0  0  0  0  0  0  0  0  0  0  0  # atno 17370 bound_to 10713
  156.2882  130.3742  149.7868 LP  0  0  0  0  0  0  0  0  0  0  0  0  # atno 17371 bound_to 10713
  140.6828  134.4749  157.5589 LP  0  0  0  0  0  0  0  0  0  0  0  0  # atno 17394 bound_to 11000
  139.9058  134.8452  156.1711 LP  0  0  0  0  0  0  0  0  0  0  0  0  # atno 17395 bound_to 11000

$$$$
