AV-unprocessed.smi:1545|AV-procd|sdf|6214|dock8
  -GOLD-   22720 6383D 1   1.00000     0.00000
 Structure written by MMmdl.
 42 44  0  0  0  0  0  0  0  0  2 V2000
  147.5785  141.0267  152.8017 O   0  0  0  0  0  0  0  0  0  0  0  0
  147.1054  139.7305  153.0975 C   0  0  0  0  0  0  0  0  0  0  0  0
  146.5025  139.0939  151.8388 C   0  0  0  0  0  0  0  0  0  0  0  0
  146.2264  137.6796  152.0330 N   0  0  0  0  0  0  0  0  0  0  0  0
  144.9360  137.2823  152.3984 C   0  0  0  0  0  0  0  0  0  0  0  0
  143.8293  138.0724  152.4113 N   0  3  0  0  0  0  0  0  0  0  0  0
  142.7450  137.3030  152.8433 C   0  0  0  0  0  0  0  0  0  0  0  0
  141.4077  137.6408  153.0273 C   0  0  0  0  0  0  0  0  0  0  0  0
  140.5525  136.6169  153.4853 C   0  0  0  0  0  0  0  0  0  0  0  0
  141.0340  135.3170  153.7439 C   0  0  0  0  0  0  0  0  0  0  0  0
  142.3910  134.9822  153.5537 C   0  0  0  0  0  0  0  0  0  0  0  0
  143.2310  135.9977  153.0980 C   0  0  0  0  0  0  0  0  0  0  0  0
  144.5990  136.0296  152.8012 N   0  0  0  0  0  0  0  0  0  0  0  0
  145.4099  134.8132  152.9596 C   0  0  0  0  0  0  0  0  0  0  0  0
  145.4915  133.9752  151.6685 C   0  0  2  0  0  0  0  0  0  0  0  0
  144.2315  133.9621  151.0254 O   0  0  0  0  0  0  0  0  0  0  0  0
  146.0042  132.5732  151.9549 C   0  0  0  0  0  0  0  0  0  0  0  0
  145.2794  131.4405  151.5220 C   0  0  0  0  0  0  0  0  0  0  0  0
  145.7551  130.1445  151.8007 C   0  0  0  0  0  0  0  0  0  0  0  0
  146.9570  129.9731  152.5140 C   0  0  0  0  0  0  0  0  0  0  0  0
  147.6822  131.0987  152.9501 C   0  0  0  0  0  0  0  0  0  0  0  0
  148.8372  130.9355  153.6377 F   0  0  0  0  0  0  0  0  0  0  0  0
  147.2065  132.3951  152.6725 C   0  0  0  0  0  0  0  0  0  0  0  0
  148.3843  140.9474  152.3144 H   0  0  0  0  0  0  0  0  0  0  0  0
  147.9020  139.1174  153.5211 H   0  0  0  0  0  0  0  0  0  0  0  0
  146.3356  139.8290  153.8630 H   0  0  0  0  0  0  0  0  0  0  0  0
  145.5560  139.5869  151.6131 H   0  0  0  0  0  0  0  0  0  0  0  0
  147.1537  139.2449  150.9767 H   0  0  0  0  0  0  0  0  0  0  0  0
  146.9972  137.0330  152.1233 H   0  0  0  0  0  0  0  0  0  0  0  0
  141.0349  138.6356  152.8319 H   0  0  0  0  0  0  0  0  0  0  0  0
  139.5056  136.8335  153.6421 H   0  0  0  0  0  0  0  0  0  0  0  0
  140.3478  134.5599  154.0954 H   0  0  0  0  0  0  0  0  0  0  0  0
  142.7490  133.9833  153.7555 H   0  0  0  0  0  0  0  0  0  0  0  0
  146.4051  135.1036  153.2982 H   0  0  0  0  0  0  0  0  0  0  0  0
  144.9723  134.2268  153.7686 H   0  0  0  0  0  0  0  0  0  0  0  0
  146.1855  134.4582  150.9793 H   0  0  0  0  0  0  0  0  0  0  0  0
  144.2898  133.4052  150.2639 H   0  0  0  0  0  0  0  0  0  0  0  0
  144.3542  131.5619  150.9772 H   0  0  0  0  0  0  0  0  0  0  0  0
  145.1968  129.2814  151.4684 H   0  0  0  0  0  0  0  0  0  0  0  0
  147.3216  128.9791  152.7278 H   0  0  0  0  0  0  0  0  0  0  0  0
  147.7689  133.2516  153.0147 H   0  0  0  0  0  0  0  0  0  0  0  0
  143.8181  139.0495  152.1496 H   0  0  0  0  0  0  0  0  0  0  0  0
  1  2  1  0  0  0  0
  1 24  1  0  0  0  0
  2  3  1  0  0  0  0
  2 25  1  0  0  0  0
  2 26  1  0  0  0  0
  3  4  1  0  0  0  0
  3 27  1  0  0  0  0
  3 28  1  0  0  0  0
  4  5  1  0  0  0  0
  4 29  1  0  0  0  0
  5 13  1  0  0  0  0
  5  6  2  0  0  0  0
  6  7  1  0  0  0  0
  6 42  1  0  0  0  0
  7 12  2  0  0  0  0
  7  8  1  0  0  0  0
  8  9  2  0  0  0  0
  8 30  1  0  0  0  0
  9 10  1  0  0  0  0
  9 31  1  0  0  0  0
 10 11  2  0  0  0  0
 10 32  1  0  0  0  0
 11 12  1  0  0  0  0
 11 33  1  0  0  0  0
 12 13  1  0  0  0  0
 13 14  1  0  0  0  0
 14 15  1  0  0  0  0
 14 34  1  0  0  0  0
 14 35  1  0  0  0  0
 15 16  1  0  0  0  0
 15 17  1  0  0  0  0
 15 36  1  0  0  0  0
 16 37  1  0  0  0  0
 17 23  1  0  0  0  0
 17 18  2  0  0  0  0
 18 19  1  0  0  0  0
 18 38  1  0  0  0  0
 19 20  2  0  0  0  0
 19 39  1  0  0  0  0
 20 21  1  0  0  0  0
 20 40  1  0  0  0  0
 21 22  1  0  0  0  0
 21 23  2  0  0  0  0
 23 41  1  0  0  0  0
M  CHG  1   6   1
M  END
> <s_m_source_file>
AV-unprocessed.smi

> <i_m_source_file_index>
1545

> <i_lp_mmshare_version>
43012

> <i_f3d_flags>
0

> <s_epik_input>
W09IXVtDSDJdW0NIMl1bTkhdYyhuMSluKGMoYzEyKVtjSF1bY0hdW2NIXVtjSF0yKVtDSDJdW0NASF0oW09IXSljM1tjSF1bY0hdW2NIXWMoRilbY0hdMw==

> <s_epik_cmdline>
J2VwaWtfcHl0aG9uJywgJy1waCcsICc3LjAnLCAnLXRuJywgJzgnLCAnLW1hJywgJzIwMCcsICctbWV0YWxfYmluZGluZycsICctaW1hZScsICc8aW5maWxlLm1hZT4nLCAnLW9tYWUnLCAnPG91dGZpbGUubWFlPic=

> <r_epik_Ionization_Penalty>
0.0688114

> <r_epik_Ionization_Penalty_Charging>
0.0688055

> <r_epik_Ionization_Penalty_Neutral>
5.85933e-06

> <r_epik_State_Penalty>
0.0602293

> <r_epik_Charging_Adjusted_Penalty>
0.129035

> <i_epik_Tot_Q>
1

> <i_epik_Tot_abs_Q>
1

> <r_epik_Metal_State_Penalty>
2.77411

> <b_epik_Metal_Only>
0

> <s_lp_Force_Field>
OPLS_2005

> <r_lp_Energy>
22.2772

> <b_lp_Chiralities_Consistent>
1

> <s_lp_Variant>
AV-unprocessed.smi:1545-1

> <Gold.Version>
5.8.1

> <Gold.Id.Protein>
6NUR|6NUR_protein|mol2

> <Gold.PLP.Fitness>
56.5568

> <Gold.PLP.PLP>
-43.3351

> <Gold.PLP.part.hbond>
-3.7879

> <Gold.PLP.part.metal>
0.0000

> <Gold.PLP.part.buried>
-3.2366

> <Gold.PLP.part.nonpolar>
-35.7211

> <Gold.PLP.part.repulsive>
0.0916

> <Gold.PLP.ligand.clash>
0.0000

> <Gold.PLP.ligand.torsion>
0.7838

> <Gold.PLP.Chemscore.Hbond>
4.9200

> <Gold.PLP.Chemscore.CHOScore>
0.0000

> <Gold.PLP.Chemscore.Metal>
0.0000

> <Gold.Chemscore.Hbonds>
donor molecule, donor type, donor heavy atom, donor atom, acceptor molecule, acceptor atom, score
      L1  H     1    24       P1  7957  1.00
      L1  H     4    29       P1  7948  1.59
      L1  H     6    42       P1 10175  1.46

> <Gold.PLP.Chemscore.Internal.Correction>
0.0293

> <Gold.Rescore>
     Score         DG    S(hbond)    S(metal)    S(lipo)     H(rot)  DE(clash)    DE(int)     intcor
     17.77     -19.02       2.82        0.00     104.07       3.15       0.39       0.87       ----

> <Gold.Chemscore.Fitness>
17.7665

> <Gold.Chemscore.DG>
-19.0177

> <Gold.Chemscore.ZeroCoef>
-5.4800

> <Gold.Chemscore.Hbond>
2.8223

> <Gold.Chemscore.Metal>
0.0000

> <Gold.Chemscore.Lipo>
104.0716

> <Gold.Chemscore.Internal_Hbond>
0.0000

> <Gold.Chemscore.DEClash>
0.3851

> <Gold.Chemscore.DEInternal>
0.8661

> <Gold.Chemscore.Rot>
3.1505

> <Gold.Chemscore.Internal.Correction>
   9.000000E+99

> <Gold.Chemscore.Hbonds>
donor molecule, donor type, donor heavy atom, donor atom, acceptor molecule, acceptor atom, score
      L1  H     1    24       P1  7957  0.97
      L1  H     4    29       P1  7948  0.78
      L1  H     6    42       P1 10175  0.71

> <Gold.Chemscore.Hbond.Weighted>
-9.4265

> <Gold.Chemscore.Metal.Weighted>
-0.0000

> <Gold.Chemscore.Lipo.Weighted>
-12.1764

> <Gold.Chemscore.Internal_Hbond.Weighted>
0.0000

> <Gold.Chemscore.DEClash.Weighted>
0.3851

> <Gold.Chemscore.DEInternal.Weighted>
0.8661

> <Gold.Chemscore.Rot.Weighted>
8.0652

> <Gold.Chemscore.Internal.Correction.Weighted>
   9.000000E+99

> <Gold.Protein.RotatedTorsions>
[ 6907 6896 6895 6894 ] final -157.31 input  -60.11 | X-H torsion
[ 7974 7965 7964 7962 ] final   -7.53 input  175.53 | X-H torsion
[ 8008 7997 7996 7995 ] final  100.86 input   59.86 | X-H torsion
[ 10167 10162 10161 10158 ] final -152.74 input  -65.29 | X-H torsion
[ 10718 10713 10712 10709 ] final  -95.53 input   66.30 | X-H torsion
[ 10763 10752 10751 10750 ] final  175.70 input  -60.55 | X-H torsion
[ 11005 11000 10999 10996 ] final  174.20 input  -57.11 | X-H torsion

> <Gold.Protein.ActiveResidues>
 VAL166  LYS551  ARG553  GLY616  TRP617  ASP618  TYR619  PRO620  LYS621  CYS622 
 ASP623  PHE694  ASN695  SER759  ASP760  ASP761  ALA762  ILE779  LEU786  VAL792 
 PHE793  MET794  SER795  GLU796  ALA797  LYS798  CYS799  TRP800  GLU811  SER814 

> <Gold.Protein.RotatedAtoms>
  151.3009  133.4123  159.2639 H   0  0  0  0  0  0  0  0  0  0  0  0  # atno 6907 bound_to 6896
  151.0196  134.9460  159.8063 H   0  0  0  0  0  0  0  0  0  0  0  0  # atno 6908 bound_to 6896
  152.5321  134.2972  159.9117 H   0  0  0  0  0  0  0  0  0  0  0  0  # atno 6909 bound_to 6896
  146.2304  140.2333  142.8341 H   0  0  0  0  0  0  0  0  0  0  0  0  # atno 7974 bound_to 7965
  156.1244  140.3206  155.8256 H   0  0  0  0  0  0  0  0  0  0  0  0  # atno 8008 bound_to 7997
  155.4446  140.0528  157.3024 H   0  0  0  0  0  0  0  0  0  0  0  0  # atno 8009 bound_to 7997
  154.4852  140.2069  155.9686 H   0  0  0  0  0  0  0  0  0  0  0  0  # atno 8010 bound_to 7997
  139.7156  143.9039  152.2484 H   0  0  0  0  0  0  0  0  0  0  0  0  # atno 10167 bound_to 10162
  156.0045  130.5113  150.6090 H   0  0  0  0  0  0  0  0  0  0  0  0  # atno 10718 bound_to 10713
  154.4712  135.2771  155.1641 H   0  0  0  0  0  0  0  0  0  0  0  0  # atno 10763 bound_to 10752
  154.3389  135.6174  153.5590 H   0  0  0  0  0  0  0  0  0  0  0  0  # atno 10764 bound_to 10752
  152.9864  135.5783  154.5094 H   0  0  0  0  0  0  0  0  0  0  0  0  # atno 10765 bound_to 10752
  140.3487  134.7214  157.4253 H   0  0  0  0  0  0  0  0  0  0  0  0  # atno 11005 bound_to 11000
  144.9541  140.8208  143.5554 LP  0  0  0  0  0  0  0  0  0  0  0  0  # atno 17320 bound_to 7965
  145.2297  139.2121  143.5049 LP  0  0  0  0  0  0  0  0  0  0  0  0  # atno 17321 bound_to 7965
  139.8921  144.6960  150.8759 LP  0  0  0  0  0  0  0  0  0  0  0  0  # atno 17342 bound_to 10162
  140.7743  143.3579  151.1886 LP  0  0  0  0  0  0  0  0  0  0  0  0  # atno 17343 bound_to 10162
  157.3926  131.0798  151.1380 LP  0  0  0  0  0  0  0  0  0  0  0  0  # atno 17370 bound_to 10713
  157.2067  130.6419  149.5758 LP  0  0  0  0  0  0  0  0  0  0  0  0  # atno 17371 bound_to 10713
  140.0721  134.5848  155.8631 LP  0  0  0  0  0  0  0  0  0  0  0  0  # atno 17394 bound_to 11000
  141.2018  133.6621  156.5972 LP  0  0  0  0  0  0  0  0  0  0  0  0  # atno 17395 bound_to 11000

$$$$
