AV-unprocessed.smi:1330|AV-procd|sdf|5485|dock3
  -GOLD-   22720 5 63D 1   1.00000     0.00000
 Structure written by MMmdl.
 42 43  0  0  0  0  0  0  0  0  1 V2000
  150.8345  143.4345  158.4340 C   0  0  0  0  0  0  0  0  0  0  0  0
  151.6913  142.2982  158.9236 C   0  0  0  0  0  0  0  0  0  0  0  0
  151.5764  141.1728  158.2980 N   0  0  0  0  0  0  0  0  0  0  0  0
  152.3169  140.0676  158.6660 N   0  0  0  0  0  0  0  0  0  0  0  0
  152.0613  138.8790  157.8447 C   0  0  0  0  0  0  0  0  0  0  0  0
  151.4545  137.7247  158.6736 C   0  0  2  0  0  0  0  0  0  0  0  0
  152.4945  136.8512  159.0646 O   0  0  0  0  0  0  0  0  0  0  0  0
  150.4430  136.8993  157.8650 C   0  0  0  0  0  0  0  0  0  0  0  0
  149.6650  136.1299  158.7665 O   0  0  0  0  0  0  0  0  0  0  0  0
  149.0498  136.9098  159.7783 C   0  0  0  0  0  0  0  0  0  0  0  0
  148.0926  136.0928  160.6265 C   0  0  0  0  0  0  0  0  0  0  0  0
  147.0918  135.3022  160.0206 C   0  0  0  0  0  0  0  0  0  0  0  0
  146.1959  134.5612  160.8158 C   0  0  0  0  0  0  0  0  0  0  0  0
  146.2918  134.6118  162.2200 C   0  0  0  0  0  0  0  0  0  0  0  0
  145.1932  133.7053  163.1937 Cl  0  0  0  0  0  0  0  0  0  0  0  0
  147.2831  135.4059  162.8286 C   0  0  0  0  0  0  0  0  0  0  0  0
  148.1793  136.1468  162.0335 C   0  0  0  0  0  0  0  0  0  0  0  0
  153.2229  140.0421  159.6854 C   0  0  0  0  0  0  0  0  0  0  0  0
  153.8735  139.0350  159.9692 O   0  0  0  0  0  0  0  0  0  0  0  0
  153.3453  141.3189  160.3923 C   0  0  0  0  0  0  0  0  0  0  0  0
  154.2810  141.3356  161.4701 C   0  0  0  0  0  0  0  0  0  0  0  0
  155.0405  141.3689  162.3431 N   0  0  0  0  0  0  0  0  0  0  0  0
  152.6199  142.4112  160.0439 C   0  0  0  0  0  0  0  0  0  0  0  0
  152.7122  143.7605  160.7432 C   0  0  0  0  0  0  0  0  0  0  0  0
  151.4483  144.2923  158.1585 H   0  0  0  0  0  0  0  0  0  0  0  0
  150.1362  143.7526  159.2083 H   0  0  0  0  0  0  0  0  0  0  0  0
  150.2490  143.1544  157.5567 H   0  0  0  0  0  0  0  0  0  0  0  0
  151.3806  139.1589  157.0386 H   0  0  0  0  0  0  0  0  0  0  0  0
  152.9686  138.5509  157.3336 H   0  0  0  0  0  0  0  0  0  0  0  0
  150.9618  138.0989  159.5719 H   0  0  0  0  0  0  0  0  0  0  0  0
  153.3063  137.3351  159.0663 H   0  0  0  0  0  0  0  0  0  0  0  0
  149.8058  137.5510  157.2646 H   0  0  0  0  0  0  0  0  0  0  0  0
  150.9665  136.2284  157.1814 H   0  0  0  0  0  0  0  0  0  0  0  0
  149.8176  137.3453  160.4200 H   0  0  0  0  0  0  0  0  0  0  0  0
  148.4933  137.7332  159.3286 H   0  0  0  0  0  0  0  0  0  0  0  0
  147.0052  135.2594  158.9446 H   0  0  0  0  0  0  0  0  0  0  0  0
  145.4343  133.9561  160.3464 H   0  0  0  0  0  0  0  0  0  0  0  0
  147.3565  135.4493  163.9054 H   0  0  0  0  0  0  0  0  0  0  0  0
  148.9341  136.7568  162.5080 H   0  0  0  0  0  0  0  0  0  0  0  0
  153.3778  143.7337  161.6053 H   0  0  0  0  0  0  0  0  0  0  0  0
  151.7319  144.0775  161.1000 H   0  0  0  0  0  0  0  0  0  0  0  0
  153.0908  144.5193  160.0580 H   0  0  0  0  0  0  0  0  0  0  0  0
  1  2  1  0  0  0  0
  1 25  1  0  0  0  0
  1 26  1  0  0  0  0
  1 27  1  0  0  0  0
  2 23  1  0  0  0  0
  2  3  2  0  0  0  0
  3  4  1  0  0  0  0
  4  5  1  0  0  0  0
  4 18  1  0  0  0  0
  5  6  1  0  0  0  0
  5 28  1  0  0  0  0
  5 29  1  0  0  0  0
  6  7  1  0  0  0  0
  6  8  1  0  0  0  0
  6 30  1  0  0  0  0
  7 31  1  0  0  0  0
  8  9  1  0  0  0  0
  8 32  1  0  0  0  0
  8 33  1  0  0  0  0
  9 10  1  0  0  0  0
 10 11  1  0  0  0  0
 10 34  1  0  0  0  0
 10 35  1  0  0  0  0
 11 17  1  0  0  0  0
 11 12  2  0  0  0  0
 12 13  1  0  0  0  0
 12 36  1  0  0  0  0
 13 14  2  0  0  0  0
 13 37  1  0  0  0  0
 14 15  1  0  0  0  0
 14 16  1  0  0  0  0
 16 17  2  0  0  0  0
 16 38  1  0  0  0  0
 17 39  1  0  0  0  0
 18 19  2  0  0  0  0
 18 20  1  0  0  0  0
 20 21  1  0  0  0  0
 20 23  2  0  0  0  0
 21 22  3  0  0  0  0
 23 24  1  0  0  0  0
 24 40  1  0  0  0  0
 24 41  1  0  0  0  0
 24 42  1  0  0  0  0
M  END
> <s_m_source_file>
AV-unprocessed.smi

> <i_m_source_file_index>
1330

> <i_lp_mmshare_version>
43012

> <i_f3d_flags>
0

> <s_epik_input>
TiNDYyhjMVtDSDNdKWMoPU8pbihuYzFbQ0gzXSlbQ0gyXVtDQEhdKFtPSF0pW0NIMl1PW0NIMl1jMltjSF1bY0hdYyhDbClbY0hdW2NIXTI=

> <s_epik_cmdline>
J2VwaWtfcHl0aG9uJywgJy1waCcsICc3LjAnLCAnLXRuJywgJzgnLCAnLW1hJywgJzIwMCcsICctbWV0YWxfYmluZGluZycsICctaW1hZScsICc8aW5maWxlLm1hZT4nLCAnLW9tYWUnLCAnPG91dGZpbGUubWFlPic=

> <r_lp_tautomer_probability>
1

> <r_epik_Ionization_Penalty>
6.27695e-08

> <r_epik_Ionization_Penalty_Charging>
2.19172e-10

> <r_epik_Ionization_Penalty_Neutral>
6.25504e-08

> <r_epik_State_Penalty>
-0

> <r_epik_Charging_Adjusted_Penalty>
2.19172e-10

> <i_epik_Tot_Q>
0

> <i_epik_Tot_abs_Q>
0

> <r_epik_Metal_State_Penalty>
-0

> <b_epik_Metal_Only>
0

> <s_lp_Force_Field>
OPLS_2005

> <r_lp_Energy>
28.5495

> <b_lp_Chiralities_Consistent>
1

> <s_lp_Variant>
AV-unprocessed.smi:1330-1

> <Gold.Version>
5.8.1

> <Gold.Id.Protein>
6NUR|6NUR_protein|mol2

> <Gold.PLP.Fitness>
50.7973

> <Gold.PLP.PLP>
-47.5711

> <Gold.PLP.part.hbond>
-3.0000

> <Gold.PLP.part.metal>
0.0000

> <Gold.PLP.part.buried>
-6.0374

> <Gold.PLP.part.nonpolar>
-38.5777

> <Gold.PLP.part.repulsive>
0.0000

> <Gold.PLP.ligand.clash>
0.0000

> <Gold.PLP.ligand.torsion>
0.7384

> <Gold.PLP.Chemscore.Hbond>
1.5392

> <Gold.PLP.Chemscore.CHOScore>
0.0000

> <Gold.PLP.Chemscore.Metal>
0.0000

> <Gold.Chemscore.Hbonds>
donor molecule, donor type, donor heavy atom, donor atom, acceptor molecule, acceptor atom, score
      P1  H  6896  6908       L1     9  0.35
      P1  H  6896  6909       L1     7  0.74

> <Gold.PLP.Chemscore.Internal.Correction>
0.0856

> <Gold.Rescore>
     Score         DG    S(hbond)    S(metal)    S(lipo)     H(rot)  DE(clash)    DE(int)     intcor
     12.91     -16.48       1.24        0.00     112.78       2.48       1.38       2.19       ----

> <Gold.Chemscore.Fitness>
12.9072

> <Gold.Chemscore.DG>
-16.4756

> <Gold.Chemscore.ZeroCoef>
-5.4800

> <Gold.Chemscore.Hbond>
1.2404

> <Gold.Chemscore.Metal>
0.0000

> <Gold.Chemscore.Lipo>
112.7821

> <Gold.Chemscore.Internal_Hbond>
0.0000

> <Gold.Chemscore.DEClash>
1.3779

> <Gold.Chemscore.DEInternal>
2.1905

> <Gold.Chemscore.Rot>
2.4777

> <Gold.Chemscore.Internal.Correction>
   9.000000E+99

> <Gold.Chemscore.Hbonds>
donor molecule, donor type, donor heavy atom, donor atom, acceptor molecule, acceptor atom, score
      P1  H  6896  6908       L1     9  0.28
      P1  H  6896  6909       L1     7  0.71

> <Gold.Chemscore.Hbond.Weighted>
-4.1430

> <Gold.Chemscore.Metal.Weighted>
-0.0000

> <Gold.Chemscore.Lipo.Weighted>
-13.1955

> <Gold.Chemscore.Internal_Hbond.Weighted>
0.0000

> <Gold.Chemscore.DEClash.Weighted>
1.3779

> <Gold.Chemscore.DEInternal.Weighted>
2.1905

> <Gold.Chemscore.Rot.Weighted>
6.3428

> <Gold.Chemscore.Internal.Correction.Weighted>
   9.000000E+99

> <Gold.Protein.RotatedTorsions>
[ 6907 6896 6895 6894 ] final  147.84 input  -60.11 | X-H torsion
[ 7974 7965 7964 7962 ] final  177.54 input  175.53 | X-H torsion
[ 8008 7997 7996 7995 ] final  -21.74 input   59.86 | X-H torsion
[ 10167 10162 10161 10158 ] final -121.53 input  -65.29 | X-H torsion
[ 10718 10713 10712 10709 ] final  158.52 input   66.30 | X-H torsion
[ 10763 10752 10751 10750 ] final  112.08 input  -60.55 | X-H torsion
[ 11005 11000 10999 10996 ] final -102.17 input  -57.11 | X-H torsion

> <Gold.Protein.ActiveResidues>
 VAL166  LYS551  ARG553  GLY616  TRP617  ASP618  TYR619  PRO620  LYS621  CYS622 
 ASP623  PHE694  ASN695  SER759  ASP760  ASP761  ALA762  ILE779  LEU786  VAL792 
 PHE793  MET794  SER795  GLU796  ALA797  LYS798  CYS799  TRP800  GLU811  SER814 

> <Gold.Protein.RotatedAtoms>
  152.1495  133.4513  159.4805 H   0  0  0  0  0  0  0  0  0  0  0  0  # atno 6907 bound_to 6896
  150.6894  134.2207  159.4404 H   0  0  0  0  0  0  0  0  0  0  0  0  # atno 6908 bound_to 6896
  152.0103  134.9880  160.0618 H   0  0  0  0  0  0  0  0  0  0  0  0  # atno 6909 bound_to 6896
  144.7167  140.0263  143.6439 H   0  0  0  0  0  0  0  0  0  0  0  0  # atno 7974 bound_to 7965
  154.4687  140.2026  156.0051 H   0  0  0  0  0  0  0  0  0  0  0  0  # atno 8008 bound_to 7997
  156.0972  140.3249  155.7865 H   0  0  0  0  0  0  0  0  0  0  0  0  # atno 8009 bound_to 7997
  155.4858  140.0542  157.2951 H   0  0  0  0  0  0  0  0  0  0  0  0  # atno 8010 bound_to 7997
  140.0241  143.5315  152.2207 H   0  0  0  0  0  0  0  0  0  0  0  0  # atno 10167 bound_to 10162
  157.1768  131.0623  151.2153 H   0  0  0  0  0  0  0  0  0  0  0  0  # atno 10718 bound_to 10713
  153.4727  135.3697  155.2399 H   0  0  0  0  0  0  0  0  0  0  0  0  # atno 10763 bound_to 10752
  154.8756  135.3935  154.3793 H   0  0  0  0  0  0  0  0  0  0  0  0  # atno 10764 bound_to 10752
  153.4384  135.7083  153.6250 H   0  0  0  0  0  0  0  0  0  0  0  0  # atno 10765 bound_to 10752
  141.1200  133.8537  157.1326 H   0  0  0  0  0  0  0  0  0  0  0  0  # atno 11005 bound_to 11000
  146.0139  139.3193  143.0853 LP  0  0  0  0  0  0  0  0  0  0  0  0  # atno 17320 bound_to 7965
  145.8649  140.9454  143.0681 LP  0  0  0  0  0  0  0  0  0  0  0  0  # atno 17321 bound_to 7965
  139.6120  144.7611  151.2930 LP  0  0  0  0  0  0  0  0  0  0  0  0  # atno 17342 bound_to 10162
  140.7330  143.6807  150.8004 LP  0  0  0  0  0  0  0  0  0  0  0  0  # atno 17343 bound_to 10162
  157.3991  130.7323  149.6753 LP  0  0  0  0  0  0  0  0  0  0  0  0  # atno 17370 bound_to 10713
  155.9730  130.4126  150.4038 LP  0  0  0  0  0  0  0  0  0  0  0  0  # atno 17371 bound_to 10713
  140.0150  134.9971  157.0475 LP  0  0  0  0  0  0  0  0  0  0  0  0  # atno 17394 bound_to 11000
  140.4535  134.1558  155.7184 LP  0  0  0  0  0  0  0  0  0  0  0  0  # atno 17395 bound_to 11000

$$$$
