AV-unprocessed.smi:1966|AV-procd|sdf|7949|dock2
  -GOLD-   2272010113D 1   1.00000     0.00000
 Structure written by MMmdl.
 53 54  0  0  0  0  0  0  0  0  1 V2000
  146.1149  134.8410  153.6747 C   0  0  0  0  0  0  0  0  0  0  0  0
  147.2708  134.6692  154.6537 C   0  0  0  0  0  0  0  0  0  0  0  0
  147.0470  134.4060  155.8349 O   0  0  0  0  0  0  0  0  0  0  0  0
  148.5051  134.8228  154.1483 N   0  0  0  0  0  0  0  0  0  0  0  0
  149.7534  134.6906  154.9032 C   0  0  1  0  0  0  0  0  0  0  0  0
  149.8746  135.8832  155.8722 C   0  0  0  0  0  0  0  0  0  0  0  0
  149.0407  136.0342  156.7659 O   0  0  0  0  0  0  0  0  0  0  0  0
  150.9445  136.6773  155.6817 N   0  0  0  0  0  0  0  0  0  0  0  0
  151.3353  137.8387  156.4017 C   0  0  0  0  0  0  0  0  0  0  0  0
  150.9430  137.9391  157.7505 C   0  0  0  0  0  0  0  0  0  0  0  0
  151.3265  139.0679  158.4986 C   0  0  0  0  0  0  0  0  0  0  0  0
  152.1061  140.0731  157.8799 C   0  0  0  0  0  0  0  0  0  0  0  0
  152.5028  141.2139  158.6110 N   0  0  0  0  0  0  0  0  0  0  0  0
  151.9186  142.4772  158.1695 C   0  0  0  0  0  0  0  0  0  0  0  0
  152.6478  143.6668  158.8231 C   0  0  1  0  0  0  0  0  0  0  0  0
  151.9823  145.0044  158.4845 C   0  0  0  0  0  0  0  0  0  0  0  0
  152.6346  143.5077  160.2391 O   0  0  0  0  0  0  0  0  0  0  0  0
  153.3093  142.3252  160.6594 C   0  0  1  0  0  0  0  0  0  0  0  0
  153.3247  142.2989  162.1912 C   0  0  0  0  0  0  0  0  0  0  0  0
  152.5923  141.0985  160.0652 C   0  0  0  0  0  0  0  0  0  0  0  0
  152.4899  139.9731  156.5836 N   0  0  0  0  0  0  0  0  0  0  0  0
  152.1211  138.8884  155.8696 C   0  0  0  0  0  0  0  0  0  0  0  0
  149.7227  133.3529  155.7005 C   0  0  0  0  0  0  0  0  0  0  0  0
  150.9989  133.1174  156.5355 C   0  0  0  0  0  0  0  0  0  0  0  0
  149.4958  132.1400  154.7766 C   0  0  0  0  0  0  0  0  0  0  0  0
  146.2052  134.1337  152.8497 H   0  0  0  0  0  0  0  0  0  0  0  0
  146.1098  135.8518  153.2658 H   0  0  0  0  0  0  0  0  0  0  0  0
  145.1587  134.6674  154.1698 H   0  0  0  0  0  0  0  0  0  0  0  0
  148.5912  135.0304  153.1641 H   0  0  0  0  0  0  0  0  0  0  0  0
  150.6000  134.6803  154.2131 H   0  0  0  0  0  0  0  0  0  0  0  0
  151.5823  136.3854  154.9555 H   0  0  0  0  0  0  0  0  0  0  0  0
  150.3480  137.1632  158.2100 H   0  0  0  0  0  0  0  0  0  0  0  0
  151.0091  139.1551  159.5269 H   0  0  0  0  0  0  0  0  0  0  0  0
  151.9651  142.5837  157.0867 H   0  0  0  0  0  0  0  0  0  0  0  0
  150.8625  142.4872  158.4432 H   0  0  0  0  0  0  0  0  0  0  0  0
  153.6826  143.6973  158.4773 H   0  0  0  0  0  0  0  0  0  0  0  0
  151.9820  145.1808  157.4088 H   0  0  0  0  0  0  0  0  0  0  0  0
  152.5102  145.8327  158.9576 H   0  0  0  0  0  0  0  0  0  0  0  0
  150.9479  145.0286  158.8287 H   0  0  0  0  0  0  0  0  0  0  0  0
  154.3408  142.3558  160.3031 H   0  0  0  0  0  0  0  0  0  0  0  0
  153.8386  141.4121  162.5628 H   0  0  0  0  0  0  0  0  0  0  0  0
  152.3123  142.2950  162.5960 H   0  0  0  0  0  0  0  0  0  0  0  0
  153.8396  143.1735  162.5899 H   0  0  0  0  0  0  0  0  0  0  0  0
  151.5874  141.0119  160.4810 H   0  0  0  0  0  0  0  0  0  0  0  0
  153.1374  140.1934  160.3366 H   0  0  0  0  0  0  0  0  0  0  0  0
  152.4912  138.8735  154.8568 H   0  0  0  0  0  0  0  0  0  0  0  0
  148.8830  133.3837  156.3972 H   0  0  0  0  0  0  0  0  0  0  0  0
  151.8888  133.1253  155.9054 H   0  0  0  0  0  0  0  0  0  0  0  0
  150.9629  132.1533  157.0436 H   0  0  0  0  0  0  0  0  0  0  0  0
  151.1309  133.8736  157.3093 H   0  0  0  0  0  0  0  0  0  0  0  0
  150.2822  132.0654  154.0249 H   0  0  0  0  0  0  0  0  0  0  0  0
  148.5406  132.1960  154.2545 H   0  0  0  0  0  0  0  0  0  0  0  0
  149.4916  131.2093  155.3445 H   0  0  0  0  0  0  0  0  0  0  0  0
  1  2  1  0  0  0  0
  1 26  1  0  0  0  0
  1 27  1  0  0  0  0
  1 28  1  0  0  0  0
  2  3  2  0  0  0  0
  2  4  1  0  0  0  0
  4  5  1  0  0  0  0
  4 29  1  0  0  0  0
  5  6  1  0  0  0  0
  5 23  1  0  0  0  0
  5 30  1  0  0  0  0
  6  7  2  0  0  0  0
  6  8  1  0  0  0  0
  8  9  1  0  0  0  0
  8 31  1  0  0  0  0
  9 22  1  0  0  0  0
  9 10  2  0  0  0  0
 10 11  1  0  0  0  0
 10 32  1  0  0  0  0
 11 12  2  0  0  0  0
 11 33  1  0  0  0  0
 12 13  1  0  0  0  0
 12 21  1  0  0  0  0
 13 20  1  0  0  0  0
 13 14  1  0  0  0  0
 14 15  1  0  0  0  0
 14 34  1  0  0  0  0
 14 35  1  0  0  0  0
 15 16  1  0  0  0  0
 15 17  1  0  0  0  0
 15 36  1  0  0  0  0
 16 37  1  0  0  0  0
 16 38  1  0  0  0  0
 16 39  1  0  0  0  0
 17 18  1  0  0  0  0
 18 19  1  0  0  0  0
 18 20  1  0  0  0  0
 18 40  1  0  0  0  0
 19 41  1  0  0  0  0
 19 42  1  0  0  0  0
 19 43  1  0  0  0  0
 20 44  1  0  0  0  0
 20 45  1  0  0  0  0
 21 22  2  0  0  0  0
 22 46  1  0  0  0  0
 23 24  1  0  0  0  0
 23 25  1  0  0  0  0
 23 47  1  0  0  0  0
 24 48  1  0  0  0  0
 24 49  1  0  0  0  0
 24 50  1  0  0  0  0
 25 51  1  0  0  0  0
 25 52  1  0  0  0  0
 25 53  1  0  0  0  0
M  END
> <s_m_source_file>
AV-unprocessed.smi

> <i_m_source_file_index>
1966

> <i_lp_mmshare_version>
43012

> <i_f3d_flags>
0

> <s_epik_input>
W0NIM11DKD1PKVtOSF1bQ0BASF0oW0NIXShbQ0gzXSlbQ0gzXSlDKD1PKVtOSF1jMVtjSF1bY0hdYyhuW2NIXTEpTjJbQ0gyXVtDQEBIXShbQ0gzXSlPW0NAQEhdKFtDSDNdKVtDSDJdMg==

> <s_epik_cmdline>
J2VwaWtfcHl0aG9uJywgJy1waCcsICc3LjAnLCAnLXRuJywgJzgnLCAnLW1hJywgJzIwMCcsICctbWV0YWxfYmluZGluZycsICctaW1hZScsICc8aW5maWxlLm1hZT4nLCAnLW9tYWUnLCAnPG91dGZpbGUubWFlPic=

> <r_lp_tautomer_probability>
1

> <r_epik_Ionization_Penalty>
0.000679699

> <r_epik_Ionization_Penalty_Charging>
0

> <r_epik_Ionization_Penalty_Neutral>
0.000679699

> <r_epik_State_Penalty>
0.000430485

> <r_epik_Charging_Adjusted_Penalty>
0.000430485

> <i_epik_Tot_Q>
0

> <i_epik_Tot_abs_Q>
0

> <r_epik_Metal_State_Penalty>
-0

> <b_epik_Metal_Only>
0

> <s_lp_Force_Field>
OPLS_2005

> <r_lp_Energy>
24.6084

> <b_lp_Chiralities_Consistent>
1

> <s_lp_Variant>
AV-unprocessed.smi:1966-2

> <Gold.Version>
5.8.1

> <Gold.Id.Protein>
6NUR|6NUR_protein|mol2

> <Gold.PLP.Fitness>
47.2563

> <Gold.PLP.PLP>
-42.2129

> <Gold.PLP.part.hbond>
-2.0000

> <Gold.PLP.part.metal>
0.0000

> <Gold.PLP.part.buried>
-5.4853

> <Gold.PLP.part.nonpolar>
-34.1917

> <Gold.PLP.part.repulsive>
0.1236

> <Gold.PLP.ligand.clash>
0.0000

> <Gold.PLP.ligand.torsion>
0.6611

> <Gold.PLP.Chemscore.Hbond>
2.0000

> <Gold.PLP.Chemscore.CHOScore>
0.0000

> <Gold.PLP.Chemscore.Metal>
0.0000

> <Gold.Chemscore.Hbonds>
donor molecule, donor type, donor heavy atom, donor atom, acceptor molecule, acceptor atom, score
      L1  H     4    29       P1  7948  1.00
      P1  H  7997  8008       L1    21  1.00

> <Gold.PLP.Chemscore.Internal.Correction>
0.3656

> <Gold.Rescore>
     Score         DG    S(hbond)    S(metal)    S(lipo)     H(rot)  DE(clash)    DE(int)     intcor
     14.62     -19.33       1.70        0.00     106.49       1.68       0.01       4.71       ----

> <Gold.Chemscore.Fitness>
14.6167

> <Gold.Chemscore.DG>
-19.3350

> <Gold.Chemscore.ZeroCoef>
-5.4800

> <Gold.Chemscore.Hbond>
1.7023

> <Gold.Chemscore.Metal>
0.0000

> <Gold.Chemscore.Lipo>
106.4918

> <Gold.Chemscore.Internal_Hbond>
0.0000

> <Gold.Chemscore.DEClash>
0.0106

> <Gold.Chemscore.DEInternal>
4.7077

> <Gold.Chemscore.Rot>
1.6759

> <Gold.Chemscore.Internal.Correction>
   9.000000E+99

> <Gold.Chemscore.Hbonds>
donor molecule, donor type, donor heavy atom, donor atom, acceptor molecule, acceptor atom, score
      L1  H     4    29       P1  7948  0.62
      P1  H  7997  8008       L1    21  0.42

> <Gold.Chemscore.Hbond.Weighted>
-5.6857

> <Gold.Chemscore.Metal.Weighted>
-0.0000

> <Gold.Chemscore.Lipo.Weighted>
-12.4595

> <Gold.Chemscore.Internal_Hbond.Weighted>
0.0000

> <Gold.Chemscore.DEClash.Weighted>
0.0106

> <Gold.Chemscore.DEInternal.Weighted>
4.7077

> <Gold.Chemscore.Rot.Weighted>
4.2902

> <Gold.Chemscore.Internal.Correction.Weighted>
   9.000000E+99

> <Gold.Protein.RotatedTorsions>
[ 6907 6896 6895 6894 ] final   55.23 input  -60.11 | X-H torsion
[ 7974 7965 7964 7962 ] final   16.73 input  175.53 | X-H torsion
[ 8008 7997 7996 7995 ] final  -55.49 input   59.86 | X-H torsion
[ 10167 10162 10161 10158 ] final  141.08 input  -65.29 | X-H torsion
[ 10718 10713 10712 10709 ] final  160.86 input   66.30 | X-H torsion
[ 10763 10752 10751 10750 ] final   40.98 input  -60.55 | X-H torsion
[ 11005 11000 10999 10996 ] final  -60.54 input  -57.11 | X-H torsion

> <Gold.Protein.ActiveResidues>
 VAL166  LYS551  ARG553  GLY616  TRP617  ASP618  TYR619  PRO620  LYS621  CYS622 
 ASP623  PHE694  ASN695  SER759  ASP760  ASP761  ALA762  ILE779  LEU786  VAL792 
 PHE793  MET794  SER795  GLU796  ALA797  LYS798  CYS799  TRP800  GLU811  SER814 

> <Gold.Protein.RotatedAtoms>
  152.3518  134.6995  160.0233 H   0  0  0  0  0  0  0  0  0  0  0  0  # atno 6907 bound_to 6896
  151.7346  133.3314  159.3357 H   0  0  0  0  0  0  0  0  0  0  0  0  # atno 6908 bound_to 6896
  150.7545  134.6266  159.6208 H   0  0  0  0  0  0  0  0  0  0  0  0  # atno 6909 bound_to 6896
  146.2240  139.8705  142.8588 H   0  0  0  0  0  0  0  0  0  0  0  0  # atno 7974 bound_to 7965
  154.4197  140.1152  156.5485 H   0  0  0  0  0  0  0  0  0  0  0  0  # atno 8008 bound_to 7997
  155.6435  140.3496  155.4704 H   0  0  0  0  0  0  0  0  0  0  0  0  # atno 8009 bound_to 7997
  155.9851  140.1168  157.0680 H   0  0  0  0  0  0  0  0  0  0  0  0  # atno 8010 bound_to 7997
  139.5030  144.6194  151.6087 H   0  0  0  0  0  0  0  0  0  0  0  0  # atno 10167 bound_to 10162
  157.1445  131.0549  151.2310 H   0  0  0  0  0  0  0  0  0  0  0  0  # atno 10718 bound_to 10713
  152.9921  135.6175  154.2714 H   0  0  0  0  0  0  0  0  0  0  0  0  # atno 10763 bound_to 10752
  154.2447  135.2787  155.2842 H   0  0  0  0  0  0  0  0  0  0  0  0  # atno 10764 bound_to 10752
  154.5339  135.5780  153.6840 H   0  0  0  0  0  0  0  0  0  0  0  0  # atno 10765 bound_to 10752
  141.1291  133.6623  156.5239 H   0  0  0  0  0  0  0  0  0  0  0  0  # atno 11005 bound_to 11000
  145.2613  141.0078  143.3825 LP  0  0  0  0  0  0  0  0  0  0  0  0  # atno 17320 bound_to 7965
  144.9296  139.4314  143.6501 LP  0  0  0  0  0  0  0  0  0  0  0  0  # atno 17321 bound_to 7965
  140.5891  143.9811  150.6314 LP  0  0  0  0  0  0  0  0  0  0  0  0  # atno 17342 bound_to 10162
  140.2985  143.3276  152.0994 LP  0  0  0  0  0  0  0  0  0  0  0  0  # atno 17343 bound_to 10162
  157.4276  130.7472  149.6964 LP  0  0  0  0  0  0  0  0  0  0  0  0  # atno 17370 bound_to 10713
  155.9782  130.4054  150.3664 LP  0  0  0  0  0  0  0  0  0  0  0  0  # atno 17371 bound_to 10713
  140.4270  134.7136  157.4921 LP  0  0  0  0  0  0  0  0  0  0  0  0  # atno 17394 bound_to 11000
  140.0320  134.6392  155.9094 LP  0  0  0  0  0  0  0  0  0  0  0  0  # atno 17395 bound_to 11000

$$$$
