AV-unprocessed.smi:3024|AV-procd|sdf|11503|dock6
  -GOLD-   2272016443D 1   1.00000     0.00000
 Structure written by MMmdl.
 31 32  0  0  0  0  0  0  0  0  1 V2000
  145.4803  138.5127  152.8639 O   0  0  0  0  0  0  0  0  0  0  0  0
  146.4592  137.8243  152.5768 C   0  0  0  0  0  0  0  0  0  0  0  0
  146.3754  136.6403  151.9539 N   0  0  0  0  0  0  0  0  0  0  0  0
  145.1336  135.9927  151.5463 C   0  0  0  0  0  0  0  0  0  0  0  0
  145.4006  134.6444  150.8571 C   0  0  2  0  0  0  0  0  0  0  0  0
  144.1353  133.8374  150.5728 C   0  0  0  0  0  0  0  0  0  0  0  0
  144.6290  132.3992  150.5268 C   0  0  0  0  0  0  0  0  0  0  0  0
  146.0280  132.4632  151.1467 C   0  0  0  0  0  0  0  0  0  0  0  0
  146.1273  133.7666  151.7023 O   0  0  0  0  0  0  0  0  0  0  0  0
  147.7394  138.1556  152.8176 N   0  0  0  0  0  0  0  0  0  0  0  0
  148.2440  139.3182  153.4600 C   0  0  0  0  0  0  0  0  0  0  0  0
  147.4335  140.4721  153.4730 C   0  0  0  0  0  0  0  0  0  0  0  0
  147.9159  141.6431  154.0876 C   0  0  0  0  0  0  0  0  0  0  0  0
  149.2023  141.6175  154.6599 C   0  0  0  0  0  0  0  0  0  0  0  0
  149.9980  140.5275  154.6425 N   0  0  0  0  0  0  0  0  0  0  0  0
  149.5281  139.4065  154.0531 C   0  0  0  0  0  0  0  0  0  0  0  0
  147.2324  136.1464  151.7526 H   0  0  0  0  0  0  0  0  0  0  0  0
  144.4601  135.8681  152.3960 H   0  0  0  0  0  0  0  0  0  0  0  0
  144.6287  136.6621  150.8497 H   0  0  0  0  0  0  0  0  0  0  0  0
  145.9589  134.7927  149.9305 H   0  0  0  0  0  0  0  0  0  0  0  0
  143.4238  133.9503  151.3920 H   0  0  0  0  0  0  0  0  0  0  0  0
  143.6387  134.1457  149.6524 H   0  0  0  0  0  0  0  0  0  0  0  0
  143.9671  131.7436  151.0937 H   0  0  0  0  0  0  0  0  0  0  0  0
  144.6776  132.0241  149.5039 H   0  0  0  0  0  0  0  0  0  0  0  0
  146.1856  131.6989  151.9082 H   0  0  0  0  0  0  0  0  0  0  0  0
  146.7932  132.3420  150.3788 H   0  0  0  0  0  0  0  0  0  0  0  0
  148.4374  137.5278  152.4470 H   0  0  0  0  0  0  0  0  0  0  0  0
  146.4519  140.4615  153.0222 H   0  0  0  0  0  0  0  0  0  0  0  0
  147.3153  142.5401  154.1185 H   0  0  0  0  0  0  0  0  0  0  0  0
  149.6051  142.4978  155.1386 H   0  0  0  0  0  0  0  0  0  0  0  0
  150.2191  138.5781  154.0469 H   0  0  0  0  0  0  0  0  0  0  0  0
  1  2  2  0  0  0  0
  2  3  1  0  0  0  0
  2 10  1  0  0  0  0
  3  4  1  0  0  0  0
  3 17  1  0  0  0  0
  4  5  1  0  0  0  0
  4 18  1  0  0  0  0
  4 19  1  0  0  0  0
  5  9  1  0  0  0  0
  5  6  1  0  0  0  0
  5 20  1  0  0  0  0
  6  7  1  0  0  0  0
  6 21  1  0  0  0  0
  6 22  1  0  0  0  0
  7  8  1  0  0  0  0
  7 23  1  0  0  0  0
  7 24  1  0  0  0  0
  8  9  1  0  0  0  0
  8 25  1  0  0  0  0
  8 26  1  0  0  0  0
 10 11  1  0  0  0  0
 10 27  1  0  0  0  0
 11 16  1  0  0  0  0
 11 12  2  0  0  0  0
 12 13  1  0  0  0  0
 12 28  1  0  0  0  0
 13 14  2  0  0  0  0
 13 29  1  0  0  0  0
 14 15  1  0  0  0  0
 14 30  1  0  0  0  0
 15 16  2  0  0  0  0
 16 31  1  0  0  0  0
M  END
> <s_m_source_file>
AV-unprocessed.smi

> <i_m_source_file_index>
3024

> <i_lp_mmshare_version>
43012

> <i_f3d_flags>
0

> <s_epik_input>
W2NIXTFuW2NIXVtjSF1bY0hdYzFbTkhdQyg9TylbTkhdW0NIMl1bQ0BASF0yW0NIMl1bQ0gyXVtDSDJdTzI=

> <s_epik_cmdline>
J2VwaWtfcHl0aG9uJywgJy1waCcsICc3LjAnLCAnLXRuJywgJzgnLCAnLW1hJywgJzIwMCcsICctbWV0YWxfYmluZGluZycsICctaW1hZScsICc8aW5maWxlLm1hZT4nLCAnLW9tYWUnLCAnPG91dGZpbGUubWFlPic=

> <r_epik_Ionization_Penalty>
0.00471982

> <r_epik_Ionization_Penalty_Charging>
0

> <r_epik_Ionization_Penalty_Neutral>
0.00471982

> <r_epik_State_Penalty>
0.00339234

> <r_epik_Charging_Adjusted_Penalty>
0.00339234

> <i_epik_Tot_Q>
0

> <i_epik_Tot_abs_Q>
0

> <r_epik_Metal_State_Penalty>
-0

> <b_epik_Metal_Only>
0

> <s_lp_Force_Field>
OPLS_2005

> <r_lp_Energy>
19.771

> <b_lp_Chiralities_Consistent>
1

> <s_lp_Variant>
AV-unprocessed.smi:3024-1

> <Gold.Version>
5.8.1

> <Gold.Id.Protein>
6NUR|6NUR_protein|mol2

> <Gold.PLP.Fitness>
37.7457

> <Gold.PLP.PLP>
-26.8799

> <Gold.PLP.part.hbond>
-3.5031

> <Gold.PLP.part.metal>
0.0000

> <Gold.PLP.part.buried>
1.4432

> <Gold.PLP.part.nonpolar>
-27.8179

> <Gold.PLP.part.repulsive>
3.2838

> <Gold.PLP.ligand.clash>
0.0000

> <Gold.PLP.ligand.torsion>
0.1241

> <Gold.PLP.Chemscore.Hbond>
2.7020

> <Gold.PLP.Chemscore.CHOScore>
1.0000

> <Gold.PLP.Chemscore.Metal>
0.0000

> <Gold.Chemscore.Hbonds>
donor molecule, donor type, donor heavy atom, donor atom, acceptor molecule, acceptor atom, score
      L1  H     3    17       P1  7948  0.91
      L1  H    10    27       P1  7948  0.91
      P1  H  7989  7998       L1    15  0.88
      L1  C    14    30       P1  8028  1.00

> <Gold.PLP.Chemscore.Internal.Correction>
0.0080

> <Gold.Rescore>
     Score         DG    S(hbond)    S(metal)    S(lipo)     H(rot)  DE(clash)    DE(int)     intcor
     13.90     -16.68       1.90        0.00      68.60       1.24       1.33       1.46       ----

> <Gold.Chemscore.Fitness>
13.8998

> <Gold.Chemscore.DG>
-16.6846

> <Gold.Chemscore.ZeroCoef>
-5.4800

> <Gold.Chemscore.Hbond>
1.9011

> <Gold.Chemscore.Metal>
0.0000

> <Gold.Chemscore.Lipo>
68.6047

> <Gold.Chemscore.Internal_Hbond>
0.0000

> <Gold.Chemscore.DEClash>
1.3261

> <Gold.Chemscore.DEInternal>
1.4587

> <Gold.Chemscore.Rot>
1.2390

> <Gold.Chemscore.Internal.Correction>
   9.000000E+99

> <Gold.Chemscore.Hbonds>
donor molecule, donor type, donor heavy atom, donor atom, acceptor molecule, acceptor atom, score
      L1  H     3    17       P1  7948  0.88
      L1  H    10    27       P1  7948  0.86
      P1  H  7989  7998       L1    15  0.15

> <Gold.Chemscore.Hbond.Weighted>
-6.3496

> <Gold.Chemscore.Metal.Weighted>
-0.0000

> <Gold.Chemscore.Lipo.Weighted>
-8.0268

> <Gold.Chemscore.Internal_Hbond.Weighted>
0.0000

> <Gold.Chemscore.DEClash.Weighted>
1.3261

> <Gold.Chemscore.DEInternal.Weighted>
1.4587

> <Gold.Chemscore.Rot.Weighted>
3.1718

> <Gold.Chemscore.Internal.Correction.Weighted>
   9.000000E+99

> <Gold.Protein.RotatedTorsions>
[ 6907 6896 6895 6894 ] final  134.80 input  -60.11 | X-H torsion
[ 7974 7965 7964 7962 ] final -134.21 input  175.53 | X-H torsion
[ 8008 7997 7996 7995 ] final  -54.95 input   59.86 | X-H torsion
[ 10167 10162 10161 10158 ] final   95.87 input  -65.29 | X-H torsion
[ 10718 10713 10712 10709 ] final   -6.77 input   66.30 | X-H torsion
[ 10763 10752 10751 10750 ] final   96.73 input  -60.55 | X-H torsion
[ 11005 11000 10999 10996 ] final  -15.09 input  -57.11 | X-H torsion

> <Gold.Protein.ActiveResidues>
 VAL166  LYS551  ARG553  GLY616  TRP617  ASP618  TYR619  PRO620  LYS621  CYS622 
 ASP623  PHE694  ASN695  SER759  ASP760  ASP761  ALA762  ILE779  LEU786  VAL792 
 PHE793  MET794  SER795  GLU796  ALA797  LYS798  CYS799  TRP800  GLU811  SER814 

> <Gold.Protein.RotatedAtoms>
  152.3074  133.5717  159.5657 H   0  0  0  0  0  0  0  0  0  0  0  0  # atno 6907 bound_to 6896
  150.7306  134.0203  159.3708 H   0  0  0  0  0  0  0  0  0  0  0  0  # atno 6908 bound_to 6896
  151.8098  135.0684  160.0462 H   0  0  0  0  0  0  0  0  0  0  0  0  # atno 6909 bound_to 6896
  144.9124  140.6911  143.5017 H   0  0  0  0  0  0  0  0  0  0  0  0  # atno 7974 bound_to 7965
  154.4179  140.1164  156.5398 H   0  0  0  0  0  0  0  0  0  0  0  0  # atno 8008 bound_to 7997
  155.6520  140.3496  155.4732 H   0  0  0  0  0  0  0  0  0  0  0  0  # atno 8009 bound_to 7997
  155.9785  140.1155  157.0738 H   0  0  0  0  0  0  0  0  0  0  0  0  # atno 8010 bound_to 7997
  139.7948  144.6838  150.9844 H   0  0  0  0  0  0  0  0  0  0  0  0  # atno 10167 bound_to 10162
  156.7270  130.5168  149.5854 H   0  0  0  0  0  0  0  0  0  0  0  0  # atno 10718 bound_to 10713
  153.2685  135.4208  155.0964 H   0  0  0  0  0  0  0  0  0  0  0  0  # atno 10763 bound_to 10752
  154.8447  135.3466  154.6278 H   0  0  0  0  0  0  0  0  0  0  0  0  # atno 10764 bound_to 10752
  153.6698  135.7044  153.5208 H   0  0  0  0  0  0  0  0  0  0  0  0  # atno 10765 bound_to 10752
  140.7931  133.8272  155.9399 H   0  0  0  0  0  0  0  0  0  0  0  0  # atno 11005 bound_to 11000
  145.3433  139.1726  143.4474 LP  0  0  0  0  0  0  0  0  0  0  0  0  # atno 17320 bound_to 7965
  146.3165  140.3476  142.8653 LP  0  0  0  0  0  0  0  0  0  0  0  0  # atno 17321 bound_to 7965
  140.7820  143.4343  151.0647 LP  0  0  0  0  0  0  0  0  0  0  0  0  # atno 17342 bound_to 10162
  139.8018  143.8073  152.3163 LP  0  0  0  0  0  0  0  0  0  0  0  0  # atno 17343 bound_to 10162
  156.1555  130.6339  151.0652 LP  0  0  0  0  0  0  0  0  0  0  0  0  # atno 17370 bound_to 10713
  157.6875  131.0820  150.7202 LP  0  0  0  0  0  0  0  0  0  0  0  0  # atno 17371 bound_to 10713
  140.9369  134.1950  157.4825 LP  0  0  0  0  0  0  0  0  0  0  0  0  # atno 17394 bound_to 11000
  139.8729  134.9856  156.5289 LP  0  0  0  0  0  0  0  0  0  0  0  0  # atno 17395 bound_to 11000

$$$$
