AV-unprocessed.smi:3330|AV-procd|sdf|12811|dock9
  -GOLD-   2272019183D 1   1.00000     0.00000
 Structure written by MMmdl.
 38 39  0  0  0  0  0  0  0  0  3 V2000
  145.6943  136.0089  152.6773 C   0  0  0  0  0  0  0  0  0  0  0  0
  146.5238  134.8436  153.2475 C   0  0  2  0  0  0  0  0  0  0  0  0
  147.7397  135.3954  153.8866 N   0  3  0  0  0  0  0  0  0  0  0  0
  147.5075  136.5571  154.7675 C   0  0  0  0  0  0  0  0  0  0  0  0
  148.6943  136.7674  155.7180 C   0  0  0  0  0  0  0  0  0  0  0  0
  149.7470  137.5610  155.0789 N   0  0  0  0  0  0  0  0  0  0  0  0
  150.9906  137.1254  154.8570 C   0  0  0  0  0  0  0  0  0  0  0  0
  151.4683  136.0277  155.1437 O   0  0  0  0  0  0  0  0  0  0  0  0
  151.7426  138.2339  154.1578 C   0  0  0  0  0  0  0  0  0  0  0  0
  150.7348  139.2640  154.0418 N   0  5  0  0  0  0  0  0  0  0  0  0
  149.5879  138.8076  154.5957 C   0  0  0  0  0  0  0  0  0  0  0  0
  148.5143  139.4050  154.6668 O   0  0  0  0  0  0  0  0  0  0  0  0
  146.9025  133.7860  152.1744 C   0  0  1  0  0  0  0  0  0  0  0  0
  147.8810  132.7169  152.6973 C   0  0  0  0  0  0  0  0  0  0  0  0
  145.7271  133.1443  151.5986 N   0  0  0  0  0  0  0  0  0  0  0  0
  145.6653  131.9785  150.8629 C   0  0  0  0  0  0  0  0  0  0  0  0
  144.3559  131.7694  150.5375 C   0  0  0  0  0  0  0  0  0  0  0  0
  143.6800  132.8725  151.1292 C   0  0  0  0  0  0  0  0  0  0  0  0
  144.5018  133.6924  151.7639 N   0  0  0  0  0  0  0  0  0  0  0  0
  144.7299  135.6728  152.2964 H   0  0  0  0  0  0  0  0  0  0  0  0
  146.2190  136.5080  151.8620 H   0  0  0  0  0  0  0  0  0  0  0  0
  145.4888  136.7546  153.4460 H   0  0  0  0  0  0  0  0  0  0  0  0
  145.9098  134.3625  154.0113 H   0  0  0  0  0  0  0  0  0  0  0  0
  148.1812  134.6627  154.4232 H   0  0  0  0  0  0  0  0  0  0  0  0
  147.3565  137.4459  154.1531 H   0  0  0  0  0  0  0  0  0  0  0  0
  146.5925  136.4043  155.3406 H   0  0  0  0  0  0  0  0  0  0  0  0
  148.3607  137.2641  156.6311 H   0  0  0  0  0  0  0  0  0  0  0  0
  149.0937  135.8024  156.0352 H   0  0  0  0  0  0  0  0  0  0  0  0
  152.6013  138.5363  154.7581 H   0  0  0  0  0  0  0  0  0  0  0  0
  152.1118  137.8821  153.1939 H   0  0  0  0  0  0  0  0  0  0  0  0
  147.4001  134.3079  151.3555 H   0  0  0  0  0  0  0  0  0  0  0  0
  148.8397  133.1540  152.9760 H   0  0  0  0  0  0  0  0  0  0  0  0
  148.0831  131.9646  151.9341 H   0  0  0  0  0  0  0  0  0  0  0  0
  147.4826  132.2026  153.5725 H   0  0  0  0  0  0  0  0  0  0  0  0
  146.5487  131.4010  150.6328 H   0  0  0  0  0  0  0  0  0  0  0  0
  143.9433  130.9516  149.9653 H   0  0  0  0  0  0  0  0  0  0  0  0
  142.6242  133.1000  151.1168 H   0  0  0  0  0  0  0  0  0  0  0  0
  148.3754  135.6867  153.1579 H   0  0  0  0  0  0  0  0  0  0  0  0
  1  2  1  0  0  0  0
  1 20  1  0  0  0  0
  1 21  1  0  0  0  0
  1 22  1  0  0  0  0
  2  3  1  0  0  0  0
  2 13  1  0  0  0  0
  2 23  1  0  0  0  0
  3  4  1  0  0  0  0
  3 24  1  0  0  0  0
  3 38  1  0  0  0  0
  4  5  1  0  0  0  0
  4 25  1  0  0  0  0
  4 26  1  0  0  0  0
  5  6  1  0  0  0  0
  5 27  1  0  0  0  0
  5 28  1  0  0  0  0
  6 11  1  0  0  0  0
  6  7  1  0  0  0  0
  7  8  2  0  0  0  0
  7  9  1  0  0  0  0
  9 10  1  0  0  0  0
  9 29  1  0  0  0  0
  9 30  1  0  0  0  0
 10 11  1  0  0  0  0
 11 12  2  0  0  0  0
 13 14  1  0  0  0  0
 13 15  1  0  0  0  0
 13 31  1  0  0  0  0
 14 32  1  0  0  0  0
 14 33  1  0  0  0  0
 14 34  1  0  0  0  0
 15 19  1  0  0  0  0
 15 16  1  0  0  0  0
 16 17  2  0  0  0  0
 16 35  1  0  0  0  0
 17 18  1  0  0  0  0
 17 36  1  0  0  0  0
 18 19  2  0  0  0  0
 18 37  1  0  0  0  0
M  CHG  1   3   1
M  CHG  1  10  -1
M  END
> <s_m_source_file>
AV-unprocessed.smi

> <i_m_source_file_index>
3330

> <i_lp_mmshare_version>
43012

> <i_f3d_flags>
0

> <s_epik_input>
bjFbY0hdW2NIXVtjSF1uMVtDQEBIXShbQ0gzXSlbQ0BIXShbQ0gzXSlbTkhdW0NIMl1bQ0gyXU4yQyg9TylbQ0gyXVtOSF1DMj1P

> <s_epik_cmdline>
J2VwaWtfcHl0aG9uJywgJy1waCcsICc3LjAnLCAnLXRuJywgJzgnLCAnLW1hJywgJzIwMCcsICctbWV0YWxfYmluZGluZycsICctaW1hZScsICc8aW5maWxlLm1hZT4nLCAnLW9tYWUnLCAnPG91dGZpbGUubWFlPic=

> <r_lp_tautomer_probability>
1

> <r_epik_Ionization_Penalty>
5.18149

> <r_epik_Ionization_Penalty_Charging>
5.18148

> <r_epik_Ionization_Penalty_Neutral>
9.83265e-06

> <r_epik_State_Penalty>
5.18201

> <r_epik_Charging_Adjusted_Penalty>
10.3635

> <i_epik_Tot_Q>
0

> <i_epik_Tot_abs_Q>
2

> <r_epik_Metal_State_Penalty>
1.25422

> <b_epik_Metal_Only>
1

> <s_lp_Force_Field>
OPLS_2005

> <r_lp_Energy>
16.3237

> <b_lp_Chiralities_Consistent>
1

> <s_lp_Variant>
AV-unprocessed.smi:3330-11

> <Gold.Version>
5.8.1

> <Gold.Id.Protein>
6NUR|6NUR_protein|mol2

> <Gold.PLP.Fitness>
45.5097

> <Gold.PLP.PLP>
-29.1197

> <Gold.PLP.part.hbond>
-2.9946

> <Gold.PLP.part.metal>
0.0000

> <Gold.PLP.part.buried>
-3.2587

> <Gold.PLP.part.nonpolar>
-22.8409

> <Gold.PLP.part.repulsive>
0.5128

> <Gold.PLP.ligand.clash>
0.0000

> <Gold.PLP.ligand.torsion>
0.8587

> <Gold.PLP.Chemscore.Hbond>
4.0000

> <Gold.PLP.Chemscore.CHOScore>
2.0000

> <Gold.PLP.Chemscore.Metal>
0.0000

> <Gold.Chemscore.Hbonds>
donor molecule, donor type, donor heavy atom, donor atom, acceptor molecule, acceptor atom, score
      L1  H     3    38       P1  7948  1.89
      P1  H  7989  7998       L1    10  1.00
      P1  H 10752 10763       L1     8  1.00
      L1  C    16    35       P1 10747  1.00
      L1  C    18    37       P1 10186  0.82

> <Gold.PLP.Chemscore.Internal.Correction>
0.1075

> <Gold.Rescore>
     Score         DG    S(hbond)    S(metal)    S(lipo)     H(rot)  DE(clash)    DE(int)     intcor
     10.55     -14.43       2.80        0.00      53.29       2.59       1.37       2.50       ----

> <Gold.Chemscore.Fitness>
10.5544

> <Gold.Chemscore.DG>
-14.4284

> <Gold.Chemscore.ZeroCoef>
-5.4800

> <Gold.Chemscore.Hbond>
2.7979

> <Gold.Chemscore.Metal>
0.0000

> <Gold.Chemscore.Lipo>
53.2879

> <Gold.Chemscore.Internal_Hbond>
0.0000

> <Gold.Chemscore.DEClash>
1.3749

> <Gold.Chemscore.DEInternal>
2.4991

> <Gold.Chemscore.Rot>
2.5903

> <Gold.Chemscore.Internal.Correction>
   9.000000E+99

> <Gold.Chemscore.Hbonds>
donor molecule, donor type, donor heavy atom, donor atom, acceptor molecule, acceptor atom, score
      L1  H     3    38       P1  7948  0.90
      P1  H  7989  7998       L1    10  0.60
      P1  H 10752 10763       L1     8  0.99

> <Gold.Chemscore.Hbond.Weighted>
-9.3448

> <Gold.Chemscore.Metal.Weighted>
-0.0000

> <Gold.Chemscore.Lipo.Weighted>
-6.2347

> <Gold.Chemscore.Internal_Hbond.Weighted>
0.0000

> <Gold.Chemscore.DEClash.Weighted>
1.3749

> <Gold.Chemscore.DEInternal.Weighted>
2.4991

> <Gold.Chemscore.Rot.Weighted>
6.6311

> <Gold.Chemscore.Internal.Correction.Weighted>
   9.000000E+99

> <Gold.Protein.RotatedTorsions>
[ 6907 6896 6895 6894 ] final  -47.16 input  -60.11 | X-H torsion
[ 7974 7965 7964 7962 ] final   34.08 input  175.53 | X-H torsion
[ 8008 7997 7996 7995 ] final -163.65 input   59.86 | X-H torsion
[ 10167 10162 10161 10158 ] final  -44.86 input  -65.29 | X-H torsion
[ 10718 10713 10712 10709 ] final  -53.61 input   66.30 | X-H torsion
[ 10763 10752 10751 10750 ] final   67.35 input  -60.55 | X-H torsion
[ 11005 11000 10999 10996 ] final    0.53 input  -57.11 | X-H torsion

> <Gold.Protein.ActiveResidues>
 VAL166  LYS551  ARG553  GLY616  TRP617  ASP618  TYR619  PRO620  LYS621  CYS622 
 ASP623  PHE694  ASN695  SER759  ASP760  ASP761  ALA762  ILE779  LEU786  VAL792 
 PHE793  MET794  SER795  GLU796  ALA797  LYS798  CYS799  TRP800  GLU811  SER814 

> <Gold.Protein.RotatedAtoms>
  150.9036  134.8450  159.7376 H   0  0  0  0  0  0  0  0  0  0  0  0  # atno 6907 bound_to 6896
  152.4906  134.4465  159.9570 H   0  0  0  0  0  0  0  0  0  0  0  0  # atno 6908 bound_to 6896
  151.4514  133.3577  159.2831 H   0  0  0  0  0  0  0  0  0  0  0  0  # atno 6909 bound_to 6896
  146.1377  139.6315  142.9184 H   0  0  0  0  0  0  0  0  0  0  0  0  # atno 7974 bound_to 7965
  155.8244  140.0924  157.1830 H   0  0  0  0  0  0  0  0  0  0  0  0  # atno 8008 bound_to 7997
  154.3979  140.1431  156.3598 H   0  0  0  0  0  0  0  0  0  0  0  0  # atno 8009 bound_to 7997
  155.8233  140.3445  155.5530 H   0  0  0  0  0  0  0  0  0  0  0  0  # atno 8010 bound_to 7997
  140.6880  143.2908  151.3557 H   0  0  0  0  0  0  0  0  0  0  0  0  # atno 10167 bound_to 10162
  156.1520  130.4151  149.9929 H   0  0  0  0  0  0  0  0  0  0  0  0  # atno 10718 bound_to 10713
  153.0182  135.5287  154.6965 H   0  0  0  0  0  0  0  0  0  0  0  0  # atno 10763 bound_to 10752
  154.6086  135.2876  155.0460 H   0  0  0  0  0  0  0  0  0  0  0  0  # atno 10764 bound_to 10752
  154.1490  135.6566  153.5011 H   0  0  0  0  0  0  0  0  0  0  0  0  # atno 10765 bound_to 10752
  140.6255  133.9622  155.8247 H   0  0  0  0  0  0  0  0  0  0  0  0  # atno 11005 bound_to 11000
  145.5118  141.0435  143.2484 LP  0  0  0  0  0  0  0  0  0  0  0  0  # atno 17320 bound_to 7965
  144.7758  139.6633  143.7175 LP  0  0  0  0  0  0  0  0  0  0  0  0  # atno 17321 bound_to 7965
  139.6256  144.0820  152.2431 LP  0  0  0  0  0  0  0  0  0  0  0  0  # atno 17342 bound_to 10162
  140.0279  144.6103  150.7512 LP  0  0  0  0  0  0  0  0  0  0  0  0  # atno 17343 bound_to 10162
  156.7783  130.9212  151.3645 LP  0  0  0  0  0  0  0  0  0  0  0  0  # atno 17370 bound_to 10713
  157.6665  130.9012  149.9943 LP  0  0  0  0  0  0  0  0  0  0  0  0  # atno 17371 bound_to 10713
  141.0712  134.0202  157.3523 LP  0  0  0  0  0  0  0  0  0  0  0  0  # atno 17394 bound_to 11000
  139.9136  135.0194  156.7793 LP  0  0  0  0  0  0  0  0  0  0  0  0  # atno 17395 bound_to 11000

$$$$
