AV-unprocessed.smi:1123|AV-procd|sdf|4830|dock7
  -GOLD-   22720 3393D 1   1.00000     0.00000
 Structure written by MMmdl.
 37 38  0  0  0  0  0  0  0  0  1 V2000
  148.0354  139.3608  154.0851 C   0  0  0  0  0  0  0  0  0  0  0  0
  149.3185  140.0411  154.6043 C   0  0  1  0  0  0  0  0  0  0  0  0
  149.1224  140.7291  155.9654 C   0  0  0  0  0  0  0  0  0  0  0  0
  148.0437  140.6615  156.5560 O   0  0  0  0  0  0  0  0  0  0  0  0
  150.1824  141.3934  156.4532 N   0  0  0  0  0  0  0  0  0  0  0  0
  150.2141  142.1022  157.7263 C   0  0  0  0  0  0  0  0  0  0  0  0
  151.3069  143.1878  157.7373 C   0  0  0  0  0  0  0  0  0  0  0  0
  152.1205  143.2305  158.9509 N   0  0  0  0  0  0  0  0  0  0  0  0
  152.4137  141.9005  159.4809 C   0  0  0  0  0  0  0  0  0  0  0  0
  153.2454  141.9679  160.7741 C   0  0  0  0  0  0  0  0  0  0  0  0
  152.5673  142.7632  161.7409 O   0  0  0  0  0  0  0  0  0  0  0  0
  152.3057  144.0839  161.2780 C   0  0  0  0  0  0  0  0  0  0  0  0
  151.4672  144.0201  159.9897 C   0  0  0  0  0  0  0  0  0  0  0  0
  150.4439  139.1159  154.6604 N   0  0  0  0  0  0  0  0  0  0  0  0
  150.4843  137.8001  154.4398 C   0  0  0  0  0  0  0  0  0  0  0  0
  151.6971  137.2742  154.5371 N   0  0  0  0  0  0  0  0  0  0  0  0
  152.4109  138.4010  154.8314 C   0  0  0  0  0  0  0  0  0  0  0  0
  151.7110  139.5326  154.9073 N   0  0  0  0  0  0  0  0  0  0  0  0
  147.2195  140.0786  153.9944 H   0  0  0  0  0  0  0  0  0  0  0  0
  147.6992  138.5605  154.7458 H   0  0  0  0  0  0  0  0  0  0  0  0
  148.1988  138.9266  153.0985 H   0  0  0  0  0  0  0  0  0  0  0  0
  149.5808  140.8203  153.8868 H   0  0  0  0  0  0  0  0  0  0  0  0
  151.0306  141.4024  155.9056 H   0  0  0  0  0  0  0  0  0  0  0  0
  149.2291  142.5435  157.8740 H   0  0  0  0  0  0  0  0  0  0  0  0
  150.3669  141.3966  158.5447 H   0  0  0  0  0  0  0  0  0  0  0  0
  151.9650  143.0077  156.8863 H   0  0  0  0  0  0  0  0  0  0  0  0
  150.8540  144.1648  157.5622 H   0  0  0  0  0  0  0  0  0  0  0  0
  151.4827  141.3671  159.6785 H   0  0  0  0  0  0  0  0  0  0  0  0
  152.9628  141.3121  158.7471 H   0  0  0  0  0  0  0  0  0  0  0  0
  153.3992  140.9678  161.1790 H   0  0  0  0  0  0  0  0  0  0  0  0
  154.2325  142.3884  160.5758 H   0  0  0  0  0  0  0  0  0  0  0  0
  151.7712  144.6341  162.0522 H   0  0  0  0  0  0  0  0  0  0  0  0
  153.2460  144.6086  161.1020 H   0  0  0  0  0  0  0  0  0  0  0  0
  151.2888  145.0331  159.6276 H   0  0  0  0  0  0  0  0  0  0  0  0
  150.4890  143.5943  160.2180 H   0  0  0  0  0  0  0  0  0  0  0  0
  149.6088  137.2150  154.1997 H   0  0  0  0  0  0  0  0  0  0  0  0
  153.4794  138.3879  154.9886 H   0  0  0  0  0  0  0  0  0  0  0  0
  1  2  1  0  0  0  0
  1 19  1  0  0  0  0
  1 20  1  0  0  0  0
  1 21  1  0  0  0  0
  2  3  1  0  0  0  0
  2 14  1  0  0  0  0
  2 22  1  0  0  0  0
  3  4  2  0  0  0  0
  3  5  1  0  0  0  0
  5  6  1  0  0  0  0
  5 23  1  0  0  0  0
  6  7  1  0  0  0  0
  6 24  1  0  0  0  0
  6 25  1  0  0  0  0
  7  8  1  0  0  0  0
  7 26  1  0  0  0  0
  7 27  1  0  0  0  0
  8 13  1  0  0  0  0
  8  9  1  0  0  0  0
  9 10  1  0  0  0  0
  9 28  1  0  0  0  0
  9 29  1  0  0  0  0
 10 11  1  0  0  0  0
 10 30  1  0  0  0  0
 10 31  1  0  0  0  0
 11 12  1  0  0  0  0
 12 13  1  0  0  0  0
 12 32  1  0  0  0  0
 12 33  1  0  0  0  0
 13 34  1  0  0  0  0
 13 35  1  0  0  0  0
 14 18  1  0  0  0  0
 14 15  1  0  0  0  0
 15 16  2  0  0  0  0
 15 36  1  0  0  0  0
 16 17  1  0  0  0  0
 17 18  2  0  0  0  0
 17 37  1  0  0  0  0
M  END
> <s_m_source_file>
AV-unprocessed.smi

> <i_m_source_file_index>
1123

> <i_lp_mmshare_version>
43012

> <i_f3d_flags>
0

> <s_epik_input>
bjFbY0hdbltjSF1uMVtDQEhdKFtDSDNdKUMoPU8pW05IXVtDSDJdW0NIMl1OMltDSDJdW0NIMl1PW0NIMl1bQ0gyXTI=

> <s_epik_cmdline>
J2VwaWtfcHl0aG9uJywgJy1waCcsICc3LjAnLCAnLXRuJywgJzgnLCAnLW1hJywgJzIwMCcsICctbWV0YWxfYmluZGluZycsICctaW1hZScsICc8aW5maWxlLm1hZT4nLCAnLW9tYWUnLCAnPG91dGZpbGUubWFlPic=

> <r_lp_tautomer_probability>
1

> <r_epik_Ionization_Penalty>
0.211373

> <r_epik_Ionization_Penalty_Charging>
0

> <r_epik_Ionization_Penalty_Neutral>
0.211373

> <r_epik_State_Penalty>
0.201459

> <r_epik_Charging_Adjusted_Penalty>
0.201459

> <i_epik_Tot_Q>
0

> <i_epik_Tot_abs_Q>
0

> <r_epik_Metal_State_Penalty>
0.201458

> <b_epik_Metal_Only>
0

> <s_lp_Force_Field>
OPLS_2005

> <r_lp_Energy>
26.9465

> <b_lp_Chiralities_Consistent>
1

> <s_lp_Variant>
AV-unprocessed.smi:1123-2

> <Gold.Version>
5.8.1

> <Gold.Id.Protein>
6NUR|6NUR_protein|mol2

> <Gold.PLP.Fitness>
43.5434

> <Gold.PLP.PLP>
-37.6887

> <Gold.PLP.part.hbond>
-2.0000

> <Gold.PLP.part.metal>
0.0000

> <Gold.PLP.part.buried>
-7.4939

> <Gold.PLP.part.nonpolar>
-30.5121

> <Gold.PLP.part.repulsive>
0.4126

> <Gold.PLP.ligand.clash>
0.0000

> <Gold.PLP.ligand.torsion>
0.8134

> <Gold.PLP.Chemscore.Hbond>
1.4780

> <Gold.PLP.Chemscore.CHOScore>
0.9714

> <Gold.PLP.Chemscore.Metal>
0.0000

> <Gold.Chemscore.Hbonds>
donor molecule, donor type, donor heavy atom, donor atom, acceptor molecule, acceptor atom, score
      P1  H  7989  7998       L1    18  0.65
      P1  H 10752 10765       L1    16  0.91
      L1  C    15    36       P1  7948  0.78

> <Gold.PLP.Chemscore.Internal.Correction>
0.1332

> <Gold.Rescore>
     Score         DG    S(hbond)    S(metal)    S(lipo)     H(rot)  DE(clash)    DE(int)     intcor
     10.60     -12.77       1.76        0.00      69.24       2.61       0.07       2.10       ----

> <Gold.Chemscore.Fitness>
10.6036

> <Gold.Chemscore.DG>
-12.7729

> <Gold.Chemscore.ZeroCoef>
-5.4800

> <Gold.Chemscore.Hbond>
1.7584

> <Gold.Chemscore.Metal>
0.0000

> <Gold.Chemscore.Lipo>
69.2384

> <Gold.Chemscore.Internal_Hbond>
0.0000

> <Gold.Chemscore.DEClash>
0.0695

> <Gold.Chemscore.DEInternal>
2.0999

> <Gold.Chemscore.Rot>
2.6097

> <Gold.Chemscore.Internal.Correction>
   9.000000E+99

> <Gold.Chemscore.Hbonds>
donor molecule, donor type, donor heavy atom, donor atom, acceptor molecule, acceptor atom, score
      P1  H  7989  7998       L1    18  0.05
      P1  H 10752 10765       L1    16  0.62

> <Gold.Chemscore.Hbond.Weighted>
-5.8729

> <Gold.Chemscore.Metal.Weighted>
-0.0000

> <Gold.Chemscore.Lipo.Weighted>
-8.1009

> <Gold.Chemscore.Internal_Hbond.Weighted>
0.0000

> <Gold.Chemscore.DEClash.Weighted>
0.0695

> <Gold.Chemscore.DEInternal.Weighted>
2.0999

> <Gold.Chemscore.Rot.Weighted>
6.6809

> <Gold.Chemscore.Internal.Correction.Weighted>
   9.000000E+99

> <Gold.Protein.RotatedTorsions>
[ 6907 6896 6895 6894 ] final   48.24 input  -60.11 | X-H torsion
[ 7974 7965 7964 7962 ] final  112.48 input  175.53 | X-H torsion
[ 8008 7997 7996 7995 ] final  114.23 input   59.86 | X-H torsion
[ 10167 10162 10161 10158 ] final  -65.96 input  -65.29 | X-H torsion
[ 10718 10713 10712 10709 ] final -166.86 input   66.30 | X-H torsion
[ 10763 10752 10751 10750 ] final  154.42 input  -60.55 | X-H torsion
[ 11005 11000 10999 10996 ] final   27.02 input  -57.11 | X-H torsion

> <Gold.Protein.ActiveResidues>
 VAL166  LYS551  ARG553  GLY616  TRP617  ASP618  TYR619  PRO620  LYS621  CYS622 
 ASP623  PHE694  ASN695  SER759  ASP760  ASP761  ALA762  ILE779  LEU786  VAL792 
 PHE793  MET794  SER795  GLU796  ALA797  LYS798  CYS799  TRP800  GLU811  SER814 

> <Gold.Protein.RotatedAtoms>
  152.2772  134.7868  160.0403 H   0  0  0  0  0  0  0  0  0  0  0  0  # atno 6907 bound_to 6896
  151.8460  133.3426  159.3666 H   0  0  0  0  0  0  0  0  0  0  0  0  # atno 6908 bound_to 6896
  150.7175  134.5273  159.5727 H   0  0  0  0  0  0  0  0  0  0  0  0  # atno 6909 bound_to 6896
  145.2291  139.2827  143.4178 H   0  0  0  0  0  0  0  0  0  0  0  0  # atno 7974 bound_to 7965
  156.2308  140.2963  156.0183 H   0  0  0  0  0  0  0  0  0  0  0  0  # atno 8008 bound_to 7997
  155.2230  140.0416  157.2968 H   0  0  0  0  0  0  0  0  0  0  0  0  # atno 8009 bound_to 7997
  154.5992  140.2422  155.7822 H   0  0  0  0  0  0  0  0  0  0  0  0  # atno 8010 bound_to 7997
  140.5691  143.2316  151.6574 H   0  0  0  0  0  0  0  0  0  0  0  0  # atno 10167 bound_to 10162
  156.6741  130.9095  151.3048 H   0  0  0  0  0  0  0  0  0  0  0  0  # atno 10718 bound_to 10713
  154.1521  135.2814  155.3132 H   0  0  0  0  0  0  0  0  0  0  0  0  # atno 10763 bound_to 10752
  154.6210  135.5467  153.7578 H   0  0  0  0  0  0  0  0  0  0  0  0  # atno 10764 bound_to 10752
  153.0218  135.6439  154.1664 H   0  0  0  0  0  0  0  0  0  0  0  0  # atno 10765 bound_to 10752
  140.3307  134.2440  155.7703 H   0  0  0  0  0  0  0  0  0  0  0  0  # atno 11005 bound_to 11000
  146.3357  140.2620  142.8602 LP  0  0  0  0  0  0  0  0  0  0  0  0  # atno 17320 bound_to 7965
  144.9694  140.8353  143.5465 LP  0  0  0  0  0  0  0  0  0  0  0  0  # atno 17321 bound_to 7965
  139.5108  144.3529  152.0635 LP  0  0  0  0  0  0  0  0  0  0  0  0  # atno 17342 bound_to 10162
  140.2665  144.4011  150.6166 LP  0  0  0  0  0  0  0  0  0  0  0  0  # atno 17343 bound_to 10162
  157.7067  130.9393  150.0954 LP  0  0  0  0  0  0  0  0  0  0  0  0  # atno 17370 bound_to 10713
  156.1917  130.3655  149.8902 LP  0  0  0  0  0  0  0  0  0  0  0  0  # atno 17371 bound_to 10713
  141.2064  133.7834  157.0180 LP  0  0  0  0  0  0  0  0  0  0  0  0  # atno 17394 bound_to 11000
  140.0863  134.9619  157.1705 LP  0  0  0  0  0  0  0  0  0  0  0  0  # atno 17395 bound_to 11000

$$$$
