AV-unprocessed.smi:2060|AV-procd|sdf|8356|dock1
  -GOLD-   2272011 23D 1   1.00000     0.00000
 Structure written by MMmdl.
 46 47  0  0  0  0  0  0  0  0  2 V2000
  146.8804  141.2089  157.1854 C   0  0  0  0  0  0  0  0  0  0  0  0
  146.5445  140.2923  155.9955 C   0  0  0  0  0  0  0  0  0  0  0  0
  147.0340  140.7780  154.5968 C   0  0  1  0  0  0  0  0  0  0  0  0
  146.5362  142.2278  154.3591 C   0  0  0  0  0  0  0  0  0  0  0  0
  148.5945  140.8052  154.5696 C   0  0  0  0  0  0  0  0  0  0  0  0
  149.1829  141.8734  155.3799 N   0  0  0  0  0  0  0  0  0  0  0  0
  150.1870  141.7265  156.2566 C   0  0  0  0  0  0  0  0  0  0  0  0
  150.7290  140.6474  156.4920 O   0  0  0  0  0  0  0  0  0  0  0  0
  150.5012  142.8980  156.8338 N   0  0  0  0  0  0  0  0  0  0  0  0
  151.4944  143.1603  157.8123 C   0  0  0  0  0  0  0  0  0  0  0  0
  152.1711  142.1930  158.6113 C   0  0  0  0  0  0  0  0  0  0  0  0
  153.0136  142.9573  159.3685 C   0  0  0  0  0  0  0  0  0  0  0  0
  154.0192  142.6243  160.4171 C   0  0  0  0  0  0  0  0  0  0  0  0
  152.8652  144.2737  159.0600 O   0  0  0  0  0  0  0  0  0  0  0  0
  151.8915  144.3943  158.0618 N   0  0  0  0  0  0  0  0  0  0  0  0
  146.5139  139.8796  153.4998 N   0  3  0  0  0  0  0  0  0  0  0  0
  147.0682  140.1326  152.1394 C   0  0  0  0  0  0  0  0  0  0  0  0
  146.3054  139.3124  151.0864 C   0  0  0  0  0  0  0  0  0  0  0  0
  146.3914  137.9314  151.4080 O   0  0  0  0  0  0  0  0  0  0  0  0
  145.7980  137.6468  152.6670 C   0  0  0  0  0  0  0  0  0  0  0  0
  146.5331  138.4154  153.7784 C   0  0  0  0  0  0  0  0  0  0  0  0
  146.4925  140.7833  158.1111 H   0  0  0  0  0  0  0  0  0  0  0  0
  146.4364  142.1982  157.0783 H   0  0  0  0  0  0  0  0  0  0  0  0
  147.9555  141.3301  157.3157 H   0  0  0  0  0  0  0  0  0  0  0  0
  146.9657  139.3127  156.2189 H   0  0  0  0  0  0  0  0  0  0  0  0
  145.4638  140.1550  155.9846 H   0  0  0  0  0  0  0  0  0  0  0  0
  147.0828  142.9485  154.9678 H   0  0  0  0  0  0  0  0  0  0  0  0
  145.4829  142.3481  154.6132 H   0  0  0  0  0  0  0  0  0  0  0  0
  146.6631  142.5326  153.3197 H   0  0  0  0  0  0  0  0  0  0  0  0
  149.0061  139.8421  154.8756 H   0  0  0  0  0  0  0  0  0  0  0  0
  148.9529  140.9432  153.5496 H   0  0  0  0  0  0  0  0  0  0  0  0
  148.8104  142.8018  155.2429 H   0  0  0  0  0  0  0  0  0  0  0  0
  149.9611  143.7008  156.5462 H   0  0  0  0  0  0  0  0  0  0  0  0
  152.0719  141.1182  158.6365 H   0  0  0  0  0  0  0  0  0  0  0  0
  153.8695  141.6119  160.7924 H   0  0  0  0  0  0  0  0  0  0  0  0
  153.9435  143.3110  161.2605 H   0  0  0  0  0  0  0  0  0  0  0  0
  155.0304  142.6905  160.0157 H   0  0  0  0  0  0  0  0  0  0  0  0
  146.9991  141.1841  151.8675 H   0  0  0  0  0  0  0  0  0  0  0  0
  148.1233  139.8607  152.1039 H   0  0  0  0  0  0  0  0  0  0  0  0
  145.2614  139.6243  151.0282 H   0  0  0  0  0  0  0  0  0  0  0  0
  146.7407  139.4709  150.0995 H   0  0  0  0  0  0  0  0  0  0  0  0
  144.7382  137.9062  152.6501 H   0  0  0  0  0  0  0  0  0  0  0  0
  145.8588  136.5738  152.8502 H   0  0  0  0  0  0  0  0  0  0  0  0
  147.5604  138.0575  153.8506 H   0  0  0  0  0  0  0  0  0  0  0  0
  146.0420  138.1761  154.7195 H   0  0  0  0  0  0  0  0  0  0  0  0
  145.5340  140.1154  153.4335 H   0  0  0  0  0  0  0  0  0  0  0  0
  1  2  1  0  0  0  0
  1 22  1  0  0  0  0
  1 23  1  0  0  0  0
  1 24  1  0  0  0  0
  2  3  1  0  0  0  0
  2 25  1  0  0  0  0
  2 26  1  0  0  0  0
  3  4  1  0  0  0  0
  3  5  1  0  0  0  0
  3 16  1  0  0  0  0
  4 27  1  0  0  0  0
  4 28  1  0  0  0  0
  4 29  1  0  0  0  0
  5  6  1  0  0  0  0
  5 30  1  0  0  0  0
  5 31  1  0  0  0  0
  6  7  1  0  0  0  0
  6 32  1  0  0  0  0
  7  8  2  0  0  0  0
  7  9  1  0  0  0  0
  9 10  1  0  0  0  0
  9 33  1  0  0  0  0
 10 15  2  0  0  0  0
 10 11  1  0  0  0  0
 11 12  2  0  0  0  0
 11 34  1  0  0  0  0
 12 13  1  0  0  0  0
 12 14  1  0  0  0  0
 13 35  1  0  0  0  0
 13 36  1  0  0  0  0
 13 37  1  0  0  0  0
 14 15  1  0  0  0  0
 16 21  1  0  0  0  0
 16 17  1  0  0  0  0
 16 46  1  0  0  0  0
 17 18  1  0  0  0  0
 17 38  1  0  0  0  0
 17 39  1  0  0  0  0
 18 19  1  0  0  0  0
 18 40  1  0  0  0  0
 18 41  1  0  0  0  0
 19 20  1  0  0  0  0
 20 21  1  0  0  0  0
 20 42  1  0  0  0  0
 20 43  1  0  0  0  0
 21 44  1  0  0  0  0
 21 45  1  0  0  0  0
M  CHG  1  16   1
M  END
> <s_m_source_file>
AV-unprocessed.smi

> <i_m_source_file_index>
2060

> <i_lp_mmshare_version>
43012

> <i_f3d_flags>
0

> <s_epik_input>
W0NIMl0xW0NIMl1PW0NIMl1bQ0gyXU4xW0NAQF0oW0NIM10pKFtDSDJdW0NIM10pW0NIMl1bTkhdQyg9TylbTkhdYzJbY0hdYyhbQ0gzXSlvbjI=

> <s_epik_cmdline>
J2VwaWtfcHl0aG9uJywgJy1waCcsICc3LjAnLCAnLXRuJywgJzgnLCAnLW1hJywgJzIwMCcsICctbWV0YWxfYmluZGluZycsICctaW1hZScsICc8aW5maWxlLm1hZT4nLCAnLW9tYWUnLCAnPG91dGZpbGUubWFlPic=

> <r_epik_Ionization_Penalty>
0.563843

> <r_epik_Ionization_Penalty_Charging>
0.563819

> <r_epik_Ionization_Penalty_Neutral>
2.4442e-05

> <r_epik_State_Penalty>
0.575199

> <r_epik_Charging_Adjusted_Penalty>
1.13902

> <i_epik_Tot_Q>
1

> <i_epik_Tot_abs_Q>
1

> <r_epik_Metal_State_Penalty>
0.577669

> <b_epik_Metal_Only>
0

> <s_lp_Force_Field>
OPLS_2005

> <r_lp_Energy>
34.1669

> <b_lp_Chiralities_Consistent>
1

> <s_lp_Variant>
AV-unprocessed.smi:2060-3

> <Gold.Version>
5.8.1

> <Gold.Id.Protein>
6NUR|6NUR_protein|mol2

> <Gold.PLP.Fitness>
44.2547

> <Gold.PLP.PLP>
-33.3981

> <Gold.PLP.part.hbond>
-3.0000

> <Gold.PLP.part.metal>
0.0000

> <Gold.PLP.part.buried>
-1.4224

> <Gold.PLP.part.nonpolar>
-30.0369

> <Gold.PLP.part.repulsive>
1.1630

> <Gold.PLP.ligand.clash>
0.0000

> <Gold.PLP.ligand.torsion>
0.5736

> <Gold.PLP.Chemscore.Hbond>
3.9600

> <Gold.PLP.Chemscore.CHOScore>
0.0000

> <Gold.PLP.Chemscore.Metal>
0.0000

> <Gold.Chemscore.Hbonds>
donor molecule, donor type, donor heavy atom, donor atom, acceptor molecule, acceptor atom, score
      L1  H     6    32       P1  8028  0.99
      L1  H     9    33       P1  8028  1.00
      L1  H    16    46       P1 10175  1.56
      P1  H  7954  7966       L1    19  0.07

> <Gold.PLP.Chemscore.Internal.Correction>
0.1237

> <Gold.Rescore>
     Score         DG    S(hbond)    S(metal)    S(lipo)     H(rot)  DE(clash)    DE(int)     intcor
     12.88     -17.38       2.00        0.00      83.29       1.77       2.88       1.62       ----

> <Gold.Chemscore.Fitness>
12.8823

> <Gold.Chemscore.DG>
-17.3823

> <Gold.Chemscore.ZeroCoef>
-5.4800

> <Gold.Chemscore.Hbond>
2.0004

> <Gold.Chemscore.Metal>
0.0000

> <Gold.Chemscore.Lipo>
83.2865

> <Gold.Chemscore.Internal_Hbond>
0.0000

> <Gold.Chemscore.DEClash>
2.8830

> <Gold.Chemscore.DEInternal>
1.6170

> <Gold.Chemscore.Rot>
1.7670

> <Gold.Chemscore.Internal.Correction>
   9.000000E+99

> <Gold.Chemscore.Hbonds>
donor molecule, donor type, donor heavy atom, donor atom, acceptor molecule, acceptor atom, score
      L1  H     6    32       P1  8028  0.93
      L1  H     9    33       P1  8028  1.00
      L1  H    16    46       P1 10175  0.78

> <Gold.Chemscore.Hbond.Weighted>
-6.6813

> <Gold.Chemscore.Metal.Weighted>
-0.0000

> <Gold.Chemscore.Lipo.Weighted>
-9.7445

> <Gold.Chemscore.Internal_Hbond.Weighted>
0.0000

> <Gold.Chemscore.DEClash.Weighted>
2.8830

> <Gold.Chemscore.DEInternal.Weighted>
1.6170

> <Gold.Chemscore.Rot.Weighted>
4.5235

> <Gold.Chemscore.Internal.Correction.Weighted>
   9.000000E+99

> <Gold.Protein.RotatedTorsions>
[ 6907 6896 6895 6894 ] final  108.59 input  -60.11 | X-H torsion
[ 7974 7965 7964 7962 ] final -119.79 input  175.53 | X-H torsion
[ 8008 7997 7996 7995 ] final   88.21 input   59.86 | X-H torsion
[ 10167 10162 10161 10158 ] final   -0.64 input  -65.29 | X-H torsion
[ 10718 10713 10712 10709 ] final   69.00 input   66.30 | X-H torsion
[ 10763 10752 10751 10750 ] final  -19.56 input  -60.55 | X-H torsion
[ 11005 11000 10999 10996 ] final  169.22 input  -57.11 | X-H torsion

> <Gold.Protein.ActiveResidues>
 VAL166  LYS551  ARG553  GLY616  TRP617  ASP618  TYR619  PRO620  LYS621  CYS622 
 ASP623  PHE694  ASN695  SER759  ASP760  ASP761  ALA762  ILE779  LEU786  VAL792 
 PHE793  MET794  SER795  GLU796  ALA797  LYS798  CYS799  TRP800  GLU811  SER814 

> <Gold.Protein.RotatedAtoms>
  152.5105  133.9067  159.7467 H   0  0  0  0  0  0  0  0  0  0  0  0  # atno 6907 bound_to 6896
  150.9470  133.6584  159.2786 H   0  0  0  0  0  0  0  0  0  0  0  0  # atno 6908 bound_to 6896
  151.3875  135.0955  159.9568 H   0  0  0  0  0  0  0  0  0  0  0  0  # atno 6909 bound_to 6896
  145.0585  140.8272  143.4166 H   0  0  0  0  0  0  0  0  0  0  0  0  # atno 7974 bound_to 7965
  155.9850  140.3374  155.6698 H   0  0  0  0  0  0  0  0  0  0  0  0  # atno 8008 bound_to 7997
  155.6498  140.0704  157.2609 H   0  0  0  0  0  0  0  0  0  0  0  0  # atno 8009 bound_to 7997
  154.4202  140.1727  156.1650 H   0  0  0  0  0  0  0  0  0  0  0  0  # atno 8010 bound_to 7997
  140.6776  143.6870  150.8058 H   0  0  0  0  0  0  0  0  0  0  0  0  # atno 10167 bound_to 10162
  157.6321  130.9403  150.0454 H   0  0  0  0  0  0  0  0  0  0  0  0  # atno 10718 bound_to 10713
  153.6067  135.6997  153.5363 H   0  0  0  0  0  0  0  0  0  0  0  0  # atno 10763 bound_to 10752
  153.3051  135.4117  155.1286 H   0  0  0  0  0  0  0  0  0  0  0  0  # atno 10764 bound_to 10752
  154.8572  135.3658  154.5604 H   0  0  0  0  0  0  0  0  0  0  0  0  # atno 10765 bound_to 10752
  140.2954  134.7639  157.3873 H   0  0  0  0  0  0  0  0  0  0  0  0  # atno 11005 bound_to 11000
  145.1438  139.2556  143.5476 LP  0  0  0  0  0  0  0  0  0  0  0  0  # atno 17320 bound_to 7965
  146.3523  140.1122  142.8603 LP  0  0  0  0  0  0  0  0  0  0  0  0  # atno 17321 bound_to 7965
  140.0566  143.5197  152.2648 LP  0  0  0  0  0  0  0  0  0  0  0  0  # atno 17342 bound_to 10162
  139.6078  144.7601  151.3022 LP  0  0  0  0  0  0  0  0  0  0  0  0  # atno 17343 bound_to 10162
  156.1532  130.3642  149.9407 LP  0  0  0  0  0  0  0  0  0  0  0  0  # atno 17370 bound_to 10713
  156.7422  130.9083  151.3633 LP  0  0  0  0  0  0  0  0  0  0  0  0  # atno 17371 bound_to 10713
  140.1157  134.5286  155.8227 LP  0  0  0  0  0  0  0  0  0  0  0  0  # atno 17394 bound_to 11000
  141.2138  133.6739  156.6772 LP  0  0  0  0  0  0  0  0  0  0  0  0  # atno 17395 bound_to 11000

$$$$
