AV-unprocessed.smi:1433|AV-procd|sdf|5843|dock7
  -GOLD-   22720 5503D 1   1.00000     0.00000
 Structure written by MMmdl.
 45 46  0  0  0  0  0  0  0  0  2 V2000
  144.2241  134.8230  150.6567 C   0  0  0  0  0  0  0  0  0  0  0  0
  145.3340  135.4922  151.4753 C   0  0  2  0  0  0  0  0  0  0  0  0
  146.0034  134.5099  152.4510 C   0  0  0  0  0  0  0  0  0  0  0  0
  147.0295  135.1957  153.2801 N   0  3  2  0  0  0  0  0  0  0  0  0
  147.8107  134.2378  154.1295 C   0  0  1  0  0  0  0  0  0  0  0  0
  148.3761  133.0954  153.2542 C   0  0  0  0  0  0  0  0  0  0  0  0
  148.9515  134.9050  154.9495 C   0  0  0  0  0  0  0  0  0  0  0  0
  149.5122  136.0781  154.2873 N   0  0  0  0  0  0  0  0  0  0  0  0
  150.7305  136.5894  154.5229 C   0  0  0  0  0  0  0  0  0  0  0  0
  151.4974  136.1479  155.3785 O   0  0  0  0  0  0  0  0  0  0  0  0
  151.1551  137.7664  153.6448 C   0  0  0  0  0  0  0  0  0  0  0  0
  151.4872  138.9233  154.4576 N   0  0  0  0  0  0  0  0  0  0  0  0
  152.3427  138.9940  155.5373 C   0  0  0  0  0  0  0  0  0  0  0  0
  152.3459  140.2894  155.9688 C   0  0  0  0  0  0  0  0  0  0  0  0
  151.4491  140.9447  155.0794 C   0  0  0  0  0  0  0  0  0  0  0  0
  150.9394  140.1257  154.1738 N   0  0  0  0  0  0  0  0  0  0  0  0
  146.4002  136.3387  153.9972 C   0  0  0  0  0  0  0  0  0  0  0  0
  145.6623  137.2861  153.0292 C   0  0  1  0  0  0  0  0  0  0  0  0
  146.6063  138.1717  152.1956 C   0  0  0  0  0  0  0  0  0  0  0  0
  144.7477  136.5580  152.2136 O   0  0  0  0  0  0  0  0  0  0  0  0
  144.6177  133.9994  150.0603 H   0  0  0  0  0  0  0  0  0  0  0  0
  143.7609  135.5350  149.9732 H   0  0  0  0  0  0  0  0  0  0  0  0
  143.4413  134.4245  151.3028 H   0  0  0  0  0  0  0  0  0  0  0  0
  146.0764  135.8837  150.7797 H   0  0  0  0  0  0  0  0  0  0  0  0
  145.2523  134.0602  153.1031 H   0  0  0  0  0  0  0  0  0  0  0  0
  146.4454  133.6974  151.8773 H   0  0  0  0  0  0  0  0  0  0  0  0
  147.1142  133.8026  154.8480 H   0  0  0  0  0  0  0  0  0  0  0  0
  148.8967  132.3462  153.8510 H   0  0  0  0  0  0  0  0  0  0  0  0
  149.0843  133.4794  152.5193 H   0  0  0  0  0  0  0  0  0  0  0  0
  147.6002  132.5578  152.7122 H   0  0  0  0  0  0  0  0  0  0  0  0
  148.5790  135.2187  155.9252 H   0  0  0  0  0  0  0  0  0  0  0  0
  149.7727  134.2105  155.1319 H   0  0  0  0  0  0  0  0  0  0  0  0
  148.9516  136.5088  153.5656 H   0  0  0  0  0  0  0  0  0  0  0  0
  152.0150  137.4892  153.0330 H   0  0  0  0  0  0  0  0  0  0  0  0
  150.3477  138.0363  152.9627 H   0  0  0  0  0  0  0  0  0  0  0  0
  152.8727  138.1267  155.9027 H   0  0  0  0  0  0  0  0  0  0  0  0
  152.9031  140.7055  156.7951 H   0  0  0  0  0  0  0  0  0  0  0  0
  151.1565  141.9842  155.0645 H   0  0  0  0  0  0  0  0  0  0  0  0
  145.6998  135.9501  154.7383 H   0  0  0  0  0  0  0  0  0  0  0  0
  147.1440  136.9278  154.5330 H   0  0  0  0  0  0  0  0  0  0  0  0
  145.0531  137.9615  153.6308 H   0  0  0  0  0  0  0  0  0  0  0  0
  147.1951  138.8239  152.8410 H   0  0  0  0  0  0  0  0  0  0  0  0
  146.0408  138.8083  151.5146 H   0  0  0  0  0  0  0  0  0  0  0  0
  147.3084  137.5871  151.6019 H   0  0  0  0  0  0  0  0  0  0  0  0
  147.6953  135.6084  152.6425 H   0  0  0  0  0  0  0  0  0  0  0  0
  1  2  1  0  0  0  0
  1 21  1  0  0  0  0
  1 22  1  0  0  0  0
  1 23  1  0  0  0  0
  2 20  1  0  0  0  0
  2  3  1  0  0  0  0
  2 24  1  0  0  0  0
  3  4  1  0  0  0  0
  3 25  1  0  0  0  0
  3 26  1  0  0  0  0
  4  5  1  0  0  0  0
  4 17  1  0  0  0  0
  4 45  1  0  0  0  0
  5  6  1  0  0  0  0
  5  7  1  0  0  0  0
  5 27  1  0  0  0  0
  6 28  1  0  0  0  0
  6 29  1  0  0  0  0
  6 30  1  0  0  0  0
  7  8  1  0  0  0  0
  7 31  1  0  0  0  0
  7 32  1  0  0  0  0
  8  9  1  0  0  0  0
  8 33  1  0  0  0  0
  9 10  2  0  0  0  0
  9 11  1  0  0  0  0
 11 12  1  0  0  0  0
 11 34  1  0  0  0  0
 11 35  1  0  0  0  0
 12 16  1  0  0  0  0
 12 13  1  0  0  0  0
 13 14  2  0  0  0  0
 13 36  1  0  0  0  0
 14 15  1  0  0  0  0
 14 37  1  0  0  0  0
 15 16  2  0  0  0  0
 15 38  1  0  0  0  0
 17 18  1  0  0  0  0
 17 39  1  0  0  0  0
 17 40  1  0  0  0  0
 18 19  1  0  0  0  0
 18 20  1  0  0  0  0
 18 41  1  0  0  0  0
 19 42  1  0  0  0  0
 19 43  1  0  0  0  0
 19 44  1  0  0  0  0
M  CHG  1   4   1
M  END
> <s_m_source_file>
AV-unprocessed.smi

> <i_m_source_file_index>
1433

> <i_lp_mmshare_version>
43012

> <i_f3d_flags>
0

> <s_epik_input>
W0NIM11bQ0BASF0xW0NIMl1OKFtDSDJdW0NASF0oTzEpW0NIM10pW0NASF0oW0NIM10pW0NIMl1bTkhdQyg9TylbQ0gyXW4yW2NIXVtjSF1bY0hdbjI=

> <s_epik_cmdline>
J2VwaWtfcHl0aG9uJywgJy1waCcsICc3LjAnLCAnLXRuJywgJzgnLCAnLW1hJywgJzIwMCcsICctbWV0YWxfYmluZGluZycsICctaW1hZScsICc8aW5maWxlLm1hZT4nLCAnLW9tYWUnLCAnPG91dGZpbGUubWFlPic=

> <r_lp_tautomer_probability>
1

> <r_epik_Ionization_Penalty>
0.748405

> <r_epik_Ionization_Penalty_Charging>
0.748396

> <r_epik_Ionization_Penalty_Neutral>
8.54426e-06

> <r_epik_State_Penalty>
0.775162

> <r_epik_Charging_Adjusted_Penalty>
1.52356

> <i_epik_Tot_Q>
1

> <i_epik_Tot_abs_Q>
1

> <r_epik_Metal_State_Penalty>
0.775167

> <b_epik_Metal_Only>
0

> <s_lp_Force_Field>
OPLS_2005

> <r_lp_Energy>
20.9037

> <b_lp_Chiralities_Consistent>
1

> <s_lp_Variant>
AV-unprocessed.smi:1433-9

> <Gold.Version>
5.8.1

> <Gold.Id.Protein>
6NUR|6NUR_protein|mol2

> <Gold.PLP.Fitness>
47.4319

> <Gold.PLP.PLP>
-35.1290

> <Gold.PLP.part.hbond>
-4.0000

> <Gold.PLP.part.metal>
0.0000

> <Gold.PLP.part.buried>
-2.4816

> <Gold.PLP.part.nonpolar>
-29.3595

> <Gold.PLP.part.repulsive>
0.3281

> <Gold.PLP.ligand.clash>
0.0000

> <Gold.PLP.ligand.torsion>
0.6766

> <Gold.PLP.Chemscore.Hbond>
4.5280

> <Gold.PLP.Chemscore.CHOScore>
0.0000

> <Gold.PLP.Chemscore.Metal>
0.0000

> <Gold.Chemscore.Hbonds>
donor molecule, donor type, donor heavy atom, donor atom, acceptor molecule, acceptor atom, score
      L1  H     4    45       P1  7948  2.00
      L1  H     8    33       P1  7948  0.56
      P1  H 10752 10763       L1    10  1.00

> <Gold.PLP.Chemscore.Internal.Correction>
0.0722

> <Gold.Rescore>
     Score         DG    S(hbond)    S(metal)    S(lipo)     H(rot)  DE(clash)    DE(int)     intcor
     16.91     -19.28       3.11        0.00      69.90       1.87       0.08       2.29       ----

> <Gold.Chemscore.Fitness>
16.9055

> <Gold.Chemscore.DG>
-19.2813

> <Gold.Chemscore.ZeroCoef>
-5.4800

> <Gold.Chemscore.Hbond>
3.1135

> <Gold.Chemscore.Metal>
0.0000

> <Gold.Chemscore.Lipo>
69.9011

> <Gold.Chemscore.Internal_Hbond>
0.0000

> <Gold.Chemscore.DEClash>
0.0830

> <Gold.Chemscore.DEInternal>
2.2928

> <Gold.Chemscore.Rot>
1.8657

> <Gold.Chemscore.Internal.Correction>
   9.000000E+99

> <Gold.Chemscore.Hbonds>
donor molecule, donor type, donor heavy atom, donor atom, acceptor molecule, acceptor atom, score
      L1  H     4    45       P1  7948  0.98
      L1  H     8    33       P1  7948  0.56
      P1  H 10752 10763       L1    10  0.78

> <Gold.Chemscore.Hbond.Weighted>
-10.3990

> <Gold.Chemscore.Metal.Weighted>
-0.0000

> <Gold.Chemscore.Lipo.Weighted>
-8.1784

> <Gold.Chemscore.Internal_Hbond.Weighted>
0.0000

> <Gold.Chemscore.DEClash.Weighted>
0.0830

> <Gold.Chemscore.DEInternal.Weighted>
2.2928

> <Gold.Chemscore.Rot.Weighted>
4.7761

> <Gold.Chemscore.Internal.Correction.Weighted>
   9.000000E+99

> <Gold.Protein.RotatedTorsions>
[ 6907 6896 6895 6894 ] final  -22.05 input  -60.11 | X-H torsion
[ 7974 7965 7964 7962 ] final  173.69 input  175.53 | X-H torsion
[ 8008 7997 7996 7995 ] final -123.09 input   59.86 | X-H torsion
[ 10167 10162 10161 10158 ] final  135.15 input  -65.29 | X-H torsion
[ 10718 10713 10712 10709 ] final -122.27 input   66.30 | X-H torsion
[ 10763 10752 10751 10750 ] final   63.51 input  -60.55 | X-H torsion
[ 11005 11000 10999 10996 ] final    9.07 input  -57.11 | X-H torsion

> <Gold.Protein.ActiveResidues>
 VAL166  LYS551  ARG553  GLY616  TRP617  ASP618  TYR619  PRO620  LYS621  CYS622 
 ASP623  PHE694  ASN695  SER759  ASP760  ASP761  ALA762  ILE779  LEU786  VAL792 
 PHE793  MET794  SER795  GLU796  ALA797  LYS798  CYS799  TRP800  GLU811  SER814 

> <Gold.Protein.RotatedAtoms>
  151.2244  135.0530  159.8962 H   0  0  0  0  0  0  0  0  0  0  0  0  # atno 6907 bound_to 6896
  152.5412  134.0606  159.8160 H   0  0  0  0  0  0  0  0  0  0  0  0  # atno 6908 bound_to 6896
  151.0776  133.5367  159.2654 H   0  0  0  0  0  0  0  0  0  0  0  0  # atno 6909 bound_to 6896
  144.7238  139.9685  143.6436 H   0  0  0  0  0  0  0  0  0  0  0  0  # atno 7974 bound_to 7965
  155.1749  140.0409  157.2870 H   0  0  0  0  0  0  0  0  0  0  0  0  # atno 8008 bound_to 7997
  154.6244  140.2508  155.7482 H   0  0  0  0  0  0  0  0  0  0  0  0  # atno 8009 bound_to 7997
  156.2451  140.2888  156.0567 H   0  0  0  0  0  0  0  0  0  0  0  0  # atno 8010 bound_to 7997
  139.5228  144.6532  151.5241 H   0  0  0  0  0  0  0  0  0  0  0  0  # atno 10167 bound_to 10162
  156.1405  130.6462  150.9763 H   0  0  0  0  0  0  0  0  0  0  0  0  # atno 10718 bound_to 10713
  153.0020  135.5426  154.6363 H   0  0  0  0  0  0  0  0  0  0  0  0  # atno 10763 bound_to 10752
  154.5628  135.2835  155.0904 H   0  0  0  0  0  0  0  0  0  0  0  0  # atno 10764 bound_to 10752
  154.2100  135.6469  153.5165 H   0  0  0  0  0  0  0  0  0  0  0  0  # atno 10765 bound_to 10752
  140.5299  134.0477  155.7870 H   0  0  0  0  0  0  0  0  0  0  0  0  # atno 11005 bound_to 11000
  146.0582  139.3577  143.0598 LP  0  0  0  0  0  0  0  0  0  0  0  0  # atno 17320 bound_to 7965
  145.8127  140.9718  143.0940 LP  0  0  0  0  0  0  0  0  0  0  0  0  # atno 17321 bound_to 7965
  140.6345  143.9010  150.6635 LP  0  0  0  0  0  0  0  0  0  0  0  0  # atno 17342 bound_to 10162
  140.2325  143.3725  152.1554 LP  0  0  0  0  0  0  0  0  0  0  0  0  # atno 17343 bound_to 10162
  157.6571  131.0887  150.7923 LP  0  0  0  0  0  0  0  0  0  0  0  0  # atno 17370 bound_to 10713
  156.7999  130.4917  149.5371 LP  0  0  0  0  0  0  0  0  0  0  0  0  # atno 17371 bound_to 10713
  141.1287  133.9339  157.2581 LP  0  0  0  0  0  0  0  0  0  0  0  0  # atno 17394 bound_to 11000
  139.9560  135.0165  156.9129 LP  0  0  0  0  0  0  0  0  0  0  0  0  # atno 17395 bound_to 11000

$$$$
