AV-unprocessed.smi:3290|AV-procd|sdf|12611|dock7
  -GOLD-   2272018543D 1   1.00000     0.00000
 Structure written by MMmdl.
 43 44  0  0  0  0  0  0  0  0  2 V2000
  152.2963  140.7443  158.8952 C   0  0  0  0  0  0  0  0  0  0  0  0
  151.9464  142.2202  158.6319 C   0  0  2  0  0  0  0  0  0  0  0  0
  152.8638  143.1246  159.4826 C   0  0  0  0  0  0  0  0  0  0  0  0
  152.6010  144.6151  159.2304 C   0  0  0  0  0  0  0  0  0  0  0  0
  151.1292  144.9578  159.4835 C   0  0  0  0  0  0  0  0  0  0  0  0
  150.2096  144.0740  158.6298 C   0  0  0  0  0  0  0  0  0  0  0  0
  150.4474  142.5671  158.8779 C   0  0  1  0  0  0  0  0  0  0  0  0
  149.4704  141.7483  158.0037 C   0  0  0  0  0  0  0  0  0  0  0  0
  149.5756  142.0931  156.5717 N   0  3  0  0  0  0  0  0  0  0  0  0
  148.6445  141.3452  155.7033 C   0  0  0  0  0  0  0  0  0  0  0  0
  149.3453  140.8247  154.4367 C   0  0  2  0  0  0  0  0  0  0  0  0
  148.3605  140.4295  153.5010 O   0  0  0  0  0  0  0  0  0  0  0  0
  150.2982  139.6869  154.7687 C   0  0  0  0  0  0  0  0  0  0  0  0
  150.1270  138.4158  154.1810 C   0  0  0  0  0  0  0  0  0  0  0  0
  151.0397  137.3930  154.5087 C   0  0  0  0  0  0  0  0  0  0  0  0
  152.0753  137.5674  155.3570 N   0  0  0  0  0  0  0  0  0  0  0  0
  152.2362  138.7858  155.9158 C   0  0  0  0  0  0  0  0  0  0  0  0
  151.3809  139.8750  155.6555 C   0  0  0  0  0  0  0  0  0  0  0  0
  152.0078  140.4395  159.9018 H   0  0  0  0  0  0  0  0  0  0  0  0
  153.3685  140.5735  158.7944 H   0  0  0  0  0  0  0  0  0  0  0  0
  151.8093  140.0788  158.1834 H   0  0  0  0  0  0  0  0  0  0  0  0
  152.1715  142.4224  157.5834 H   0  0  0  0  0  0  0  0  0  0  0  0
  152.7184  142.9056  160.5416 H   0  0  0  0  0  0  0  0  0  0  0  0
  153.9100  142.9056  159.2656 H   0  0  0  0  0  0  0  0  0  0  0  0
  153.2405  145.2206  159.8734 H   0  0  0  0  0  0  0  0  0  0  0  0
  152.8667  144.8668  158.2028 H   0  0  0  0  0  0  0  0  0  0  0  0
  150.8952  144.8207  160.5400 H   0  0  0  0  0  0  0  0  0  0  0  0
  150.9486  146.0096  159.2597 H   0  0  0  0  0  0  0  0  0  0  0  0
  149.1721  144.3305  158.8476 H   0  0  0  0  0  0  0  0  0  0  0  0
  150.3661  144.3025  157.5745 H   0  0  0  0  0  0  0  0  0  0  0  0
  150.2128  142.3749  159.9266 H   0  0  0  0  0  0  0  0  0  0  0  0
  149.6897  140.6832  158.0921 H   0  0  0  0  0  0  0  0  0  0  0  0
  148.4454  141.8861  158.3508 H   0  0  0  0  0  0  0  0  0  0  0  0
  149.3769  143.0781  156.4662 H   0  0  0  0  0  0  0  0  0  0  0  0
  148.2393  140.5065  156.2717 H   0  0  0  0  0  0  0  0  0  0  0  0
  147.8031  141.9860  155.4343 H   0  0  0  0  0  0  0  0  0  0  0  0
  149.9191  141.6342  153.9831 H   0  0  0  0  0  0  0  0  0  0  0  0
  148.7890  140.2266  152.6829 H   0  0  0  0  0  0  0  0  0  0  0  0
  149.3171  138.2224  153.4930 H   0  0  0  0  0  0  0  0  0  0  0  0
  150.9356  136.4090  154.0756 H   0  0  0  0  0  0  0  0  0  0  0  0
  153.0734  138.8976  156.5886 H   0  0  0  0  0  0  0  0  0  0  0  0
  151.5574  140.8308  156.1269 H   0  0  0  0  0  0  0  0  0  0  0  0
  150.5214  141.9203  156.2629 H   0  0  0  0  0  0  0  0  0  0  0  0
  1  2  1  0  0  0  0
  1 19  1  0  0  0  0
  1 20  1  0  0  0  0
  1 21  1  0  0  0  0
  2  7  1  0  0  0  0
  2  3  1  0  0  0  0
  2 22  1  0  0  0  0
  3  4  1  0  0  0  0
  3 23  1  0  0  0  0
  3 24  1  0  0  0  0
  4  5  1  0  0  0  0
  4 25  1  0  0  0  0
  4 26  1  0  0  0  0
  5  6  1  0  0  0  0
  5 27  1  0  0  0  0
  5 28  1  0  0  0  0
  6  7  1  0  0  0  0
  6 29  1  0  0  0  0
  6 30  1  0  0  0  0
  7  8  1  0  0  0  0
  7 31  1  0  0  0  0
  8  9  1  0  0  0  0
  8 32  1  0  0  0  0
  8 33  1  0  0  0  0
  9 10  1  0  0  0  0
  9 34  1  0  0  0  0
  9 43  1  0  0  0  0
 10 11  1  0  0  0  0
 10 35  1  0  0  0  0
 10 36  1  0  0  0  0
 11 12  1  0  0  0  0
 11 13  1  0  0  0  0
 11 37  1  0  0  0  0
 12 38  1  0  0  0  0
 13 18  1  0  0  0  0
 13 14  2  0  0  0  0
 14 15  1  0  0  0  0
 14 39  1  0  0  0  0
 15 16  2  0  0  0  0
 15 40  1  0  0  0  0
 16 17  1  0  0  0  0
 17 18  2  0  0  0  0
 17 41  1  0  0  0  0
 18 42  1  0  0  0  0
M  CHG  1   9   1
M  END
> <s_m_source_file>
AV-unprocessed.smi

> <i_m_source_file_index>
3290

> <i_lp_mmshare_version>
43012

> <i_f3d_flags>
0

> <s_epik_input>
W0NIM11bQ0BASF0xW0NIMl1bQ0gyXVtDSDJdW0NIMl1bQ0BIXTFbQ0gyXVtOSF1bQ0gyXVtDQEhdKFtPSF0pYzJbY0hdW2NIXW5bY0hdW2NIXTI=

> <s_epik_cmdline>
J2VwaWtfcHl0aG9uJywgJy1waCcsICc3LjAnLCAnLXRuJywgJzgnLCAnLW1hJywgJzIwMCcsICctbWV0YWxfYmluZGluZycsICctaW1hZScsICc8aW5maWxlLm1hZT4nLCAnLW9tYWUnLCAnPG91dGZpbGUubWFlPic=

> <r_lp_tautomer_probability>
1

> <r_epik_Ionization_Penalty>
0.00420552

> <r_epik_Ionization_Penalty_Charging>
0.00207255

> <r_epik_Ionization_Penalty_Neutral>
0.00213297

> <r_epik_State_Penalty>
-0

> <r_epik_Charging_Adjusted_Penalty>
0.00207255

> <i_epik_Tot_Q>
1

> <i_epik_Tot_abs_Q>
1

> <r_epik_Metal_State_Penalty>
-0

> <b_epik_Metal_Only>
0

> <s_lp_Force_Field>
OPLS_2005

> <r_lp_Energy>
17.3626

> <b_lp_Chiralities_Consistent>
1

> <s_lp_Variant>
AV-unprocessed.smi:3290-1

> <Gold.Version>
5.8.1

> <Gold.Id.Protein>
6NUR|6NUR_protein|mol2

> <Gold.PLP.Fitness>
52.1441

> <Gold.PLP.PLP>
-40.8388

> <Gold.PLP.part.hbond>
-2.8936

> <Gold.PLP.part.metal>
0.0000

> <Gold.PLP.part.buried>
-1.9383

> <Gold.PLP.part.nonpolar>
-36.4392

> <Gold.PLP.part.repulsive>
0.0773

> <Gold.PLP.ligand.clash>
0.0000

> <Gold.PLP.ligand.torsion>
0.4270

> <Gold.PLP.Chemscore.Hbond>
3.0784

> <Gold.PLP.Chemscore.CHOScore>
0.9525

> <Gold.PLP.Chemscore.Metal>
0.0000

> <Gold.Chemscore.Hbonds>
donor molecule, donor type, donor heavy atom, donor atom, acceptor molecule, acceptor atom, score
      L1  H     9    34       P1  8028  2.00
      L1  H    12    38       P1  7957  1.00
      P1  H 10752 10765       L1    16  0.20
      L1  C    15    40       P1  7949  0.61

> <Gold.PLP.Chemscore.Internal.Correction>
0.0667

> <Gold.Rescore>
     Score         DG    S(hbond)    S(metal)    S(lipo)     H(rot)  DE(clash)    DE(int)     intcor
     22.57     -23.46       2.66        0.00     122.44       2.05       0.22       0.67       ----

> <Gold.Chemscore.Fitness>
22.5676

> <Gold.Chemscore.DG>
-23.4568

> <Gold.Chemscore.ZeroCoef>
-5.4800

> <Gold.Chemscore.Hbond>
2.6644

> <Gold.Chemscore.Metal>
0.0000

> <Gold.Chemscore.Lipo>
122.4362

> <Gold.Chemscore.Internal_Hbond>
0.0000

> <Gold.Chemscore.DEClash>
0.2224

> <Gold.Chemscore.DEInternal>
0.6668

> <Gold.Chemscore.Rot>
2.0498

> <Gold.Chemscore.Internal.Correction>
   9.000000E+99

> <Gold.Chemscore.Hbonds>
donor molecule, donor type, donor heavy atom, donor atom, acceptor molecule, acceptor atom, score
      L1  H     9    34       P1  8028  1.00
      L1  H    12    38       P1  7957  1.00
      P1  H 10752 10765       L1    16  0.01

> <Gold.Chemscore.Hbond.Weighted>
-8.8992

> <Gold.Chemscore.Metal.Weighted>
-0.0000

> <Gold.Chemscore.Lipo.Weighted>
-14.3250

> <Gold.Chemscore.Internal_Hbond.Weighted>
0.0000

> <Gold.Chemscore.DEClash.Weighted>
0.2224

> <Gold.Chemscore.DEInternal.Weighted>
0.6668

> <Gold.Chemscore.Rot.Weighted>
5.2475

> <Gold.Chemscore.Internal.Correction.Weighted>
   9.000000E+99

> <Gold.Protein.RotatedTorsions>
[ 6907 6896 6895 6894 ] final  175.76 input  -60.11 | X-H torsion
[ 7974 7965 7964 7962 ] final  155.28 input  175.53 | X-H torsion
[ 8008 7997 7996 7995 ] final   86.85 input   59.86 | X-H torsion
[ 10167 10162 10161 10158 ] final   65.18 input  -65.29 | X-H torsion
[ 10718 10713 10712 10709 ] final -146.41 input   66.30 | X-H torsion
[ 10763 10752 10751 10750 ] final -170.73 input  -60.55 | X-H torsion
[ 11005 11000 10999 10996 ] final  112.70 input  -57.11 | X-H torsion

> <Gold.Protein.ActiveResidues>
 VAL166  LYS551  ARG553  GLY616  TRP617  ASP618  TYR619  PRO620  LYS621  CYS622 
 ASP623  PHE694  ASN695  SER759  ASP760  ASP761  ALA762  ILE779  LEU786  VAL792 
 PHE793  MET794  SER795  GLU796  ALA797  LYS798  CYS799  TRP800  GLU811  SER814 

> <Gold.Protein.RotatedAtoms>
  151.7311  133.3318  159.3340 H   0  0  0  0  0  0  0  0  0  0  0  0  # atno 6907 bound_to 6896
  150.7612  134.6362  159.6222 H   0  0  0  0  0  0  0  0  0  0  0  0  # atno 6908 bound_to 6896
  152.3591  134.6900  160.0264 H   0  0  0  0  0  0  0  0  0  0  0  0  # atno 6909 bound_to 6896
  144.8035  139.7047  143.6172 H   0  0  0  0  0  0  0  0  0  0  0  0  # atno 7974 bound_to 7965
  155.9680  140.3388  155.6550 H   0  0  0  0  0  0  0  0  0  0  0  0  # atno 8008 bound_to 7997
  155.6712  140.0727  157.2537 H   0  0  0  0  0  0  0  0  0  0  0  0  # atno 8009 bound_to 7997
  154.4159  140.1691  156.1868 H   0  0  0  0  0  0  0  0  0  0  0  0  # atno 8010 bound_to 7997
  140.1141  144.4791  150.6960 H   0  0  0  0  0  0  0  0  0  0  0  0  # atno 10167 bound_to 10162
  156.3946  130.7903  151.2108 H   0  0  0  0  0  0  0  0  0  0  0  0  # atno 10718 bound_to 10713
  154.6383  135.2895  155.0135 H   0  0  0  0  0  0  0  0  0  0  0  0  # atno 10763 bound_to 10752
  154.1270  135.6539  153.4918 H   0  0  0  0  0  0  0  0  0  0  0  0  # atno 10764 bound_to 10752
  153.0313  135.5301  154.7239 H   0  0  0  0  0  0  0  0  0  0  0  0  # atno 10765 bound_to 10752
  139.8934  134.9535  156.6626 H   0  0  0  0  0  0  0  0  0  0  0  0  # atno 11005 bound_to 11000
  146.2321  139.5834  142.9548 LP  0  0  0  0  0  0  0  0  0  0  0  0  # atno 17320 bound_to 7965
  145.5496  141.0414  143.2286 LP  0  0  0  0  0  0  0  0  0  0  0  0  # atno 17321 bound_to 7965
  140.6909  143.2375  151.5134 LP  0  0  0  0  0  0  0  0  0  0  0  0  # atno 17342 bound_to 10162
  139.5603  144.2173  152.1680 LP  0  0  0  0  0  0  0  0  0  0  0  0  # atno 17343 bound_to 10162
  157.7501  131.0305  150.4141 LP  0  0  0  0  0  0  0  0  0  0  0  0  # atno 17370 bound_to 10713
  156.4409  130.3991  149.6698 LP  0  0  0  0  0  0  0  0  0  0  0  0  # atno 17371 bound_to 10713
  140.7435  133.8958  155.8295 LP  0  0  0  0  0  0  0  0  0  0  0  0  # atno 17394 bound_to 11000
  141.0058  134.1087  157.4271 LP  0  0  0  0  0  0  0  0  0  0  0  0  # atno 17395 bound_to 11000

$$$$
