AV-unprocessed.smi:375|AV-procd|sdf|2454|dock6
  -GOLD-   2262022393D 1   1.00000     0.00000
 Structure written by MMmdl.
 36 38  0  0  0  0  0  0  0  0  1 V2000
  153.8122  141.0650  160.8388 C   0  0  0  0  0  0  0  0  0  0  0  0
  152.9923  141.6234  159.7705 N   0  0  0  0  0  0  0  0  0  0  0  0
  152.6445  141.0217  158.6086 C   0  0  0  0  0  0  0  0  0  0  0  0
  152.9685  139.8880  158.2549 O   0  0  0  0  0  0  0  0  0  0  0  0
  151.8788  141.8866  157.9023 N   0  0  0  0  0  0  0  0  0  0  0  0
  151.2986  141.6578  156.5804 C   0  0  0  0  0  0  0  0  0  0  0  0
  150.3525  140.4409  156.5715 C   0  0  1  0  0  0  0  0  0  0  0  0
  149.7820  140.3022  157.8585 O   0  0  0  0  0  0  0  0  0  0  0  0
  149.2829  140.5968  155.4978 C   0  0  0  0  0  0  0  0  0  0  0  0
  148.3872  141.6896  155.5339 C   0  0  0  0  0  0  0  0  0  0  0  0
  147.4057  141.8404  154.5354 C   0  0  0  0  0  0  0  0  0  0  0  0
  147.3151  140.9021  153.4901 C   0  0  0  0  0  0  0  0  0  0  0  0
  148.2090  139.8159  153.4425 C   0  0  0  0  0  0  0  0  0  0  0  0
  149.1918  139.6629  154.4401 C   0  0  0  0  0  0  0  0  0  0  0  0
  150.0490  138.6158  154.3712 F   0  0  0  0  0  0  0  0  0  0  0  0
  151.7398  143.0773  158.6299 C   0  0  0  0  0  0  0  0  0  0  0  0
  151.0598  144.2710  158.3321 C   0  0  0  0  0  0  0  0  0  0  0  0
  151.1169  145.3047  159.2964 C   0  0  0  0  0  0  0  0  0  0  0  0
  151.8339  145.1297  160.5088 C   0  0  0  0  0  0  0  0  0  0  0  0
  152.5112  143.9181  160.7819 C   0  0  0  0  0  0  0  0  0  0  0  0
  152.4389  142.9093  159.8063 C   0  0  0  0  0  0  0  0  0  0  0  0
  154.2008  140.0780  160.5852 H   0  0  0  0  0  0  0  0  0  0  0  0
  153.2258  140.9730  161.7533 H   0  0  0  0  0  0  0  0  0  0  0  0
  154.6622  141.7171  161.0416 H   0  0  0  0  0  0  0  0  0  0  0  0
  150.7962  142.5509  156.2042 H   0  0  0  0  0  0  0  0  0  0  0  0
  152.1287  141.4774  155.8962 H   0  0  0  0  0  0  0  0  0  0  0  0
  150.9193  139.5309  156.3716 H   0  0  0  0  0  0  0  0  0  0  0  0
  150.4617  140.0413  158.4611 H   0  0  0  0  0  0  0  0  0  0  0  0
  148.4516  142.4202  156.3269 H   0  0  0  0  0  0  0  0  0  0  0  0
  146.7237  142.6772  154.5706 H   0  0  0  0  0  0  0  0  0  0  0  0
  146.5631  141.0176  152.7235 H   0  0  0  0  0  0  0  0  0  0  0  0
  148.1428  139.0990  152.6374 H   0  0  0  0  0  0  0  0  0  0  0  0
  150.5166  144.3985  157.4076 H   0  0  0  0  0  0  0  0  0  0  0  0
  150.6085  146.2387  159.1071 H   0  0  0  0  0  0  0  0  0  0  0  0
  151.8643  145.9319  161.2315 H   0  0  0  0  0  0  0  0  0  0  0  0
  153.0606  143.7771  161.7009 H   0  0  0  0  0  0  0  0  0  0  0  0
  1  2  1  0  0  0  0
  1 22  1  0  0  0  0
  1 23  1  0  0  0  0
  1 24  1  0  0  0  0
  2 21  1  0  0  0  0
  2  3  1  0  0  0  0
  3  4  2  0  0  0  0
  3  5  1  0  0  0  0
  5  6  1  0  0  0  0
  5 16  1  0  0  0  0
  6  7  1  0  0  0  0
  6 25  1  0  0  0  0
  6 26  1  0  0  0  0
  7  8  1  0  0  0  0
  7  9  1  0  0  0  0
  7 27  1  0  0  0  0
  8 28  1  0  0  0  0
  9 14  1  0  0  0  0
  9 10  2  0  0  0  0
 10 11  1  0  0  0  0
 10 29  1  0  0  0  0
 11 12  2  0  0  0  0
 11 30  1  0  0  0  0
 12 13  1  0  0  0  0
 12 31  1  0  0  0  0
 13 14  2  0  0  0  0
 13 32  1  0  0  0  0
 14 15  1  0  0  0  0
 16 21  2  0  0  0  0
 16 17  1  0  0  0  0
 17 18  2  0  0  0  0
 17 33  1  0  0  0  0
 18 19  1  0  0  0  0
 18 34  1  0  0  0  0
 19 20  2  0  0  0  0
 19 35  1  0  0  0  0
 20 21  1  0  0  0  0
 20 36  1  0  0  0  0
M  END
> <s_m_source_file>
AV-unprocessed.smi

> <i_m_source_file_index>
375

> <i_lp_mmshare_version>
43012

> <i_f3d_flags>
0

> <s_epik_input>
W2NIXTFbY0hdW2NIXVtjSF1jKGMxMiluKFtDSDNdKWMoPU8pbjJbQ0gyXVtDQEhdKFtPSF0pYzNbY0hdW2NIXVtjSF1bY0hdYzNG

> <s_epik_cmdline>
J2VwaWtfcHl0aG9uJywgJy1waCcsICc3LjAnLCAnLXRuJywgJzgnLCAnLW1hJywgJzIwMCcsICctbWV0YWxfYmluZGluZycsICctaW1hZScsICc8aW5maWxlLm1hZT4nLCAnLW9tYWUnLCAnPG91dGZpbGUubWFlPic=

> <r_lp_tautomer_probability>
1

> <r_epik_Ionization_Penalty>
1.34619e-06

> <r_epik_Ionization_Penalty_Charging>
2.57375e-09

> <r_epik_Ionization_Penalty_Neutral>
1.34362e-06

> <r_epik_State_Penalty>
-0

> <r_epik_Charging_Adjusted_Penalty>
2.57375e-09

> <i_epik_Tot_Q>
0

> <i_epik_Tot_abs_Q>
0

> <r_epik_Metal_State_Penalty>
-0

> <b_epik_Metal_Only>
0

> <s_lp_Force_Field>
OPLS_2005

> <r_lp_Energy>
44.2188

> <b_lp_Chiralities_Consistent>
1

> <s_lp_Variant>
AV-unprocessed.smi:375-2

> <Gold.Version>
5.8.1

> <Gold.Id.Protein>
6NUR|6NUR_protein|mol2

> <Gold.PLP.Fitness>
49.7538

> <Gold.PLP.PLP>
-47.4744

> <Gold.PLP.part.hbond>
-1.0000

> <Gold.PLP.part.metal>
0.0000

> <Gold.PLP.part.buried>
-1.9027

> <Gold.PLP.part.nonpolar>
-44.7358

> <Gold.PLP.part.repulsive>
0.0000

> <Gold.PLP.ligand.clash>
0.0000

> <Gold.PLP.ligand.torsion>
0.3643

> <Gold.PLP.Chemscore.Hbond>
1.0000

> <Gold.PLP.Chemscore.CHOScore>
0.0000

> <Gold.PLP.Chemscore.Metal>
0.0000

> <Gold.Chemscore.Hbonds>
donor molecule, donor type, donor heavy atom, donor atom, acceptor molecule, acceptor atom, score
      P1  H  7997  8008       L1     4  0.98

> <Gold.PLP.Chemscore.Internal.Correction>
0.0080

> <Gold.Rescore>
     Score         DG    S(hbond)    S(metal)    S(lipo)     H(rot)  DE(clash)    DE(int)     intcor
     17.00     -19.08       0.87        0.00     131.79       1.85       1.74       0.34       ----

> <Gold.Chemscore.Fitness>
17.0022

> <Gold.Chemscore.DG>
-19.0828

> <Gold.Chemscore.ZeroCoef>
-5.4800

> <Gold.Chemscore.Hbond>
0.8714

> <Gold.Chemscore.Metal>
0.0000

> <Gold.Chemscore.Lipo>
131.7892

> <Gold.Chemscore.Internal_Hbond>
0.0000

> <Gold.Chemscore.DEClash>
1.7392

> <Gold.Chemscore.DEInternal>
0.3413

> <Gold.Chemscore.Rot>
1.8465

> <Gold.Chemscore.Internal.Correction>
   9.000000E+99

> <Gold.Chemscore.Hbonds>
donor molecule, donor type, donor heavy atom, donor atom, acceptor molecule, acceptor atom, score
      P1  H  7997  8008       L1     4  0.60

> <Gold.Chemscore.Hbond.Weighted>
-2.9105

> <Gold.Chemscore.Metal.Weighted>
-0.0000

> <Gold.Chemscore.Lipo.Weighted>
-15.4193

> <Gold.Chemscore.Internal_Hbond.Weighted>
0.0000

> <Gold.Chemscore.DEClash.Weighted>
1.7392

> <Gold.Chemscore.DEInternal.Weighted>
0.3413

> <Gold.Chemscore.Rot.Weighted>
4.7270

> <Gold.Chemscore.Internal.Correction.Weighted>
   9.000000E+99

> <Gold.Protein.RotatedTorsions>
[ 6907 6896 6895 6894 ] final  -68.76 input  -60.11 | X-H torsion
[ 7974 7965 7964 7962 ] final   65.71 input  175.53 | X-H torsion
[ 8008 7997 7996 7995 ] final  -78.58 input   59.86 | X-H torsion
[ 10167 10162 10161 10158 ] final  108.07 input  -65.29 | X-H torsion
[ 10718 10713 10712 10709 ] final   73.49 input   66.30 | X-H torsion
[ 10763 10752 10751 10750 ] final  -55.87 input  -60.55 | X-H torsion
[ 11005 11000 10999 10996 ] final  159.13 input  -57.11 | X-H torsion

> <Gold.Protein.ActiveResidues>
 VAL166  LYS551  ARG553  GLY616  TRP617  ASP618  TYR619  PRO620  LYS621  CYS622 
 ASP623  PHE694  ASN695  SER759  ASP760  ASP761  ALA762  ILE779  LEU786  VAL792 
 PHE793  MET794  SER795  GLU796  ALA797  LYS798  CYS799  TRP800  GLU811  SER814 

> <Gold.Protein.RotatedAtoms>
  150.7339  134.5693  159.5881 H   0  0  0  0  0  0  0  0  0  0  0  0  # atno 6907 bound_to 6896
  152.3136  134.7464  160.0339 H   0  0  0  0  0  0  0  0  0  0  0  0  # atno 6908 bound_to 6896
  151.8004  133.3333  159.3562 H   0  0  0  0  0  0  0  0  0  0  0  0  # atno 6909 bound_to 6896
  145.8352  139.3163  143.0964 H   0  0  0  0  0  0  0  0  0  0  0  0  # atno 7974 bound_to 7965
  154.5703  140.0692  156.8954 H   0  0  0  0  0  0  0  0  0  0  0  0  # atno 8008 bound_to 7997
  155.2647  140.3361  155.4252 H   0  0  0  0  0  0  0  0  0  0  0  0  # atno 8009 bound_to 7997
  156.2113  140.1760  156.7674 H   0  0  0  0  0  0  0  0  0  0  0  0  # atno 8010 bound_to 7997
  139.6876  144.7112  151.1405 H   0  0  0  0  0  0  0  0  0  0  0  0  # atno 10167 bound_to 10162
  157.6550  130.9631  150.1077 H   0  0  0  0  0  0  0  0  0  0  0  0  # atno 10718 bound_to 10713
  154.1976  135.6416  153.5078 H   0  0  0  0  0  0  0  0  0  0  0  0  # atno 10763 bound_to 10752
  153.0019  135.5443  154.6349 H   0  0  0  0  0  0  0  0  0  0  0  0  # atno 10764 bound_to 10752
  154.5754  135.2920  155.0759 H   0  0  0  0  0  0  0  0  0  0  0  0  # atno 10765 bound_to 10752
  140.1932  134.8392  157.2935 H   0  0  0  0  0  0  0  0  0  0  0  0  # atno 11005 bound_to 11000
  145.9526  140.8897  143.0251 LP  0  0  0  0  0  0  0  0  0  0  0  0  # atno 17320 bound_to 7965
  144.6737  140.1701  143.7415 LP  0  0  0  0  0  0  0  0  0  0  0  0  # atno 17321 bound_to 7965
  140.7672  143.5607  150.9102 LP  0  0  0  0  0  0  0  0  0  0  0  0  # atno 17342 bound_to 10162
  139.9283  143.6524  152.3082 LP  0  0  0  0  0  0  0  0  0  0  0  0  # atno 17343 bound_to 10162
  156.1982  130.3658  149.8822 LP  0  0  0  0  0  0  0  0  0  0  0  0  # atno 17370 bound_to 10713
  156.6732  130.8829  151.3565 LP  0  0  0  0  0  0  0  0  0  0  0  0  # atno 17371 bound_to 10713
  140.2136  134.4108  155.7600 LP  0  0  0  0  0  0  0  0  0  0  0  0  # atno 17394 bound_to 11000
  141.2226  133.7130  156.8378 LP  0  0  0  0  0  0  0  0  0  0  0  0  # atno 17395 bound_to 11000

$$$$
