AV-unprocessed.smi:1225|AV-procd|sdf|5139|dock7
  -GOLD-   22720 4203D 1   1.00000     0.00000
 Structure written by MMmdl.
 49 51  0  0  0  0  0  0  0  0  2 V2000
  147.1669  135.0074  161.8582 C   0  0  0  0  0  0  0  0  0  0  0  0
  147.7573  135.6921  160.6735 C   0  0  0  0  0  0  0  0  0  0  0  0
  148.7292  136.6035  160.7547 N   0  0  0  0  0  0  0  0  0  0  0  0
  149.1058  137.0940  159.5023 C   0  0  0  0  0  0  0  0  0  0  0  0
  148.4091  136.5407  158.4565 C   0  0  0  0  0  0  0  0  0  0  0  0
  148.5628  136.8436  156.9996 C   0  0  0  0  0  0  0  0  0  0  0  0
  148.7263  138.2680  156.7042 N   0  0  0  0  0  0  0  0  0  0  0  0
  147.5155  139.0150  157.0434 C   0  0  0  0  0  0  0  0  0  0  0  0
  149.1062  138.4572  155.3001 C   0  0  0  0  0  0  0  0  0  0  0  0
  150.6157  138.5839  154.9938 C   0  0  1  0  0  0  0  0  0  0  0  0
  150.8261  139.2377  153.7576 O   0  0  0  0  0  0  0  0  0  0  0  0
  151.4417  139.2346  156.1243 C   0  0  0  0  0  0  0  0  0  0  0  0
  151.0239  140.6130  156.4117 N   0  0  0  0  0  0  0  0  0  0  0  0
  150.1747  141.4299  155.7312 C   0  0  0  0  0  0  0  0  0  0  0  0
  150.1204  142.6142  156.4017 N   0  3  0  0  0  0  0  0  0  0  0  0
  150.9438  142.5503  157.5282 C   0  0  0  0  0  0  0  0  0  0  0  0
  151.2193  143.4938  158.5108 C   0  0  0  0  0  0  0  0  0  0  0  0
  152.1127  143.1135  159.5379 C   0  0  0  0  0  0  0  0  0  0  0  0
  152.4392  144.1230  160.6252 C   0  0  0  0  0  0  0  0  0  0  0  0
  152.6966  141.8199  159.5562 C   0  0  0  0  0  0  0  0  0  0  0  0
  153.6548  141.4214  160.6659 C   0  0  0  0  0  0  0  0  0  0  0  0
  152.4034  140.8745  158.5475 C   0  0  0  0  0  0  0  0  0  0  0  0
  151.5234  141.2670  157.5423 C   0  0  0  0  0  0  0  0  0  0  0  0
  147.2357  135.3790  159.0229 S   0  0  0  0  0  0  0  0  0  0  0  0
  147.7381  135.2357  162.7586 H   0  0  0  0  0  0  0  0  0  0  0  0
  147.1724  133.9279  161.7060 H   0  0  0  0  0  0  0  0  0  0  0  0
  146.1380  135.3364  162.0035 H   0  0  0  0  0  0  0  0  0  0  0  0
  149.8860  137.8388  159.4457 H   0  0  0  0  0  0  0  0  0  0  0  0
  149.4330  136.2952  156.6368 H   0  0  0  0  0  0  0  0  0  0  0  0
  147.7087  136.4473  156.4485 H   0  0  0  0  0  0  0  0  0  0  0  0
  147.6595  140.0858  156.9083 H   0  0  0  0  0  0  0  0  0  0  0  0
  147.2396  138.8693  158.0879 H   0  0  0  0  0  0  0  0  0  0  0  0
  146.6734  138.7023  156.4248 H   0  0  0  0  0  0  0  0  0  0  0  0
  148.7601  137.5870  154.7407 H   0  0  0  0  0  0  0  0  0  0  0  0
  148.5665  139.3049  154.8749 H   0  0  0  0  0  0  0  0  0  0  0  0
  150.9882  137.5706  154.8417 H   0  0  0  0  0  0  0  0  0  0  0  0
  150.0891  139.0573  153.1950 H   0  0  0  0  0  0  0  0  0  0  0  0
  151.3399  138.6691  157.0512 H   0  0  0  0  0  0  0  0  0  0  0  0
  152.5045  139.2385  155.8791 H   0  0  0  0  0  0  0  0  0  0  0  0
  149.6440  141.1845  154.8222 H   0  0  0  0  0  0  0  0  0  0  0  0
  150.7710  144.4764  158.4904 H   0  0  0  0  0  0  0  0  0  0  0  0
  153.5044  144.3561  160.6225 H   0  0  0  0  0  0  0  0  0  0  0  0
  152.1722  143.7308  161.6070 H   0  0  0  0  0  0  0  0  0  0  0  0
  151.8934  145.0561  160.4804 H   0  0  0  0  0  0  0  0  0  0  0  0
  154.0269  140.4059  160.5265 H   0  0  0  0  0  0  0  0  0  0  0  0
  153.1569  141.4631  161.6350 H   0  0  0  0  0  0  0  0  0  0  0  0
  154.5152  142.0904  160.6884 H   0  0  0  0  0  0  0  0  0  0  0  0
  152.8478  139.8903  158.5600 H   0  0  0  0  0  0  0  0  0  0  0  0
  149.5609  143.4054  156.1100 H   0  0  0  0  0  0  0  0  0  0  0  0
  1  2  1  0  0  0  0
  1 25  1  0  0  0  0
  1 26  1  0  0  0  0
  1 27  1  0  0  0  0
  2 24  1  0  0  0  0
  2  3  2  0  0  0  0
  3  4  1  0  0  0  0
  4  5  2  0  0  0  0
  4 28  1  0  0  0  0
  5  6  1  0  0  0  0
  5 24  1  0  0  0  0
  6  7  1  0  0  0  0
  6 29  1  0  0  0  0
  6 30  1  0  0  0  0
  7  8  1  0  0  0  0
  7  9  1  0  0  0  0
  8 31  1  0  0  0  0
  8 32  1  0  0  0  0
  8 33  1  0  0  0  0
  9 10  1  0  0  0  0
  9 34  1  0  0  0  0
  9 35  1  0  0  0  0
 10 11  1  0  0  0  0
 10 12  1  0  0  0  0
 10 36  1  0  0  0  0
 11 37  1  0  0  0  0
 12 13  1  0  0  0  0
 12 38  1  0  0  0  0
 12 39  1  0  0  0  0
 13 23  1  0  0  0  0
 13 14  1  0  0  0  0
 14 15  2  0  0  0  0
 14 40  1  0  0  0  0
 15 16  1  0  0  0  0
 15 49  1  0  0  0  0
 16 23  2  0  0  0  0
 16 17  1  0  0  0  0
 17 18  2  0  0  0  0
 17 41  1  0  0  0  0
 18 19  1  0  0  0  0
 18 20  1  0  0  0  0
 19 42  1  0  0  0  0
 19 43  1  0  0  0  0
 19 44  1  0  0  0  0
 20 21  1  0  0  0  0
 20 22  2  0  0  0  0
 21 45  1  0  0  0  0
 21 46  1  0  0  0  0
 21 47  1  0  0  0  0
 22 23  1  0  0  0  0
 22 48  1  0  0  0  0
M  CHG  1  15   1
M  END
> <s_m_source_file>
AV-unprocessed.smi

> <i_m_source_file_index>
1225

> <i_lp_mmshare_version>
43012

> <i_f3d_flags>
0

> <s_epik_input>
W0NIM11jMW5bY0hdYyhzMSlbQ0gyXU4oW0NIM10pW0NIMl1bQ0BIXShbT0hdKVtDSDJdbihbY0hdbjIpYyhjMjMpW2NIXWMoW0NIM10pYyhbY0hdMylbQ0gzXQ==

> <s_epik_cmdline>
J2VwaWtfcHl0aG9uJywgJy1waCcsICc3LjAnLCAnLXRuJywgJzgnLCAnLW1hJywgJzIwMCcsICctbWV0YWxfYmluZGluZycsICctaW1hZScsICc8aW5maWxlLm1hZT4nLCAnLW9tYWUnLCAnPG91dGZpbGUubWFlPic=

> <r_epik_Ionization_Penalty>
1.25968

> <r_epik_Ionization_Penalty_Charging>
1.21782

> <r_epik_Ionization_Penalty_Neutral>
0.0418565

> <r_epik_State_Penalty>
1.29962

> <r_epik_Charging_Adjusted_Penalty>
2.51745

> <i_epik_Tot_Q>
1

> <i_epik_Tot_abs_Q>
1

> <r_epik_Metal_State_Penalty>
1.36802

> <b_epik_Metal_Only>
0

> <s_lp_Force_Field>
OPLS_2005

> <r_lp_Energy>
27.2567

> <b_lp_Chiralities_Consistent>
1

> <s_lp_Variant>
AV-unprocessed.smi:1225-4

> <Gold.Version>
5.8.1

> <Gold.Id.Protein>
6NUR|6NUR_protein|mol2

> <Gold.PLP.Fitness>
52.8403

> <Gold.PLP.PLP>
-42.4925

> <Gold.PLP.part.hbond>
-4.0000

> <Gold.PLP.part.metal>
0.0000

> <Gold.PLP.part.buried>
-3.0604

> <Gold.PLP.part.nonpolar>
-35.7338

> <Gold.PLP.part.repulsive>
0.0892

> <Gold.PLP.ligand.clash>
0.0000

> <Gold.PLP.ligand.torsion>
1.1717

> <Gold.PLP.Chemscore.Hbond>
4.1625

> <Gold.PLP.Chemscore.CHOScore>
0.0000

> <Gold.PLP.Chemscore.Metal>
0.0000

> <Gold.Chemscore.Hbonds>
donor molecule, donor type, donor heavy atom, donor atom, acceptor molecule, acceptor atom, score
      L1  H    11    37       P1  7957  0.18
      L1  H    15    49       P1  8028  2.00
      P1  H  6931  6943       L1     3  0.99
      P1  H  7989  7998       L1    11  0.99

> <Gold.PLP.Chemscore.Internal.Correction>
0.2037

> <Gold.Rescore>
     Score         DG    S(hbond)    S(metal)    S(lipo)     H(rot)  DE(clash)    DE(int)     intcor
     19.68     -22.56       2.75        0.00     119.27       2.36       1.16       1.73       ----

> <Gold.Chemscore.Fitness>
19.6784

> <Gold.Chemscore.DG>
-22.5627

> <Gold.Chemscore.ZeroCoef>
-5.4800

> <Gold.Chemscore.Hbond>
2.7493

> <Gold.Chemscore.Metal>
0.0000

> <Gold.Chemscore.Lipo>
119.2660

> <Gold.Chemscore.Internal_Hbond>
0.0000

> <Gold.Chemscore.DEClash>
1.1586

> <Gold.Chemscore.DEInternal>
1.7257

> <Gold.Chemscore.Rot>
2.3649

> <Gold.Chemscore.Internal.Correction>
   9.000000E+99

> <Gold.Chemscore.Hbonds>
donor molecule, donor type, donor heavy atom, donor atom, acceptor molecule, acceptor atom, score
      L1  H    11    37       P1  7957  0.16
      L1  H    15    49       P1  8028  0.94
      P1  H  6931  6943       L1     3  0.23
      P1  H  7989  7998       L1    11  0.86

> <Gold.Chemscore.Hbond.Weighted>
-9.1826

> <Gold.Chemscore.Metal.Weighted>
-0.0000

> <Gold.Chemscore.Lipo.Weighted>
-13.9541

> <Gold.Chemscore.Internal_Hbond.Weighted>
0.0000

> <Gold.Chemscore.DEClash.Weighted>
1.1586

> <Gold.Chemscore.DEInternal.Weighted>
1.7257

> <Gold.Chemscore.Rot.Weighted>
6.0540

> <Gold.Chemscore.Internal.Correction.Weighted>
   9.000000E+99

> <Gold.Protein.RotatedTorsions>
[ 6907 6896 6895 6894 ] final   75.31 input  -60.11 | X-H torsion
[ 7974 7965 7964 7962 ] final -112.20 input  175.53 | X-H torsion
[ 8008 7997 7996 7995 ] final  -14.71 input   59.86 | X-H torsion
[ 10167 10162 10161 10158 ] final   75.74 input  -65.29 | X-H torsion
[ 10718 10713 10712 10709 ] final -131.56 input   66.30 | X-H torsion
[ 10763 10752 10751 10750 ] final   50.88 input  -60.55 | X-H torsion
[ 11005 11000 10999 10996 ] final  -24.06 input  -57.11 | X-H torsion

> <Gold.Protein.ActiveResidues>
 VAL166  LYS551  ARG553  GLY616  TRP617  ASP618  TYR619  PRO620  LYS621  CYS622 
 ASP623  PHE694  ASN695  SER759  ASP760  ASP761  ALA762  ILE779  LEU786  VAL792 
 PHE793  MET794  SER795  GLU796  ALA797  LYS798  CYS799  TRP800  GLU811  SER814 

> <Gold.Protein.RotatedAtoms>
  152.5019  134.4139  159.9457 H   0  0  0  0  0  0  0  0  0  0  0  0  # atno 6907 bound_to 6896
  151.4109  133.3721  159.2751 H   0  0  0  0  0  0  0  0  0  0  0  0  # atno 6908 bound_to 6896
  150.9292  134.8730  159.7600 H   0  0  0  0  0  0  0  0  0  0  0  0  # atno 6909 bound_to 6896
  145.1469  140.8808  143.3669 H   0  0  0  0  0  0  0  0  0  0  0  0  # atno 7974 bound_to 7965
  154.5188  140.2215  155.9015 H   0  0  0  0  0  0  0  0  0  0  0  0  # atno 8008 bound_to 7997
  156.1638  140.3136  155.8818 H   0  0  0  0  0  0  0  0  0  0  0  0  # atno 8009 bound_to 7997
  155.3698  140.0466  157.3036 H   0  0  0  0  0  0  0  0  0  0  0  0  # atno 8010 bound_to 7997
  139.9997  144.5695  150.7747 H   0  0  0  0  0  0  0  0  0  0  0  0  # atno 10167 bound_to 10162
  156.2257  130.7006  151.0804 H   0  0  0  0  0  0  0  0  0  0  0  0  # atno 10718 bound_to 10713
  152.9784  135.5864  154.4324 H   0  0  0  0  0  0  0  0  0  0  0  0  # atno 10763 bound_to 10752
  154.3935  135.2768  155.2142 H   0  0  0  0  0  0  0  0  0  0  0  0  # atno 10764 bound_to 10752
  154.4004  135.6105  153.5948 H   0  0  0  0  0  0  0  0  0  0  0  0  # atno 10765 bound_to 10752
  140.8810  133.7654  156.0302 H   0  0  0  0  0  0  0  0  0  0  0  0  # atno 11005 bound_to 11000
  145.0473  139.3211  143.5946 LP  0  0  0  0  0  0  0  0  0  0  0  0  # atno 17320 bound_to 7965
  146.3499  139.9868  142.8690 LP  0  0  0  0  0  0  0  0  0  0  0  0  # atno 17321 bound_to 7965
  140.7423  143.2831  151.3542 LP  0  0  0  0  0  0  0  0  0  0  0  0  # atno 17342 bound_to 10162
  139.6280  144.0775  152.2452 LP  0  0  0  0  0  0  0  0  0  0  0  0  # atno 17343 bound_to 10162
  157.7109  131.0734  150.6503 LP  0  0  0  0  0  0  0  0  0  0  0  0  # atno 17370 bound_to 10713
  156.6568  130.4501  149.5701 LP  0  0  0  0  0  0  0  0  0  0  0  0  # atno 17371 bound_to 10713
  140.8461  134.3009  157.5294 LP  0  0  0  0  0  0  0  0  0  0  0  0  # atno 17394 bound_to 11000
  139.8719  134.9443  156.3876 LP  0  0  0  0  0  0  0  0  0  0  0  0  # atno 17395 bound_to 11000

$$$$
