AV-unprocessed.smi:1774|AV-procd|sdf|7167|dock1
  -GOLD-   22720 8403D 1   1.00000     0.00000
 Structure written by MMmdl.
 46 47  0  0  0  0  0  0  0  0  2 V2000
  147.3921  132.9598  152.6508 C   0  0  0  0  0  0  0  0  0  0  0  0
  146.1317  133.0684  151.8080 C   0  0  0  0  0  0  0  0  0  0  0  0
  145.4399  131.8929  151.4462 C   0  0  0  0  0  0  0  0  0  0  0  0
  144.2732  131.9953  150.6696 C   0  0  0  0  0  0  0  0  0  0  0  0
  143.8443  133.2774  150.2862 C   0  0  0  0  0  0  0  0  0  0  0  0
  144.4991  134.4059  150.6273 N   0  0  0  0  0  0  0  0  0  0  0  0
  145.6269  134.3246  151.3771 C   0  0  0  0  0  0  0  0  0  0  0  0
  146.3711  135.4732  151.7696 N   0  0  0  0  0  0  0  0  0  0  0  0
  145.9225  136.6040  152.3429 C   0  0  0  0  0  0  0  0  0  0  0  0
  144.7536  136.8327  152.6554 O   0  0  0  0  0  0  0  0  0  0  0  0
  146.9212  137.4753  152.5476 N   0  0  0  0  0  0  0  0  0  0  0  0
  146.7723  138.7799  153.1825 C   0  0  0  0  0  0  0  0  0  0  0  0
  147.7873  138.9798  154.3255 C   0  0  0  0  0  0  0  0  0  0  0  0
  148.9063  138.0067  154.2673 N   0  3  1  0  0  0  0  0  0  0  0  0
  150.2210  138.6439  154.5164 C   0  0  0  0  0  0  0  0  0  0  0  0
  151.3570  137.6124  154.3807 C   0  0  1  0  0  0  0  0  0  0  0  0
  152.7283  138.2139  154.7061 C   0  0  0  0  0  0  0  0  0  0  0  0
  151.1188  136.5380  155.2833 O   0  0  0  0  0  0  0  0  0  0  0  0
  149.9012  135.8536  155.0098 C   0  0  1  0  0  0  0  0  0  0  0  0
  149.7924  134.6665  155.9732 C   0  0  0  0  0  0  0  0  0  0  0  0
  148.7249  136.8366  155.1619 C   0  0  0  0  0  0  0  0  0  0  0  0
  147.6278  131.9203  152.8811 H   0  0  0  0  0  0  0  0  0  0  0  0
  147.2658  133.4916  153.5943 H   0  0  0  0  0  0  0  0  0  0  0  0
  148.2443  133.3873  152.1218 H   0  0  0  0  0  0  0  0  0  0  0  0
  145.7963  130.9222  151.7584 H   0  0  0  0  0  0  0  0  0  0  0  0
  143.7218  131.1145  150.3758 H   0  0  0  0  0  0  0  0  0  0  0  0
  142.9527  133.4012  149.6897 H   0  0  0  0  0  0  0  0  0  0  0  0
  147.3639  135.4222  151.5955 H   0  0  0  0  0  0  0  0  0  0  0  0
  147.8525  137.2088  152.2626 H   0  0  0  0  0  0  0  0  0  0  0  0
  146.8694  139.5541  152.4212 H   0  0  0  0  0  0  0  0  0  0  0  0
  145.7563  138.8521  153.5715 H   0  0  0  0  0  0  0  0  0  0  0  0
  148.1904  139.9907  154.2469 H   0  0  0  0  0  0  0  0  0  0  0  0
  147.3028  138.9163  155.3010 H   0  0  0  0  0  0  0  0  0  0  0  0
  150.3770  139.4560  153.8050 H   0  0  0  0  0  0  0  0  0  0  0  0
  150.2277  139.0863  155.5143 H   0  0  0  0  0  0  0  0  0  0  0  0
  151.3816  137.2257  153.3604 H   0  0  0  0  0  0  0  0  0  0  0  0
  152.9625  139.0437  154.0388 H   0  0  0  0  0  0  0  0  0  0  0  0
  153.5157  137.4677  154.5968 H   0  0  0  0  0  0  0  0  0  0  0  0
  152.7637  138.5868  155.7299 H   0  0  0  0  0  0  0  0  0  0  0  0
  149.9285  135.4683  153.9887 H   0  0  0  0  0  0  0  0  0  0  0  0
  148.8767  134.1011  155.7983 H   0  0  0  0  0  0  0  0  0  0  0  0
  149.7879  134.9989  157.0116 H   0  0  0  0  0  0  0  0  0  0  0  0
  150.6327  133.9835  155.8460 H   0  0  0  0  0  0  0  0  0  0  0  0
  148.6495  137.1768  156.1963 H   0  0  0  0  0  0  0  0  0  0  0  0
  147.7953  136.3193  154.9282 H   0  0  0  0  0  0  0  0  0  0  0  0
  148.9358  137.6560  153.3207 H   0  0  0  0  0  0  0  0  0  0  0  0
  1  2  1  0  0  0  0
  1 22  1  0  0  0  0
  1 23  1  0  0  0  0
  1 24  1  0  0  0  0
  2  7  1  0  0  0  0
  2  3  2  0  0  0  0
  3  4  1  0  0  0  0
  3 25  1  0  0  0  0
  4  5  2  0  0  0  0
  4 26  1  0  0  0  0
  5  6  1  0  0  0  0
  5 27  1  0  0  0  0
  6  7  2  0  0  0  0
  7  8  1  0  0  0  0
  8  9  1  0  0  0  0
  8 28  1  0  0  0  0
  9 10  2  0  0  0  0
  9 11  1  0  0  0  0
 11 12  1  0  0  0  0
 11 29  1  0  0  0  0
 12 13  1  0  0  0  0
 12 30  1  0  0  0  0
 12 31  1  0  0  0  0
 13 14  1  0  0  0  0
 13 32  1  0  0  0  0
 13 33  1  0  0  0  0
 14 21  1  0  0  0  0
 14 15  1  0  0  0  0
 14 46  1  0  0  0  0
 15 16  1  0  0  0  0
 15 34  1  0  0  0  0
 15 35  1  0  0  0  0
 16 17  1  0  0  0  0
 16 18  1  0  0  0  0
 16 36  1  0  0  0  0
 17 37  1  0  0  0  0
 17 38  1  0  0  0  0
 17 39  1  0  0  0  0
 18 19  1  0  0  0  0
 19 20  1  0  0  0  0
 19 21  1  0  0  0  0
 19 40  1  0  0  0  0
 20 41  1  0  0  0  0
 20 42  1  0  0  0  0
 20 43  1  0  0  0  0
 21 44  1  0  0  0  0
 21 45  1  0  0  0  0
M  CHG  1  14   1
M  END
> <s_m_source_file>
AV-unprocessed.smi

> <i_m_source_file_index>
1774

> <i_lp_mmshare_version>
43012

> <i_f3d_flags>
0

> <s_epik_input>
W0NIM11jMVtjSF1bY0hdW2NIXW5jMVtOSF1DKD1PKVtOSF1bQ0gyXVtDSDJdTjJbQ0gyXVtDQEBIXShbQ0gzXSlPW0NAQEhdKFtDSDNdKVtDSDJdMg==

> <s_epik_cmdline>
J2VwaWtfcHl0aG9uJywgJy1waCcsICc3LjAnLCAnLXRuJywgJzgnLCAnLW1hJywgJzIwMCcsICctbWV0YWxfYmluZGluZycsICctaW1hZScsICc8aW5maWxlLm1hZT4nLCAnLW9tYWUnLCAnPG91dGZpbGUubWFlPic=

> <r_epik_Ionization_Penalty>
0.602573

> <r_epik_Ionization_Penalty_Charging>
0.602531

> <r_epik_Ionization_Penalty_Neutral>
4.21996e-05

> <r_epik_State_Penalty>
0.617039

> <r_epik_Charging_Adjusted_Penalty>
1.21957

> <i_epik_Tot_Q>
1

> <i_epik_Tot_abs_Q>
1

> <r_epik_Metal_State_Penalty>
0.617042

> <b_epik_Metal_Only>
0

> <s_lp_Force_Field>
OPLS_2005

> <r_lp_Energy>
15.6229

> <b_lp_Chiralities_Consistent>
1

> <s_lp_Variant>
AV-unprocessed.smi:1774-4

> <Gold.Version>
5.8.1

> <Gold.Id.Protein>
6NUR|6NUR_protein|mol2

> <Gold.PLP.Fitness>
50.6095

> <Gold.PLP.PLP>
-35.5887

> <Gold.PLP.part.hbond>
-3.6925

> <Gold.PLP.part.metal>
0.0000

> <Gold.PLP.part.buried>
-4.4950

> <Gold.PLP.part.nonpolar>
-29.0882

> <Gold.PLP.part.repulsive>
0.6329

> <Gold.PLP.ligand.clash>
0.0000

> <Gold.PLP.ligand.torsion>
1.3504

> <Gold.PLP.Chemscore.Hbond>
4.8952

> <Gold.PLP.Chemscore.CHOScore>
1.0000

> <Gold.PLP.Chemscore.Metal>
0.0000

> <Gold.Chemscore.Hbonds>
donor molecule, donor type, donor heavy atom, donor atom, acceptor molecule, acceptor atom, score
      L1  H     8    28       P1  7948  0.93
      L1  H    11    29       P1  7948  0.96
      L1  H    14    46       P1  7948  2.00
      P1  H 10752 10764       L1    18  0.30
      L1  C     5    27       P1 10186  1.00

> <Gold.PLP.Chemscore.Internal.Correction>
0.0359

> <Gold.Rescore>
     Score         DG    S(hbond)    S(metal)    S(lipo)     H(rot)  DE(clash)    DE(int)     intcor
     20.83     -22.44       3.16        0.00      87.56       1.49       0.36       1.25       ----

> <Gold.Chemscore.Fitness>
20.8305

> <Gold.Chemscore.DG>
-22.4397

> <Gold.Chemscore.ZeroCoef>
-5.4800

> <Gold.Chemscore.Hbond>
3.1560

> <Gold.Chemscore.Metal>
0.0000

> <Gold.Chemscore.Lipo>
87.5607

> <Gold.Chemscore.Internal_Hbond>
0.0000

> <Gold.Chemscore.DEClash>
0.3561

> <Gold.Chemscore.DEInternal>
1.2531

> <Gold.Chemscore.Rot>
1.4946

> <Gold.Chemscore.Internal.Correction>
   9.000000E+99

> <Gold.Chemscore.Hbonds>
donor molecule, donor type, donor heavy atom, donor atom, acceptor molecule, acceptor atom, score
      L1  H     8    28       P1  7948  0.87
      L1  H    11    29       P1  7948  0.89
      L1  H    14    46       P1  7948  0.93
      P1  H 10752 10764       L1    18  0.01

> <Gold.Chemscore.Hbond.Weighted>
-10.5412

> <Gold.Chemscore.Metal.Weighted>
-0.0000

> <Gold.Chemscore.Lipo.Weighted>
-10.2446

> <Gold.Chemscore.Internal_Hbond.Weighted>
0.0000

> <Gold.Chemscore.DEClash.Weighted>
0.3561

> <Gold.Chemscore.DEInternal.Weighted>
1.2531

> <Gold.Chemscore.Rot.Weighted>
3.8261

> <Gold.Chemscore.Internal.Correction.Weighted>
   9.000000E+99

> <Gold.Protein.RotatedTorsions>
[ 6907 6896 6895 6894 ] final   13.16 input  -60.11 | X-H torsion
[ 7974 7965 7964 7962 ] final   17.40 input  175.53 | X-H torsion
[ 8008 7997 7996 7995 ] final   31.31 input   59.86 | X-H torsion
[ 10167 10162 10161 10158 ] final  -15.02 input  -65.29 | X-H torsion
[ 10718 10713 10712 10709 ] final  124.71 input   66.30 | X-H torsion
[ 10763 10752 10751 10750 ] final  -60.96 input  -60.55 | X-H torsion
[ 11005 11000 10999 10996 ] final   77.85 input  -57.11 | X-H torsion

> <Gold.Protein.ActiveResidues>
 VAL166  LYS551  ARG553  GLY616  TRP617  ASP618  TYR619  PRO620  LYS621  CYS622 
 ASP623  PHE694  ASN695  SER759  ASP760  ASP761  ALA762  ILE779  LEU786  VAL792 
 PHE793  MET794  SER795  GLU796  ALA797  LYS798  CYS799  TRP800  GLU811  SER814 

> <Gold.Protein.RotatedAtoms>
  151.7818  135.0759  160.0374 H   0  0  0  0  0  0  0  0  0  0  0  0  # atno 6907 bound_to 6896
  152.3217  133.5857  159.5757 H   0  0  0  0  0  0  0  0  0  0  0  0  # atno 6908 bound_to 6896
  150.7373  133.9917  159.3651 H   0  0  0  0  0  0  0  0  0  0  0  0  # atno 6909 bound_to 6896
  146.2219  139.8608  142.8605 H   0  0  0  0  0  0  0  0  0  0  0  0  # atno 7974 bound_to 7965
  155.1043  140.3232  155.4538 H   0  0  0  0  0  0  0  0  0  0  0  0  # atno 8008 bound_to 7997
  156.2708  140.2055  156.6116 H   0  0  0  0  0  0  0  0  0  0  0  0  # atno 8009 bound_to 7997
  154.6805  140.0527  157.0248 H   0  0  0  0  0  0  0  0  0  0  0  0  # atno 8010 bound_to 7997
  140.7211  143.5261  150.9576 H   0  0  0  0  0  0  0  0  0  0  0  0  # atno 10167 bound_to 10162
  157.5563  131.1092  150.8616 H   0  0  0  0  0  0  0  0  0  0  0  0  # atno 10718 bound_to 10713
  154.2773  135.6278  153.5333 H   0  0  0  0  0  0  0  0  0  0  0  0  # atno 10763 bound_to 10752
  152.9871  135.5624  154.5534 H   0  0  0  0  0  0  0  0  0  0  0  0  # atno 10764 bound_to 10752
  154.5117  135.2877  155.1313 H   0  0  0  0  0  0  0  0  0  0  0  0  # atno 10765 bound_to 10752
  139.9237  134.7716  156.1575 H   0  0  0  0  0  0  0  0  0  0  0  0  # atno 11005 bound_to 11000
  145.2706  141.0107  143.3774 LP  0  0  0  0  0  0  0  0  0  0  0  0  # atno 17320 bound_to 7965
  144.9226  139.4393  143.6534 LP  0  0  0  0  0  0  0  0  0  0  0  0  # atno 17321 bound_to 7965
  139.8980  143.6871  152.3136 LP  0  0  0  0  0  0  0  0  0  0  0  0  # atno 17342 bound_to 10162
  139.7211  144.7602  151.0954 LP  0  0  0  0  0  0  0  0  0  0  0  0  # atno 17343 bound_to 10162
  156.9127  130.5286  149.5280 LP  0  0  0  0  0  0  0  0  0  0  0  0  # atno 17370 bound_to 10713
  156.0621  130.5672  150.9214 LP  0  0  0  0  0  0  0  0  0  0  0  0  # atno 17371 bound_to 10713
  141.0778  133.6768  156.2273 LP  0  0  0  0  0  0  0  0  0  0  0  0  # atno 17394 bound_to 11000
  140.6399  134.5177  157.5568 LP  0  0  0  0  0  0  0  0  0  0  0  0  # atno 17395 bound_to 11000

$$$$
