AV-unprocessed.smi:2355|AV-procd|sdf|9390|dock8
  -GOLD-   2272013 23D 1   1.00000     0.00000
 Structure written by MMmdl.
 49 50  0  0  0  0  0  0  0  0  2 V2000
  151.9506  145.8914  160.0462 C   0  0  0  0  0  0  0  0  0  0  0  0
  152.0343  144.4763  159.5143 C   0  0  0  0  0  0  0  0  0  0  0  0
  151.4866  144.1527  158.2587 C   0  0  0  0  0  0  0  0  0  0  0  0
  151.5882  142.8210  157.8116 C   0  0  0  0  0  0  0  0  0  0  0  0
  151.0222  142.4054  156.4703 C   0  0  0  0  0  0  0  0  0  0  0  0
  152.1857  141.8466  158.5303 N   0  0  0  0  0  0  0  0  0  0  0  0
  152.7190  142.1473  159.7403 C   0  0  0  0  0  0  0  0  0  0  0  0
  153.3566  141.1924  160.5760 N   0  0  0  0  0  0  0  0  0  0  0  0
  153.9105  140.0212  160.2180 C   0  0  0  0  0  0  0  0  0  0  0  0
  154.0458  139.6229  159.0611 O   0  0  0  0  0  0  0  0  0  0  0  0
  154.2969  139.3157  161.2920 N   0  0  0  0  0  0  0  0  0  0  0  0
  154.9412  137.9993  161.2782 C   0  0  1  0  0  0  0  0  0  0  0  0
  156.2493  138.1069  162.0800 C   0  0  0  0  0  0  0  0  0  0  0  0
  153.9832  136.8982  161.8190 C   0  0  2  0  0  0  0  0  0  0  0  0
  153.6417  137.0695  163.3151 C   0  0  0  0  0  0  0  0  0  0  0  0
  154.4934  135.5298  161.5056 N   0  3  0  0  0  0  0  0  0  0  0  0
  154.9198  135.3044  160.1013 C   0  0  0  0  0  0  0  0  0  0  0  0
  155.2167  133.8121  159.8836 C   0  0  0  0  0  0  0  0  0  0  0  0
  156.2249  133.3952  160.7973 O   0  0  0  0  0  0  0  0  0  0  0  0
  155.8172  133.5449  162.1528 C   0  0  0  0  0  0  0  0  0  0  0  0
  155.5182  135.0251  162.4496 C   0  0  0  0  0  0  0  0  0  0  0  0
  152.6558  143.4575  160.2650 C   0  0  0  0  0  0  0  0  0  0  0  0
  152.1516  146.6111  159.2521 H   0  0  0  0  0  0  0  0  0  0  0  0
  152.6760  146.0556  160.8435 H   0  0  0  0  0  0  0  0  0  0  0  0
  150.9539  146.0857  160.4426 H   0  0  0  0  0  0  0  0  0  0  0  0
  151.0017  144.9064  157.6554 H   0  0  0  0  0  0  0  0  0  0  0  0
  150.3259  143.1529  156.0891 H   0  0  0  0  0  0  0  0  0  0  0  0
  150.4884  141.4584  156.5550 H   0  0  0  0  0  0  0  0  0  0  0  0
  151.8262  142.2839  155.7440 H   0  0  0  0  0  0  0  0  0  0  0  0
  153.3614  141.4133  161.5608 H   0  0  0  0  0  0  0  0  0  0  0  0
  154.1464  139.7292  162.2009 H   0  0  0  0  0  0  0  0  0  0  0  0
  155.2193  137.7522  160.2523 H   0  0  0  0  0  0  0  0  0  0  0  0
  156.8485  137.2004  161.9990 H   0  0  0  0  0  0  0  0  0  0  0  0
  156.0551  138.2877  163.1378 H   0  0  0  0  0  0  0  0  0  0  0  0
  156.8669  138.9269  161.7118 H   0  0  0  0  0  0  0  0  0  0  0  0
  153.0494  137.0165  161.2671 H   0  0  0  0  0  0  0  0  0  0  0  0
  153.0817  137.9871  163.4925 H   0  0  0  0  0  0  0  0  0  0  0  0
  154.5391  137.1113  163.9327 H   0  0  0  0  0  0  0  0  0  0  0  0
  153.0214  136.2511  163.6800 H   0  0  0  0  0  0  0  0  0  0  0  0
  154.1436  135.6306  159.4097 H   0  0  0  0  0  0  0  0  0  0  0  0
  155.8149  135.8861  159.8778 H   0  0  0  0  0  0  0  0  0  0  0  0
  154.3156  133.2104  160.0139 H   0  0  0  0  0  0  0  0  0  0  0  0
  155.5688  133.6434  158.8659 H   0  0  0  0  0  0  0  0  0  0  0  0
  154.9408  132.9251  162.3494 H   0  0  0  0  0  0  0  0  0  0  0  0
  156.6140  133.1844  162.8035 H   0  0  0  0  0  0  0  0  0  0  0  0
  156.4299  135.6173  162.3625 H   0  0  0  0  0  0  0  0  0  0  0  0
  155.1650  135.1245  163.4765 H   0  0  0  0  0  0  0  0  0  0  0  0
  153.0808  143.6811  161.2331 H   0  0  0  0  0  0  0  0  0  0  0  0
  153.6959  134.9251  161.6435 H   0  0  0  0  0  0  0  0  0  0  0  0
  1  2  1  0  0  0  0
  1 23  1  0  0  0  0
  1 24  1  0  0  0  0
  1 25  1  0  0  0  0
  2 22  1  0  0  0  0
  2  3  2  0  0  0  0
  3  4  1  0  0  0  0
  3 26  1  0  0  0  0
  4  5  1  0  0  0  0
  4  6  2  0  0  0  0
  5 27  1  0  0  0  0
  5 28  1  0  0  0  0
  5 29  1  0  0  0  0
  6  7  1  0  0  0  0
  7  8  1  0  0  0  0
  7 22  2  0  0  0  0
  8  9  1  0  0  0  0
  8 30  1  0  0  0  0
  9 10  2  0  0  0  0
  9 11  1  0  0  0  0
 11 12  1  0  0  0  0
 11 31  1  0  0  0  0
 12 13  1  0  0  0  0
 12 14  1  0  0  0  0
 12 32  1  0  0  0  0
 13 33  1  0  0  0  0
 13 34  1  0  0  0  0
 13 35  1  0  0  0  0
 14 15  1  0  0  0  0
 14 16  1  0  0  0  0
 14 36  1  0  0  0  0
 15 37  1  0  0  0  0
 15 38  1  0  0  0  0
 15 39  1  0  0  0  0
 16 21  1  0  0  0  0
 16 17  1  0  0  0  0
 16 49  1  0  0  0  0
 17 18  1  0  0  0  0
 17 40  1  0  0  0  0
 17 41  1  0  0  0  0
 18 19  1  0  0  0  0
 18 42  1  0  0  0  0
 18 43  1  0  0  0  0
 19 20  1  0  0  0  0
 20 21  1  0  0  0  0
 20 44  1  0  0  0  0
 20 45  1  0  0  0  0
 21 46  1  0  0  0  0
 21 47  1  0  0  0  0
 22 48  1  0  0  0  0
M  CHG  1  16   1
M  END
> <s_m_source_file>
AV-unprocessed.smi

> <i_m_source_file_index>
2355

> <i_lp_mmshare_version>
43012

> <i_f3d_flags>
0

> <s_epik_input>
W0NIM11jMVtjSF1jKFtDSDNdKW5jKFtjSF0xKVtOSF1DKD1PKVtOSF1bQ0BIXShbQ0gzXSlbQ0BIXShbQ0gzXSlOMltDSDJdW0NIMl1PW0NIMl1bQ0gyXTI=

> <s_epik_cmdline>
J2VwaWtfcHl0aG9uJywgJy1waCcsICc3LjAnLCAnLXRuJywgJzgnLCAnLW1hJywgJzIwMCcsICctbWV0YWxfYmluZGluZycsICctaW1hZScsICc8aW5maWxlLm1hZT4nLCAnLW9tYWUnLCAnPG91dGZpbGUubWFlPic=

> <r_epik_Ionization_Penalty>
0.602711

> <r_epik_Ionization_Penalty_Charging>
0.602531

> <r_epik_Ionization_Penalty_Neutral>
0.000180055

> <r_epik_State_Penalty>
0.617039

> <r_epik_Charging_Adjusted_Penalty>
1.21957

> <i_epik_Tot_Q>
1

> <i_epik_Tot_abs_Q>
1

> <r_epik_Metal_State_Penalty>
0.617075

> <b_epik_Metal_Only>
0

> <s_lp_Force_Field>
OPLS_2005

> <r_lp_Energy>
26.6532

> <b_lp_Chiralities_Consistent>
1

> <s_lp_Variant>
AV-unprocessed.smi:2355-6

> <Gold.Version>
5.8.1

> <Gold.Id.Protein>
6NUR|6NUR_protein|mol2

> <Gold.PLP.Fitness>
41.8820

> <Gold.PLP.PLP>
-39.6641

> <Gold.PLP.part.hbond>
-1.0000

> <Gold.PLP.part.metal>
0.0000

> <Gold.PLP.part.buried>
-4.9363

> <Gold.PLP.part.nonpolar>
-32.6727

> <Gold.PLP.part.repulsive>
0.1430

> <Gold.PLP.ligand.clash>
0.0000

> <Gold.PLP.ligand.torsion>
0.4627

> <Gold.PLP.Chemscore.Hbond>
1.0000

> <Gold.PLP.Chemscore.CHOScore>
0.0000

> <Gold.PLP.Chemscore.Metal>
0.0000

> <Gold.Chemscore.Hbonds>
donor molecule, donor type, donor heavy atom, donor atom, acceptor molecule, acceptor atom, score
      P1  H  7997  8009       L1    10  1.00

> <Gold.PLP.Chemscore.Internal.Correction>
0.1433

> <Gold.Rescore>
     Score         DG    S(hbond)    S(metal)    S(lipo)     H(rot)  DE(clash)    DE(int)     intcor
     15.60     -17.20       0.99        0.00     103.52       1.45       0.05       1.55       ----

> <Gold.Chemscore.Fitness>
15.6001

> <Gold.Chemscore.DG>
-17.1982

> <Gold.Chemscore.ZeroCoef>
-5.4800

> <Gold.Chemscore.Hbond>
0.9906

> <Gold.Chemscore.Metal>
0.0000

> <Gold.Chemscore.Lipo>
103.5211

> <Gold.Chemscore.Internal_Hbond>
0.0000

> <Gold.Chemscore.DEClash>
0.0531

> <Gold.Chemscore.DEInternal>
1.5451

> <Gold.Chemscore.Rot>
1.4462

> <Gold.Chemscore.Internal.Correction>
   9.000000E+99

> <Gold.Chemscore.Hbonds>
donor molecule, donor type, donor heavy atom, donor atom, acceptor molecule, acceptor atom, score
      P1  H  7997  8009       L1    10  0.93

> <Gold.Chemscore.Hbond.Weighted>
-3.3086

> <Gold.Chemscore.Metal.Weighted>
-0.0000

> <Gold.Chemscore.Lipo.Weighted>
-12.1120

> <Gold.Chemscore.Internal_Hbond.Weighted>
0.0000

> <Gold.Chemscore.DEClash.Weighted>
0.0531

> <Gold.Chemscore.DEInternal.Weighted>
1.5451

> <Gold.Chemscore.Rot.Weighted>
3.7023

> <Gold.Chemscore.Internal.Correction.Weighted>
   9.000000E+99

> <Gold.Protein.RotatedTorsions>
[ 6907 6896 6895 6894 ] final   56.12 input  -60.11 | X-H torsion
[ 7974 7965 7964 7962 ] final  107.33 input  175.53 | X-H torsion
[ 8008 7997 7996 7995 ] final  129.99 input   59.86 | X-H torsion
[ 10167 10162 10161 10158 ] final  -23.26 input  -65.29 | X-H torsion
[ 10718 10713 10712 10709 ] final  102.34 input   66.30 | X-H torsion
[ 10763 10752 10751 10750 ] final  -38.76 input  -60.55 | X-H torsion
[ 11005 11000 10999 10996 ] final  -49.65 input  -57.11 | X-H torsion

> <Gold.Protein.ActiveResidues>
 VAL166  LYS551  ARG553  GLY616  TRP617  ASP618  TYR619  PRO620  LYS621  CYS622 
 ASP623  PHE694  ASN695  SER759  ASP760  ASP761  ALA762  ILE779  LEU786  VAL792 
 PHE793  MET794  SER795  GLU796  ALA797  LYS798  CYS799  TRP800  GLU811  SER814 

> <Gold.Protein.RotatedAtoms>
  152.3606  134.6878  160.0208 H   0  0  0  0  0  0  0  0  0  0  0  0  # atno 6907 bound_to 6896
  151.7202  133.3309  159.3321 H   0  0  0  0  0  0  0  0  0  0  0  0  # atno 6908 bound_to 6896
  150.7602  134.6388  159.6270 H   0  0  0  0  0  0  0  0  0  0  0  0  # atno 6909 bound_to 6896
  145.2950  139.2588  143.3844 H   0  0  0  0  0  0  0  0  0  0  0  0  # atno 7974 bound_to 7965
  156.2946  140.2607  156.2689 H   0  0  0  0  0  0  0  0  0  0  0  0  # atno 8008 bound_to 7997
  154.9715  140.0391  157.2255 H   0  0  0  0  0  0  0  0  0  0  0  0  # atno 8009 bound_to 7997
  154.7855  140.2802  155.6036 H   0  0  0  0  0  0  0  0  0  0  0  0  # atno 8010 bound_to 7997
  140.7287  143.4460  151.0587 H   0  0  0  0  0  0  0  0  0  0  0  0  # atno 10167 bound_to 10162
  157.6805  131.0750  150.5389 H   0  0  0  0  0  0  0  0  0  0  0  0  # atno 10718 bound_to 10713
  153.9181  135.6785  153.4748 H   0  0  0  0  0  0  0  0  0  0  0  0  # atno 10763 bound_to 10752
  153.1043  135.4813  154.8920 H   0  0  0  0  0  0  0  0  0  0  0  0  # atno 10764 bound_to 10752
  154.7492  135.3180  154.8544 H   0  0  0  0  0  0  0  0  0  0  0  0  # atno 10765 bound_to 10752
  141.0771  133.6663  156.3617 H   0  0  0  0  0  0  0  0  0  0  0  0  # atno 11005 bound_to 11000
  146.3172  140.3450  142.8651 LP  0  0  0  0  0  0  0  0  0  0  0  0  # atno 17320 bound_to 7965
  144.9141  140.7792  143.5789 LP  0  0  0  0  0  0  0  0  0  0  0  0  # atno 17321 bound_to 7965
  139.8131  143.7923  152.3172 LP  0  0  0  0  0  0  0  0  0  0  0  0  # atno 17342 bound_to 10162
  139.7980  144.7385  150.9864 LP  0  0  0  0  0  0  0  0  0  0  0  0  # atno 17343 bound_to 10162
  156.5697  130.4276  149.6025 LP  0  0  0  0  0  0  0  0  0  0  0  0  # atno 17370 bound_to 10713
  156.2751  130.7039  151.1848 LP  0  0  0  0  0  0  0  0  0  0  0  0  # atno 17371 bound_to 10713
  140.5549  134.5991  157.5418 LP  0  0  0  0  0  0  0  0  0  0  0  0  # atno 17394 bound_to 11000
  139.9584  134.7495  156.0291 LP  0  0  0  0  0  0  0  0  0  0  0  0  # atno 17395 bound_to 11000

$$$$
