AV-unprocessed.smi:3183|AV-procd|sdf|12155|dock8
  -GOLD-   2272017593D 1   1.00000     0.00000
 Structure written by MMmdl.
 43 44  0  0  0  0  0  0  0  0  2 V2000
  147.1190  141.8249  154.0473 C   0  0  0  0  0  0  0  0  0  0  0  0
  147.5963  141.4397  155.4589 C   0  0  2  0  0  0  0  0  0  0  0  0
  146.9792  142.3981  156.4974 C   0  0  0  0  0  0  0  0  0  0  0  0
  147.4075  142.0527  157.9320 C   0  0  0  0  0  0  0  0  0  0  0  0
  148.9371  142.0178  158.0843 C   0  0  2  0  0  0  0  0  0  0  0  0
  149.5093  143.3805  157.9943 N   0  3  0  0  0  0  0  0  0  0  0  0
  150.9694  143.4585  158.1979 C   0  0  0  0  0  0  0  0  0  0  0  0
  151.3140  143.5300  159.6928 C   0  0  0  0  0  0  0  0  0  0  0  0
  152.3667  142.5565  160.1298 C   0  0  0  0  0  0  0  0  0  0  0  0
  153.0201  141.5735  159.4371 C   0  0  0  0  0  0  0  0  0  0  0  0
  153.8970  140.9941  160.3943 C   0  0  0  0  0  0  0  0  0  0  0  0
  153.7995  141.5662  161.5808 N   0  0  0  0  0  0  0  0  0  0  0  0
  152.8625  142.5243  161.4231 N   0  0  0  0  0  0  0  0  0  0  0  0
  152.5192  143.3468  162.5678 C   0  0  0  0  0  0  0  0  0  0  0  0
  149.5701  141.0850  157.0358 C   0  0  0  0  0  0  0  0  0  0  0  0
  149.1427  141.4129  155.5875 C   0  0  1  0  0  0  0  0  0  0  0  0
  149.8053  140.4215  154.6140 C   0  0  0  0  0  0  0  0  0  0  0  0
  147.5228  142.7907  153.7413 H   0  0  0  0  0  0  0  0  0  0  0  0
  146.0316  141.8937  154.0066 H   0  0  0  0  0  0  0  0  0  0  0  0
  147.4148  141.0858  153.3033 H   0  0  0  0  0  0  0  0  0  0  0  0
  147.2203  140.4372  155.6696 H   0  0  0  0  0  0  0  0  0  0  0  0
  147.2634  143.4256  156.2660 H   0  0  0  0  0  0  0  0  0  0  0  0
  145.8909  142.3635  156.4322 H   0  0  0  0  0  0  0  0  0  0  0  0
  146.9721  142.7634  158.6358 H   0  0  0  0  0  0  0  0  0  0  0  0
  146.9993  141.0764  158.1970 H   0  0  0  0  0  0  0  0  0  0  0  0
  149.1629  141.6110  159.0714 H   0  0  0  0  0  0  0  0  0  0  0  0
  149.2932  143.7539  157.0811 H   0  0  0  0  0  0  0  0  0  0  0  0
  151.4387  142.5828  157.7470 H   0  0  0  0  0  0  0  0  0  0  0  0
  151.3542  144.3394  157.6822 H   0  0  0  0  0  0  0  0  0  0  0  0
  151.6450  144.5413  159.9336 H   0  0  0  0  0  0  0  0  0  0  0  0
  150.4083  143.3576  160.2759 H   0  0  0  0  0  0  0  0  0  0  0  0
  152.8939  141.3033  158.3992 H   0  0  0  0  0  0  0  0  0  0  0  0
  154.5961  140.1812  160.2635 H   0  0  0  0  0  0  0  0  0  0  0  0
  151.7567  144.0799  162.3075 H   0  0  0  0  0  0  0  0  0  0  0  0
  153.4063  143.8740  162.9200 H   0  0  0  0  0  0  0  0  0  0  0  0
  152.1387  142.7161  163.3718 H   0  0  0  0  0  0  0  0  0  0  0  0
  150.6571  141.1199  157.1236 H   0  0  0  0  0  0  0  0  0  0  0  0
  149.2852  140.0569  157.2649 H   0  0  0  0  0  0  0  0  0  0  0  0
  149.5198  142.4072  155.3434 H   0  0  0  0  0  0  0  0  0  0  0  0
  149.4117  139.4129  154.7449 H   0  0  0  0  0  0  0  0  0  0  0  0
  150.8832  140.3782  154.7718 H   0  0  0  0  0  0  0  0  0  0  0  0
  149.6509  140.7094  153.5744 H   0  0  0  0  0  0  0  0  0  0  0  0
  149.0588  143.9584  158.6895 H   0  0  0  0  0  0  0  0  0  0  0  0
  1  2  1  0  0  0  0
  1 18  1  0  0  0  0
  1 19  1  0  0  0  0
  1 20  1  0  0  0  0
  2 16  1  0  0  0  0
  2  3  1  0  0  0  0
  2 21  1  0  0  0  0
  3  4  1  0  0  0  0
  3 22  1  0  0  0  0
  3 23  1  0  0  0  0
  4  5  1  0  0  0  0
  4 24  1  0  0  0  0
  4 25  1  0  0  0  0
  5  6  1  0  0  0  0
  5 15  1  0  0  0  0
  5 26  1  0  0  0  0
  6  7  1  0  0  0  0
  6 27  1  0  0  0  0
  6 43  1  0  0  0  0
  7  8  1  0  0  0  0
  7 28  1  0  0  0  0
  7 29  1  0  0  0  0
  8  9  1  0  0  0  0
  8 30  1  0  0  0  0
  8 31  1  0  0  0  0
  9 13  1  0  0  0  0
  9 10  2  0  0  0  0
 10 11  1  0  0  0  0
 10 32  1  0  0  0  0
 11 12  2  0  0  0  0
 11 33  1  0  0  0  0
 12 13  1  0  0  0  0
 13 14  1  0  0  0  0
 14 34  1  0  0  0  0
 14 35  1  0  0  0  0
 14 36  1  0  0  0  0
 15 16  1  0  0  0  0
 15 37  1  0  0  0  0
 15 38  1  0  0  0  0
 16 17  1  0  0  0  0
 16 39  1  0  0  0  0
 17 40  1  0  0  0  0
 17 41  1  0  0  0  0
 17 42  1  0  0  0  0
M  CHG  1   6   1
M  END
> <s_m_source_file>
AV-unprocessed.smi

> <i_m_source_file_index>
3183

> <i_lp_mmshare_version>
43012

> <i_f3d_flags>
0

> <s_epik_input>
W0NIM11bQ0BASF0xW0NIMl1bQ0gyXVtDQEhdKFtDSDJdW0NASF0xW0NIM10pW05IXVtDSDJdW0NIMl1jMltjSF1bY0hdbm4yW0NIM10=

> <s_epik_cmdline>
J2VwaWtfcHl0aG9uJywgJy1waCcsICc3LjAnLCAnLXRuJywgJzgnLCAnLW1hJywgJzIwMCcsICctbWV0YWxfYmluZGluZycsICctaW1hZScsICc8aW5maWxlLm1hZT4nLCAnLW9tYWUnLCAnPG91dGZpbGUubWFlPic=

> <r_lp_tautomer_probability>
1

> <r_epik_Ionization_Penalty>
0.000327718

> <r_epik_Ionization_Penalty_Charging>
0.000294043

> <r_epik_Ionization_Penalty_Neutral>
3.36755e-05

> <r_epik_State_Penalty>
-0

> <r_epik_Charging_Adjusted_Penalty>
0.000294043

> <i_epik_Tot_Q>
1

> <i_epik_Tot_abs_Q>
1

> <r_epik_Metal_State_Penalty>
-0

> <b_epik_Metal_Only>
0

> <s_lp_Force_Field>
OPLS_2005

> <r_lp_Energy>
17.888

> <b_lp_Chiralities_Consistent>
1

> <s_lp_Variant>
AV-unprocessed.smi:3183-3

> <Gold.Version>
5.8.1

> <Gold.Id.Protein>
6NUR|6NUR_protein|mol2

> <Gold.PLP.Fitness>
42.8988

> <Gold.PLP.PLP>
-37.8857

> <Gold.PLP.part.hbond>
-2.3317

> <Gold.PLP.part.metal>
0.0000

> <Gold.PLP.part.buried>
-3.1971

> <Gold.PLP.part.nonpolar>
-32.5677

> <Gold.PLP.part.repulsive>
0.0422

> <Gold.PLP.ligand.clash>
0.0000

> <Gold.PLP.ligand.torsion>
0.5000

> <Gold.PLP.Chemscore.Hbond>
2.0000

> <Gold.PLP.Chemscore.CHOScore>
0.0000

> <Gold.PLP.Chemscore.Metal>
0.0000

> <Gold.Chemscore.Hbonds>
donor molecule, donor type, donor heavy atom, donor atom, acceptor molecule, acceptor atom, score
      L1  H     6    27       P1  8028  2.00

> <Gold.PLP.Chemscore.Internal.Correction>
0.0132

> <Gold.Rescore>
     Score         DG    S(hbond)    S(metal)    S(lipo)     H(rot)  DE(clash)    DE(int)     intcor
     16.13     -16.77       0.91        0.00     100.60       1.38       0.14       0.50       ----

> <Gold.Chemscore.Fitness>
16.1306

> <Gold.Chemscore.DG>
-16.7709

> <Gold.Chemscore.ZeroCoef>
-5.4800

> <Gold.Chemscore.Hbond>
0.9119

> <Gold.Chemscore.Metal>
0.0000

> <Gold.Chemscore.Lipo>
100.5971

> <Gold.Chemscore.Internal_Hbond>
0.0000

> <Gold.Chemscore.DEClash>
0.1401

> <Gold.Chemscore.DEInternal>
0.5003

> <Gold.Chemscore.Rot>
1.3768

> <Gold.Chemscore.Internal.Correction>
   9.000000E+99

> <Gold.Chemscore.Hbonds>
donor molecule, donor type, donor heavy atom, donor atom, acceptor molecule, acceptor atom, score
      L1  H     6    27       P1  8028  0.65

> <Gold.Chemscore.Hbond.Weighted>
-3.0458

> <Gold.Chemscore.Metal.Weighted>
-0.0000

> <Gold.Chemscore.Lipo.Weighted>
-11.7699

> <Gold.Chemscore.Internal_Hbond.Weighted>
0.0000

> <Gold.Chemscore.DEClash.Weighted>
0.1401

> <Gold.Chemscore.DEInternal.Weighted>
0.5003

> <Gold.Chemscore.Rot.Weighted>
3.5247

> <Gold.Chemscore.Internal.Correction.Weighted>
   9.000000E+99

> <Gold.Protein.RotatedTorsions>
[ 6907 6896 6895 6894 ] final    7.30 input  -60.11 | X-H torsion
[ 7974 7965 7964 7962 ] final  -67.18 input  175.53 | X-H torsion
[ 8008 7997 7996 7995 ] final -145.02 input   59.86 | X-H torsion
[ 10167 10162 10161 10158 ] final  -29.05 input  -65.29 | X-H torsion
[ 10718 10713 10712 10709 ] final    0.11 input   66.30 | X-H torsion
[ 10763 10752 10751 10750 ] final -122.99 input  -60.55 | X-H torsion
[ 11005 11000 10999 10996 ] final  -13.09 input  -57.11 | X-H torsion

> <Gold.Protein.ActiveResidues>
 VAL166  LYS551  ARG553  GLY616  TRP617  ASP618  TYR619  PRO620  LYS621  CYS622 
 ASP623  PHE694  ASN695  SER759  ASP760  ASP761  ALA762  ILE779  LEU786  VAL792 
 PHE793  MET794  SER795  GLU796  ALA797  LYS798  CYS799  TRP800  GLU811  SER814 

> <Gold.Protein.RotatedAtoms>
  151.6876  135.0951  160.0227 H   0  0  0  0  0  0  0  0  0  0  0  0  # atno 6907 bound_to 6896
  152.3798  133.6526  159.6160 H   0  0  0  0  0  0  0  0  0  0  0  0  # atno 6908 bound_to 6896
  150.7737  133.9050  159.3394 H   0  0  0  0  0  0  0  0  0  0  0  0  # atno 6909 bound_to 6896
  145.7325  140.8990  143.0572 H   0  0  0  0  0  0  0  0  0  0  0  0  # atno 7974 bound_to 7965
  155.5364  140.0604  157.2879 H   0  0  0  0  0  0  0  0  0  0  0  0  # atno 8008 bound_to 7997
  154.4467  140.1927  156.0590 H   0  0  0  0  0  0  0  0  0  0  0  0  # atno 8009 bound_to 7997
  156.0616  140.3271  155.7472 H   0  0  0  0  0  0  0  0  0  0  0  0  # atno 8010 bound_to 7997
  140.7264  143.3960  151.1347 H   0  0  0  0  0  0  0  0  0  0  0  0  # atno 10167 bound_to 10162
  156.8285  130.5480  149.5689 H   0  0  0  0  0  0  0  0  0  0  0  0  # atno 10718 bound_to 10713
  154.8700  135.4114  154.2871 H   0  0  0  0  0  0  0  0  0  0  0  0  # atno 10763 bound_to 10752
  153.3753  135.7009  153.6612 H   0  0  0  0  0  0  0  0  0  0  0  0  # atno 10764 bound_to 10752
  153.5456  135.3639  155.2709 H   0  0  0  0  0  0  0  0  0  0  0  0  # atno 10765 bound_to 10752
  140.7725  133.8427  155.9219 H   0  0  0  0  0  0  0  0  0  0  0  0  # atno 11005 bound_to 11000
  144.6889  139.9350  143.7473 LP  0  0  0  0  0  0  0  0  0  0  0  0  # atno 17320 bound_to 7965
  146.0524  139.3524  143.0631 LP  0  0  0  0  0  0  0  0  0  0  0  0  # atno 17321 bound_to 7965
  139.7572  143.8689  152.3091 LP  0  0  0  0  0  0  0  0  0  0  0  0  # atno 17342 bound_to 10162
  139.8563  144.7140  150.9153 LP  0  0  0  0  0  0  0  0  0  0  0  0  # atno 17343 bound_to 10162
  156.0948  130.5923  150.9794 LP  0  0  0  0  0  0  0  0  0  0  0  0  # atno 17370 bound_to 10713
  157.6419  131.0909  150.8233 LP  0  0  0  0  0  0  0  0  0  0  0  0  # atno 17371 bound_to 10713
  140.9560  134.1717  157.4691 LP  0  0  0  0  0  0  0  0  0  0  0  0  # atno 17394 bound_to 11000
  139.8754  134.9927  156.5609 LP  0  0  0  0  0  0  0  0  0  0  0  0  # atno 17395 bound_to 11000

$$$$
