AV-unprocessed.smi:1604|AV-procd|sdf|6447|dock6
  -GOLD-   22720 7103D 1   1.00000     0.00000
 Structure written by MMmdl.
 46 48  0  0  0  0  0  0  0  0  1 V2000
  150.4898  135.3857  155.9793 O   0  0  0  0  0  0  0  0  0  0  0  0
  149.8774  135.5746  154.9279 C   0  0  0  0  0  0  0  0  0  0  0  0
  149.3253  134.6132  154.1699 N   0  0  0  0  0  0  0  0  0  0  0  0
  149.2831  133.2145  154.4272 C   0  0  0  0  0  0  0  0  0  0  0  0
  150.3108  132.5683  155.1564 C   0  0  0  0  0  0  0  0  0  0  0  0
  150.2639  131.1740  155.3264 C   0  0  0  0  0  0  0  0  0  0  0  0
  149.1962  130.4698  154.7458 C   0  0  0  0  0  0  0  0  0  0  0  0
  148.2180  131.0683  154.0374 N   0  0  0  0  0  0  0  0  0  0  0  0
  148.2409  132.4146  153.8767 C   0  0  0  0  0  0  0  0  0  0  0  0
  147.1785  132.9880  153.1404 N   0  0  0  0  0  0  0  0  0  0  0  0
  145.8128  132.7034  153.5727 C   0  0  0  0  0  0  0  0  0  0  0  0
  144.9705  132.5797  152.2984 C   0  0  0  0  0  0  0  0  0  0  0  0
  145.7904  133.3256  151.2503 C   0  0  0  0  0  0  0  0  0  0  0  0
  147.2221  133.0217  151.6822 C   0  0  0  0  0  0  0  0  0  0  0  0
  149.6570  136.7880  154.4027 N   0  0  0  0  0  0  0  0  0  0  0  0
  150.1116  138.0591  154.9653 C   0  0  2  0  0  0  0  0  0  0  0  0
  149.2523  139.2316  154.4259 C   0  0  0  0  0  0  0  0  0  0  0  0
  149.9220  140.6216  154.4301 C   0  0  0  0  0  0  0  0  0  0  0  0
  150.5064  141.0726  155.7839 C   0  0  0  0  0  0  0  0  0  0  0  0
  151.5309  140.1237  156.4511 C   0  0  0  0  0  0  0  0  0  0  0  0
  152.2180  139.2256  155.5234 N   0  0  0  0  0  0  0  0  0  0  0  0
  151.6353  138.2377  154.8224 C   0  0  0  0  0  0  0  0  0  0  0  0
  152.2876  137.5118  154.0731 O   0  0  0  0  0  0  0  0  0  0  0  0
  148.7726  134.9259  153.3851 H   0  0  0  0  0  0  0  0  0  0  0  0
  151.1452  133.1168  155.5664 H   0  0  0  0  0  0  0  0  0  0  0  0
  151.0353  130.6564  155.8769 H   0  0  0  0  0  0  0  0  0  0  0  0
  149.1286  129.3967  154.8462 H   0  0  0  0  0  0  0  0  0  0  0  0
  145.7525  131.7983  154.1790 H   0  0  0  0  0  0  0  0  0  0  0  0
  145.4536  133.5385  154.1746 H   0  0  0  0  0  0  0  0  0  0  0  0
  144.8851  131.5298  152.0150 H   0  0  0  0  0  0  0  0  0  0  0  0
  143.9628  132.9787  152.4160 H   0  0  0  0  0  0  0  0  0  0  0  0
  145.5765  133.0046  150.2307 H   0  0  0  0  0  0  0  0  0  0  0  0
  145.5978  134.3972  151.3180 H   0  0  0  0  0  0  0  0  0  0  0  0
  147.9238  133.7745  151.3219 H   0  0  0  0  0  0  0  0  0  0  0  0
  147.5216  132.0527  151.2810 H   0  0  0  0  0  0  0  0  0  0  0  0
  149.1442  136.8429  153.5346 H   0  0  0  0  0  0  0  0  0  0  0  0
  149.9344  137.9915  156.0396 H   0  0  0  0  0  0  0  0  0  0  0  0
  148.9540  139.0176  153.3986 H   0  0  0  0  0  0  0  0  0  0  0  0
  148.3237  139.2789  154.9960 H   0  0  0  0  0  0  0  0  0  0  0  0
  150.7064  140.6478  153.6725 H   0  0  0  0  0  0  0  0  0  0  0  0
  149.1906  141.3607  154.1025 H   0  0  0  0  0  0  0  0  0  0  0  0
  150.9867  142.0390  155.6269 H   0  0  0  0  0  0  0  0  0  0  0  0
  149.6938  141.2637  156.4856 H   0  0  0  0  0  0  0  0  0  0  0  0
  152.2822  140.7132  156.9772 H   0  0  0  0  0  0  0  0  0  0  0  0
  151.0414  139.5301  157.2238 H   0  0  0  0  0  0  0  0  0  0  0  0
  153.2142  139.3527  155.4185 H   0  0  0  0  0  0  0  0  0  0  0  0
  1  2  2  0  0  0  0
  2  3  1  0  0  0  0
  2 15  1  0  0  0  0
  3  4  1  0  0  0  0
  3 24  1  0  0  0  0
  4  9  1  0  0  0  0
  4  5  2  0  0  0  0
  5  6  1  0  0  0  0
  5 25  1  0  0  0  0
  6  7  2  0  0  0  0
  6 26  1  0  0  0  0
  7  8  1  0  0  0  0
  7 27  1  0  0  0  0
  8  9  2  0  0  0  0
  9 10  1  0  0  0  0
 10 14  1  0  0  0  0
 10 11  1  0  0  0  0
 11 12  1  0  0  0  0
 11 28  1  0  0  0  0
 11 29  1  0  0  0  0
 12 13  1  0  0  0  0
 12 30  1  0  0  0  0
 12 31  1  0  0  0  0
 13 14  1  0  0  0  0
 13 32  1  0  0  0  0
 13 33  1  0  0  0  0
 14 34  1  0  0  0  0
 14 35  1  0  0  0  0
 15 16  1  0  0  0  0
 15 36  1  0  0  0  0
 16 22  1  0  0  0  0
 16 17  1  0  0  0  0
 16 37  1  0  0  0  0
 17 18  1  0  0  0  0
 17 38  1  0  0  0  0
 17 39  1  0  0  0  0
 18 19  1  0  0  0  0
 18 40  1  0  0  0  0
 18 41  1  0  0  0  0
 19 20  1  0  0  0  0
 19 42  1  0  0  0  0
 19 43  1  0  0  0  0
 20 21  1  0  0  0  0
 20 44  1  0  0  0  0
 20 45  1  0  0  0  0
 21 22  1  0  0  0  0
 21 46  1  0  0  0  0
 22 23  2  0  0  0  0
M  END
> <s_m_source_file>
AV-unprocessed.smi

> <i_m_source_file_index>
1604

> <i_lp_mmshare_version>
43012

> <i_f3d_flags>
0

> <s_epik_input>
Tz1DMVtOSF1bQ0gyXVtDSDJdW0NIMl1bQ0gyXVtDQEhdMVtOSF1DKD1PKVtOSF1jMltjSF1bY0hdW2NIXW5jMk4zW0NIMl1bQ0gyXVtDSDJdW0NIMl0z

> <s_epik_cmdline>
J2VwaWtfcHl0aG9uJywgJy1waCcsICc3LjAnLCAnLXRuJywgJzgnLCAnLW1hJywgJzIwMCcsICctbWV0YWxfYmluZGluZycsICctaW1hZScsICc8aW5maWxlLm1hZT4nLCAnLW9tYWUnLCAnPG91dGZpbGUubWFlPic=

> <r_lp_tautomer_probability>
1

> <r_epik_Ionization_Penalty>
0.0837267

> <r_epik_Ionization_Penalty_Charging>
0

> <r_epik_Ionization_Penalty_Neutral>
0.0837267

> <r_epik_State_Penalty>
0.0738331

> <r_epik_Charging_Adjusted_Penalty>
0.0738331

> <i_epik_Tot_Q>
0

> <i_epik_Tot_abs_Q>
0

> <r_epik_Metal_State_Penalty>
0.0646802

> <b_epik_Metal_Only>
0

> <s_lp_Force_Field>
OPLS_2005

> <r_lp_Energy>
41.479

> <b_lp_Chiralities_Consistent>
1

> <s_lp_Variant>
AV-unprocessed.smi:1604-1

> <Gold.Version>
5.8.1

> <Gold.Id.Protein>
6NUR|6NUR_protein|mol2

> <Gold.PLP.Fitness>
42.8799

> <Gold.PLP.PLP>
-36.4623

> <Gold.PLP.part.hbond>
-3.0000

> <Gold.PLP.part.metal>
0.0000

> <Gold.PLP.part.buried>
-2.0773

> <Gold.PLP.part.nonpolar>
-31.5672

> <Gold.PLP.part.repulsive>
0.6259

> <Gold.PLP.ligand.clash>
0.0000

> <Gold.PLP.ligand.torsion>
0.7419

> <Gold.PLP.Chemscore.Hbond>
2.5120

> <Gold.PLP.Chemscore.CHOScore>
0.0000

> <Gold.PLP.Chemscore.Metal>
0.0000

> <Gold.Chemscore.Hbonds>
donor molecule, donor type, donor heavy atom, donor atom, acceptor molecule, acceptor atom, score
      L1  H     3    24       P1  7948  0.74
      L1  H    15    36       P1  7948  0.91
      P1  H 10752 10765       L1    23  0.80

> <Gold.PLP.Chemscore.Internal.Correction>
0.3654

> <Gold.Rescore>
     Score         DG    S(hbond)    S(metal)    S(lipo)     H(rot)  DE(clash)    DE(int)     intcor
     15.66     -17.50       2.12        0.00      69.40       1.25       0.14       1.71       ----

> <Gold.Chemscore.Fitness>
15.6553

> <Gold.Chemscore.DG>
-17.5043

> <Gold.Chemscore.ZeroCoef>
-5.4800

> <Gold.Chemscore.Hbond>
2.1239

> <Gold.Chemscore.Metal>
0.0000

> <Gold.Chemscore.Lipo>
69.4040

> <Gold.Chemscore.Internal_Hbond>
0.0000

> <Gold.Chemscore.DEClash>
0.1394

> <Gold.Chemscore.DEInternal>
1.7097

> <Gold.Chemscore.Rot>
1.2461

> <Gold.Chemscore.Internal.Correction>
   9.000000E+99

> <Gold.Chemscore.Hbonds>
donor molecule, donor type, donor heavy atom, donor atom, acceptor molecule, acceptor atom, score
      L1  H     3    24       P1  7948  0.36
      L1  H    15    36       P1  7948  0.89
      P1  H 10752 10765       L1    23  0.79

> <Gold.Chemscore.Hbond.Weighted>
-7.0939

> <Gold.Chemscore.Metal.Weighted>
-0.0000

> <Gold.Chemscore.Lipo.Weighted>
-8.1203

> <Gold.Chemscore.Internal_Hbond.Weighted>
0.0000

> <Gold.Chemscore.DEClash.Weighted>
0.1394

> <Gold.Chemscore.DEInternal.Weighted>
1.7097

> <Gold.Chemscore.Rot.Weighted>
3.1899

> <Gold.Chemscore.Internal.Correction.Weighted>
   9.000000E+99

> <Gold.Protein.RotatedTorsions>
[ 6907 6896 6895 6894 ] final  149.77 input  -60.11 | X-H torsion
[ 7974 7965 7964 7962 ] final  100.90 input  175.53 | X-H torsion
[ 8008 7997 7996 7995 ] final   45.43 input   59.86 | X-H torsion
[ 10167 10162 10161 10158 ] final   75.28 input  -65.29 | X-H torsion
[ 10718 10713 10712 10709 ] final -170.31 input   66.30 | X-H torsion
[ 10763 10752 10751 10750 ] final  152.67 input  -60.55 | X-H torsion
[ 11005 11000 10999 10996 ] final  114.41 input  -57.11 | X-H torsion

> <Gold.Protein.ActiveResidues>
 VAL166  LYS551  ARG553  GLY616  TRP617  ASP618  TYR619  PRO620  LYS621  CYS622 
 ASP623  PHE694  ASN695  SER759  ASP760  ASP761  ALA762  ILE779  LEU786  VAL792 
 PHE793  MET794  SER795  GLU796  ALA797  LYS798  CYS799  TRP800  GLU811  SER814 

> <Gold.Protein.RotatedAtoms>
  152.1235  133.4366  159.4686 H   0  0  0  0  0  0  0  0  0  0  0  0  # atno 6907 bound_to 6896
  150.6873  134.2507  159.4518 H   0  0  0  0  0  0  0  0  0  0  0  0  # atno 6908 bound_to 6896
  152.0385  134.9725  160.0624 H   0  0  0  0  0  0  0  0  0  0  0  0  # atno 6909 bound_to 6896
  145.3794  139.2382  143.3412 H   0  0  0  0  0  0  0  0  0  0  0  0  # atno 7974 bound_to 7965
  155.3357  140.3405  155.4239 H   0  0  0  0  0  0  0  0  0  0  0  0  # atno 8008 bound_to 7997
  156.1839  140.1673  156.8259 H   0  0  0  0  0  0  0  0  0  0  0  0  # atno 8009 bound_to 7997
  154.5364  140.0734  156.8418 H   0  0  0  0  0  0  0  0  0  0  0  0  # atno 8010 bound_to 7997
  140.0046  144.5660  150.7708 H   0  0  0  0  0  0  0  0  0  0  0  0  # atno 10167 bound_to 10162
  156.7243  130.9282  151.3100 H   0  0  0  0  0  0  0  0  0  0  0  0  # atno 10718 bound_to 10713
  154.1238  135.2831  155.3202 H   0  0  0  0  0  0  0  0  0  0  0  0  # atno 10763 bound_to 10752
  154.6404  135.5404  153.7786 H   0  0  0  0  0  0  0  0  0  0  0  0  # atno 10764 bound_to 10752
  153.0304  135.6485  154.1391 H   0  0  0  0  0  0  0  0  0  0  0  0  # atno 10765 bound_to 10752
  139.8980  134.9567  156.6887 H   0  0  0  0  0  0  0  0  0  0  0  0  # atno 11005 bound_to 11000
  146.2849  140.4459  142.8762 LP  0  0  0  0  0  0  0  0  0  0  0  0  # atno 17320 bound_to 7965
  144.8518  140.7013  143.6163 LP  0  0  0  0  0  0  0  0  0  0  0  0  # atno 17321 bound_to 7965
  140.7405  143.2806  151.3611 LP  0  0  0  0  0  0  0  0  0  0  0  0  # atno 17342 bound_to 10162
  139.6247  144.0837  152.2423 LP  0  0  0  0  0  0  0  0  0  0  0  0  # atno 17343 bound_to 10162
  157.6885  130.9210  150.0450 LP  0  0  0  0  0  0  0  0  0  0  0  0  # atno 17370 bound_to 10713
  156.1573  130.3643  149.9350 LP  0  0  0  0  0  0  0  0  0  0  0  0  # atno 17371 bound_to 10713
  140.7242  133.9115  155.8167 LP  0  0  0  0  0  0  0  0  0  0  0  0  # atno 17394 bound_to 11000
  141.0204  134.0897  157.4126 LP  0  0  0  0  0  0  0  0  0  0  0  0  # atno 17395 bound_to 11000

$$$$
