AV-unprocessed.smi:3348|AV-procd|sdf|12916|dock10
  -GOLD-   2272019333D 1   1.00000     0.00000
 Structure written by MMmdl.
 47 48  0  0  0  0  0  0  0  0  2 V2000
  146.5740  142.6775  154.3072 C   0  0  0  0  0  0  0  0  0  0  0  0
  147.5568  141.6572  154.9041 C   0  0  1  0  0  0  0  0  0  0  0  0
  148.7957  141.4975  153.9990 C   0  0  0  0  0  0  0  0  0  0  0  0
  149.5655  140.3009  154.2966 N   0  0  0  0  0  0  0  0  0  0  0  0
  149.1766  138.9825  154.1812 C   0  0  0  0  0  0  0  0  0  0  0  0
  150.2275  138.2111  154.5873 C   0  0  0  0  0  0  0  0  0  0  0  0
  151.2237  139.1600  154.9498 C   0  0  0  0  0  0  0  0  0  0  0  0
  150.8227  140.4093  154.7788 N   0  0  0  0  0  0  0  0  0  0  0  0
  147.9703  142.0545  156.2693 N   0  3  0  0  0  0  0  0  0  0  0  0
  148.7080  141.0252  157.0305 C   0  0  0  0  0  0  0  0  0  0  0  0
  149.6625  141.6738  158.0375 C   0  0  0  0  0  0  0  0  0  0  0  0
  150.9120  141.8914  157.3989 O   0  0  0  0  0  0  0  0  0  0  0  0
  152.0002  142.1250  158.2857 C   0  0  2  0  0  0  0  0  0  0  0  0
  152.1297  140.9539  159.2839 C   0  0  0  0  0  0  0  0  0  0  0  0
  153.2070  141.2306  160.3427 C   0  0  0  0  0  0  0  0  0  0  0  0
  152.9303  142.5477  161.0801 C   0  0  0  0  0  0  0  0  0  0  0  0
  152.8107  143.7170  160.0914 C   0  0  0  0  0  0  0  0  0  0  0  0
  151.7285  143.4556  159.0244 C   0  0  1  0  0  0  0  0  0  0  0  0
  151.6312  144.6410  158.0498 C   0  0  0  0  0  0  0  0  0  0  0  0
  146.2926  142.3986  153.2915 H   0  0  0  0  0  0  0  0  0  0  0  0
  147.0130  143.6749  154.2666 H   0  0  0  0  0  0  0  0  0  0  0  0
  145.6543  142.7410  154.8885 H   0  0  0  0  0  0  0  0  0  0  0  0
  147.0520  140.6917  154.9631 H   0  0  0  0  0  0  0  0  0  0  0  0
  148.4935  141.4496  152.9518 H   0  0  0  0  0  0  0  0  0  0  0  0
  149.4510  142.3647  154.0945 H   0  0  0  0  0  0  0  0  0  0  0  0
  148.1964  138.7050  153.8218 H   0  0  0  0  0  0  0  0  0  0  0  0
  150.2757  137.1329  154.6250 H   0  0  0  0  0  0  0  0  0  0  0  0
  152.2182  138.9795  155.3305 H   0  0  0  0  0  0  0  0  0  0  0  0
  148.5827  142.8527  156.1788 H   0  0  0  0  0  0  0  0  0  0  0  0
  148.0162  140.3594  157.5467 H   0  0  0  0  0  0  0  0  0  0  0  0
  149.2822  140.4157  156.3317 H   0  0  0  0  0  0  0  0  0  0  0  0
  149.2423  142.6206  158.3763 H   0  0  0  0  0  0  0  0  0  0  0  0
  149.7778  141.0338  158.9137 H   0  0  0  0  0  0  0  0  0  0  0  0
  152.9286  142.2289  157.7205 H   0  0  0  0  0  0  0  0  0  0  0  0
  151.1714  140.7861  159.7773 H   0  0  0  0  0  0  0  0  0  0  0  0
  152.3750  140.0283  158.7642 H   0  0  0  0  0  0  0  0  0  0  0  0
  153.2491  140.4066  161.0557 H   0  0  0  0  0  0  0  0  0  0  0  0
  154.1863  141.2774  159.8647 H   0  0  0  0  0  0  0  0  0  0  0  0
  152.0085  142.4591  161.6565 H   0  0  0  0  0  0  0  0  0  0  0  0
  153.7265  142.7466  161.7981 H   0  0  0  0  0  0  0  0  0  0  0  0
  152.5825  144.6324  160.6388 H   0  0  0  0  0  0  0  0  0  0  0  0
  153.7744  143.8808  159.6070 H   0  0  0  0  0  0  0  0  0  0  0  0
  150.7693  143.3688  159.5373 H   0  0  0  0  0  0  0  0  0  0  0  0
  152.5575  144.7710  157.4896 H   0  0  0  0  0  0  0  0  0  0  0  0
  151.4327  145.5708  158.5838 H   0  0  0  0  0  0  0  0  0  0  0  0
  150.8234  144.5009  157.3312 H   0  0  0  0  0  0  0  0  0  0  0  0
  147.1538  142.3352  156.7936 H   0  0  0  0  0  0  0  0  0  0  0  0
  1  2  1  0  0  0  0
  1 20  1  0  0  0  0
  1 21  1  0  0  0  0
  1 22  1  0  0  0  0
  2  3  1  0  0  0  0
  2  9  1  0  0  0  0
  2 23  1  0  0  0  0
  3  4  1  0  0  0  0
  3 24  1  0  0  0  0
  3 25  1  0  0  0  0
  4  8  1  0  0  0  0
  4  5  1  0  0  0  0
  5  6  2  0  0  0  0
  5 26  1  0  0  0  0
  6  7  1  0  0  0  0
  6 27  1  0  0  0  0
  7  8  2  0  0  0  0
  7 28  1  0  0  0  0
  9 10  1  0  0  0  0
  9 29  1  0  0  0  0
  9 47  1  0  0  0  0
 10 11  1  0  0  0  0
 10 30  1  0  0  0  0
 10 31  1  0  0  0  0
 11 12  1  0  0  0  0
 11 32  1  0  0  0  0
 11 33  1  0  0  0  0
 12 13  1  0  0  0  0
 13 18  1  0  0  0  0
 13 14  1  0  0  0  0
 13 34  1  0  0  0  0
 14 15  1  0  0  0  0
 14 35  1  0  0  0  0
 14 36  1  0  0  0  0
 15 16  1  0  0  0  0
 15 37  1  0  0  0  0
 15 38  1  0  0  0  0
 16 17  1  0  0  0  0
 16 39  1  0  0  0  0
 16 40  1  0  0  0  0
 17 18  1  0  0  0  0
 17 41  1  0  0  0  0
 17 42  1  0  0  0  0
 18 19  1  0  0  0  0
 18 43  1  0  0  0  0
 19 44  1  0  0  0  0
 19 45  1  0  0  0  0
 19 46  1  0  0  0  0
M  CHG  1   9   1
M  END
> <s_m_source_file>
AV-unprocessed.smi

> <i_m_source_file_index>
3348

> <i_lp_mmshare_version>
43012

> <i_f3d_flags>
0

> <s_epik_input>
bjFbY0hdW2NIXVtjSF1uMVtDSDJdW0NAQEhdKFtDSDNdKVtOSF1bQ0gyXVtDSDJdT1tDQEBIXTJbQ0gyXVtDSDJdW0NIMl1bQ0gyXVtDQEhdMltDSDNd

> <s_epik_cmdline>
J2VwaWtfcHl0aG9uJywgJy1waCcsICc3LjAnLCAnLXRuJywgJzgnLCAnLW1hJywgJzIwMCcsICctbWV0YWxfYmluZGluZycsICctaW1hZScsICc8aW5maWxlLm1hZT4nLCAnLW9tYWUnLCAnPG91dGZpbGUubWFlPic=

> <r_lp_tautomer_probability>
1

> <r_epik_Ionization_Penalty>
0.00925088

> <r_epik_Ionization_Penalty_Charging>
0.00924645

> <r_epik_Ionization_Penalty_Neutral>
4.42413e-06

> <r_epik_State_Penalty>
0.0070118

> <r_epik_Charging_Adjusted_Penalty>
0.0162583

> <i_epik_Tot_Q>
1

> <i_epik_Tot_abs_Q>
1

> <r_epik_Metal_State_Penalty>
0.00701222

> <b_epik_Metal_Only>
0

> <s_lp_Force_Field>
OPLS_2005

> <r_lp_Energy>
16.0091

> <b_lp_Chiralities_Consistent>
1

> <s_lp_Variant>
AV-unprocessed.smi:3348-2

> <Gold.Version>
5.8.1

> <Gold.Id.Protein>
6NUR|6NUR_protein|mol2

> <Gold.PLP.Fitness>
53.4135

> <Gold.PLP.PLP>
-45.5462

> <Gold.PLP.part.hbond>
-2.0000

> <Gold.PLP.part.metal>
0.0000

> <Gold.PLP.part.buried>
-4.2346

> <Gold.PLP.part.nonpolar>
-38.6647

> <Gold.PLP.part.repulsive>
0.1346

> <Gold.PLP.ligand.clash>
0.0000

> <Gold.PLP.ligand.torsion>
0.6069

> <Gold.PLP.Chemscore.Hbond>
3.0000

> <Gold.PLP.Chemscore.CHOScore>
0.0000

> <Gold.PLP.Chemscore.Metal>
0.0000

> <Gold.Chemscore.Hbonds>
donor molecule, donor type, donor heavy atom, donor atom, acceptor molecule, acceptor atom, score
      L1  H     9    29       P1  8028  1.98
      P1  H  7989  7998       L1     8  1.00

> <Gold.PLP.Chemscore.Internal.Correction>
0.0811

> <Gold.Rescore>
     Score         DG    S(hbond)    S(metal)    S(lipo)     H(rot)  DE(clash)    DE(int)     intcor
     19.88     -20.67       1.73        0.00     120.17       1.82       0.03       0.75       ----

> <Gold.Chemscore.Fitness>
19.8824

> <Gold.Chemscore.DG>
-20.6656

> <Gold.Chemscore.ZeroCoef>
-5.4800

> <Gold.Chemscore.Hbond>
1.7293

> <Gold.Chemscore.Metal>
0.0000

> <Gold.Chemscore.Lipo>
120.1660

> <Gold.Chemscore.Internal_Hbond>
0.0000

> <Gold.Chemscore.DEClash>
0.0339

> <Gold.Chemscore.DEInternal>
0.7494

> <Gold.Chemscore.Rot>
1.8163

> <Gold.Chemscore.Internal.Correction>
   9.000000E+99

> <Gold.Chemscore.Hbonds>
donor molecule, donor type, donor heavy atom, donor atom, acceptor molecule, acceptor atom, score
      L1  H     9    29       P1  8028  0.91
      P1  H  7989  7998       L1     8  0.13

> <Gold.Chemscore.Hbond.Weighted>
-5.7759

> <Gold.Chemscore.Metal.Weighted>
-0.0000

> <Gold.Chemscore.Lipo.Weighted>
-14.0594

> <Gold.Chemscore.Internal_Hbond.Weighted>
0.0000

> <Gold.Chemscore.DEClash.Weighted>
0.0339

> <Gold.Chemscore.DEInternal.Weighted>
0.7494

> <Gold.Chemscore.Rot.Weighted>
4.6497

> <Gold.Chemscore.Internal.Correction.Weighted>
   9.000000E+99

> <Gold.Protein.RotatedTorsions>
[ 6907 6896 6895 6894 ] final   97.86 input  -60.11 | X-H torsion
[ 7974 7965 7964 7962 ] final  -73.29 input  175.53 | X-H torsion
[ 8008 7997 7996 7995 ] final -110.35 input   59.86 | X-H torsion
[ 10167 10162 10161 10158 ] final  142.37 input  -65.29 | X-H torsion
[ 10718 10713 10712 10709 ] final   46.74 input   66.30 | X-H torsion
[ 10763 10752 10751 10750 ] final -125.75 input  -60.55 | X-H torsion
[ 11005 11000 10999 10996 ] final  -54.26 input  -57.11 | X-H torsion

> <Gold.Protein.ActiveResidues>
 VAL166  LYS551  ARG553  GLY616  TRP617  ASP618  TYR619  PRO620  LYS621  CYS622 
 ASP623  PHE694  ASN695  SER759  ASP760  ASP761  ALA762  ILE779  LEU786  VAL792 
 PHE793  MET794  SER795  GLU796  ALA797  LYS798  CYS799  TRP800  GLU811  SER814 

> <Gold.Protein.RotatedAtoms>
  152.5417  134.0669  159.8176 H   0  0  0  0  0  0  0  0  0  0  0  0  # atno 6907 bound_to 6896
  151.0789  133.5399  159.2629 H   0  0  0  0  0  0  0  0  0  0  0  0  # atno 6908 bound_to 6896
  151.2234  135.0535  159.9013 H   0  0  0  0  0  0  0  0  0  0  0  0  # atno 6909 bound_to 6896
  145.6541  140.9273  143.0969 H   0  0  0  0  0  0  0  0  0  0  0  0  # atno 7974 bound_to 7965
  154.9731  140.0397  157.2243 H   0  0  0  0  0  0  0  0  0  0  0  0  # atno 8008 bound_to 7997
  154.7782  140.2814  155.6061 H   0  0  0  0  0  0  0  0  0  0  0  0  # atno 8009 bound_to 7997
  156.2932  140.2596  156.2602 H   0  0  0  0  0  0  0  0  0  0  0  0  # atno 8010 bound_to 7997
  139.4996  144.6111  151.6269 H   0  0  0  0  0  0  0  0  0  0  0  0  # atno 10167 bound_to 10162
  157.4513  130.8140  149.7791 H   0  0  0  0  0  0  0  0  0  0  0  0  # atno 10718 bound_to 10713
  154.8739  135.4019  154.3319 H   0  0  0  0  0  0  0  0  0  0  0  0  # atno 10763 bound_to 10752
  153.4131  135.7021  153.6350 H   0  0  0  0  0  0  0  0  0  0  0  0  # atno 10764 bound_to 10752
  153.5044  135.3720  155.2526 H   0  0  0  0  0  0  0  0  0  0  0  0  # atno 10765 bound_to 10752
  141.1017  133.6617  156.4294 H   0  0  0  0  0  0  0  0  0  0  0  0  # atno 11005 bound_to 11000
  144.7112  139.8364  143.7414 LP  0  0  0  0  0  0  0  0  0  0  0  0  # atno 17320 bound_to 7965
  146.1180  139.4193  143.0246 LP  0  0  0  0  0  0  0  0  0  0  0  0  # atno 17321 bound_to 7965
  140.5786  143.9985  150.6255 LP  0  0  0  0  0  0  0  0  0  0  0  0  # atno 17342 bound_to 10162
  140.3126  143.3188  152.0863 LP  0  0  0  0  0  0  0  0  0  0  0  0  # atno 17343 bound_to 10162
  155.9988  130.3892  150.2687 LP  0  0  0  0  0  0  0  0  0  0  0  0  # atno 17370 bound_to 10713
  157.0859  131.0156  151.3139 LP  0  0  0  0  0  0  0  0  0  0  0  0  # atno 17371 bound_to 10713
  140.5005  134.6490  157.5246 LP  0  0  0  0  0  0  0  0  0  0  0  0  # atno 17394 bound_to 11000
  139.9871  134.7044  155.9755 LP  0  0  0  0  0  0  0  0  0  0  0  0  # atno 17395 bound_to 11000

$$$$
