AV-unprocessed.smi:2855|AV-procd|sdf|10978|dock6
  -GOLD-   2272015433D 1   1.00000     0.00000
 Structure written by MMmdl.
 47 48  0  0  0  0  0  0  0  0  1 V2000
  147.4593  141.4215  157.4941 C   0  0  0  0  0  0  0  0  0  0  0  0
  148.0139  141.1833  156.0824 C   0  0  1  0  0  0  0  0  0  0  0  0
  149.5484  141.3334  156.0467 C   0  0  0  0  0  0  0  0  0  0  0  0
  150.1212  141.0223  154.6509 C   0  0  0  0  0  0  0  0  0  0  0  0
  149.7396  139.6004  154.1663 C   0  0  1  0  0  0  0  0  0  0  0  0
  150.4508  138.4593  154.9771 C   0  0  0  0  0  0  0  0  0  0  0  0
  151.9854  138.6129  154.9855 C   0  0  0  0  0  0  0  0  0  0  0  0
  150.1189  137.0366  154.4843 C   0  0  0  0  0  0  0  0  0  0  0  0
  148.1805  139.5667  154.1291 C   0  0  1  0  0  0  0  0  0  0  0  0
  147.6104  138.3703  153.5170 N   0  0  0  0  0  0  0  0  0  0  0  0
  146.3209  138.0027  153.5754 C   0  0  0  0  0  0  0  0  0  0  0  0
  145.4637  138.6469  154.1821 O   0  0  0  0  0  0  0  0  0  0  0  0
  145.9582  136.7208  152.8115 C   0  0  0  0  0  0  0  0  0  0  0  0
  144.5632  136.3002  153.0087 N   0  0  0  0  0  0  0  0  0  0  0  0
  143.5234  137.1181  152.5895 C   0  0  0  0  0  0  0  0  0  0  0  0
  142.2161  136.8068  152.7556 C   0  0  0  0  0  0  0  0  0  0  0  0
  141.8308  135.5584  153.4047 C   0  0  0  0  0  0  0  0  0  0  0  0
  140.6754  135.1883  153.6014 O   0  0  0  0  0  0  0  0  0  0  0  0
  142.9050  134.7635  153.8134 N   0  0  0  0  0  0  0  0  0  0  0  0
  144.2545  135.0788  153.6466 C   0  0  0  0  0  0  0  0  0  0  0  0
  145.1237  134.3074  154.0505 O   0  0  0  0  0  0  0  0  0  0  0  0
  147.5762  139.8135  155.5247 C   0  0  0  0  0  0  0  0  0  0  0  0
  142.6870  133.8902  154.2708 H   0  0  0  0  0  0  0  0  0  0  0  0
  147.8493  140.6891  158.2017 H   0  0  0  0  0  0  0  0  0  0  0  0
  146.3715  141.3501  157.5062 H   0  0  0  0  0  0  0  0  0  0  0  0
  147.7290  142.4131  157.8589 H   0  0  0  0  0  0  0  0  0  0  0  0
  147.5932  141.9524  155.4329 H   0  0  0  0  0  0  0  0  0  0  0  0
  149.8237  142.3494  156.3318 H   0  0  0  0  0  0  0  0  0  0  0  0
  150.0054  140.6790  156.7894 H   0  0  0  0  0  0  0  0  0  0  0  0
  149.7299  141.7551  153.9438 H   0  0  0  0  0  0  0  0  0  0  0  0
  151.1983  141.1800  154.6375 H   0  0  0  0  0  0  0  0  0  0  0  0
  150.0964  139.5205  153.1385 H   0  0  0  0  0  0  0  0  0  0  0  0
  150.1317  138.5119  156.0174 H   0  0  0  0  0  0  0  0  0  0  0  0
  152.3832  138.6828  153.9726 H   0  0  0  0  0  0  0  0  0  0  0  0
  152.4671  137.7637  155.4709 H   0  0  0  0  0  0  0  0  0  0  0  0
  152.3051  139.4950  155.5389 H   0  0  0  0  0  0  0  0  0  0  0  0
  150.2438  136.9480  153.4047 H   0  0  0  0  0  0  0  0  0  0  0  0
  149.1022  136.7437  154.7392 H   0  0  0  0  0  0  0  0  0  0  0  0
  150.7650  136.2926  154.9509 H   0  0  0  0  0  0  0  0  0  0  0  0
  147.8486  140.3974  153.5024 H   0  0  0  0  0  0  0  0  0  0  0  0
  148.2449  137.7827  152.9958 H   0  0  0  0  0  0  0  0  0  0  0  0
  146.1454  136.8894  151.7498 H   0  0  0  0  0  0  0  0  0  0  0  0
  146.6474  135.9249  153.1007 H   0  0  0  0  0  0  0  0  0  0  0  0
  143.7625  138.0560  152.1086 H   0  0  0  0  0  0  0  0  0  0  0  0
  141.4511  137.4863  152.4085 H   0  0  0  0  0  0  0  0  0  0  0  0
  147.8630  139.0151  156.2092 H   0  0  0  0  0  0  0  0  0  0  0  0
  146.4877  139.7826  155.4635 H   0  0  0  0  0  0  0  0  0  0  0  0
  1  2  1  0  0  0  0
  1 24  1  0  0  0  0
  1 25  1  0  0  0  0
  1 26  1  0  0  0  0
  2 22  1  0  0  0  0
  2  3  1  0  0  0  0
  2 27  1  0  0  0  0
  3  4  1  0  0  0  0
  3 28  1  0  0  0  0
  3 29  1  0  0  0  0
  4  5  1  0  0  0  0
  4 30  1  0  0  0  0
  4 31  1  0  0  0  0
  5  6  1  0  0  0  0
  5  9  1  0  0  0  0
  5 32  1  0  0  0  0
  6  7  1  0  0  0  0
  6  8  1  0  0  0  0
  6 33  1  0  0  0  0
  7 34  1  0  0  0  0
  7 35  1  0  0  0  0
  7 36  1  0  0  0  0
  8 37  1  0  0  0  0
  8 38  1  0  0  0  0
  8 39  1  0  0  0  0
  9 10  1  0  0  0  0
  9 22  1  0  0  0  0
  9 40  1  0  0  0  0
 10 11  1  0  0  0  0
 10 41  1  0  0  0  0
 11 12  2  0  0  0  0
 11 13  1  0  0  0  0
 13 14  1  0  0  0  0
 13 42  1  0  0  0  0
 13 43  1  0  0  0  0
 14 20  1  0  0  0  0
 14 15  1  0  0  0  0
 15 16  2  0  0  0  0
 15 44  1  0  0  0  0
 16 17  1  0  0  0  0
 16 45  1  0  0  0  0
 17 18  2  0  0  0  0
 17 19  1  0  0  0  0
 19 23  1  0  0  0  0
 19 20  1  0  0  0  0
 20 21  2  0  0  0  0
 22 46  1  0  0  0  0
 22 47  1  0  0  0  0
M  END
> <s_m_source_file>
AV-unprocessed.smi

> <i_m_source_file_index>
2855

> <i_lp_mmshare_version>
43012

> <i_f3d_flags>
0

> <s_epik_input>
W0NIM11bQ0BASF0xW0NIMl1bQ0gyXVtDQEBIXShbQ0hdKFtDSDNdKVtDSDNdKVtDQEhdKFtDSDJdMSlbTkhdQyg9TylbQ0gyXW4yW2NIXVtjSF1jKD1PKVtuSF1jMj1P

> <s_epik_cmdline>
J2VwaWtfcHl0aG9uJywgJy1waCcsICc3LjAnLCAnLXRuJywgJzgnLCAnLW1hJywgJzIwMCcsICctbWV0YWxfYmluZGluZycsICctaW1hZScsICc8aW5maWxlLm1hZT4nLCAnLW9tYWUnLCAnPG91dGZpbGUubWFlPic=

> <r_lp_tautomer_probability>
0.999537

> <r_epik_Ionization_Penalty>
0.00306256

> <r_epik_Ionization_Penalty_Charging>
0.00306254

> <r_epik_Ionization_Penalty_Neutral>
2.0223e-08

> <r_epik_State_Penalty>
0.0021533

> <r_epik_Charging_Adjusted_Penalty>
0.00521583

> <i_epik_Tot_Q>
0

> <i_epik_Tot_abs_Q>
0

> <r_epik_Metal_State_Penalty>
0.362116

> <b_epik_Metal_Only>
0

> <s_lp_Force_Field>
OPLS_2005

> <r_lp_Energy>
18.9466

> <b_lp_Chiralities_Consistent>
1

> <s_lp_Variant>
AV-unprocessed.smi:2855-2

> <Gold.Version>
5.8.1

> <Gold.Id.Protein>
6NUR|6NUR_protein|mol2

> <Gold.PLP.Fitness>
40.2767

> <Gold.PLP.PLP>
-25.7913

> <Gold.PLP.part.hbond>
-3.6146

> <Gold.PLP.part.metal>
0.0000

> <Gold.PLP.part.buried>
0.7336

> <Gold.PLP.part.nonpolar>
-22.2946

> <Gold.PLP.part.repulsive>
0.4022

> <Gold.PLP.ligand.clash>
0.0000

> <Gold.PLP.ligand.torsion>
0.2614

> <Gold.PLP.Chemscore.Hbond>
2.9913

> <Gold.PLP.Chemscore.CHOScore>
1.9919

> <Gold.PLP.Chemscore.Metal>
0.0000

> <Gold.Chemscore.Hbonds>
donor molecule, donor type, donor heavy atom, donor atom, acceptor molecule, acceptor atom, score
      L1  H    10    41       P1  7948  0.99
      L1  H    19    23       P1 10957  0.62
      P1  H 11000 11005       L1    18  0.26
      L1  C    15    44       P1 10171  1.00
      L1  C    15    44       P1 10175  1.00

> <Gold.PLP.Chemscore.Internal.Correction>
0.0588

> <Gold.Rescore>
     Score         DG    S(hbond)    S(metal)    S(lipo)     H(rot)  DE(clash)    DE(int)     intcor
     12.45     -17.96       2.94        0.00      63.28       1.85       1.64       3.87       ----

> <Gold.Chemscore.Fitness>
12.4467

> <Gold.Chemscore.DG>
-17.9555

> <Gold.Chemscore.ZeroCoef>
-5.4800

> <Gold.Chemscore.Hbond>
2.9395

> <Gold.Chemscore.Metal>
0.0000

> <Gold.Chemscore.Lipo>
63.2782

> <Gold.Chemscore.Internal_Hbond>
0.0000

> <Gold.Chemscore.DEClash>
1.6378

> <Gold.Chemscore.DEInternal>
3.8710

> <Gold.Chemscore.Rot>
1.8539

> <Gold.Chemscore.Internal.Correction>
   9.000000E+99

> <Gold.Chemscore.Hbonds>
donor molecule, donor type, donor heavy atom, donor atom, acceptor molecule, acceptor atom, score
      L1  H    10    41       P1  7948  0.92
      L1  H    19    23       P1 10957  0.62
      P1  H 11000 11005       L1    18  0.23

> <Gold.Chemscore.Hbond.Weighted>
-9.8180

> <Gold.Chemscore.Metal.Weighted>
-0.0000

> <Gold.Chemscore.Lipo.Weighted>
-7.4035

> <Gold.Chemscore.Internal_Hbond.Weighted>
0.0000

> <Gold.Chemscore.DEClash.Weighted>
1.6378

> <Gold.Chemscore.DEInternal.Weighted>
3.8710

> <Gold.Chemscore.Rot.Weighted>
4.7460

> <Gold.Chemscore.Internal.Correction.Weighted>
   9.000000E+99

> <Gold.Protein.RotatedTorsions>
[ 6907 6896 6895 6894 ] final   10.61 input  -60.11 | X-H torsion
[ 7974 7965 7964 7962 ] final   30.56 input  175.53 | X-H torsion
[ 8008 7997 7996 7995 ] final -131.78 input   59.86 | X-H torsion
[ 10167 10162 10161 10158 ] final   97.82 input  -65.29 | X-H torsion
[ 10718 10713 10712 10709 ] final   33.71 input   66.30 | X-H torsion
[ 10763 10752 10751 10750 ] final   63.11 input  -60.55 | X-H torsion
[ 11005 11000 10999 10996 ] final   24.83 input  -57.11 | X-H torsion

> <Gold.Protein.ActiveResidues>
 VAL166  LYS551  ARG553  GLY616  TRP617  ASP618  TYR619  PRO620  LYS621  CYS622 
 ASP623  PHE694  ASN695  SER759  ASP760  ASP761  ALA762  ILE779  LEU786  VAL792 
 PHE793  MET794  SER795  GLU796  ALA797  LYS798  CYS799  TRP800  GLU811  SER814 

> <Gold.Protein.RotatedAtoms>
  151.7410  135.0854  160.0315 H   0  0  0  0  0  0  0  0  0  0  0  0  # atno 6907 bound_to 6896
  152.3479  133.6140  159.5932 H   0  0  0  0  0  0  0  0  0  0  0  0  # atno 6908 bound_to 6896
  150.7521  133.9536  159.3535 H   0  0  0  0  0  0  0  0  0  0  0  0  # atno 6909 bound_to 6896
  146.1604  139.6772  142.9037 H   0  0  0  0  0  0  0  0  0  0  0  0  # atno 7974 bound_to 7965
  155.3179  140.0460  157.3038 H   0  0  0  0  0  0  0  0  0  0  0  0  # atno 8008 bound_to 7997
  154.5396  140.2283  155.8630 H   0  0  0  0  0  0  0  0  0  0  0  0  # atno 8009 bound_to 7997
  156.1868  140.3060  155.9261 H   0  0  0  0  0  0  0  0  0  0  0  0  # atno 8010 bound_to 7997
  139.7766  144.6903  151.0081 H   0  0  0  0  0  0  0  0  0  0  0  0  # atno 10167 bound_to 10162
  157.3013  130.7352  149.6668 H   0  0  0  0  0  0  0  0  0  0  0  0  # atno 10718 bound_to 10713
  153.0006  135.5441  154.6299 H   0  0  0  0  0  0  0  0  0  0  0  0  # atno 10763 bound_to 10752
  154.5579  135.2831  155.0949 H   0  0  0  0  0  0  0  0  0  0  0  0  # atno 10764 bound_to 10752
  154.2163  135.6458  153.5183 H   0  0  0  0  0  0  0  0  0  0  0  0  # atno 10765 bound_to 10752
  140.3544  134.2193  155.7677 H   0  0  0  0  0  0  0  0  0  0  0  0  # atno 11005 bound_to 11000
  145.4602  141.0432  143.2755 LP  0  0  0  0  0  0  0  0  0  0  0  0  # atno 17320 bound_to 7965
  144.8019  139.6124  143.7068 LP  0  0  0  0  0  0  0  0  0  0  0  0  # atno 17321 bound_to 7965
  140.7816  143.4529  151.0387 LP  0  0  0  0  0  0  0  0  0  0  0  0  # atno 17342 bound_to 10162
  139.8211  143.7818  152.3177 LP  0  0  0  0  0  0  0  0  0  0  0  0  # atno 17343 bound_to 10162
  155.9672  130.4279  150.4765 LP  0  0  0  0  0  0  0  0  0  0  0  0  # atno 17370 bound_to 10713
  157.2746  131.0594  151.2237 LP  0  0  0  0  0  0  0  0  0  0  0  0  # atno 17371 bound_to 10713
  141.2002  133.7992  157.0498 LP  0  0  0  0  0  0  0  0  0  0  0  0  # atno 17394 bound_to 11000
  140.0677  134.9720  157.1413 LP  0  0  0  0  0  0  0  0  0  0  0  0  # atno 17395 bound_to 11000

$$$$
