AV-unprocessed.smi:2759|AV-procd|sdf|10626|dock6
  -GOLD-   2272015 73D 1   1.00000     0.00000
 Structure written by MMmdl.
 43 44  0  0  0  0  0  0  0  0  1 V2000
  146.3869  142.5415  153.7341 C   0  0  0  0  0  0  0  0  0  0  0  0
  146.9150  141.1130  153.9714 C   0  0  0  0  0  0  0  0  0  0  0  0
  145.9774  140.3924  154.9584 C   0  0  0  0  0  0  0  0  0  0  0  0
  148.3936  141.1165  154.4435 C   0  0  2  0  0  0  0  0  0  0  0  0
  149.2272  141.3783  153.3285 O   0  0  0  0  0  0  0  0  0  0  0  0
  148.8657  139.7825  155.0638 C   0  0  0  0  0  0  0  0  0  0  0  0
  150.0841  139.9393  155.9138 C   0  0  0  0  0  0  0  0  0  0  0  0
  150.1999  139.6585  157.2093 N   0  0  0  0  0  0  0  0  0  0  0  0
  151.5251  139.9010  157.4126 C   0  0  0  0  0  0  0  0  0  0  0  0
  152.1897  139.7060  158.7385 C   0  0  0  0  0  0  0  0  0  0  0  0
  152.7503  141.0308  159.2615 C   0  0  0  0  0  0  0  0  0  0  0  0
  153.7000  141.0315  160.0443 O   0  0  0  0  0  0  0  0  0  0  0  0
  152.1566  142.1508  158.8186 N   0  0  0  0  0  0  0  0  0  0  0  0
  152.5055  143.5084  159.2260 C   0  0  0  0  0  0  0  0  0  0  0  0
  152.0221  143.7866  160.6624 C   0  0  0  0  0  0  0  0  0  0  0  0
  151.3041  145.1362  160.6137 C   0  0  0  0  0  0  0  0  0  0  0  0
  150.7450  145.2152  159.1967 C   0  0  0  0  0  0  0  0  0  0  0  0
  151.8235  144.5626  158.3315 C   0  0  0  0  0  0  0  0  0  0  0  0
  152.2082  140.3095  156.3493 N   0  0  0  0  0  0  0  0  0  0  0  0
  151.2453  140.3215  155.3301 O   0  0  0  0  0  0  0  0  0  0  0  0
  146.4433  143.1402  154.6438 H   0  0  0  0  0  0  0  0  0  0  0  0
  145.3455  142.5275  153.4114 H   0  0  0  0  0  0  0  0  0  0  0  0
  146.9509  143.0602  152.9588 H   0  0  0  0  0  0  0  0  0  0  0  0
  146.8610  140.5818  153.0198 H   0  0  0  0  0  0  0  0  0  0  0  0
  146.0576  140.8139  155.9609 H   0  0  0  0  0  0  0  0  0  0  0  0
  146.1890  139.3259  155.0227 H   0  0  0  0  0  0  0  0  0  0  0  0
  144.9366  140.4820  154.6462 H   0  0  0  0  0  0  0  0  0  0  0  0
  148.5262  141.9201  155.1696 H   0  0  0  0  0  0  0  0  0  0  0  0
  149.1276  140.6740  152.7060 H   0  0  0  0  0  0  0  0  0  0  0  0
  148.0950  139.3577  155.7042 H   0  0  0  0  0  0  0  0  0  0  0  0
  149.0597  139.0412  154.2874 H   0  0  0  0  0  0  0  0  0  0  0  0
  151.4746  139.2956  159.4529 H   0  0  0  0  0  0  0  0  0  0  0  0
  152.9973  138.9789  158.6432 H   0  0  0  0  0  0  0  0  0  0  0  0
  151.3888  142.0540  158.1698 H   0  0  0  0  0  0  0  0  0  0  0  0
  153.5885  143.6375  159.1781 H   0  0  0  0  0  0  0  0  0  0  0  0
  151.3147  143.0212  160.9861 H   0  0  0  0  0  0  0  0  0  0  0  0
  152.8429  143.7878  161.3802 H   0  0  0  0  0  0  0  0  0  0  0  0
  150.5306  145.2286  161.3766 H   0  0  0  0  0  0  0  0  0  0  0  0
  152.0236  145.9413  160.7691 H   0  0  0  0  0  0  0  0  0  0  0  0
  149.8222  144.6368  159.1329 H   0  0  0  0  0  0  0  0  0  0  0  0
  150.5213  146.2369  158.8884 H   0  0  0  0  0  0  0  0  0  0  0  0
  152.5578  145.3161  158.0445 H   0  0  0  0  0  0  0  0  0  0  0  0
  151.4120  144.1513  157.4087 H   0  0  0  0  0  0  0  0  0  0  0  0
  1  2  1  0  0  0  0
  1 21  1  0  0  0  0
  1 22  1  0  0  0  0
  1 23  1  0  0  0  0
  2  3  1  0  0  0  0
  2  4  1  0  0  0  0
  2 24  1  0  0  0  0
  3 25  1  0  0  0  0
  3 26  1  0  0  0  0
  3 27  1  0  0  0  0
  4  5  1  0  0  0  0
  4  6  1  0  0  0  0
  4 28  1  0  0  0  0
  5 29  1  0  0  0  0
  6  7  1  0  0  0  0
  6 30  1  0  0  0  0
  6 31  1  0  0  0  0
  7 20  1  0  0  0  0
  7  8  2  0  0  0  0
  8  9  1  0  0  0  0
  9 10  1  0  0  0  0
  9 19  2  0  0  0  0
 10 11  1  0  0  0  0
 10 32  1  0  0  0  0
 10 33  1  0  0  0  0
 11 12  2  0  0  0  0
 11 13  1  0  0  0  0
 13 14  1  0  0  0  0
 13 34  1  0  0  0  0
 14 18  1  0  0  0  0
 14 15  1  0  0  0  0
 14 35  1  0  0  0  0
 15 16  1  0  0  0  0
 15 36  1  0  0  0  0
 15 37  1  0  0  0  0
 16 17  1  0  0  0  0
 16 38  1  0  0  0  0
 16 39  1  0  0  0  0
 17 18  1  0  0  0  0
 17 40  1  0  0  0  0
 17 41  1  0  0  0  0
 18 42  1  0  0  0  0
 18 43  1  0  0  0  0
 19 20  1  0  0  0  0
M  END
> <s_m_source_file>
AV-unprocessed.smi

> <i_m_source_file_index>
2759

> <i_lp_mmshare_version>
43012

> <i_f3d_flags>
0

> <s_epik_input>
W0NIM11bQ0hdKFtDSDNdKVtDQEhdKFtPSF0pW0NIMl1jMW5jKG5vMSlbQ0gyXUMoPU8pW05IXVtDSF0yW0NIMl1bQ0gyXVtDSDJdW0NIMl0y

> <s_epik_cmdline>
J2VwaWtfcHl0aG9uJywgJy1waCcsICc3LjAnLCAnLXRuJywgJzgnLCAnLW1hJywgJzIwMCcsICctbWV0YWxfYmluZGluZycsICctaW1hZScsICc8aW5maWxlLm1hZT4nLCAnLW9tYWUnLCAnPG91dGZpbGUubWFlPic=

> <r_lp_tautomer_probability>
1

> <r_epik_Ionization_Penalty>
1.20032e-07

> <r_epik_Ionization_Penalty_Charging>
0

> <r_epik_Ionization_Penalty_Neutral>
1.20032e-07

> <r_epik_State_Penalty>
-0

> <r_epik_Charging_Adjusted_Penalty>
0

> <i_epik_Tot_Q>
0

> <i_epik_Tot_abs_Q>
0

> <r_epik_Metal_State_Penalty>
-0

> <b_epik_Metal_Only>
0

> <s_lp_Force_Field>
OPLS_2005

> <r_lp_Energy>
19.5735

> <b_lp_Chiralities_Consistent>
1

> <s_lp_Variant>
AV-unprocessed.smi:2759-1

> <Gold.Version>
5.8.1

> <Gold.Id.Protein>
6NUR|6NUR_protein|mol2

> <Gold.PLP.Fitness>
53.1798

> <Gold.PLP.PLP>
-44.4907

> <Gold.PLP.part.hbond>
-4.7965

> <Gold.PLP.part.metal>
0.0000

> <Gold.PLP.part.buried>
-5.2424

> <Gold.PLP.part.nonpolar>
-33.0607

> <Gold.PLP.part.repulsive>
0.1046

> <Gold.PLP.ligand.clash>
0.8256

> <Gold.PLP.ligand.torsion>
0.9792

> <Gold.PLP.Chemscore.Hbond>
3.7913

> <Gold.PLP.Chemscore.CHOScore>
0.0000

> <Gold.PLP.Chemscore.Metal>
0.0000

> <Gold.Chemscore.Hbonds>
donor molecule, donor type, donor heavy atom, donor atom, acceptor molecule, acceptor atom, score
      L1  H     5    29       P1  7957  0.91
      P1  H  7989  7998       L1    20  1.00
      P1  H  7997  8009       L1    19  0.76
      P1  H  8011  8017       L1     5  0.79

> <Gold.PLP.Chemscore.Internal.Correction>
0.0994

> <Gold.Rescore>
     Score         DG    S(hbond)    S(metal)    S(lipo)     H(rot)  DE(clash)    DE(int)     intcor
     18.28     -20.24       3.24        0.00      91.59       2.65       0.40       1.56       ----

> <Gold.Chemscore.Fitness>
18.2758

> <Gold.Chemscore.DG>
-20.2359

> <Gold.Chemscore.ZeroCoef>
-5.4800

> <Gold.Chemscore.Hbond>
3.2441

> <Gold.Chemscore.Metal>
0.0000

> <Gold.Chemscore.Lipo>
91.5873

> <Gold.Chemscore.Internal_Hbond>
0.0000

> <Gold.Chemscore.DEClash>
0.3986

> <Gold.Chemscore.DEInternal>
1.5615

> <Gold.Chemscore.Rot>
2.6543

> <Gold.Chemscore.Internal.Correction>
   9.000000E+99

> <Gold.Chemscore.Hbonds>
donor molecule, donor type, donor heavy atom, donor atom, acceptor molecule, acceptor atom, score
      L1  H     5    29       P1  7957  0.88
      P1  H  7989  7998       L1    20  0.93
      P1  H  7997  8009       L1    19  0.70
      P1  H  8011  8017       L1     5  0.11

> <Gold.Chemscore.Hbond.Weighted>
-10.8352

> <Gold.Chemscore.Metal.Weighted>
-0.0000

> <Gold.Chemscore.Lipo.Weighted>
-10.7157

> <Gold.Chemscore.Internal_Hbond.Weighted>
0.0000

> <Gold.Chemscore.DEClash.Weighted>
0.3986

> <Gold.Chemscore.DEInternal.Weighted>
1.5615

> <Gold.Chemscore.Rot.Weighted>
6.7950

> <Gold.Chemscore.Internal.Correction.Weighted>
   9.000000E+99

> <Gold.Protein.RotatedTorsions>
[ 6907 6896 6895 6894 ] final  151.44 input  -60.11 | X-H torsion
[ 7974 7965 7964 7962 ] final  -69.81 input  175.53 | X-H torsion
[ 8008 7997 7996 7995 ] final -164.74 input   59.86 | X-H torsion
[ 10167 10162 10161 10158 ] final  -50.80 input  -65.29 | X-H torsion
[ 10718 10713 10712 10709 ] final   85.47 input   66.30 | X-H torsion
[ 10763 10752 10751 10750 ] final   71.27 input  -60.55 | X-H torsion
[ 11005 11000 10999 10996 ] final -129.80 input  -57.11 | X-H torsion

> <Gold.Protein.ActiveResidues>
 VAL166  LYS551  ARG553  GLY616  TRP617  ASP618  TYR619  PRO620  LYS621  CYS622 
 ASP623  PHE694  ASN695  SER759  ASP760  ASP761  ALA762  ILE779  LEU786  VAL792 
 PHE793  MET794  SER795  GLU796  ALA797  LYS798  CYS799  TRP800  GLU811  SER814 

> <Gold.Protein.RotatedAtoms>
  152.1006  133.4248  159.4585 H   0  0  0  0  0  0  0  0  0  0  0  0  # atno 6907 bound_to 6896
  150.6864  134.2764  159.4618 H   0  0  0  0  0  0  0  0  0  0  0  0  # atno 6908 bound_to 6896
  152.0624  134.9585  160.0625 H   0  0  0  0  0  0  0  0  0  0  0  0  # atno 6909 bound_to 6896
  145.6989  140.9124  143.0741 H   0  0  0  0  0  0  0  0  0  0  0  0  # atno 7974 bound_to 7965
  155.8399  140.0947  157.1741 H   0  0  0  0  0  0  0  0  0  0  0  0  # atno 8008 bound_to 7997
  154.3981  140.1403  156.3777 H   0  0  0  0  0  0  0  0  0  0  0  0  # atno 8009 bound_to 7997
  155.8075  140.3451  155.5441 H   0  0  0  0  0  0  0  0  0  0  0  0  # atno 8010 bound_to 7997
  140.6620  143.2644  151.4412 H   0  0  0  0  0  0  0  0  0  0  0  0  # atno 10167 bound_to 10162
  157.6915  131.0176  150.2827 H   0  0  0  0  0  0  0  0  0  0  0  0  # atno 10718 bound_to 10713
  153.0389  135.5143  154.7568 H   0  0  0  0  0  0  0  0  0  0  0  0  # atno 10763 bound_to 10752
  154.6521  135.2926  154.9976 H   0  0  0  0  0  0  0  0  0  0  0  0  # atno 10764 bound_to 10752
  154.0856  135.6657  153.4897 H   0  0  0  0  0  0  0  0  0  0  0  0  # atno 10765 bound_to 10752
  140.9400  134.1205  157.4159 H   0  0  0  0  0  0  0  0  0  0  0  0  # atno 11005 bound_to 11000
  144.6974  139.8922  143.7454 LP  0  0  0  0  0  0  0  0  0  0  0  0  # atno 17320 bound_to 7965
  146.0815  139.3803  143.0461 LP  0  0  0  0  0  0  0  0  0  0  0  0  # atno 17321 bound_to 7965
  139.5856  144.1611  152.2025 LP  0  0  0  0  0  0  0  0  0  0  0  0  # atno 17342 bound_to 10162
  140.0950  144.5588  150.7028 LP  0  0  0  0  0  0  0  0  0  0  0  0  # atno 17343 bound_to 10162
  156.3371  130.3809  149.7441 LP  0  0  0  0  0  0  0  0  0  0  0  0  # atno 17370 bound_to 10713
  156.4962  130.8108  151.3114 LP  0  0  0  0  0  0  0  0  0  0  0  0  # atno 17371 bound_to 10713
  139.8818  135.0033  156.6182 LP  0  0  0  0  0  0  0  0  0  0  0  0  # atno 17394 bound_to 11000
  140.7746  133.8710  155.8519 LP  0  0  0  0  0  0  0  0  0  0  0  0  # atno 17395 bound_to 11000

$$$$
