AV-unprocessed.smi:101|AV-procd|sdf|926|dock6
  -GOLD-   2262017433D 1   1.00000     0.00000
 Structure written by MMmdl.
 44 46  0  0  0  0  0  0  0  0  1 V2000
  148.0876  136.3926  158.5503 C   0  0  0  0  0  0  0  0  0  0  0  0
  147.3954  137.6521  158.0563 C   0  0  0  0  0  0  0  0  0  0  0  0
  148.0169  138.5595  157.2603 C   0  0  0  0  0  0  0  0  0  0  0  0
  147.4101  139.7184  156.7947 N   0  0  0  0  0  0  0  0  0  0  0  0
  148.1443  140.6873  155.8962 C   0  0  1  0  0  0  0  0  0  0  0  0
  149.3319  141.0726  156.5239 O   0  0  0  0  0  0  0  0  0  0  0  0
  150.4257  140.9402  155.6223 C   0  0  1  0  0  0  0  0  0  0  0  0
  151.7154  140.6766  156.4073 C   0  0  0  0  0  0  0  0  0  0  0  0
  151.6871  141.4227  157.6126 O   0  0  0  0  0  0  0  0  0  0  0  0
  152.5986  141.1842  158.5751 C   0  0  0  0  0  0  0  0  0  0  0  0
  153.4586  140.3044  158.4973 O   0  0  0  0  0  0  0  0  0  0  0  0
  152.4588  142.0975  159.7460 C   0  0  0  0  0  0  0  0  0  0  0  0
  151.7722  143.3242  159.5900 C   0  0  0  0  0  0  0  0  0  0  0  0
  151.6243  144.2070  160.6775 C   0  0  0  0  0  0  0  0  0  0  0  0
  152.1617  143.8739  161.9344 C   0  0  0  0  0  0  0  0  0  0  0  0
  152.8471  142.6567  162.1025 C   0  0  0  0  0  0  0  0  0  0  0  0
  152.9957  141.7725  161.0161 C   0  0  0  0  0  0  0  0  0  0  0  0
  150.0019  139.7730  154.7332 C   0  0  2  0  0  0  0  0  0  0  0  0
  150.7055  139.7244  153.5063 O   0  0  0  0  0  0  0  0  0  0  0  0
  148.5050  140.0074  154.5645 C   0  0  2  0  0  0  0  0  0  0  0  0
  148.2008  140.8482  153.4662 O   0  0  0  0  0  0  0  0  0  0  0  0
  146.0635  139.9745  157.1248 C   0  0  0  0  0  0  0  0  0  0  0  0
  145.4496  140.9586  156.7140 O   0  0  0  0  0  0  0  0  0  0  0  0
  145.4267  139.0463  157.9464 N   0  0  0  0  0  0  0  0  0  0  0  0
  146.0034  137.8799  158.4549 C   0  0  0  0  0  0  0  0  0  0  0  0
  145.3376  137.1374  159.1747 O   0  0  0  0  0  0  0  0  0  0  0  0
  144.4643  139.2292  158.1908 H   0  0  0  0  0  0  0  0  0  0  0  0
  149.1156  136.3285  158.1925 H   0  0  0  0  0  0  0  0  0  0  0  0
  147.5569  135.5052  158.2035 H   0  0  0  0  0  0  0  0  0  0  0  0
  148.1113  136.3737  159.6404 H   0  0  0  0  0  0  0  0  0  0  0  0
  149.0385  138.3589  156.9723 H   0  0  0  0  0  0  0  0  0  0  0  0
  147.5065  141.5675  155.7924 H   0  0  0  0  0  0  0  0  0  0  0  0
  150.5075  141.8514  155.0267 H   0  0  0  0  0  0  0  0  0  0  0  0
  151.8271  139.6112  156.6140 H   0  0  0  0  0  0  0  0  0  0  0  0
  152.5783  140.9910  155.8188 H   0  0  0  0  0  0  0  0  0  0  0  0
  151.3513  143.6018  158.6343 H   0  0  0  0  0  0  0  0  0  0  0  0
  151.0976  145.1408  160.5463 H   0  0  0  0  0  0  0  0  0  0  0  0
  152.0488  144.5509  162.7683 H   0  0  0  0  0  0  0  0  0  0  0  0
  153.2612  142.3999  163.0663 H   0  0  0  0  0  0  0  0  0  0  0  0
  153.5285  140.8471  161.1797 H   0  0  0  0  0  0  0  0  0  0  0  0
  150.1562  138.8336  155.2663 H   0  0  0  0  0  0  0  0  0  0  0  0
  150.0869  139.8376  152.8009 H   0  0  0  0  0  0  0  0  0  0  0  0
  147.9614  139.0698  154.4391 H   0  0  0  0  0  0  0  0  0  0  0  0
  148.6335  140.5067  152.6983 H   0  0  0  0  0  0  0  0  0  0  0  0
  1  2  1  0  0  0  0
  1 28  1  0  0  0  0
  1 29  1  0  0  0  0
  1 30  1  0  0  0  0
  2 25  1  0  0  0  0
  2  3  2  0  0  0  0
  3  4  1  0  0  0  0
  3 31  1  0  0  0  0
  4  5  1  0  0  0  0
  4 22  1  0  0  0  0
  5 20  1  0  0  0  0
  5  6  1  0  0  0  0
  5 32  1  0  0  0  0
  6  7  1  0  0  0  0
  7  8  1  0  0  0  0
  7 18  1  0  0  0  0
  7 33  1  0  0  0  0
  8  9  1  0  0  0  0
  8 34  1  0  0  0  0
  8 35  1  0  0  0  0
  9 10  1  0  0  0  0
 10 11  2  0  0  0  0
 10 12  1  0  0  0  0
 12 17  1  0  0  0  0
 12 13  2  0  0  0  0
 13 14  1  0  0  0  0
 13 36  1  0  0  0  0
 14 15  2  0  0  0  0
 14 37  1  0  0  0  0
 15 16  1  0  0  0  0
 15 38  1  0  0  0  0
 16 17  2  0  0  0  0
 16 39  1  0  0  0  0
 17 40  1  0  0  0  0
 18 19  1  0  0  0  0
 18 20  1  0  0  0  0
 18 41  1  0  0  0  0
 19 42  1  0  0  0  0
 20 21  1  0  0  0  0
 20 43  1  0  0  0  0
 21 44  1  0  0  0  0
 22 23  2  0  0  0  0
 22 24  1  0  0  0  0
 24 27  1  0  0  0  0
 24 25  1  0  0  0  0
 25 26  2  0  0  0  0
M  END
> <s_m_source_file>
AV-unprocessed.smi

> <i_m_source_file_index>
101

> <i_lp_mmshare_version>
43012

> <i_f3d_flags>
0

> <s_epik_input>
Tz1jMVtuSF1jKD1PKW4oW2NIXWMxW0NIM10pW0NAQEhdMk9bQ0BIXShbQ0BASF0oW09IXSlbQ0BIXTJbT0hdKVtDSDJdT0MoPU8pYzNbY0hdW2NIXVtjSF1bY0hdW2NIXTM=

> <s_epik_cmdline>
J2VwaWtfcHl0aG9uJywgJy1waCcsICc3LjAnLCAnLXRuJywgJzgnLCAnLW1hJywgJzIwMCcsICctbWV0YWxfYmluZGluZycsICctaW1hZScsICc8aW5maWxlLm1hZT4nLCAnLW9tYWUnLCAnPG91dGZpbGUubWFlPic=

> <r_lp_tautomer_probability>
0.999537

> <r_epik_Ionization_Penalty>
0.00263537

> <r_epik_Ionization_Penalty_Charging>
0.00263428

> <r_epik_Ionization_Penalty_Neutral>
1.09111e-06

> <r_epik_State_Penalty>
0.00183335

> <r_epik_Charging_Adjusted_Penalty>
0.00446763

> <i_epik_Tot_Q>
0

> <i_epik_Tot_abs_Q>
0

> <r_epik_Metal_State_Penalty>
1.00528

> <b_epik_Metal_Only>
0

> <s_epik_Chemistry_Notes>
This compound has an ester and may undergo hydrolysis at high or low pH. This compound contains an acetal/aminal-like group ( X-CH(R)-Y where X, Y are N, S, or O) that may be acid/base labile, releasing an aldehyde.

> <s_lp_Force_Field>
OPLS_2005

> <r_lp_Energy>
34.5485

> <b_lp_Chiralities_Consistent>
1

> <s_lp_Variant>
AV-unprocessed.smi:101-14

> <Gold.Version>
5.8.1

> <Gold.Id.Protein>
6NUR|6NUR_protein|mol2

> <Gold.PLP.Fitness>
49.3792

> <Gold.PLP.PLP>
-38.7325

> <Gold.PLP.part.hbond>
-4.0000

> <Gold.PLP.part.metal>
0.0000

> <Gold.PLP.part.buried>
-3.0103

> <Gold.PLP.part.nonpolar>
-31.3300

> <Gold.PLP.part.repulsive>
0.1619

> <Gold.PLP.ligand.clash>
0.0000

> <Gold.PLP.ligand.torsion>
0.5792

> <Gold.PLP.Chemscore.Hbond>
3.9200

> <Gold.PLP.Chemscore.CHOScore>
0.0000

> <Gold.PLP.Chemscore.Metal>
0.0000

> <Gold.Chemscore.Hbonds>
donor molecule, donor type, donor heavy atom, donor atom, acceptor molecule, acceptor atom, score
      L1  H    19    42       P1  7957  1.00
      L1  H    21    44       P1  7957  1.00
      P1  H  7989  7998       L1    19  0.68
      P1  H  7997  8009       L1    11  0.88

> <Gold.PLP.Chemscore.Internal.Correction>
0.0451

> <Gold.Rescore>
     Score         DG    S(hbond)    S(metal)    S(lipo)     H(rot)  DE(clash)    DE(int)     intcor
     16.31     -17.53       2.86        0.00      94.02       3.32       0.54       0.68       ----

> <Gold.Chemscore.Fitness>
16.3098

> <Gold.Chemscore.DG>
-17.5336

> <Gold.Chemscore.ZeroCoef>
-5.4800

> <Gold.Chemscore.Hbond>
2.8579

> <Gold.Chemscore.Metal>
0.0000

> <Gold.Chemscore.Lipo>
94.0179

> <Gold.Chemscore.Internal_Hbond>
0.0000

> <Gold.Chemscore.DEClash>
0.5431

> <Gold.Chemscore.DEInternal>
0.6807

> <Gold.Chemscore.Rot>
3.3172

> <Gold.Chemscore.Internal.Correction>
   9.000000E+99

> <Gold.Chemscore.Hbonds>
donor molecule, donor type, donor heavy atom, donor atom, acceptor molecule, acceptor atom, score
      L1  H    19    42       P1  7957  0.97
      L1  H    21    44       P1  7957  1.00
      P1  H  7989  7998       L1    19  0.28
      P1  H  7997  8009       L1    11  0.86

> <Gold.Chemscore.Hbond.Weighted>
-9.5456

> <Gold.Chemscore.Metal.Weighted>
-0.0000

> <Gold.Chemscore.Lipo.Weighted>
-11.0001

> <Gold.Chemscore.Internal_Hbond.Weighted>
0.0000

> <Gold.Chemscore.DEClash.Weighted>
0.5431

> <Gold.Chemscore.DEInternal.Weighted>
0.6807

> <Gold.Chemscore.Rot.Weighted>
8.4920

> <Gold.Chemscore.Internal.Correction.Weighted>
   9.000000E+99

> <Gold.Protein.RotatedTorsions>
[ 6907 6896 6895 6894 ] final  142.18 input  -60.11 | X-H torsion
[ 7974 7965 7964 7962 ] final  -26.60 input  175.53 | X-H torsion
[ 8008 7997 7996 7995 ] final  151.46 input   59.86 | X-H torsion
[ 10167 10162 10161 10158 ] final  -93.78 input  -65.29 | X-H torsion
[ 10718 10713 10712 10709 ] final   70.29 input   66.30 | X-H torsion
[ 10763 10752 10751 10750 ] final   94.40 input  -60.55 | X-H torsion
[ 11005 11000 10999 10996 ] final  131.79 input  -57.11 | X-H torsion

> <Gold.Protein.ActiveResidues>
 VAL166  LYS551  ARG553  GLY616  TRP617  ASP618  TYR619  PRO620  LYS621  CYS622 
 ASP623  PHE694  ASN695  SER759  ASP760  ASP761  ALA762  ILE779  LEU786  VAL792 
 PHE793  MET794  SER795  GLU796  ALA797  LYS798  CYS799  TRP800  GLU811  SER814 

> <Gold.Protein.RotatedAtoms>
  152.2219  133.4990  159.5166 H   0  0  0  0  0  0  0  0  0  0  0  0  # atno 6907 bound_to 6896
  150.7015  134.1331  159.4086 H   0  0  0  0  0  0  0  0  0  0  0  0  # atno 6908 bound_to 6896
  151.9252  135.0280  160.0576 H   0  0  0  0  0  0  0  0  0  0  0  0  # atno 6909 bound_to 6896
  146.1415  140.5041  142.8650 H   0  0  0  0  0  0  0  0  0  0  0  0  # atno 7974 bound_to 7965
  156.2672  140.2047  156.6179 H   0  0  0  0  0  0  0  0  0  0  0  0  # atno 8008 bound_to 7997
  154.6780  140.0543  157.0260 H   0  0  0  0  0  0  0  0  0  0  0  0  # atno 8009 bound_to 7997
  155.1042  140.3209  155.4542 H   0  0  0  0  0  0  0  0  0  0  0  0  # atno 8010 bound_to 7997
  140.3212  143.3048  152.0045 H   0  0  0  0  0  0  0  0  0  0  0  0  # atno 10167 bound_to 10162
  157.6392  130.9470  150.0631 H   0  0  0  0  0  0  0  0  0  0  0  0  # atno 10718 bound_to 10713
  153.2413  135.4291  155.0700 H   0  0  0  0  0  0  0  0  0  0  0  0  # atno 10763 bound_to 10752
  154.8341  135.3403  154.6646 H   0  0  0  0  0  0  0  0  0  0  0  0  # atno 10764 bound_to 10752
  153.7069  135.7025  153.5104 H   0  0  0  0  0  0  0  0  0  0  0  0  # atno 10765 bound_to 10752
  139.9751  134.9566  156.9489 H   0  0  0  0  0  0  0  0  0  0  0  0  # atno 11005 bound_to 11000
  144.7797  140.5815  143.6614 LP  0  0  0  0  0  0  0  0  0  0  0  0  # atno 17320 bound_to 7965
  145.5037  139.1482  143.3643 LP  0  0  0  0  0  0  0  0  0  0  0  0  # atno 17321 bound_to 7965
  139.4874  144.6310  151.7070 LP  0  0  0  0  0  0  0  0  0  0  0  0  # atno 17342 bound_to 10162
  140.5482  144.0468  150.6116 LP  0  0  0  0  0  0  0  0  0  0  0  0  # atno 17343 bound_to 10162
  156.1657  130.3645  149.9235 LP  0  0  0  0  0  0  0  0  0  0  0  0  # atno 17370 bound_to 10713
  156.7223  130.9011  151.3619 LP  0  0  0  0  0  0  0  0  0  0  0  0  # atno 17371 bound_to 10713
  140.5211  134.0906  155.7292 LP  0  0  0  0  0  0  0  0  0  0  0  0  # atno 17394 bound_to 11000
  141.1429  133.9107  157.2284 LP  0  0  0  0  0  0  0  0  0  0  0  0  # atno 17395 bound_to 11000

$$$$
