AV-unprocessed.smi:3004|AV-procd|sdf|11439|dock9
  -GOLD-   2272016373D 1   1.00000     0.00000
 Structure written by MMmdl.
 47 48  0  0  0  0  0  0  0  0  2 V2000
  148.4099  141.7085  154.1438 C   0  0  0  0  0  0  0  0  0  0  0  0
  149.3551  140.8149  154.8910 C   0  0  0  0  0  0  0  0  0  0  0  0
  149.6257  140.7903  156.2876 C   0  0  0  0  0  0  0  0  0  0  0  0
  150.5484  139.7936  156.4358 C   0  0  0  0  0  0  0  0  0  0  0  0
  151.2220  139.2819  157.6666 C   0  0  0  0  0  0  0  0  0  0  0  0
  150.7897  139.2795  155.1737 N   0  0  0  0  0  0  0  0  0  0  0  0
  151.6767  138.1980  154.7758 C   0  0  0  0  0  0  0  0  0  0  0  0
  151.0978  136.8394  155.1746 C   0  0  0  0  0  0  0  0  0  0  0  0
  151.7416  136.0830  155.9017 O   0  0  0  0  0  0  0  0  0  0  0  0
  149.8782  136.5447  154.6985 N   0  0  0  0  0  0  0  0  0  0  0  0
  149.1327  135.3261  154.9913 C   0  0  0  0  0  0  0  0  0  0  0  0
  147.6113  135.5291  154.8199 C   0  0  0  0  0  0  0  0  0  0  0  0
  147.1301  135.3342  153.4204 N   0  3  2  0  0  0  0  0  0  0  0  0
  145.8973  136.1251  153.1328 C   0  0  0  0  0  0  0  0  0  0  0  0
  145.4766  136.0243  151.6596 C   0  0  0  0  0  0  0  0  0  0  0  0
  145.2597  134.5659  151.2590 C   0  0  0  0  0  0  0  0  0  0  0  0
  146.5299  133.7669  151.5573 C   0  0  0  0  0  0  0  0  0  0  0  0
  146.9576  133.8935  153.0362 C   0  0  1  0  0  0  0  0  0  0  0  0
  148.2261  133.0433  153.2568 C   0  0  0  0  0  0  0  0  0  0  0  0
  150.0572  139.9097  154.2289 N   0  0  0  0  0  0  0  0  0  0  0  0
  147.8411  142.3390  154.8274 H   0  0  0  0  0  0  0  0  0  0  0  0
  147.6965  141.1259  153.5604 H   0  0  0  0  0  0  0  0  0  0  0  0
  148.9479  142.3632  153.4581 H   0  0  0  0  0  0  0  0  0  0  0  0
  149.2031  141.4096  157.0650 H   0  0  0  0  0  0  0  0  0  0  0  0
  150.8615  139.8038  158.5531 H   0  0  0  0  0  0  0  0  0  0  0  0
  152.3006  139.4276  157.6080 H   0  0  0  0  0  0  0  0  0  0  0  0
  151.0285  138.2179  157.8030 H   0  0  0  0  0  0  0  0  0  0  0  0
  151.8416  138.2471  153.6979 H   0  0  0  0  0  0  0  0  0  0  0  0
  152.6493  138.3346  155.2486 H   0  0  0  0  0  0  0  0  0  0  0  0
  149.4215  137.2315  154.1151 H   0  0  0  0  0  0  0  0  0  0  0  0
  149.5160  134.5376  154.3439 H   0  0  0  0  0  0  0  0  0  0  0  0
  149.3575  135.0309  156.0165 H   0  0  0  0  0  0  0  0  0  0  0  0
  147.1354  134.8115  155.4844 H   0  0  0  0  0  0  0  0  0  0  0  0
  147.3108  136.5192  155.1656 H   0  0  0  0  0  0  0  0  0  0  0  0
  145.0864  135.7839  153.7785 H   0  0  0  0  0  0  0  0  0  0  0  0
  146.0505  137.1799  153.3511 H   0  0  0  0  0  0  0  0  0  0  0  0
  144.5628  136.5953  151.4927 H   0  0  0  0  0  0  0  0  0  0  0  0
  146.2427  136.4730  151.0255 H   0  0  0  0  0  0  0  0  0  0  0  0
  144.4166  134.1479  151.8106 H   0  0  0  0  0  0  0  0  0  0  0  0
  145.0092  134.4972  150.2000 H   0  0  0  0  0  0  0  0  0  0  0  0
  146.3603  132.7198  151.3037 H   0  0  0  0  0  0  0  0  0  0  0  0
  147.3368  134.1121  150.9087 H   0  0  0  0  0  0  0  0  0  0  0  0
  146.1624  133.4752  153.6559 H   0  0  0  0  0  0  0  0  0  0  0  0
  148.1130  132.0532  152.8141 H   0  0  0  0  0  0  0  0  0  0  0  0
  148.4353  132.8757  154.3128 H   0  0  0  0  0  0  0  0  0  0  0  0
  149.1016  133.5073  152.8014 H   0  0  0  0  0  0  0  0  0  0  0  0
  147.8540  135.7003  152.8186 H   0  0  0  0  0  0  0  0  0  0  0  0
  1  2  1  0  0  0  0
  1 21  1  0  0  0  0
  1 22  1  0  0  0  0
  1 23  1  0  0  0  0
  2 20  2  0  0  0  0
  2  3  1  0  0  0  0
  3  4  2  0  0  0  0
  3 24  1  0  0  0  0
  4  5  1  0  0  0  0
  4  6  1  0  0  0  0
  5 25  1  0  0  0  0
  5 26  1  0  0  0  0
  5 27  1  0  0  0  0
  6  7  1  0  0  0  0
  6 20  1  0  0  0  0
  7  8  1  0  0  0  0
  7 28  1  0  0  0  0
  7 29  1  0  0  0  0
  8  9  2  0  0  0  0
  8 10  1  0  0  0  0
 10 11  1  0  0  0  0
 10 30  1  0  0  0  0
 11 12  1  0  0  0  0
 11 31  1  0  0  0  0
 11 32  1  0  0  0  0
 12 13  1  0  0  0  0
 12 33  1  0  0  0  0
 12 34  1  0  0  0  0
 13 18  1  0  0  0  0
 13 14  1  0  0  0  0
 13 47  1  0  0  0  0
 14 15  1  0  0  0  0
 14 35  1  0  0  0  0
 14 36  1  0  0  0  0
 15 16  1  0  0  0  0
 15 37  1  0  0  0  0
 15 38  1  0  0  0  0
 16 17  1  0  0  0  0
 16 39  1  0  0  0  0
 16 40  1  0  0  0  0
 17 18  1  0  0  0  0
 17 41  1  0  0  0  0
 17 42  1  0  0  0  0
 18 19  1  0  0  0  0
 18 43  1  0  0  0  0
 19 44  1  0  0  0  0
 19 45  1  0  0  0  0
 19 46  1  0  0  0  0
M  CHG  1  13   1
M  END
> <s_m_source_file>
AV-unprocessed.smi

> <i_m_source_file_index>
3004

> <i_lp_mmshare_version>
43012

> <i_f3d_flags>
0

> <s_epik_input>
W0NIM11jMVtjSF1jKFtDSDNdKW4objEpW0NIMl1DKD1PKVtOSF1bQ0gyXVtDSDJdTjJbQ0gyXVtDSDJdW0NIMl1bQ0gyXVtDQEhdMltDSDNd

> <s_epik_cmdline>
J2VwaWtfcHl0aG9uJywgJy1waCcsICc3LjAnLCAnLXRuJywgJzgnLCAnLW1hJywgJzIwMCcsICctbWV0YWxfYmluZGluZycsICctaW1hZScsICc8aW5maWxlLm1hZT4nLCAnLW9tYWUnLCAnPG91dGZpbGUubWFlPic=

> <r_lp_tautomer_probability>
1

> <r_epik_Ionization_Penalty>
0.00303644

> <r_epik_Ionization_Penalty_Charging>
0.00284254

> <r_epik_Ionization_Penalty_Neutral>
0.000193908

> <r_epik_State_Penalty>
-0

> <r_epik_Charging_Adjusted_Penalty>
0.00284254

> <i_epik_Tot_Q>
1

> <i_epik_Tot_abs_Q>
1

> <r_epik_Metal_State_Penalty>
-0

> <b_epik_Metal_Only>
0

> <s_lp_Force_Field>
OPLS_2005

> <r_lp_Energy>
17.9788

> <b_lp_Chiralities_Consistent>
1

> <s_lp_Variant>
AV-unprocessed.smi:3004-1

> <Gold.Version>
5.8.1

> <Gold.Id.Protein>
6NUR|6NUR_protein|mol2

> <Gold.PLP.Fitness>
43.8590

> <Gold.PLP.PLP>
-34.0806

> <Gold.PLP.part.hbond>
-4.0000

> <Gold.PLP.part.metal>
0.0000

> <Gold.PLP.part.buried>
-2.7964

> <Gold.PLP.part.nonpolar>
-28.8276

> <Gold.PLP.part.repulsive>
0.6342

> <Gold.PLP.ligand.clash>
0.0000

> <Gold.PLP.ligand.torsion>
0.7509

> <Gold.PLP.Chemscore.Hbond>
3.7500

> <Gold.PLP.Chemscore.CHOScore>
0.0000

> <Gold.PLP.Chemscore.Metal>
0.0000

> <Gold.Chemscore.Hbonds>
donor molecule, donor type, donor heavy atom, donor atom, acceptor molecule, acceptor atom, score
      L1  H    13    47       P1  7948  2.00
      P1  H  7989  7998       L1    20  0.70
      P1  H 10752 10763       L1     9  1.00

> <Gold.PLP.Chemscore.Internal.Correction>
0.0302

> <Gold.Rescore>
     Score         DG    S(hbond)    S(metal)    S(lipo)     H(rot)  DE(clash)    DE(int)     intcor
     15.08     -15.83       1.97        0.00      68.81       1.67       0.00       0.75       ----

> <Gold.Chemscore.Fitness>
15.0823

> <Gold.Chemscore.DG>
-15.8346

> <Gold.Chemscore.ZeroCoef>
-5.4800

> <Gold.Chemscore.Hbond>
1.9666

> <Gold.Chemscore.Metal>
0.0000

> <Gold.Chemscore.Lipo>
68.8052

> <Gold.Chemscore.Internal_Hbond>
0.0000

> <Gold.Chemscore.DEClash>
0.0000

> <Gold.Chemscore.DEInternal>
0.7523

> <Gold.Chemscore.Rot>
1.6657

> <Gold.Chemscore.Internal.Correction>
   9.000000E+99

> <Gold.Chemscore.Hbonds>
donor molecule, donor type, donor heavy atom, donor atom, acceptor molecule, acceptor atom, score
      L1  H    13    47       P1  7948  0.94
      P1  H  7989  7998       L1    20  0.04
      P1  H 10752 10763       L1     9  0.35

> <Gold.Chemscore.Hbond.Weighted>
-6.5685

> <Gold.Chemscore.Metal.Weighted>
-0.0000

> <Gold.Chemscore.Lipo.Weighted>
-8.0502

> <Gold.Chemscore.Internal_Hbond.Weighted>
0.0000

> <Gold.Chemscore.DEClash.Weighted>
0.0000

> <Gold.Chemscore.DEInternal.Weighted>
0.7523

> <Gold.Chemscore.Rot.Weighted>
4.2641

> <Gold.Chemscore.Internal.Correction.Weighted>
   9.000000E+99

> <Gold.Protein.RotatedTorsions>
[ 6907 6896 6895 6894 ] final  125.25 input  -60.11 | X-H torsion
[ 7974 7965 7964 7962 ] final -113.13 input  175.53 | X-H torsion
[ 8008 7997 7996 7995 ] final  169.64 input   59.86 | X-H torsion
[ 10167 10162 10161 10158 ] final   86.16 input  -65.29 | X-H torsion
[ 10718 10713 10712 10709 ] final  -75.94 input   66.30 | X-H torsion
[ 10763 10752 10751 10750 ] final   72.90 input  -60.55 | X-H torsion
[ 11005 11000 10999 10996 ] final  -86.92 input  -57.11 | X-H torsion

> <Gold.Protein.ActiveResidues>
 VAL166  LYS551  ARG553  GLY616  TRP617  ASP618  TYR619  PRO620  LYS621  CYS622 
 ASP623  PHE694  ASN695  SER759  ASP760  ASP761  ALA762  ILE779  LEU786  VAL792 
 PHE793  MET794  SER795  GLU796  ALA797  LYS798  CYS799  TRP800  GLU811  SER814 

> <Gold.Protein.RotatedAtoms>
  152.4008  133.6816  159.6314 H   0  0  0  0  0  0  0  0  0  0  0  0  # atno 6907 bound_to 6896
  150.7900  133.8794  159.3290 H   0  0  0  0  0  0  0  0  0  0  0  0  # atno 6908 bound_to 6896
  151.6559  135.0997  160.0221 H   0  0  0  0  0  0  0  0  0  0  0  0  # atno 6909 bound_to 6896
  145.1357  140.8749  143.3732 H   0  0  0  0  0  0  0  0  0  0  0  0  # atno 7974 bound_to 7965
  156.1439  140.1559  156.8878 H   0  0  0  0  0  0  0  0  0  0  0  0  # atno 8008 bound_to 7997
  154.5011  140.0825  156.7837 H   0  0  0  0  0  0  0  0  0  0  0  0  # atno 8009 bound_to 7997
  155.4027  140.3415  155.4260 H   0  0  0  0  0  0  0  0  0  0  0  0  # atno 8010 bound_to 7997
  139.8903  144.6389  150.8746 H   0  0  0  0  0  0  0  0  0  0  0  0  # atno 10167 bound_to 10162
  156.0191  130.4453  150.3118 H   0  0  0  0  0  0  0  0  0  0  0  0  # atno 10718 bound_to 10713
  153.0487  135.5083  154.7813 H   0  0  0  0  0  0  0  0  0  0  0  0  # atno 10763 bound_to 10752
  154.6692  135.2950  154.9767 H   0  0  0  0  0  0  0  0  0  0  0  0  # atno 10764 bound_to 10752
  154.0591  135.6693  153.4862 H   0  0  0  0  0  0  0  0  0  0  0  0  # atno 10765 bound_to 10752
  141.1624  133.7481  156.9231 H   0  0  0  0  0  0  0  0  0  0  0  0  # atno 11005 bound_to 11000
  145.0587  139.3123  143.5891 LP  0  0  0  0  0  0  0  0  0  0  0  0  # atno 17320 bound_to 7965
  146.3510  140.0021  142.8675 LP  0  0  0  0  0  0  0  0  0  0  0  0  # atno 17321 bound_to 7965
  140.7728  143.3515  151.2005 LP  0  0  0  0  0  0  0  0  0  0  0  0  # atno 17342 bound_to 10162
  139.7115  143.9369  152.2949 LP  0  0  0  0  0  0  0  0  0  0  0  0  # atno 17343 bound_to 10162
  157.1220  131.0249  151.3005 LP  0  0  0  0  0  0  0  0  0  0  0  0  # atno 17370 bound_to 10713
  157.4620  130.7659  149.7245 LP  0  0  0  0  0  0  0  0  0  0  0  0  # atno 17371 bound_to 10713
  140.1438  134.9276  157.2502 LP  0  0  0  0  0  0  0  0  0  0  0  0  # atno 17394 bound_to 11000
  140.2805  134.3355  155.7344 LP  0  0  0  0  0  0  0  0  0  0  0  0  # atno 17395 bound_to 11000

$$$$
