AV-unprocessed.smi:1962|AV-procd|sdf|7924|dock7
  -GOLD-   2272010 93D 1   1.00000     0.00000
 Structure written by MMmdl.
 35 36  0  0  0  0  0  0  0  0  2 V2000
  149.4466  142.0796  157.4289 C   0  0  0  0  0  0  0  0  0  0  0  0
  150.9498  141.8422  157.2285 C   0  0  2  0  0  0  0  0  0  0  0  0
  151.7187  143.1856  157.1176 C   0  0  0  0  0  0  0  0  0  0  0  0
  151.8561  143.9111  158.3784 N   0  0  0  0  0  0  0  0  0  0  0  0
  151.2998  145.1222  158.7463 C   0  0  0  0  0  0  0  0  0  0  0  0
  151.7239  145.4014  160.0138 C   0  0  0  0  0  0  0  0  0  0  0  0
  152.5580  144.2966  160.3409 C   0  0  0  0  0  0  0  0  0  0  0  0
  152.6472  143.4152  159.3590 N   0  0  0  0  0  0  0  0  0  0  0  0
  151.1382  141.0453  156.0106 N   0  5  0  0  0  0  0  0  0  0  0  0
  152.1371  140.1333  155.8047 C   0  0  0  0  0  0  0  0  0  0  0  0
  152.8041  140.0032  154.7708 O   0  0  0  0  0  0  0  0  0  0  0  0
  152.4714  139.1761  156.9005 C   0  0  0  0  0  0  0  0  0  0  0  0
  153.5857  138.5143  156.8559 N   0  0  0  0  0  0  0  0  0  0  0  0
  153.9623  137.6376  157.8521 N   0  0  0  0  0  0  0  0  0  0  0  0
  155.3550  137.1998  157.7872 C   0  0  0  0  0  0  0  0  0  0  0  0
  153.1376  137.1743  158.8231 C   0  0  0  0  0  0  0  0  0  0  0  0
  153.4952  136.4068  159.7170 O   0  0  0  0  0  0  0  0  0  0  0  0
  151.6782  137.6306  158.7526 C   0  0  0  0  0  0  0  0  0  0  0  0
  151.5309  139.0104  158.0811 C   0  0  0  0  0  0  0  0  0  0  0  0
  149.2597  142.6560  158.3350 H   0  0  0  0  0  0  0  0  0  0  0  0
  148.9077  141.1363  157.5243 H   0  0  0  0  0  0  0  0  0  0  0  0
  149.0135  142.6283  156.5915 H   0  0  0  0  0  0  0  0  0  0  0  0
  151.3090  141.3198  158.1168 H   0  0  0  0  0  0  0  0  0  0  0  0
  152.7105  143.0199  156.6926 H   0  0  0  0  0  0  0  0  0  0  0  0
  151.1991  143.8449  156.4217 H   0  0  0  0  0  0  0  0  0  0  0  0
  150.6486  145.6724  158.0832 H   0  0  0  0  0  0  0  0  0  0  0  0
  151.4762  146.2633  160.6148 H   0  0  0  0  0  0  0  0  0  0  0  0
  153.1027  144.1126  161.2552 H   0  0  0  0  0  0  0  0  0  0  0  0
  155.4158  136.1126  157.7178 H   0  0  0  0  0  0  0  0  0  0  0  0
  155.8966  137.5176  158.6793 H   0  0  0  0  0  0  0  0  0  0  0  0
  155.8739  137.6143  156.9209 H   0  0  0  0  0  0  0  0  0  0  0  0
  151.1292  136.8834  158.1783 H   0  0  0  0  0  0  0  0  0  0  0  0
  151.2395  137.6454  159.7508 H   0  0  0  0  0  0  0  0  0  0  0  0
  151.7241  139.8011  158.8071 H   0  0  0  0  0  0  0  0  0  0  0  0
  150.4923  139.1250  157.7691 H   0  0  0  0  0  0  0  0  0  0  0  0
  1  2  1  0  0  0  0
  1 20  1  0  0  0  0
  1 21  1  0  0  0  0
  1 22  1  0  0  0  0
  2  3  1  0  0  0  0
  2  9  1  0  0  0  0
  2 23  1  0  0  0  0
  3  4  1  0  0  0  0
  3 24  1  0  0  0  0
  3 25  1  0  0  0  0
  4  8  1  0  0  0  0
  4  5  1  0  0  0  0
  5  6  2  0  0  0  0
  5 26  1  0  0  0  0
  6  7  1  0  0  0  0
  6 27  1  0  0  0  0
  7  8  2  0  0  0  0
  7 28  1  0  0  0  0
  9 10  1  0  0  0  0
 10 11  2  0  0  0  0
 10 12  1  0  0  0  0
 12 19  1  0  0  0  0
 12 13  2  0  0  0  0
 13 14  1  0  0  0  0
 14 15  1  0  0  0  0
 14 16  1  0  0  0  0
 15 29  1  0  0  0  0
 15 30  1  0  0  0  0
 15 31  1  0  0  0  0
 16 17  2  0  0  0  0
 16 18  1  0  0  0  0
 18 19  1  0  0  0  0
 18 32  1  0  0  0  0
 18 33  1  0  0  0  0
 19 34  1  0  0  0  0
 19 35  1  0  0  0  0
M  CHG  1   9  -1
M  END
> <s_m_source_file>
AV-unprocessed.smi

> <i_m_source_file_index>
1962

> <i_lp_mmshare_version>
43012

> <i_f3d_flags>
0

> <s_epik_input>
bjFbY0hdW2NIXVtjSF1uMVtDSDJdW0NAQEhdKFtDSDNdKVtOSF1DKD1PKUMyPU5OKFtDSDNdKUMoPU8pW0NIMl1bQ0gyXTI=

> <s_epik_cmdline>
J2VwaWtfcHl0aG9uJywgJy1waCcsICc3LjAnLCAnLXRuJywgJzgnLCAnLW1hJywgJzIwMCcsICctbWV0YWxfYmluZGluZycsICctaW1hZScsICc8aW5maWxlLm1hZT4nLCAnLW9tYWUnLCAnPG91dGZpbGUubWFlPic=

> <r_lp_tautomer_probability>
1

> <r_epik_Ionization_Penalty>
5.21086

> <r_epik_Ionization_Penalty_Charging>
5.21084

> <r_epik_Ionization_Penalty_Neutral>
2.41961e-05

> <r_epik_State_Penalty>
5.21075

> <r_epik_Charging_Adjusted_Penalty>
10.4216

> <i_epik_Tot_Q>
-1

> <i_epik_Tot_abs_Q>
1

> <r_epik_Metal_State_Penalty>
1.27477

> <b_epik_Metal_Only>
1

> <s_epik_Chemistry_Notes>
This compound has an imine and may undergo hydrolysis.

> <s_lp_Force_Field>
OPLS_2005

> <r_lp_Energy>
24.8429

> <b_lp_Chiralities_Consistent>
1

> <s_lp_Variant>
AV-unprocessed.smi:1962-3

> <Gold.Version>
5.8.1

> <Gold.Id.Protein>
6NUR|6NUR_protein|mol2

> <Gold.PLP.Fitness>
43.2784

> <Gold.PLP.PLP>
-34.4508

> <Gold.PLP.part.hbond>
-4.0000

> <Gold.PLP.part.metal>
0.0000

> <Gold.PLP.part.buried>
-6.2705

> <Gold.PLP.part.nonpolar>
-24.9800

> <Gold.PLP.part.repulsive>
0.0499

> <Gold.PLP.ligand.clash>
0.0000

> <Gold.PLP.ligand.torsion>
0.9768

> <Gold.PLP.Chemscore.Hbond>
2.6532

> <Gold.PLP.Chemscore.CHOScore>
0.9269

> <Gold.PLP.Chemscore.Metal>
0.0000

> <Gold.Chemscore.Hbonds>
donor molecule, donor type, donor heavy atom, donor atom, acceptor molecule, acceptor atom, score
      P1  H  6896  6909       L1    17  0.93
      P1  H  7989  7998       L1    11  0.38
      P1  H  7997  8008       L1    13  0.09
      P1  H  7997  8009       L1    11  0.75
      L1  C     5    26       P1  8029  0.16

> <Gold.PLP.Chemscore.Internal.Correction>
0.0410

> <Gold.Rescore>
     Score         DG    S(hbond)    S(metal)    S(lipo)     H(rot)  DE(clash)    DE(int)     intcor
     15.62     -16.78       1.97        0.00      73.21       1.50       0.05       1.11       ----

> <Gold.Chemscore.Fitness>
15.6198

> <Gold.Chemscore.DG>
-16.7810

> <Gold.Chemscore.ZeroCoef>
-5.4800

> <Gold.Chemscore.Hbond>
1.9659

> <Gold.Chemscore.Metal>
0.0000

> <Gold.Chemscore.Lipo>
73.2111

> <Gold.Chemscore.Internal_Hbond>
0.0000

> <Gold.Chemscore.DEClash>
0.0471

> <Gold.Chemscore.DEInternal>
1.1141

> <Gold.Chemscore.Rot>
1.4964

> <Gold.Chemscore.Internal.Correction>
   9.000000E+99

> <Gold.Chemscore.Hbonds>
donor molecule, donor type, donor heavy atom, donor atom, acceptor molecule, acceptor atom, score
      P1  H  6896  6909       L1    17  0.55
      P1  H  7989  7998       L1    11  0.13
      P1  H  7997  8008       L1    13  0.01
      P1  H  7997  8009       L1    11  0.09

> <Gold.Chemscore.Hbond.Weighted>
-6.5662

> <Gold.Chemscore.Metal.Weighted>
-0.0000

> <Gold.Chemscore.Lipo.Weighted>
-8.5657

> <Gold.Chemscore.Internal_Hbond.Weighted>
0.0000

> <Gold.Chemscore.DEClash.Weighted>
0.0471

> <Gold.Chemscore.DEInternal.Weighted>
1.1141

> <Gold.Chemscore.Rot.Weighted>
3.8309

> <Gold.Chemscore.Internal.Correction.Weighted>
   9.000000E+99

> <Gold.Protein.RotatedTorsions>
[ 6907 6896 6895 6894 ] final  141.74 input  -60.11 | X-H torsion
[ 7974 7965 7964 7962 ] final  -92.06 input  175.53 | X-H torsion
[ 8008 7997 7996 7995 ] final -120.63 input   59.86 | X-H torsion
[ 10167 10162 10161 10158 ] final -150.06 input  -65.29 | X-H torsion
[ 10718 10713 10712 10709 ] final  -48.63 input   66.30 | X-H torsion
[ 10763 10752 10751 10750 ] final   20.56 input  -60.55 | X-H torsion
[ 11005 11000 10999 10996 ] final   52.30 input  -57.11 | X-H torsion

> <Gold.Protein.ActiveResidues>
 VAL166  LYS551  ARG553  GLY616  TRP617  ASP618  TYR619  PRO620  LYS621  CYS622 
 ASP623  PHE694  ASN695  SER759  ASP760  ASP761  ALA762  ILE779  LEU786  VAL792 
 PHE793  MET794  SER795  GLU796  ALA797  LYS798  CYS799  TRP800  GLU811  SER814 

> <Gold.Protein.RotatedAtoms>
  152.2273  133.5030  159.5195 H   0  0  0  0  0  0  0  0  0  0  0  0  # atno 6907 bound_to 6896
  150.7028  134.1263  159.4062 H   0  0  0  0  0  0  0  0  0  0  0  0  # atno 6908 bound_to 6896
  151.9184  135.0308  160.0571 H   0  0  0  0  0  0  0  0  0  0  0  0  # atno 6909 bound_to 6896
  145.4048  140.9540  143.2267 H   0  0  0  0  0  0  0  0  0  0  0  0  # atno 7974 bound_to 7965
  155.1349  140.0401  157.2784 H   0  0  0  0  0  0  0  0  0  0  0  0  # atno 8008 bound_to 7997
  154.6516  140.2570  155.7182 H   0  0  0  0  0  0  0  0  0  0  0  0  # atno 8009 bound_to 7997
  156.2579  140.2835  156.0951 H   0  0  0  0  0  0  0  0  0  0  0  0  # atno 8010 bound_to 7997
  139.7388  143.8694  152.2556 H   0  0  0  0  0  0  0  0  0  0  0  0  # atno 10167 bound_to 10162
  156.1970  130.4155  149.9293 H   0  0  0  0  0  0  0  0  0  0  0  0  # atno 10718 bound_to 10713
  153.1067  135.6686  153.9573 H   0  0  0  0  0  0  0  0  0  0  0  0  # atno 10763 bound_to 10752
  153.9128  135.3023  155.3450 H   0  0  0  0  0  0  0  0  0  0  0  0  # atno 10764 bound_to 10752
  154.7488  135.5044  153.9328 H   0  0  0  0  0  0  0  0  0  0  0  0  # atno 10765 bound_to 10752
  140.0861  134.5273  155.8898 H   0  0  0  0  0  0  0  0  0  0  0  0  # atno 11005 bound_to 11000
  144.8349  139.5567  143.6927 LP  0  0  0  0  0  0  0  0  0  0  0  0  # atno 17320 bound_to 7965
  146.2734  139.6692  142.9280 LP  0  0  0  0  0  0  0  0  0  0  0  0  # atno 17321 bound_to 7965
  139.8639  144.7103  150.9067 LP  0  0  0  0  0  0  0  0  0  0  0  0  # atno 17342 bound_to 10162
  140.7783  143.3794  151.1503 LP  0  0  0  0  0  0  0  0  0  0  0  0  # atno 17343 bound_to 10162
  156.7015  130.8935  151.3600 LP  0  0  0  0  0  0  0  0  0  0  0  0  # atno 17370 bound_to 10713
  157.6963  130.9285  150.0655 LP  0  0  0  0  0  0  0  0  0  0  0  0  # atno 17371 bound_to 10713
  141.2063  133.6654  156.6233 LP  0  0  0  0  0  0  0  0  0  0  0  0  # atno 17394 bound_to 11000
  140.3418  134.7842  157.4403 LP  0  0  0  0  0  0  0  0  0  0  0  0  # atno 17395 bound_to 11000

$$$$
