AV-unprocessed.smi:2569|AV-procd|sdf|10104|dock4
  -GOLD-   2272014123D 1   1.00000     0.00000
 Structure written by MMmdl.
 40 42  0  0  0  0  0  0  0  0  2 V2000
  152.1115  143.9912  161.6983 C   0  0  0  0  0  0  0  0  0  0  0  0
  152.0026  143.1420  160.4430 C   0  0  0  0  0  0  0  0  0  0  0  0
  151.2552  143.6419  159.3533 C   0  0  0  0  0  0  0  0  0  0  0  0
  151.1761  142.8434  158.2184 C   0  0  0  0  0  0  0  0  0  0  0  0
  150.5255  143.0500  157.0002 N   0  3  0  0  0  0  0  0  0  0  0  0
  150.7330  141.9780  156.1869 C   0  0  0  0  0  0  0  0  0  0  0  0
  151.5084  141.0900  156.8665 N   0  0  0  0  0  0  0  0  0  0  0  0
  152.0153  139.7764  156.4437 C   0  0  0  0  0  0  0  0  0  0  0  0
  150.9757  138.9646  155.6477 C   0  0  2  0  0  0  0  0  0  0  0  0
  150.7858  139.5402  154.3686 O   0  0  0  0  0  0  0  0  0  0  0  0
  149.6272  138.8774  156.3881 C   0  0  0  0  0  0  0  0  0  0  0  0
  149.6821  138.0045  157.5494 N   0  0  0  0  0  0  0  0  0  0  0  0
  149.3565  138.4679  158.7812 N   0  0  0  0  0  0  0  0  0  0  0  0
  149.4982  137.4703  159.6057 N   0  0  0  0  0  0  0  0  0  0  0  0
  149.9168  136.3291  158.9471 N   0  0  0  0  0  0  0  0  0  0  0  0
  150.0144  136.7134  157.6812 C   0  0  0  0  0  0  0  0  0  0  0  0
  150.4355  135.8435  156.5429 C   0  0  0  0  0  0  0  0  0  0  0  0
  151.8090  141.5872  158.1410 C   0  0  0  0  0  0  0  0  0  0  0  0
  152.5476  141.0791  159.2077 C   0  0  0  0  0  0  0  0  0  0  0  0
  152.6399  141.8762  160.3713 C   0  0  0  0  0  0  0  0  0  0  0  0
  153.4393  141.3472  161.5502 C   0  0  0  0  0  0  0  0  0  0  0  0
  151.5389  144.9147  161.6062 H   0  0  0  0  0  0  0  0  0  0  0  0
  153.1508  144.2606  161.8878 H   0  0  0  0  0  0  0  0  0  0  0  0
  151.7301  143.4495  162.5640 H   0  0  0  0  0  0  0  0  0  0  0  0
  150.7664  144.6041  159.4010 H   0  0  0  0  0  0  0  0  0  0  0  0
  150.3496  141.8539  155.1842 H   0  0  0  0  0  0  0  0  0  0  0  0
  152.8938  139.9583  155.8234 H   0  0  0  0  0  0  0  0  0  0  0  0
  152.3686  139.2243  157.3147 H   0  0  0  0  0  0  0  0  0  0  0  0
  151.3628  137.9559  155.4970 H   0  0  0  0  0  0  0  0  0  0  0  0
  150.4678  138.8725  153.7806 H   0  0  0  0  0  0  0  0  0  0  0  0
  149.3205  139.8689  156.7244 H   0  0  0  0  0  0  0  0  0  0  0  0
  148.8437  138.5255  155.7166 H   0  0  0  0  0  0  0  0  0  0  0  0
  150.7021  134.8493  156.9026 H   0  0  0  0  0  0  0  0  0  0  0  0
  151.3019  136.2732  156.0403 H   0  0  0  0  0  0  0  0  0  0  0  0
  149.6219  135.7459  155.8241 H   0  0  0  0  0  0  0  0  0  0  0  0
  153.0314  140.1153  159.1585 H   0  0  0  0  0  0  0  0  0  0  0  0
  153.8721  140.3700  161.3338 H   0  0  0  0  0  0  0  0  0  0  0  0
  152.8013  141.2411  162.4277 H   0  0  0  0  0  0  0  0  0  0  0  0
  154.2566  142.0261  161.7952 H   0  0  0  0  0  0  0  0  0  0  0  0
  149.9784  143.8609  156.7410 H   0  0  0  0  0  0  0  0  0  0  0  0
  1  2  1  0  0  0  0
  1 22  1  0  0  0  0
  1 23  1  0  0  0  0
  1 24  1  0  0  0  0
  2 20  1  0  0  0  0
  2  3  2  0  0  0  0
  3  4  1  0  0  0  0
  3 25  1  0  0  0  0
  4 18  2  0  0  0  0
  4  5  1  0  0  0  0
  5  6  2  0  0  0  0
  5 40  1  0  0  0  0
  6  7  1  0  0  0  0
  6 26  1  0  0  0  0
  7  8  1  0  0  0  0
  7 18  1  0  0  0  0
  8  9  1  0  0  0  0
  8 27  1  0  0  0  0
  8 28  1  0  0  0  0
  9 10  1  0  0  0  0
  9 11  1  0  0  0  0
  9 29  1  0  0  0  0
 10 30  1  0  0  0  0
 11 12  1  0  0  0  0
 11 31  1  0  0  0  0
 11 32  1  0  0  0  0
 12 16  1  0  0  0  0
 12 13  1  0  0  0  0
 13 14  2  0  0  0  0
 14 15  1  0  0  0  0
 15 16  2  0  0  0  0
 16 17  1  0  0  0  0
 17 33  1  0  0  0  0
 17 34  1  0  0  0  0
 17 35  1  0  0  0  0
 18 19  1  0  0  0  0
 19 20  2  0  0  0  0
 19 36  1  0  0  0  0
 20 21  1  0  0  0  0
 21 37  1  0  0  0  0
 21 38  1  0  0  0  0
 21 39  1  0  0  0  0
M  CHG  1   5   1
M  END
> <s_m_source_file>
AV-unprocessed.smi

> <i_m_source_file_index>
2569

> <i_lp_mmshare_version>
43012

> <i_f3d_flags>
0

> <s_epik_input>
W0NIM11jKFtjSF0xKWMoW0NIM10pW2NIXWMoYzEyKW4oW2NIXW4yKVtDSDJdW0NASF0oW09IXSlbQ0gyXW4zbm5uYzNbQ0gzXQ==

> <s_epik_cmdline>
J2VwaWtfcHl0aG9uJywgJy1waCcsICc3LjAnLCAnLXRuJywgJzgnLCAnLW1hJywgJzIwMCcsICctbWV0YWxfYmluZGluZycsICctaW1hZScsICc8aW5maWxlLm1hZT4nLCAnLW9tYWUnLCAnPG91dGZpbGUubWFlPic=

> <r_lp_tautomer_probability>
1

> <r_epik_Ionization_Penalty>
1.13338

> <r_epik_Ionization_Penalty_Charging>
1.13335

> <r_epik_Ionization_Penalty_Neutral>
3.02334e-05

> <r_epik_State_Penalty>
1.19324

> <r_epik_Charging_Adjusted_Penalty>
2.3266

> <i_epik_Tot_Q>
1

> <i_epik_Tot_abs_Q>
1

> <r_epik_Metal_State_Penalty>
1.27602

> <b_epik_Metal_Only>
0

> <s_lp_Force_Field>
OPLS_2005

> <r_lp_Energy>
15.9129

> <b_lp_Chiralities_Consistent>
1

> <s_lp_Variant>
AV-unprocessed.smi:2569-3

> <Gold.Version>
5.8.1

> <Gold.Id.Protein>
6NUR|6NUR_protein|mol2

> <Gold.PLP.Fitness>
52.4746

> <Gold.PLP.PLP>
-41.2801

> <Gold.PLP.part.hbond>
-4.6033

> <Gold.PLP.part.metal>
0.0000

> <Gold.PLP.part.buried>
-6.6716

> <Gold.PLP.part.nonpolar>
-29.4716

> <Gold.PLP.part.repulsive>
0.0160

> <Gold.PLP.ligand.clash>
0.0000

> <Gold.PLP.ligand.torsion>
0.4225

> <Gold.PLP.Chemscore.Hbond>
4.0104

> <Gold.PLP.Chemscore.CHOScore>
0.0000

> <Gold.PLP.Chemscore.Metal>
0.0000

> <Gold.Chemscore.Hbonds>
donor molecule, donor type, donor heavy atom, donor atom, acceptor molecule, acceptor atom, score
      L1  H     5    40       P1  8028  2.00
      P1  H  6896  6909       L1    15  1.00
      P1  H  7989  7998       L1    10  1.00

> <Gold.PLP.Chemscore.Internal.Correction>
0.0082

> <Gold.Rescore>
     Score         DG    S(hbond)    S(metal)    S(lipo)     H(rot)  DE(clash)    DE(int)     intcor
     19.85     -20.42       2.97        0.00      99.39       2.59       0.02       0.55       ----

> <Gold.Chemscore.Fitness>
19.8511

> <Gold.Chemscore.DG>
-20.4230

> <Gold.Chemscore.ZeroCoef>
-5.4800

> <Gold.Chemscore.Hbond>
2.9739

> <Gold.Chemscore.Metal>
0.0000

> <Gold.Chemscore.Lipo>
99.3914

> <Gold.Chemscore.Internal_Hbond>
0.0000

> <Gold.Chemscore.DEClash>
0.0232

> <Gold.Chemscore.DEInternal>
0.5487

> <Gold.Chemscore.Rot>
2.5854

> <Gold.Chemscore.Internal.Correction>
   9.000000E+99

> <Gold.Chemscore.Hbonds>
donor molecule, donor type, donor heavy atom, donor atom, acceptor molecule, acceptor atom, score
      L1  H     5    40       P1  8028  0.96
      P1  H  6896  6909       L1    15  0.98
      P1  H  6931  6943       L1    14  0.01
      P1  H  7989  7998       L1    10  0.82

> <Gold.Chemscore.Hbond.Weighted>
-9.9329

> <Gold.Chemscore.Metal.Weighted>
-0.0000

> <Gold.Chemscore.Lipo.Weighted>
-11.6288

> <Gold.Chemscore.Internal_Hbond.Weighted>
0.0000

> <Gold.Chemscore.DEClash.Weighted>
0.0232

> <Gold.Chemscore.DEInternal.Weighted>
0.5487

> <Gold.Chemscore.Rot.Weighted>
6.6187

> <Gold.Chemscore.Internal.Correction.Weighted>
   9.000000E+99

> <Gold.Protein.RotatedTorsions>
[ 6907 6896 6895 6894 ] final   61.63 input  -60.11 | X-H torsion
[ 7974 7965 7964 7962 ] final  -22.70 input  175.53 | X-H torsion
[ 8008 7997 7996 7995 ] final   38.59 input   59.86 | X-H torsion
[ 10167 10162 10161 10158 ] final  165.39 input  -65.29 | X-H torsion
[ 10718 10713 10712 10709 ] final  149.73 input   66.30 | X-H torsion
[ 10763 10752 10751 10750 ] final -118.86 input  -60.55 | X-H torsion
[ 11005 11000 10999 10996 ] final   91.54 input  -57.11 | X-H torsion

> <Gold.Protein.ActiveResidues>
 VAL166  LYS551  ARG553  GLY616  TRP617  ASP618  TYR619  PRO620  LYS621  CYS622 
 ASP623  PHE694  ASN695  SER759  ASP760  ASP761  ALA762  ILE779  LEU786  VAL792 
 PHE793  MET794  SER795  GLU796  ALA797  LYS798  CYS799  TRP800  GLU811  SER814 

> <Gold.Protein.RotatedAtoms>
  152.4104  134.6133  160.0031 H   0  0  0  0  0  0  0  0  0  0  0  0  # atno 6907 bound_to 6896
  151.6312  133.3326  159.3117 H   0  0  0  0  0  0  0  0  0  0  0  0  # atno 6908 bound_to 6896
  150.7996  134.7120  159.6654 H   0  0  0  0  0  0  0  0  0  0  0  0  # atno 6909 bound_to 6896
  146.1660  140.4515  142.8552 H   0  0  0  0  0  0  0  0  0  0  0  0  # atno 7974 bound_to 7965
  155.2227  140.3332  155.4313 H   0  0  0  0  0  0  0  0  0  0  0  0  # atno 8008 bound_to 7997
  156.2327  140.1858  156.7248 H   0  0  0  0  0  0  0  0  0  0  0  0  # atno 8009 bound_to 7997
  154.6005  140.0624  156.9347 H   0  0  0  0  0  0  0  0  0  0  0  0  # atno 8010 bound_to 7997
  139.4905  144.4137  151.9269 H   0  0  0  0  0  0  0  0  0  0  0  0  # atno 10167 bound_to 10162
  157.2924  131.0856  151.1452 H   0  0  0  0  0  0  0  0  0  0  0  0  # atno 10718 bound_to 10713
  154.8600  135.4258  154.2207 H   0  0  0  0  0  0  0  0  0  0  0  0  # atno 10763 bound_to 10752
  153.3213  135.6982  153.7034 H   0  0  0  0  0  0  0  0  0  0  0  0  # atno 10764 bound_to 10752
  153.6088  135.3523  155.2945 H   0  0  0  0  0  0  0  0  0  0  0  0  # atno 10765 bound_to 10752
  139.8837  134.8680  156.3442 H   0  0  0  0  0  0  0  0  0  0  0  0  # atno 11005 bound_to 11000
  144.8093  140.6357  143.6426 LP  0  0  0  0  0  0  0  0  0  0  0  0  # atno 17320 bound_to 7965
  145.4466  139.1529  143.3941 LP  0  0  0  0  0  0  0  0  0  0  0  0  # atno 17321 bound_to 7965
  140.3579  144.3009  150.5938 LP  0  0  0  0  0  0  0  0  0  0  0  0  # atno 17342 bound_to 10162
  140.5429  143.2220  151.8056 LP  0  0  0  0  0  0  0  0  0  0  0  0  # atno 17343 bound_to 10162
  157.2843  130.6765  149.6081 LP  0  0  0  0  0  0  0  0  0  0  0  0  # atno 17370 bound_to 10713
  155.9667  130.4440  150.5445 LP  0  0  0  0  0  0  0  0  0  0  0  0  # atno 17371 bound_to 10713
  140.9638  133.7371  156.0438 LP  0  0  0  0  0  0  0  0  0  0  0  0  # atno 17394 bound_to 11000
  140.7957  134.3567  157.5453 LP  0  0  0  0  0  0  0  0  0  0  0  0  # atno 17395 bound_to 11000

$$$$
