AV-unprocessed.smi:2774|AV-procd|sdf|10683|dock9
  -GOLD-   2272015133D 1   1.00000     0.00000
 Structure written by MMmdl.
 35 36  0  0  0  0  0  0  0  0  2 V2000
  149.2759  141.4317  154.2069 O   0  0  0  0  0  0  0  0  0  0  0  0
  150.0635  141.1126  155.3371 C   0  0  1  0  0  0  0  0  0  0  0  0
  149.1993  141.2704  156.6007 C   0  0  0  0  0  0  0  0  0  0  0  0
  149.4537  142.5640  157.2712 N   0  3  0  0  0  0  0  0  0  0  0  0
  150.8572  142.8008  157.6759 C   0  0  1  0  0  0  0  0  0  0  0  0
  150.9925  144.2318  158.2326 C   0  0  0  0  0  0  0  0  0  0  0  0
  152.4409  144.5974  158.5976 C   0  0  0  0  0  0  0  0  0  0  0  0
  153.0193  143.6835  159.6861 C   0  0  0  0  0  0  0  0  0  0  0  0
  153.0715  141.9593  159.1299 S   0  0  0  0  0  0  0  0  0  0  0  0
  151.3189  141.7542  158.7111 C   0  0  0  0  0  0  0  0  0  0  0  0
  150.6415  139.7101  155.2350 C   0  0  0  0  0  0  0  0  0  0  0  0
  151.9882  139.4621  155.5743 C   0  0  0  0  0  0  0  0  0  0  0  0
  152.4780  138.1447  155.4687 C   0  0  0  0  0  0  0  0  0  0  0  0
  151.7222  137.1031  155.0603 N   0  0  0  0  0  0  0  0  0  0  0  0
  150.4341  137.3456  154.7369 C   0  0  0  0  0  0  0  0  0  0  0  0
  149.8469  138.6246  154.8068 C   0  0  0  0  0  0  0  0  0  0  0  0
  148.3863  141.5765  154.4932 H   0  0  0  0  0  0  0  0  0  0  0  0
  150.8879  141.8265  155.3734 H   0  0  0  0  0  0  0  0  0  0  0  0
  148.1436  141.1782  156.3455 H   0  0  0  0  0  0  0  0  0  0  0  0
  149.4287  140.4667  157.3018 H   0  0  0  0  0  0  0  0  0  0  0  0
  149.1921  143.2930  156.6232 H   0  0  0  0  0  0  0  0  0  0  0  0
  151.4826  142.7250  156.7850 H   0  0  0  0  0  0  0  0  0  0  0  0
  150.6282  144.9453  157.4923 H   0  0  0  0  0  0  0  0  0  0  0  0
  150.3552  144.3520  159.1098 H   0  0  0  0  0  0  0  0  0  0  0  0
  153.0696  144.5530  157.7074 H   0  0  0  0  0  0  0  0  0  0  0  0
  152.4746  145.6312  158.9428 H   0  0  0  0  0  0  0  0  0  0  0  0
  154.0304  143.9982  159.9457 H   0  0  0  0  0  0  0  0  0  0  0  0
  152.4210  143.7472  160.5955 H   0  0  0  0  0  0  0  0  0  0  0  0
  150.7266  141.8302  159.6238 H   0  0  0  0  0  0  0  0  0  0  0  0
  151.1904  140.7404  158.3336 H   0  0  0  0  0  0  0  0  0  0  0  0
  152.6372  140.2586  155.9078 H   0  0  0  0  0  0  0  0  0  0  0  0
  153.5043  137.9216  155.7206 H   0  0  0  0  0  0  0  0  0  0  0  0
  149.8528  136.4946  154.4139 H   0  0  0  0  0  0  0  0  0  0  0  0
  148.8100  138.7641  154.5381 H   0  0  0  0  0  0  0  0  0  0  0  0
  148.8611  142.6345  158.0863 H   0  0  0  0  0  0  0  0  0  0  0  0
  1  2  1  0  0  0  0
  1 17  1  0  0  0  0
  2  3  1  0  0  0  0
  2 11  1  0  0  0  0
  2 18  1  0  0  0  0
  3  4  1  0  0  0  0
  3 19  1  0  0  0  0
  3 20  1  0  0  0  0
  4  5  1  0  0  0  0
  4 21  1  0  0  0  0
  4 35  1  0  0  0  0
  5 10  1  0  0  0  0
  5  6  1  0  0  0  0
  5 22  1  0  0  0  0
  6  7  1  0  0  0  0
  6 23  1  0  0  0  0
  6 24  1  0  0  0  0
  7  8  1  0  0  0  0
  7 25  1  0  0  0  0
  7 26  1  0  0  0  0
  8  9  1  0  0  0  0
  8 27  1  0  0  0  0
  8 28  1  0  0  0  0
  9 10  1  0  0  0  0
 10 29  1  0  0  0  0
 10 30  1  0  0  0  0
 11 16  1  0  0  0  0
 11 12  2  0  0  0  0
 12 13  1  0  0  0  0
 12 31  1  0  0  0  0
 13 14  2  0  0  0  0
 13 32  1  0  0  0  0
 14 15  1  0  0  0  0
 15 16  2  0  0  0  0
 15 33  1  0  0  0  0
 16 34  1  0  0  0  0
M  CHG  1   4   1
M  END
> <s_m_source_file>
AV-unprocessed.smi

> <i_m_source_file_index>
2774

> <i_lp_mmshare_version>
43012

> <i_f3d_flags>
0

> <s_epik_input>
W2NIXTFbY0hdbltjSF1bY0hdYzFbQ0BIXShbT0hdKVtDSDJdW05IXVtDQEBIXTJbQ0gyXVtDSDJdW0NIMl1TW0NIMl0y

> <s_epik_cmdline>
J2VwaWtfcHl0aG9uJywgJy1waCcsICc3LjAnLCAnLXRuJywgJzgnLCAnLW1hJywgJzIwMCcsICctbWV0YWxfYmluZGluZycsICctaW1hZScsICc8aW5maWxlLm1hZT4nLCAnLW9tYWUnLCAnPG91dGZpbGUubWFlPic=

> <r_epik_Ionization_Penalty>
0.0205977

> <r_epik_Ionization_Penalty_Charging>
0.0185619

> <r_epik_Ionization_Penalty_Neutral>
0.00203589

> <r_epik_State_Penalty>
0.0147768

> <r_epik_Charging_Adjusted_Penalty>
0.0333386

> <i_epik_Tot_Q>
1

> <i_epik_Tot_abs_Q>
1

> <r_epik_Metal_State_Penalty>
0.0152254

> <b_epik_Metal_Only>
0

> <s_lp_Force_Field>
OPLS_2005

> <r_lp_Energy>
9.96731

> <b_lp_Chiralities_Consistent>
1

> <s_lp_Variant>
AV-unprocessed.smi:2774-4

> <Gold.Version>
5.8.1

> <Gold.Id.Protein>
6NUR|6NUR_protein|mol2

> <Gold.PLP.Fitness>
51.0006

> <Gold.PLP.PLP>
-39.1238

> <Gold.PLP.part.hbond>
-4.2075

> <Gold.PLP.part.metal>
0.0000

> <Gold.PLP.part.buried>
-1.2516

> <Gold.PLP.part.nonpolar>
-34.1434

> <Gold.PLP.part.repulsive>
0.1231

> <Gold.PLP.ligand.clash>
0.0000

> <Gold.PLP.ligand.torsion>
1.0246

> <Gold.PLP.Chemscore.Hbond>
3.6320

> <Gold.PLP.Chemscore.CHOScore>
1.0062

> <Gold.PLP.Chemscore.Metal>
0.0000

> <Gold.Chemscore.Hbonds>
donor molecule, donor type, donor heavy atom, donor atom, acceptor molecule, acceptor atom, score
      L1  H     4    21       P1  8028  2.00
      P1  H  8011  8017       L1     1  0.42
      P1  H 10752 10764       L1    14  1.00
      L1  C    15    33       P1  7948  0.51

> <Gold.PLP.Chemscore.Internal.Correction>
0.0112

> <Gold.Rescore>
     Score         DG    S(hbond)    S(metal)    S(lipo)     H(rot)  DE(clash)    DE(int)     intcor
     20.81     -22.57       2.55        0.00     116.25       1.97       0.65       1.12       ----

> <Gold.Chemscore.Fitness>
20.8084

> <Gold.Chemscore.DG>
-22.5730

> <Gold.Chemscore.ZeroCoef>
-5.4800

> <Gold.Chemscore.Hbond>
2.5542

> <Gold.Chemscore.Metal>
0.0000

> <Gold.Chemscore.Lipo>
116.2523

> <Gold.Chemscore.Internal_Hbond>
0.0000

> <Gold.Chemscore.DEClash>
0.6496

> <Gold.Chemscore.DEInternal>
1.1151

> <Gold.Chemscore.Rot>
1.9686

> <Gold.Chemscore.Internal.Correction>
   9.000000E+99

> <Gold.Chemscore.Hbonds>
donor molecule, donor type, donor heavy atom, donor atom, acceptor molecule, acceptor atom, score
      L1  H     4    21       P1  8028  0.99
      P1  H  8011  8017       L1     1  0.37
      P1  H 10752 10764       L1    14  0.61

> <Gold.Chemscore.Hbond.Weighted>
-8.5311

> <Gold.Chemscore.Metal.Weighted>
-0.0000

> <Gold.Chemscore.Lipo.Weighted>
-13.6015

> <Gold.Chemscore.Internal_Hbond.Weighted>
0.0000

> <Gold.Chemscore.DEClash.Weighted>
0.6496

> <Gold.Chemscore.DEInternal.Weighted>
1.1151

> <Gold.Chemscore.Rot.Weighted>
5.0396

> <Gold.Chemscore.Internal.Correction.Weighted>
   9.000000E+99

> <Gold.Protein.RotatedTorsions>
[ 6907 6896 6895 6894 ] final -151.46 input  -60.11 | X-H torsion
[ 7974 7965 7964 7962 ] final  -57.84 input  175.53 | X-H torsion
[ 8008 7997 7996 7995 ] final -126.18 input   59.86 | X-H torsion
[ 10167 10162 10161 10158 ] final   47.11 input  -65.29 | X-H torsion
[ 10718 10713 10712 10709 ] final -109.25 input   66.30 | X-H torsion
[ 10763 10752 10751 10750 ] final  -64.17 input  -60.55 | X-H torsion
[ 11005 11000 10999 10996 ] final   23.34 input  -57.11 | X-H torsion

> <Gold.Protein.ActiveResidues>
 VAL166  LYS551  ARG553  GLY616  TRP617  ASP618  TYR619  PRO620  LYS621  CYS622 
 ASP623  PHE694  ASN695  SER759  ASP760  ASP761  ALA762  ILE779  LEU786  VAL792 
 PHE793  MET794  SER795  GLU796  ALA797  LYS798  CYS799  TRP800  GLU811  SER814 

> <Gold.Protein.RotatedAtoms>
  151.2134  133.4543  159.2598 H   0  0  0  0  0  0  0  0  0  0  0  0  # atno 6907 bound_to 6896
  151.0954  134.9941  159.8433 H   0  0  0  0  0  0  0  0  0  0  0  0  # atno 6908 bound_to 6896
  152.5438  134.2065  159.8785 H   0  0  0  0  0  0  0  0  0  0  0  0  # atno 6909 bound_to 6896
  145.8464  140.8382  143.0008 H   0  0  0  0  0  0  0  0  0  0  0  0  # atno 7974 bound_to 7965
  155.2255  140.0423  157.2954 H   0  0  0  0  0  0  0  0  0  0  0  0  # atno 8008 bound_to 7997
  154.5922  140.2429  155.7876 H   0  0  0  0  0  0  0  0  0  0  0  0  # atno 8009 bound_to 7997
  156.2266  140.2952  156.0092 H   0  0  0  0  0  0  0  0  0  0  0  0  # atno 8010 bound_to 7997
  140.3070  144.2865  150.6207 H   0  0  0  0  0  0  0  0  0  0  0  0  # atno 10167 bound_to 10162
  156.0527  130.5754  150.8073 H   0  0  0  0  0  0  0  0  0  0  0  0  # atno 10718 bound_to 10713
  154.3261  135.6186  153.5530 H   0  0  0  0  0  0  0  0  0  0  0  0  # atno 10763 bound_to 10752
  152.9815  135.5735  154.5014 H   0  0  0  0  0  0  0  0  0  0  0  0  # atno 10764 bound_to 10752
  154.4692  135.2858  155.1632 H   0  0  0  0  0  0  0  0  0  0  0  0  # atno 10765 bound_to 10752
  140.3707  134.2026  155.7667 H   0  0  0  0  0  0  0  0  0  0  0  0  # atno 11005 bound_to 11000
  144.6731  140.0888  143.7466 LP  0  0  0  0  0  0  0  0  0  0  0  0  # atno 17320 bound_to 7965
  145.9407  139.2667  143.1270 LP  0  0  0  0  0  0  0  0  0  0  0  0  # atno 17321 bound_to 7965
  140.5601  143.2193  151.7780 LP  0  0  0  0  0  0  0  0  0  0  0  0  # atno 17342 bound_to 10162
  139.4902  144.4360  151.9818 LP  0  0  0  0  0  0  0  0  0  0  0  0  # atno 17343 bound_to 10162
  157.5469  131.0942  150.9751 LP  0  0  0  0  0  0  0  0  0  0  0  0  # atno 17370 bound_to 10713
  157.0020  130.5603  149.5312 LP  0  0  0  0  0  0  0  0  0  0  0  0  # atno 17371 bound_to 10713
  141.1955  133.8103  157.0711 LP  0  0  0  0  0  0  0  0  0  0  0  0  # atno 17394 bound_to 11000
  140.0554  134.9783  157.1211 LP  0  0  0  0  0  0  0  0  0  0  0  0  # atno 17395 bound_to 11000

$$$$
