AV-unprocessed.smi:2702|AV-procd|sdf|10430|dock5
  -GOLD-   2272014473D 1   1.00000     0.00000
 Structure written by MMmdl.
 47 48  0  0  0  0  0  0  0  0  1 V2000
  155.7569  138.3409  164.9724 C   0  0  0  0  0  0  0  0  0  0  0  0
  156.2215  137.0407  164.6559 O   0  0  0  0  0  0  0  0  0  0  0  0
  156.7435  136.9556  163.3410 C   0  0  0  0  0  0  0  0  0  0  0  0
  155.6590  137.2414  162.3223 C   0  0  0  0  0  0  0  0  0  0  0  0
  155.1977  136.2845  161.4841 C   0  0  0  0  0  0  0  0  0  0  0  0
  154.1606  136.5918  160.4991 C   0  0  0  0  0  0  0  0  0  0  0  0
  153.7059  135.7456  159.7289 O   0  0  0  0  0  0  0  0  0  0  0  0
  153.7349  137.8895  160.4988 N   0  0  0  0  0  0  0  0  0  0  0  0
  152.6879  138.3530  159.5696 C   0  0  0  0  0  0  0  0  0  0  0  0
  152.7989  139.8430  159.2118 C   0  0  0  0  0  0  0  0  0  0  0  0
  153.8045  140.2882  158.6569 O   0  0  0  0  0  0  0  0  0  0  0  0
  151.7323  140.5959  159.5231 N   0  0  0  0  0  0  0  0  0  0  0  0
  151.5874  142.0287  159.2673 C   0  0  2  0  0  0  0  0  0  0  0  0
  151.4612  142.2481  157.7472 C   0  0  0  0  0  0  0  0  0  0  0  0
  151.3829  143.7384  157.3885 C   0  0  0  0  0  0  0  0  0  0  0  0
  152.5823  144.5091  157.9618 C   0  0  0  0  0  0  0  0  0  0  0  0
  152.7166  144.3269  159.4874 C   0  0  1  0  0  0  0  0  0  0  0  0
  151.6262  145.1065  160.2511 C   0  0  0  0  0  0  0  0  0  0  0  0
  152.7898  142.8189  159.8493 C   0  0  1  0  0  0  0  0  0  0  0  0
  152.9937  142.5895  161.3602 C   0  0  0  0  0  0  0  0  0  0  0  0
  154.2561  138.8491  161.3897 C   0  0  0  0  0  0  0  0  0  0  0  0
  155.1722  138.5507  162.2551 N   0  0  0  0  0  0  0  0  0  0  0  0
  155.3627  138.3514  165.9885 H   0  0  0  0  0  0  0  0  0  0  0  0
  154.9572  138.6496  164.2977 H   0  0  0  0  0  0  0  0  0  0  0  0
  156.5641  139.0725  164.9173 H   0  0  0  0  0  0  0  0  0  0  0  0
  157.5563  137.6726  163.2130 H   0  0  0  0  0  0  0  0  0  0  0  0
  157.1590  135.9623  163.1630 H   0  0  0  0  0  0  0  0  0  0  0  0
  155.5918  135.2802  161.5406 H   0  0  0  0  0  0  0  0  0  0  0  0
  152.7022  137.7773  158.6423 H   0  0  0  0  0  0  0  0  0  0  0  0
  151.7007  138.1671  159.9971 H   0  0  0  0  0  0  0  0  0  0  0  0
  150.9521  140.1390  159.9725 H   0  0  0  0  0  0  0  0  0  0  0  0
  150.6714  142.3956  159.7326 H   0  0  0  0  0  0  0  0  0  0  0  0
  152.3176  141.8033  157.2378 H   0  0  0  0  0  0  0  0  0  0  0  0
  150.5771  141.7343  157.3677 H   0  0  0  0  0  0  0  0  0  0  0  0
  151.3516  143.8561  156.3050 H   0  0  0  0  0  0  0  0  0  0  0  0
  150.4513  144.1598  157.7668 H   0  0  0  0  0  0  0  0  0  0  0  0
  153.4940  144.1570  157.4770 H   0  0  0  0  0  0  0  0  0  0  0  0
  152.4997  145.5676  157.7127 H   0  0  0  0  0  0  0  0  0  0  0  0
  153.6684  144.7767  159.7736 H   0  0  0  0  0  0  0  0  0  0  0  0
  150.6306  144.6993  160.0789 H   0  0  0  0  0  0  0  0  0  0  0  0
  151.6094  146.1523  159.9436 H   0  0  0  0  0  0  0  0  0  0  0  0
  151.8055  145.0965  161.3260 H   0  0  0  0  0  0  0  0  0  0  0  0
  153.6875  142.4326  159.3634 H   0  0  0  0  0  0  0  0  0  0  0  0
  152.0904  142.8180  161.9262 H   0  0  0  0  0  0  0  0  0  0  0  0
  153.7998  143.2128  161.7475 H   0  0  0  0  0  0  0  0  0  0  0  0
  153.2589  141.5540  161.5747 H   0  0  0  0  0  0  0  0  0  0  0  0
  153.8320  139.8507  161.3002 H   0  0  0  0  0  0  0  0  0  0  0  0
  1  2  1  0  0  0  0
  1 23  1  0  0  0  0
  1 24  1  0  0  0  0
  1 25  1  0  0  0  0
  2  3  1  0  0  0  0
  3  4  1  0  0  0  0
  3 26  1  0  0  0  0
  3 27  1  0  0  0  0
  4 22  1  0  0  0  0
  4  5  2  0  0  0  0
  5  6  1  0  0  0  0
  5 28  1  0  0  0  0
  6  7  2  0  0  0  0
  6  8  1  0  0  0  0
  8  9  1  0  0  0  0
  8 21  1  0  0  0  0
  9 10  1  0  0  0  0
  9 29  1  0  0  0  0
  9 30  1  0  0  0  0
 10 11  2  0  0  0  0
 10 12  1  0  0  0  0
 12 13  1  0  0  0  0
 12 31  1  0  0  0  0
 13 19  1  0  0  0  0
 13 14  1  0  0  0  0
 13 32  1  0  0  0  0
 14 15  1  0  0  0  0
 14 33  1  0  0  0  0
 14 34  1  0  0  0  0
 15 16  1  0  0  0  0
 15 35  1  0  0  0  0
 15 36  1  0  0  0  0
 16 17  1  0  0  0  0
 16 37  1  0  0  0  0
 16 38  1  0  0  0  0
 17 18  1  0  0  0  0
 17 19  1  0  0  0  0
 17 39  1  0  0  0  0
 18 40  1  0  0  0  0
 18 41  1  0  0  0  0
 18 42  1  0  0  0  0
 19 20  1  0  0  0  0
 19 43  1  0  0  0  0
 20 44  1  0  0  0  0
 20 45  1  0  0  0  0
 20 46  1  0  0  0  0
 21 22  2  0  0  0  0
 21 47  1  0  0  0  0
M  END
> <s_m_source_file>
AV-unprocessed.smi

> <i_m_source_file_index>
2702

> <i_lp_mmshare_version>
43012

> <i_f3d_flags>
0

> <s_epik_input>
W0NIM11PW0NIMl1jMVtjSF1jKD1PKW4oW2NIXW4xKVtDSDJdQyg9TylbTkhdW0NAQEhdMltDSDJdW0NIMl1bQ0gyXVtDQEBIXShbQ0gzXSlbQ0BIXTJbQ0gzXQ==

> <s_epik_cmdline>
J2VwaWtfcHl0aG9uJywgJy1waCcsICc3LjAnLCAnLXRuJywgJzgnLCAnLW1hJywgJzIwMCcsICctbWV0YWxfYmluZGluZycsICctaW1hZScsICc8aW5maWxlLm1hZT4nLCAnLW9tYWUnLCAnPG91dGZpbGUubWFlPic=

> <r_lp_tautomer_probability>
1

> <r_epik_Ionization_Penalty>
1.22164e-06

> <r_epik_Ionization_Penalty_Charging>
3.17988e-07

> <r_epik_Ionization_Penalty_Neutral>
9.03656e-07

> <r_epik_State_Penalty>
-0

> <r_epik_Charging_Adjusted_Penalty>
3.17988e-07

> <i_epik_Tot_Q>
0

> <i_epik_Tot_abs_Q>
0

> <r_epik_Metal_State_Penalty>
-0

> <b_epik_Metal_Only>
0

> <s_lp_Force_Field>
OPLS_2005

> <r_lp_Energy>
19.3371

> <b_lp_Chiralities_Consistent>
1

> <s_lp_Variant>
AV-unprocessed.smi:2702-1

> <Gold.Version>
5.8.1

> <Gold.Id.Protein>
6NUR|6NUR_protein|mol2

> <Gold.PLP.Fitness>
45.7533

> <Gold.PLP.PLP>
-41.1538

> <Gold.PLP.part.hbond>
-2.0000

> <Gold.PLP.part.metal>
0.0000

> <Gold.PLP.part.buried>
-3.7422

> <Gold.PLP.part.nonpolar>
-35.0276

> <Gold.PLP.part.repulsive>
0.2795

> <Gold.PLP.ligand.clash>
0.0000

> <Gold.PLP.ligand.torsion>
0.5013

> <Gold.PLP.Chemscore.Hbond>
1.8640

> <Gold.PLP.Chemscore.CHOScore>
0.0000

> <Gold.PLP.Chemscore.Metal>
0.0000

> <Gold.Chemscore.Hbonds>
donor molecule, donor type, donor heavy atom, donor atom, acceptor molecule, acceptor atom, score
      P1  H  6896  6909       L1     7  1.00
      P1  H  7997  8008       L1    11  0.86

> <Gold.PLP.Chemscore.Internal.Correction>
0.0102

> <Gold.Rescore>
     Score         DG    S(hbond)    S(metal)    S(lipo)     H(rot)  DE(clash)    DE(int)     intcor
     17.08     -20.35       1.87        0.00     116.03       1.93       0.24       3.03       ----

> <Gold.Chemscore.Fitness>
17.0823

> <Gold.Chemscore.DG>
-20.3516

> <Gold.Chemscore.ZeroCoef>
-5.4800

> <Gold.Chemscore.Hbond>
1.8661

> <Gold.Chemscore.Metal>
0.0000

> <Gold.Chemscore.Lipo>
116.0299

> <Gold.Chemscore.Internal_Hbond>
0.0000

> <Gold.Chemscore.DEClash>
0.2410

> <Gold.Chemscore.DEInternal>
3.0284

> <Gold.Chemscore.Rot>
1.9284

> <Gold.Chemscore.Internal.Correction>
   9.000000E+99

> <Gold.Chemscore.Hbonds>
donor molecule, donor type, donor heavy atom, donor atom, acceptor molecule, acceptor atom, score
      P1  H  6896  6909       L1     7  1.00
      P1  H  7997  8008       L1    11  0.85

> <Gold.Chemscore.Hbond.Weighted>
-6.2329

> <Gold.Chemscore.Metal.Weighted>
-0.0000

> <Gold.Chemscore.Lipo.Weighted>
-13.5755

> <Gold.Chemscore.Internal_Hbond.Weighted>
0.0000

> <Gold.Chemscore.DEClash.Weighted>
0.2410

> <Gold.Chemscore.DEInternal.Weighted>
3.0284

> <Gold.Chemscore.Rot.Weighted>
4.9368

> <Gold.Chemscore.Internal.Correction.Weighted>
   9.000000E+99

> <Gold.Protein.RotatedTorsions>
[ 6907 6896 6895 6894 ] final  179.40 input  -60.11 | X-H torsion
[ 7974 7965 7964 7962 ] final    7.11 input  175.53 | X-H torsion
[ 8008 7997 7996 7995 ] final -104.90 input   59.86 | X-H torsion
[ 10167 10162 10161 10158 ] final   20.96 input  -65.29 | X-H torsion
[ 10718 10713 10712 10709 ] final -118.08 input   66.30 | X-H torsion
[ 10763 10752 10751 10750 ] final    5.42 input  -60.55 | X-H torsion
[ 11005 11000 10999 10996 ] final   -9.69 input  -57.11 | X-H torsion

> <Gold.Protein.ActiveResidues>
 VAL166  LYS551  ARG553  GLY616  TRP617  ASP618  TYR619  PRO620  LYS621  CYS622 
 ASP623  PHE694  ASN695  SER759  ASP760  ASP761  ALA762  ILE779  LEU786  VAL792 
 PHE793  MET794  SER795  GLU796  ALA797  LYS798  CYS799  TRP800  GLU811  SER814 

> <Gold.Protein.RotatedAtoms>
  151.6723  133.3313  159.3199 H   0  0  0  0  0  0  0  0  0  0  0  0  # atno 6907 bound_to 6896
  150.7862  134.6852  159.6475 H   0  0  0  0  0  0  0  0  0  0  0  0  # atno 6908 bound_to 6896
  152.3932  134.6411  160.0151 H   0  0  0  0  0  0  0  0  0  0  0  0  # atno 6909 bound_to 6896
  146.2429  140.0133  142.8404 H   0  0  0  0  0  0  0  0  0  0  0  0  # atno 7974 bound_to 7965
  154.8921  140.0415  157.1844 H   0  0  0  0  0  0  0  0  0  0  0  0  # atno 8008 bound_to 7997
  154.8530  140.2932  155.5565 H   0  0  0  0  0  0  0  0  0  0  0  0  # atno 8009 bound_to 7997
  156.2996  140.2461  156.3492 H   0  0  0  0  0  0  0  0  0  0  0  0  # atno 8010 bound_to 7997
  140.5464  143.9587  150.6550 H   0  0  0  0  0  0  0  0  0  0  0  0  # atno 10167 bound_to 10162
  156.1080  130.6226  150.9246 H   0  0  0  0  0  0  0  0  0  0  0  0  # atno 10718 bound_to 10713
  153.2596  135.6922  153.7592 H   0  0  0  0  0  0  0  0  0  0  0  0  # atno 10763 bound_to 10752
  153.6656  135.3353  155.3140 H   0  0  0  0  0  0  0  0  0  0  0  0  # atno 10764 bound_to 10752
  154.8425  135.4487  154.1582 H   0  0  0  0  0  0  0  0  0  0  0  0  # atno 10765 bound_to 10752
  140.7368  133.8703  155.8936 H   0  0  0  0  0  0  0  0  0  0  0  0  # atno 11005 bound_to 11000
  145.1308  140.9516  143.4546 LP  0  0  0  0  0  0  0  0  0  0  0  0  # atno 17320 bound_to 7965
  145.0390  139.3276  143.5986 LP  0  0  0  0  0  0  0  0  0  0  0  0  # atno 17321 bound_to 7965
  140.3001  143.3266  152.0979 LP  0  0  0  0  0  0  0  0  0  0  0  0  # atno 17342 bound_to 10162
  139.5009  144.6702  151.6262 LP  0  0  0  0  0  0  0  0  0  0  0  0  # atno 17343 bound_to 10162
  157.6259  131.0925  150.8534 LP  0  0  0  0  0  0  0  0  0  0  0  0  # atno 17370 bound_to 10713
  156.8650  130.5126  149.5301 LP  0  0  0  0  0  0  0  0  0  0  0  0  # atno 17371 bound_to 10713
  140.9872  134.1327  157.4441 LP  0  0  0  0  0  0  0  0  0  0  0  0  # atno 17394 bound_to 11000
  139.8814  135.0029  156.6155 LP  0  0  0  0  0  0  0  0  0  0  0  0  # atno 17395 bound_to 11000

$$$$
