AV-unprocessed.smi:1798|AV-procd|sdf|7260|dock7
  -GOLD-   22720 8513D 1   1.00000     0.00000
 Structure written by MMmdl.
 40 41  0  0  0  0  0  0  0  0  3 V2000
  152.7668  142.4628  162.4586 C   0  0  0  0  0  0  0  0  0  0  0  0
  152.7428  143.3345  161.1949 C   0  0  2  0  0  0  0  0  0  0  0  0
  151.4013  144.0779  161.0482 C   0  0  0  0  0  0  0  0  0  0  0  0
  151.3699  144.9505  159.7803 C   0  0  0  0  0  0  0  0  0  0  0  0
  151.6862  144.1433  158.5066 C   0  0  2  0  0  0  0  0  0  0  0  0
  150.5793  143.2416  158.1919 N   0  0  0  0  0  0  0  0  0  0  0  0
  150.6500  142.1705  157.3873 C   0  0  0  0  0  0  0  0  0  0  0  0
  151.6856  141.8196  156.8200 O   0  0  0  0  0  0  0  0  0  0  0  0
  149.3496  141.3712  157.2225 C   0  0  0  0  0  0  0  0  0  0  0  0
  149.5735  139.9426  156.9435 N   0  0  0  0  0  0  0  0  0  0  0  0
  149.1974  139.0278  157.9468 C   0  0  0  0  0  0  0  0  0  0  0  0
  149.3612  137.6983  157.8017 C   0  0  0  0  0  0  0  0  0  0  0  0
  148.9725  136.7738  158.8441 N   0  3  0  0  0  0  0  0  0  0  0  0
  148.3742  137.2086  159.8228 O   0  0  0  0  0  0  0  0  0  0  0  0
  149.2522  135.5850  158.7207 O   0  5  0  0  0  0  0  0  0  0  0  0
  149.9447  137.2224  156.5624 C   0  0  0  0  0  0  0  0  0  0  0  0
  150.3106  138.0925  155.6006 C   0  0  0  0  0  0  0  0  0  0  0  0
  150.1347  139.5395  155.7627 C   0  0  0  0  0  0  0  0  0  0  0  0
  150.4717  140.3397  154.8899 O   0  0  0  0  0  0  0  0  0  0  0  0
  153.0150  143.3735  158.6627 C   0  0  0  0  0  0  0  0  0  0  0  0
  153.0389  142.5038  159.9318 C   0  0  0  0  0  0  0  0  0  0  0  0
  152.0001  141.6881  162.4213 H   0  0  0  0  0  0  0  0  0  0  0  0
  152.5917  143.0625  163.3523 H   0  0  0  0  0  0  0  0  0  0  0  0
  153.7320  141.9698  162.5771 H   0  0  0  0  0  0  0  0  0  0  0  0
  153.5310  144.0820  161.2972 H   0  0  0  0  0  0  0  0  0  0  0  0
  150.5816  143.3591  161.0197 H   0  0  0  0  0  0  0  0  0  0  0  0
  151.2265  144.7048  161.9234 H   0  0  0  0  0  0  0  0  0  0  0  0
  150.3996  145.4397  159.6865 H   0  0  0  0  0  0  0  0  0  0  0  0
  152.1025  145.7518  159.8846 H   0  0  0  0  0  0  0  0  0  0  0  0
  151.7888  144.8509  157.6817 H   0  0  0  0  0  0  0  0  0  0  0  0
  149.6897  143.4511  158.6213 H   0  0  0  0  0  0  0  0  0  0  0  0
  148.7575  141.4947  158.1304 H   0  0  0  0  0  0  0  0  0  0  0  0
  148.7493  141.8201  156.4287 H   0  0  0  0  0  0  0  0  0  0  0  0
  148.7789  139.4826  158.8332 H   0  0  0  0  0  0  0  0  0  0  0  0
  150.0938  136.1656  156.3967 H   0  0  0  0  0  0  0  0  0  0  0  0
  150.7446  137.7167  154.6857 H   0  0  0  0  0  0  0  0  0  0  0  0
  153.2066  142.7566  157.7839 H   0  0  0  0  0  0  0  0  0  0  0  0
  153.8363  144.0899  158.7098 H   0  0  0  0  0  0  0  0  0  0  0  0
  154.0136  142.0231  160.0229 H   0  0  0  0  0  0  0  0  0  0  0  0
  152.3086  141.6988  159.8382 H   0  0  0  0  0  0  0  0  0  0  0  0
  1  2  1  0  0  0  0
  1 22  1  0  0  0  0
  1 23  1  0  0  0  0
  1 24  1  0  0  0  0
  2 21  1  0  0  0  0
  2  3  1  0  0  0  0
  2 25  1  0  0  0  0
  3  4  1  0  0  0  0
  3 26  1  0  0  0  0
  3 27  1  0  0  0  0
  4  5  1  0  0  0  0
  4 28  1  0  0  0  0
  4 29  1  0  0  0  0
  5  6  1  0  0  0  0
  5 20  1  0  0  0  0
  5 30  1  0  0  0  0
  6  7  1  0  0  0  0
  6 31  1  0  0  0  0
  7  8  2  0  0  0  0
  7  9  1  0  0  0  0
  9 10  1  0  0  0  0
  9 32  1  0  0  0  0
  9 33  1  0  0  0  0
 10 18  1  0  0  0  0
 10 11  1  0  0  0  0
 11 12  2  0  0  0  0
 11 34  1  0  0  0  0
 12 13  1  0  0  0  0
 12 16  1  0  0  0  0
 13 14  2  0  0  0  0
 13 15  1  0  0  0  0
 16 17  2  0  0  0  0
 16 35  1  0  0  0  0
 17 18  1  0  0  0  0
 17 36  1  0  0  0  0
 18 19  2  0  0  0  0
 20 21  1  0  0  0  0
 20 37  1  0  0  0  0
 20 38  1  0  0  0  0
 21 39  1  0  0  0  0
 21 40  1  0  0  0  0
M  CHG  1  13   1
M  CHG  1  15  -1
M  END
> <s_m_source_file>
AV-unprocessed.smi

> <i_m_source_file_index>
1798

> <i_lp_mmshare_version>
43012

> <i_f3d_flags>
0

> <s_epik_input>
W0NIM11bQ0BASF0xW0NIMl1bQ0gyXVtDQEhdKFtDSDJdW0NIMl0xKVtOSF1DKD1PKVtDSDJdbjJbY0hdYyhbTitdKD1PKVtPLV0pW2NIXVtjSF1jMj1P

> <s_epik_cmdline>
J2VwaWtfcHl0aG9uJywgJy1waCcsICc3LjAnLCAnLXRuJywgJzgnLCAnLW1hJywgJzIwMCcsICctbWV0YWxfYmluZGluZycsICctaW1hZScsICc8aW5maWxlLm1hZT4nLCAnLW9tYWUnLCAnPG91dGZpbGUubWFlPic=

> <r_lp_tautomer_probability>
1

> <r_epik_Ionization_Penalty>
1.91292e-08

> <r_epik_Ionization_Penalty_Charging>
8.23013e-11

> <r_epik_Ionization_Penalty_Neutral>
1.90469e-08

> <r_epik_State_Penalty>
-0

> <r_epik_Charging_Adjusted_Penalty>
8.23013e-11

> <i_epik_Tot_Q>
0

> <i_epik_Tot_abs_Q>
2

> <r_epik_Metal_State_Penalty>
-0

> <b_epik_Metal_Only>
0

> <s_lp_Force_Field>
OPLS_2005

> <r_lp_Energy>
19.5482

> <b_lp_Chiralities_Consistent>
1

> <s_lp_Variant>
AV-unprocessed.smi:1798-2

> <Gold.Version>
5.8.1

> <Gold.Id.Protein>
6NUR|6NUR_protein|mol2

> <Gold.PLP.Fitness>
44.0427

> <Gold.PLP.PLP>
-37.1307

> <Gold.PLP.part.hbond>
-4.0000

> <Gold.PLP.part.metal>
0.0000

> <Gold.PLP.part.buried>
-2.9482

> <Gold.PLP.part.nonpolar>
-30.1498

> <Gold.PLP.part.repulsive>
0.1416

> <Gold.PLP.ligand.clash>
0.0000

> <Gold.PLP.ligand.torsion>
0.7334

> <Gold.PLP.Chemscore.Hbond>
2.7888

> <Gold.PLP.Chemscore.CHOScore>
0.0000

> <Gold.PLP.Chemscore.Metal>
0.0000

> <Gold.Chemscore.Hbonds>
donor molecule, donor type, donor heavy atom, donor atom, acceptor molecule, acceptor atom, score
      P1  H  6896  6907       L1    15  1.00
      P1  H  6931  6943       L1    14  0.03
      P1  H  6934  6947       L1    14  0.02
      P1  H  7989  7998       L1    19  1.00

> <Gold.PLP.Chemscore.Internal.Correction>
0.0122

> <Gold.Rescore>
     Score         DG    S(hbond)    S(metal)    S(lipo)     H(rot)  DE(clash)    DE(int)     intcor
     16.42     -22.69       2.87        0.00      99.24       1.55       1.49       4.78       ----

> <Gold.Chemscore.Fitness>
16.4176

> <Gold.Chemscore.DG>
-22.6937

> <Gold.Chemscore.ZeroCoef>
-5.4800

> <Gold.Chemscore.Hbond>
2.8656

> <Gold.Chemscore.Metal>
0.0000

> <Gold.Chemscore.Lipo>
99.2450

> <Gold.Chemscore.Internal_Hbond>
0.0000

> <Gold.Chemscore.DEClash>
1.4911

> <Gold.Chemscore.DEInternal>
4.7849

> <Gold.Chemscore.Rot>
1.5505

> <Gold.Chemscore.Internal.Correction>
   9.000000E+99

> <Gold.Chemscore.Hbonds>
donor molecule, donor type, donor heavy atom, donor atom, acceptor molecule, acceptor atom, score
      P1  H  6896  6907       L1    15  0.99
      P1  H  6931  6943       L1    14  0.06
      P1  H  6934  6947       L1    14  0.05
      P1  H  7989  7998       L1    19  0.98

> <Gold.Chemscore.Hbond.Weighted>
-9.5712

> <Gold.Chemscore.Metal.Weighted>
-0.0000

> <Gold.Chemscore.Lipo.Weighted>
-11.6117

> <Gold.Chemscore.Internal_Hbond.Weighted>
0.0000

> <Gold.Chemscore.DEClash.Weighted>
1.4911

> <Gold.Chemscore.DEInternal.Weighted>
4.7849

> <Gold.Chemscore.Rot.Weighted>
3.9692

> <Gold.Chemscore.Internal.Correction.Weighted>
   9.000000E+99

> <Gold.Protein.RotatedTorsions>
[ 6907 6896 6895 6894 ] final  -78.01 input  -60.11 | X-H torsion
[ 7974 7965 7964 7962 ] final   25.89 input  175.53 | X-H torsion
[ 8008 7997 7996 7995 ] final -122.54 input   59.86 | X-H torsion
[ 10167 10162 10161 10158 ] final  168.54 input  -65.29 | X-H torsion
[ 10718 10713 10712 10709 ] final  -77.60 input   66.30 | X-H torsion
[ 10763 10752 10751 10750 ] final  114.41 input  -60.55 | X-H torsion
[ 11005 11000 10999 10996 ] final   70.09 input  -57.11 | X-H torsion

> <Gold.Protein.ActiveResidues>
 VAL166  LYS551  ARG553  GLY616  TRP617  ASP618  TYR619  PRO620  LYS621  CYS622 
 ASP623  PHE694  ASN695  SER759  ASP760  ASP761  ALA762  ILE779  LEU786  VAL792 
 PHE793  MET794  SER795  GLU796  ALA797  LYS798  CYS799  TRP800  GLU811  SER814 

> <Gold.Protein.RotatedAtoms>
  150.6983  134.4336  159.5259 H   0  0  0  0  0  0  0  0  0  0  0  0  # atno 6907 bound_to 6896
  152.2058  134.8544  160.0512 H   0  0  0  0  0  0  0  0  0  0  0  0  # atno 6908 bound_to 6896
  151.9447  133.3613  159.4015 H   0  0  0  0  0  0  0  0  0  0  0  0  # atno 6909 bound_to 6896
  146.1866  139.7404  142.8862 H   0  0  0  0  0  0  0  0  0  0  0  0  # atno 7974 bound_to 7965
  155.1659  140.0407  157.2852 H   0  0  0  0  0  0  0  0  0  0  0  0  # atno 8008 bound_to 7997
  154.6303  140.2522  155.7415 H   0  0  0  0  0  0  0  0  0  0  0  0  # atno 8009 bound_to 7997
  156.2481  140.2876  156.0652 H   0  0  0  0  0  0  0  0  0  0  0  0  # atno 8010 bound_to 7997
  139.4970  144.3804  151.9628 H   0  0  0  0  0  0  0  0  0  0  0  0  # atno 10167 bound_to 10162
  156.0140  130.4496  150.3370 H   0  0  0  0  0  0  0  0  0  0  0  0  # atno 10718 bound_to 10713
  153.5068  135.3626  155.2567 H   0  0  0  0  0  0  0  0  0  0  0  0  # atno 10763 bound_to 10752
  154.8744  135.4013  154.3414 H   0  0  0  0  0  0  0  0  0  0  0  0  # atno 10764 bound_to 10752
  153.4060  135.7076  153.6459 H   0  0  0  0  0  0  0  0  0  0  0  0  # atno 10765 bound_to 10752
  139.9617  134.7050  156.0632 H   0  0  0  0  0  0  0  0  0  0  0  0  # atno 11005 bound_to 11000
  145.3921  141.0374  143.3118 LP  0  0  0  0  0  0  0  0  0  0  0  0  # atno 17320 bound_to 7965
  144.8408  139.5475  143.6901 LP  0  0  0  0  0  0  0  0  0  0  0  0  # atno 17321 bound_to 7965
  140.3240  144.3394  150.6002 LP  0  0  0  0  0  0  0  0  0  0  0  0  # atno 17342 bound_to 10162
  140.5699  143.2182  151.7617 LP  0  0  0  0  0  0  0  0  0  0  0  0  # atno 17343 bound_to 10162
  157.1466  131.0310  151.2904 LP  0  0  0  0  0  0  0  0  0  0  0  0  # atno 17370 bound_to 10713
  157.4427  130.7553  149.7083 LP  0  0  0  0  0  0  0  0  0  0  0  0  # atno 17371 bound_to 10713
  141.1294  133.6590  156.3424 LP  0  0  0  0  0  0  0  0  0  0  0  0  # atno 17394 bound_to 11000
  140.5486  134.6050  157.5401 LP  0  0  0  0  0  0  0  0  0  0  0  0  # atno 17395 bound_to 11000

$$$$
