AV-unprocessed.smi:1243|AV-procd|sdf|5220|dock6
  -GOLD-   22720 4313D 1   1.00000     0.00000
 Structure written by MMmdl.
 50 51  0  0  0  0  0  0  0  0  1 V2000
  146.2639  132.5857  152.2115 C   0  0  0  0  0  0  0  0  0  0  0  0
  147.4682  133.1955  152.6629 O   0  0  0  0  0  0  0  0  0  0  0  0
  148.2890  132.4843  153.5177 C   0  0  0  0  0  0  0  0  0  0  0  0
  148.2051  131.1301  153.5148 N   0  0  0  0  0  0  0  0  0  0  0  0
  149.0030  130.4352  154.3514 C   0  0  0  0  0  0  0  0  0  0  0  0
  149.9133  131.0461  155.2329 C   0  0  0  0  0  0  0  0  0  0  0  0
  150.0022  132.4504  155.2379 C   0  0  0  0  0  0  0  0  0  0  0  0
  149.1828  133.1940  154.3537 C   0  0  0  0  0  0  0  0  0  0  0  0
  149.1805  134.6146  154.2789 N   0  0  0  0  0  0  0  0  0  0  0  0
  149.4516  135.5118  155.2418 C   0  0  0  0  0  0  0  0  0  0  0  0
  149.7276  135.2432  156.4107 O   0  0  0  0  0  0  0  0  0  0  0  0
  149.3946  136.7604  154.7594 N   0  0  0  0  0  0  0  0  0  0  0  0
  149.6166  137.9877  155.5231 C   0  0  0  0  0  0  0  0  0  0  0  0
  151.1284  138.3241  155.6731 C   0  0  0  0  0  0  0  0  0  0  0  0
  151.7560  137.1569  156.4771 C   0  0  0  0  0  0  0  0  0  0  0  0
  151.7474  138.2895  154.2551 C   0  0  0  0  0  0  0  0  0  0  0  0
  151.3368  139.6250  156.3691 N   0  0  0  0  0  0  0  0  0  0  0  0
  150.6594  140.7745  155.7478 C   0  0  0  0  0  0  0  0  0  0  0  0
  151.0364  142.0997  156.4350 C   0  0  0  0  0  0  0  0  0  0  0  0
  150.7011  142.0804  157.8555 N   0  0  0  0  0  0  0  0  0  0  0  0
  151.0456  143.3365  158.5031 C   0  0  0  0  0  0  0  0  0  0  0  0
  151.3799  140.9501  158.4814 C   0  0  0  0  0  0  0  0  0  0  0  0
  151.0020  139.6207  157.8031 C   0  0  0  0  0  0  0  0  0  0  0  0
  145.7384  133.2739  151.5496 H   0  0  0  0  0  0  0  0  0  0  0  0
  145.5978  132.3534  153.0436 H   0  0  0  0  0  0  0  0  0  0  0  0
  146.4653  131.6743  151.6468 H   0  0  0  0  0  0  0  0  0  0  0  0
  148.9095  129.3597  154.3213 H   0  0  0  0  0  0  0  0  0  0  0  0
  150.5273  130.4513  155.8929 H   0  0  0  0  0  0  0  0  0  0  0  0
  150.6853  132.9233  155.9257 H   0  0  0  0  0  0  0  0  0  0  0  0
  149.0308  134.9930  153.3549 H   0  0  0  0  0  0  0  0  0  0  0  0
  149.1561  136.8790  153.7857 H   0  0  0  0  0  0  0  0  0  0  0  0
  149.0941  138.8296  155.0656 H   0  0  0  0  0  0  0  0  0  0  0  0
  149.1397  137.8696  156.4958 H   0  0  0  0  0  0  0  0  0  0  0  0
  151.4591  136.1876  156.0744 H   0  0  0  0  0  0  0  0  0  0  0  0
  151.4512  137.1797  157.5241 H   0  0  0  0  0  0  0  0  0  0  0  0
  152.8454  137.1746  156.4509 H   0  0  0  0  0  0  0  0  0  0  0  0
  151.5781  137.3231  153.7784 H   0  0  0  0  0  0  0  0  0  0  0  0
  152.8258  138.4451  154.2719 H   0  0  0  0  0  0  0  0  0  0  0  0
  151.3135  139.0429  153.5982 H   0  0  0  0  0  0  0  0  0  0  0  0
  150.9286  140.8621  154.6970 H   0  0  0  0  0  0  0  0  0  0  0  0
  149.5775  140.6470  155.7877 H   0  0  0  0  0  0  0  0  0  0  0  0
  152.1032  142.2893  156.3043 H   0  0  0  0  0  0  0  0  0  0  0  0
  150.5117  142.9205  155.9448 H   0  0  0  0  0  0  0  0  0  0  0  0
  150.7730  143.3141  159.5587 H   0  0  0  0  0  0  0  0  0  0  0  0
  150.5124  144.1675  158.0404 H   0  0  0  0  0  0  0  0  0  0  0  0
  152.1156  143.5369  158.4325 H   0  0  0  0  0  0  0  0  0  0  0  0
  152.4613  141.0896  158.4353 H   0  0  0  0  0  0  0  0  0  0  0  0
  151.1163  140.9030  159.5385 H   0  0  0  0  0  0  0  0  0  0  0  0
  149.9369  139.4370  157.9457 H   0  0  0  0  0  0  0  0  0  0  0  0
  151.5323  138.8257  158.3237 H   0  0  0  0  0  0  0  0  0  0  0  0
  1  2  1  0  0  0  0
  1 24  1  0  0  0  0
  1 25  1  0  0  0  0
  1 26  1  0  0  0  0
  2  3  1  0  0  0  0
  3  8  1  0  0  0  0
  3  4  2  0  0  0  0
  4  5  1  0  0  0  0
  5  6  2  0  0  0  0
  5 27  1  0  0  0  0
  6  7  1  0  0  0  0
  6 28  1  0  0  0  0
  7  8  2  0  0  0  0
  7 29  1  0  0  0  0
  8  9  1  0  0  0  0
  9 10  1  0  0  0  0
  9 30  1  0  0  0  0
 10 11  2  0  0  0  0
 10 12  1  0  0  0  0
 12 13  1  0  0  0  0
 12 31  1  0  0  0  0
 13 14  1  0  0  0  0
 13 32  1  0  0  0  0
 13 33  1  0  0  0  0
 14 15  1  0  0  0  0
 14 16  1  0  0  0  0
 14 17  1  0  0  0  0
 15 34  1  0  0  0  0
 15 35  1  0  0  0  0
 15 36  1  0  0  0  0
 16 37  1  0  0  0  0
 16 38  1  0  0  0  0
 16 39  1  0  0  0  0
 17 23  1  0  0  0  0
 17 18  1  0  0  0  0
 18 19  1  0  0  0  0
 18 40  1  0  0  0  0
 18 41  1  0  0  0  0
 19 20  1  0  0  0  0
 19 42  1  0  0  0  0
 19 43  1  0  0  0  0
 20 21  1  0  0  0  0
 20 22  1  0  0  0  0
 21 44  1  0  0  0  0
 21 45  1  0  0  0  0
 21 46  1  0  0  0  0
 22 23  1  0  0  0  0
 22 47  1  0  0  0  0
 22 48  1  0  0  0  0
 23 49  1  0  0  0  0
 23 50  1  0  0  0  0
M  END
> <s_m_source_file>
AV-unprocessed.smi

> <i_m_source_file_index>
1243

> <i_lp_mmshare_version>
43012

> <i_f3d_flags>
0

> <s_epik_input>
W0NIM11PYzFuW2NIXVtjSF1bY0hdYzFbTkhdQyg9TylbTkhdW0NIMl1DKFtDSDNdKShbQ0gzXSlOMltDSDJdW0NIMl1OKFtDSDNdKVtDSDJdW0NIMl0y

> <s_epik_cmdline>
J2VwaWtfcHl0aG9uJywgJy1waCcsICc3LjAnLCAnLXRuJywgJzgnLCAnLW1hJywgJzIwMCcsICctbWV0YWxfYmluZGluZycsICctaW1hZScsICc8aW5maWxlLm1hZT4nLCAnLW9tYWUnLCAnPG91dGZpbGUubWFlPic=

> <r_lp_tautomer_probability>
1

> <r_epik_Ionization_Penalty>
3.08543

> <r_epik_Ionization_Penalty_Charging>
0

> <r_epik_Ionization_Penalty_Neutral>
3.08543

> <r_epik_State_Penalty>
2.1584

> <r_epik_Charging_Adjusted_Penalty>
2.1584

> <i_epik_Tot_Q>
0

> <i_epik_Tot_abs_Q>
0

> <r_epik_Metal_State_Penalty>
2.1584

> <b_epik_Metal_Only>
0

> <s_lp_Force_Field>
OPLS_2005

> <r_lp_Energy>
53.3534

> <b_lp_Chiralities_Consistent>
1

> <s_lp_Variant>
AV-unprocessed.smi:1243-3

> <Gold.Version>
5.8.1

> <Gold.Id.Protein>
6NUR|6NUR_protein|mol2

> <Gold.PLP.Fitness>
39.7091

> <Gold.PLP.PLP>
-35.5983

> <Gold.PLP.part.hbond>
-2.0000

> <Gold.PLP.part.metal>
0.0000

> <Gold.PLP.part.buried>
-6.8400

> <Gold.PLP.part.nonpolar>
-27.1135

> <Gold.PLP.part.repulsive>
1.0061

> <Gold.PLP.ligand.clash>
0.0000

> <Gold.PLP.ligand.torsion>
0.8157

> <Gold.PLP.Chemscore.Hbond>
1.8920

> <Gold.PLP.Chemscore.CHOScore>
0.0000

> <Gold.PLP.Chemscore.Metal>
0.0000

> <Gold.Chemscore.Hbonds>
donor molecule, donor type, donor heavy atom, donor atom, acceptor molecule, acceptor atom, score
      L1  H     9    30       P1  7948  1.00
      L1  H    12    31       P1  7948  1.00

> <Gold.PLP.Chemscore.Internal.Correction>
0.0662

> <Gold.Rescore>
     Score         DG    S(hbond)    S(metal)    S(lipo)     H(rot)  DE(clash)    DE(int)     intcor
     10.30     -13.73       0.78        0.00      84.86       1.67       0.57       2.86       ----

> <Gold.Chemscore.Fitness>
10.3034

> <Gold.Chemscore.DG>
-13.7336

> <Gold.Chemscore.ZeroCoef>
-5.4800

> <Gold.Chemscore.Hbond>
0.7814

> <Gold.Chemscore.Metal>
0.0000

> <Gold.Chemscore.Lipo>
84.8585

> <Gold.Chemscore.Internal_Hbond>
0.0000

> <Gold.Chemscore.DEClash>
0.5698

> <Gold.Chemscore.DEInternal>
2.8604

> <Gold.Chemscore.Rot>
1.6737

> <Gold.Chemscore.Internal.Correction>
   9.000000E+99

> <Gold.Chemscore.Hbonds>
donor molecule, donor type, donor heavy atom, donor atom, acceptor molecule, acceptor atom, score
      L1  H     9    30       P1  7948  0.25
      L1  H    12    31       P1  7948  0.91

> <Gold.Chemscore.Hbond.Weighted>
-2.6099

> <Gold.Chemscore.Metal.Weighted>
-0.0000

> <Gold.Chemscore.Lipo.Weighted>
-9.9284

> <Gold.Chemscore.Internal_Hbond.Weighted>
0.0000

> <Gold.Chemscore.DEClash.Weighted>
0.5698

> <Gold.Chemscore.DEInternal.Weighted>
2.8604

> <Gold.Chemscore.Rot.Weighted>
4.2848

> <Gold.Chemscore.Internal.Correction.Weighted>
   9.000000E+99

> <Gold.Protein.RotatedTorsions>
[ 6907 6896 6895 6894 ] final -113.51 input  -60.11 | X-H torsion
[ 7974 7965 7964 7962 ] final   98.74 input  175.53 | X-H torsion
[ 8008 7997 7996 7995 ] final  -95.35 input   59.86 | X-H torsion
[ 10167 10162 10161 10158 ] final -159.23 input  -65.29 | X-H torsion
[ 10718 10713 10712 10709 ] final  148.44 input   66.30 | X-H torsion
[ 10763 10752 10751 10750 ] final  -75.13 input  -60.55 | X-H torsion
[ 11005 11000 10999 10996 ] final  137.71 input  -57.11 | X-H torsion

> <Gold.Protein.ActiveResidues>
 VAL166  LYS551  ARG553  GLY616  TRP617  ASP618  TYR619  PRO620  LYS621  CYS622 
 ASP623  PHE694  ASN695  SER759  ASP760  ASP761  ALA762  ILE779  LEU786  VAL792 
 PHE793  MET794  SER795  GLU796  ALA797  LYS798  CYS799  TRP800  GLU811  SER814 

> <Gold.Protein.RotatedAtoms>
  150.7834  133.8935  159.3319 H   0  0  0  0  0  0  0  0  0  0  0  0  # atno 6907 bound_to 6896
  151.6791  135.0962  160.0222 H   0  0  0  0  0  0  0  0  0  0  0  0  # atno 6908 bound_to 6896
  152.3892  133.6616  159.6259 H   0  0  0  0  0  0  0  0  0  0  0  0  # atno 6909 bound_to 6896
  145.4081  139.2338  143.3263 H   0  0  0  0  0  0  0  0  0  0  0  0  # atno 7974 bound_to 7965
  154.7602  140.0481  157.0967 H   0  0  0  0  0  0  0  0  0  0  0  0  # atno 8008 bound_to 7997
  154.9947  140.3117  155.4872 H   0  0  0  0  0  0  0  0  0  0  0  0  # atno 8009 bound_to 7997
  156.2903  140.2212  156.5053 H   0  0  0  0  0  0  0  0  0  0  0  0  # atno 8010 bound_to 7997
  139.6631  143.9877  152.2238 H   0  0  0  0  0  0  0  0  0  0  0  0  # atno 10167 bound_to 10162
  157.3085  131.0883  151.1334 H   0  0  0  0  0  0  0  0  0  0  0  0  # atno 10718 bound_to 10713
  154.4825  135.5841  153.6399 H   0  0  0  0  0  0  0  0  0  0  0  0  # atno 10763 bound_to 10752
  152.9849  135.6093  154.3229 H   0  0  0  0  0  0  0  0  0  0  0  0  # atno 10764 bound_to 10752
  154.3121  135.2845  155.2540 H   0  0  0  0  0  0  0  0  0  0  0  0  # atno 10765 bound_to 10752
  140.0133  134.9429  157.0322 H   0  0  0  0  0  0  0  0  0  0  0  0  # atno 11005 bound_to 11000
  146.2718  140.4788  142.8811 LP  0  0  0  0  0  0  0  0  0  0  0  0  # atno 17320 bound_to 7965
  144.8328  140.6734  143.6280 LP  0  0  0  0  0  0  0  0  0  0  0  0  # atno 17321 bound_to 7965
  139.9621  144.6550  150.8069 LP  0  0  0  0  0  0  0  0  0  0  0  0  # atno 17342 bound_to 10162
  140.7588  143.3115  151.2833 LP  0  0  0  0  0  0  0  0  0  0  0  0  # atno 17343 bound_to 10162
  157.2666  130.6684  149.5999 LP  0  0  0  0  0  0  0  0  0  0  0  0  # atno 17370 bound_to 10713
  155.9676  130.4492  150.5649 LP  0  0  0  0  0  0  0  0  0  0  0  0  # atno 17371 bound_to 10713
  140.4516  134.1576  155.7182 LP  0  0  0  0  0  0  0  0  0  0  0  0  # atno 17394 bound_to 11000
  141.1725  133.8579  157.1525 LP  0  0  0  0  0  0  0  0  0  0  0  0  # atno 17395 bound_to 11000

$$$$
