AV-unprocessed.smi:1819|AV-procd|sdf|7382|dock1
  -GOLD-   22720 9 53D 1   1.00000     0.00000
 Structure written by MMmdl.
 29 29  0  0  0  0  0  0  0  0  1 V2000
  153.5427  138.8855  157.3165 O   0  0  0  0  0  0  0  0  0  0  0  0
  152.5276  139.3285  156.7773 C   0  0  0  0  0  0  0  0  0  0  0  0
  152.3969  139.3522  155.2475 C   0  0  0  0  0  0  0  0  0  0  0  0
  151.0149  139.1541  154.7870 N   0  0  0  0  0  0  0  0  0  0  0  0
  150.1179  140.2130  154.7851 C   0  0  0  0  0  0  0  0  0  0  0  0
  148.8354  140.1031  154.3647 C   0  0  0  0  0  0  0  0  0  0  0  0
  148.3238  138.8258  153.8797 C   0  0  0  0  0  0  0  0  0  0  0  0
  147.1788  138.6257  153.4804 O   0  0  0  0  0  0  0  0  0  0  0  0
  149.2569  137.7857  153.8945 N   0  0  0  0  0  0  0  0  0  0  0  0
  150.5806  137.8926  154.3245 C   0  0  0  0  0  0  0  0  0  0  0  0
  151.3226  136.9115  154.2915 O   0  0  0  0  0  0  0  0  0  0  0  0
  151.4942  139.8319  157.4669 N   0  0  0  0  0  0  0  0  0  0  0  0
  151.4315  139.9015  158.9198 C   0  0  0  0  0  0  0  0  0  0  0  0
  151.9905  141.2376  159.4208 C   0  0  0  0  0  0  0  0  0  0  0  0
  150.9317  142.6252  158.9279 S   0  0  0  0  0  0  0  0  0  0  0  0
  151.9659  144.0209  159.4472 C   0  0  0  0  0  0  0  0  0  0  0  0
  153.0341  144.1086  158.6563 F   0  0  0  0  0  0  0  0  0  0  0  0
  151.2794  145.1597  159.3653 F   0  0  0  0  0  0  0  0  0  0  0  0
  152.3773  143.8486  160.7025 F   0  0  0  0  0  0  0  0  0  0  0  0
  148.9488  136.8825  153.5647 H   0  0  0  0  0  0  0  0  0  0  0  0
  152.7916  140.2918  154.8550 H   0  0  0  0  0  0  0  0  0  0  0  0
  153.0464  138.5756  154.8407 H   0  0  0  0  0  0  0  0  0  0  0  0
  150.4546  141.1796  155.1320 H   0  0  0  0  0  0  0  0  0  0  0  0
  148.1847  140.9654  154.3864 H   0  0  0  0  0  0  0  0  0  0  0  0
  150.6989  140.1821  156.9523 H   0  0  0  0  0  0  0  0  0  0  0  0
  150.3964  139.7846  159.2450 H   0  0  0  0  0  0  0  0  0  0  0  0
  152.0004  139.0736  159.3458 H   0  0  0  0  0  0  0  0  0  0  0  0
  152.0736  141.2278  160.5080 H   0  0  0  0  0  0  0  0  0  0  0  0
  152.9919  141.4004  159.0212 H   0  0  0  0  0  0  0  0  0  0  0  0
  1  2  2  0  0  0  0
  2  3  1  0  0  0  0
  2 12  1  0  0  0  0
  3  4  1  0  0  0  0
  3 21  1  0  0  0  0
  3 22  1  0  0  0  0
  4 10  1  0  0  0  0
  4  5  1  0  0  0  0
  5  6  2  0  0  0  0
  5 23  1  0  0  0  0
  6  7  1  0  0  0  0
  6 24  1  0  0  0  0
  7  8  2  0  0  0  0
  7  9  1  0  0  0  0
  9 20  1  0  0  0  0
  9 10  1  0  0  0  0
 10 11  2  0  0  0  0
 12 13  1  0  0  0  0
 12 25  1  0  0  0  0
 13 14  1  0  0  0  0
 13 26  1  0  0  0  0
 13 27  1  0  0  0  0
 14 15  1  0  0  0  0
 14 28  1  0  0  0  0
 14 29  1  0  0  0  0
 15 16  1  0  0  0  0
 16 17  1  0  0  0  0
 16 18  1  0  0  0  0
 16 19  1  0  0  0  0
M  END
> <s_m_source_file>
AV-unprocessed.smi

> <i_m_source_file_index>
1819

> <i_lp_mmshare_version>
43012

> <i_f3d_flags>
0

> <s_epik_input>
RkMoRikoRilTW0NIMl1bQ0gyXVtOSF1DKD1PKVtDSDJdbjFbY0hdW2NIXWMoPU8pW25IXWMxPU8=

> <s_epik_cmdline>
J2VwaWtfcHl0aG9uJywgJy1waCcsICc3LjAnLCAnLXRuJywgJzgnLCAnLW1hJywgJzIwMCcsICctbWV0YWxfYmluZGluZycsICctaW1hZScsICc8aW5maWxlLm1hZT4nLCAnLW9tYWUnLCAnPG91dGZpbGUubWFlPic=

> <r_lp_tautomer_probability>
0.999537

> <r_epik_Ionization_Penalty>
0.00347617

> <r_epik_Ionization_Penalty_Charging>
0.00347613

> <r_epik_Ionization_Penalty_Neutral>
4.33222e-08

> <r_epik_State_Penalty>
0.00246522

> <r_epik_Charging_Adjusted_Penalty>
0.00594136

> <i_epik_Tot_Q>
0

> <i_epik_Tot_abs_Q>
0

> <r_epik_Metal_State_Penalty>
0.367629

> <b_epik_Metal_Only>
0

> <s_lp_Force_Field>
OPLS_2005

> <r_lp_Energy>
-0.213216

> <b_lp_Chiralities_Consistent>
1

> <s_lp_Variant>
AV-unprocessed.smi:1819-1

> <Gold.Version>
5.8.1

> <Gold.Id.Protein>
6NUR|6NUR_protein|mol2

> <Gold.PLP.Fitness>
44.9020

> <Gold.PLP.PLP>
-39.2102

> <Gold.PLP.part.hbond>
-3.0000

> <Gold.PLP.part.metal>
0.0000

> <Gold.PLP.part.buried>
-2.3359

> <Gold.PLP.part.nonpolar>
-34.7334

> <Gold.PLP.part.repulsive>
1.0297

> <Gold.PLP.ligand.clash>
0.0000

> <Gold.PLP.ligand.torsion>
0.9370

> <Gold.PLP.Chemscore.Hbond>
2.4960

> <Gold.PLP.Chemscore.CHOScore>
0.0000

> <Gold.PLP.Chemscore.Metal>
0.0000

> <Gold.Chemscore.Hbonds>
donor molecule, donor type, donor heavy atom, donor atom, acceptor molecule, acceptor atom, score
      L1  H     9    20       P1  7948  0.56
      P1  H  7997  8009       L1     1  0.96
      P1  H 10752 10765       L1    11  0.96

> <Gold.PLP.Chemscore.Internal.Correction>
0.0778

> <Gold.Rescore>
     Score         DG    S(hbond)    S(metal)    S(lipo)     H(rot)  DE(clash)    DE(int)     intcor
      8.89     -10.78       2.18        0.00      47.22       2.93       0.09       1.80       ----

> <Gold.Chemscore.Fitness>
8.8857

> <Gold.Chemscore.DG>
-10.7818

> <Gold.Chemscore.ZeroCoef>
-5.4800

> <Gold.Chemscore.Hbond>
2.1816

> <Gold.Chemscore.Metal>
0.0000

> <Gold.Chemscore.Lipo>
47.2155

> <Gold.Chemscore.Internal_Hbond>
0.0000

> <Gold.Chemscore.DEClash>
0.0920

> <Gold.Chemscore.DEInternal>
1.8041

> <Gold.Chemscore.Rot>
2.9332

> <Gold.Chemscore.Internal.Correction>
   9.000000E+99

> <Gold.Chemscore.Hbonds>
donor molecule, donor type, donor heavy atom, donor atom, acceptor molecule, acceptor atom, score
      L1  H     9    20       P1  7948  0.56
      P1  H  7997  8009       L1     1  0.45
      P1  H 10752 10765       L1    11  0.91

> <Gold.Chemscore.Hbond.Weighted>
-7.2865

> <Gold.Chemscore.Metal.Weighted>
-0.0000

> <Gold.Chemscore.Lipo.Weighted>
-5.5242

> <Gold.Chemscore.Internal_Hbond.Weighted>
0.0000

> <Gold.Chemscore.DEClash.Weighted>
0.0920

> <Gold.Chemscore.DEInternal.Weighted>
1.8041

> <Gold.Chemscore.Rot.Weighted>
7.5089

> <Gold.Chemscore.Internal.Correction.Weighted>
   9.000000E+99

> <Gold.Protein.RotatedTorsions>
[ 6907 6896 6895 6894 ] final -161.57 input  -60.11 | X-H torsion
[ 7974 7965 7964 7962 ] final   31.85 input  175.53 | X-H torsion
[ 8008 7997 7996 7995 ] final  148.26 input   59.86 | X-H torsion
[ 10167 10162 10161 10158 ] final  -87.57 input  -65.29 | X-H torsion
[ 10718 10713 10712 10709 ] final  161.45 input   66.30 | X-H torsion
[ 10763 10752 10751 10750 ] final  166.49 input  -60.55 | X-H torsion
[ 11005 11000 10999 10996 ] final   -9.03 input  -57.11 | X-H torsion

> <Gold.Protein.ActiveResidues>
 VAL166  LYS551  ARG553  GLY616  TRP617  ASP618  TYR619  PRO620  LYS621  CYS622 
 ASP623  PHE694  ASN695  SER759  ASP760  ASP761  ALA762  ILE779  LEU786  VAL792 
 PHE793  MET794  SER795  GLU796  ALA797  LYS798  CYS799  TRP800  GLU811  SER814 

> <Gold.Protein.RotatedAtoms>
  151.3667  133.3869  159.2695 H   0  0  0  0  0  0  0  0  0  0  0  0  # atno 6907 bound_to 6896
  150.9683  134.9061  159.7783 H   0  0  0  0  0  0  0  0  0  0  0  0  # atno 6908 bound_to 6896
  152.5175  134.3628  159.9343 H   0  0  0  0  0  0  0  0  0  0  0  0  # atno 6909 bound_to 6896
  146.1524  139.6603  142.9090 H   0  0  0  0  0  0  0  0  0  0  0  0  # atno 7974 bound_to 7965
  156.2797  140.2133  156.5670 H   0  0  0  0  0  0  0  0  0  0  0  0  # atno 8008 bound_to 7997
  154.7166  140.0507  157.0623 H   0  0  0  0  0  0  0  0  0  0  0  0  # atno 8009 bound_to 7997
  155.0534  140.3158  155.4687 H   0  0  0  0  0  0  0  0  0  0  0  0  # atno 8010 bound_to 7997
  140.3832  143.2739  151.9358 H   0  0  0  0  0  0  0  0  0  0  0  0  # atno 10167 bound_to 10162
  157.1363  131.0529  151.2348 H   0  0  0  0  0  0  0  0  0  0  0  0  # atno 10718 bound_to 10713
  154.3397  135.2754  155.2429 H   0  0  0  0  0  0  0  0  0  0  0  0  # atno 10763 bound_to 10752
  154.4705  135.5884  153.6322 H   0  0  0  0  0  0  0  0  0  0  0  0  # atno 10764 bound_to 10752
  152.9858  135.6087  154.3597 H   0  0  0  0  0  0  0  0  0  0  0  0  # atno 10765 bound_to 10752
  140.7298  133.8758  155.8884 H   0  0  0  0  0  0  0  0  0  0  0  0  # atno 11005 bound_to 11000
  145.4791  141.0437  143.2656 LP  0  0  0  0  0  0  0  0  0  0  0  0  # atno 17320 bound_to 7965
  144.7920  139.6309  143.7109 LP  0  0  0  0  0  0  0  0  0  0  0  0  # atno 17321 bound_to 7965
  139.4794  144.5799  151.7950 LP  0  0  0  0  0  0  0  0  0  0  0  0  # atno 17342 bound_to 10162
  140.4916  144.1301  150.5951 LP  0  0  0  0  0  0  0  0  0  0  0  0  # atno 17343 bound_to 10162
  157.4347  130.7510  149.7019 LP  0  0  0  0  0  0  0  0  0  0  0  0  # atno 17370 bound_to 10713
  155.9797  130.4037  150.3569 LP  0  0  0  0  0  0  0  0  0  0  0  0  # atno 17371 bound_to 10713
  140.9931  134.1252  157.4389 LP  0  0  0  0  0  0  0  0  0  0  0  0  # atno 17394 bound_to 11000
  139.8829  135.0046  156.6261 LP  0  0  0  0  0  0  0  0  0  0  0  0  # atno 17395 bound_to 11000

$$$$
