AV-unprocessed.smi:693|AV-procd|sdf|3374|dock9
  -GOLD-   22720 0353D 1   1.00000     0.00000
 Structure written by MMmdl.
 47 48  0  0  0  0  0  0  0  0  2 V2000
  151.5726  145.3788  158.6016 C   0  0  0  0  0  0  0  0  0  0  0  0
  151.7217  143.8966  158.3318 C   0  0  0  0  0  0  0  0  0  0  0  0
  152.4832  143.0516  159.1674 C   0  0  0  0  0  0  0  0  0  0  0  0
  152.5814  141.6800  158.8540 C   0  0  0  0  0  0  0  0  0  0  0  0
  151.9178  141.1812  157.7115 C   0  0  0  0  0  0  0  0  0  0  0  0
  152.0020  139.7122  157.3468 C   0  0  0  0  0  0  0  0  0  0  0  0
  151.6183  139.4561  155.8800 C   0  0  0  0  0  0  0  0  0  0  0  0
  150.9130  138.1898  155.7238 N   0  0  0  0  0  0  0  0  0  0  0  0
  151.3724  137.1213  155.0501 C   0  0  0  0  0  0  0  0  0  0  0  0
  152.4618  137.1324  154.4745 O   0  0  0  0  0  0  0  0  0  0  0  0
  150.5353  136.0527  155.0401 N   0  0  0  0  0  0  0  0  0  0  0  0
  149.1745  136.0097  155.5993 C   0  0  0  0  0  0  0  0  0  0  0  0
  149.2213  135.2337  156.9253 C   0  0  0  0  0  0  0  0  0  0  0  0
  149.8017  133.8219  156.7173 C   0  0  0  0  0  0  0  0  0  0  0  0
  151.1410  133.8407  155.9362 C   0  0  1  0  0  0  0  0  0  0  0  0
  151.6574  132.4296  155.5715 C   0  0  0  0  0  0  0  0  0  0  0  0
  152.0635  131.5828  156.7825 C   0  0  0  0  0  0  0  0  0  0  0  0
  152.5693  130.3722  156.5346 N   0  0  0  0  0  0  0  0  0  0  0  0
  151.9031  132.0024  157.9265 O   0  0  0  0  0  0  0  0  0  0  0  0
  150.9936  134.7088  154.6654 C   0  0  0  0  0  0  0  0  0  0  0  0
  151.1703  142.0733  156.9133 C   0  0  0  0  0  0  0  0  0  0  0  0
  151.1004  143.3805  157.2475 N   0  3  0  0  0  0  0  0  0  0  0  0
  151.9351  145.6333  159.5981 H   0  0  0  0  0  0  0  0  0  0  0  0
  150.5262  145.6783  158.5351 H   0  0  0  0  0  0  0  0  0  0  0  0
  152.1437  145.9544  157.8731 H   0  0  0  0  0  0  0  0  0  0  0  0
  152.9873  143.4468  160.0375 H   0  0  0  0  0  0  0  0  0  0  0  0
  153.1598  141.0208  159.4849 H   0  0  0  0  0  0  0  0  0  0  0  0
  153.0178  139.3648  157.5393 H   0  0  0  0  0  0  0  0  0  0  0  0
  151.3516  139.1395  158.0095 H   0  0  0  0  0  0  0  0  0  0  0  0
  150.9642  140.2516  155.5221 H   0  0  0  0  0  0  0  0  0  0  0  0
  152.5035  139.4700  155.2418 H   0  0  0  0  0  0  0  0  0  0  0  0
  150.0065  138.1146  156.1620 H   0  0  0  0  0  0  0  0  0  0  0  0
  148.7270  136.9907  155.7581 H   0  0  0  0  0  0  0  0  0  0  0  0
  148.5122  135.5032  154.8955 H   0  0  0  0  0  0  0  0  0  0  0  0
  149.8331  135.7789  157.6453 H   0  0  0  0  0  0  0  0  0  0  0  0
  148.2223  135.1654  157.3564 H   0  0  0  0  0  0  0  0  0  0  0  0
  149.9252  133.3449  157.6892 H   0  0  0  0  0  0  0  0  0  0  0  0
  149.0756  133.2197  156.1695 H   0  0  0  0  0  0  0  0  0  0  0  0
  151.8909  134.3182  156.5697 H   0  0  0  0  0  0  0  0  0  0  0  0
  150.8950  131.8884  155.0096 H   0  0  0  0  0  0  0  0  0  0  0  0
  152.5159  132.5150  154.9037 H   0  0  0  0  0  0  0  0  0  0  0  0
  152.8508  129.7766  157.2997 H   0  0  0  0  0  0  0  0  0  0  0  0
  152.6678  130.0562  155.5807 H   0  0  0  0  0  0  0  0  0  0  0  0
  150.2714  134.2581  153.9830 H   0  0  0  0  0  0  0  0  0  0  0  0
  151.9351  134.7353  154.1145 H   0  0  0  0  0  0  0  0  0  0  0  0
  150.6290  141.7825  156.0244 H   0  0  0  0  0  0  0  0  0  0  0  0
  150.5544  144.0063  156.6546 H   0  0  0  0  0  0  0  0  0  0  0  0
  1  2  1  0  0  0  0
  1 23  1  0  0  0  0
  1 24  1  0  0  0  0
  1 25  1  0  0  0  0
  2 22  1  0  0  0  0
  2  3  2  0  0  0  0
  3  4  1  0  0  0  0
  3 26  1  0  0  0  0
  4  5  2  0  0  0  0
  4 27  1  0  0  0  0
  5  6  1  0  0  0  0
  5 21  1  0  0  0  0
  6  7  1  0  0  0  0
  6 28  1  0  0  0  0
  6 29  1  0  0  0  0
  7  8  1  0  0  0  0
  7 30  1  0  0  0  0
  7 31  1  0  0  0  0
  8  9  1  0  0  0  0
  8 32  1  0  0  0  0
  9 10  2  0  0  0  0
  9 11  1  0  0  0  0
 11 20  1  0  0  0  0
 11 12  1  0  0  0  0
 12 13  1  0  0  0  0
 12 33  1  0  0  0  0
 12 34  1  0  0  0  0
 13 14  1  0  0  0  0
 13 35  1  0  0  0  0
 13 36  1  0  0  0  0
 14 15  1  0  0  0  0
 14 37  1  0  0  0  0
 14 38  1  0  0  0  0
 15 16  1  0  0  0  0
 15 20  1  0  0  0  0
 15 39  1  0  0  0  0
 16 17  1  0  0  0  0
 16 40  1  0  0  0  0
 16 41  1  0  0  0  0
 17 18  1  0  0  0  0
 17 19  2  0  0  0  0
 18 42  1  0  0  0  0
 18 43  1  0  0  0  0
 20 44  1  0  0  0  0
 20 45  1  0  0  0  0
 21 22  2  0  0  0  0
 21 46  1  0  0  0  0
 22 47  1  0  0  0  0
M  CHG  1  22   1
M  END
> <s_m_source_file>
AV-unprocessed.smi

> <i_m_source_file_index>
693

> <i_lp_mmshare_version>
43012

> <i_f3d_flags>
0

> <s_epik_input>
W0NIM11jMVtjSF1bY0hdYyhbY0hdbjEpW0NIMl1bQ0gyXVtOSF1DKD1PKU4yW0NIMl1bQ0gyXVtDSDJdW0NASF0oW0NIMl0yKVtDSDJdQyg9TylbTkgyXQ==

> <s_epik_cmdline>
J2VwaWtfcHl0aG9uJywgJy1waCcsICc3LjAnLCAnLXRuJywgJzgnLCAnLW1hJywgJzIwMCcsICctbWV0YWxfYmluZGluZycsICctaW1hZScsICc8aW5maWxlLm1hZT4nLCAnLW9tYWUnLCAnPG91dGZpbGUubWFlPic=

> <r_epik_Ionization_Penalty>
1.41666

> <r_epik_Ionization_Penalty_Charging>
1.4166

> <r_epik_Ionization_Penalty_Neutral>
5.77403e-05

> <r_epik_State_Penalty>
1.50002

> <r_epik_Charging_Adjusted_Penalty>
2.91662

> <i_epik_Tot_Q>
1

> <i_epik_Tot_abs_Q>
1

> <r_epik_Metal_State_Penalty>
1.55252

> <b_epik_Metal_Only>
0

> <s_lp_Force_Field>
OPLS_2005

> <r_lp_Energy>
32.8943

> <b_lp_Chiralities_Consistent>
1

> <s_lp_Variant>
AV-unprocessed.smi:693-3

> <Gold.Version>
5.8.1

> <Gold.Id.Protein>
6NUR|6NUR_protein|mol2

> <Gold.PLP.Fitness>
46.9775

> <Gold.PLP.PLP>
-36.2155

> <Gold.PLP.part.hbond>
-3.0000

> <Gold.PLP.part.metal>
0.0000

> <Gold.PLP.part.buried>
-5.7738

> <Gold.PLP.part.nonpolar>
-27.5027

> <Gold.PLP.part.repulsive>
0.1743

> <Gold.PLP.ligand.clash>
0.0000

> <Gold.PLP.ligand.torsion>
0.6257

> <Gold.PLP.Chemscore.Hbond>
3.9825

> <Gold.PLP.Chemscore.CHOScore>
0.0000

> <Gold.PLP.Chemscore.Metal>
0.0000

> <Gold.Chemscore.Hbonds>
donor molecule, donor type, donor heavy atom, donor atom, acceptor molecule, acceptor atom, score
      L1  H    22    47       P1  8028  1.92
      P1  H  6896  6908       L1    19  1.00
      P1  H 10752 10765       L1    10  0.67

> <Gold.PLP.Chemscore.Internal.Correction>
0.0659

> <Gold.Rescore>
     Score         DG    S(hbond)    S(metal)    S(lipo)     H(rot)  DE(clash)    DE(int)     intcor
     19.77     -20.40       2.99        0.00      93.30       2.34       0.03       0.60       ----

> <Gold.Chemscore.Fitness>
19.7686

> <Gold.Chemscore.DG>
-20.3953

> <Gold.Chemscore.ZeroCoef>
-5.4800

> <Gold.Chemscore.Hbond>
2.9873

> <Gold.Chemscore.Metal>
0.0000

> <Gold.Chemscore.Lipo>
93.3025

> <Gold.Chemscore.Internal_Hbond>
0.0000

> <Gold.Chemscore.DEClash>
0.0309

> <Gold.Chemscore.DEInternal>
0.5959

> <Gold.Chemscore.Rot>
2.3354

> <Gold.Chemscore.Internal.Correction>
   9.000000E+99

> <Gold.Chemscore.Hbonds>
donor molecule, donor type, donor heavy atom, donor atom, acceptor molecule, acceptor atom, score
      L1  H    22    47       P1  8028  0.89
      P1  H  6896  6908       L1    19  1.00
      P1  H 10752 10765       L1    10  0.35

> <Gold.Chemscore.Hbond.Weighted>
-9.9775

> <Gold.Chemscore.Metal.Weighted>
-0.0000

> <Gold.Chemscore.Lipo.Weighted>
-10.9164

> <Gold.Chemscore.Internal_Hbond.Weighted>
0.0000

> <Gold.Chemscore.DEClash.Weighted>
0.0309

> <Gold.Chemscore.DEInternal.Weighted>
0.5959

> <Gold.Chemscore.Rot.Weighted>
5.9785

> <Gold.Chemscore.Internal.Correction.Weighted>
   9.000000E+99

> <Gold.Protein.RotatedTorsions>
[ 6907 6896 6895 6894 ] final   51.42 input  -60.11 | X-H torsion
[ 7974 7965 7964 7962 ] final  165.80 input  175.53 | X-H torsion
[ 8008 7997 7996 7995 ] final   95.20 input   59.86 | X-H torsion
[ 10167 10162 10161 10158 ] final  128.62 input  -65.29 | X-H torsion
[ 10718 10713 10712 10709 ] final   67.37 input   66.30 | X-H torsion
[ 10763 10752 10751 10750 ] final  172.72 input  -60.55 | X-H torsion
[ 11005 11000 10999 10996 ] final -106.22 input  -57.11 | X-H torsion

> <Gold.Protein.ActiveResidues>
 VAL166  LYS551  ARG553  GLY616  TRP617  ASP618  TYR619  PRO620  LYS621  CYS622 
 ASP623  PHE694  ASN695  SER759  ASP760  ASP761  ALA762  ILE779  LEU786  VAL792 
 PHE793  MET794  SER795  GLU796  ALA797  LYS798  CYS799  TRP800  GLU811  SER814 

> <Gold.Protein.RotatedAtoms>
  152.3124  134.7481  160.0332 H   0  0  0  0  0  0  0  0  0  0  0  0  # atno 6907 bound_to 6896
  151.7957  133.3359  159.3520 H   0  0  0  0  0  0  0  0  0  0  0  0  # atno 6908 bound_to 6896
  150.7327  134.5731  159.5945 H   0  0  0  0  0  0  0  0  0  0  0  0  # atno 6909 bound_to 6896
  144.7488  139.8522  143.6373 H   0  0  0  0  0  0  0  0  0  0  0  0  # atno 7974 bound_to 7965
  156.0663  140.3289  155.7521 H   0  0  0  0  0  0  0  0  0  0  0  0  # atno 8008 bound_to 7997
  155.5376  140.0599  157.2894 H   0  0  0  0  0  0  0  0  0  0  0  0  # atno 8009 bound_to 7997
  154.4507  140.1916  156.0547 H   0  0  0  0  0  0  0  0  0  0  0  0  # atno 8010 bound_to 7997
  139.5518  144.6819  151.4301 H   0  0  0  0  0  0  0  0  0  0  0  0  # atno 10167 bound_to 10162
  157.6226  130.9317  150.0233 H   0  0  0  0  0  0  0  0  0  0  0  0  # atno 10718 bound_to 10713
  154.4301  135.2759  155.1918 H   0  0  0  0  0  0  0  0  0  0  0  0  # atno 10763 bound_to 10752
  154.3828  135.6084  153.5804 H   0  0  0  0  0  0  0  0  0  0  0  0  # atno 10764 bound_to 10752
  152.9836  135.5884  154.4610 H   0  0  0  0  0  0  0  0  0  0  0  0  # atno 10765 bound_to 10752
  141.1015  133.8875  157.1830 H   0  0  0  0  0  0  0  0  0  0  0  0  # atno 11005 bound_to 11000
  146.1408  139.4464  143.0110 LP  0  0  0  0  0  0  0  0  0  0  0  0  # atno 17320 bound_to 7965
  145.7021  141.0132  143.1498 LP  0  0  0  0  0  0  0  0  0  0  0  0  # atno 17321 bound_to 7965
  140.6782  143.8141  150.7086 LP  0  0  0  0  0  0  0  0  0  0  0  0  # atno 17342 bound_to 10162
  140.1586  143.4295  152.2082 LP  0  0  0  0  0  0  0  0  0  0  0  0  # atno 17343 bound_to 10162
  156.1380  130.3642  149.9627 LP  0  0  0  0  0  0  0  0  0  0  0  0  # atno 17370 bound_to 10713
  156.7674  130.9173  151.3643 LP  0  0  0  0  0  0  0  0  0  0  0  0  # atno 17371 bound_to 10713
  139.9868  135.0079  156.9882 LP  0  0  0  0  0  0  0  0  0  0  0  0  # atno 17394 bound_to 11000
  140.5010  134.1097  155.7250 LP  0  0  0  0  0  0  0  0  0  0  0  0  # atno 17395 bound_to 11000

$$$$
