AV-unprocessed.smi:45|AV-procd|sdf|410|dock7
  -GOLD-   2262016273D 1   1.00000     0.00000
 Structure written by MMmdl.
 61 64  0  0  0  0  0  0  0  0  2 V2000
  143.8188  143.9856  162.6163 C   0  0  0  0  0  0  0  0  0  0  0  0
  145.1084  143.9978  162.0220 O   0  0  0  0  0  0  0  0  0  0  0  0
  145.2563  143.4354  160.7707 C   0  0  0  0  0  0  0  0  0  0  0  0
  144.4343  142.3929  160.2721 C   0  0  0  0  0  0  0  0  0  0  0  0
  144.6455  141.8694  158.9821 C   0  0  0  0  0  0  0  0  0  0  0  0
  145.6807  142.3740  158.1699 C   0  0  0  0  0  0  0  0  0  0  0  0
  145.9069  141.8162  156.7782 C   0  0  0  0  0  0  0  0  0  0  0  0
  146.0916  140.3713  156.7557 N   0  0  0  0  0  0  0  0  0  0  0  0
  147.2879  139.7846  157.2026 C   0  0  0  0  0  0  0  0  0  0  0  0
  148.3686  140.5849  157.3404 N   0  0  0  0  0  0  0  0  0  0  0  0
  149.5391  140.0860  157.7582 C   0  0  0  0  0  0  0  0  0  0  0  0
  150.6355  140.9369  157.8924 N   0  0  0  0  0  0  0  0  0  0  0  0
  150.6639  142.2474  157.2520 C   0  0  0  0  0  0  0  0  0  0  0  0
  151.4748  143.1521  158.1784 C   0  0  0  0  0  0  0  0  0  0  0  0
  152.4234  142.1778  158.8640 C   0  0  0  0  0  0  0  0  0  0  0  0
  151.5831  140.9007  159.0084 C   0  0  2  0  0  0  0  0  0  0  0  0
  152.4494  139.6234  159.0372 C   0  0  0  0  0  0  0  0  0  0  0  0
  153.1190  139.4694  157.8041 O   0  0  0  0  0  0  0  0  0  0  0  0
  149.6915  138.7830  158.0431 N   0  3  0  0  0  0  0  0  0  0  0  0
  148.6432  137.9347  157.9170 C   0  0  0  0  0  0  0  0  0  0  0  0
  147.3829  138.3983  157.4816 C   0  0  0  0  0  0  0  0  0  0  0  0
  146.2185  137.4500  157.3769 C   0  0  0  0  0  0  0  0  0  0  0  0
  146.3130  136.2774  157.7396 O   0  0  0  0  0  0  0  0  0  0  0  0
  145.0877  137.9861  156.8910 N   0  0  0  0  0  0  0  0  0  0  0  0
  143.8482  137.2522  156.6646 C   0  0  0  0  0  0  0  0  0  0  0  0
  143.7175  136.7632  155.2329 C   0  0  0  0  0  0  0  0  0  0  0  0
  143.3954  135.4755  155.0676 N   0  0  0  0  0  0  0  0  0  0  0  0
  143.2714  135.0363  153.7961 C   0  0  0  0  0  0  0  0  0  0  0  0
  143.4677  135.8914  152.6934 C   0  0  0  0  0  0  0  0  0  0  0  0
  143.8023  137.2277  152.9919 C   0  0  0  0  0  0  0  0  0  0  0  0
  143.9267  137.6613  154.2651 N   0  0  0  0  0  0  0  0  0  0  0  0
  146.4991  143.4116  158.6574 C   0  0  0  0  0  0  0  0  0  0  0  0
  146.2895  143.9370  159.9476 C   0  0  0  0  0  0  0  0  0  0  0  0
  147.3134  145.2078  160.5142 Cl  0  0  0  0  0  0  0  0  0  0  0  0
  150.9999  140.9654  159.9283 H   0  0  0  0  0  0  0  0  0  0  0  0
  143.8696  144.4634  163.5945 H   0  0  0  0  0  0  0  0  0  0  0  0
  143.4580  142.9671  162.7658 H   0  0  0  0  0  0  0  0  0  0  0  0
  143.0974  144.5411  162.0156 H   0  0  0  0  0  0  0  0  0  0  0  0
  143.6311  141.9765  160.8605 H   0  0  0  0  0  0  0  0  0  0  0  0
  144.0073  141.0778  158.6175 H   0  0  0  0  0  0  0  0  0  0  0  0
  145.0470  142.0798  156.1615 H   0  0  0  0  0  0  0  0  0  0  0  0
  146.7800  142.2942  156.3323 H   0  0  0  0  0  0  0  0  0  0  0  0
  145.2872  139.7848  156.5815 H   0  0  0  0  0  0  0  0  0  0  0  0
  151.1527  142.1516  156.2820 H   0  0  0  0  0  0  0  0  0  0  0  0
  149.6645  142.6532  157.0907 H   0  0  0  0  0  0  0  0  0  0  0  0
  151.9920  143.9516  157.6472 H   0  0  0  0  0  0  0  0  0  0  0  0
  150.8176  143.6080  158.9202 H   0  0  0  0  0  0  0  0  0  0  0  0
  153.2848  141.9989  158.2182 H   0  0  0  0  0  0  0  0  0  0  0  0
  152.7938  142.5497  159.8197 H   0  0  0  0  0  0  0  0  0  0  0  0
  153.2056  139.6612  159.8199 H   0  0  0  0  0  0  0  0  0  0  0  0
  151.8376  138.7411  159.2285 H   0  0  0  0  0  0  0  0  0  0  0  0
  152.4997  139.6108  157.1040 H   0  0  0  0  0  0  0  0  0  0  0  0
  148.8498  136.9068  158.1789 H   0  0  0  0  0  0  0  0  0  0  0  0
  145.0899  138.9613  156.6306 H   0  0  0  0  0  0  0  0  0  0  0  0
  143.7708  136.4173  157.3640 H   0  0  0  0  0  0  0  0  0  0  0  0
  143.0110  137.9145  156.8875 H   0  0  0  0  0  0  0  0  0  0  0  0
  143.0142  133.9965  153.6581 H   0  0  0  0  0  0  0  0  0  0  0  0
  143.3687  135.5424  151.6762 H   0  0  0  0  0  0  0  0  0  0  0  0
  143.9703  137.9503  152.2073 H   0  0  0  0  0  0  0  0  0  0  0  0
  147.2934  143.8090  158.0426 H   0  0  0  0  0  0  0  0  0  0  0  0
  150.5913  138.4228  158.3615 H   0  0  0  0  0  0  0  0  0  0  0  0
  1  2  1  0  0  0  0
  1 36  1  0  0  0  0
  1 37  1  0  0  0  0
  1 38  1  0  0  0  0
  2  3  1  0  0  0  0
  3 33  1  0  0  0  0
  3  4  2  0  0  0  0
  4  5  1  0  0  0  0
  4 39  1  0  0  0  0
  5  6  2  0  0  0  0
  5 40  1  0  0  0  0
  6  7  1  0  0  0  0
  6 32  1  0  0  0  0
  7  8  1  0  0  0  0
  7 41  1  0  0  0  0
  7 42  1  0  0  0  0
  8  9  1  0  0  0  0
  8 43  1  0  0  0  0
  9 21  1  0  0  0  0
  9 10  2  0  0  0  0
 10 11  1  0  0  0  0
 11 12  1  0  0  0  0
 11 19  2  0  0  0  0
 12 16  1  0  0  0  0
 12 13  1  0  0  0  0
 13 14  1  0  0  0  0
 13 44  1  0  0  0  0
 13 45  1  0  0  0  0
 14 15  1  0  0  0  0
 14 46  1  0  0  0  0
 14 47  1  0  0  0  0
 15 16  1  0  0  0  0
 15 48  1  0  0  0  0
 15 49  1  0  0  0  0
 16 35  1  0  0  0  0
 16 17  1  0  0  0  0
 17 18  1  0  0  0  0
 17 50  1  0  0  0  0
 17 51  1  0  0  0  0
 18 52  1  0  0  0  0
 19 20  1  0  0  0  0
 19 61  1  0  0  0  0
 20 21  2  0  0  0  0
 20 53  1  0  0  0  0
 21 22  1  0  0  0  0
 22 23  2  0  0  0  0
 22 24  1  0  0  0  0
 24 25  1  0  0  0  0
 24 54  1  0  0  0  0
 25 26  1  0  0  0  0
 25 55  1  0  0  0  0
 25 56  1  0  0  0  0
 26 31  1  0  0  0  0
 26 27  2  0  0  0  0
 27 28  1  0  0  0  0
 28 29  2  0  0  0  0
 28 57  1  0  0  0  0
 29 30  1  0  0  0  0
 29 58  1  0  0  0  0
 30 31  2  0  0  0  0
 30 59  1  0  0  0  0
 32 33  2  0  0  0  0
 32 60  1  0  0  0  0
 33 34  1  0  0  0  0
M  CHG  1  19   1
M  END
> <s_m_source_file>
AV-unprocessed.smi

> <i_m_source_file_index>
45

> <i_lp_mmshare_version>
43012

> <i_f3d_flags>
0

> <s_epik_input>
W0NIM11PYzFbY0hdW2NIXWMoW2NIXWMxQ2wpW0NIMl1bTkhdYzJuYyhOM1tDSDJdW0NIMl1bQ0gyXVtDQEhdM1tDSDJdW09IXSluW2NIXWMyQyg9TylbTkhdW0NIMl1jNG5bY0hdW2NIXVtjSF1uNA==

> <s_epik_cmdline>
J2VwaWtfcHl0aG9uJywgJy1waCcsICc3LjAnLCAnLXRuJywgJzgnLCAnLW1hJywgJzIwMCcsICctbWV0YWxfYmluZGluZycsICctaW1hZScsICc8aW5maWxlLm1hZT4nLCAnLW9tYWUnLCAnPG91dGZpbGUubWFlPic=

> <r_lp_tautomer_probability>
0.575011

> <r_epik_Ionization_Penalty>
1.61454

> <r_epik_Ionization_Penalty_Charging>
1.61448

> <r_epik_Ionization_Penalty_Neutral>
6.30284e-05

> <r_epik_State_Penalty>
1.91123

> <r_epik_Charging_Adjusted_Penalty>
3.52572

> <i_epik_Tot_Q>
1

> <i_epik_Tot_abs_Q>
1

> <r_epik_Metal_State_Penalty>
1.95488

> <b_epik_Metal_Only>
0

> <s_epik_Chemistry_Notes>
This compound contains an electron-poor aromatic ring that is susceptible to covalent hydrolysis at low pH, typically resulting in measured values for nitrogen ring protonation that are around two units higher than predicted values.

> <s_lp_Force_Field>
OPLS_2005

> <r_lp_Energy>
37.0931

> <b_lp_Chiralities_Consistent>
1

> <s_lp_Variant>
AV-unprocessed.smi:45-4

> <Gold.Version>
5.8.1

> <Gold.Id.Protein>
6NUR|6NUR_protein|mol2

> <Gold.PLP.Fitness>
48.5330

> <Gold.PLP.PLP>
-38.6083

> <Gold.PLP.part.hbond>
-1.0000

> <Gold.PLP.part.metal>
0.0000

> <Gold.PLP.part.buried>
-8.3449

> <Gold.PLP.part.nonpolar>
-30.0570

> <Gold.PLP.part.repulsive>
0.4278

> <Gold.PLP.ligand.clash>
0.0000

> <Gold.PLP.ligand.torsion>
1.2355

> <Gold.PLP.Chemscore.Hbond>
1.0000

> <Gold.PLP.Chemscore.CHOScore>
2.9704

> <Gold.PLP.Chemscore.Metal>
0.0000

> <Gold.Chemscore.Hbonds>
donor molecule, donor type, donor heavy atom, donor atom, acceptor molecule, acceptor atom, score
      P1  H  7997  8010       L1    18  1.00
      L1  C    28    57       P1 10957  1.00
      L1  C    30    59       P1 10171  1.00
      L1  C    30    59       P1 10175  0.90

> <Gold.PLP.Chemscore.Internal.Correction>
0.4846

> <Gold.Rescore>
     Score         DG    S(hbond)    S(metal)    S(lipo)     H(rot)  DE(clash)    DE(int)     intcor
      7.30     -11.05       0.91        0.00      85.92       2.94       0.01       3.75       ----

> <Gold.Chemscore.Fitness>
7.2979

> <Gold.Chemscore.DG>
-11.0525

> <Gold.Chemscore.ZeroCoef>
-5.4800

> <Gold.Chemscore.Hbond>
0.9117

> <Gold.Chemscore.Metal>
0.0000

> <Gold.Chemscore.Lipo>
85.9198

> <Gold.Chemscore.Internal_Hbond>
0.0000

> <Gold.Chemscore.DEClash>
0.0077

> <Gold.Chemscore.DEInternal>
3.7468

> <Gold.Chemscore.Rot>
2.9395

> <Gold.Chemscore.Internal.Correction>
   9.000000E+99

> <Gold.Chemscore.Hbonds>
donor molecule, donor type, donor heavy atom, donor atom, acceptor molecule, acceptor atom, score
      P1  H  7997  8010       L1    18  0.35

> <Gold.Chemscore.Hbond.Weighted>
-3.0450

> <Gold.Chemscore.Metal.Weighted>
-0.0000

> <Gold.Chemscore.Lipo.Weighted>
-10.0526

> <Gold.Chemscore.Internal_Hbond.Weighted>
0.0000

> <Gold.Chemscore.DEClash.Weighted>
0.0077

> <Gold.Chemscore.DEInternal.Weighted>
3.7468

> <Gold.Chemscore.Rot.Weighted>
7.5251

> <Gold.Chemscore.Internal.Correction.Weighted>
   9.000000E+99

> <Gold.Protein.RotatedTorsions>
[ 6907 6896 6895 6894 ] final  136.90 input  -60.11 | X-H torsion
[ 7974 7965 7964 7962 ] final -129.31 input  175.53 | X-H torsion
[ 8008 7997 7996 7995 ] final   29.73 input   59.86 | X-H torsion
[ 10167 10162 10161 10158 ] final -125.21 input  -65.29 | X-H torsion
[ 10718 10713 10712 10709 ] final   30.55 input   66.30 | X-H torsion
[ 10763 10752 10751 10750 ] final  114.13 input  -60.55 | X-H torsion
[ 11005 11000 10999 10996 ] final -143.89 input  -57.11 | X-H torsion

> <Gold.Protein.ActiveResidues>
 VAL166  LYS551  ARG553  GLY616  TRP617  ASP618  TYR619  PRO620  LYS621  CYS622 
 ASP623  PHE694  ASN695  SER759  ASP760  ASP761  ALA762  ILE779  LEU786  VAL792 
 PHE793  MET794  SER795  GLU796  ALA797  LYS798  CYS799  TRP800  GLU811  SER814 

> <Gold.Protein.RotatedAtoms>
  152.2842  133.5499  159.5516 H   0  0  0  0  0  0  0  0  0  0  0  0  # atno 6907 bound_to 6896
  150.7208  134.0521  159.3811 H   0  0  0  0  0  0  0  0  0  0  0  0  # atno 6908 bound_to 6896
  151.8430  135.0584  160.0501 H   0  0  0  0  0  0  0  0  0  0  0  0  # atno 6909 bound_to 6896
  144.9584  140.7421  143.4744 H   0  0  0  0  0  0  0  0  0  0  0  0  # atno 7974 bound_to 7965
  155.0792  140.3208  155.4607 H   0  0  0  0  0  0  0  0  0  0  0  0  # atno 8008 bound_to 7997
  156.2771  140.2098  156.5865 H   0  0  0  0  0  0  0  0  0  0  0  0  # atno 8009 bound_to 7997
  154.6992  140.0508  157.0429 H   0  0  0  0  0  0  0  0  0  0  0  0  # atno 8010 bound_to 7997
  139.9845  143.5706  152.2365 H   0  0  0  0  0  0  0  0  0  0  0  0  # atno 10167 bound_to 10162
  157.2611  130.7161  149.6454 H   0  0  0  0  0  0  0  0  0  0  0  0  # atno 10718 bound_to 10713
  153.5027  135.3634  155.2548 H   0  0  0  0  0  0  0  0  0  0  0  0  # atno 10763 bound_to 10752
  154.8747  135.4004  154.3459 H   0  0  0  0  0  0  0  0  0  0  0  0  # atno 10764 bound_to 10752
  153.4098  135.7077  153.6433 H   0  0  0  0  0  0  0  0  0  0  0  0  # atno 10765 bound_to 10752
  140.8079  134.2779  157.4953 H   0  0  0  0  0  0  0  0  0  0  0  0  # atno 11005 bound_to 11000
  145.2736  139.1945  143.4828 LP  0  0  0  0  0  0  0  0  0  0  0  0  # atno 17320 bound_to 7965
  146.3345  140.2687  142.8605 LP  0  0  0  0  0  0  0  0  0  0  0  0  # atno 17321 bound_to 7965
  139.6385  144.7652  151.2388 LP  0  0  0  0  0  0  0  0  0  0  0  0  # atno 17342 bound_to 10162
  140.7477  143.6357  150.8381 LP  0  0  0  0  0  0  0  0  0  0  0  0  # atno 17343 bound_to 10162
  155.9664  130.4397  150.5270 LP  0  0  0  0  0  0  0  0  0  0  0  0  # atno 17370 bound_to 10713
  157.3174  131.0675  151.1956 LP  0  0  0  0  0  0  0  0  0  0  0  0  # atno 17371 bound_to 10713
  139.8716  134.9466  156.3945 LP  0  0  0  0  0  0  0  0  0  0  0  0  # atno 17394 bound_to 11000
  140.9228  133.7633  155.9927 LP  0  0  0  0  0  0  0  0  0  0  0  0  # atno 17395 bound_to 11000

$$$$
