AV-unprocessed.smi:2570|AV-procd|sdf|10107|dock2
  -GOLD-   2272014123D 1   1.00000     0.00000
 Structure written by MMmdl.
 32 33  0  0  0  0  0  0  0  0  1 V2000
  156.6306  139.5859  165.1943 C   0  0  0  0  0  0  0  0  0  0  0  0
  156.1401  138.2515  165.3101 O   0  0  0  0  0  0  0  0  0  0  0  0
  155.3475  137.7863  164.2754 C   0  0  0  0  0  0  0  0  0  0  0  0
  154.9072  136.4075  164.3082 C   0  0  0  0  0  0  0  0  0  0  0  0
  154.1446  135.9390  163.2965 C   0  0  0  0  0  0  0  0  0  0  0  0
  153.7552  136.7858  162.1693 C   0  0  0  0  0  0  0  0  0  0  0  0
  153.0781  136.3823  161.2242 O   0  0  0  0  0  0  0  0  0  0  0  0
  154.2231  138.0660  162.2546 N   0  0  0  0  0  0  0  0  0  0  0  0
  153.9587  139.0415  161.1882 C   0  0  0  0  0  0  0  0  0  0  0  0
  154.5057  140.4501  161.5192 C   0  0  1  0  0  0  0  0  0  0  0  0
  155.8495  140.5288  161.0900 O   0  0  0  0  0  0  0  0  0  0  0  0
  153.6467  141.5760  160.9513 C   0  0  0  0  0  0  0  0  0  0  0  0
  153.1206  141.4595  159.6462 C   0  0  0  0  0  0  0  0  0  0  0  0
  152.3543  142.5021  159.0908 C   0  0  0  0  0  0  0  0  0  0  0  0
  152.1084  143.6697  159.8372 C   0  0  0  0  0  0  0  0  0  0  0  0
  151.3740  144.6737  159.3025 F   0  0  0  0  0  0  0  0  0  0  0  0
  152.6288  143.7936  161.1390 C   0  0  0  0  0  0  0  0  0  0  0  0
  153.3966  142.7525  161.6964 C   0  0  0  0  0  0  0  0  0  0  0  0
  153.9014  142.8978  162.9450 F   0  0  0  0  0  0  0  0  0  0  0  0
  154.9975  138.5549  163.2933 N   0  0  0  0  0  0  0  0  0  0  0  0
  157.2480  139.8153  166.0626 H   0  0  0  0  0  0  0  0  0  0  0  0
  155.8201  140.3165  165.1691 H   0  0  0  0  0  0  0  0  0  0  0  0
  157.2551  139.7132  164.3081 H   0  0  0  0  0  0  0  0  0  0  0  0
  155.1911  135.7719  165.1338 H   0  0  0  0  0  0  0  0  0  0  0  0
  153.8147  134.9108  163.3171 H   0  0  0  0  0  0  0  0  0  0  0  0
  154.3756  138.6888  160.2431 H   0  0  0  0  0  0  0  0  0  0  0  0
  152.8816  139.1002  161.0186 H   0  0  0  0  0  0  0  0  0  0  0  0
  154.5310  140.5598  162.6039 H   0  0  0  0  0  0  0  0  0  0  0  0
  155.9587  141.3231  160.5898 H   0  0  0  0  0  0  0  0  0  0  0  0
  153.3109  140.5722  159.0601 H   0  0  0  0  0  0  0  0  0  0  0  0
  151.9581  142.4068  158.0907 H   0  0  0  0  0  0  0  0  0  0  0  0
  152.4431  144.6911  161.7103 H   0  0  0  0  0  0  0  0  0  0  0  0
  1  2  1  0  0  0  0
  1 21  1  0  0  0  0
  1 22  1  0  0  0  0
  1 23  1  0  0  0  0
  2  3  1  0  0  0  0
  3 20  2  0  0  0  0
  3  4  1  0  0  0  0
  4  5  2  0  0  0  0
  4 24  1  0  0  0  0
  5  6  1  0  0  0  0
  5 25  1  0  0  0  0
  6  7  2  0  0  0  0
  6  8  1  0  0  0  0
  8  9  1  0  0  0  0
  8 20  1  0  0  0  0
  9 10  1  0  0  0  0
  9 26  1  0  0  0  0
  9 27  1  0  0  0  0
 10 11  1  0  0  0  0
 10 12  1  0  0  0  0
 10 28  1  0  0  0  0
 11 29  1  0  0  0  0
 12 18  1  0  0  0  0
 12 13  2  0  0  0  0
 13 14  1  0  0  0  0
 13 30  1  0  0  0  0
 14 15  2  0  0  0  0
 14 31  1  0  0  0  0
 15 16  1  0  0  0  0
 15 17  1  0  0  0  0
 17 18  2  0  0  0  0
 17 32  1  0  0  0  0
 18 19  1  0  0  0  0
M  END
> <s_m_source_file>
AV-unprocessed.smi

> <i_m_source_file_index>
2570

> <i_lp_mmshare_version>
43012

> <i_f3d_flags>
0

> <s_epik_input>
W0NIM11PYzFbY0hdW2NIXWMoPU8pbihuMSlbQ0gyXVtDQEhdKFtPSF0pYzJbY0hdW2NIXWMoRilbY0hdYzJG

> <s_epik_cmdline>
J2VwaWtfcHl0aG9uJywgJy1waCcsICc3LjAnLCAnLXRuJywgJzgnLCAnLW1hJywgJzIwMCcsICctbWV0YWxfYmluZGluZycsICctaW1hZScsICc8aW5maWxlLm1hZT4nLCAnLW9tYWUnLCAnPG91dGZpbGUubWFlPic=

> <r_lp_tautomer_probability>
1

> <r_epik_Ionization_Penalty>
6.40224e-06

> <r_epik_Ionization_Penalty_Charging>
4.38647e-06

> <r_epik_Ionization_Penalty_Neutral>
2.01577e-06

> <r_epik_State_Penalty>
-0

> <r_epik_Charging_Adjusted_Penalty>
4.38647e-06

> <i_epik_Tot_Q>
0

> <i_epik_Tot_abs_Q>
0

> <r_epik_Metal_State_Penalty>
-0

> <b_epik_Metal_Only>
0

> <s_lp_Force_Field>
OPLS_2005

> <r_lp_Energy>
26.7666

> <b_lp_Chiralities_Consistent>
1

> <s_lp_Variant>
AV-unprocessed.smi:2570-2

> <Gold.Version>
5.8.1

> <Gold.Id.Protein>
6NUR|6NUR_protein|mol2

> <Gold.PLP.Fitness>
51.0817

> <Gold.PLP.PLP>
-50.2491

> <Gold.PLP.part.hbond>
-1.8888

> <Gold.PLP.part.metal>
0.0000

> <Gold.PLP.part.buried>
-5.9928

> <Gold.PLP.part.nonpolar>
-42.5428

> <Gold.PLP.part.repulsive>
0.0863

> <Gold.PLP.ligand.clash>
0.0000

> <Gold.PLP.ligand.torsion>
1.0113

> <Gold.PLP.Chemscore.Hbond>
0.9425

> <Gold.PLP.Chemscore.CHOScore>
0.0000

> <Gold.PLP.Chemscore.Metal>
0.0000

> <Gold.Chemscore.Hbonds>
donor molecule, donor type, donor heavy atom, donor atom, acceptor molecule, acceptor atom, score
      P1  H  6896  6908       L1     7  0.98

> <Gold.PLP.Chemscore.Internal.Correction>
0.0278

> <Gold.Rescore>
     Score         DG    S(hbond)    S(metal)    S(lipo)     H(rot)  DE(clash)    DE(int)     intcor
     11.87     -13.40       1.00        0.00      92.93       2.45       0.50       1.04       ----

> <Gold.Chemscore.Fitness>
11.8682

> <Gold.Chemscore.DG>
-13.4032

> <Gold.Chemscore.ZeroCoef>
-5.4800

> <Gold.Chemscore.Hbond>
0.9972

> <Gold.Chemscore.Metal>
0.0000

> <Gold.Chemscore.Lipo>
92.9297

> <Gold.Chemscore.Internal_Hbond>
0.0000

> <Gold.Chemscore.DEClash>
0.4989

> <Gold.Chemscore.DEInternal>
1.0360

> <Gold.Chemscore.Rot>
2.4533

> <Gold.Chemscore.Internal.Correction>
   9.000000E+99

> <Gold.Chemscore.Hbonds>
donor molecule, donor type, donor heavy atom, donor atom, acceptor molecule, acceptor atom, score
      P1  H  6896  6908       L1     7  0.87

> <Gold.Chemscore.Hbond.Weighted>
-3.3307

> <Gold.Chemscore.Metal.Weighted>
-0.0000

> <Gold.Chemscore.Lipo.Weighted>
-10.8728

> <Gold.Chemscore.Internal_Hbond.Weighted>
0.0000

> <Gold.Chemscore.DEClash.Weighted>
0.4989

> <Gold.Chemscore.DEInternal.Weighted>
1.0360

> <Gold.Chemscore.Rot.Weighted>
6.2804

> <Gold.Chemscore.Internal.Correction.Weighted>
   9.000000E+99

> <Gold.Protein.RotatedTorsions>
[ 6907 6896 6895 6894 ] final  -79.78 input  -60.11 | X-H torsion
[ 7974 7965 7964 7962 ] final -146.25 input  175.53 | X-H torsion
[ 8008 7997 7996 7995 ] final -131.67 input   59.86 | X-H torsion
[ 10167 10162 10161 10158 ] final  -86.07 input  -65.29 | X-H torsion
[ 10718 10713 10712 10709 ] final   81.34 input   66.30 | X-H torsion
[ 10763 10752 10751 10750 ] final   53.70 input  -60.55 | X-H torsion
[ 11005 11000 10999 10996 ] final -105.16 input  -57.11 | X-H torsion

> <Gold.Protein.ActiveResidues>
 VAL166  LYS551  ARG553  GLY616  TRP617  ASP618  TYR619  PRO620  LYS621  CYS622 
 ASP623  PHE694  ASN695  SER759  ASP760  ASP761  ALA762  ILE779  LEU786  VAL792 
 PHE793  MET794  SER795  GLU796  ALA797  LYS798  CYS799  TRP800  GLU811  SER814 

> <Gold.Protein.RotatedAtoms>
  150.6942  134.4069  159.5143 H   0  0  0  0  0  0  0  0  0  0  0  0  # atno 6907 bound_to 6896
  152.1833  134.8732  160.0533 H   0  0  0  0  0  0  0  0  0  0  0  0  # atno 6908 bound_to 6896
  151.9714  133.3692  159.4109 H   0  0  0  0  0  0  0  0  0  0  0  0  # atno 6909 bound_to 6896
  144.8172  140.5480  143.5603 H   0  0  0  0  0  0  0  0  0  0  0  0  # atno 7974 bound_to 7965
  155.3162  140.0460  157.3037 H   0  0  0  0  0  0  0  0  0  0  0  0  # atno 8008 bound_to 7997
  154.5405  140.2286  155.8615 H   0  0  0  0  0  0  0  0  0  0  0  0  # atno 8009 bound_to 7997
  156.1876  140.3058  155.9276 H   0  0  0  0  0  0  0  0  0  0  0  0  # atno 8010 bound_to 7997
  140.3977  143.2676  151.9183 H   0  0  0  0  0  0  0  0  0  0  0  0  # atno 10167 bound_to 10162
  157.6830  131.0000  150.2213 H   0  0  0  0  0  0  0  0  0  0  0  0  # atno 10718 bound_to 10713
  152.9797  135.5770  154.4784 H   0  0  0  0  0  0  0  0  0  0  0  0  # atno 10763 bound_to 10752
  154.4337  135.2774  155.1897 H   0  0  0  0  0  0  0  0  0  0  0  0  # atno 10764 bound_to 10752
  154.3595  135.6192  153.5737 H   0  0  0  0  0  0  0  0  0  0  0  0  # atno 10765 bound_to 10752
  141.1067  133.8784  157.1699 H   0  0  0  0  0  0  0  0  0  0  0  0  # atno 11005 bound_to 11000
  145.5187  139.1477  143.3564 LP  0  0  0  0  0  0  0  0  0  0  0  0  # atno 17320 bound_to 7965
  146.2476  140.5328  142.8907 LP  0  0  0  0  0  0  0  0  0  0  0  0  # atno 17321 bound_to 7965
  139.4786  144.5665  151.8157 LP  0  0  0  0  0  0  0  0  0  0  0  0  # atno 17342 bound_to 10162
  140.4773  144.1500  150.5927 LP  0  0  0  0  0  0  0  0  0  0  0  0  # atno 17343 bound_to 10162
  156.2864  130.3740  149.7885 LP  0  0  0  0  0  0  0  0  0  0  0  0  # atno 17370 bound_to 10713
  156.5558  130.8361  151.3313 LP  0  0  0  0  0  0  0  0  0  0  0  0  # atno 17371 bound_to 10713
  139.9940  135.0054  157.0040 LP  0  0  0  0  0  0  0  0  0  0  0  0  # atno 17394 bound_to 11000
  140.4884  134.1218  155.7228 LP  0  0  0  0  0  0  0  0  0  0  0  0  # atno 17395 bound_to 11000

$$$$
