AV-unprocessed.smi:109|AV-procd|sdf|1041|dock5
  -GOLD-   2262018 73D 1   1.00000     0.00000
 Structure written by MMmdl.
 58 61  0  0  0  0  0  0  0  0  1 V2000
  144.7540  143.4687  153.9657 O   0  0  0  0  0  0  0  0  0  0  0  0
  146.1047  143.1084  153.7713 C   0  0  0  0  0  0  0  0  0  0  0  0
  146.2886  141.6052  154.0415 C   0  0  0  0  0  0  0  0  0  0  0  0
  147.7073  141.0680  153.7279 C   0  0  2  0  0  0  0  0  0  0  0  0
  147.6004  139.8203  152.9677 N   0  0  0  0  0  0  0  0  0  0  0  0
  146.5800  138.9512  153.1453 C   0  0  0  0  0  0  0  0  0  0  0  0
  145.8868  138.8978  154.3119 N   0  0  0  0  0  0  0  0  0  0  0  0
  144.8881  138.0229  154.4576 C   0  0  0  0  0  0  0  0  0  0  0  0
  144.4284  137.1298  153.5793 N   0  0  0  0  0  0  0  0  0  0  0  0
  145.1187  137.1778  152.4035 C   0  0  0  0  0  0  0  0  0  0  0  0
  146.1999  138.0562  152.1119 C   0  0  0  0  0  0  0  0  0  0  0  0
  146.6583  137.8275  150.8215 N   0  0  0  0  0  0  0  0  0  0  0  0
  145.8887  136.8699  150.3790 C   0  0  0  0  0  0  0  0  0  0  0  0
  144.9327  136.4200  151.2631 N   0  0  0  0  0  0  0  0  0  0  0  0
  143.9202  135.3392  151.0267 C   0  0  1  0  0  0  0  0  0  0  0  0
  144.0696  134.8360  149.7317 O   0  0  0  0  0  0  0  0  0  0  0  0
  144.3394  133.4368  149.7685 C   0  0  2  0  0  0  0  0  0  0  0  0
  143.8033  132.7417  148.5044 C   0  0  0  0  0  0  0  0  0  0  0  0
  142.6246  133.3760  148.0551 O   0  0  0  0  0  0  0  0  0  0  0  0
  143.7780  132.9640  151.1177 C   0  0  2  0  0  0  0  0  0  0  0  0
  142.3901  132.6966  151.0380 O   0  0  0  0  0  0  0  0  0  0  0  0
  144.0361  134.1621  152.0174 C   0  0  1  0  0  0  0  0  0  0  0  0
  145.3040  134.0554  152.6408 O   0  0  0  0  0  0  0  0  0  0  0  0
  148.5704  140.8264  155.0001 C   0  0  0  0  0  0  0  0  0  0  0  0
  148.7835  142.1088  155.8439 C   0  0  0  0  0  0  0  0  0  0  0  0
  149.6659  141.8613  157.0787 C   0  0  0  0  0  0  0  0  0  0  0  0
  151.0212  141.2588  156.6899 C   0  0  0  0  0  0  0  0  0  0  0  0
  150.8265  139.9736  155.8773 C   0  0  0  0  0  0  0  0  0  0  0  0
  149.9550  140.2285  154.6380 C   0  0  0  0  0  0  0  0  0  0  0  0
  142.9567  135.8462  151.0918 H   0  0  0  0  0  0  0  0  0  0  0  0
  145.4237  133.3223  149.7946 H   0  0  0  0  0  0  0  0  0  0  0  0
  144.2747  132.0597  151.4718 H   0  0  0  0  0  0  0  0  0  0  0  0
  143.2848  134.2670  152.8013 H   0  0  0  0  0  0  0  0  0  0  0  0
  144.2707  143.2545  153.1824 H   0  0  0  0  0  0  0  0  0  0  0  0
  146.3867  143.3653  152.7503 H   0  0  0  0  0  0  0  0  0  0  0  0
  146.7280  143.6990  154.4433 H   0  0  0  0  0  0  0  0  0  0  0  0
  146.0576  141.4473  155.0933 H   0  0  0  0  0  0  0  0  0  0  0  0
  145.5487  141.0373  153.4756 H   0  0  0  0  0  0  0  0  0  0  0  0
  148.2274  141.8269  153.1437 H   0  0  0  0  0  0  0  0  0  0  0  0
  148.3127  139.6816  152.2653 H   0  0  0  0  0  0  0  0  0  0  0  0
  144.3856  138.0408  155.4133 H   0  0  0  0  0  0  0  0  0  0  0  0
  145.9971  136.4624  149.3842 H   0  0  0  0  0  0  0  0  0  0  0  0
  144.5450  132.7338  147.7054 H   0  0  0  0  0  0  0  0  0  0  0  0
  143.5679  131.7007  148.7274 H   0  0  0  0  0  0  0  0  0  0  0  0
  142.2903  132.8972  147.3120 H   0  0  0  0  0  0  0  0  0  0  0  0
  142.0078  133.2963  150.4154 H   0  0  0  0  0  0  0  0  0  0  0  0
  145.3767  133.1949  153.0247 H   0  0  0  0  0  0  0  0  0  0  0  0
  148.0480  140.1017  155.6269 H   0  0  0  0  0  0  0  0  0  0  0  0
  149.2332  142.8862  155.2245 H   0  0  0  0  0  0  0  0  0  0  0  0
  147.8336  142.5050  156.1985 H   0  0  0  0  0  0  0  0  0  0  0  0
  149.8181  142.7962  157.6189 H   0  0  0  0  0  0  0  0  0  0  0  0
  149.1508  141.1889  157.7659 H   0  0  0  0  0  0  0  0  0  0  0  0
  151.5913  141.9815  156.1049 H   0  0  0  0  0  0  0  0  0  0  0  0
  151.6078  141.0500  157.5851 H   0  0  0  0  0  0  0  0  0  0  0  0
  151.7953  139.5752  155.5747 H   0  0  0  0  0  0  0  0  0  0  0  0
  150.3601  139.2109  156.5021 H   0  0  0  0  0  0  0  0  0  0  0  0
  149.8434  139.2849  154.1037 H   0  0  0  0  0  0  0  0  0  0  0  0
  150.4783  140.9026  153.9586 H   0  0  0  0  0  0  0  0  0  0  0  0
  1  2  1  0  0  0  0
  1 34  1  0  0  0  0
  2  3  1  0  0  0  0
  2 35  1  0  0  0  0
  2 36  1  0  0  0  0
  3  4  1  0  0  0  0
  3 37  1  0  0  0  0
  3 38  1  0  0  0  0
  4  5  1  0  0  0  0
  4 24  1  0  0  0  0
  4 39  1  0  0  0  0
  5  6  1  0  0  0  0
  5 40  1  0  0  0  0
  6 11  1  0  0  0  0
  6  7  2  0  0  0  0
  7  8  1  0  0  0  0
  8  9  2  0  0  0  0
  8 41  1  0  0  0  0
  9 10  1  0  0  0  0
 10 14  1  0  0  0  0
 10 11  2  0  0  0  0
 11 12  1  0  0  0  0
 12 13  2  0  0  0  0
 13 14  1  0  0  0  0
 13 42  1  0  0  0  0
 14 15  1  0  0  0  0
 15 30  1  0  0  0  0
 15 22  1  0  0  0  0
 15 16  1  0  0  0  0
 16 17  1  0  0  0  0
 17 31  1  0  0  0  0
 17 18  1  0  0  0  0
 17 20  1  0  0  0  0
 18 19  1  0  0  0  0
 18 43  1  0  0  0  0
 18 44  1  0  0  0  0
 19 45  1  0  0  0  0
 20 32  1  0  0  0  0
 20 21  1  0  0  0  0
 20 22  1  0  0  0  0
 21 46  1  0  0  0  0
 22 33  1  0  0  0  0
 22 23  1  0  0  0  0
 23 47  1  0  0  0  0
 24 29  1  0  0  0  0
 24 25  1  0  0  0  0
 24 48  1  0  0  0  0
 25 26  1  0  0  0  0
 25 49  1  0  0  0  0
 25 50  1  0  0  0  0
 26 27  1  0  0  0  0
 26 51  1  0  0  0  0
 26 52  1  0  0  0  0
 27 28  1  0  0  0  0
 27 53  1  0  0  0  0
 27 54  1  0  0  0  0
 28 29  1  0  0  0  0
 28 55  1  0  0  0  0
 28 56  1  0  0  0  0
 29 57  1  0  0  0  0
 29 58  1  0  0  0  0
M  END
> <s_m_source_file>
AV-unprocessed.smi

> <i_m_source_file_index>
109

> <i_lp_mmshare_version>
43012

> <i_f3d_flags>
0

> <s_epik_input>
W0NIMl0xW0NIMl1bQ0gyXVtDSDJdW0NIMl1bQ0hdMVtDQEhdKFtDSDJdW0NIMl1bT0hdKVtOSF1jKG5bY0hdbjIpYyhjMjMpbltjSF1uM1tDQEBIXTRPW0NASF0oW0NIMl1bT0hdKVtDQEBIXShbT0hdKVtDQEhdNFtPSF0=

> <s_epik_cmdline>
J2VwaWtfcHl0aG9uJywgJy1waCcsICc3LjAnLCAnLXRuJywgJzgnLCAnLW1hJywgJzIwMCcsICctbWV0YWxfYmluZGluZycsICctaW1hZScsICc8aW5maWxlLm1hZT4nLCAnLW9tYWUnLCAnPG91dGZpbGUubWFlPic=

> <r_lp_tautomer_probability>
1

> <r_epik_Ionization_Penalty>
0.000793976

> <r_epik_Ionization_Penalty_Charging>
0

> <r_epik_Ionization_Penalty_Neutral>
0.000793976

> <r_epik_State_Penalty>
-0

> <r_epik_Charging_Adjusted_Penalty>
0

> <i_epik_Tot_Q>
0

> <i_epik_Tot_abs_Q>
0

> <r_epik_Metal_State_Penalty>
-0

> <b_epik_Metal_Only>
0

> <s_epik_Chemistry_Notes>
This compound contains an acetal/aminal-like group ( X-CH(R)-Y where X, Y are N, S, or O) that may be acid/base labile, releasing an aldehyde.

> <s_lp_Force_Field>
OPLS_2005

> <r_lp_Energy>
56.0983

> <b_lp_Chiralities_Consistent>
1

> <s_lp_Variant>
AV-unprocessed.smi:109-11

> <Gold.Version>
5.8.1

> <Gold.Id.Protein>
6NUR|6NUR_protein|mol2

> <Gold.PLP.Fitness>
58.9991

> <Gold.PLP.PLP>
-44.3877

> <Gold.PLP.part.hbond>
-7.0342

> <Gold.PLP.part.metal>
0.0000

> <Gold.PLP.part.buried>
4.3800

> <Gold.PLP.part.nonpolar>
-48.4226

> <Gold.PLP.part.repulsive>
3.9958

> <Gold.PLP.ligand.clash>
0.0000

> <Gold.PLP.ligand.torsion>
1.4649

> <Gold.PLP.Chemscore.Hbond>
4.7753

> <Gold.PLP.Chemscore.CHOScore>
1.0000

> <Gold.PLP.Chemscore.Metal>
0.0000

> <Gold.Chemscore.Hbonds>
donor molecule, donor type, donor heavy atom, donor atom, acceptor molecule, acceptor atom, score
      L1  H     1    34       P1 10174  0.58
      L1  H     5    40       P1  7957  1.00
      L1  H    19    45       P1 10195  0.80
      L1  H    21    46       P1 10186  1.00
      P1  H  7954  7966       L1    12  1.00
      P1  H 10192 10197       L1    19  0.39
      L1  C    13    42       P1  7921  1.00

> <Gold.PLP.Chemscore.Internal.Correction>
0.2152

> <Gold.Rescore>
     Score         DG    S(hbond)    S(metal)    S(lipo)     H(rot)  DE(clash)    DE(int)     intcor
      7.82     -14.34       3.56        0.00      93.66       5.47       4.26       2.26       ----

> <Gold.Chemscore.Fitness>
7.8205

> <Gold.Chemscore.DG>
-14.3422

> <Gold.Chemscore.ZeroCoef>
-5.4800

> <Gold.Chemscore.Hbond>
3.5622

> <Gold.Chemscore.Metal>
0.0000

> <Gold.Chemscore.Lipo>
93.6570

> <Gold.Chemscore.Internal_Hbond>
0.0000

> <Gold.Chemscore.DEClash>
4.2601

> <Gold.Chemscore.DEInternal>
2.2616

> <Gold.Chemscore.Rot>
5.4662

> <Gold.Chemscore.Internal.Correction>
   9.000000E+99

> <Gold.Chemscore.Hbonds>
donor molecule, donor type, donor heavy atom, donor atom, acceptor molecule, acceptor atom, score
      L1  H     1    34       P1 10174  0.04
      L1  H     5    40       P1  7957  1.00
      L1  H    19    45       P1 10195  0.79
      L1  H    21    46       P1 10186  1.00
      P1  H  7954  7966       L1    12  0.74
      P1  H 10192 10197       L1    19  0.01

> <Gold.Chemscore.Hbond.Weighted>
-11.8978

> <Gold.Chemscore.Metal.Weighted>
-0.0000

> <Gold.Chemscore.Lipo.Weighted>
-10.9579

> <Gold.Chemscore.Internal_Hbond.Weighted>
0.0000

> <Gold.Chemscore.DEClash.Weighted>
4.2601

> <Gold.Chemscore.DEInternal.Weighted>
2.2616

> <Gold.Chemscore.Rot.Weighted>
13.9935

> <Gold.Chemscore.Internal.Correction.Weighted>
   9.000000E+99

> <Gold.Protein.RotatedTorsions>
[ 6907 6896 6895 6894 ] final   55.42 input  -60.11 | X-H torsion
[ 7974 7965 7964 7962 ] final  -59.16 input  175.53 | X-H torsion
[ 8008 7997 7996 7995 ] final -120.37 input   59.86 | X-H torsion
[ 10167 10162 10161 10158 ] final  124.84 input  -65.29 | X-H torsion
[ 10718 10713 10712 10709 ] final  160.14 input   66.30 | X-H torsion
[ 10763 10752 10751 10750 ] final  114.68 input  -60.55 | X-H torsion
[ 11005 11000 10999 10996 ] final   40.26 input  -57.11 | X-H torsion

> <Gold.Protein.ActiveResidues>
 VAL166  LYS551  ARG553  GLY616  TRP617  ASP618  TYR619  PRO620  LYS621  CYS622 
 ASP623  PHE694  ASN695  SER759  ASP760  ASP761  ALA762  ILE779  LEU786  VAL792 
 PHE793  MET794  SER795  GLU796  ALA797  LYS798  CYS799  TRP800  GLU811  SER814 

> <Gold.Protein.RotatedAtoms>
  152.3537  134.6970  160.0228 H   0  0  0  0  0  0  0  0  0  0  0  0  # atno 6907 bound_to 6896
  151.7316  133.3312  159.3350 H   0  0  0  0  0  0  0  0  0  0  0  0  # atno 6908 bound_to 6896
  150.7557  134.6292  159.6221 H   0  0  0  0  0  0  0  0  0  0  0  0  # atno 6909 bound_to 6896
  145.8307  140.8481  143.0085 H   0  0  0  0  0  0  0  0  0  0  0  0  # atno 7974 bound_to 7965
  155.1307  140.0400  157.2774 H   0  0  0  0  0  0  0  0  0  0  0  0  # atno 8008 bound_to 7997
  154.6545  140.2577  155.7151 H   0  0  0  0  0  0  0  0  0  0  0  0  # atno 8009 bound_to 7997
  156.2592  140.2829  156.0992 H   0  0  0  0  0  0  0  0  0  0  0  0  # atno 8010 bound_to 7997
  139.5719  144.6943  151.3757 H   0  0  0  0  0  0  0  0  0  0  0  0  # atno 10167 bound_to 10162
  157.1545  131.0572  151.2263 H   0  0  0  0  0  0  0  0  0  0  0  0  # atno 10718 bound_to 10713
  153.5110  135.3618  155.2586 H   0  0  0  0  0  0  0  0  0  0  0  0  # atno 10763 bound_to 10752
  154.8742  135.4022  154.3369 H   0  0  0  0  0  0  0  0  0  0  0  0  # atno 10764 bound_to 10752
  153.4022  135.7075  153.6484 H   0  0  0  0  0  0  0  0  0  0  0  0  # atno 10765 bound_to 10752
  140.1948  134.3942  155.8127 H   0  0  0  0  0  0  0  0  0  0  0  0  # atno 11005 bound_to 11000
  144.6740  140.0668  143.7474 LP  0  0  0  0  0  0  0  0  0  0  0  0  # atno 17320 bound_to 7965
  145.9574  139.2776  143.1176 LP  0  0  0  0  0  0  0  0  0  0  0  0  # atno 17321 bound_to 7965
  140.7003  143.7649  150.7392 LP  0  0  0  0  0  0  0  0  0  0  0  0  # atno 17342 bound_to 10162
  140.1157  143.4658  152.2343 LP  0  0  0  0  0  0  0  0  0  0  0  0  # atno 17343 bound_to 10162
  157.4190  130.7427  149.6898 LP  0  0  0  0  0  0  0  0  0  0  0  0  # atno 17370 bound_to 10713
  155.9764  130.4075  150.3779 LP  0  0  0  0  0  0  0  0  0  0  0  0  # atno 17371 bound_to 10713
  141.2227  133.7064  156.8157 LP  0  0  0  0  0  0  0  0  0  0  0  0  # atno 17394 bound_to 11000
  140.2119  134.8821  157.3284 LP  0  0  0  0  0  0  0  0  0  0  0  0  # atno 17395 bound_to 11000

$$$$
