AV-unprocessed.smi:1240|AV-procd|sdf|5205|dock4
  -GOLD-   22720 4293D 1   1.00000     0.00000
 Structure written by MMmdl.
 48 50  0  0  0  0  0  0  0  0  2 V2000
  145.7414  136.9876  154.6471 O   0  0  0  0  0  0  0  0  0  0  0  0
  146.7012  136.6263  153.9665 C   0  0  0  0  0  0  0  0  0  0  0  0
  147.9691  136.9640  154.2406 N   0  0  0  0  0  0  0  0  0  0  0  0
  148.3906  137.7953  155.3657 C   0  0  0  0  0  0  0  0  0  0  0  0
  149.3277  138.9758  154.9563 C   0  0  2  0  0  0  0  0  0  0  0  0
  150.7089  138.8058  155.6777 C   0  0  1  0  0  0  0  0  0  0  0  0
  151.6725  137.7214  155.2267 C   0  0  0  0  0  0  0  0  0  0  0  0
  152.9465  138.1226  155.9598 C   0  0  0  0  0  0  0  0  0  0  0  0
  152.9390  139.5463  155.9587 O   0  0  0  0  0  0  0  0  0  0  0  0
  151.6362  140.0266  155.6338 C   0  0  0  0  0  0  0  0  0  0  0  0
  148.7379  140.3303  155.1100 N   0  0  0  0  0  0  0  0  0  0  0  0
  147.7905  140.6382  154.0301 C   0  0  0  0  0  0  0  0  0  0  0  0
  147.2586  142.0777  154.1166 C   0  0  0  0  0  0  0  0  0  0  0  0
  146.6115  142.2627  155.3694 O   0  0  0  0  0  0  0  0  0  0  0  0
  147.4726  141.9983  156.4700 C   0  0  0  0  0  0  0  0  0  0  0  0
  148.0275  140.5653  156.3715 C   0  0  0  0  0  0  0  0  0  0  0  0
  146.6255  135.8738  152.8551 N   0  0  0  0  0  0  0  0  0  0  0  0
  145.4678  135.3348  152.2304 C   0  0  0  0  0  0  0  0  0  0  0  0
  145.4846  135.2024  150.8239 C   0  0  0  0  0  0  0  0  0  0  0  0
  144.3627  134.6623  150.1626 C   0  0  0  0  0  0  0  0  0  0  0  0
  143.2875  134.2663  150.8766 N   0  3  0  0  0  0  0  0  0  0  0  0
  143.2306  134.3580  152.2225 C   0  0  0  0  0  0  0  0  0  0  0  0
  144.3220  134.8902  152.9387 C   0  0  0  0  0  0  0  0  0  0  0  0
  148.6979  136.6274  153.6282 H   0  0  0  0  0  0  0  0  0  0  0  0
  147.4832  138.1621  155.8473 H   0  0  0  0  0  0  0  0  0  0  0  0
  148.8825  137.1500  156.0938 H   0  0  0  0  0  0  0  0  0  0  0  0
  149.5174  138.8327  153.8914 H   0  0  0  0  0  0  0  0  0  0  0  0
  150.5047  138.5952  156.7287 H   0  0  0  0  0  0  0  0  0  0  0  0
  151.3404  136.7120  155.4708 H   0  0  0  0  0  0  0  0  0  0  0  0
  151.8717  137.7848  154.1571 H   0  0  0  0  0  0  0  0  0  0  0  0
  152.9216  137.7705  156.9918 H   0  0  0  0  0  0  0  0  0  0  0  0
  153.8450  137.7261  155.4866 H   0  0  0  0  0  0  0  0  0  0  0  0
  151.6650  140.4556  154.6313 H   0  0  0  0  0  0  0  0  0  0  0  0
  151.3319  140.8101  156.3281 H   0  0  0  0  0  0  0  0  0  0  0  0
  148.2222  140.4846  153.0467 H   0  0  0  0  0  0  0  0  0  0  0  0
  146.9453  139.9501  154.0822 H   0  0  0  0  0  0  0  0  0  0  0  0
  148.0695  142.7986  154.0016 H   0  0  0  0  0  0  0  0  0  0  0  0
  146.5431  142.2669  153.3161 H   0  0  0  0  0  0  0  0  0  0  0  0
  148.2864  142.7251  156.4840 H   0  0  0  0  0  0  0  0  0  0  0  0
  146.9137  142.1257  157.3969 H   0  0  0  0  0  0  0  0  0  0  0  0
  147.2101  139.8508  156.4800 H   0  0  0  0  0  0  0  0  0  0  0  0
  148.6976  140.4187  157.2181 H   0  0  0  0  0  0  0  0  0  0  0  0
  147.4935  135.7266  152.3611 H   0  0  0  0  0  0  0  0  0  0  0  0
  146.3456  135.5179  150.2523 H   0  0  0  0  0  0  0  0  0  0  0  0
  144.2945  134.5347  149.0921 H   0  0  0  0  0  0  0  0  0  0  0  0
  142.3219  133.9999  152.6841 H   0  0  0  0  0  0  0  0  0  0  0  0
  144.2626  134.9359  154.0154 H   0  0  0  0  0  0  0  0  0  0  0  0
  142.4861  133.8767  150.3792 H   0  0  0  0  0  0  0  0  0  0  0  0
  1  2  2  0  0  0  0
  2  3  1  0  0  0  0
  2 17  1  0  0  0  0
  3  4  1  0  0  0  0
  3 24  1  0  0  0  0
  4  5  1  0  0  0  0
  4 25  1  0  0  0  0
  4 26  1  0  0  0  0
  5  6  1  0  0  0  0
  5 11  1  0  0  0  0
  5 27  1  0  0  0  0
  6 10  1  0  0  0  0
  6  7  1  0  0  0  0
  6 28  1  0  0  0  0
  7  8  1  0  0  0  0
  7 29  1  0  0  0  0
  7 30  1  0  0  0  0
  8  9  1  0  0  0  0
  8 31  1  0  0  0  0
  8 32  1  0  0  0  0
  9 10  1  0  0  0  0
 10 33  1  0  0  0  0
 10 34  1  0  0  0  0
 11 16  1  0  0  0  0
 11 12  1  0  0  0  0
 12 13  1  0  0  0  0
 12 35  1  0  0  0  0
 12 36  1  0  0  0  0
 13 14  1  0  0  0  0
 13 37  1  0  0  0  0
 13 38  1  0  0  0  0
 14 15  1  0  0  0  0
 15 16  1  0  0  0  0
 15 39  1  0  0  0  0
 15 40  1  0  0  0  0
 16 41  1  0  0  0  0
 16 42  1  0  0  0  0
 17 18  1  0  0  0  0
 17 43  1  0  0  0  0
 18 23  1  0  0  0  0
 18 19  2  0  0  0  0
 19 20  1  0  0  0  0
 19 44  1  0  0  0  0
 20 21  2  0  0  0  0
 20 45  1  0  0  0  0
 21 22  1  0  0  0  0
 21 48  1  0  0  0  0
 22 23  2  0  0  0  0
 22 46  1  0  0  0  0
 23 47  1  0  0  0  0
M  CHG  1  21   1
M  END
> <s_m_source_file>
AV-unprocessed.smi

> <i_m_source_file_index>
1240

> <i_lp_mmshare_version>
43012

> <i_f3d_flags>
0

> <s_epik_input>
W2NIXTFbY0hdbltjSF1bY0hdYzFbTkhdQyg9TylbTkhdW0NIMl1bQ0BIXShbQ0BASF0yW0NIMl1bQ0gyXU9bQ0gyXTIpTjNbQ0gyXVtDSDJdT1tDSDJdW0NIMl0z

> <s_epik_cmdline>
J2VwaWtfcHl0aG9uJywgJy1waCcsICc3LjAnLCAnLXRuJywgJzgnLCAnLW1hJywgJzIwMCcsICctbWV0YWxfYmluZGluZycsICctaW1hZScsICc8aW5maWxlLm1hZT4nLCAnLW9tYWUnLCAnPG91dGZpbGUubWFlPic=

> <r_epik_Ionization_Penalty>
1.15944

> <r_epik_Ionization_Penalty_Charging>
1.0344

> <r_epik_Ionization_Penalty_Neutral>
0.125034

> <r_epik_State_Penalty>
1.2199

> <r_epik_Charging_Adjusted_Penalty>
2.25431

> <i_epik_Tot_Q>
1

> <i_epik_Tot_abs_Q>
1

> <r_epik_Metal_State_Penalty>
1.3155

> <b_epik_Metal_Only>
0

> <s_lp_Force_Field>
OPLS_2005

> <r_lp_Energy>
67.1195

> <b_lp_Chiralities_Consistent>
1

> <s_lp_Variant>
AV-unprocessed.smi:1240-11

> <Gold.Version>
5.8.1

> <Gold.Id.Protein>
6NUR|6NUR_protein|mol2

> <Gold.PLP.Fitness>
40.3058

> <Gold.PLP.PLP>
-30.4884

> <Gold.PLP.part.hbond>
-3.9904

> <Gold.PLP.part.metal>
0.0000

> <Gold.PLP.part.buried>
-0.9358

> <Gold.PLP.part.nonpolar>
-24.9379

> <Gold.PLP.part.repulsive>
0.2880

> <Gold.PLP.ligand.clash>
0.0000

> <Gold.PLP.ligand.torsion>
1.6643

> <Gold.PLP.Chemscore.Hbond>
4.3200

> <Gold.PLP.Chemscore.CHOScore>
0.0000

> <Gold.PLP.Chemscore.Metal>
0.0000

> <Gold.Chemscore.Hbonds>
donor molecule, donor type, donor heavy atom, donor atom, acceptor molecule, acceptor atom, score
      L1  H     3    24       P1  7948  0.82
      L1  H    17    43       P1  7948  1.00
      L1  H    21    48       P1 10186  1.57
      P1  H  7997  8008       L1     9  1.00

> <Gold.PLP.Chemscore.Internal.Correction>
0.1860

> <Gold.Rescore>
     Score         DG    S(hbond)    S(metal)    S(lipo)     H(rot)  DE(clash)    DE(int)     intcor
     19.58     -21.89       3.54        0.00      76.16       1.69       0.05       2.26       ----

> <Gold.Chemscore.Fitness>
19.5809

> <Gold.Chemscore.DG>
-21.8903

> <Gold.Chemscore.ZeroCoef>
-5.4800

> <Gold.Chemscore.Hbond>
3.5416

> <Gold.Chemscore.Metal>
0.0000

> <Gold.Chemscore.Lipo>
76.1598

> <Gold.Chemscore.Internal_Hbond>
0.0000

> <Gold.Chemscore.DEClash>
0.0491

> <Gold.Chemscore.DEInternal>
2.2603

> <Gold.Chemscore.Rot>
1.6912

> <Gold.Chemscore.Internal.Correction>
   9.000000E+99

> <Gold.Chemscore.Hbonds>
donor molecule, donor type, donor heavy atom, donor atom, acceptor molecule, acceptor atom, score
      L1  H     3    24       P1  7948  0.80
      L1  H    17    43       P1  7948  0.96
      L1  H    21    48       P1 10186  0.74
      P1  H  7997  8008       L1     9  0.73

> <Gold.Chemscore.Hbond.Weighted>
-11.8290

> <Gold.Chemscore.Metal.Weighted>
-0.0000

> <Gold.Chemscore.Lipo.Weighted>
-8.9107

> <Gold.Chemscore.Internal_Hbond.Weighted>
0.0000

> <Gold.Chemscore.DEClash.Weighted>
0.0491

> <Gold.Chemscore.DEInternal.Weighted>
2.2603

> <Gold.Chemscore.Rot.Weighted>
4.3295

> <Gold.Chemscore.Internal.Correction.Weighted>
   9.000000E+99

> <Gold.Protein.RotatedTorsions>
[ 6907 6896 6895 6894 ] final   85.93 input  -60.11 | X-H torsion
[ 7974 7965 7964 7962 ] final   55.23 input  175.53 | X-H torsion
[ 8008 7997 7996 7995 ] final  -51.22 input   59.86 | X-H torsion
[ 10167 10162 10161 10158 ] final  -28.36 input  -65.29 | X-H torsion
[ 10718 10713 10712 10709 ] final  -20.15 input   66.30 | X-H torsion
[ 10763 10752 10751 10750 ] final   58.55 input  -60.55 | X-H torsion
[ 11005 11000 10999 10996 ] final  104.93 input  -57.11 | X-H torsion

> <Gold.Protein.ActiveResidues>
 VAL166  LYS551  ARG553  GLY616  TRP617  ASP618  TYR619  PRO620  LYS621  CYS622 
 ASP623  PHE694  ASN695  SER759  ASP760  ASP761  ALA762  ILE779  LEU786  VAL792 
 PHE793  MET794  SER795  GLU796  ALA797  LYS798  CYS799  TRP800  GLU811  SER814 

> <Gold.Protein.RotatedAtoms>
  152.5384  134.2510  159.8898 H   0  0  0  0  0  0  0  0  0  0  0  0  # atno 6907 bound_to 6896
  151.2473  133.4361  159.2617 H   0  0  0  0  0  0  0  0  0  0  0  0  # atno 6908 bound_to 6896
  151.0571  134.9726  159.8297 H   0  0  0  0  0  0  0  0  0  0  0  0  # atno 6909 bound_to 6896
  145.9526  139.3986  143.0297 H   0  0  0  0  0  0  0  0  0  0  0  0  # atno 7974 bound_to 7965
  154.4078  140.1253  156.4793 H   0  0  0  0  0  0  0  0  0  0  0  0  # atno 8008 bound_to 7997
  155.7101  140.3494  155.4950 H   0  0  0  0  0  0  0  0  0  0  0  0  # atno 8009 bound_to 7997
  155.9308  140.1069  157.1124 H   0  0  0  0  0  0  0  0  0  0  0  0  # atno 8010 bound_to 7997
  140.7270  143.4016  151.1255 H   0  0  0  0  0  0  0  0  0  0  0  0  # atno 10167 bound_to 10162
  156.5358  130.4666  149.6524 H   0  0  0  0  0  0  0  0  0  0  0  0  # atno 10718 bound_to 10713
  152.9873  135.5603  154.5570 H   0  0  0  0  0  0  0  0  0  0  0  0  # atno 10763 bound_to 10752
  154.4996  135.2796  155.1433 H   0  0  0  0  0  0  0  0  0  0  0  0  # atno 10764 bound_to 10752
  154.2869  135.6334  153.5422 H   0  0  0  0  0  0  0  0  0  0  0  0  # atno 10765 bound_to 10752
  139.8797  134.9318  156.5436 H   0  0  0  0  0  0  0  0  0  0  0  0  # atno 11005 bound_to 11000
  145.8150  140.9707  143.0929 LP  0  0  0  0  0  0  0  0  0  0  0  0  # atno 17320 bound_to 7965
  144.6799  139.9969  143.7484 LP  0  0  0  0  0  0  0  0  0  0  0  0  # atno 17321 bound_to 7965
  139.7637  143.8597  152.3106 LP  0  0  0  0  0  0  0  0  0  0  0  0  # atno 17342 bound_to 10162
  139.8492  144.7173  150.9235 LP  0  0  0  0  0  0  0  0  0  0  0  0  # atno 17343 bound_to 10162
  156.3017  130.7180  151.2054 LP  0  0  0  0  0  0  0  0  0  0  0  0  # atno 17370 bound_to 10713
  157.7414  131.0504  150.5100 LP  0  0  0  0  0  0  0  0  0  0  0  0  # atno 17371 bound_to 10713
  140.8292  133.8292  155.8968 LP  0  0  0  0  0  0  0  0  0  0  0  0  # atno 17394 bound_to 11000
  140.9345  134.1979  157.4841 LP  0  0  0  0  0  0  0  0  0  0  0  0  # atno 17395 bound_to 11000

$$$$
