AV-unprocessed.smi:1883|AV-procd|sdf|7642|dock6
  -GOLD-   22720 9373D 1   1.00000     0.00000
 Structure written by MMmdl.
 35 37  0  0  0  0  0  0  0  0  1 V2000
  152.2063  138.6661  155.4285 C   0  0  0  0  0  0  0  0  0  0  0  0
  150.8892  139.2351  155.0055 C   0  0  0  0  0  0  0  0  0  0  0  0
  150.0291  138.5502  154.2509 N   0  0  0  0  0  0  0  0  0  0  0  0
  148.9791  139.4368  154.1079 C   0  0  0  0  0  0  0  0  0  0  0  0
  147.7546  139.3070  153.4142 C   0  0  0  0  0  0  0  0  0  0  0  0
  146.8225  140.3654  153.4070 C   0  0  0  0  0  0  0  0  0  0  0  0
  147.1000  141.5662  154.0924 C   0  0  0  0  0  0  0  0  0  0  0  0
  148.3132  141.7157  154.7916 C   0  0  0  0  0  0  0  0  0  0  0  0
  149.2401  140.6562  154.7948 C   0  0  0  0  0  0  0  0  0  0  0  0
  150.4959  140.4814  155.3672 N   0  0  0  0  0  0  0  0  0  0  0  0
  151.2090  141.4554  156.1823 C   0  0  0  0  0  0  0  0  0  0  0  0
  150.5110  141.7254  157.5299 C   0  0  2  0  0  0  0  0  0  0  0  0
  149.5175  142.7202  157.3676 O   0  0  0  0  0  0  0  0  0  0  0  0
  151.5229  142.0834  158.6100 C   0  0  0  0  0  0  0  0  0  0  0  0
  152.2282  141.0674  159.2940 C   0  0  0  0  0  0  0  0  0  0  0  0
  153.1572  141.3978  160.2994 C   0  0  0  0  0  0  0  0  0  0  0  0
  153.8291  140.4179  160.9486 F   0  0  0  0  0  0  0  0  0  0  0  0
  153.3858  142.7466  160.6308 C   0  0  0  0  0  0  0  0  0  0  0  0
  152.6812  143.7639  159.9598 C   0  0  0  0  0  0  0  0  0  0  0  0
  151.7503  143.4355  158.9545 C   0  0  0  0  0  0  0  0  0  0  0  0
  151.0733  144.4270  158.3267 F   0  0  0  0  0  0  0  0  0  0  0  0
  152.3679  137.6917  154.9667 H   0  0  0  0  0  0  0  0  0  0  0  0
  152.2322  138.5424  156.5112 H   0  0  0  0  0  0  0  0  0  0  0  0
  153.0205  139.3253  155.1279 H   0  0  0  0  0  0  0  0  0  0  0  0
  147.5327  138.3913  152.8864 H   0  0  0  0  0  0  0  0  0  0  0  0
  145.8902  140.2556  152.8728 H   0  0  0  0  0  0  0  0  0  0  0  0
  146.3808  142.3721  154.0814 H   0  0  0  0  0  0  0  0  0  0  0  0
  148.5296  142.6335  155.3179 H   0  0  0  0  0  0  0  0  0  0  0  0
  152.2139  141.0692  156.3576 H   0  0  0  0  0  0  0  0  0  0  0  0
  151.3356  142.3823  155.6223 H   0  0  0  0  0  0  0  0  0  0  0  0
  149.9832  140.8226  157.8387 H   0  0  0  0  0  0  0  0  0  0  0  0
  149.7518  143.2607  156.6288 H   0  0  0  0  0  0  0  0  0  0  0  0
  152.0568  140.0283  159.0528 H   0  0  0  0  0  0  0  0  0  0  0  0
  154.0985  143.0003  161.4018 H   0  0  0  0  0  0  0  0  0  0  0  0
  152.8531  144.7984  160.2184 H   0  0  0  0  0  0  0  0  0  0  0  0
  1  2  1  0  0  0  0
  1 22  1  0  0  0  0
  1 23  1  0  0  0  0
  1 24  1  0  0  0  0
  2 10  1  0  0  0  0
  2  3  2  0  0  0  0
  3  4  1  0  0  0  0
  4  9  2  0  0  0  0
  4  5  1  0  0  0  0
  5  6  2  0  0  0  0
  5 25  1  0  0  0  0
  6  7  1  0  0  0  0
  6 26  1  0  0  0  0
  7  8  2  0  0  0  0
  7 27  1  0  0  0  0
  8  9  1  0  0  0  0
  8 28  1  0  0  0  0
  9 10  1  0  0  0  0
 10 11  1  0  0  0  0
 11 12  1  0  0  0  0
 11 29  1  0  0  0  0
 11 30  1  0  0  0  0
 12 13  1  0  0  0  0
 12 14  1  0  0  0  0
 12 31  1  0  0  0  0
 13 32  1  0  0  0  0
 14 20  1  0  0  0  0
 14 15  2  0  0  0  0
 15 16  1  0  0  0  0
 15 33  1  0  0  0  0
 16 17  1  0  0  0  0
 16 18  2  0  0  0  0
 18 19  1  0  0  0  0
 18 34  1  0  0  0  0
 19 20  2  0  0  0  0
 19 35  1  0  0  0  0
 20 21  1  0  0  0  0
M  END
> <s_m_source_file>
AV-unprocessed.smi

> <i_m_source_file_index>
1883

> <i_lp_mmshare_version>
43012

> <i_f3d_flags>
0

> <s_epik_input>
W2NIXTFbY0hdW2NIXVtjSF1jKGMxMiluKGMobjIpW0NIM10pW0NIMl1bQ0BIXShbT0hdKWMzW2NIXWMoRilbY0hdW2NIXWMzRg==

> <s_epik_cmdline>
J2VwaWtfcHl0aG9uJywgJy1waCcsICc3LjAnLCAnLXRuJywgJzgnLCAnLW1hJywgJzIwMCcsICctbWV0YWxfYmluZGluZycsICctaW1hZScsICc8aW5maWxlLm1hZT4nLCAnLW9tYWUnLCAnPG91dGZpbGUubWFlPic=

> <r_epik_Ionization_Penalty>
0.129664

> <r_epik_Ionization_Penalty_Charging>
0

> <r_epik_Ionization_Penalty_Neutral>
0.129664

> <r_epik_State_Penalty>
0.119073

> <r_epik_Charging_Adjusted_Penalty>
0.119073

> <i_epik_Tot_Q>
0

> <i_epik_Tot_abs_Q>
0

> <r_epik_Metal_State_Penalty>
0.000131867

> <b_epik_Metal_Only>
0

> <s_lp_Force_Field>
OPLS_2005

> <r_lp_Energy>
11.5832

> <b_lp_Chiralities_Consistent>
1

> <s_lp_Variant>
AV-unprocessed.smi:1883-1

> <Gold.Version>
5.8.1

> <Gold.Id.Protein>
6NUR|6NUR_protein|mol2

> <Gold.PLP.Fitness>
49.1180

> <Gold.PLP.PLP>
-48.9671

> <Gold.PLP.part.hbond>
-1.0000

> <Gold.PLP.part.metal>
0.0000

> <Gold.PLP.part.buried>
-1.9819

> <Gold.PLP.part.nonpolar>
-46.2259

> <Gold.PLP.part.repulsive>
0.2212

> <Gold.PLP.ligand.clash>
0.0000

> <Gold.PLP.ligand.torsion>
1.0405

> <Gold.PLP.Chemscore.Hbond>
0.7360

> <Gold.PLP.Chemscore.CHOScore>
0.0000

> <Gold.PLP.Chemscore.Metal>
0.0000

> <Gold.Chemscore.Hbonds>
donor molecule, donor type, donor heavy atom, donor atom, acceptor molecule, acceptor atom, score
      L1  H    13    32       P1  8028  0.69

> <Gold.PLP.Chemscore.Internal.Correction>
0.0238

> <Gold.Rescore>
     Score         DG    S(hbond)    S(metal)    S(lipo)     H(rot)  DE(clash)    DE(int)     intcor
     14.95     -17.85       0.91        0.00     121.10       1.88       0.08       2.82       ----

> <Gold.Chemscore.Fitness>
14.9496

> <Gold.Chemscore.DG>
-17.8541

> <Gold.Chemscore.ZeroCoef>
-5.4800

> <Gold.Chemscore.Hbond>
0.9066

> <Gold.Chemscore.Metal>
0.0000

> <Gold.Chemscore.Lipo>
121.1008

> <Gold.Chemscore.Internal_Hbond>
0.0000

> <Gold.Chemscore.DEClash>
0.0839

> <Gold.Chemscore.DEInternal>
2.8207

> <Gold.Chemscore.Rot>
1.8839

> <Gold.Chemscore.Internal.Correction>
   9.000000E+99

> <Gold.Chemscore.Hbonds>
donor molecule, donor type, donor heavy atom, donor atom, acceptor molecule, acceptor atom, score
      L1  H    13    32       P1  8028  0.69

> <Gold.Chemscore.Hbond.Weighted>
-3.0281

> <Gold.Chemscore.Metal.Weighted>
-0.0000

> <Gold.Chemscore.Lipo.Weighted>
-14.1688

> <Gold.Chemscore.Internal_Hbond.Weighted>
0.0000

> <Gold.Chemscore.DEClash.Weighted>
0.0839

> <Gold.Chemscore.DEInternal.Weighted>
2.8207

> <Gold.Chemscore.Rot.Weighted>
4.8227

> <Gold.Chemscore.Internal.Correction.Weighted>
   9.000000E+99

> <Gold.Protein.RotatedTorsions>
[ 6907 6896 6895 6894 ] final  -10.70 input  -60.11 | X-H torsion
[ 7974 7965 7964 7962 ] final   75.35 input  175.53 | X-H torsion
[ 8008 7997 7996 7995 ] final  -16.48 input   59.86 | X-H torsion
[ 10167 10162 10161 10158 ] final   86.21 input  -65.29 | X-H torsion
[ 10718 10713 10712 10709 ] final   88.39 input   66.30 | X-H torsion
[ 10763 10752 10751 10750 ] final  -23.60 input  -60.55 | X-H torsion
[ 11005 11000 10999 10996 ] final  141.64 input  -57.11 | X-H torsion

> <Gold.Protein.ActiveResidues>
 VAL166  LYS551  ARG553  GLY616  TRP617  ASP618  TYR619  PRO620  LYS621  CYS622 
 ASP623  PHE694  ASN695  SER759  ASP760  ASP761  ALA762  ILE779  LEU786  VAL792 
 PHE793  MET794  SER795  GLU796  ALA797  LYS798  CYS799  TRP800  GLU811  SER814 

> <Gold.Protein.RotatedAtoms>
  151.3978  135.0966  159.9546 H   0  0  0  0  0  0  0  0  0  0  0  0  # atno 6907 bound_to 6896
  152.5060  133.8917  159.7407 H   0  0  0  0  0  0  0  0  0  0  0  0  # atno 6908 bound_to 6896
  150.9384  133.6628  159.2824 H   0  0  0  0  0  0  0  0  0  0  0  0  # atno 6909 bound_to 6896
  145.7166  139.2633  143.1620 H   0  0  0  0  0  0  0  0  0  0  0  0  # atno 7974 bound_to 7965
  154.5050  140.2168  155.9269 H   0  0  0  0  0  0  0  0  0  0  0  0  # atno 8008 bound_to 7997
  156.1482  140.3166  155.8571 H   0  0  0  0  0  0  0  0  0  0  0  0  # atno 8009 bound_to 7997
  155.3990  140.0483  157.3028 H   0  0  0  0  0  0  0  0  0  0  0  0  # atno 8010 bound_to 7997
  139.8898  144.6392  150.8751 H   0  0  0  0  0  0  0  0  0  0  0  0  # atno 10167 bound_to 10162
  157.6948  131.0293  150.3267 H   0  0  0  0  0  0  0  0  0  0  0  0  # atno 10718 bound_to 10713
  153.6705  135.6972  153.5149 H   0  0  0  0  0  0  0  0  0  0  0  0  # atno 10763 bound_to 10752
  153.2562  135.4259  155.0847 H   0  0  0  0  0  0  0  0  0  0  0  0  # atno 10764 bound_to 10752
  154.8428  135.3543  154.6249 H   0  0  0  0  0  0  0  0  0  0  0  0  # atno 10765 bound_to 10752
  140.0417  134.9301  157.0854 H   0  0  0  0  0  0  0  0  0  0  0  0  # atno 11005 bound_to 11000
  146.0664  140.7916  142.9710 LP  0  0  0  0  0  0  0  0  0  0  0  0  # atno 17320 bound_to 7965
  144.6927  140.3274  143.7222 LP  0  0  0  0  0  0  0  0  0  0  0  0  # atno 17321 bound_to 7965
  140.7729  143.3519  151.1998 LP  0  0  0  0  0  0  0  0  0  0  0  0  # atno 17342 bound_to 10162
  139.7120  143.9362  152.2951 LP  0  0  0  0  0  0  0  0  0  0  0  0  # atno 17343 bound_to 10162
  156.3746  130.3869  149.7148 LP  0  0  0  0  0  0  0  0  0  0  0  0  # atno 17370 bound_to 10713
  156.4551  130.7925  151.2946 LP  0  0  0  0  0  0  0  0  0  0  0  0  # atno 17371 bound_to 10713
  140.4059  134.2033  155.7163 LP  0  0  0  0  0  0  0  0  0  0  0  0  # atno 17394 bound_to 11000
  141.1886  133.8256  157.0988 LP  0  0  0  0  0  0  0  0  0  0  0  0  # atno 17395 bound_to 11000

$$$$
