AV-unprocessed.smi:2454|AV-procd|sdf|9696|dock8
  -GOLD-   2272013333D 1   1.00000     0.00000
 Structure written by MMmdl.
 42 43  0  0  0  0  0  0  0  0  1 V2000
  143.7560  132.8100  148.3316 C   0  0  0  0  0  0  0  0  0  0  0  0
  143.7322  131.7948  149.3195 O   0  0  0  0  0  0  0  0  0  0  0  0
  144.7441  131.9646  150.2978 C   0  0  0  0  0  0  0  0  0  0  0  0
  144.4590  133.1594  151.1839 C   0  0  0  0  0  0  0  0  0  0  0  0
  145.4687  134.0917  151.5031 C   0  0  0  0  0  0  0  0  0  0  0  0
  145.1149  135.1707  152.3445 C   0  0  0  0  0  0  0  0  0  0  0  0
  146.1708  136.0847  152.6328 N   0  0  0  0  0  0  0  0  0  0  0  0
  146.2871  137.0514  153.5685 C   0  0  0  0  0  0  0  0  0  0  0  0
  145.3772  137.2695  154.3668 O   0  0  0  0  0  0  0  0  0  0  0  0
  147.4382  137.7438  153.5654 N   0  0  0  0  0  0  0  0  0  0  0  0
  147.7968  138.8340  154.4674 C   0  0  1  0  0  0  0  0  0  0  0  0
  149.1697  139.4041  154.0696 C   0  0  0  0  0  0  0  0  0  0  0  0
  149.5426  140.6146  154.9378 C   0  0  0  0  0  0  0  0  0  0  0  0
  148.4553  141.6991  154.8796 C   0  0  0  0  0  0  0  0  0  0  0  0
  147.0747  141.1440  155.2901 C   0  0  1  0  0  0  0  0  0  0  0  0
  145.9793  142.2296  155.2510 C   0  0  0  0  0  0  0  0  0  0  0  0
  144.7675  141.6860  155.3680 F   0  0  0  0  0  0  0  0  0  0  0  0
  146.1603  143.0977  156.2465 F   0  0  0  0  0  0  0  0  0  0  0  0
  146.0413  142.8995  154.1001 F   0  0  0  0  0  0  0  0  0  0  0  0
  146.7112  139.9254  154.4148 C   0  0  0  0  0  0  0  0  0  0  0  0
  143.8424  135.2714  152.8072 N   0  0  0  0  0  0  0  0  0  0  0  0
  142.9643  134.3330  152.4454 C   0  0  0  0  0  0  0  0  0  0  0  0
  143.2017  133.2826  151.6595 N   0  0  0  0  0  0  0  0  0  0  0  0
  142.9567  132.6387  147.6107 H   0  0  0  0  0  0  0  0  0  0  0  0
  144.7026  132.8111  147.7901 H   0  0  0  0  0  0  0  0  0  0  0  0
  143.6041  133.7954  148.7742 H   0  0  0  0  0  0  0  0  0  0  0  0
  144.8151  131.0704  150.9192 H   0  0  0  0  0  0  0  0  0  0  0  0
  145.7142  132.0957  149.8145 H   0  0  0  0  0  0  0  0  0  0  0  0
  146.4723  133.9784  151.1192 H   0  0  0  0  0  0  0  0  0  0  0  0
  146.9734  135.9952  152.0269 H   0  0  0  0  0  0  0  0  0  0  0  0
  148.1269  137.4901  152.8708 H   0  0  0  0  0  0  0  0  0  0  0  0
  147.8635  138.4715  155.4948 H   0  0  0  0  0  0  0  0  0  0  0  0
  149.9366  138.6339  154.1626 H   0  0  0  0  0  0  0  0  0  0  0  0
  149.1572  139.7027  153.0202 H   0  0  0  0  0  0  0  0  0  0  0  0
  149.6845  140.2938  155.9707 H   0  0  0  0  0  0  0  0  0  0  0  0
  150.4968  141.0269  154.6085 H   0  0  0  0  0  0  0  0  0  0  0  0
  148.7364  142.5267  155.5314 H   0  0  0  0  0  0  0  0  0  0  0  0
  148.4044  142.1068  153.8694 H   0  0  0  0  0  0  0  0  0  0  0  0
  147.1512  140.7975  156.3220 H   0  0  0  0  0  0  0  0  0  0  0  0
  146.5653  140.2479  153.3827 H   0  0  0  0  0  0  0  0  0  0  0  0
  145.7593  139.5051  154.7420 H   0  0  0  0  0  0  0  0  0  0  0  0
  141.9597  134.4362  152.8277 H   0  0  0  0  0  0  0  0  0  0  0  0
  1  2  1  0  0  0  0
  1 24  1  0  0  0  0
  1 25  1  0  0  0  0
  1 26  1  0  0  0  0
  2  3  1  0  0  0  0
  3  4  1  0  0  0  0
  3 27  1  0  0  0  0
  3 28  1  0  0  0  0
  4 23  1  0  0  0  0
  4  5  2  0  0  0  0
  5  6  1  0  0  0  0
  5 29  1  0  0  0  0
  6  7  1  0  0  0  0
  6 21  2  0  0  0  0
  7  8  1  0  0  0  0
  7 30  1  0  0  0  0
  8  9  2  0  0  0  0
  8 10  1  0  0  0  0
 10 11  1  0  0  0  0
 10 31  1  0  0  0  0
 11 20  1  0  0  0  0
 11 12  1  0  0  0  0
 11 32  1  0  0  0  0
 12 13  1  0  0  0  0
 12 33  1  0  0  0  0
 12 34  1  0  0  0  0
 13 14  1  0  0  0  0
 13 35  1  0  0  0  0
 13 36  1  0  0  0  0
 14 15  1  0  0  0  0
 14 37  1  0  0  0  0
 14 38  1  0  0  0  0
 15 16  1  0  0  0  0
 15 20  1  0  0  0  0
 15 39  1  0  0  0  0
 16 17  1  0  0  0  0
 16 18  1  0  0  0  0
 16 19  1  0  0  0  0
 20 40  1  0  0  0  0
 20 41  1  0  0  0  0
 21 22  1  0  0  0  0
 22 23  2  0  0  0  0
 22 42  1  0  0  0  0
M  END
> <s_m_source_file>
AV-unprocessed.smi

> <i_m_source_file_index>
2454

> <i_lp_mmshare_version>
43012

> <i_f3d_flags>
0

> <s_epik_input>
W0NIM11PW0NIMl1jMVtjSF1jKG5bY0hdbjEpW05IXUMoPU8pW05IXVtDQEBIXTJbQ0gyXVtDSDJdW0NIMl1bQ0BASF0oQyhGKShGKUYpW0NIMl0y

> <s_epik_cmdline>
J2VwaWtfcHl0aG9uJywgJy1waCcsICc3LjAnLCAnLXRuJywgJzgnLCAnLW1hJywgJzIwMCcsICctbWV0YWxfYmluZGluZycsICctaW1hZScsICc8aW5maWxlLm1hZT4nLCAnLW9tYWUnLCAnPG91dGZpbGUubWFlPic=

> <r_lp_tautomer_probability>
1

> <r_epik_Ionization_Penalty>
3.01554e-05

> <r_epik_Ionization_Penalty_Charging>
0

> <r_epik_Ionization_Penalty_Neutral>
3.01554e-05

> <r_epik_State_Penalty>
-0

> <r_epik_Charging_Adjusted_Penalty>
0

> <i_epik_Tot_Q>
0

> <i_epik_Tot_abs_Q>
0

> <r_epik_Metal_State_Penalty>
-0

> <b_epik_Metal_Only>
0

> <s_lp_Force_Field>
OPLS_2005

> <r_lp_Energy>
13.6068

> <b_lp_Chiralities_Consistent>
1

> <s_lp_Variant>
AV-unprocessed.smi:2454-2

> <Gold.Version>
5.8.1

> <Gold.Id.Protein>
6NUR|6NUR_protein|mol2

> <Gold.PLP.Fitness>
41.3279

> <Gold.PLP.PLP>
-34.0377

> <Gold.PLP.part.hbond>
-3.0000

> <Gold.PLP.part.metal>
0.0000

> <Gold.PLP.part.buried>
-3.1803

> <Gold.PLP.part.nonpolar>
-28.4345

> <Gold.PLP.part.repulsive>
0.6538

> <Gold.PLP.ligand.clash>
0.0000

> <Gold.PLP.ligand.torsion>
0.5395

> <Gold.PLP.Chemscore.Hbond>
2.7760

> <Gold.PLP.Chemscore.CHOScore>
0.0000

> <Gold.PLP.Chemscore.Metal>
0.0000

> <Gold.Chemscore.Hbonds>
donor molecule, donor type, donor heavy atom, donor atom, acceptor molecule, acceptor atom, score
      L1  H     7    30       P1  7948  0.94
      L1  H    10    31       P1  7948  1.00
      P1  H 10785 10796       L1     2  0.85

> <Gold.PLP.Chemscore.Internal.Correction>
0.0413

> <Gold.Rescore>
     Score         DG    S(hbond)    S(metal)    S(lipo)     H(rot)  DE(clash)    DE(int)     intcor
     15.74     -18.56       2.72        0.00      69.32       1.60       0.12       2.70       ----

> <Gold.Chemscore.Fitness>
15.7398

> <Gold.Chemscore.DG>
-18.5590

> <Gold.Chemscore.ZeroCoef>
-5.4800

> <Gold.Chemscore.Hbond>
2.7165

> <Gold.Chemscore.Metal>
0.0000

> <Gold.Chemscore.Lipo>
69.3238

> <Gold.Chemscore.Internal_Hbond>
0.0000

> <Gold.Chemscore.DEClash>
0.1167

> <Gold.Chemscore.DEInternal>
2.7025

> <Gold.Chemscore.Rot>
1.6035

> <Gold.Chemscore.Internal.Correction>
   9.000000E+99

> <Gold.Chemscore.Hbonds>
donor molecule, donor type, donor heavy atom, donor atom, acceptor molecule, acceptor atom, score
      L1  H     7    30       P1  7948  0.89
      L1  H    10    31       P1  7948  0.95
      P1  H 10785 10796       L1     2  0.76

> <Gold.Chemscore.Hbond.Weighted>
-9.0731

> <Gold.Chemscore.Metal.Weighted>
-0.0000

> <Gold.Chemscore.Lipo.Weighted>
-8.1109

> <Gold.Chemscore.Internal_Hbond.Weighted>
0.0000

> <Gold.Chemscore.DEClash.Weighted>
0.1167

> <Gold.Chemscore.DEInternal.Weighted>
2.7025

> <Gold.Chemscore.Rot.Weighted>
4.1050

> <Gold.Chemscore.Internal.Correction.Weighted>
   9.000000E+99

> <Gold.Protein.RotatedTorsions>
[ 6907 6896 6895 6894 ] final   22.06 input  -60.11 | X-H torsion
[ 7974 7965 7964 7962 ] final  105.36 input  175.53 | X-H torsion
[ 8008 7997 7996 7995 ] final -135.13 input   59.86 | X-H torsion
[ 10167 10162 10161 10158 ] final    1.75 input  -65.29 | X-H torsion
[ 10718 10713 10712 10709 ] final -100.24 input   66.30 | X-H torsion
[ 10763 10752 10751 10750 ] final    1.57 input  -60.55 | X-H torsion
[ 11005 11000 10999 10996 ] final -135.21 input  -57.11 | X-H torsion

> <Gold.Protein.ActiveResidues>
 VAL166  LYS551  ARG553  GLY616  TRP617  ASP618  TYR619  PRO620  LYS621  CYS622 
 ASP623  PHE694  ASN695  SER759  ASP760  ASP761  ALA762  ILE779  LEU786  VAL792 
 PHE793  MET794  SER795  GLU796  ALA797  LYS798  CYS799  TRP800  GLU811  SER814 

> <Gold.Protein.RotatedAtoms>
  151.9213  135.0297  160.0522 H   0  0  0  0  0  0  0  0  0  0  0  0  # atno 6907 bound_to 6896
  152.2197  133.4969  159.5164 H   0  0  0  0  0  0  0  0  0  0  0  0  # atno 6908 bound_to 6896
  150.6996  134.1276  159.4100 H   0  0  0  0  0  0  0  0  0  0  0  0  # atno 6909 bound_to 6896
  145.3207  139.2513  143.3713 H   0  0  0  0  0  0  0  0  0  0  0  0  # atno 7974 bound_to 7965
  155.3736  140.0490  157.3045 H   0  0  0  0  0  0  0  0  0  0  0  0  # atno 8008 bound_to 7997
  154.5117  140.2194  155.9105 H   0  0  0  0  0  0  0  0  0  0  0  0  # atno 8009 bound_to 7997
  156.1590  140.3120  155.8781 H   0  0  0  0  0  0  0  0  0  0  0  0  # atno 8010 bound_to 7997
  140.6668  143.7158  150.7842 H   0  0  0  0  0  0  0  0  0  0  0  0  # atno 10167 bound_to 10162
  156.0157  130.5319  150.6788 H   0  0  0  0  0  0  0  0  0  0  0  0  # atno 10718 bound_to 10713
  153.3064  135.6959  153.7156 H   0  0  0  0  0  0  0  0  0  0  0  0  # atno 10763 bound_to 10752
  153.6050  135.3455  155.2959 H   0  0  0  0  0  0  0  0  0  0  0  0  # atno 10764 bound_to 10752
  154.8564  135.4350  154.2189 H   0  0  0  0  0  0  0  0  0  0  0  0  # atno 10765 bound_to 10752
  140.8919  134.1800  157.4521 H   0  0  0  0  0  0  0  0  0  0  0  0  # atno 11005 bound_to 11000
  146.3083  140.3764  142.8679 LP  0  0  0  0  0  0  0  0  0  0  0  0  # atno 17320 bound_to 7965
  144.8941  140.7561  143.5908 LP  0  0  0  0  0  0  0  0  0  0  0  0  # atno 17321 bound_to 7965
  140.0837  143.4944  152.2516 LP  0  0  0  0  0  0  0  0  0  0  0  0  # atno 17342 bound_to 10162
  139.5919  144.7553  151.3379 LP  0  0  0  0  0  0  0  0  0  0  0  0  # atno 17343 bound_to 10162
  157.4495  131.0871  151.0861 LP  0  0  0  0  0  0  0  0  0  0  0  0  # atno 17370 bound_to 10713
  157.1381  130.6131  149.5547 LP  0  0  0  0  0  0  0  0  0  0  0  0  # atno 17371 bound_to 10713
  139.8731  134.9862  156.5315 LP  0  0  0  0  0  0  0  0  0  0  0  0  # atno 17394 bound_to 11000
  140.8336  133.8260  155.9007 LP  0  0  0  0  0  0  0  0  0  0  0  0  # atno 17395 bound_to 11000

$$$$
