AV-unprocessed.smi:364|AV-procd|sdf|2426|dock7
  -GOLD-   2262022363D 1   1.00000     0.00000
 Structure written by MMmdl.
 37 38  0  0  0  0  0  0  0  0  1 V2000
  147.2469  132.9837  151.7699 C   0  0  0  0  0  0  0  0  0  0  0  0
  147.9901  133.0521  153.1115 C   0  0  2  0  0  0  0  0  0  0  0  0
  147.5271  134.2627  153.9458 C   0  0  0  0  0  0  0  0  0  0  0  0
  148.2899  134.3632  155.2801 C   0  0  0  0  0  0  0  0  0  0  0  0
  149.8159  134.3960  155.0736 C   0  0  2  0  0  0  0  0  0  0  0  0
  150.1941  135.6334  154.4001 N   0  0  0  0  0  0  0  0  0  0  0  0
  151.1793  136.4795  154.7396 C   0  0  0  0  0  0  0  0  0  0  0  0
  151.9075  136.3084  155.7159 O   0  0  0  0  0  0  0  0  0  0  0  0
  151.3979  137.7095  153.8403 C   0  0  0  0  0  0  0  0  0  0  0  0
  150.7670  138.9470  154.3374 N   0  0  0  0  0  0  0  0  0  0  0  0
  149.3975  139.1200  154.0751 C   0  0  0  0  0  0  0  0  0  0  0  0
  148.7402  140.1974  154.5270 C   0  0  0  0  0  0  0  0  0  0  0  0
  149.5289  141.1662  155.2989 C   0  0  0  0  0  0  0  0  0  0  0  0
  150.7772  141.0119  155.5401 N   0  0  0  0  0  0  0  0  0  0  0  0
  151.4649  139.8787  155.0658 C   0  0  0  0  0  0  0  0  0  0  0  0
  152.6612  139.7167  155.3064 O   0  0  0  0  0  0  0  0  0  0  0  0
  150.2734  133.1814  154.2433 C   0  0  0  0  0  0  0  0  0  0  0  0
  149.5175  133.0800  152.9050 C   0  0  0  0  0  0  0  0  0  0  0  0
  147.4517  133.8637  151.1590 H   0  0  0  0  0  0  0  0  0  0  0  0
  146.1685  132.9270  151.9204 H   0  0  0  0  0  0  0  0  0  0  0  0
  147.5467  132.1048  151.1986 H   0  0  0  0  0  0  0  0  0  0  0  0
  147.7453  132.1479  153.6708 H   0  0  0  0  0  0  0  0  0  0  0  0
  147.6646  135.1812  153.3733 H   0  0  0  0  0  0  0  0  0  0  0  0
  146.4578  134.1877  154.1460 H   0  0  0  0  0  0  0  0  0  0  0  0
  147.9655  135.2488  155.8279 H   0  0  0  0  0  0  0  0  0  0  0  0
  148.0308  133.5082  155.9058 H   0  0  0  0  0  0  0  0  0  0  0  0
  150.2936  134.3513  156.0535 H   0  0  0  0  0  0  0  0  0  0  0  0
  149.6563  135.8691  153.5787 H   0  0  0  0  0  0  0  0  0  0  0  0
  152.4712  137.8539  153.7058 H   0  0  0  0  0  0  0  0  0  0  0  0
  151.0176  137.4745  152.8451 H   0  0  0  0  0  0  0  0  0  0  0  0
  148.9292  138.3313  153.5040 H   0  0  0  0  0  0  0  0  0  0  0  0
  147.6897  140.3884  154.3652 H   0  0  0  0  0  0  0  0  0  0  0  0
  148.9758  142.0373  155.6591 H   0  0  0  0  0  0  0  0  0  0  0  0
  151.3479  133.2328  154.0617 H   0  0  0  0  0  0  0  0  0  0  0  0
  150.1059  132.2700  154.8187 H   0  0  0  0  0  0  0  0  0  0  0  0
  149.8368  132.1817  152.3758 H   0  0  0  0  0  0  0  0  0  0  0  0
  149.7883  133.9215  152.2656 H   0  0  0  0  0  0  0  0  0  0  0  0
  1  2  1  0  0  0  0
  1 19  1  0  0  0  0
  1 20  1  0  0  0  0
  1 21  1  0  0  0  0
  2 18  1  0  0  0  0
  2  3  1  0  0  0  0
  2 22  1  0  0  0  0
  3  4  1  0  0  0  0
  3 23  1  0  0  0  0
  3 24  1  0  0  0  0
  4  5  1  0  0  0  0
  4 25  1  0  0  0  0
  4 26  1  0  0  0  0
  5  6  1  0  0  0  0
  5 17  1  0  0  0  0
  5 27  1  0  0  0  0
  6  7  1  0  0  0  0
  6 28  1  0  0  0  0
  7  8  2  0  0  0  0
  7  9  1  0  0  0  0
  9 10  1  0  0  0  0
  9 29  1  0  0  0  0
  9 30  1  0  0  0  0
 10 15  1  0  0  0  0
 10 11  1  0  0  0  0
 11 12  2  0  0  0  0
 11 31  1  0  0  0  0
 12 13  1  0  0  0  0
 12 32  1  0  0  0  0
 13 14  2  0  0  0  0
 13 33  1  0  0  0  0
 14 15  1  0  0  0  0
 15 16  2  0  0  0  0
 17 18  1  0  0  0  0
 17 34  1  0  0  0  0
 17 35  1  0  0  0  0
 18 36  1  0  0  0  0
 18 37  1  0  0  0  0
M  END
> <s_m_source_file>
AV-unprocessed.smi

> <i_m_source_file_index>
364

> <i_lp_mmshare_version>
43012

> <i_f3d_flags>
0

> <s_epik_input>
W0NIM11bQ0BASF0xW0NIMl1bQ0gyXVtDQEhdKFtDSDJdW0NIMl0xKVtOSF1DKD1PKVtDSDJdbjJbY0hdW2NIXVtjSF1uYzI9Tw==

> <s_epik_cmdline>
J2VwaWtfcHl0aG9uJywgJy1waCcsICc3LjAnLCAnLXRuJywgJzgnLCAnLW1hJywgJzIwMCcsICctbWV0YWxfYmluZGluZycsICctaW1hZScsICc8aW5maWxlLm1hZT4nLCAnLW9tYWUnLCAnPG91dGZpbGUubWFlPic=

> <r_lp_tautomer_probability>
1

> <r_epik_Ionization_Penalty>
7.65306e-06

> <r_epik_Ionization_Penalty_Charging>
1.81354e-08

> <r_epik_Ionization_Penalty_Neutral>
7.63492e-06

> <r_epik_State_Penalty>
-0

> <r_epik_Charging_Adjusted_Penalty>
1.81354e-08

> <i_epik_Tot_Q>
0

> <i_epik_Tot_abs_Q>
0

> <r_epik_Metal_State_Penalty>
-0

> <b_epik_Metal_Only>
0

> <s_lp_Force_Field>
OPLS_2005

> <r_lp_Energy>
9.99244

> <b_lp_Chiralities_Consistent>
1

> <s_lp_Variant>
AV-unprocessed.smi:364-2

> <Gold.Version>
5.8.1

> <Gold.Id.Protein>
6NUR|6NUR_protein|mol2

> <Gold.PLP.Fitness>
44.3548

> <Gold.PLP.PLP>
-33.2452

> <Gold.PLP.part.hbond>
-4.0000

> <Gold.PLP.part.metal>
0.0000

> <Gold.PLP.part.buried>
1.6572

> <Gold.PLP.part.nonpolar>
-30.7682

> <Gold.PLP.part.repulsive>
0.1219

> <Gold.PLP.ligand.clash>
0.0000

> <Gold.PLP.ligand.torsion>
0.7924

> <Gold.PLP.Chemscore.Hbond>
2.7280

> <Gold.PLP.Chemscore.CHOScore>
1.5015

> <Gold.PLP.Chemscore.Metal>
0.0000

> <Gold.Chemscore.Hbonds>
donor molecule, donor type, donor heavy atom, donor atom, acceptor molecule, acceptor atom, score
      L1  H     6    28       P1  7948  0.90
      P1  H  7997  8010       L1    16  1.00
      P1  H 10752 10765       L1     8  0.99
      L1  C    11    31       P1  7948  0.72
      L1  C    13    33       P1  8028  0.63

> <Gold.PLP.Chemscore.Internal.Correction>
0.0059

> <Gold.Rescore>
     Score         DG    S(hbond)    S(metal)    S(lipo)     H(rot)  DE(clash)    DE(int)     intcor
     14.39     -15.17       2.37        0.00      48.00       1.50       0.37       0.41       ----

> <Gold.Chemscore.Fitness>
14.3925

> <Gold.Chemscore.DG>
-15.1705

> <Gold.Chemscore.ZeroCoef>
-5.4800

> <Gold.Chemscore.Hbond>
2.3680

> <Gold.Chemscore.Metal>
0.0000

> <Gold.Chemscore.Lipo>
47.9960

> <Gold.Chemscore.Internal_Hbond>
0.0000

> <Gold.Chemscore.DEClash>
0.3654

> <Gold.Chemscore.DEInternal>
0.4127

> <Gold.Chemscore.Rot>
1.4977

> <Gold.Chemscore.Internal.Correction>
   9.000000E+99

> <Gold.Chemscore.Hbonds>
donor molecule, donor type, donor heavy atom, donor atom, acceptor molecule, acceptor atom, score
      L1  H     6    28       P1  7948  0.18
      P1  H  7997  8010       L1    16  1.00
      P1  H 10752 10765       L1     8  0.47

> <Gold.Chemscore.Hbond.Weighted>
-7.9091

> <Gold.Chemscore.Metal.Weighted>
-0.0000

> <Gold.Chemscore.Lipo.Weighted>
-5.6155

> <Gold.Chemscore.Internal_Hbond.Weighted>
0.0000

> <Gold.Chemscore.DEClash.Weighted>
0.3654

> <Gold.Chemscore.DEInternal.Weighted>
0.4127

> <Gold.Chemscore.Rot.Weighted>
3.8341

> <Gold.Chemscore.Internal.Correction.Weighted>
   9.000000E+99

> <Gold.Protein.RotatedTorsions>
[ 6907 6896 6895 6894 ] final  155.50 input  -60.11 | X-H torsion
[ 7974 7965 7964 7962 ] final    6.47 input  175.53 | X-H torsion
[ 8008 7997 7996 7995 ] final   98.18 input   59.86 | X-H torsion
[ 10167 10162 10161 10158 ] final -140.56 input  -65.29 | X-H torsion
[ 10718 10713 10712 10709 ] final  121.63 input   66.30 | X-H torsion
[ 10763 10752 10751 10750 ] final -141.23 input  -60.55 | X-H torsion
[ 11005 11000 10999 10996 ] final  135.85 input  -57.11 | X-H torsion

> <Gold.Protein.ActiveResidues>
 VAL166  LYS551  ARG553  GLY616  TRP617  ASP618  TYR619  PRO620  LYS621  CYS622 
 ASP623  PHE694  ASN695  SER759  ASP760  ASP761  ALA762  ILE779  LEU786  VAL792 
 PHE793  MET794  SER795  GLU796  ALA797  LYS798  CYS799  TRP800  GLU811  SER814 

> <Gold.Protein.RotatedAtoms>
  152.0432  133.3986  159.4345 H   0  0  0  0  0  0  0  0  0  0  0  0  # atno 6907 bound_to 6896
  150.6874  134.3391  159.4869 H   0  0  0  0  0  0  0  0  0  0  0  0  # atno 6908 bound_to 6896
  152.1192  134.9218  160.0614 H   0  0  0  0  0  0  0  0  0  0  0  0  # atno 6909 bound_to 6896
  146.2434  140.0229  142.8396 H   0  0  0  0  0  0  0  0  0  0  0  0  # atno 7974 bound_to 7965
  156.0978  140.3247  155.7901 H   0  0  0  0  0  0  0  0  0  0  0  0  # atno 8008 bound_to 7997
  155.4889  140.0560  157.2974 H   0  0  0  0  0  0  0  0  0  0  0  0  # atno 8009 bound_to 7997
  154.4677  140.1997  156.0090 H   0  0  0  0  0  0  0  0  0  0  0  0  # atno 8010 bound_to 7997
  139.8269  143.7498  152.2666 H   0  0  0  0  0  0  0  0  0  0  0  0  # atno 10167 bound_to 10162
  157.5803  131.1075  150.8199 H   0  0  0  0  0  0  0  0  0  0  0  0  # atno 10718 bound_to 10713
  154.8552  135.3530  154.5835 H   0  0  0  0  0  0  0  0  0  0  0  0  # atno 10763 bound_to 10752
  153.6445  135.6997  153.5234 H   0  0  0  0  0  0  0  0  0  0  0  0  # atno 10764 bound_to 10752
  153.2944  135.4225  155.1154 H   0  0  0  0  0  0  0  0  0  0  0  0  # atno 10765 bound_to 10752
  140.0007  134.9479  157.0066 H   0  0  0  0  0  0  0  0  0  0  0  0  # atno 11005 bound_to 11000
  145.1225  140.9470  143.4592 LP  0  0  0  0  0  0  0  0  0  0  0  0  # atno 17320 bound_to 7965
  145.0467  139.3215  143.5949 LP  0  0  0  0  0  0  0  0  0  0  0  0  # atno 17321 bound_to 7965
  139.7694  144.7481  151.0247 LP  0  0  0  0  0  0  0  0  0  0  0  0  # atno 17342 bound_to 10162
  140.7809  143.4662  151.0209 LP  0  0  0  0  0  0  0  0  0  0  0  0  # atno 17343 bound_to 10162
  156.8647  130.5125  149.5301 LP  0  0  0  0  0  0  0  0  0  0  0  0  # atno 17370 bound_to 10713
  156.0849  130.5850  150.9630 LP  0  0  0  0  0  0  0  0  0  0  0  0  # atno 17371 bound_to 10713
  140.4733  134.1364  155.7206 LP  0  0  0  0  0  0  0  0  0  0  0  0  # atno 17394 bound_to 11000
  141.1640  133.8739  157.1769 LP  0  0  0  0  0  0  0  0  0  0  0  0  # atno 17395 bound_to 11000

$$$$
