AV-unprocessed.smi:314|AV-procd|sdf|2313|dock4
  -GOLD-   2262022213D 1   1.00000     0.00000
 Structure written by MMmdl.
 48 49  0  0  0  0  0  0  0  0  1 V2000
  146.5726  129.9244  152.2666 C   0  0  0  0  0  0  0  0  0  0  0  0
  147.6922  129.9362  153.1453 O   0  0  0  0  0  0  0  0  0  0  0  0
  148.2466  131.1537  153.4833 C   0  0  0  0  0  0  0  0  0  0  0  0
  149.2882  131.1808  154.4315 C   0  0  0  0  0  0  0  0  0  0  0  0
  149.8595  132.4188  154.7829 C   0  0  0  0  0  0  0  0  0  0  0  0
  149.3721  133.5976  154.1678 C   0  0  0  0  0  0  0  0  0  0  0  0
  149.8488  134.9122  154.4308 N   0  0  0  0  0  0  0  0  0  0  0  0
  150.5663  135.3690  155.4720 C   0  0  0  0  0  0  0  0  0  0  0  0
  150.9576  134.6963  156.4250 O   0  0  0  0  0  0  0  0  0  0  0  0
  150.8208  136.6786  155.3428 N   0  0  0  0  0  0  0  0  0  0  0  0
  151.5635  137.4879  156.3025 C   0  0  0  0  0  0  0  0  0  0  0  0
  152.1482  138.7575  155.6486 C   0  0  0  0  0  0  0  0  0  0  0  0
  151.2669  140.0068  155.8235 C   0  0  0  0  0  0  0  0  0  0  0  0
  150.7202  140.4950  154.8331 O   0  0  0  0  0  0  0  0  0  0  0  0
  151.1183  140.5367  157.0615 N   0  0  0  0  0  0  0  0  0  0  0  0
  150.3831  141.7594  157.3971 C   0  0  0  0  0  0  0  0  0  0  0  0
  151.3957  142.8103  157.8947 C   0  0  1  0  0  0  0  0  0  0  0  0
  150.7165  144.1147  158.3253 C   0  0  0  0  0  0  0  0  0  0  0  0
  152.0989  142.2837  159.0195 O   0  0  0  0  0  0  0  0  0  0  0  0
  152.8002  141.0714  158.7447 C   0  0  1  0  0  0  0  0  0  0  0  0
  153.5184  140.6345  160.0261 C   0  0  0  0  0  0  0  0  0  0  0  0
  151.7992  140.0097  158.2468 C   0  0  0  0  0  0  0  0  0  0  0  0
  148.3222  133.4611  153.2360 C   0  0  0  0  0  0  0  0  0  0  0  0
  147.7697  132.2781  152.8950 N   0  0  0  0  0  0  0  0  0  0  0  0
  146.2580  128.8948  152.0972 H   0  0  0  0  0  0  0  0  0  0  0  0
  146.8219  130.3576  151.2969 H   0  0  0  0  0  0  0  0  0  0  0  0
  145.7248  130.4635  152.6922 H   0  0  0  0  0  0  0  0  0  0  0  0
  149.6421  130.2665  154.8846 H   0  0  0  0  0  0  0  0  0  0  0  0
  150.6481  132.4285  155.5175 H   0  0  0  0  0  0  0  0  0  0  0  0
  149.6353  135.5925  153.7161 H   0  0  0  0  0  0  0  0  0  0  0  0
  150.4638  137.1549  154.5274 H   0  0  0  0  0  0  0  0  0  0  0  0
  150.8751  137.7584  157.1041 H   0  0  0  0  0  0  0  0  0  0  0  0
  152.3537  136.8880  156.7576 H   0  0  0  0  0  0  0  0  0  0  0  0
  153.1306  138.9630  156.0755 H   0  0  0  0  0  0  0  0  0  0  0  0
  152.2883  138.5789  154.5818 H   0  0  0  0  0  0  0  0  0  0  0  0
  149.8049  142.1653  156.5688 H   0  0  0  0  0  0  0  0  0  0  0  0
  149.6571  141.5354  158.1805 H   0  0  0  0  0  0  0  0  0  0  0  0
  152.1112  143.0351  157.1015 H   0  0  0  0  0  0  0  0  0  0  0  0
  150.1746  144.5686  157.4952 H   0  0  0  0  0  0  0  0  0  0  0  0
  151.4520  144.8384  158.6771 H   0  0  0  0  0  0  0  0  0  0  0  0
  150.0064  143.9422  159.1346 H   0  0  0  0  0  0  0  0  0  0  0  0
  153.5480  141.2617  157.9726 H   0  0  0  0  0  0  0  0  0  0  0  0
  154.0829  139.7157  159.8661 H   0  0  0  0  0  0  0  0  0  0  0  0
  152.8085  140.4558  160.8341 H   0  0  0  0  0  0  0  0  0  0  0  0
  154.2179  141.4006  160.3611 H   0  0  0  0  0  0  0  0  0  0  0  0
  151.0604  139.7905  159.0191 H   0  0  0  0  0  0  0  0  0  0  0  0
  152.3196  139.0706  158.0534 H   0  0  0  0  0  0  0  0  0  0  0  0
  147.9106  134.3302  152.7437 H   0  0  0  0  0  0  0  0  0  0  0  0
  1  2  1  0  0  0  0
  1 25  1  0  0  0  0
  1 26  1  0  0  0  0
  1 27  1  0  0  0  0
  2  3  1  0  0  0  0
  3 24  1  0  0  0  0
  3  4  2  0  0  0  0
  4  5  1  0  0  0  0
  4 28  1  0  0  0  0
  5  6  2  0  0  0  0
  5 29  1  0  0  0  0
  6  7  1  0  0  0  0
  6 23  1  0  0  0  0
  7  8  1  0  0  0  0
  7 30  1  0  0  0  0
  8  9  2  0  0  0  0
  8 10  1  0  0  0  0
 10 11  1  0  0  0  0
 10 31  1  0  0  0  0
 11 12  1  0  0  0  0
 11 32  1  0  0  0  0
 11 33  1  0  0  0  0
 12 13  1  0  0  0  0
 12 34  1  0  0  0  0
 12 35  1  0  0  0  0
 13 14  2  0  0  0  0
 13 15  1  0  0  0  0
 15 22  1  0  0  0  0
 15 16  1  0  0  0  0
 16 17  1  0  0  0  0
 16 36  1  0  0  0  0
 16 37  1  0  0  0  0
 17 18  1  0  0  0  0
 17 19  1  0  0  0  0
 17 38  1  0  0  0  0
 18 39  1  0  0  0  0
 18 40  1  0  0  0  0
 18 41  1  0  0  0  0
 19 20  1  0  0  0  0
 20 21  1  0  0  0  0
 20 22  1  0  0  0  0
 20 42  1  0  0  0  0
 21 43  1  0  0  0  0
 21 44  1  0  0  0  0
 21 45  1  0  0  0  0
 22 46  1  0  0  0  0
 22 47  1  0  0  0  0
 23 24  2  0  0  0  0
 23 48  1  0  0  0  0
M  END
> <s_m_source_file>
AV-unprocessed.smi

> <i_m_source_file_index>
314

> <i_lp_mmshare_version>
43012

> <i_f3d_flags>
0

> <s_epik_input>
W0NIM11PYzFbY0hdW2NIXWMoW2NIXW4xKVtOSF1DKD1PKVtOSF1bQ0gyXVtDSDJdQyg9TylOMltDSDJdW0NAQEhdKFtDSDNdKU9bQ0BASF0oW0NIM10pW0NIMl0y

> <s_epik_cmdline>
J2VwaWtfcHl0aG9uJywgJy1waCcsICc3LjAnLCAnLXRuJywgJzgnLCAnLW1hJywgJzIwMCcsICctbWV0YWxfYmluZGluZycsICctaW1hZScsICc8aW5maWxlLm1hZT4nLCAnLW9tYWUnLCAnPG91dGZpbGUubWFlPic=

> <r_lp_tautomer_probability>
1

> <r_epik_Ionization_Penalty>
8.55977e-05

> <r_epik_Ionization_Penalty_Charging>
0

> <r_epik_Ionization_Penalty_Neutral>
8.55977e-05

> <r_epik_State_Penalty>
-0

> <r_epik_Charging_Adjusted_Penalty>
0

> <i_epik_Tot_Q>
0

> <i_epik_Tot_abs_Q>
0

> <r_epik_Metal_State_Penalty>
-0

> <b_epik_Metal_Only>
0

> <s_lp_Force_Field>
OPLS_2005

> <r_lp_Energy>
24.2957

> <b_lp_Chiralities_Consistent>
1

> <s_lp_Variant>
AV-unprocessed.smi:314-1

> <Gold.Version>
5.8.1

> <Gold.Id.Protein>
6NUR|6NUR_protein|mol2

> <Gold.PLP.Fitness>
47.6134

> <Gold.PLP.PLP>
-39.9092

> <Gold.PLP.part.hbond>
-2.0000

> <Gold.PLP.part.metal>
0.0000

> <Gold.PLP.part.buried>
-5.2249

> <Gold.PLP.part.nonpolar>
-33.2604

> <Gold.PLP.part.repulsive>
0.4504

> <Gold.PLP.ligand.clash>
0.0000

> <Gold.PLP.ligand.torsion>
0.5586

> <Gold.PLP.Chemscore.Hbond>
1.9500

> <Gold.PLP.Chemscore.CHOScore>
0.9835

> <Gold.PLP.Chemscore.Metal>
0.0000

> <Gold.Chemscore.Hbonds>
donor molecule, donor type, donor heavy atom, donor atom, acceptor molecule, acceptor atom, score
      L1  H     7    30       P1  7948  0.84
      P1  H  7989  7998       L1    14  1.00
      L1  C    23    48       P1  7948  1.00

> <Gold.PLP.Chemscore.Internal.Correction>
0.0210

> <Gold.Rescore>
     Score         DG    S(hbond)    S(metal)    S(lipo)     H(rot)  DE(clash)    DE(int)     intcor
     14.87     -16.31       1.60        0.00      86.39       1.81       0.00       1.43       ----

> <Gold.Chemscore.Fitness>
14.8738

> <Gold.Chemscore.DG>
-16.3054

> <Gold.Chemscore.ZeroCoef>
-5.4800

> <Gold.Chemscore.Hbond>
1.5998

> <Gold.Chemscore.Metal>
0.0000

> <Gold.Chemscore.Lipo>
86.3864

> <Gold.Chemscore.Internal_Hbond>
0.0000

> <Gold.Chemscore.DEClash>
0.0000

> <Gold.Chemscore.DEInternal>
1.4316

> <Gold.Chemscore.Rot>
1.8067

> <Gold.Chemscore.Internal.Correction>
   9.000000E+99

> <Gold.Chemscore.Hbonds>
donor molecule, donor type, donor heavy atom, donor atom, acceptor molecule, acceptor atom, score
      L1  H     7    30       P1  7948  0.13
      P1  H  7989  7998       L1    14  0.95

> <Gold.Chemscore.Hbond.Weighted>
-5.3433

> <Gold.Chemscore.Metal.Weighted>
-0.0000

> <Gold.Chemscore.Lipo.Weighted>
-10.1072

> <Gold.Chemscore.Internal_Hbond.Weighted>
0.0000

> <Gold.Chemscore.DEClash.Weighted>
0.0000

> <Gold.Chemscore.DEInternal.Weighted>
1.4316

> <Gold.Chemscore.Rot.Weighted>
4.6252

> <Gold.Chemscore.Internal.Correction.Weighted>
   9.000000E+99

> <Gold.Protein.RotatedTorsions>
[ 6907 6896 6895 6894 ] final -100.17 input  -60.11 | X-H torsion
[ 7974 7965 7964 7962 ] final  -25.18 input  175.53 | X-H torsion
[ 8008 7997 7996 7995 ] final   68.87 input   59.86 | X-H torsion
[ 10167 10162 10161 10158 ] final  -37.25 input  -65.29 | X-H torsion
[ 10718 10713 10712 10709 ] final   63.00 input   66.30 | X-H torsion
[ 10763 10752 10751 10750 ] final   38.90 input  -60.55 | X-H torsion
[ 11005 11000 10999 10996 ] final  -74.65 input  -57.11 | X-H torsion

> <Gold.Protein.ActiveResidues>
 VAL166  LYS551  ARG553  GLY616  TRP617  ASP618  TYR619  PRO620  LYS621  CYS622 
 ASP623  PHE694  ASN695  SER759  ASP760  ASP761  ALA762  ILE779  LEU786  VAL792 
 PHE793  MET794  SER795  GLU796  ALA797  LYS798  CYS799  TRP800  GLU811  SER814 

> <Gold.Protein.RotatedAtoms>
  150.7106  134.0928  159.3937 H   0  0  0  0  0  0  0  0  0  0  0  0  # atno 6907 bound_to 6896
  151.8914  135.0413  160.0507 H   0  0  0  0  0  0  0  0  0  0  0  0  # atno 6908 bound_to 6896
  152.2489  133.5162  159.5350 H   0  0  0  0  0  0  0  0  0  0  0  0  # atno 6909 bound_to 6896
  146.1508  140.4851  142.8612 H   0  0  0  0  0  0  0  0  0  0  0  0  # atno 7974 bound_to 7965
  155.7150  140.3494  155.4990 H   0  0  0  0  0  0  0  0  0  0  0  0  # atno 8008 bound_to 7997
  155.9321  140.1086  157.1145 H   0  0  0  0  0  0  0  0  0  0  0  0  # atno 8009 bound_to 7997
  154.4087  140.1229  156.4803 H   0  0  0  0  0  0  0  0  0  0  0  0  # atno 8010 bound_to 7997
  140.7123  143.3354  151.2475 H   0  0  0  0  0  0  0  0  0  0  0  0  # atno 10167 bound_to 10162
  157.5940  130.9081  149.9660 H   0  0  0  0  0  0  0  0  0  0  0  0  # atno 10718 bound_to 10713
  152.9985  135.6236  154.2379 H   0  0  0  0  0  0  0  0  0  0  0  0  # atno 10763 bound_to 10752
  154.2120  135.2799  155.2957 H   0  0  0  0  0  0  0  0  0  0  0  0  # atno 10764 bound_to 10752
  154.5599  135.5708  153.7056 H   0  0  0  0  0  0  0  0  0  0  0  0  # atno 10765 bound_to 10752
  141.1637  133.6919  156.7397 H   0  0  0  0  0  0  0  0  0  0  0  0  # atno 11005 bound_to 11000
  144.7901  140.6015  143.6547 LP  0  0  0  0  0  0  0  0  0  0  0  0  # atno 17320 bound_to 7965
  145.4829  139.1494  143.3752 LP  0  0  0  0  0  0  0  0  0  0  0  0  # atno 17321 bound_to 7965
  139.6847  143.9793  152.2828 LP  0  0  0  0  0  0  0  0  0  0  0  0  # atno 17342 bound_to 10162
  139.9435  144.6666  150.8243 LP  0  0  0  0  0  0  0  0  0  0  0  0  # atno 17343 bound_to 10162
  156.1000  130.3656  150.0236 LP  0  0  0  0  0  0  0  0  0  0  0  0  # atno 17370 bound_to 10713
  156.8353  130.9406  151.3635 LP  0  0  0  0  0  0  0  0  0  0  0  0  # atno 17371 bound_to 10713
  140.2683  134.8412  157.3824 LP  0  0  0  0  0  0  0  0  0  0  0  0  # atno 17394 bound_to 11000
  140.1545  134.4807  155.7937 LP  0  0  0  0  0  0  0  0  0  0  0  0  # atno 17395 bound_to 11000

$$$$
