AV-unprocessed.smi:2243|AV-procd|sdf|9070|dock7
  -GOLD-   2272012273D 1   1.00000     0.00000
 Structure written by MMmdl.
 33 34  0  0  0  0  0  0  0  0  2 V2000
  154.6088  141.5902  160.0805 C   0  0  0  0  0  0  0  0  0  0  0  0
  153.1663  141.3293  159.6141 C   0  0  2  0  0  0  0  0  0  0  0  0
  153.2282  140.7753  158.2598 N   0  0  0  0  0  0  0  0  0  0  0  0
  152.6054  139.6758  157.8071 C   0  0  0  0  0  0  0  0  0  0  0  0
  151.8758  139.0234  158.5571 O   0  0  0  0  0  0  0  0  0  0  0  0
  152.8622  139.4050  156.5076 N   0  5  0  0  0  0  0  0  0  0  0  0
  151.9210  138.8216  155.7481 C   0  0  0  0  0  0  0  0  0  0  0  0
  151.3073  137.6637  155.9993 N   0  0  0  0  0  0  0  0  0  0  0  0
  150.4281  137.4645  154.9460 C   0  0  0  0  0  0  0  0  0  0  0  0
  150.5554  138.5222  154.0875 C   0  0  0  0  0  0  0  0  0  0  0  0
  151.4965  139.3832  154.5806 O   0  0  0  0  0  0  0  0  0  0  0  0
  152.2716  142.5983  159.6490 C   0  0  0  0  0  0  0  0  0  0  0  0
  152.5388  143.5446  158.4605 C   0  0  0  0  0  0  0  0  0  0  0  0
  151.6931  144.8245  158.5610 C   0  0  0  0  0  0  0  0  0  0  0  0
  151.9512  145.4859  159.7931 O   0  0  0  0  0  0  0  0  0  0  0  0
  151.5962  144.6963  160.9215 C   0  0  0  0  0  0  0  0  0  0  0  0
  152.4379  143.4108  160.9512 C   0  0  0  0  0  0  0  0  0  0  0  0
  154.6504  141.8717  161.1322 H   0  0  0  0  0  0  0  0  0  0  0  0
  155.0765  142.3860  159.4997 H   0  0  0  0  0  0  0  0  0  0  0  0
  155.2219  140.6951  159.9694 H   0  0  0  0  0  0  0  0  0  0  0  0
  152.7381  140.5924  160.2956 H   0  0  0  0  0  0  0  0  0  0  0  0
  153.8081  141.2715  157.5992 H   0  0  0  0  0  0  0  0  0  0  0  0
  149.7898  136.5953  154.8914 H   0  0  0  0  0  0  0  0  0  0  0  0
  150.0877  138.7948  153.1534 H   0  0  0  0  0  0  0  0  0  0  0  0
  151.2303  142.2770  159.5916 H   0  0  0  0  0  0  0  0  0  0  0  0
  153.5961  143.8113  158.4320 H   0  0  0  0  0  0  0  0  0  0  0  0
  152.3141  143.0523  157.5149 H   0  0  0  0  0  0  0  0  0  0  0  0
  151.9404  145.5004  157.7424 H   0  0  0  0  0  0  0  0  0  0  0  0
  150.6297  144.5966  158.4734 H   0  0  0  0  0  0  0  0  0  0  0  0
  151.7712  145.2778  161.8266 H   0  0  0  0  0  0  0  0  0  0  0  0
  150.5308  144.4625  160.8954 H   0  0  0  0  0  0  0  0  0  0  0  0
  152.1427  142.8195  161.8180 H   0  0  0  0  0  0  0  0  0  0  0  0
  153.4882  143.6682  161.0939 H   0  0  0  0  0  0  0  0  0  0  0  0
  1  2  1  0  0  0  0
  1 18  1  0  0  0  0
  1 19  1  0  0  0  0
  1 20  1  0  0  0  0
  2  3  1  0  0  0  0
  2 12  1  0  0  0  0
  2 21  1  0  0  0  0
  3 22  1  0  0  0  0
  3  4  1  0  0  0  0
  4  6  1  0  0  0  0
  4  5  2  0  0  0  0
  6  7  1  0  0  0  0
  7 11  1  0  0  0  0
  7  8  2  0  0  0  0
  8  9  1  0  0  0  0
  9 23  1  0  0  0  0
  9 10  2  0  0  0  0
 10 24  1  0  0  0  0
 10 11  1  0  0  0  0
 12 17  1  0  0  0  0
 12 13  1  0  0  0  0
 12 25  1  0  0  0  0
 13 14  1  0  0  0  0
 13 26  1  0  0  0  0
 13 27  1  0  0  0  0
 14 15  1  0  0  0  0
 14 28  1  0  0  0  0
 14 29  1  0  0  0  0
 15 16  1  0  0  0  0
 16 17  1  0  0  0  0
 16 30  1  0  0  0  0
 16 31  1  0  0  0  0
 17 32  1  0  0  0  0
 17 33  1  0  0  0  0
M  CHG  1   6  -1
M  END
> <s_m_source_file>
AV-unprocessed.smi

> <i_m_source_file_index>
2243

> <i_lp_mmshare_version>
43012

> <i_f3d_flags>
0

> <s_epik_input>
W0NIMl0xW0NIMl1PW0NIMl1bQ0gyXVtDSF0xW0NASF0oW0NIM10pW05IXUMoPU8pW05IXWMybltjSF1bY0hdbzI=

> <s_epik_cmdline>
J2VwaWtfcHl0aG9uJywgJy1waCcsICc3LjAnLCAnLXRuJywgJzgnLCAnLW1hJywgJzIwMCcsICctbWV0YWxfYmluZGluZycsICctaW1hZScsICc8aW5maWxlLm1hZT4nLCAnLW9tYWUnLCAnPG91dGZpbGUubWFlPic=

> <r_lp_tautomer_probability>
0.107061

> <r_epik_Ionization_Penalty>
11.1403

> <r_epik_Ionization_Penalty_Charging>
7.81312

> <r_epik_Ionization_Penalty_Neutral>
3.32719

> <r_epik_State_Penalty>
5.94317

> <r_epik_Charging_Adjusted_Penalty>
13.7563

> <i_epik_Tot_Q>
-1

> <i_epik_Tot_abs_Q>
1

> <r_epik_Metal_State_Penalty>
1.86619

> <b_epik_Metal_Only>
1

> <s_lp_Force_Field>
OPLS_2005

> <r_lp_Energy>
6.48942

> <b_lp_Chiralities_Consistent>
1

> <s_lp_Variant>
AV-unprocessed.smi:2243-9

> <Gold.Version>
5.8.1

> <Gold.Id.Protein>
6NUR|6NUR_protein|mol2

> <Gold.PLP.Fitness>
44.8977

> <Gold.PLP.PLP>
-35.0671

> <Gold.PLP.part.hbond>
-2.0000

> <Gold.PLP.part.metal>
0.0000

> <Gold.PLP.part.buried>
-3.0217

> <Gold.PLP.part.nonpolar>
-30.7337

> <Gold.PLP.part.repulsive>
1.0123

> <Gold.PLP.ligand.clash>
0.0000

> <Gold.PLP.ligand.torsion>
1.1010

> <Gold.PLP.Chemscore.Hbond>
3.0000

> <Gold.PLP.Chemscore.CHOScore>
1.0000

> <Gold.PLP.Chemscore.Metal>
0.0000

> <Gold.Chemscore.Hbonds>
donor molecule, donor type, donor heavy atom, donor atom, acceptor molecule, acceptor atom, score
      P1  H  7989  7998       L1    11  1.00
      P1  H  7997  8010       L1     6  0.90
      L1  C    10    24       P1  7957  1.00

> <Gold.PLP.Chemscore.Internal.Correction>
0.0326

> <Gold.Rescore>
     Score         DG    S(hbond)    S(metal)    S(lipo)     H(rot)  DE(clash)    DE(int)     intcor
     12.57     -15.32       0.82        0.00      89.31       1.31       0.17       2.57       ----

> <Gold.Chemscore.Fitness>
12.5736

> <Gold.Chemscore.DG>
-15.3202

> <Gold.Chemscore.ZeroCoef>
-5.4800

> <Gold.Chemscore.Hbond>
0.8189

> <Gold.Chemscore.Metal>
0.0000

> <Gold.Chemscore.Lipo>
89.3118

> <Gold.Chemscore.Internal_Hbond>
0.0000

> <Gold.Chemscore.DEClash>
0.1739

> <Gold.Chemscore.DEInternal>
2.5727

> <Gold.Chemscore.Rot>
1.3063

> <Gold.Chemscore.Internal.Correction>
   9.000000E+99

> <Gold.Chemscore.Hbonds>
donor molecule, donor type, donor heavy atom, donor atom, acceptor molecule, acceptor atom, score
      P1  H  7989  7998       L1    11  0.74
      P1  H  7997  8010       L1     6  0.02

> <Gold.Chemscore.Hbond.Weighted>
-2.7350

> <Gold.Chemscore.Metal.Weighted>
-0.0000

> <Gold.Chemscore.Lipo.Weighted>
-10.4495

> <Gold.Chemscore.Internal_Hbond.Weighted>
0.0000

> <Gold.Chemscore.DEClash.Weighted>
0.1739

> <Gold.Chemscore.DEInternal.Weighted>
2.5727

> <Gold.Chemscore.Rot.Weighted>
3.3443

> <Gold.Chemscore.Internal.Correction.Weighted>
   9.000000E+99

> <Gold.Protein.RotatedTorsions>
[ 6907 6896 6895 6894 ] final -162.88 input  -60.11 | X-H torsion
[ 7974 7965 7964 7962 ] final   79.08 input  175.53 | X-H torsion
[ 8008 7997 7996 7995 ] final   53.43 input   59.86 | X-H torsion
[ 10167 10162 10161 10158 ] final   25.40 input  -65.29 | X-H torsion
[ 10718 10713 10712 10709 ] final -144.81 input   66.30 | X-H torsion
[ 10763 10752 10751 10750 ] final  115.12 input  -60.55 | X-H torsion
[ 11005 11000 10999 10996 ] final  -72.38 input  -57.11 | X-H torsion

> <Gold.Protein.ActiveResidues>
 VAL166  LYS551  ARG553  GLY616  TRP617  ASP618  TYR619  PRO620  LYS621  CYS622 
 ASP623  PHE694  ASN695  SER759  ASP760  ASP761  ALA762  ILE779  LEU786  VAL792 
 PHE793  MET794  SER795  GLU796  ALA797  LYS798  CYS799  TRP800  GLU811  SER814 

> <Gold.Protein.RotatedAtoms>
  151.3872  133.3801  159.2716 H   0  0  0  0  0  0  0  0  0  0  0  0  # atno 6907 bound_to 6896
  150.9532  134.8931  159.7696 H   0  0  0  0  0  0  0  0  0  0  0  0  # atno 6908 bound_to 6896
  152.5120  134.3828  159.9409 H   0  0  0  0  0  0  0  0  0  0  0  0  # atno 6909 bound_to 6896
  145.6688  139.2491  143.1880 H   0  0  0  0  0  0  0  0  0  0  0  0  # atno 7974 bound_to 7965
  155.4682  140.3464  155.4322 H   0  0  0  0  0  0  0  0  0  0  0  0  # atno 8008 bound_to 7997
  156.1117  140.1463  156.9358 H   0  0  0  0  0  0  0  0  0  0  0  0  # atno 8009 bound_to 7997
  154.4761  140.0884  156.7244 H   0  0  0  0  0  0  0  0  0  0  0  0  # atno 8010 bound_to 7997
  140.5109  144.0162  150.6372 H   0  0  0  0  0  0  0  0  0  0  0  0  # atno 10167 bound_to 10162
  156.3747  130.7806  151.1991 H   0  0  0  0  0  0  0  0  0  0  0  0  # atno 10718 bound_to 10713
  153.5174  135.3605  155.2615 H   0  0  0  0  0  0  0  0  0  0  0  0  # atno 10763 bound_to 10752
  154.8737  135.4037  154.3299 H   0  0  0  0  0  0  0  0  0  0  0  0  # atno 10764 bound_to 10752
  153.3963  135.7073  153.6525 H   0  0  0  0  0  0  0  0  0  0  0  0  # atno 10765 bound_to 10752
  141.1607  133.6845  156.7051 H   0  0  0  0  0  0  0  0  0  0  0  0  # atno 11005 bound_to 11000
  146.1063  140.7483  142.9525 LP  0  0  0  0  0  0  0  0  0  0  0  0  # atno 17320 bound_to 7965
  144.7064  140.3867  143.7115 LP  0  0  0  0  0  0  0  0  0  0  0  0  # atno 17321 bound_to 7965
  140.3484  143.2978  152.0513 LP  0  0  0  0  0  0  0  0  0  0  0  0  # atno 17342 bound_to 10162
  139.4896  144.6392  151.6913 LP  0  0  0  0  0  0  0  0  0  0  0  0  # atno 17343 bound_to 10162
  157.7487  131.0362  150.4397 LP  0  0  0  0  0  0  0  0  0  0  0  0  # atno 17370 bound_to 10713
  156.4631  130.4036  149.6564 LP  0  0  0  0  0  0  0  0  0  0  0  0  # atno 17371 bound_to 10713
  140.2930  134.8225  157.4032 LP  0  0  0  0  0  0  0  0  0  0  0  0  # atno 17394 bound_to 11000
  140.1330  134.5070  155.8090 LP  0  0  0  0  0  0  0  0  0  0  0  0  # atno 17395 bound_to 11000

$$$$
