AV-unprocessed.smi:322|AV-procd|sdf|2335|dock1
  -GOLD-   2262022243D 1   1.00000     0.00000
 Structure written by MMmdl.
 43 45  0  0  0  0  0  0  0  0  1 V2000
  150.3751  140.0993  154.1093 O   0  0  0  0  0  0  0  0  0  0  0  0
  149.9969  139.7884  155.4352 C   0  0  0  0  0  0  0  0  0  0  0  0
  150.6521  140.6525  156.4755 C   0  0  0  0  0  0  0  0  0  0  0  0
  150.6496  141.9865  156.4204 N   0  0  0  0  0  0  0  0  0  0  0  0
  151.3641  142.3419  157.5471 C   0  0  0  0  0  0  0  0  0  0  0  0
  151.7116  143.6160  158.0498 C   0  0  0  0  0  0  0  0  0  0  0  0
  152.4609  143.7341  159.2387 C   0  0  0  0  0  0  0  0  0  0  0  0
  152.8714  142.5825  159.9408 C   0  0  0  0  0  0  0  0  0  0  0  0
  152.5354  141.3034  159.4572 C   0  0  0  0  0  0  0  0  0  0  0  0
  151.7885  141.1908  158.2690 C   0  0  0  0  0  0  0  0  0  0  0  0
  151.3031  140.1114  157.5363 N   0  0  0  0  0  0  0  0  0  0  0  0
  151.4779  138.7001  157.8553 C   0  0  0  0  0  0  0  0  0  0  0  0
  150.6367  138.2507  159.0673 C   0  0  2  0  0  0  0  0  0  0  0  0
  151.3142  137.2060  159.7377 O   0  0  0  0  0  0  0  0  0  0  0  0
  149.2525  137.7369  158.6412 C   0  0  0  0  0  0  0  0  0  0  0  0
  148.3995  137.7104  159.7769 O   0  0  0  0  0  0  0  0  0  0  0  0
  148.4031  136.4703  160.4705 C   0  0  0  0  0  0  0  0  0  0  0  0
  147.0874  136.1643  161.1663 C   0  0  0  0  0  0  0  0  0  0  0  0
  146.0063  137.0659  161.0688 C   0  0  0  0  0  0  0  0  0  0  0  0
  144.7821  136.7749  161.7015 C   0  0  0  0  0  0  0  0  0  0  0  0
  144.6315  135.5780  162.4289 C   0  0  0  0  0  0  0  0  0  0  0  0
  143.1311  135.2199  163.2018 Cl  0  0  0  0  0  0  0  0  0  0  0  0
  145.7062  134.6721  162.5220 C   0  0  0  0  0  0  0  0  0  0  0  0
  146.9307  134.9634  161.8897 C   0  0  0  0  0  0  0  0  0  0  0  0
  150.1649  139.3630  153.5560 H   0  0  0  0  0  0  0  0  0  0  0  0
  148.9143  139.8864  155.5100 H   0  0  0  0  0  0  0  0  0  0  0  0
  150.2460  138.7456  155.6331 H   0  0  0  0  0  0  0  0  0  0  0  0
  151.4018  144.5039  157.5187 H   0  0  0  0  0  0  0  0  0  0  0  0
  152.7220  144.7128  159.6138 H   0  0  0  0  0  0  0  0  0  0  0  0
  153.4444  142.6816  160.8512 H   0  0  0  0  0  0  0  0  0  0  0  0
  152.8464  140.4197  159.9946 H   0  0  0  0  0  0  0  0  0  0  0  0
  151.2207  138.1101  156.9754 H   0  0  0  0  0  0  0  0  0  0  0  0
  152.5365  138.5136  158.0404 H   0  0  0  0  0  0  0  0  0  0  0  0
  150.5169  139.0888  159.7542 H   0  0  0  0  0  0  0  0  0  0  0  0
  151.5259  137.4981  160.6112 H   0  0  0  0  0  0  0  0  0  0  0  0
  148.8180  138.4190  157.9088 H   0  0  0  0  0  0  0  0  0  0  0  0
  149.3293  136.7589  158.1631 H   0  0  0  0  0  0  0  0  0  0  0  0
  148.5851  135.6802  159.7418 H   0  0  0  0  0  0  0  0  0  0  0  0
  149.2331  136.4352  161.1781 H   0  0  0  0  0  0  0  0  0  0  0  0
  146.1150  137.9841  160.5101 H   0  0  0  0  0  0  0  0  0  0  0  0
  143.9588  137.4700  161.6263 H   0  0  0  0  0  0  0  0  0  0  0  0
  145.5924  133.7523  163.0766 H   0  0  0  0  0  0  0  0  0  0  0  0
  147.7486  134.2616  161.9634 H   0  0  0  0  0  0  0  0  0  0  0  0
  1  2  1  0  0  0  0
  1 25  1  0  0  0  0
  2  3  1  0  0  0  0
  2 26  1  0  0  0  0
  2 27  1  0  0  0  0
  3 11  1  0  0  0  0
  3  4  2  0  0  0  0
  4  5  1  0  0  0  0
  5 10  2  0  0  0  0
  5  6  1  0  0  0  0
  6  7  2  0  0  0  0
  6 28  1  0  0  0  0
  7  8  1  0  0  0  0
  7 29  1  0  0  0  0
  8  9  2  0  0  0  0
  8 30  1  0  0  0  0
  9 10  1  0  0  0  0
  9 31  1  0  0  0  0
 10 11  1  0  0  0  0
 11 12  1  0  0  0  0
 12 13  1  0  0  0  0
 12 32  1  0  0  0  0
 12 33  1  0  0  0  0
 13 14  1  0  0  0  0
 13 15  1  0  0  0  0
 13 34  1  0  0  0  0
 14 35  1  0  0  0  0
 15 16  1  0  0  0  0
 15 36  1  0  0  0  0
 15 37  1  0  0  0  0
 16 17  1  0  0  0  0
 17 18  1  0  0  0  0
 17 38  1  0  0  0  0
 17 39  1  0  0  0  0
 18 24  1  0  0  0  0
 18 19  2  0  0  0  0
 19 20  1  0  0  0  0
 19 40  1  0  0  0  0
 20 21  2  0  0  0  0
 20 41  1  0  0  0  0
 21 22  1  0  0  0  0
 21 23  1  0  0  0  0
 23 24  2  0  0  0  0
 23 42  1  0  0  0  0
 24 43  1  0  0  0  0
M  END
> <s_m_source_file>
AV-unprocessed.smi

> <i_m_source_file_index>
322

> <i_lp_mmshare_version>
43012

> <i_f3d_flags>
0

> <s_epik_input>
W2NIXTFbY0hdW2NIXVtjSF1jKGMxMiluKGMobjIpW0NIMl1bT0hdKVtDSDJdW0NASF0oW09IXSlbQ0gyXU9bQ0gyXWMzW2NIXVtjSF1jKENsKVtjSF1bY0hdMw==

> <s_epik_cmdline>
J2VwaWtfcHl0aG9uJywgJy1waCcsICc3LjAnLCAnLXRuJywgJzgnLCAnLW1hJywgJzIwMCcsICctbWV0YWxfYmluZGluZycsICctaW1hZScsICc8aW5maWxlLm1hZT4nLCAnLW9tYWUnLCAnPG91dGZpbGUubWFlPic=

> <r_epik_Ionization_Penalty>
0.0649918

> <r_epik_Ionization_Penalty_Charging>
0

> <r_epik_Ionization_Penalty_Neutral>
0.0649918

> <r_epik_State_Penalty>
0.0565791

> <r_epik_Charging_Adjusted_Penalty>
0.0565791

> <i_epik_Tot_Q>
0

> <i_epik_Tot_abs_Q>
0

> <r_epik_Metal_State_Penalty>
5.93658e-05

> <b_epik_Metal_Only>
0

> <s_lp_Force_Field>
OPLS_2005

> <r_lp_Energy>
16.0387

> <b_lp_Chiralities_Consistent>
1

> <s_lp_Variant>
AV-unprocessed.smi:322-1

> <Gold.Version>
5.8.1

> <Gold.Id.Protein>
6NUR|6NUR_protein|mol2

> <Gold.PLP.Fitness>
55.1054

> <Gold.PLP.PLP>
-50.9510

> <Gold.PLP.part.hbond>
-4.8802

> <Gold.PLP.part.metal>
0.0000

> <Gold.PLP.part.buried>
-7.7668

> <Gold.PLP.part.nonpolar>
-40.2364

> <Gold.PLP.part.repulsive>
0.0947

> <Gold.PLP.ligand.clash>
0.0000

> <Gold.PLP.ligand.torsion>
1.1028

> <Gold.PLP.Chemscore.Hbond>
2.0355

> <Gold.PLP.Chemscore.CHOScore>
0.0000

> <Gold.PLP.Chemscore.Metal>
0.0000

> <Gold.Chemscore.Hbonds>
donor molecule, donor type, donor heavy atom, donor atom, acceptor molecule, acceptor atom, score
      P1  H  6896  6908       L1    14  0.94
      P1  H  6934  6947       L1    16  0.31
      P1  H  7989  7998       L1     1  1.00

> <Gold.PLP.Chemscore.Internal.Correction>
0.2536

> <Gold.Rescore>
     Score         DG    S(hbond)    S(metal)    S(lipo)     H(rot)  DE(clash)    DE(int)     intcor
     17.87     -19.14       1.84        0.00     132.77       3.13       0.03       1.24       ----

> <Gold.Chemscore.Fitness>
17.8739

> <Gold.Chemscore.DG>
-19.1410

> <Gold.Chemscore.ZeroCoef>
-5.4800

> <Gold.Chemscore.Hbond>
1.8410

> <Gold.Chemscore.Metal>
0.0000

> <Gold.Chemscore.Lipo>
132.7710

> <Gold.Chemscore.Internal_Hbond>
0.0000

> <Gold.Chemscore.DEClash>
0.0308

> <Gold.Chemscore.DEInternal>
1.2362

> <Gold.Chemscore.Rot>
3.1337

> <Gold.Chemscore.Internal.Correction>
   9.000000E+99

> <Gold.Chemscore.Hbonds>
donor molecule, donor type, donor heavy atom, donor atom, acceptor molecule, acceptor atom, score
      P1  H  6896  6908       L1    14  0.27
      P1  H  6934  6947       L1    16  0.18
      P1  H  7989  7998       L1     1  0.66

> <Gold.Chemscore.Hbond.Weighted>
-6.1491

> <Gold.Chemscore.Metal.Weighted>
-0.0000

> <Gold.Chemscore.Lipo.Weighted>
-15.5342

> <Gold.Chemscore.Internal_Hbond.Weighted>
0.0000

> <Gold.Chemscore.DEClash.Weighted>
0.0308

> <Gold.Chemscore.DEInternal.Weighted>
1.2362

> <Gold.Chemscore.Rot.Weighted>
8.0224

> <Gold.Chemscore.Internal.Correction.Weighted>
   9.000000E+99

> <Gold.Protein.RotatedTorsions>
[ 6907 6896 6895 6894 ] final -127.31 input  -60.11 | X-H torsion
[ 7974 7965 7964 7962 ] final -131.41 input  175.53 | X-H torsion
[ 8008 7997 7996 7995 ] final   11.03 input   59.86 | X-H torsion
[ 10167 10162 10161 10158 ] final   89.82 input  -65.29 | X-H torsion
[ 10718 10713 10712 10709 ] final  -77.10 input   66.30 | X-H torsion
[ 10763 10752 10751 10750 ] final  -21.84 input  -60.55 | X-H torsion
[ 11005 11000 10999 10996 ] final   22.70 input  -57.11 | X-H torsion

> <Gold.Protein.ActiveResidues>
 VAL166  LYS551  ARG553  GLY616  TRP617  ASP618  TYR619  PRO620  LYS621  CYS622 
 ASP623  PHE694  ASN695  SER759  ASP760  ASP761  ALA762  ILE779  LEU786  VAL792 
 PHE793  MET794  SER795  GLU796  ALA797  LYS798  CYS799  TRP800  GLU811  SER814 

> <Gold.Protein.RotatedAtoms>
  150.9060  133.7058  159.2866 H   0  0  0  0  0  0  0  0  0  0  0  0  # atno 6907 bound_to 6896
  151.4560  135.1033  159.9721 H   0  0  0  0  0  0  0  0  0  0  0  0  # atno 6908 bound_to 6896
  152.4903  133.8434  159.7220 H   0  0  0  0  0  0  0  0  0  0  0  0  # atno 6909 bound_to 6896
  144.9382  140.7208  143.4863 H   0  0  0  0  0  0  0  0  0  0  0  0  # atno 7974 bound_to 7965
  154.8014  140.2852  155.5918 H   0  0  0  0  0  0  0  0  0  0  0  0  # atno 8008 bound_to 7997
  156.2977  140.2585  156.2813 H   0  0  0  0  0  0  0  0  0  0  0  0  # atno 8009 bound_to 7997
  154.9553  140.0378  157.2153 H   0  0  0  0  0  0  0  0  0  0  0  0  # atno 8010 bound_to 7997
  139.8534  144.6581  150.9142 H   0  0  0  0  0  0  0  0  0  0  0  0  # atno 10167 bound_to 10162
  156.0155  130.4483  150.3294 H   0  0  0  0  0  0  0  0  0  0  0  0  # atno 10718 bound_to 10713
  153.6425  135.6984  153.5236 H   0  0  0  0  0  0  0  0  0  0  0  0  # atno 10763 bound_to 10752
  153.2771  135.4197  155.1043 H   0  0  0  0  0  0  0  0  0  0  0  0  # atno 10764 bound_to 10752
  154.8496  135.3593  154.5969 H   0  0  0  0  0  0  0  0  0  0  0  0  # atno 10765 bound_to 10752
  140.3777  134.1954  155.7664 H   0  0  0  0  0  0  0  0  0  0  0  0  # atno 11005 bound_to 11000
  145.3033  139.1843  143.4678 LP  0  0  0  0  0  0  0  0  0  0  0  0  # atno 17320 bound_to 7965
  146.3275  140.3027  142.8622 LP  0  0  0  0  0  0  0  0  0  0  0  0  # atno 17321 bound_to 7965
  140.7784  143.3807  151.1482 LP  0  0  0  0  0  0  0  0  0  0  0  0  # atno 17342 bound_to 10162
  139.7443  143.8876  152.3059 LP  0  0  0  0  0  0  0  0  0  0  0  0  # atno 17343 bound_to 10162
  157.1393  131.0292  151.2935 LP  0  0  0  0  0  0  0  0  0  0  0  0  # atno 17370 bound_to 10713
  157.4485  130.7585  149.7131 LP  0  0  0  0  0  0  0  0  0  0  0  0  # atno 17371 bound_to 10713
  141.1934  133.8152  157.0801 LP  0  0  0  0  0  0  0  0  0  0  0  0  # atno 17394 bound_to 11000
  140.0502  134.9809  157.1123 LP  0  0  0  0  0  0  0  0  0  0  0  0  # atno 17395 bound_to 11000

$$$$
