AV-unprocessed.smi:2667|AV-procd|sdf|10334|dock4
  -GOLD-   2272014353D 1   1.00000     0.00000
 Structure written by MMmdl.
 44 46  0  0  0  0  0  0  0  0  1 V2000
  152.0783  144.7983  160.2002 C   0  0  0  0  0  0  0  0  0  0  0  0
  152.0792  143.3848  159.5965 C   0  0  0  0  0  0  0  0  0  0  0  0
  151.9058  143.3580  158.0700 C   0  0  0  0  0  0  0  0  0  0  0  0
  151.9884  144.4053  157.4266 O   0  0  0  0  0  0  0  0  0  0  0  0
  151.6419  142.0353  157.4324 C   0  0  0  0  0  0  0  0  0  0  0  0
  151.1130  141.9258  156.1251 C   0  0  0  0  0  0  0  0  0  0  0  0
  150.8712  140.6611  155.5559 C   0  0  0  0  0  0  0  0  0  0  0  0
  151.1491  139.4793  156.2703 C   0  0  0  0  0  0  0  0  0  0  0  0
  150.8766  138.2853  155.6384 O   0  0  0  0  0  0  0  0  0  0  0  0
  150.5136  137.1656  156.4368 C   0  0  0  0  0  0  0  0  0  0  0  0
  150.4684  135.8960  155.5699 C   0  0  2  0  0  0  0  0  0  0  0  0
  151.1398  136.1520  154.3496 O   0  0  0  0  0  0  0  0  0  0  0  0
  149.0482  135.2902  155.4104 C   0  0  0  0  0  0  0  0  0  0  0  0
  149.0093  134.0299  154.6867 N   0  0  0  0  0  0  0  0  0  0  0  0
  148.4147  133.7936  153.5011 C   0  0  0  0  0  0  0  0  0  0  0  0
  148.4888  132.5573  153.0171 N   0  0  0  0  0  0  0  0  0  0  0  0
  149.2225  131.9164  154.0009 C   0  0  0  0  0  0  0  0  0  0  0  0
  149.6508  130.5728  154.0962 C   0  0  0  0  0  0  0  0  0  0  0  0
  150.4015  130.1393  155.2090 C   0  0  0  0  0  0  0  0  0  0  0  0
  150.7382  131.0410  156.2394 C   0  0  0  0  0  0  0  0  0  0  0  0
  150.3240  132.3844  156.1651 C   0  0  0  0  0  0  0  0  0  0  0  0
  149.5696  132.8120  155.0571 C   0  0  0  0  0  0  0  0  0  0  0  0
  151.6825  139.5862  157.5779 C   0  0  0  0  0  0  0  0  0  0  0  0
  151.9243  140.8505  158.1492 C   0  0  0  0  0  0  0  0  0  0  0  0
  152.2021  144.7527  161.2822 H   0  0  0  0  0  0  0  0  0  0  0  0
  151.1403  145.3171  159.9987 H   0  0  0  0  0  0  0  0  0  0  0  0
  152.8934  145.4028  159.8013 H   0  0  0  0  0  0  0  0  0  0  0  0
  153.0165  142.8881  159.8485 H   0  0  0  0  0  0  0  0  0  0  0  0
  151.2760  142.8018  160.0477 H   0  0  0  0  0  0  0  0  0  0  0  0
  150.8823  142.8006  155.5358 H   0  0  0  0  0  0  0  0  0  0  0  0
  150.4671  140.5997  154.5561 H   0  0  0  0  0  0  0  0  0  0  0  0
  151.2132  137.0349  157.2643 H   0  0  0  0  0  0  0  0  0  0  0  0
  149.5230  137.3338  156.8620 H   0  0  0  0  0  0  0  0  0  0  0  0
  151.0829  135.1480  156.0727 H   0  0  0  0  0  0  0  0  0  0  0  0
  150.6801  136.8386  153.8916 H   0  0  0  0  0  0  0  0  0  0  0  0
  148.6136  135.1210  156.3964 H   0  0  0  0  0  0  0  0  0  0  0  0
  148.3756  135.9915  154.9153 H   0  0  0  0  0  0  0  0  0  0  0  0
  147.8920  134.5732  152.9662 H   0  0  0  0  0  0  0  0  0  0  0  0
  149.4007  129.8743  153.3116 H   0  0  0  0  0  0  0  0  0  0  0  0
  150.7220  129.1098  155.2714 H   0  0  0  0  0  0  0  0  0  0  0  0
  151.3151  130.7012  157.0869 H   0  0  0  0  0  0  0  0  0  0  0  0
  150.5842  133.0780  156.9496 H   0  0  0  0  0  0  0  0  0  0  0  0
  151.9144  138.7121  158.1669 H   0  0  0  0  0  0  0  0  0  0  0  0
  152.3303  140.8973  159.1497 H   0  0  0  0  0  0  0  0  0  0  0  0
  1  2  1  0  0  0  0
  1 25  1  0  0  0  0
  1 26  1  0  0  0  0
  1 27  1  0  0  0  0
  2  3  1  0  0  0  0
  2 28  1  0  0  0  0
  2 29  1  0  0  0  0
  3  4  2  0  0  0  0
  3  5  1  0  0  0  0
  5 24  1  0  0  0  0
  5  6  2  0  0  0  0
  6  7  1  0  0  0  0
  6 30  1  0  0  0  0
  7  8  2  0  0  0  0
  7 31  1  0  0  0  0
  8  9  1  0  0  0  0
  8 23  1  0  0  0  0
  9 10  1  0  0  0  0
 10 11  1  0  0  0  0
 10 32  1  0  0  0  0
 10 33  1  0  0  0  0
 11 12  1  0  0  0  0
 11 13  1  0  0  0  0
 11 34  1  0  0  0  0
 12 35  1  0  0  0  0
 13 14  1  0  0  0  0
 13 36  1  0  0  0  0
 13 37  1  0  0  0  0
 14 22  1  0  0  0  0
 14 15  1  0  0  0  0
 15 16  2  0  0  0  0
 15 38  1  0  0  0  0
 16 17  1  0  0  0  0
 17 22  2  0  0  0  0
 17 18  1  0  0  0  0
 18 19  2  0  0  0  0
 18 39  1  0  0  0  0
 19 20  1  0  0  0  0
 19 40  1  0  0  0  0
 20 21  2  0  0  0  0
 20 41  1  0  0  0  0
 21 22  1  0  0  0  0
 21 42  1  0  0  0  0
 23 24  2  0  0  0  0
 23 43  1  0  0  0  0
 24 44  1  0  0  0  0
M  END
> <s_m_source_file>
AV-unprocessed.smi

> <i_m_source_file_index>
2667

> <i_lp_mmshare_version>
43012

> <i_f3d_flags>
0

> <s_epik_input>
W0NIM11bQ0gyXUMoPU8pYzFbY0hdW2NIXWMoW2NIXVtjSF0xKU9bQ0gyXVtDQEhdKFtPSF0pW0NIMl1uKFtjSF1uMiljKGMyMylbY0hdW2NIXVtjSF1bY0hdMw==

> <s_epik_cmdline>
J2VwaWtfcHl0aG9uJywgJy1waCcsICc3LjAnLCAnLXRuJywgJzgnLCAnLW1hJywgJzIwMCcsICctbWV0YWxfYmluZGluZycsICctaW1hZScsICc8aW5maWxlLm1hZT4nLCAnLW9tYWUnLCAnPG91dGZpbGUubWFlPic=

> <r_lp_tautomer_probability>
0.9999

> <r_epik_Ionization_Penalty>
0.0583018

> <r_epik_Ionization_Penalty_Charging>
0

> <r_epik_Ionization_Penalty_Neutral>
0.0583018

> <r_epik_State_Penalty>
0.0504087

> <r_epik_Charging_Adjusted_Penalty>
0.0504087

> <i_epik_Tot_Q>
0

> <i_epik_Tot_abs_Q>
0

> <r_epik_Metal_State_Penalty>
5.26129e-05

> <b_epik_Metal_Only>
0

> <s_lp_Force_Field>
OPLS_2005

> <r_lp_Energy>
26.5089

> <b_lp_Chiralities_Consistent>
1

> <s_lp_Variant>
AV-unprocessed.smi:2667-1

> <Gold.Version>
5.8.1

> <Gold.Id.Protein>
6NUR|6NUR_protein|mol2

> <Gold.PLP.Fitness>
48.7380

> <Gold.PLP.PLP>
-45.8845

> <Gold.PLP.part.hbond>
-2.2336

> <Gold.PLP.part.metal>
0.0000

> <Gold.PLP.part.buried>
-5.8429

> <Gold.PLP.part.nonpolar>
-37.5849

> <Gold.PLP.part.repulsive>
0.3223

> <Gold.PLP.ligand.clash>
0.0000

> <Gold.PLP.ligand.torsion>
1.3528

> <Gold.PLP.Chemscore.Hbond>
1.0000

> <Gold.PLP.Chemscore.CHOScore>
0.7947

> <Gold.PLP.Chemscore.Metal>
0.0000

> <Gold.Chemscore.Hbonds>
donor molecule, donor type, donor heavy atom, donor atom, acceptor molecule, acceptor atom, score
      P1  H 10752 10765       L1    12  1.00
      L1  C    15    38       P1  7948  0.85

> <Gold.PLP.Chemscore.Internal.Correction>
0.1752

> <Gold.Rescore>
     Score         DG    S(hbond)    S(metal)    S(lipo)     H(rot)  DE(clash)    DE(int)     intcor
     13.40     -14.78       0.99        0.00     105.72       2.49       0.06       1.32       ----

> <Gold.Chemscore.Fitness>
13.4003

> <Gold.Chemscore.DG>
-14.7797

> <Gold.Chemscore.ZeroCoef>
-5.4800

> <Gold.Chemscore.Hbond>
0.9921

> <Gold.Chemscore.Metal>
0.0000

> <Gold.Chemscore.Lipo>
105.7157

> <Gold.Chemscore.Internal_Hbond>
0.0000

> <Gold.Chemscore.DEClash>
0.0622

> <Gold.Chemscore.DEInternal>
1.3173

> <Gold.Chemscore.Rot>
2.4932

> <Gold.Chemscore.Internal.Correction>
   9.000000E+99

> <Gold.Chemscore.Hbonds>
donor molecule, donor type, donor heavy atom, donor atom, acceptor molecule, acceptor atom, score
      P1  H 10752 10765       L1    12  0.65

> <Gold.Chemscore.Hbond.Weighted>
-3.3136

> <Gold.Chemscore.Metal.Weighted>
-0.0000

> <Gold.Chemscore.Lipo.Weighted>
-12.3687

> <Gold.Chemscore.Internal_Hbond.Weighted>
0.0000

> <Gold.Chemscore.DEClash.Weighted>
0.0622

> <Gold.Chemscore.DEInternal.Weighted>
1.3173

> <Gold.Chemscore.Rot.Weighted>
6.3826

> <Gold.Chemscore.Internal.Correction.Weighted>
   9.000000E+99

> <Gold.Protein.RotatedTorsions>
[ 6907 6896 6895 6894 ] final  157.85 input  -60.11 | X-H torsion
[ 7974 7965 7964 7962 ] final  -19.38 input  175.53 | X-H torsion
[ 8008 7997 7996 7995 ] final   -8.46 input   59.86 | X-H torsion
[ 10167 10162 10161 10158 ] final  -69.72 input  -65.29 | X-H torsion
[ 10718 10713 10712 10709 ] final    7.78 input   66.30 | X-H torsion
[ 10763 10752 10751 10750 ] final  178.19 input  -60.55 | X-H torsion
[ 11005 11000 10999 10996 ] final   18.82 input  -57.11 | X-H torsion

> <Gold.Protein.ActiveResidues>
 VAL166  LYS551  ARG553  GLY616  TRP617  ASP618  TYR619  PRO620  LYS621  CYS622 
 ASP623  PHE694  ASN695  SER759  ASP760  ASP761  ALA762  ILE779  LEU786  VAL792 
 PHE793  MET794  SER795  GLU796  ALA797  LYS798  CYS799  TRP800  GLU811  SER814 

> <Gold.Protein.RotatedAtoms>
  152.0091  133.3854  159.4212 H   0  0  0  0  0  0  0  0  0  0  0  0  # atno 6907 bound_to 6896
  150.6901  134.3750  159.5018 H   0  0  0  0  0  0  0  0  0  0  0  0  # atno 6908 bound_to 6896
  152.1508  134.8989  160.0599 H   0  0  0  0  0  0  0  0  0  0  0  0  # atno 6909 bound_to 6896
  146.1844  140.4054  142.8482 H   0  0  0  0  0  0  0  0  0  0  0  0  # atno 7974 bound_to 7965
  154.5739  140.2380  155.8151 H   0  0  0  0  0  0  0  0  0  0  0  0  # atno 8008 bound_to 7997
  156.2128  140.3021  155.9728 H   0  0  0  0  0  0  0  0  0  0  0  0  # atno 8009 bound_to 7997
  155.2662  140.0416  157.2993 H   0  0  0  0  0  0  0  0  0  0  0  0  # atno 8010 bound_to 7997
  140.5409  143.2315  151.7091 H   0  0  0  0  0  0  0  0  0  0  0  0  # atno 10167 bound_to 10162
  156.9420  130.5865  149.5653 H   0  0  0  0  0  0  0  0  0  0  0  0  # atno 10718 bound_to 10713
  154.5044  135.2785  155.1394 H   0  0  0  0  0  0  0  0  0  0  0  0  # atno 10763 bound_to 10752
  154.3015  135.6247  153.5430 H   0  0  0  0  0  0  0  0  0  0  0  0  # atno 10764 bound_to 10752
  152.9908  135.5698  154.5494 H   0  0  0  0  0  0  0  0  0  0  0  0  # atno 10765 bound_to 10752
  140.4205  134.1523  155.7672 H   0  0  0  0  0  0  0  0  0  0  0  0  # atno 11005 bound_to 11000
  144.8371  140.6799  143.6253 LP  0  0  0  0  0  0  0  0  0  0  0  0  # atno 17320 bound_to 7965
  145.3982  139.1603  143.4192 LP  0  0  0  0  0  0  0  0  0  0  0  0  # atno 17321 bound_to 7965
  139.4988  144.3970  152.0220 LP  0  0  0  0  0  0  0  0  0  0  0  0  # atno 17342 bound_to 10162
  140.3079  144.3571  150.6042 LP  0  0  0  0  0  0  0  0  0  0  0  0  # atno 17343 bound_to 10162
  156.0400  130.5484  150.8748 LP  0  0  0  0  0  0  0  0  0  0  0  0  # atno 17370 bound_to 10713
  157.5779  131.0946  150.9317 LP  0  0  0  0  0  0  0  0  0  0  0  0  # atno 17371 bound_to 10713
  141.1786  133.8462  157.1338 LP  0  0  0  0  0  0  0  0  0  0  0  0  # atno 17394 bound_to 11000
  140.0203  134.9949  157.0578 LP  0  0  0  0  0  0  0  0  0  0  0  0  # atno 17395 bound_to 11000

$$$$
