AV-unprocessed.smi:2135|AV-procd|sdf|8701|dock10
  -GOLD-   2272011463D 1   1.00000     0.00000
 Structure written by MMmdl.
 43 44  0  0  0  0  0  0  0  0  2 V2000
  150.7200  140.3985  157.2876 C   0  0  0  0  0  0  0  0  0  0  0  0
  150.3083  139.3236  155.8528 S   0  0  0  0  0  0  0  0  0  0  0  0
  151.0904  139.7850  154.6955 O   0  0  0  0  0  0  0  0  0  0  0  0
  150.4075  137.9220  156.2880 O   0  0  0  0  0  0  0  0  0  0  0  0
  148.6315  139.6621  155.5323 N   0  0  0  0  0  0  0  0  0  0  0  0
  148.1294  141.0490  155.6116 C   0  0  0  0  0  0  0  0  0  0  0  0
  147.9613  141.6730  154.2150 C   0  0  0  0  0  0  0  0  0  0  0  0
  147.0946  140.7880  153.3118 C   0  0  0  0  0  0  0  0  0  0  0  0
  147.7044  139.3772  153.2266 C   0  0  2  0  0  0  0  0  0  0  0  0
  146.8573  138.4573  152.3374 C   0  0  0  0  0  0  0  0  0  0  0  0
  146.7817  138.6605  151.1251 O   0  0  0  0  0  0  0  0  0  0  0  0
  146.2190  137.4498  152.9530 N   0  0  0  0  0  0  0  0  0  0  0  0
  145.3573  136.4785  152.2905 C   0  0  0  0  0  0  0  0  0  0  0  0
  145.8440  135.0386  152.5234 C   0  0  0  0  0  0  0  0  0  0  0  0
  145.3236  134.0837  151.4675 C   0  0  0  0  0  0  0  0  0  0  0  0
  146.1376  133.0402  150.9742 C   0  0  0  0  0  0  0  0  0  0  0  0
  145.6255  132.1714  149.9880 C   0  0  0  0  0  0  0  0  0  0  0  0
  144.3110  132.3666  149.5167 C   0  0  0  0  0  0  0  0  0  0  0  0
  143.5618  133.3759  150.0123 N   0  3  0  0  0  0  0  0  0  0  0  0
  144.0152  134.2285  150.9574 C   0  0  0  0  0  0  0  0  0  0  0  0
  147.8551  138.7757  154.6414 C   0  0  0  0  0  0  0  0  0  0  0  0
  151.7596  140.2319  157.5689 H   0  0  0  0  0  0  0  0  0  0  0  0
  150.0815  140.1487  158.1331 H   0  0  0  0  0  0  0  0  0  0  0  0
  150.5918  141.4449  157.0174 H   0  0  0  0  0  0  0  0  0  0  0  0
  147.1660  141.0362  156.1225 H   0  0  0  0  0  0  0  0  0  0  0  0
  148.7931  141.6597  156.2229 H   0  0  0  0  0  0  0  0  0  0  0  0
  147.5093  142.6610  154.3071 H   0  0  0  0  0  0  0  0  0  0  0  0
  148.9348  141.8272  153.7514 H   0  0  0  0  0  0  0  0  0  0  0  0
  146.0802  140.7443  153.7119 H   0  0  0  0  0  0  0  0  0  0  0  0
  147.0216  141.2332  152.3187 H   0  0  0  0  0  0  0  0  0  0  0  0
  148.6922  139.4646  152.7747 H   0  0  0  0  0  0  0  0  0  0  0  0
  146.3359  137.3528  153.9514 H   0  0  0  0  0  0  0  0  0  0  0  0
  144.3293  136.5970  152.6372 H   0  0  0  0  0  0  0  0  0  0  0  0
  145.3524  136.7015  151.2231 H   0  0  0  0  0  0  0  0  0  0  0  0
  146.9346  135.0081  152.5312 H   0  0  0  0  0  0  0  0  0  0  0  0
  145.5209  134.6819  153.5024 H   0  0  0  0  0  0  0  0  0  0  0  0
  147.1434  132.9059  151.3452 H   0  0  0  0  0  0  0  0  0  0  0  0
  146.2325  131.3673  149.5982 H   0  0  0  0  0  0  0  0  0  0  0  0
  143.8399  131.7507  148.7642 H   0  0  0  0  0  0  0  0  0  0  0  0
  143.3235  134.9963  151.2730 H   0  0  0  0  0  0  0  0  0  0  0  0
  148.3232  137.7925  154.5915 H   0  0  0  0  0  0  0  0  0  0  0  0
  146.8727  138.6223  155.0904 H   0  0  0  0  0  0  0  0  0  0  0  0
  142.6131  133.5001  149.6578 H   0  0  0  0  0  0  0  0  0  0  0  0
  1  2  1  0  0  0  0
  1 22  1  0  0  0  0
  1 23  1  0  0  0  0
  1 24  1  0  0  0  0
  2  3  2  0  0  0  0
  2  4  2  0  0  0  0
  2  5  1  0  0  0  0
  5 21  1  0  0  0  0
  5  6  1  0  0  0  0
  6  7  1  0  0  0  0
  6 25  1  0  0  0  0
  6 26  1  0  0  0  0
  7  8  1  0  0  0  0
  7 27  1  0  0  0  0
  7 28  1  0  0  0  0
  8  9  1  0  0  0  0
  8 29  1  0  0  0  0
  8 30  1  0  0  0  0
  9 10  1  0  0  0  0
  9 21  1  0  0  0  0
  9 31  1  0  0  0  0
 10 11  2  0  0  0  0
 10 12  1  0  0  0  0
 12 13  1  0  0  0  0
 12 32  1  0  0  0  0
 13 14  1  0  0  0  0
 13 33  1  0  0  0  0
 13 34  1  0  0  0  0
 14 15  1  0  0  0  0
 14 35  1  0  0  0  0
 14 36  1  0  0  0  0
 15 20  1  0  0  0  0
 15 16  2  0  0  0  0
 16 17  1  0  0  0  0
 16 37  1  0  0  0  0
 17 18  2  0  0  0  0
 17 38  1  0  0  0  0
 18 19  1  0  0  0  0
 18 39  1  0  0  0  0
 19 20  2  0  0  0  0
 19 43  1  0  0  0  0
 20 40  1  0  0  0  0
 21 41  1  0  0  0  0
 21 42  1  0  0  0  0
M  CHG  1  19   1
M  END
> <s_m_source_file>
AV-unprocessed.smi

> <i_m_source_file_index>
2135

> <i_lp_mmshare_version>
43012

> <i_f3d_flags>
0

> <s_epik_input>
W0NIM11TKD1PKSg9TylOMVtDSDJdW0NIMl1bQ0gyXVtDQEhdKFtDSDJdMSlDKD1PKVtOSF1bQ0gyXVtDSDJdYzJbY0hdW2NIXVtjSF1uW2NIXTI=

> <s_epik_cmdline>
J2VwaWtfcHl0aG9uJywgJy1waCcsICc3LjAnLCAnLXRuJywgJzgnLCAnLW1hJywgJzIwMCcsICctbWV0YWxfYmluZGluZycsICctaW1hZScsICc8aW5maWxlLm1hZT4nLCAnLW9tYWUnLCAnPG91dGZpbGUubWFlPic=

> <r_epik_Ionization_Penalty>
2.24912

> <r_epik_Ionization_Penalty_Charging>
2.24912

> <r_epik_Ionization_Penalty_Neutral>
2.62834e-08

> <r_epik_State_Penalty>
2.39611

> <r_epik_Charging_Adjusted_Penalty>
4.64523

> <i_epik_Tot_Q>
1

> <i_epik_Tot_abs_Q>
1

> <r_epik_Metal_State_Penalty>
2.40934

> <b_epik_Metal_Only>
0

> <s_lp_Force_Field>
OPLS_2005

> <r_lp_Energy>
6.9467

> <b_lp_Chiralities_Consistent>
1

> <s_lp_Variant>
AV-unprocessed.smi:2135-4

> <Gold.Version>
5.8.1

> <Gold.Id.Protein>
6NUR|6NUR_protein|mol2

> <Gold.PLP.Fitness>
44.6524

> <Gold.PLP.PLP>
-36.1376

> <Gold.PLP.part.hbond>
-3.6398

> <Gold.PLP.part.metal>
0.0000

> <Gold.PLP.part.buried>
-3.5120

> <Gold.PLP.part.nonpolar>
-30.3806

> <Gold.PLP.part.repulsive>
1.0483

> <Gold.PLP.ligand.clash>
1.8302

> <Gold.PLP.ligand.torsion>
1.7794

> <Gold.PLP.Chemscore.Hbond>
3.9440

> <Gold.PLP.Chemscore.CHOScore>
0.0000

> <Gold.PLP.Chemscore.Metal>
0.0000

> <Gold.Chemscore.Hbonds>
donor molecule, donor type, donor heavy atom, donor atom, acceptor molecule, acceptor atom, score
      L1  H    19    43       P1 10186  2.00
      P1  H  7954  7966       L1    11  1.00
      P1  H  7989  7998       L1     3  1.00

> <Gold.PLP.Chemscore.Internal.Correction>
2.0719

> <Gold.Rescore>
     Score         DG    S(hbond)    S(metal)    S(lipo)     H(rot)  DE(clash)    DE(int)     intcor
     17.76     -20.11       2.84        0.00      80.18       1.65       0.66       1.68       ----

> <Gold.Chemscore.Fitness>
17.7641

> <Gold.Chemscore.DG>
-20.1090

> <Gold.Chemscore.ZeroCoef>
-5.4800

> <Gold.Chemscore.Hbond>
2.8389

> <Gold.Chemscore.Metal>
0.0000

> <Gold.Chemscore.Lipo>
80.1763

> <Gold.Chemscore.Internal_Hbond>
0.0000

> <Gold.Chemscore.DEClash>
0.6633

> <Gold.Chemscore.DEInternal>
1.6816

> <Gold.Chemscore.Rot>
1.6538

> <Gold.Chemscore.Internal.Correction>
   9.000000E+99

> <Gold.Chemscore.Hbonds>
donor molecule, donor type, donor heavy atom, donor atom, acceptor molecule, acceptor atom, score
      L1  H    19    43       P1 10186  0.97
      P1  H  7954  7966       L1    11  0.88
      P1  H  7989  7998       L1     3  1.00

> <Gold.Chemscore.Hbond.Weighted>
-9.4821

> <Gold.Chemscore.Metal.Weighted>
-0.0000

> <Gold.Chemscore.Lipo.Weighted>
-9.3806

> <Gold.Chemscore.Internal_Hbond.Weighted>
0.0000

> <Gold.Chemscore.DEClash.Weighted>
0.6633

> <Gold.Chemscore.DEInternal.Weighted>
1.6816

> <Gold.Chemscore.Rot.Weighted>
4.2337

> <Gold.Chemscore.Internal.Correction.Weighted>
   9.000000E+99

> <Gold.Protein.RotatedTorsions>
[ 6907 6896 6895 6894 ] final  -57.83 input  -60.11 | X-H torsion
[ 7974 7965 7964 7962 ] final  -41.92 input  175.53 | X-H torsion
[ 8008 7997 7996 7995 ] final  -27.56 input   59.86 | X-H torsion
[ 10167 10162 10161 10158 ] final  -78.02 input  -65.29 | X-H torsion
[ 10718 10713 10712 10709 ] final -142.73 input   66.30 | X-H torsion
[ 10763 10752 10751 10750 ] final  129.34 input  -60.55 | X-H torsion
[ 11005 11000 10999 10996 ] final -142.86 input  -57.11 | X-H torsion

> <Gold.Protein.ActiveResidues>
 VAL166  LYS551  ARG553  GLY616  TRP617  ASP618  TYR619  PRO620  LYS621  CYS622 
 ASP623  PHE694  ASN695  SER759  ASP760  ASP761  ALA762  ILE779  LEU786  VAL792 
 PHE793  MET794  SER795  GLU796  ALA797  LYS798  CYS799  TRP800  GLU811  SER814 

> <Gold.Protein.RotatedAtoms>
  150.8055  134.7177  159.6639 H   0  0  0  0  0  0  0  0  0  0  0  0  # atno 6907 bound_to 6896
  152.4174  134.6014  160.0011 H   0  0  0  0  0  0  0  0  0  0  0  0  # atno 6908 bound_to 6896
  151.6239  133.3300  159.3130 H   0  0  0  0  0  0  0  0  0  0  0  0  # atno 6909 bound_to 6896
  146.0165  140.6901  142.9199 H   0  0  0  0  0  0  0  0  0  0  0  0  # atno 7974 bound_to 7965
  154.4372  140.1869  156.0951 H   0  0  0  0  0  0  0  0  0  0  0  0  # atno 8008 bound_to 7997
  156.0336  140.3328  155.7140 H   0  0  0  0  0  0  0  0  0  0  0  0  # atno 8009 bound_to 7997
  155.5804  140.0621  157.2775 H   0  0  0  0  0  0  0  0  0  0  0  0  # atno 8010 bound_to 7997
  140.4719  143.2424  151.8192 H   0  0  0  0  0  0  0  0  0  0  0  0  # atno 10167 bound_to 10162
  156.3494  130.7680  151.1830 H   0  0  0  0  0  0  0  0  0  0  0  0  # atno 10718 bound_to 10713
  153.7403  135.3225  155.3302 H   0  0  0  0  0  0  0  0  0  0  0  0  # atno 10763 bound_to 10752
  154.8297  135.4543  154.1034 H   0  0  0  0  0  0  0  0  0  0  0  0  # atno 10764 bound_to 10752
  153.2206  135.6947  153.8086 H   0  0  0  0  0  0  0  0  0  0  0  0  # atno 10765 bound_to 10752
  140.8183  134.2662  157.4911 H   0  0  0  0  0  0  0  0  0  0  0  0  # atno 11005 bound_to 11000
  144.6973  140.3491  143.7185 LP  0  0  0  0  0  0  0  0  0  0  0  0  # atno 17320 bound_to 7965
  145.7260  139.1723  143.2457 LP  0  0  0  0  0  0  0  0  0  0  0  0  # atno 17321 bound_to 7965
  139.4820  144.4882  151.9220 LP  0  0  0  0  0  0  0  0  0  0  0  0  # atno 17342 bound_to 10162
  140.3967  144.2546  150.5895 LP  0  0  0  0  0  0  0  0  0  0  0  0  # atno 17343 bound_to 10162
  157.7459  131.0432  150.4731 LP  0  0  0  0  0  0  0  0  0  0  0  0  # atno 17370 bound_to 10713
  156.4923  130.4098  149.6399 LP  0  0  0  0  0  0  0  0  0  0  0  0  # atno 17371 bound_to 10713
  139.8710  134.9521  156.4106 LP  0  0  0  0  0  0  0  0  0  0  0  0  # atno 17394 bound_to 11000
  140.9126  133.7701  155.9809 LP  0  0  0  0  0  0  0  0  0  0  0  0  # atno 17395 bound_to 11000

$$$$
