AV-unprocessed.smi:2682|AV-procd|sdf|10374|dock6
  -GOLD-   2272014403D 1   1.00000     0.00000
 Structure written by MMmdl.
 30 30  0  0  0  0  0  0  0  0  1 V2000
  150.1744  137.4656  154.3678 C   0  0  0  0  0  0  0  0  0  0  0  0
  151.1953  136.8755  155.1532 O   0  0  0  0  0  0  0  0  0  0  0  0
  151.6906  137.7568  156.1473 C   0  0  0  0  0  0  0  0  0  0  0  0
  152.1717  139.0481  155.4795 C   0  0  0  0  0  0  0  0  0  0  0  0
  152.3455  140.0452  156.4723 O   0  0  0  0  0  0  0  0  0  0  0  0
  151.2318  140.9190  156.5704 C   0  0  0  0  0  0  0  0  0  0  0  0
  151.1639  141.4820  157.9889 C   0  0  0  0  0  0  0  0  0  0  0  0
  150.1046  141.9592  158.3929 O   0  0  0  0  0  0  0  0  0  0  0  0
  152.3089  141.4050  158.6965 N   0  0  0  0  0  0  0  0  0  0  0  0
  152.5966  141.8546  159.9969 C   0  0  0  0  0  0  0  0  0  0  0  0
  152.1342  143.0094  160.5454 C   0  0  0  0  0  0  0  0  0  0  0  0
  152.4964  143.3945  161.8932 C   0  0  0  0  0  0  0  0  0  0  0  0
  153.3091  142.5855  162.5887 C   0  0  0  0  0  0  0  0  0  0  0  0
  153.7911  141.4017  162.0251 N   0  0  0  0  0  0  0  0  0  0  0  0
  153.4930  140.9773  160.7740 C   0  0  0  0  0  0  0  0  0  0  0  0
  153.9620  139.9210  160.3512 O   0  0  0  0  0  0  0  0  0  0  0  0
  149.8277  136.7517  153.6210 H   0  0  0  0  0  0  0  0  0  0  0  0
  150.5408  138.3496  153.8442 H   0  0  0  0  0  0  0  0  0  0  0  0
  149.3202  137.7517  154.9829 H   0  0  0  0  0  0  0  0  0  0  0  0
  150.8897  137.9882  156.8512 H   0  0  0  0  0  0  0  0  0  0  0  0
  152.5015  137.2950  156.7129 H   0  0  0  0  0  0  0  0  0  0  0  0
  153.0995  138.8735  154.9327 H   0  0  0  0  0  0  0  0  0  0  0  0
  151.4244  139.3840  154.7593 H   0  0  0  0  0  0  0  0  0  0  0  0
  151.3276  141.7447  155.8636 H   0  0  0  0  0  0  0  0  0  0  0  0
  150.3091  140.3846  156.3378 H   0  0  0  0  0  0  0  0  0  0  0  0
  153.0765  140.9331  158.2397 H   0  0  0  0  0  0  0  0  0  0  0  0
  151.4971  143.6860  160.0006 H   0  0  0  0  0  0  0  0  0  0  0  0
  152.1220  144.3102  162.3265 H   0  0  0  0  0  0  0  0  0  0  0  0
  153.6441  142.7732  163.5981 H   0  0  0  0  0  0  0  0  0  0  0  0
  154.4002  140.8354  162.5980 H   0  0  0  0  0  0  0  0  0  0  0  0
  1  2  1  0  0  0  0
  1 17  1  0  0  0  0
  1 18  1  0  0  0  0
  1 19  1  0  0  0  0
  2  3  1  0  0  0  0
  3  4  1  0  0  0  0
  3 20  1  0  0  0  0
  3 21  1  0  0  0  0
  4  5  1  0  0  0  0
  4 22  1  0  0  0  0
  4 23  1  0  0  0  0
  5  6  1  0  0  0  0
  6  7  1  0  0  0  0
  6 24  1  0  0  0  0
  6 25  1  0  0  0  0
  7  8  2  0  0  0  0
  7  9  1  0  0  0  0
  9 26  1  0  0  0  0
  9 10  1  0  0  0  0
 10 11  2  0  0  0  0
 10 15  1  0  0  0  0
 11 12  1  0  0  0  0
 11 27  1  0  0  0  0
 12 13  2  0  0  0  0
 12 28  1  0  0  0  0
 13 14  1  0  0  0  0
 13 29  1  0  0  0  0
 14 15  1  0  0  0  0
 14 30  1  0  0  0  0
 15 16  2  0  0  0  0
M  END
> <s_m_source_file>
AV-unprocessed.smi

> <i_m_source_file_index>
2682

> <i_lp_mmshare_version>
43012

> <i_f3d_flags>
0

> <s_epik_input>
W0NIM11PW0NIMl1bQ0gyXU9bQ0gyXUMoPU8pW05IXWMxW2NIXVtjSF1bY0hdbmMxW09IXQ==

> <s_epik_cmdline>
J2VwaWtfcHl0aG9uJywgJy1waCcsICc3LjAnLCAnLXRuJywgJzgnLCAnLW1hJywgJzIwMCcsICctbWV0YWxfYmluZGluZycsICctaW1hZScsICc8aW5maWxlLm1hZT4nLCAnLW9tYWUnLCAnPG91dGZpbGUubWFlPic=

> <r_lp_tautomer_probability>
1

> <r_epik_Ionization_Penalty>
0.000101939

> <r_epik_Ionization_Penalty_Charging>
0.000101884

> <r_epik_Ionization_Penalty_Neutral>
5.41789e-08

> <r_epik_State_Penalty>
-0

> <r_epik_Charging_Adjusted_Penalty>
0.000101884

> <i_epik_Tot_Q>
0

> <i_epik_Tot_abs_Q>
0

> <r_epik_Metal_State_Penalty>
0.0807852

> <b_epik_Metal_Only>
0

> <s_lp_Force_Field>
OPLS_2005

> <r_lp_Energy>
15.1735

> <b_lp_Chiralities_Consistent>
1

> <s_lp_Variant>
AV-unprocessed.smi:2682-1

> <Gold.Version>
5.8.1

> <Gold.Id.Protein>
6NUR|6NUR_protein|mol2

> <Gold.PLP.Fitness>
37.3020

> <Gold.PLP.PLP>
-33.2669

> <Gold.PLP.part.hbond>
-2.6315

> <Gold.PLP.part.metal>
0.0000

> <Gold.PLP.part.buried>
-5.2324

> <Gold.PLP.part.nonpolar>
-25.2416

> <Gold.PLP.part.repulsive>
0.2070

> <Gold.PLP.ligand.clash>
0.0000

> <Gold.PLP.ligand.torsion>
1.0229

> <Gold.PLP.Chemscore.Hbond>
2.0000

> <Gold.PLP.Chemscore.CHOScore>
0.0000

> <Gold.PLP.Chemscore.Metal>
0.0000

> <Gold.Chemscore.Hbonds>
donor molecule, donor type, donor heavy atom, donor atom, acceptor molecule, acceptor atom, score
      P1  H  7997  8008       L1     5  0.86
      P1  H 10752 10764       L1     2  0.49

> <Gold.PLP.Chemscore.Internal.Correction>
0.0809

> <Gold.Rescore>
     Score         DG    S(hbond)    S(metal)    S(lipo)     H(rot)  DE(clash)    DE(int)     intcor
     11.82     -12.82       1.40        0.00      70.49       2.17       0.01       0.99       ----

> <Gold.Chemscore.Fitness>
11.8235

> <Gold.Chemscore.DG>
-12.8208

> <Gold.Chemscore.ZeroCoef>
-5.4800

> <Gold.Chemscore.Hbond>
1.3953

> <Gold.Chemscore.Metal>
0.0000

> <Gold.Chemscore.Lipo>
70.4920

> <Gold.Chemscore.Internal_Hbond>
0.0000

> <Gold.Chemscore.DEClash>
0.0095

> <Gold.Chemscore.DEInternal>
0.9878

> <Gold.Chemscore.Rot>
2.1746

> <Gold.Chemscore.Internal.Correction>
   9.000000E+99

> <Gold.Chemscore.Hbonds>
donor molecule, donor type, donor heavy atom, donor atom, acceptor molecule, acceptor atom, score
      P1  H  7997  8008       L1     5  0.28
      P1  H 10752 10764       L1     2  0.22

> <Gold.Chemscore.Hbond.Weighted>
-4.6602

> <Gold.Chemscore.Metal.Weighted>
-0.0000

> <Gold.Chemscore.Lipo.Weighted>
-8.2476

> <Gold.Chemscore.Internal_Hbond.Weighted>
0.0000

> <Gold.Chemscore.DEClash.Weighted>
0.0095

> <Gold.Chemscore.DEInternal.Weighted>
0.9878

> <Gold.Chemscore.Rot.Weighted>
5.5669

> <Gold.Chemscore.Internal.Correction.Weighted>
   9.000000E+99

> <Gold.Protein.RotatedTorsions>
[ 6907 6896 6895 6894 ] final  156.94 input  -60.11 | X-H torsion
[ 7974 7965 7964 7962 ] final   68.94 input  175.53 | X-H torsion
[ 8008 7997 7996 7995 ] final  -64.82 input   59.86 | X-H torsion
[ 10167 10162 10161 10158 ] final   95.32 input  -65.29 | X-H torsion
[ 10718 10713 10712 10709 ] final  -79.55 input   66.30 | X-H torsion
[ 10763 10752 10751 10750 ] final  -55.85 input  -60.55 | X-H torsion
[ 11005 11000 10999 10996 ] final  -82.92 input  -57.11 | X-H torsion

> <Gold.Protein.ActiveResidues>
 VAL166  LYS551  ARG553  GLY616  TRP617  ASP618  TYR619  PRO620  LYS621  CYS622 
 ASP623  PHE694  ASN695  SER759  ASP760  ASP761  ALA762  ILE779  LEU786  VAL792 
 PHE793  MET794  SER795  GLU796  ALA797  LYS798  CYS799  TRP800  GLU811  SER814 

> <Gold.Protein.RotatedAtoms>
  152.0223  133.3904  159.4263 H   0  0  0  0  0  0  0  0  0  0  0  0  # atno 6907 bound_to 6896
  150.6889  134.3612  159.4960 H   0  0  0  0  0  0  0  0  0  0  0  0  # atno 6908 bound_to 6896
  152.1387  134.9079  160.0605 H   0  0  0  0  0  0  0  0  0  0  0  0  # atno 6909 bound_to 6896
  145.7965  139.2960  143.1180 H   0  0  0  0  0  0  0  0  0  0  0  0  # atno 7974 bound_to 7965
  154.4635  140.0946  156.6956 H   0  0  0  0  0  0  0  0  0  0  0  0  # atno 8008 bound_to 7997
  155.4926  140.3471  155.4339 H   0  0  0  0  0  0  0  0  0  0  0  0  # atno 8009 bound_to 7997
  156.0913  140.1398  156.9577 H   0  0  0  0  0  0  0  0  0  0  0  0  # atno 8010 bound_to 7997
  139.8000  144.6817  150.9777 H   0  0  0  0  0  0  0  0  0  0  0  0  # atno 10167 bound_to 10162
  156.0090  130.4549  150.3665 H   0  0  0  0  0  0  0  0  0  0  0  0  # atno 10718 bound_to 10713
  154.1973  135.6417  153.5077 H   0  0  0  0  0  0  0  0  0  0  0  0  # atno 10763 bound_to 10752
  153.0020  135.5443  154.6353 H   0  0  0  0  0  0  0  0  0  0  0  0  # atno 10764 bound_to 10752
  154.5757  135.2920  155.0756 H   0  0  0  0  0  0  0  0  0  0  0  0  # atno 10765 bound_to 10752
  141.1661  133.7268  156.8643 H   0  0  0  0  0  0  0  0  0  0  0  0  # atno 11005 bound_to 11000
  145.9922  140.8592  143.0060 LP  0  0  0  0  0  0  0  0  0  0  0  0  # atno 17320 bound_to 7965
  144.6774  140.2232  143.7364 LP  0  0  0  0  0  0  0  0  0  0  0  0  # atno 17321 bound_to 7965
  140.7820  143.4291  151.0722 LP  0  0  0  0  0  0  0  0  0  0  0  0  # atno 17342 bound_to 10162
  139.7964  143.8146  152.3158 LP  0  0  0  0  0  0  0  0  0  0  0  0  # atno 17343 bound_to 10162
  157.1752  131.0378  151.2776 LP  0  0  0  0  0  0  0  0  0  0  0  0  # atno 17370 bound_to 10713
  157.4194  130.7429  149.6901 LP  0  0  0  0  0  0  0  0  0  0  0  0  # atno 17371 bound_to 10713
  140.1826  134.9022  157.2967 LP  0  0  0  0  0  0  0  0  0  0  0  0  # atno 17394 bound_to 11000
  140.2378  134.3832  155.7493 LP  0  0  0  0  0  0  0  0  0  0  0  0  # atno 17395 bound_to 11000

$$$$
