AV-unprocessed.smi:1986|AV-procd|sdf|8050|dock10
  -GOLD-   2272010253D 1   1.00000     0.00000
 Structure written by MMmdl.
 47 48  0  0  0  0  0  0  0  0  1 V2000
  145.0199  134.7694  155.7227 C   0  0  0  0  0  0  0  0  0  0  0  0
  146.5447  134.5866  155.8321 C   0  0  0  0  0  0  0  0  0  0  0  0
  147.3997  135.4282  154.8311 C   0  0  1  0  0  0  0  0  0  0  0  0
  147.0871  136.9194  155.1316 C   0  0  0  0  0  0  0  0  0  0  0  0
  148.9073  135.1715  155.1443 C   0  0  0  0  0  0  0  0  0  0  0  0
  149.7774  136.2391  154.6549 N   0  0  0  0  0  0  0  0  0  0  0  0
  150.9622  136.5851  155.1781 C   0  0  0  0  0  0  0  0  0  0  0  0
  151.4843  135.9967  156.1256 O   0  0  0  0  0  0  0  0  0  0  0  0
  151.6708  137.7711  154.5085 C   0  0  0  0  0  0  0  0  0  0  0  0
  151.0588  139.0670  154.8347 N   0  0  0  0  0  0  0  0  0  0  0  0
  149.9110  139.3517  154.1108 N   0  0  0  0  0  0  0  0  0  0  0  0
  149.2866  140.4640  154.3041 C   0  0  0  0  0  0  0  0  0  0  0  0
  148.1557  140.7065  153.5642 O   0  0  0  0  0  0  0  0  0  0  0  0
  149.7596  141.4301  155.2711 C   0  0  0  0  0  0  0  0  0  0  0  0
  150.8758  141.1414  155.9752 C   0  0  0  0  0  0  0  0  0  0  0  0
  151.6073  139.8881  155.7826 C   0  0  0  0  0  0  0  0  0  0  0  0
  152.6228  139.5958  156.4142 O   0  0  0  0  0  0  0  0  0  0  0  0
  147.0542  135.0981  153.4192 N   0  0  0  0  0  0  0  0  0  0  0  0
  147.1098  133.6713  153.0794 C   0  0  0  0  0  0  0  0  0  0  0  0
  146.8851  133.4272  151.5774 C   0  0  0  0  0  0  0  0  0  0  0  0
  145.6395  133.9884  151.1809 O   0  0  0  0  0  0  0  0  0  0  0  0
  145.5653  135.3847  151.4422 C   0  0  0  0  0  0  0  0  0  0  0  0
  145.7758  135.6415  152.9437 C   0  0  0  0  0  0  0  0  0  0  0  0
  148.3841  140.4788  152.6760 H   0  0  0  0  0  0  0  0  0  0  0  0
  144.5087  134.1395  156.4507 H   0  0  0  0  0  0  0  0  0  0  0  0
  144.6470  134.4930  154.7366 H   0  0  0  0  0  0  0  0  0  0  0  0
  144.7205  135.7984  155.9192 H   0  0  0  0  0  0  0  0  0  0  0  0
  146.8258  134.8272  156.8579 H   0  0  0  0  0  0  0  0  0  0  0  0
  146.7799  133.5271  155.7313 H   0  0  0  0  0  0  0  0  0  0  0  0
  147.0931  137.1337  156.2009 H   0  0  0  0  0  0  0  0  0  0  0  0
  146.1059  137.2084  154.7538 H   0  0  0  0  0  0  0  0  0  0  0  0
  147.8190  137.5892  154.6798 H   0  0  0  0  0  0  0  0  0  0  0  0
  149.0502  135.0484  156.2182 H   0  0  0  0  0  0  0  0  0  0  0  0
  149.2524  134.2480  154.6803 H   0  0  0  0  0  0  0  0  0  0  0  0
  149.4342  136.7757  153.8714 H   0  0  0  0  0  0  0  0  0  0  0  0
  152.7175  137.7556  154.8176 H   0  0  0  0  0  0  0  0  0  0  0  0
  151.6833  137.6332  153.4254 H   0  0  0  0  0  0  0  0  0  0  0  0
  149.2260  142.3572  155.4196 H   0  0  0  0  0  0  0  0  0  0  0  0
  151.2404  141.8538  156.7006 H   0  0  0  0  0  0  0  0  0  0  0  0
  148.0754  133.2439  153.3441 H   0  0  0  0  0  0  0  0  0  0  0  0
  146.3546  133.1191  153.6384 H   0  0  0  0  0  0  0  0  0  0  0  0
  147.6936  133.8649  150.9895 H   0  0  0  0  0  0  0  0  0  0  0  0
  146.8770  132.3582  151.3646 H   0  0  0  0  0  0  0  0  0  0  0  0
  146.3144  135.9143  150.8514 H   0  0  0  0  0  0  0  0  0  0  0  0
  144.5892  135.7543  151.1279 H   0  0  0  0  0  0  0  0  0  0  0  0
  144.9467  135.1954  153.4928 H   0  0  0  0  0  0  0  0  0  0  0  0
  145.7214  136.7161  153.1077 H   0  0  0  0  0  0  0  0  0  0  0  0
  1  2  1  0  0  0  0
  1 25  1  0  0  0  0
  1 26  1  0  0  0  0
  1 27  1  0  0  0  0
  2  3  1  0  0  0  0
  2 28  1  0  0  0  0
  2 29  1  0  0  0  0
  3  4  1  0  0  0  0
  3  5  1  0  0  0  0
  3 18  1  0  0  0  0
  4 30  1  0  0  0  0
  4 31  1  0  0  0  0
  4 32  1  0  0  0  0
  5  6  1  0  0  0  0
  5 33  1  0  0  0  0
  5 34  1  0  0  0  0
  6  7  1  0  0  0  0
  6 35  1  0  0  0  0
  7  8  2  0  0  0  0
  7  9  1  0  0  0  0
  9 36  1  0  0  0  0
  9 37  1  0  0  0  0
  9 10  1  0  0  0  0
 10 11  1  0  0  0  0
 10 16  1  0  0  0  0
 11 12  2  0  0  0  0
 12 13  1  0  0  0  0
 12 14  1  0  0  0  0
 13 24  1  0  0  0  0
 14 38  1  0  0  0  0
 14 15  2  0  0  0  0
 15 39  1  0  0  0  0
 15 16  1  0  0  0  0
 16 17  2  0  0  0  0
 18 23  1  0  0  0  0
 18 19  1  0  0  0  0
 19 20  1  0  0  0  0
 19 40  1  0  0  0  0
 19 41  1  0  0  0  0
 20 21  1  0  0  0  0
 20 42  1  0  0  0  0
 20 43  1  0  0  0  0
 21 22  1  0  0  0  0
 22 23  1  0  0  0  0
 22 44  1  0  0  0  0
 22 45  1  0  0  0  0
 23 46  1  0  0  0  0
 23 47  1  0  0  0  0
M  END
> <s_m_source_file>
AV-unprocessed.smi

> <i_m_source_file_index>
1986

> <i_lp_mmshare_version>
43012

> <i_f3d_flags>
0

> <s_epik_input>
W0NIMl0xW0NIMl1PW0NIMl1bQ0gyXU4xW0NAQF0oW0NIM10pKFtDSDJdW0NIM10pW0NIMl1bTkhdQyg9TylbQ0gyXW4yW25IXWMoPU8pW2NIXVtjSF1jMj1P

> <s_epik_cmdline>
J2VwaWtfcHl0aG9uJywgJy1waCcsICc3LjAnLCAnLXRuJywgJzgnLCAnLW1hJywgJzIwMCcsICctbWV0YWxfYmluZGluZycsICctaW1hZScsICc8aW5maWxlLm1hZT4nLCAnLW9tYWUnLCAnPG91dGZpbGUubWFlPic=

> <r_epik_Ionization_Penalty>
2.44436

> <r_epik_Ionization_Penalty_Charging>
3.63754e-08

> <r_epik_Ionization_Penalty_Neutral>
2.44436

> <r_epik_State_Penalty>
2.04701

> <r_epik_Charging_Adjusted_Penalty>
2.04701

> <i_epik_Tot_Q>
0

> <i_epik_Tot_abs_Q>
0

> <r_epik_Metal_State_Penalty>
2.04701

> <b_epik_Metal_Only>
0

> <s_lp_Force_Field>
OPLS_2005

> <r_lp_Energy>
55.4417

> <b_lp_Chiralities_Consistent>
1

> <s_lp_Variant>
AV-unprocessed.smi:1986-5

> <Gold.Version>
5.8.1

> <Gold.Id.Protein>
6NUR|6NUR_protein|mol2

> <Gold.PLP.Fitness>
41.5487

> <Gold.PLP.PLP>
-32.9353

> <Gold.PLP.part.hbond>
-4.1597

> <Gold.PLP.part.metal>
0.0000

> <Gold.PLP.part.buried>
-4.9630

> <Gold.PLP.part.nonpolar>
-27.7243

> <Gold.PLP.part.repulsive>
4.4597

> <Gold.PLP.ligand.clash>
0.0000

> <Gold.PLP.ligand.torsion>
1.1092

> <Gold.PLP.Chemscore.Hbond>
3.5673

> <Gold.PLP.Chemscore.CHOScore>
0.0000

> <Gold.PLP.Chemscore.Metal>
0.0000

> <Gold.Chemscore.Hbonds>
donor molecule, donor type, donor heavy atom, donor atom, acceptor molecule, acceptor atom, score
      L1  H     6    35       P1  7948  0.51
      L1  H    13    24       P1  7957  1.00
      P1  H  7997  8009       L1    17  1.00
      P1  H 10752 10765       L1     8  0.67

> <Gold.PLP.Chemscore.Internal.Correction>
0.1300

> <Gold.Rescore>
     Score         DG    S(hbond)    S(metal)    S(lipo)     H(rot)  DE(clash)    DE(int)     intcor
      8.94     -13.04       2.88        0.00      49.44       3.06       2.70       1.40       ----

> <Gold.Chemscore.Fitness>
8.9360

> <Gold.Chemscore.DG>
-13.0353

> <Gold.Chemscore.ZeroCoef>
-5.4800

> <Gold.Chemscore.Hbond>
2.8771

> <Gold.Chemscore.Metal>
0.0000

> <Gold.Chemscore.Lipo>
49.4408

> <Gold.Chemscore.Internal_Hbond>
0.0000

> <Gold.Chemscore.DEClash>
2.6966

> <Gold.Chemscore.DEInternal>
1.4028

> <Gold.Chemscore.Rot>
3.0620

> <Gold.Chemscore.Internal.Correction>
   9.000000E+99

> <Gold.Chemscore.Hbonds>
donor molecule, donor type, donor heavy atom, donor atom, acceptor molecule, acceptor atom, score
      L1  H     6    35       P1  7948  0.46
      L1  H    13    24       P1  7957  0.96
      P1  H  7997  8009       L1    17  1.00
      P1  H 10752 10765       L1     8  0.07

> <Gold.Chemscore.Hbond.Weighted>
-9.6094

> <Gold.Chemscore.Metal.Weighted>
-0.0000

> <Gold.Chemscore.Lipo.Weighted>
-5.7846

> <Gold.Chemscore.Internal_Hbond.Weighted>
0.0000

> <Gold.Chemscore.DEClash.Weighted>
2.6966

> <Gold.Chemscore.DEInternal.Weighted>
1.4028

> <Gold.Chemscore.Rot.Weighted>
7.8387

> <Gold.Chemscore.Internal.Correction.Weighted>
   9.000000E+99

> <Gold.Protein.RotatedTorsions>
[ 6907 6896 6895 6894 ] final -133.26 input  -60.11 | X-H torsion
[ 7974 7965 7964 7962 ] final -137.61 input  175.53 | X-H torsion
[ 8008 7997 7996 7995 ] final -154.05 input   59.86 | X-H torsion
[ 10167 10162 10161 10158 ] final -152.59 input  -65.29 | X-H torsion
[ 10718 10713 10712 10709 ] final   70.31 input   66.30 | X-H torsion
[ 10763 10752 10751 10750 ] final -147.70 input  -60.55 | X-H torsion
[ 11005 11000 10999 10996 ] final   25.60 input  -57.11 | X-H torsion

> <Gold.Protein.ActiveResidues>
 VAL166  LYS551  ARG553  GLY616  TRP617  ASP618  TYR619  PRO620  LYS621  CYS622 
 ASP623  PHE694  ASN695  SER759  ASP760  ASP761  ALA762  ILE779  LEU786  VAL792 
 PHE793  MET794  SER795  GLU796  ALA797  LYS798  CYS799  TRP800  GLU811  SER814 

> <Gold.Protein.RotatedAtoms>
  150.9719  133.6335  159.2736 H   0  0  0  0  0  0  0  0  0  0  0  0  # atno 6907 bound_to 6896
  151.3620  135.0905  159.9447 H   0  0  0  0  0  0  0  0  0  0  0  0  # atno 6908 bound_to 6896
  152.5186  133.9291  159.7626 H   0  0  0  0  0  0  0  0  0  0  0  0  # atno 6909 bound_to 6896
  144.8827  140.6530  143.5195 H   0  0  0  0  0  0  0  0  0  0  0  0  # atno 7974 bound_to 7965
  155.6804  140.0743  157.2487 H   0  0  0  0  0  0  0  0  0  0  0  0  # atno 8008 bound_to 7997
  154.4106  140.1683  156.2028 H   0  0  0  0  0  0  0  0  0  0  0  0  # atno 8009 bound_to 7997
  155.9540  140.3375  155.6435 H   0  0  0  0  0  0  0  0  0  0  0  0  # atno 8010 bound_to 7997
  139.7169  143.9020  152.2489 H   0  0  0  0  0  0  0  0  0  0  0  0  # atno 10167 bound_to 10162
  157.6393  130.9470  150.0633 H   0  0  0  0  0  0  0  0  0  0  0  0  # atno 10718 bound_to 10713
  154.8272  135.3353  154.6859 H   0  0  0  0  0  0  0  0  0  0  0  0  # atno 10763 bound_to 10752
  153.7483  135.6941  153.4956 H   0  0  0  0  0  0  0  0  0  0  0  0  # atno 10764 bound_to 10752
  153.2194  135.4454  155.0423 H   0  0  0  0  0  0  0  0  0  0  0  0  # atno 10765 bound_to 10752
  140.3460  134.2280  155.7685 H   0  0  0  0  0  0  0  0  0  0  0  0  # atno 11005 bound_to 11000
  145.3925  139.1614  143.4221 LP  0  0  0  0  0  0  0  0  0  0  0  0  # atno 17320 bound_to 7965
  146.3005  140.4015  142.8706 LP  0  0  0  0  0  0  0  0  0  0  0  0  # atno 17321 bound_to 7965
  139.8904  144.6968  150.8776 LP  0  0  0  0  0  0  0  0  0  0  0  0  # atno 17342 bound_to 10162
  140.7745  143.3590  151.1864 LP  0  0  0  0  0  0  0  0  0  0  0  0  # atno 17343 bound_to 10162
  156.1659  130.3645  149.9233 LP  0  0  0  0  0  0  0  0  0  0  0  0  # atno 17370 bound_to 10713
  156.7220  130.9010  151.3619 LP  0  0  0  0  0  0  0  0  0  0  0  0  # atno 17371 bound_to 10713
  141.2025  133.7935  157.0386 LP  0  0  0  0  0  0  0  0  0  0  0  0  # atno 17394 bound_to 11000
  140.0741  134.9685  157.1517 LP  0  0  0  0  0  0  0  0  0  0  0  0  # atno 17395 bound_to 11000

$$$$
