AV-unprocessed.smi:194|AV-procd|sdf|1522|dock1
  -GOLD-   2262019363D 1   1.00000     0.00000
 Structure written by MMmdl.
 53 55  0  0  0  0  0  0  0  0  1 V2000
  153.7559  141.9295  162.0276 C   0  0  0  0  0  0  0  0  0  0  0  0
  153.7853  141.0967  160.7357 C   0  0  2  0  0  0  0  0  0  0  0  0
  155.2306  140.8930  160.2319 C   0  0  0  0  0  0  0  0  0  0  0  0
  155.4091  139.2146  159.4517 S   0  0  2  0  0  0  0  0  0  0  0  0
  156.4878  138.4257  160.7382 C   0  0  0  0  0  0  0  0  0  0  0  0
  156.2684  139.3981  158.1994 O   0  0  0  0  0  0  0  0  0  0  0  0
  152.9091  141.6872  159.7143 N   0  0  0  0  0  0  0  0  0  0  0  0
  152.2549  142.9721  159.9439 C   0  0  0  0  0  0  0  0  0  0  0  0
  152.4143  140.8773  158.7419 C   0  0  0  0  0  0  0  0  0  0  0  0
  152.7264  139.5556  158.7928 N   0  0  0  0  0  0  0  0  0  0  0  0
  152.2794  138.7154  157.8562 C   0  0  0  0  0  0  0  0  0  0  0  0
  151.5182  138.9810  156.7942 N   0  0  0  0  0  0  0  0  0  0  0  0
  151.1997  140.3054  156.7313 C   0  0  0  0  0  0  0  0  0  0  0  0
  151.5957  141.3133  157.6577 C   0  0  0  0  0  0  0  0  0  0  0  0
  151.0508  142.5351  157.2777 N   0  0  0  0  0  0  0  0  0  0  0  0
  150.3831  142.2668  156.1901 C   0  0  0  0  0  0  0  0  0  0  0  0
  150.4349  140.9552  155.7771 N   0  0  0  0  0  0  0  0  0  0  0  0
  149.7804  140.3879  154.6071 C   0  0  0  0  0  0  0  0  0  0  0  0
  148.2253  140.5001  154.5765 C   0  0  0  0  0  0  0  0  0  0  0  0
  147.5939  139.3169  153.7820 C   0  0  0  0  0  0  0  0  0  0  0  0
  148.1900  139.0940  152.5198 O   0  0  0  0  0  0  0  0  0  0  0  0
  147.6459  140.6046  156.0109 C   0  0  0  0  0  0  0  0  0  0  0  0
  146.1708  141.0399  156.0232 C   0  0  0  0  0  0  0  0  0  0  0  0
  146.0363  142.2958  155.3706 O   0  0  0  0  0  0  0  0  0  0  0  0
  146.4082  142.2473  153.9994 C   0  0  0  0  0  0  0  0  0  0  0  0
  147.8868  141.8336  153.8617 C   0  0  0  0  0  0  0  0  0  0  0  0
  154.3392  141.4503  162.8144 H   0  0  0  0  0  0  0  0  0  0  0  0
  152.7365  142.0430  162.3979 H   0  0  0  0  0  0  0  0  0  0  0  0
  154.1681  142.9269  161.8729 H   0  0  0  0  0  0  0  0  0  0  0  0
  153.4042  140.1165  161.0173 H   0  0  0  0  0  0  0  0  0  0  0  0
  155.4958  141.6518  159.4963 H   0  0  0  0  0  0  0  0  0  0  0  0
  155.9480  140.9846  161.0479 H   0  0  0  0  0  0  0  0  0  0  0  0
  155.9814  138.3735  161.7007 H   0  0  0  0  0  0  0  0  0  0  0  0
  157.4125  138.9897  160.8585 H   0  0  0  0  0  0  0  0  0  0  0  0
  156.7412  137.4103  160.4340 H   0  0  0  0  0  0  0  0  0  0  0  0
  151.9079  143.4070  159.0060 H   0  0  0  0  0  0  0  0  0  0  0  0
  152.9390  143.6877  160.3974 H   0  0  0  0  0  0  0  0  0  0  0  0
  151.3992  142.8559  160.6092 H   0  0  0  0  0  0  0  0  0  0  0  0
  152.5755  137.6835  157.9738 H   0  0  0  0  0  0  0  0  0  0  0  0
  149.8394  143.0265  155.6475 H   0  0  0  0  0  0  0  0  0  0  0  0
  150.2080  140.8740  153.7290 H   0  0  0  0  0  0  0  0  0  0  0  0
  150.0768  139.3405  154.5354 H   0  0  0  0  0  0  0  0  0  0  0  0
  147.6788  138.3791  154.3278 H   0  0  0  0  0  0  0  0  0  0  0  0
  146.5262  139.4850  153.6368 H   0  0  0  0  0  0  0  0  0  0  0  0
  148.5006  138.2020  152.4865 H   0  0  0  0  0  0  0  0  0  0  0  0
  147.7551  139.6647  156.5520 H   0  0  0  0  0  0  0  0  0  0  0  0
  148.2178  141.3415  156.5762 H   0  0  0  0  0  0  0  0  0  0  0  0
  145.5295  140.2946  155.5509 H   0  0  0  0  0  0  0  0  0  0  0  0
  145.8246  141.1443  157.0517 H   0  0  0  0  0  0  0  0  0  0  0  0
  145.7444  141.5767  153.4538 H   0  0  0  0  0  0  0  0  0  0  0  0
  146.2626  143.2379  153.5683 H   0  0  0  0  0  0  0  0  0  0  0  0
  148.4934  142.6366  154.2830 H   0  0  0  0  0  0  0  0  0  0  0  0
  148.1568  141.7778  152.8063 H   0  0  0  0  0  0  0  0  0  0  0  0
  1  2  1  0  0  0  0
  1 27  1  0  0  0  0
  1 28  1  0  0  0  0
  1 29  1  0  0  0  0
  2  3  1  0  0  0  0
  2  7  1  0  0  0  0
  2 30  1  0  0  0  0
  3  4  1  0  0  0  0
  3 31  1  0  0  0  0
  3 32  1  0  0  0  0
  4  5  1  0  0  0  0
  4  6  2  0  0  0  0
  5 33  1  0  0  0  0
  5 34  1  0  0  0  0
  5 35  1  0  0  0  0
  7  8  1  0  0  0  0
  7  9  1  0  0  0  0
  8 36  1  0  0  0  0
  8 37  1  0  0  0  0
  8 38  1  0  0  0  0
  9 14  1  0  0  0  0
  9 10  2  0  0  0  0
 10 11  1  0  0  0  0
 11 12  2  0  0  0  0
 11 39  1  0  0  0  0
 12 13  1  0  0  0  0
 13 17  1  0  0  0  0
 13 14  2  0  0  0  0
 14 15  1  0  0  0  0
 15 16  2  0  0  0  0
 16 17  1  0  0  0  0
 16 40  1  0  0  0  0
 17 18  1  0  0  0  0
 18 19  1  0  0  0  0
 18 41  1  0  0  0  0
 18 42  1  0  0  0  0
 19 26  1  0  0  0  0
 19 20  1  0  0  0  0
 19 22  1  0  0  0  0
 20 21  1  0  0  0  0
 20 43  1  0  0  0  0
 20 44  1  0  0  0  0
 21 45  1  0  0  0  0
 22 23  1  0  0  0  0
 22 46  1  0  0  0  0
 22 47  1  0  0  0  0
 23 24  1  0  0  0  0
 23 48  1  0  0  0  0
 23 49  1  0  0  0  0
 24 25  1  0  0  0  0
 25 26  1  0  0  0  0
 25 50  1  0  0  0  0
 25 51  1  0  0  0  0
 26 52  1  0  0  0  0
 26 53  1  0  0  0  0
M  END
> <s_m_source_file>
AV-unprocessed.smi

> <i_m_source_file_index>
194

> <i_lp_mmshare_version>
43012

> <i_f3d_flags>
0

> <s_epik_input>
W0NIM11bU0BAXSg9TylbQ0gyXVtDQEBIXShbQ0gzXSlOKFtDSDNdKWMobltjSF1uMSljKGMxMiluW2NIXW4yW0NIMl1DMyhbQ0gyXVtPSF0pW0NIMl1bQ0gyXU9bQ0gyXVtDSDJdMw==

> <s_epik_cmdline>
J2VwaWtfcHl0aG9uJywgJy1waCcsICc3LjAnLCAnLXRuJywgJzgnLCAnLW1hJywgJzIwMCcsICctbWV0YWxfYmluZGluZycsICctaW1hZScsICc8aW5maWxlLm1hZT4nLCAnLW9tYWUnLCAnPG91dGZpbGUubWFlPic=

> <r_lp_tautomer_probability>
1

> <r_epik_Ionization_Penalty>
0.00101625

> <r_epik_Ionization_Penalty_Charging>
0

> <r_epik_Ionization_Penalty_Neutral>
0.00101625

> <r_epik_State_Penalty>
0.000568005

> <r_epik_Charging_Adjusted_Penalty>
0.000568005

> <i_epik_Tot_Q>
0

> <i_epik_Tot_abs_Q>
0

> <r_epik_Metal_State_Penalty>
-0

> <b_epik_Metal_Only>
0

> <s_lp_Force_Field>
OPLS_2005

> <r_lp_Energy>
28.7742

> <b_lp_Chiralities_Consistent>
1

> <s_lp_Variant>
AV-unprocessed.smi:194-3

> <Gold.Version>
5.8.1

> <Gold.Id.Protein>
6NUR|6NUR_protein|mol2

> <Gold.PLP.Fitness>
52.2477

> <Gold.PLP.PLP>
-45.6492

> <Gold.PLP.part.hbond>
-2.5328

> <Gold.PLP.part.metal>
0.0000

> <Gold.PLP.part.buried>
-4.1047

> <Gold.PLP.part.nonpolar>
-37.6063

> <Gold.PLP.part.repulsive>
0.2931

> <Gold.PLP.ligand.clash>
0.0000

> <Gold.PLP.ligand.torsion>
1.6735

> <Gold.PLP.Chemscore.Hbond>
2.0000

> <Gold.PLP.Chemscore.CHOScore>
1.0000

> <Gold.PLP.Chemscore.Metal>
0.0000

> <Gold.Chemscore.Hbonds>
donor molecule, donor type, donor heavy atom, donor atom, acceptor molecule, acceptor atom, score
      L1  H    21    45       P1  7948  0.86
      P1  H  7997  8010       L1     6  0.26
      L1  C    16    40       P1  8028  0.78

> <Gold.PLP.Chemscore.Internal.Correction>
0.9456

> <Gold.Rescore>
     Score         DG    S(hbond)    S(metal)    S(lipo)     H(rot)  DE(clash)    DE(int)     intcor
      9.94     -13.82       1.99        0.00      80.91       3.03       0.00       3.88       ----

> <Gold.Chemscore.Fitness>
9.9376

> <Gold.Chemscore.DG>
-13.8218

> <Gold.Chemscore.ZeroCoef>
-5.4800

> <Gold.Chemscore.Hbond>
1.9851

> <Gold.Chemscore.Metal>
0.0000

> <Gold.Chemscore.Lipo>
80.9145

> <Gold.Chemscore.Internal_Hbond>
0.0000

> <Gold.Chemscore.DEClash>
0.0021

> <Gold.Chemscore.DEInternal>
3.8821

> <Gold.Chemscore.Rot>
3.0295

> <Gold.Chemscore.Internal.Correction>
   9.000000E+99

> <Gold.Chemscore.Hbonds>
donor molecule, donor type, donor heavy atom, donor atom, acceptor molecule, acceptor atom, score
      L1  H    21    45       P1  7948  0.84
      P1  H  7997  8010       L1     6  0.24

> <Gold.Chemscore.Hbond.Weighted>
-6.6304

> <Gold.Chemscore.Metal.Weighted>
-0.0000

> <Gold.Chemscore.Lipo.Weighted>
-9.4670

> <Gold.Chemscore.Internal_Hbond.Weighted>
0.0000

> <Gold.Chemscore.DEClash.Weighted>
0.0021

> <Gold.Chemscore.DEInternal.Weighted>
3.8821

> <Gold.Chemscore.Rot.Weighted>
7.7555

> <Gold.Chemscore.Internal.Correction.Weighted>
   9.000000E+99

> <Gold.Protein.RotatedTorsions>
[ 6907 6896 6895 6894 ] final -176.93 input  -60.11 | X-H torsion
[ 7974 7965 7964 7962 ] final  148.16 input  175.53 | X-H torsion
[ 8008 7997 7996 7995 ] final  -33.98 input   59.86 | X-H torsion
[ 10167 10162 10161 10158 ] final -127.58 input  -65.29 | X-H torsion
[ 10718 10713 10712 10709 ] final  106.31 input   66.30 | X-H torsion
[ 10763 10752 10751 10750 ] final   -5.91 input  -60.55 | X-H torsion
[ 11005 11000 10999 10996 ] final  131.66 input  -57.11 | X-H torsion

> <Gold.Protein.ActiveResidues>
 VAL166  LYS551  ARG553  GLY616  TRP617  ASP618  TYR619  PRO620  LYS621  CYS622 
 ASP623  PHE694  ASN695  SER759  ASP760  ASP761  ALA762  ILE779  LEU786  VAL792 
 PHE793  MET794  SER795  GLU796  ALA797  LYS798  CYS799  TRP800  GLU811  SER814 

> <Gold.Protein.RotatedAtoms>
  151.6128  133.3346  159.3070 H   0  0  0  0  0  0  0  0  0  0  0  0  # atno 6907 bound_to 6896
  150.8147  134.7326  159.6731 H   0  0  0  0  0  0  0  0  0  0  0  0  # atno 6908 bound_to 6896
  152.4243  134.5902  160.0023 H   0  0  0  0  0  0  0  0  0  0  0  0  # atno 6909 bound_to 6896
  144.8535  139.6119  143.5963 H   0  0  0  0  0  0  0  0  0  0  0  0  # atno 7974 bound_to 7965
  154.4133  140.1696  156.1975 H   0  0  0  0  0  0  0  0  0  0  0  0  # atno 8008 bound_to 7997
  155.9552  140.3398  155.6418 H   0  0  0  0  0  0  0  0  0  0  0  0  # atno 8009 bound_to 7997
  155.6819  140.0723  157.2472 H   0  0  0  0  0  0  0  0  0  0  0  0  # atno 8010 bound_to 7997
  139.9593  143.5967  152.2450 H   0  0  0  0  0  0  0  0  0  0  0  0  # atno 10167 bound_to 10162
  157.6673  131.0848  150.5988 H   0  0  0  0  0  0  0  0  0  0  0  0  # atno 10718 bound_to 10713
  153.4051  135.7006  153.6399 H   0  0  0  0  0  0  0  0  0  0  0  0  # atno 10763 bound_to 10752
  153.4916  135.3671  155.2495 H   0  0  0  0  0  0  0  0  0  0  0  0  # atno 10764 bound_to 10752
  154.8713  135.4090  154.3393 H   0  0  0  0  0  0  0  0  0  0  0  0  # atno 10765 bound_to 10752
  139.9744  134.9568  156.9471 H   0  0  0  0  0  0  0  0  0  0  0  0  # atno 11005 bound_to 11000
  146.2804  139.6863  142.9233 LP  0  0  0  0  0  0  0  0  0  0  0  0  # atno 17320 bound_to 7965
  145.4452  141.0425  143.2835 LP  0  0  0  0  0  0  0  0  0  0  0  0  # atno 17321 bound_to 7965
  139.6566  144.7662  151.2043 LP  0  0  0  0  0  0  0  0  0  0  0  0  # atno 17342 bound_to 10162
  140.7558  143.6076  150.8638 LP  0  0  0  0  0  0  0  0  0  0  0  0  # atno 17343 bound_to 10162
  156.6289  130.4426  149.5794 LP  0  0  0  0  0  0  0  0  0  0  0  0  # atno 17370 bound_to 10713
  156.2297  130.6787  151.1451 LP  0  0  0  0  0  0  0  0  0  0  0  0  # atno 17371 bound_to 10713
  140.5226  134.0892  155.7296 LP  0  0  0  0  0  0  0  0  0  0  0  0  # atno 17394 bound_to 11000
  141.1422  133.9119  157.2300 LP  0  0  0  0  0  0  0  0  0  0  0  0  # atno 17395 bound_to 11000

$$$$
