AV-unprocessed.smi:1473|AV-procd|sdf|5970|dock3
  -GOLD-   22720 6 53D 1   1.00000     0.00000
 Structure written by MMmdl.
 33 34  0  0  0  0  0  0  0  0  2 V2000
  154.1517  136.0915  156.7698 N   0  5  0  0  0  0  0  0  0  0  0  0
  153.4294  137.0499  157.8466 S   0  0  0  0  0  0  0  0  0  0  0  0
  153.0877  136.3740  159.1079 O   0  0  0  0  0  0  0  0  0  0  0  0
  154.0086  138.4001  157.9161 O   0  0  0  0  0  0  0  0  0  0  0  0
  151.9512  137.2192  156.9848 N   0  0  0  0  0  0  0  0  0  0  0  0
  151.8852  137.9833  155.7435 C   0  0  0  0  0  0  0  0  0  0  0  0
  151.3061  139.3656  155.9583 C   0  0  0  0  0  0  0  0  0  0  0  0
  150.2111  139.8124  155.1919 C   0  0  0  0  0  0  0  0  0  0  0  0
  149.7200  141.1124  155.4202 C   0  0  0  0  0  0  0  0  0  0  0  0
  150.2473  141.9538  156.3351 N   0  0  0  0  0  0  0  0  0  0  0  0
  151.3045  141.5252  157.0668 C   0  0  0  0  0  0  0  0  0  0  0  0
  151.8618  142.4003  158.0100 N   0  0  0  0  0  0  0  0  0  0  0  0
  151.3914  143.7738  157.8783 C   0  0  0  0  0  0  0  0  0  0  0  0
  152.1433  144.6839  158.8645 C   0  0  0  0  0  0  0  0  0  0  0  0
  151.9871  144.1832  160.1894 O   0  0  0  0  0  0  0  0  0  0  0  0
  152.5157  142.8673  160.3295 C   0  0  0  0  0  0  0  0  0  0  0  0
  151.7754  141.9093  159.3796 C   0  0  0  0  0  0  0  0  0  0  0  0
  151.8648  140.2398  156.9126 C   0  0  0  0  0  0  0  0  0  0  0  0
  155.1673  136.2170  156.8590 H   0  0  0  0  0  0  0  0  0  0  0  0
  151.1004  137.1680  157.5441 H   0  0  0  0  0  0  0  0  0  0  0  0
  152.8884  138.0785  155.3266 H   0  0  0  0  0  0  0  0  0  0  0  0
  151.2902  137.4313  155.0153 H   0  0  0  0  0  0  0  0  0  0  0  0
  149.7596  139.1764  154.4445 H   0  0  0  0  0  0  0  0  0  0  0  0
  148.8825  141.4879  154.8510 H   0  0  0  0  0  0  0  0  0  0  0  0
  151.5452  144.1202  156.8555 H   0  0  0  0  0  0  0  0  0  0  0  0
  150.3198  143.8193  158.0780 H   0  0  0  0  0  0  0  0  0  0  0  0
  153.2028  144.7435  158.6095 H   0  0  0  0  0  0  0  0  0  0  0  0
  151.7465  145.6979  158.8176 H   0  0  0  0  0  0  0  0  0  0  0  0
  153.5869  142.8713  160.1213 H   0  0  0  0  0  0  0  0  0  0  0  0
  152.3929  142.5425  161.3627 H   0  0  0  0  0  0  0  0  0  0  0  0
  150.7291  141.8284  159.6778 H   0  0  0  0  0  0  0  0  0  0  0  0
  152.2083  140.9101  159.4424 H   0  0  0  0  0  0  0  0  0  0  0  0
  152.7109  139.9320  157.5102 H   0  0  0  0  0  0  0  0  0  0  0  0
  1  2  1  0  0  0  0
  1 19  1  0  0  0  0
  2  3  2  0  0  0  0
  2  4  2  0  0  0  0
  2  5  1  0  0  0  0
  5  6  1  0  0  0  0
  5 20  1  0  0  0  0
  6  7  1  0  0  0  0
  6 21  1  0  0  0  0
  6 22  1  0  0  0  0
  7 18  1  0  0  0  0
  7  8  2  0  0  0  0
  8  9  1  0  0  0  0
  8 23  1  0  0  0  0
  9 10  2  0  0  0  0
  9 24  1  0  0  0  0
 10 11  1  0  0  0  0
 11 12  1  0  0  0  0
 11 18  2  0  0  0  0
 12 17  1  0  0  0  0
 12 13  1  0  0  0  0
 13 14  1  0  0  0  0
 13 25  1  0  0  0  0
 13 26  1  0  0  0  0
 14 15  1  0  0  0  0
 14 27  1  0  0  0  0
 14 28  1  0  0  0  0
 15 16  1  0  0  0  0
 16 17  1  0  0  0  0
 16 29  1  0  0  0  0
 16 30  1  0  0  0  0
 17 31  1  0  0  0  0
 17 32  1  0  0  0  0
 18 33  1  0  0  0  0
M  CHG  1   1  -1
M  END
> <s_m_source_file>
AV-unprocessed.smi

> <i_m_source_file_index>
1473

> <i_lp_mmshare_version>
43012

> <i_f3d_flags>
0

> <s_epik_input>
W05IMl1TKD1PKSg9TylbTkhdW0NIMl1jMVtjSF1bY0hdbmMoW2NIXTEpTjJbQ0gyXVtDSDJdT1tDSDJdW0NIMl0y

> <s_epik_cmdline>
J2VwaWtfcHl0aG9uJywgJy1waCcsICc3LjAnLCAnLXRuJywgJzgnLCAnLW1hJywgJzIwMCcsICctbWV0YWxfYmluZGluZycsICctaW1hZScsICc8aW5maWxlLm1hZT4nLCAnLW9tYWUnLCAnPG91dGZpbGUubWFlPic=

> <r_lp_tautomer_probability>
1

> <r_epik_Ionization_Penalty>
2.7939

> <r_epik_Ionization_Penalty_Charging>
2.75358

> <r_epik_Ionization_Penalty_Neutral>
0.0403146

> <r_epik_State_Penalty>
2.98411

> <r_epik_Charging_Adjusted_Penalty>
5.73769

> <i_epik_Tot_Q>
-1

> <i_epik_Tot_abs_Q>
1

> <r_epik_Metal_State_Penalty>
0.875881

> <b_epik_Metal_Only>
1

> <s_lp_Force_Field>
OPLS_2005

> <r_lp_Energy>
15.423

> <b_lp_Chiralities_Consistent>
1

> <s_lp_Variant>
AV-unprocessed.smi:1473-5

> <Gold.Version>
5.8.1

> <Gold.Id.Protein>
6NUR|6NUR_protein|mol2

> <Gold.PLP.Fitness>
42.7408

> <Gold.PLP.PLP>
-31.3777

> <Gold.PLP.part.hbond>
-3.0000

> <Gold.PLP.part.metal>
0.0000

> <Gold.PLP.part.buried>
-3.6938

> <Gold.PLP.part.nonpolar>
-25.3701

> <Gold.PLP.part.repulsive>
0.3184

> <Gold.PLP.ligand.clash>
0.0000

> <Gold.PLP.ligand.torsion>
0.8408

> <Gold.PLP.Chemscore.Hbond>
3.9600

> <Gold.PLP.Chemscore.CHOScore>
0.0000

> <Gold.PLP.Chemscore.Metal>
0.0000

> <Gold.Chemscore.Hbonds>
donor molecule, donor type, donor heavy atom, donor atom, acceptor molecule, acceptor atom, score
      P1  H  6896  6907       L1     3  0.93
      P1  H  7997  8008       L1     4  0.96
      P1  H 10752 10765       L1     1  1.49

> <Gold.PLP.Chemscore.Internal.Correction>
1.1647

> <Gold.Rescore>
     Score         DG    S(hbond)    S(metal)    S(lipo)     H(rot)  DE(clash)    DE(int)     intcor
     18.35     -19.09       2.87        0.00      75.43       1.88       0.02       0.72       ----

> <Gold.Chemscore.Fitness>
18.3517

> <Gold.Chemscore.DG>
-19.0866

> <Gold.Chemscore.ZeroCoef>
-5.4800

> <Gold.Chemscore.Hbond>
2.8735

> <Gold.Chemscore.Metal>
0.0000

> <Gold.Chemscore.Lipo>
75.4312

> <Gold.Chemscore.Internal_Hbond>
0.0000

> <Gold.Chemscore.DEClash>
0.0186

> <Gold.Chemscore.DEInternal>
0.7163

> <Gold.Chemscore.Rot>
1.8814

> <Gold.Chemscore.Internal.Correction>
   9.000000E+99

> <Gold.Chemscore.Hbonds>
donor molecule, donor type, donor heavy atom, donor atom, acceptor molecule, acceptor atom, score
      P1  H  6896  6907       L1     3  0.89
      P1  H  7997  8008       L1     4  0.91
      P1  H 10752 10765       L1     1  0.09

> <Gold.Chemscore.Hbond.Weighted>
-9.5976

> <Gold.Chemscore.Metal.Weighted>
-0.0000

> <Gold.Chemscore.Lipo.Weighted>
-8.8255

> <Gold.Chemscore.Internal_Hbond.Weighted>
0.0000

> <Gold.Chemscore.DEClash.Weighted>
0.0186

> <Gold.Chemscore.DEInternal.Weighted>
0.7163

> <Gold.Chemscore.Rot.Weighted>
4.8165

> <Gold.Chemscore.Internal.Correction.Weighted>
   9.000000E+99

> <Gold.Protein.RotatedTorsions>
[ 6907 6896 6895 6894 ] final   37.03 input  -60.11 | X-H torsion
[ 7974 7965 7964 7962 ] final -172.31 input  175.53 | X-H torsion
[ 8008 7997 7996 7995 ] final -107.64 input   59.86 | X-H torsion
[ 10167 10162 10161 10158 ] final  -49.97 input  -65.29 | X-H torsion
[ 10718 10713 10712 10709 ] final -152.36 input   66.30 | X-H torsion
[ 10763 10752 10751 10750 ] final  -80.34 input  -60.55 | X-H torsion
[ 11005 11000 10999 10996 ] final   -5.61 input  -57.11 | X-H torsion

> <Gold.Protein.ActiveResidues>
 VAL166  LYS551  ARG553  GLY616  TRP617  ASP618  TYR619  PRO620  LYS621  CYS622 
 ASP623  PHE694  ASN695  SER759  ASP760  ASP761  ALA762  ILE779  LEU786  VAL792 
 PHE793  MET794  SER795  GLU796  ALA797  LYS798  CYS799  TRP800  GLU811  SER814 

> <Gold.Protein.RotatedAtoms>
  152.1377  134.9087  160.0555 H   0  0  0  0  0  0  0  0  0  0  0  0  # atno 6907 bound_to 6896
  152.0167  133.3877  159.4250 H   0  0  0  0  0  0  0  0  0  0  0  0  # atno 6908 bound_to 6896
  150.6862  134.3593  159.4987 H   0  0  0  0  0  0  0  0  0  0  0  0  # atno 6909 bound_to 6896
  144.7147  140.1791  143.6360 H   0  0  0  0  0  0  0  0  0  0  0  0  # atno 7974 bound_to 7965
  154.9324  140.0404  157.2055 H   0  0  0  0  0  0  0  0  0  0  0  0  # atno 8008 bound_to 7997
  154.8148  140.2874  155.5806 H   0  0  0  0  0  0  0  0  0  0  0  0  # atno 8009 bound_to 7997
  156.2975  140.2530  156.3043 H   0  0  0  0  0  0  0  0  0  0  0  0  # atno 8010 bound_to 7997
  140.6660  143.2676  151.4292 H   0  0  0  0  0  0  0  0  0  0  0  0  # atno 10167 bound_to 10162
  156.4714  130.8260  151.2489 H   0  0  0  0  0  0  0  0  0  0  0  0  # atno 10718 bound_to 10713
  154.5499  135.5664  153.6913 H   0  0  0  0  0  0  0  0  0  0  0  0  # atno 10763 bound_to 10752
  152.9987  135.6248  154.2388 H   0  0  0  0  0  0  0  0  0  0  0  0  # atno 10764 bound_to 10752
  154.2322  135.2865  155.2865 H   0  0  0  0  0  0  0  0  0  0  0  0  # atno 10765 bound_to 10752
  140.6930  133.9055  155.8631 H   0  0  0  0  0  0  0  0  0  0  0  0  # atno 11005 bound_to 11000
  145.8873  139.2356  143.1570 LP  0  0  0  0  0  0  0  0  0  0  0  0  # atno 17320 bound_to 7965
  145.9937  140.8580  143.0053 LP  0  0  0  0  0  0  0  0  0  0  0  0  # atno 17321 bound_to 7965
  139.5909  144.1501  152.2087 LP  0  0  0  0  0  0  0  0  0  0  0  0  # atno 17342 bound_to 10162
  140.0856  144.5664  150.7091 LP  0  0  0  0  0  0  0  0  0  0  0  0  # atno 17343 bound_to 10162
  157.7491  131.0075  150.3192 LP  0  0  0  0  0  0  0  0  0  0  0  0  # atno 17370 bound_to 10713
  156.3614  130.3847  149.7248 LP  0  0  0  0  0  0  0  0  0  0  0  0  # atno 17371 bound_to 10713
  141.0226  134.0868  157.4104 LP  0  0  0  0  0  0  0  0  0  0  0  0  # atno 17394 bound_to 11000
  139.8918  135.0121  156.6811 LP  0  0  0  0  0  0  0  0  0  0  0  0  # atno 17395 bound_to 11000

$$$$
