AV-unprocessed.smi:1406|AV-procd|sdf|5718|dock2
  -GOLD-   22720 5353D 1   1.00000     0.00000
 Structure written by MMmdl.
 41 43  0  0  0  0  0  0  0  0  2 V2000
  147.0909  139.9140  153.2842 C   0  0  0  0  0  0  0  0  0  0  0  0
  147.5639  139.4764  154.6853 C   0  0  1  0  0  0  0  0  0  0  0  0
  147.0547  138.0805  155.0778 C   0  0  0  0  0  0  0  0  0  0  0  0
  146.3833  137.9163  156.0969 O   0  0  0  0  0  0  0  0  0  0  0  0
  147.3813  137.0760  154.2496 N   0  0  0  0  0  0  0  0  0  0  0  0
  146.9635  135.6862  154.4136 C   0  0  2  0  0  0  0  0  0  0  0  0
  148.1266  134.7021  154.6605 C   0  0  0  0  0  0  0  0  0  0  0  0
  147.7883  133.4771  153.8049 C   0  0  0  0  0  0  0  0  0  0  0  0
  147.0925  134.0633  152.6535 N   0  3  1  0  0  0  0  0  0  0  0  0
  146.3897  133.1618  151.7179 C   0  0  0  0  0  0  0  0  0  0  0  0
  145.8984  133.9949  150.5141 C   0  0  0  0  0  0  0  0  0  0  0  0
  145.0766  135.2298  150.9509 C   0  0  0  0  0  0  0  0  0  0  0  0
  145.8149  136.0606  152.0233 C   0  0  0  0  0  0  0  0  0  0  0  0
  146.2226  135.1294  153.1786 C   0  0  2  0  0  0  0  0  0  0  0  0
  149.0141  139.5376  154.8211 N   0  0  0  0  0  0  0  0  0  0  0  0
  149.9719  139.0802  154.0115 C   0  0  0  0  0  0  0  0  0  0  0  0
  151.2017  139.3573  154.4209 N   0  0  0  0  0  0  0  0  0  0  0  0
  150.9116  140.0427  155.5665 C   0  0  0  0  0  0  0  0  0  0  0  0
  149.6170  140.1894  155.8467 N   0  0  0  0  0  0  0  0  0  0  0  0
  146.0024  139.9078  153.2166 H   0  0  0  0  0  0  0  0  0  0  0  0
  147.4741  139.2613  152.4987 H   0  0  0  0  0  0  0  0  0  0  0  0
  147.4245  140.9278  153.0615 H   0  0  0  0  0  0  0  0  0  0  0  0
  147.1455  140.1858  155.4013 H   0  0  0  0  0  0  0  0  0  0  0  0
  147.9351  137.2957  153.4345 H   0  0  0  0  0  0  0  0  0  0  0  0
  146.2761  135.6437  155.2611 H   0  0  0  0  0  0  0  0  0  0  0  0
  149.0674  135.1331  154.3139 H   0  0  0  0  0  0  0  0  0  0  0  0
  148.2483  134.4531  155.7152 H   0  0  0  0  0  0  0  0  0  0  0  0
  148.6728  132.9145  153.5051 H   0  0  0  0  0  0  0  0  0  0  0  0
  147.1148  132.8073  154.3419 H   0  0  0  0  0  0  0  0  0  0  0  0
  147.0684  132.3774  151.3814 H   0  0  0  0  0  0  0  0  0  0  0  0
  145.5538  132.6734  152.2213 H   0  0  0  0  0  0  0  0  0  0  0  0
  146.7615  134.3295  149.9371 H   0  0  0  0  0  0  0  0  0  0  0  0
  145.3073  133.3700  149.8438 H   0  0  0  0  0  0  0  0  0  0  0  0
  144.8482  135.8531  150.0859 H   0  0  0  0  0  0  0  0  0  0  0  0
  144.1175  134.8978  151.3507 H   0  0  0  0  0  0  0  0  0  0  0  0
  146.6945  136.5348  151.5855 H   0  0  0  0  0  0  0  0  0  0  0  0
  145.1683  136.8604  152.3863 H   0  0  0  0  0  0  0  0  0  0  0  0
  145.3158  134.6522  153.5571 H   0  0  0  0  0  0  0  0  0  0  0  0
  149.7660  138.5388  153.0999 H   0  0  0  0  0  0  0  0  0  0  0  0
  151.6770  140.4529  156.2089 H   0  0  0  0  0  0  0  0  0  0  0  0
  147.8107  134.5286  152.1167 H   0  0  0  0  0  0  0  0  0  0  0  0
  1  2  1  0  0  0  0
  1 20  1  0  0  0  0
  1 21  1  0  0  0  0
  1 22  1  0  0  0  0
  2  3  1  0  0  0  0
  2 15  1  0  0  0  0
  2 23  1  0  0  0  0
  3  4  2  0  0  0  0
  3  5  1  0  0  0  0
  5  6  1  0  0  0  0
  5 24  1  0  0  0  0
  6 14  1  0  0  0  0
  6  7  1  0  0  0  0
  6 25  1  0  0  0  0
  7  8  1  0  0  0  0
  7 26  1  0  0  0  0
  7 27  1  0  0  0  0
  8  9  1  0  0  0  0
  8 28  1  0  0  0  0
  8 29  1  0  0  0  0
  9 14  1  0  0  0  0
  9 10  1  0  0  0  0
  9 41  1  0  0  0  0
 10 11  1  0  0  0  0
 10 30  1  0  0  0  0
 10 31  1  0  0  0  0
 11 12  1  0  0  0  0
 11 32  1  0  0  0  0
 11 33  1  0  0  0  0
 12 13  1  0  0  0  0
 12 34  1  0  0  0  0
 12 35  1  0  0  0  0
 13 14  1  0  0  0  0
 13 36  1  0  0  0  0
 13 37  1  0  0  0  0
 14 38  1  0  0  0  0
 15 19  1  0  0  0  0
 15 16  1  0  0  0  0
 16 17  2  0  0  0  0
 16 39  1  0  0  0  0
 17 18  1  0  0  0  0
 18 19  2  0  0  0  0
 18 40  1  0  0  0  0
M  CHG  1   9   1
M  END
> <s_m_source_file>
AV-unprocessed.smi

> <i_m_source_file_index>
1406

> <i_lp_mmshare_version>
43012

> <i_f3d_flags>
0

> <s_epik_input>
bjFbY0hdbltjSF1uMVtDQEhdKFtDSDNdKUMoPU8pW05IXVtDQEhdKFtDSDJdW0NIMl0yKVtDQEBIXShOMjMpW0NIMl1bQ0gyXVtDSDJdW0NIMl0z

> <s_epik_cmdline>
J2VwaWtfcHl0aG9uJywgJy1waCcsICc3LjAnLCAnLXRuJywgJzgnLCAnLW1hJywgJzIwMCcsICctbWV0YWxfYmluZGluZycsICctaW1hZScsICc8aW5maWxlLm1hZT4nLCAnLW9tYWUnLCAnPG91dGZpbGUubWFlPic=

> <r_lp_tautomer_probability>
1

> <r_epik_Ionization_Penalty>
0.00197066

> <r_epik_Ionization_Penalty_Charging>
0.00196223

> <r_epik_Ionization_Penalty_Neutral>
8.43107e-06

> <r_epik_State_Penalty>
0.00133866

> <r_epik_Charging_Adjusted_Penalty>
0.00330089

> <i_epik_Tot_Q>
1

> <i_epik_Tot_abs_Q>
1

> <r_epik_Metal_State_Penalty>
-0

> <b_epik_Metal_Only>
0

> <s_lp_Force_Field>
OPLS_2005

> <r_lp_Energy>
46.7011

> <b_lp_Chiralities_Consistent>
1

> <s_lp_Variant>
AV-unprocessed.smi:1406-10

> <Gold.Version>
5.8.1

> <Gold.Id.Protein>
6NUR|6NUR_protein|mol2

> <Gold.PLP.Fitness>
35.7322

> <Gold.PLP.PLP>
-23.0034

> <Gold.PLP.part.hbond>
-3.0000

> <Gold.PLP.part.metal>
0.0000

> <Gold.PLP.part.buried>
0.6610

> <Gold.PLP.part.nonpolar>
-20.5970

> <Gold.PLP.part.repulsive>
0.1479

> <Gold.PLP.ligand.clash>
0.0000

> <Gold.PLP.ligand.torsion>
0.4153

> <Gold.PLP.Chemscore.Hbond>
3.2809

> <Gold.PLP.Chemscore.CHOScore>
1.2057

> <Gold.PLP.Chemscore.Metal>
0.0000

> <Gold.Chemscore.Hbonds>
donor molecule, donor type, donor heavy atom, donor atom, acceptor molecule, acceptor atom, score
      L1  H     5    24       P1  7948  0.54
      L1  H     9    41       P1  7948  1.95
      P1  H  7989  7998       L1    17  0.70
      L1  C    16    39       P1  7948  0.58
      L1  C    16    39       P1  7957  0.65

> <Gold.PLP.Chemscore.Internal.Correction>
0.0996

> <Gold.Rescore>
     Score         DG    S(hbond)    S(metal)    S(lipo)     H(rot)  DE(clash)    DE(int)     intcor
      9.78     -10.61       1.42        0.00      44.49       1.89       0.38       0.44       ----

> <Gold.Chemscore.Fitness>
9.7819

> <Gold.Chemscore.DG>
-10.6092

> <Gold.Chemscore.ZeroCoef>
-5.4800

> <Gold.Chemscore.Hbond>
1.4233

> <Gold.Chemscore.Metal>
0.0000

> <Gold.Chemscore.Lipo>
44.4857

> <Gold.Chemscore.Internal_Hbond>
0.0000

> <Gold.Chemscore.DEClash>
0.3840

> <Gold.Chemscore.DEInternal>
0.4433

> <Gold.Chemscore.Rot>
1.8865

> <Gold.Chemscore.Internal.Correction>
   9.000000E+99

> <Gold.Chemscore.Hbonds>
donor molecule, donor type, donor heavy atom, donor atom, acceptor molecule, acceptor atom, score
      L1  H     5    24       P1  7948  0.52
      L1  H     9    41       P1  7948  0.35
      P1  H  7989  7998       L1    17  0.03

> <Gold.Chemscore.Hbond.Weighted>
-4.7539

> <Gold.Chemscore.Metal.Weighted>
-0.0000

> <Gold.Chemscore.Lipo.Weighted>
-5.2048

> <Gold.Chemscore.Internal_Hbond.Weighted>
0.0000

> <Gold.Chemscore.DEClash.Weighted>
0.3840

> <Gold.Chemscore.DEInternal.Weighted>
0.4433

> <Gold.Chemscore.Rot.Weighted>
4.8295

> <Gold.Chemscore.Internal.Correction.Weighted>
   9.000000E+99

> <Gold.Protein.RotatedTorsions>
[ 6907 6896 6895 6894 ] final    6.91 input  -60.11 | X-H torsion
[ 7974 7965 7964 7962 ] final -140.93 input  175.53 | X-H torsion
[ 8008 7997 7996 7995 ] final  -15.46 input   59.86 | X-H torsion
[ 10167 10162 10161 10158 ] final  -10.89 input  -65.29 | X-H torsion
[ 10718 10713 10712 10709 ] final   38.52 input   66.30 | X-H torsion
[ 10763 10752 10751 10750 ] final  154.41 input  -60.55 | X-H torsion
[ 11005 11000 10999 10996 ] final -158.98 input  -57.11 | X-H torsion

> <Gold.Protein.ActiveResidues>
 VAL166  LYS551  ARG553  GLY616  TRP617  ASP618  TYR619  PRO620  LYS621  CYS622 
 ASP623  PHE694  ASN695  SER759  ASP760  ASP761  ALA762  ILE779  LEU786  VAL792 
 PHE793  MET794  SER795  GLU796  ALA797  LYS798  CYS799  TRP800  GLU811  SER814 

> <Gold.Protein.RotatedAtoms>
  151.6813  135.0961  160.0216 H   0  0  0  0  0  0  0  0  0  0  0  0  # atno 6907 bound_to 6896
  152.3834  133.6573  159.6187 H   0  0  0  0  0  0  0  0  0  0  0  0  # atno 6908 bound_to 6896
  150.7765  133.8993  159.3377 H   0  0  0  0  0  0  0  0  0  0  0  0  # atno 6909 bound_to 6896
  144.8559  140.6141  143.5360 H   0  0  0  0  0  0  0  0  0  0  0  0  # atno 7974 bound_to 7965
  154.5129  140.2196  155.9122 H   0  0  0  0  0  0  0  0  0  0  0  0  # atno 8008 bound_to 7997
  156.1573  140.3149  155.8714 H   0  0  0  0  0  0  0  0  0  0  0  0  # atno 8009 bound_to 7997
  155.3821  140.0473  157.3034 H   0  0  0  0  0  0  0  0  0  0  0  0  # atno 8010 bound_to 7997
  140.7125  143.5699  150.9104 H   0  0  0  0  0  0  0  0  0  0  0  0  # atno 10167 bound_to 10162
  157.3598  130.7643  149.7039 H   0  0  0  0  0  0  0  0  0  0  0  0  # atno 10718 bound_to 10713
  154.1519  135.2814  155.3133 H   0  0  0  0  0  0  0  0  0  0  0  0  # atno 10763 bound_to 10752
  154.6211  135.5467  153.7579 H   0  0  0  0  0  0  0  0  0  0  0  0  # atno 10764 bound_to 10752
  153.0218  135.6439  154.1663 H   0  0  0  0  0  0  0  0  0  0  0  0  # atno 10765 bound_to 10752
  140.6476  134.4485  157.5234 H   0  0  0  0  0  0  0  0  0  0  0  0  # atno 11005 bound_to 11000
  145.4408  139.1536  143.3971 LP  0  0  0  0  0  0  0  0  0  0  0  0  # atno 17320 bound_to 7965
  146.2822  140.4529  142.8772 LP  0  0  0  0  0  0  0  0  0  0  0  0  # atno 17321 bound_to 7965
  139.9425  143.6366  152.3050 LP  0  0  0  0  0  0  0  0  0  0  0  0  # atno 17342 bound_to 10162
  139.6855  144.7652  151.1531 LP  0  0  0  0  0  0  0  0  0  0  0  0  # atno 17343 bound_to 10162
  155.9735  130.4117  150.3995 LP  0  0  0  0  0  0  0  0  0  0  0  0  # atno 17370 bound_to 10713
  157.2070  131.0451  151.2620 LP  0  0  0  0  0  0  0  0  0  0  0  0  # atno 17371 bound_to 10713
  139.9057  134.8454  156.1715 LP  0  0  0  0  0  0  0  0  0  0  0  0  # atno 17394 bound_to 11000
  141.0560  133.6865  156.1862 LP  0  0  0  0  0  0  0  0  0  0  0  0  # atno 17395 bound_to 11000

$$$$
