AV-unprocessed.smi:2379|AV-procd|sdf|9453|dock7
  -GOLD-   2272013 83D 1   1.00000     0.00000
 Structure written by MMmdl.
 53 55  0  0  0  0  0  0  0  0  2 V2000
  151.8139  145.0277  158.7212 C   0  0  0  0  0  0  0  0  0  0  0  0
  152.1158  143.5935  159.1017 C   0  0  0  0  0  0  0  0  0  0  0  0
  152.8909  143.2980  160.2393 C   0  0  0  0  0  0  0  0  0  0  0  0
  153.1365  141.9449  160.5436 C   0  0  0  0  0  0  0  0  0  0  0  0
  153.9626  141.5574  161.7519 C   0  0  0  0  0  0  0  0  0  0  0  0
  152.6662  140.9245  159.7944 N   0  0  0  0  0  0  0  0  0  0  0  0
  151.9181  141.1970  158.6968 C   0  0  0  0  0  0  0  0  0  0  0  0
  151.3698  140.1963  157.8510 N   0  0  0  0  0  0  0  0  0  0  0  0
  151.2759  140.2058  156.5096 C   0  0  0  0  0  0  0  0  0  0  0  0
  151.6128  141.1367  155.7777 O   0  0  0  0  0  0  0  0  0  0  0  0
  150.7551  139.0583  156.0496 N   0  0  0  0  0  0  0  0  0  0  0  0
  150.4991  138.7504  154.6423 C   0  0  2  0  0  0  0  0  0  0  0  0
  148.9934  138.5439  154.4021 C   0  0  0  0  0  0  0  0  0  0  0  0
  148.4845  137.2205  155.0044 C   0  0  0  0  0  0  0  0  0  0  0  0
  149.2643  136.0595  154.5003 N   0  3  2  0  0  0  0  0  0  0  0  0
  148.7093  134.7568  154.9532 C   0  0  0  0  0  0  0  0  0  0  0  0
  149.5845  133.5615  154.5252 C   0  0  2  0  0  0  0  0  0  0  0  0
  148.7816  132.3121  154.2189 C   0  0  0  0  0  0  0  0  0  0  0  0
  149.8491  131.2260  154.2796 C   0  0  0  0  0  0  0  0  0  0  0  0
  150.7640  131.6527  155.2821 O   0  0  0  0  0  0  0  0  0  0  0  0
  150.5473  133.0264  155.5893 C   0  0  0  0  0  0  0  0  0  0  0  0
  150.7129  136.2129  154.7959 C   0  0  0  0  0  0  0  0  0  0  0  0
  151.2707  137.5018  154.1700 C   0  0  0  0  0  0  0  0  0  0  0  0
  151.6208  142.5272  158.3238 C   0  0  0  0  0  0  0  0  0  0  0  0
  152.5180  145.7152  159.1909 H   0  0  0  0  0  0  0  0  0  0  0  0
  150.8068  145.2976  159.0393 H   0  0  0  0  0  0  0  0  0  0  0  0
  151.8814  145.1603  157.6411 H   0  0  0  0  0  0  0  0  0  0  0  0
  153.2865  144.0870  160.8624 H   0  0  0  0  0  0  0  0  0  0  0  0
  154.0168  142.3773  162.4687 H   0  0  0  0  0  0  0  0  0  0  0  0
  154.9771  141.3000  161.4474 H   0  0  0  0  0  0  0  0  0  0  0  0
  153.5259  140.6954  162.2576 H   0  0  0  0  0  0  0  0  0  0  0  0
  151.0173  139.3769  158.3228 H   0  0  0  0  0  0  0  0  0  0  0  0
  150.4999  138.3523  156.7247 H   0  0  0  0  0  0  0  0  0  0  0  0
  150.8230  139.6094  154.0518 H   0  0  0  0  0  0  0  0  0  0  0  0
  148.4265  139.3833  154.8068 H   0  0  0  0  0  0  0  0  0  0  0  0
  148.8016  138.5410  153.3283 H   0  0  0  0  0  0  0  0  0  0  0  0
  148.5386  137.2512  156.0937 H   0  0  0  0  0  0  0  0  0  0  0  0
  147.4324  137.0982  154.7436 H   0  0  0  0  0  0  0  0  0  0  0  0
  148.5364  134.7616  156.0307 H   0  0  0  0  0  0  0  0  0  0  0  0
  147.7274  134.6127  154.4998 H   0  0  0  0  0  0  0  0  0  0  0  0
  150.1524  133.8248  153.6310 H   0  0  0  0  0  0  0  0  0  0  0  0
  148.0303  132.1401  154.9912 H   0  0  0  0  0  0  0  0  0  0  0  0
  148.2757  132.3523  153.2538 H   0  0  0  0  0  0  0  0  0  0  0  0
  149.4356  130.2432  154.5068 H   0  0  0  0  0  0  0  0  0  0  0  0
  150.3800  131.1600  153.3290 H   0  0  0  0  0  0  0  0  0  0  0  0
  151.4911  133.5717  155.6060 H   0  0  0  0  0  0  0  0  0  0  0  0
  150.1018  133.0851  156.5832 H   0  0  0  0  0  0  0  0  0  0  0  0
  150.8688  136.2195  155.8759 H   0  0  0  0  0  0  0  0  0  0  0  0
  151.2733  135.3648  154.4081 H   0  0  0  0  0  0  0  0  0  0  0  0
  151.1992  137.4281  153.0840 H   0  0  0  0  0  0  0  0  0  0  0  0
  152.3342  137.5944  154.3920 H   0  0  0  0  0  0  0  0  0  0  0  0
  151.0211  142.7310  157.4484 H   0  0  0  0  0  0  0  0  0  0  0  0
  149.1644  136.0751  153.4953 H   0  0  0  0  0  0  0  0  0  0  0  0
  1  2  1  0  0  0  0
  1 25  1  0  0  0  0
  1 26  1  0  0  0  0
  1 27  1  0  0  0  0
  2 24  1  0  0  0  0
  2  3  2  0  0  0  0
  3  4  1  0  0  0  0
  3 28  1  0  0  0  0
  4  5  1  0  0  0  0
  4  6  2  0  0  0  0
  5 29  1  0  0  0  0
  5 30  1  0  0  0  0
  5 31  1  0  0  0  0
  6  7  1  0  0  0  0
  7  8  1  0  0  0  0
  7 24  2  0  0  0  0
  8  9  1  0  0  0  0
  8 32  1  0  0  0  0
  9 10  2  0  0  0  0
  9 11  1  0  0  0  0
 11 12  1  0  0  0  0
 11 33  1  0  0  0  0
 12 23  1  0  0  0  0
 12 13  1  0  0  0  0
 12 34  1  0  0  0  0
 13 14  1  0  0  0  0
 13 35  1  0  0  0  0
 13 36  1  0  0  0  0
 14 15  1  0  0  0  0
 14 37  1  0  0  0  0
 14 38  1  0  0  0  0
 15 16  1  0  0  0  0
 15 22  1  0  0  0  0
 15 53  1  0  0  0  0
 16 17  1  0  0  0  0
 16 39  1  0  0  0  0
 16 40  1  0  0  0  0
 17 21  1  0  0  0  0
 17 18  1  0  0  0  0
 17 41  1  0  0  0  0
 18 19  1  0  0  0  0
 18 42  1  0  0  0  0
 18 43  1  0  0  0  0
 19 20  1  0  0  0  0
 19 44  1  0  0  0  0
 19 45  1  0  0  0  0
 20 21  1  0  0  0  0
 21 46  1  0  0  0  0
 21 47  1  0  0  0  0
 22 23  1  0  0  0  0
 22 48  1  0  0  0  0
 22 49  1  0  0  0  0
 23 50  1  0  0  0  0
 23 51  1  0  0  0  0
 24 52  1  0  0  0  0
M  CHG  1  15   1
M  END
> <s_m_source_file>
AV-unprocessed.smi

> <i_m_source_file_index>
2379

> <i_lp_mmshare_version>
43012

> <i_f3d_flags>
0

> <s_epik_input>
W0NIM11jMVtjSF1jKFtDSDNdKW5jKFtjSF0xKVtOSF1DKD1PKVtOSF1bQ0hdMltDSDJdW0NIMl1OKFtDSDJdW0NIMl0yKVtDSDJdW0NAQEhdM1tDSDJdW0NIMl1PW0NIMl0z

> <s_epik_cmdline>
J2VwaWtfcHl0aG9uJywgJy1waCcsICc3LjAnLCAnLXRuJywgJzgnLCAnLW1hJywgJzIwMCcsICctbWV0YWxfYmluZGluZycsICctaW1hZScsICc8aW5maWxlLm1hZT4nLCAnLW9tYWUnLCAnPG91dGZpbGUubWFlPic=

> <r_epik_Ionization_Penalty>
0.00766556

> <r_epik_Ionization_Penalty_Charging>
0.00747775

> <r_epik_Ionization_Penalty_Neutral>
0.00018781

> <r_epik_State_Penalty>
0.00558817

> <r_epik_Charging_Adjusted_Penalty>
0.0130659

> <i_epik_Tot_Q>
1

> <i_epik_Tot_abs_Q>
1

> <r_epik_Metal_State_Penalty>
-0

> <b_epik_Metal_Only>
0

> <s_lp_Force_Field>
OPLS_2005

> <r_lp_Energy>
34.3762

> <b_lp_Chiralities_Consistent>
1

> <s_lp_Variant>
AV-unprocessed.smi:2379-3

> <Gold.Version>
5.8.1

> <Gold.Id.Protein>
6NUR|6NUR_protein|mol2

> <Gold.PLP.Fitness>
50.6201

> <Gold.PLP.PLP>
-45.6515

> <Gold.PLP.part.hbond>
-2.0000

> <Gold.PLP.part.metal>
0.0000

> <Gold.PLP.part.buried>
-0.7134

> <Gold.PLP.part.nonpolar>
-42.5955

> <Gold.PLP.part.repulsive>
0.1608

> <Gold.PLP.ligand.clash>
0.0000

> <Gold.PLP.ligand.torsion>
0.8395

> <Gold.PLP.Chemscore.Hbond>
2.2015

> <Gold.PLP.Chemscore.CHOScore>
0.0000

> <Gold.PLP.Chemscore.Metal>
0.0000

> <Gold.Chemscore.Hbonds>
donor molecule, donor type, donor heavy atom, donor atom, acceptor molecule, acceptor atom, score
      L1  H    15    53       P1  7948  2.00
      P1  H  7989  7998       L1    10  0.19

> <Gold.PLP.Chemscore.Internal.Correction>
0.0430

> <Gold.Rescore>
     Score         DG    S(hbond)    S(metal)    S(lipo)     H(rot)  DE(clash)    DE(int)     intcor
     18.36     -21.02       1.47        0.00     120.98       1.37       0.49       2.16       ----

> <Gold.Chemscore.Fitness>
18.3602

> <Gold.Chemscore.DG>
-21.0155

> <Gold.Chemscore.ZeroCoef>
-5.4800

> <Gold.Chemscore.Hbond>
1.4654

> <Gold.Chemscore.Metal>
0.0000

> <Gold.Chemscore.Lipo>
120.9805

> <Gold.Chemscore.Internal_Hbond>
0.0000

> <Gold.Chemscore.DEClash>
0.4908

> <Gold.Chemscore.DEInternal>
2.1644

> <Gold.Chemscore.Rot>
1.3725

> <Gold.Chemscore.Internal.Correction>
   9.000000E+99

> <Gold.Chemscore.Hbonds>
donor molecule, donor type, donor heavy atom, donor atom, acceptor molecule, acceptor atom, score
      L1  H    15    53       P1  7948  0.88
      P1  H  7989  7998       L1    10  0.19

> <Gold.Chemscore.Hbond.Weighted>
-4.8943

> <Gold.Chemscore.Metal.Weighted>
-0.0000

> <Gold.Chemscore.Lipo.Weighted>
-14.1547

> <Gold.Chemscore.Internal_Hbond.Weighted>
0.0000

> <Gold.Chemscore.DEClash.Weighted>
0.4908

> <Gold.Chemscore.DEInternal.Weighted>
2.1644

> <Gold.Chemscore.Rot.Weighted>
3.5136

> <Gold.Chemscore.Internal.Correction.Weighted>
   9.000000E+99

> <Gold.Protein.RotatedTorsions>
[ 6907 6896 6895 6894 ] final   49.87 input  -60.11 | X-H torsion
[ 7974 7965 7964 7962 ] final -125.39 input  175.53 | X-H torsion
[ 8008 7997 7996 7995 ] final  -33.18 input   59.86 | X-H torsion
[ 10167 10162 10161 10158 ] final  108.93 input  -65.29 | X-H torsion
[ 10718 10713 10712 10709 ] final -137.60 input   66.30 | X-H torsion
[ 10763 10752 10751 10750 ] final  104.12 input  -60.55 | X-H torsion
[ 11005 11000 10999 10996 ] final  -68.20 input  -57.11 | X-H torsion

> <Gold.Protein.ActiveResidues>
 VAL166  LYS551  ARG553  GLY616  TRP617  ASP618  TYR619  PRO620  LYS621  CYS622 
 ASP623  PHE694  ASN695  SER759  ASP760  ASP761  ALA762  ILE779  LEU786  VAL792 
 PHE793  MET794  SER795  GLU796  ALA797  LYS798  CYS799  TRP800  GLU811  SER814 

> <Gold.Protein.RotatedAtoms>
  152.2955  134.7672  160.0368 H   0  0  0  0  0  0  0  0  0  0  0  0  # atno 6907 bound_to 6896
  151.8203  133.3388  159.3590 H   0  0  0  0  0  0  0  0  0  0  0  0  # atno 6908 bound_to 6896
  150.7249  134.5509  159.5839 H   0  0  0  0  0  0  0  0  0  0  0  0  # atno 6909 bound_to 6896
  144.9981  140.7795  143.4513 H   0  0  0  0  0  0  0  0  0  0  0  0  # atno 7974 bound_to 7965
  154.4157  140.1717  156.1846 H   0  0  0  0  0  0  0  0  0  0  0  0  # atno 8008 bound_to 7997
  155.9654  140.3390  155.6504 H   0  0  0  0  0  0  0  0  0  0  0  0  # atno 8009 bound_to 7997
  155.6695  140.0710  157.2516 H   0  0  0  0  0  0  0  0  0  0  0  0  # atno 8010 bound_to 7997
  139.6807  144.7118  151.1521 H   0  0  0  0  0  0  0  0  0  0  0  0  # atno 10167 bound_to 10162
  156.2900  130.7369  151.1392 H   0  0  0  0  0  0  0  0  0  0  0  0  # atno 10718 bound_to 10713
  153.3618  135.3953  155.1724 H   0  0  0  0  0  0  0  0  0  0  0  0  # atno 10763 bound_to 10752
  154.8680  135.3681  154.5090 H   0  0  0  0  0  0  0  0  0  0  0  0  # atno 10764 bound_to 10752
  153.5550  135.7082  153.5634 H   0  0  0  0  0  0  0  0  0  0  0  0  # atno 10765 bound_to 10752
  141.1526  133.6735  156.6410 H   0  0  0  0  0  0  0  0  0  0  0  0  # atno 11005 bound_to 11000
  145.2191  139.2167  143.5102 LP  0  0  0  0  0  0  0  0  0  0  0  0  # atno 17320 bound_to 7965
  146.3446  140.2046  142.8589 LP  0  0  0  0  0  0  0  0  0  0  0  0  # atno 17321 bound_to 7965
  140.7651  143.5704  150.9002 LP  0  0  0  0  0  0  0  0  0  0  0  0  # atno 17342 bound_to 10162
  139.9376  143.6420  152.3061 LP  0  0  0  0  0  0  0  0  0  0  0  0  # atno 17343 bound_to 10162
  157.7339  131.0586  150.5550 LP  0  0  0  0  0  0  0  0  0  0  0  0  # atno 17370 bound_to 10713
  156.5665  130.4269  149.6039 LP  0  0  0  0  0  0  0  0  0  0  0  0  # atno 17371 bound_to 10713
  140.3393  134.7862  157.4386 LP  0  0  0  0  0  0  0  0  0  0  0  0  # atno 17394 bound_to 11000
  140.0951  134.5548  155.8406 LP  0  0  0  0  0  0  0  0  0  0  0  0  # atno 17395 bound_to 11000

$$$$
