AV-unprocessed.smi:3132|AV-procd|sdf|11931|dock3
  -GOLD-   2272017323D 1   1.00000     0.00000
 Structure written by MMmdl.
 34 35  0  0  0  0  0  0  0  0  2 V2000
  151.8671  140.1416  155.9661 C   0  0  0  0  0  0  0  0  0  0  0  0
  150.6249  140.8974  156.4563 C   0  0  2  0  0  0  0  0  0  0  0  0
  149.8591  141.5374  155.2781 C   0  0  0  0  0  0  0  0  0  0  0  0
  149.0883  140.5645  154.4969 N   0  0  0  0  0  0  0  0  0  0  0  0
  147.8565  140.7469  153.9221 C   0  0  0  0  0  0  0  0  0  0  0  0
  147.5335  139.5646  153.3077 C   0  0  0  0  0  0  0  0  0  0  0  0
  148.5832  138.7135  153.5280 N   0  3  0  0  0  0  0  0  0  0  0  0
  149.5297  139.3248  154.2473 C   0  0  0  0  0  0  0  0  0  0  0  0
  151.0407  141.9096  157.4261 N   0  0  0  0  0  0  0  0  0  0  0  0
  151.8148  141.7004  158.5040 C   0  0  0  0  0  0  0  0  0  0  0  0
  152.2457  140.5896  158.8152 O   0  0  0  0  0  0  0  0  0  0  0  0
  152.1314  142.9177  159.3848 C   0  0  1  0  0  0  0  0  0  0  0  0
  152.8547  144.0616  158.6481 C   0  0  0  0  0  0  0  0  0  0  0  0
  151.9612  145.2704  158.8720 C   0  0  0  0  0  0  0  0  0  0  0  0
  151.1575  144.8742  160.1028 C   0  0  0  0  0  0  0  0  0  0  0  0
  150.9252  143.4938  159.8836 O   0  0  0  0  0  0  0  0  0  0  0  0
  151.5950  139.3530  155.2640 H   0  0  0  0  0  0  0  0  0  0  0  0
  152.3957  139.6728  156.7970 H   0  0  0  0  0  0  0  0  0  0  0  0
  152.5662  140.8094  155.4610 H   0  0  0  0  0  0  0  0  0  0  0  0
  149.9776  140.1659  156.9437 H   0  0  0  0  0  0  0  0  0  0  0  0
  149.1736  142.3081  155.6336 H   0  0  0  0  0  0  0  0  0  0  0  0
  150.5540  142.0252  154.5930 H   0  0  0  0  0  0  0  0  0  0  0  0
  147.3125  141.6773  153.9975 H   0  0  0  0  0  0  0  0  0  0  0  0
  146.6581  139.2727  152.7458 H   0  0  0  0  0  0  0  0  0  0  0  0
  150.4620  138.8977  154.5718 H   0  0  0  0  0  0  0  0  0  0  0  0
  150.7338  142.8567  157.2538 H   0  0  0  0  0  0  0  0  0  0  0  0
  152.7327  142.5894  160.2338 H   0  0  0  0  0  0  0  0  0  0  0  0
  153.8369  144.2255  159.0924 H   0  0  0  0  0  0  0  0  0  0  0  0
  153.0033  143.8791  157.5828 H   0  0  0  0  0  0  0  0  0  0  0  0
  152.5202  146.1965  159.0078 H   0  0  0  0  0  0  0  0  0  0  0  0
  151.2913  145.3989  158.0209 H   0  0  0  0  0  0  0  0  0  0  0  0
  151.7396  145.0114  161.0155 H   0  0  0  0  0  0  0  0  0  0  0  0
  150.2252  145.4312  160.1966 H   0  0  0  0  0  0  0  0  0  0  0  0
  148.6368  137.7581  153.1974 H   0  0  0  0  0  0  0  0  0  0  0  0
  1  2  1  0  0  0  0
  1 17  1  0  0  0  0
  1 18  1  0  0  0  0
  1 19  1  0  0  0  0
  2  3  1  0  0  0  0
  2  9  1  0  0  0  0
  2 20  1  0  0  0  0
  3  4  1  0  0  0  0
  3 21  1  0  0  0  0
  3 22  1  0  0  0  0
  4  8  1  0  0  0  0
  4  5  1  0  0  0  0
  5  6  2  0  0  0  0
  5 23  1  0  0  0  0
  6  7  1  0  0  0  0
  6 24  1  0  0  0  0
  7  8  2  0  0  0  0
  7 34  1  0  0  0  0
  8 25  1  0  0  0  0
  9 10  1  0  0  0  0
  9 26  1  0  0  0  0
 10 11  2  0  0  0  0
 10 12  1  0  0  0  0
 12 16  1  0  0  0  0
 12 13  1  0  0  0  0
 12 27  1  0  0  0  0
 13 14  1  0  0  0  0
 13 28  1  0  0  0  0
 13 29  1  0  0  0  0
 14 15  1  0  0  0  0
 14 30  1  0  0  0  0
 14 31  1  0  0  0  0
 15 16  1  0  0  0  0
 15 32  1  0  0  0  0
 15 33  1  0  0  0  0
M  CHG  1   7   1
M  END
> <s_m_source_file>
AV-unprocessed.smi

> <i_m_source_file_index>
3132

> <i_lp_mmshare_version>
43012

> <i_f3d_flags>
0

> <s_epik_input>
W2NIXTFuW2NIXVtjSF1uMVtDSDJdW0NAQEhdKFtDSDNdKVtOSF1DKD1PKVtDQEBIXTJbQ0gyXVtDSDJdW0NIMl1PMg==

> <s_epik_cmdline>
J2VwaWtfcHl0aG9uJywgJy1waCcsICc3LjAnLCAnLXRuJywgJzgnLCAnLW1hJywgJzIwMCcsICctbWV0YWxfYmluZGluZycsICctaW1hZScsICc8aW5maWxlLm1hZT4nLCAnLW9tYWUnLCAnPG91dGZpbGUubWFlPic=

> <r_lp_tautomer_probability>
1

> <r_epik_Ionization_Penalty>
0.250802

> <r_epik_Ionization_Penalty_Charging>
0

> <r_epik_Ionization_Penalty_Neutral>
0.250802

> <r_epik_State_Penalty>
0.242139

> <r_epik_Charging_Adjusted_Penalty>
0.242139

> <i_epik_Tot_Q>
1

> <i_epik_Tot_abs_Q>
1

> <r_epik_Metal_State_Penalty>
0.533361

> <b_epik_Metal_Only>
0

> <s_lp_Force_Field>
OPLS_2005

> <r_lp_Energy>
20.312

> <b_lp_Chiralities_Consistent>
1

> <s_lp_Variant>
AV-unprocessed.smi:3132-3

> <Gold.Version>
5.8.1

> <Gold.Id.Protein>
6NUR|6NUR_protein|mol2

> <Gold.PLP.Fitness>
43.3906

> <Gold.PLP.PLP>
-38.3847

> <Gold.PLP.part.hbond>
-2.3858

> <Gold.PLP.part.metal>
0.0000

> <Gold.PLP.part.buried>
-2.7814

> <Gold.PLP.part.nonpolar>
-33.1383

> <Gold.PLP.part.repulsive>
0.1548

> <Gold.PLP.ligand.clash>
0.0000

> <Gold.PLP.ligand.torsion>
0.5049

> <Gold.PLP.Chemscore.Hbond>
2.0000

> <Gold.PLP.Chemscore.CHOScore>
0.0000

> <Gold.PLP.Chemscore.Metal>
0.0000

> <Gold.Chemscore.Hbonds>
donor molecule, donor type, donor heavy atom, donor atom, acceptor molecule, acceptor atom, score
      L1  H     7    34       P1  7948  1.98

> <Gold.PLP.Chemscore.Internal.Correction>
0.0158

> <Gold.Rescore>
     Score         DG    S(hbond)    S(metal)    S(lipo)     H(rot)  DE(clash)    DE(int)     intcor
     11.26     -13.48       0.99        0.00      82.32       1.93       0.04       2.19       ----

> <Gold.Chemscore.Fitness>
11.2550

> <Gold.Chemscore.DG>
-13.4824

> <Gold.Chemscore.ZeroCoef>
-5.4800

> <Gold.Chemscore.Hbond>
0.9923

> <Gold.Chemscore.Metal>
0.0000

> <Gold.Chemscore.Lipo>
82.3162

> <Gold.Chemscore.Internal_Hbond>
0.0000

> <Gold.Chemscore.DEClash>
0.0370

> <Gold.Chemscore.DEInternal>
2.1904

> <Gold.Chemscore.Rot>
1.9308

> <Gold.Chemscore.Internal.Correction>
   9.000000E+99

> <Gold.Chemscore.Hbonds>
donor molecule, donor type, donor heavy atom, donor atom, acceptor molecule, acceptor atom, score
      L1  H     7    34       P1  7948  0.91

> <Gold.Chemscore.Hbond.Weighted>
-3.3143

> <Gold.Chemscore.Metal.Weighted>
-0.0000

> <Gold.Chemscore.Lipo.Weighted>
-9.6310

> <Gold.Chemscore.Internal_Hbond.Weighted>
0.0000

> <Gold.Chemscore.DEClash.Weighted>
0.0370

> <Gold.Chemscore.DEInternal.Weighted>
2.1904

> <Gold.Chemscore.Rot.Weighted>
4.9429

> <Gold.Chemscore.Internal.Correction.Weighted>
   9.000000E+99

> <Gold.Protein.RotatedTorsions>
[ 6907 6896 6895 6894 ] final -109.16 input  -60.11 | X-H torsion
[ 7974 7965 7964 7962 ] final  -30.87 input  175.53 | X-H torsion
[ 8008 7997 7996 7995 ] final   43.33 input   59.86 | X-H torsion
[ 10167 10162 10161 10158 ] final -123.99 input  -65.29 | X-H torsion
[ 10718 10713 10712 10709 ] final  -18.74 input   66.30 | X-H torsion
[ 10763 10752 10751 10750 ] final -164.56 input  -60.55 | X-H torsion
[ 11005 11000 10999 10996 ] final  -49.38 input  -57.11 | X-H torsion

> <Gold.Protein.ActiveResidues>
 VAL166  LYS551  ARG553  GLY616  TRP617  ASP618  TYR619  PRO620  LYS621  CYS622 
 ASP623  PHE694  ASN695  SER759  ASP760  ASP761  ALA762  ILE779  LEU786  VAL792 
 PHE793  MET794  SER795  GLU796  ALA797  LYS798  CYS799  TRP800  GLU811  SER814 

> <Gold.Protein.RotatedAtoms>
  150.7545  133.9571  159.3503 H   0  0  0  0  0  0  0  0  0  0  0  0  # atno 6907 bound_to 6896
  151.7493  135.0834  160.0338 H   0  0  0  0  0  0  0  0  0  0  0  0  # atno 6908 bound_to 6896
  152.3476  133.6104  159.5958 H   0  0  0  0  0  0  0  0  0  0  0  0  # atno 6909 bound_to 6896
  146.1110  140.5595  142.8778 H   0  0  0  0  0  0  0  0  0  0  0  0  # atno 7974 bound_to 7965
  155.3010  140.3385  155.4247 H   0  0  0  0  0  0  0  0  0  0  0  0  # atno 8008 bound_to 7997
  156.2001  140.1730  156.7956 H   0  0  0  0  0  0  0  0  0  0  0  0  # atno 8009 bound_to 7997
  154.5548  140.0698  156.8710 H   0  0  0  0  0  0  0  0  0  0  0  0  # atno 8010 bound_to 7997
  139.9976  143.5575  152.2317 H   0  0  0  0  0  0  0  0  0  0  0  0  # atno 10167 bound_to 10162
  156.5553  130.4712  149.6432 H   0  0  0  0  0  0  0  0  0  0  0  0  # atno 10718 bound_to 10713
  154.7017  135.2989  154.9331 H   0  0  0  0  0  0  0  0  0  0  0  0  # atno 10763 bound_to 10752
  154.0261  135.6676  153.4780 H   0  0  0  0  0  0  0  0  0  0  0  0  # atno 10764 bound_to 10752
  153.0686  135.5074  154.8164 H   0  0  0  0  0  0  0  0  0  0  0  0  # atno 10765 bound_to 10752
  141.0756  133.6667  156.3578 H   0  0  0  0  0  0  0  0  0  0  0  0  # atno 11005 bound_to 11000
  144.7512  140.5194  143.6801 LP  0  0  0  0  0  0  0  0  0  0  0  0  # atno 17320 bound_to 7965
  145.5663  139.1481  143.3313 LP  0  0  0  0  0  0  0  0  0  0  0  0  # atno 17321 bound_to 7965
  139.6295  144.7642  151.2566 LP  0  0  0  0  0  0  0  0  0  0  0  0  # atno 17342 bound_to 10162
  140.7431  143.6504  150.8253 LP  0  0  0  0  0  0  0  0  0  0  0  0  # atno 17343 bound_to 10162
  156.2847  130.7091  151.1924 LP  0  0  0  0  0  0  0  0  0  0  0  0  # atno 17370 bound_to 10713
  157.7379  131.0546  150.5325 LP  0  0  0  0  0  0  0  0  0  0  0  0  # atno 17371 bound_to 10713
  140.5581  134.5962  157.5426 LP  0  0  0  0  0  0  0  0  0  0  0  0  # atno 17394 bound_to 11000
  139.9568  134.7521  156.0324 LP  0  0  0  0  0  0  0  0  0  0  0  0  # atno 17395 bound_to 11000

$$$$
