AV-unprocessed.smi:360|AV-procd|sdf|2419|dock7
  -GOLD-   2262022353D 1   1.00000     0.00000
 Structure written by MMmdl.
 37 38  0  0  0  0  0  0  0  0  1 V2000
  144.8044  143.4140  155.3331 C   0  0  0  0  0  0  0  0  0  0  0  0
  145.9048  143.6504  154.6036 C   0  0  0  0  0  0  0  0  0  0  0  0
  146.2165  142.9739  153.2874 C   0  0  0  0  0  0  0  0  0  0  0  0
  146.4620  141.5513  153.4500 N   0  0  0  0  0  0  0  0  0  0  0  0
  147.5660  140.9364  154.0261 C   0  0  0  0  0  0  0  0  0  0  0  0
  148.6848  141.6891  154.5709 C   0  0  0  0  0  0  0  0  0  0  0  0
  149.7096  141.1246  155.1096 N   0  0  0  0  0  0  0  0  0  0  0  0
  149.7689  139.7472  155.1832 N   0  0  0  0  0  0  0  0  0  0  0  0
  150.9926  139.2375  155.8132 C   0  0  0  0  0  0  0  0  0  0  0  0
  151.9047  140.3769  156.2959 C   0  0  0  0  0  0  0  0  0  0  0  0
  152.7030  139.9201  157.3794 O   0  0  0  0  0  0  0  0  0  0  0  0
  152.8050  140.7163  158.4991 C   0  0  0  0  0  0  0  0  0  0  0  0
  153.5660  140.2120  159.5739 C   0  0  0  0  0  0  0  0  0  0  0  0
  153.7228  140.9566  160.7587 C   0  0  0  0  0  0  0  0  0  0  0  0
  153.1168  142.2209  160.8797 C   0  0  0  0  0  0  0  0  0  0  0  0
  153.3072  143.1360  162.3300 Cl  0  0  0  0  0  0  0  0  0  0  0  0
  152.3547  142.7368  159.8148 C   0  0  0  0  0  0  0  0  0  0  0  0
  152.1973  141.9910  158.6301 C   0  0  0  0  0  0  0  0  0  0  0  0
  148.8053  138.9012  154.7112 C   0  0  0  0  0  0  0  0  0  0  0  0
  148.9043  137.6761  154.7899 O   0  0  0  0  0  0  0  0  0  0  0  0
  147.6512  139.5815  154.1056 C   0  0  0  0  0  0  0  0  0  0  0  0
  146.3755  138.5878  153.4842 Cl  0  0  0  0  0  0  0  0  0  0  0  0
  144.0553  142.7074  155.0063 H   0  0  0  0  0  0  0  0  0  0  0  0
  144.6389  143.9267  156.2693 H   0  0  0  0  0  0  0  0  0  0  0  0
  146.6341  144.3619  154.9632 H   0  0  0  0  0  0  0  0  0  0  0  0
  145.3722  143.1146  152.6122 H   0  0  0  0  0  0  0  0  0  0  0  0
  147.0857  143.4476  152.8301 H   0  0  0  0  0  0  0  0  0  0  0  0
  145.7487  140.9463  153.0677 H   0  0  0  0  0  0  0  0  0  0  0  0
  148.6125  142.7740  154.4997 H   0  0  0  0  0  0  0  0  0  0  0  0
  150.7185  138.6178  156.6687 H   0  0  0  0  0  0  0  0  0  0  0  0
  151.5417  138.5721  155.1450 H   0  0  0  0  0  0  0  0  0  0  0  0
  152.5304  140.7283  155.4737 H   0  0  0  0  0  0  0  0  0  0  0  0
  151.2854  141.2117  156.6272 H   0  0  0  0  0  0  0  0  0  0  0  0
  154.0352  139.2427  159.4884 H   0  0  0  0  0  0  0  0  0  0  0  0
  154.3086  140.5554  161.5727 H   0  0  0  0  0  0  0  0  0  0  0  0
  151.8873  143.7065  159.9048 H   0  0  0  0  0  0  0  0  0  0  0  0
  151.6041  142.4191  157.8366 H   0  0  0  0  0  0  0  0  0  0  0  0
  1  2  2  0  0  0  0
  1 23  1  0  0  0  0
  1 24  1  0  0  0  0
  2  3  1  0  0  0  0
  2 25  1  0  0  0  0
  3  4  1  0  0  0  0
  3 26  1  0  0  0  0
  3 27  1  0  0  0  0
  4  5  1  0  0  0  0
  4 28  1  0  0  0  0
  5 21  2  0  0  0  0
  5  6  1  0  0  0  0
  6  7  2  0  0  0  0
  6 29  1  0  0  0  0
  7  8  1  0  0  0  0
  8  9  1  0  0  0  0
  8 19  1  0  0  0  0
  9 10  1  0  0  0  0
  9 30  1  0  0  0  0
  9 31  1  0  0  0  0
 10 11  1  0  0  0  0
 10 32  1  0  0  0  0
 10 33  1  0  0  0  0
 11 12  1  0  0  0  0
 12 18  1  0  0  0  0
 12 13  2  0  0  0  0
 13 14  1  0  0  0  0
 13 34  1  0  0  0  0
 14 15  2  0  0  0  0
 14 35  1  0  0  0  0
 15 16  1  0  0  0  0
 15 17  1  0  0  0  0
 17 18  2  0  0  0  0
 17 36  1  0  0  0  0
 18 37  1  0  0  0  0
 19 20  2  0  0  0  0
 19 21  1  0  0  0  0
 21 22  1  0  0  0  0
M  END
> <s_m_source_file>
AV-unprocessed.smi

> <i_m_source_file_index>
360

> <i_lp_mmshare_version>
43012

> <i_f3d_flags>
0

> <s_epik_input>
W0NIMl09W0NIXVtDSDJdW05IXWMxW2NIXW5uKGMoPU8pYzFDbClbQ0gyXVtDSDJdT2MyW2NIXVtjSF1jKENsKVtjSF1bY0hdMg==

> <s_epik_cmdline>
J2VwaWtfcHl0aG9uJywgJy1waCcsICc3LjAnLCAnLXRuJywgJzgnLCAnLW1hJywgJzIwMCcsICctbWV0YWxfYmluZGluZycsICctaW1hZScsICc8aW5maWxlLm1hZT4nLCAnLW9tYWUnLCAnPG91dGZpbGUubWFlPic=

> <r_lp_tautomer_probability>
1

> <r_epik_Ionization_Penalty>
1.57681e-05

> <r_epik_Ionization_Penalty_Charging>
9.79356e-10

> <r_epik_Ionization_Penalty_Neutral>
1.57671e-05

> <r_epik_State_Penalty>
-0

> <r_epik_Charging_Adjusted_Penalty>
9.79356e-10

> <i_epik_Tot_Q>
0

> <i_epik_Tot_abs_Q>
0

> <r_epik_Metal_State_Penalty>
-0

> <b_epik_Metal_Only>
0

> <s_lp_Force_Field>
OPLS_2005

> <r_lp_Energy>
29.545

> <b_lp_Chiralities_Consistent>
1

> <s_lp_Variant>
AV-unprocessed.smi:360-1

> <Gold.Version>
5.8.1

> <Gold.Id.Protein>
6NUR|6NUR_protein|mol2

> <Gold.PLP.Fitness>
50.6158

> <Gold.PLP.PLP>
-42.7565

> <Gold.PLP.part.hbond>
-2.0000

> <Gold.PLP.part.metal>
0.0000

> <Gold.PLP.part.buried>
-5.8979

> <Gold.PLP.part.nonpolar>
-35.3871

> <Gold.PLP.part.repulsive>
0.8385

> <Gold.PLP.ligand.clash>
0.0000

> <Gold.PLP.ligand.torsion>
0.5748

> <Gold.PLP.Chemscore.Hbond>
1.9672

> <Gold.PLP.Chemscore.CHOScore>
1.0000

> <Gold.PLP.Chemscore.Metal>
0.0000

> <Gold.Chemscore.Hbonds>
donor molecule, donor type, donor heavy atom, donor atom, acceptor molecule, acceptor atom, score
      L1  H     4    28       P1 10175  0.60
      P1  H  7997  8010       L1    11  0.90
      L1  C     6    29       P1  8028  1.00

> <Gold.PLP.Chemscore.Internal.Correction>
0.1073

> <Gold.Rescore>
     Score         DG    S(hbond)    S(metal)    S(lipo)     H(rot)  DE(clash)    DE(int)     intcor
     17.70     -18.65       1.33        0.00     112.66       1.73       0.26       0.69       ----

> <Gold.Chemscore.Fitness>
17.6963

> <Gold.Chemscore.DG>
-18.6535

> <Gold.Chemscore.ZeroCoef>
-5.4800

> <Gold.Chemscore.Hbond>
1.3273

> <Gold.Chemscore.Metal>
0.0000

> <Gold.Chemscore.Lipo>
112.6610

> <Gold.Chemscore.Internal_Hbond>
0.0000

> <Gold.Chemscore.DEClash>
0.2632

> <Gold.Chemscore.DEInternal>
0.6941

> <Gold.Chemscore.Rot>
1.7348

> <Gold.Chemscore.Internal.Correction>
   9.000000E+99

> <Gold.Chemscore.Hbonds>
donor molecule, donor type, donor heavy atom, donor atom, acceptor molecule, acceptor atom, score
      L1  H     4    28       P1 10175  0.23
      P1  H  7997  8010       L1    11  0.07

> <Gold.Chemscore.Hbond.Weighted>
-4.4332

> <Gold.Chemscore.Metal.Weighted>
-0.0000

> <Gold.Chemscore.Lipo.Weighted>
-13.1813

> <Gold.Chemscore.Internal_Hbond.Weighted>
0.0000

> <Gold.Chemscore.DEClash.Weighted>
0.2632

> <Gold.Chemscore.DEInternal.Weighted>
0.6941

> <Gold.Chemscore.Rot.Weighted>
4.4410

> <Gold.Chemscore.Internal.Correction.Weighted>
   9.000000E+99

> <Gold.Protein.RotatedTorsions>
[ 6907 6896 6895 6894 ] final   58.61 input  -60.11 | X-H torsion
[ 7974 7965 7964 7962 ] final  114.46 input  175.53 | X-H torsion
[ 8008 7997 7996 7995 ] final   65.13 input   59.86 | X-H torsion
[ 10167 10162 10161 10158 ] final -146.64 input  -65.29 | X-H torsion
[ 10718 10713 10712 10709 ] final   32.96 input   66.30 | X-H torsion
[ 10763 10752 10751 10750 ] final -133.86 input  -60.55 | X-H torsion
[ 11005 11000 10999 10996 ] final   51.04 input  -57.11 | X-H torsion

> <Gold.Protein.ActiveResidues>
 VAL166  LYS551  ARG553  GLY616  TRP617  ASP618  TYR619  PRO620  LYS621  CYS622 
 ASP623  PHE694  ASN695  SER759  ASP760  ASP761  ALA762  ILE779  LEU786  VAL792 
 PHE793  MET794  SER795  GLU796  ALA797  LYS798  CYS799  TRP800  GLU811  SER814 

> <Gold.Protein.RotatedAtoms>
  152.3840  134.6546  160.0132 H   0  0  0  0  0  0  0  0  0  0  0  0  # atno 6907 bound_to 6896
  151.6801  133.3306  159.3225 H   0  0  0  0  0  0  0  0  0  0  0  0  # atno 6908 bound_to 6896
  150.7770  134.6725  159.6444 H   0  0  0  0  0  0  0  0  0  0  0  0  # atno 6909 bound_to 6896
  145.2042  139.2937  143.4302 H   0  0  0  0  0  0  0  0  0  0  0  0  # atno 7974 bound_to 7965
  155.6570  140.3497  155.4768 H   0  0  0  0  0  0  0  0  0  0  0  0  # atno 8008 bound_to 7997
  155.9800  140.1172  157.0758 H   0  0  0  0  0  0  0  0  0  0  0  0  # atno 8009 bound_to 7997
  154.4189  140.1140  156.5409 H   0  0  0  0  0  0  0  0  0  0  0  0  # atno 8010 bound_to 7997
  139.7694  143.8259  152.2622 H   0  0  0  0  0  0  0  0  0  0  0  0  # atno 10167 bound_to 10162
  157.2918  130.7306  149.6615 H   0  0  0  0  0  0  0  0  0  0  0  0  # atno 10718 bound_to 10713
  154.8727  135.3752  154.4642 H   0  0  0  0  0  0  0  0  0  0  0  0  # atno 10763 bound_to 10752
  153.5308  135.7028  153.5689 H   0  0  0  0  0  0  0  0  0  0  0  0  # atno 10764 bound_to 10752
  153.3895  135.3976  155.1878 H   0  0  0  0  0  0  0  0  0  0  0  0  # atno 10765 bound_to 10752
  140.0966  134.5137  155.8801 H   0  0  0  0  0  0  0  0  0  0  0  0  # atno 11005 bound_to 11000
  146.3411  140.2297  142.8593 LP  0  0  0  0  0  0  0  0  0  0  0  0  # atno 17320 bound_to 7965
  144.9918  140.8554  143.5334 LP  0  0  0  0  0  0  0  0  0  0  0  0  # atno 17321 bound_to 7965
  139.8289  144.7262  150.9476 LP  0  0  0  0  0  0  0  0  0  0  0  0  # atno 17342 bound_to 10162
  140.7813  143.4088  151.1026 LP  0  0  0  0  0  0  0  0  0  0  0  0  # atno 17343 bound_to 10162
  155.9667  130.4306  150.4886 LP  0  0  0  0  0  0  0  0  0  0  0  0  # atno 17370 bound_to 10713
  157.2850  131.0614  151.2172 LP  0  0  0  0  0  0  0  0  0  0  0  0  # atno 17371 bound_to 10713
  141.2094  133.6683  156.6435 LP  0  0  0  0  0  0  0  0  0  0  0  0  # atno 17394 bound_to 11000
  140.3277  134.7955  157.4302 LP  0  0  0  0  0  0  0  0  0  0  0  0  # atno 17395 bound_to 11000

$$$$
