AV-unprocessed.smi:414|AV-procd|sdf|2515|dock4
  -GOLD-   2262022463D 1   1.00000     0.00000
 Structure written by MMmdl.
 38 39  0  0  0  0  0  0  0  0  1 V2000
  150.0916  145.2995  160.0114 C   0  0  0  0  0  0  0  0  0  0  0  0
  151.5066  144.7107  160.1010 C   0  0  2  0  0  0  0  0  0  0  0  0
  151.8832  143.9540  158.8130 C   0  0  0  0  0  0  0  0  0  0  0  0
  153.2983  143.3560  158.9003 C   0  0  0  0  0  0  0  0  0  0  0  0
  153.4699  142.4417  160.1327 C   0  0  2  0  0  0  0  0  0  0  0  0
  152.6916  141.2108  160.0037 N   0  0  0  0  0  0  0  0  0  0  0  0
  153.1324  140.0584  159.4770 C   0  0  0  0  0  0  0  0  0  0  0  0
  154.2731  139.9125  159.0352 O   0  0  0  0  0  0  0  0  0  0  0  0
  152.1130  138.9102  159.4410 C   0  0  0  0  0  0  0  0  0  0  0  0
  151.9002  138.3569  158.0953 N   0  0  0  0  0  0  0  0  0  0  0  0
  152.5565  138.9075  157.0036 C   0  0  0  0  0  0  0  0  0  0  0  0
  152.4183  138.4445  155.7387 C   0  0  0  0  0  0  0  0  0  0  0  0
  151.5459  137.3091  155.4592 C   0  0  0  0  0  0  0  0  0  0  0  0
  151.3540  136.8187  154.3488 O   0  0  0  0  0  0  0  0  0  0  0  0
  150.9055  136.7809  156.5836 N   0  0  0  0  0  0  0  0  0  0  0  0
  151.0450  137.2522  157.8900 C   0  0  0  0  0  0  0  0  0  0  0  0
  150.4379  136.7082  158.8116 O   0  0  0  0  0  0  0  0  0  0  0  0
  153.0710  143.1883  161.4202 C   0  0  0  0  0  0  0  0  0  0  0  0
  151.6581  143.7937  161.3299 C   0  0  0  0  0  0  0  0  0  0  0  0
  150.2937  135.9907  156.4395 H   0  0  0  0  0  0  0  0  0  0  0  0
  149.3423  144.5157  159.8964 H   0  0  0  0  0  0  0  0  0  0  0  0
  150.0004  145.9747  159.1600 H   0  0  0  0  0  0  0  0  0  0  0  0
  149.8448  145.8667  160.9093 H   0  0  0  0  0  0  0  0  0  0  0  0
  152.2018  145.5436  160.2159 H   0  0  0  0  0  0  0  0  0  0  0  0
  151.1604  143.1590  158.6252 H   0  0  0  0  0  0  0  0  0  0  0  0
  151.8269  144.6267  157.9566 H   0  0  0  0  0  0  0  0  0  0  0  0
  153.5313  142.8146  157.9830 H   0  0  0  0  0  0  0  0  0  0  0  0
  154.0228  144.1691  158.9588 H   0  0  0  0  0  0  0  0  0  0  0  0
  154.5221  142.1645  160.2186 H   0  0  0  0  0  0  0  0  0  0  0  0
  151.7401  141.2413  160.3398 H   0  0  0  0  0  0  0  0  0  0  0  0
  152.4338  138.1271  160.1308 H   0  0  0  0  0  0  0  0  0  0  0  0
  151.1678  139.2773  159.8445 H   0  0  0  0  0  0  0  0  0  0  0  0
  153.2167  139.7481  157.1646 H   0  0  0  0  0  0  0  0  0  0  0  0
  152.9571  138.9161  154.9296 H   0  0  0  0  0  0  0  0  0  0  0  0
  153.1372  142.5207  162.2801 H   0  0  0  0  0  0  0  0  0  0  0  0
  153.7883  143.9891  161.6045 H   0  0  0  0  0  0  0  0  0  0  0  0
  151.4456  144.3552  162.2402 H   0  0  0  0  0  0  0  0  0  0  0  0
  150.9183  142.9933  161.2861 H   0  0  0  0  0  0  0  0  0  0  0  0
  1  2  1  0  0  0  0
  1 21  1  0  0  0  0
  1 22  1  0  0  0  0
  1 23  1  0  0  0  0
  2 19  1  0  0  0  0
  2  3  1  0  0  0  0
  2 24  1  0  0  0  0
  3  4  1  0  0  0  0
  3 25  1  0  0  0  0
  3 26  1  0  0  0  0
  4  5  1  0  0  0  0
  4 27  1  0  0  0  0
  4 28  1  0  0  0  0
  5  6  1  0  0  0  0
  5 18  1  0  0  0  0
  5 29  1  0  0  0  0
  6  7  1  0  0  0  0
  6 30  1  0  0  0  0
  7  8  2  0  0  0  0
  7  9  1  0  0  0  0
  9 10  1  0  0  0  0
  9 31  1  0  0  0  0
  9 32  1  0  0  0  0
 10 16  1  0  0  0  0
 10 11  1  0  0  0  0
 11 12  2  0  0  0  0
 11 33  1  0  0  0  0
 12 13  1  0  0  0  0
 12 34  1  0  0  0  0
 13 14  2  0  0  0  0
 13 15  1  0  0  0  0
 15 20  1  0  0  0  0
 15 16  1  0  0  0  0
 16 17  2  0  0  0  0
 18 19  1  0  0  0  0
 18 35  1  0  0  0  0
 18 36  1  0  0  0  0
 19 37  1  0  0  0  0
 19 38  1  0  0  0  0
M  END
> <s_m_source_file>
AV-unprocessed.smi

> <i_m_source_file_index>
414

> <i_lp_mmshare_version>
43012

> <i_f3d_flags>
0

> <s_epik_input>
W0NIM11bQ0BASF0xW0NIMl1bQ0gyXVtDQEhdKFtDSDJdW0NIMl0xKVtOSF1DKD1PKVtDSDJdbjJbY0hdW2NIXWMoPU8pW25IXWMyPU8=

> <s_epik_cmdline>
J2VwaWtfcHl0aG9uJywgJy1waCcsICc3LjAnLCAnLXRuJywgJzgnLCAnLW1hJywgJzIwMCcsICctbWV0YWxfYmluZGluZycsICctaW1hZScsICc8aW5maWxlLm1hZT4nLCAnLW9tYWUnLCAnPG91dGZpbGUubWFlPic=

> <r_lp_tautomer_probability>
0.999537

> <r_epik_Ionization_Penalty>
0.00309124

> <r_epik_Ionization_Penalty_Charging>
0.00309122

> <r_epik_Ionization_Penalty_Neutral>
1.90469e-08

> <r_epik_State_Penalty>
0.00217484

> <r_epik_Charging_Adjusted_Penalty>
0.00526606

> <i_epik_Tot_Q>
0

> <i_epik_Tot_abs_Q>
0

> <r_epik_Metal_State_Penalty>
0.362537

> <b_epik_Metal_Only>
0

> <s_lp_Force_Field>
OPLS_2005

> <r_lp_Energy>
7.68142

> <b_lp_Chiralities_Consistent>
1

> <s_lp_Variant>
AV-unprocessed.smi:414-2

> <Gold.Version>
5.8.1

> <Gold.Id.Protein>
6NUR|6NUR_protein|mol2

> <Gold.PLP.Fitness>
42.3008

> <Gold.PLP.PLP>
-34.0731

> <Gold.PLP.part.hbond>
-3.0000

> <Gold.PLP.part.metal>
0.0000

> <Gold.PLP.part.buried>
-4.2051

> <Gold.PLP.part.nonpolar>
-26.8688

> <Gold.PLP.part.repulsive>
0.9766

> <Gold.PLP.ligand.clash>
0.0000

> <Gold.PLP.ligand.torsion>
0.3899

> <Gold.PLP.Chemscore.Hbond>
3.0000

> <Gold.PLP.Chemscore.CHOScore>
0.0000

> <Gold.PLP.Chemscore.Metal>
0.0000

> <Gold.Chemscore.Hbonds>
donor molecule, donor type, donor heavy atom, donor atom, acceptor molecule, acceptor atom, score
      P1  H  6896  6909       L1    17  0.93
      P1  H  7997  8010       L1     8  1.00
      P1  H 10752 10765       L1    14  0.85

> <Gold.PLP.Chemscore.Internal.Correction>
0.0075

> <Gold.Rescore>
     Score         DG    S(hbond)    S(metal)    S(lipo)     H(rot)  DE(clash)    DE(int)     intcor
     19.50     -21.31       2.72        0.00      94.43       1.69       0.05       1.76       ----

> <Gold.Chemscore.Fitness>
19.4959

> <Gold.Chemscore.DG>
-21.3063

> <Gold.Chemscore.ZeroCoef>
-5.4800

> <Gold.Chemscore.Hbond>
2.7240

> <Gold.Chemscore.Metal>
0.0000

> <Gold.Chemscore.Lipo>
94.4255

> <Gold.Chemscore.Internal_Hbond>
0.0000

> <Gold.Chemscore.DEClash>
0.0540

> <Gold.Chemscore.DEInternal>
1.7563

> <Gold.Chemscore.Rot>
1.6874

> <Gold.Chemscore.Internal.Correction>
   9.000000E+99

> <Gold.Chemscore.Hbonds>
donor molecule, donor type, donor heavy atom, donor atom, acceptor molecule, acceptor atom, score
      P1  H  6896  6909       L1    17  0.86
      P1  H  7997  8010       L1     8  0.98
      P1  H 10752 10765       L1    14  0.14

> <Gold.Chemscore.Hbond.Weighted>
-9.0983

> <Gold.Chemscore.Metal.Weighted>
-0.0000

> <Gold.Chemscore.Lipo.Weighted>
-11.0478

> <Gold.Chemscore.Internal_Hbond.Weighted>
0.0000

> <Gold.Chemscore.DEClash.Weighted>
0.0540

> <Gold.Chemscore.DEInternal.Weighted>
1.7563

> <Gold.Chemscore.Rot.Weighted>
4.3198

> <Gold.Chemscore.Internal.Correction.Weighted>
   9.000000E+99

> <Gold.Protein.RotatedTorsions>
[ 6907 6896 6895 6894 ] final   73.96 input  -60.11 | X-H torsion
[ 7974 7965 7964 7962 ] final  145.15 input  175.53 | X-H torsion
[ 8008 7997 7996 7995 ] final    6.46 input   59.86 | X-H torsion
[ 10167 10162 10161 10158 ] final    0.91 input  -65.29 | X-H torsion
[ 10718 10713 10712 10709 ] final   63.66 input   66.30 | X-H torsion
[ 10763 10752 10751 10750 ] final  164.45 input  -60.55 | X-H torsion
[ 11005 11000 10999 10996 ] final  126.24 input  -57.11 | X-H torsion

> <Gold.Protein.ActiveResidues>
 VAL166  LYS551  ARG553  GLY616  TRP617  ASP618  TYR619  PRO620  LYS621  CYS622 
 ASP623  PHE694  ASN695  SER759  ASP760  ASP761  ALA762  ILE779  LEU786  VAL792 
 PHE793  MET794  SER795  GLU796  ALA797  LYS798  CYS799  TRP800  GLU811  SER814 

> <Gold.Protein.RotatedAtoms>
  152.4951  134.4344  159.9522 H   0  0  0  0  0  0  0  0  0  0  0  0  # atno 6907 bound_to 6896
  151.4324  133.3660  159.2778 H   0  0  0  0  0  0  0  0  0  0  0  0  # atno 6908 bound_to 6896
  150.9145  134.8586  159.7507 H   0  0  0  0  0  0  0  0  0  0  0  0  # atno 6909 bound_to 6896
  144.8776  139.5748  143.5858 H   0  0  0  0  0  0  0  0  0  0  0  0  # atno 7974 bound_to 7965
  154.7414  140.2749  155.6370 H   0  0  0  0  0  0  0  0  0  0  0  0  # atno 8008 bound_to 7997
  156.2874  140.2696  156.2068 H   0  0  0  0  0  0  0  0  0  0  0  0  # atno 8009 bound_to 7997
  155.0254  140.0371  157.2443 H   0  0  0  0  0  0  0  0  0  0  0  0  # atno 8010 bound_to 7997
  140.6707  143.7056  150.7917 H   0  0  0  0  0  0  0  0  0  0  0  0  # atno 10167 bound_to 10162
  157.5986  130.9117  149.9745 H   0  0  0  0  0  0  0  0  0  0  0  0  # atno 10718 bound_to 10713
  154.3091  135.2757  155.2574 H   0  0  0  0  0  0  0  0  0  0  0  0  # atno 10763 bound_to 10752
  154.4977  135.5816  153.6511 H   0  0  0  0  0  0  0  0  0  0  0  0  # atno 10764 bound_to 10752
  152.9890  135.6150  154.3267 H   0  0  0  0  0  0  0  0  0  0  0  0  # atno 10765 bound_to 10752
  139.9446  134.9631  156.8677 H   0  0  0  0  0  0  0  0  0  0  0  0  # atno 11005 bound_to 11000
  146.2973  139.7318  142.9117 LP  0  0  0  0  0  0  0  0  0  0  0  0  # atno 17320 bound_to 7965
  145.4013  141.0385  143.3069 LP  0  0  0  0  0  0  0  0  0  0  0  0  # atno 17321 bound_to 7965
  140.0741  143.5032  152.2564 LP  0  0  0  0  0  0  0  0  0  0  0  0  # atno 17342 bound_to 10162
  139.5974  144.7571  151.3253 LP  0  0  0  0  0  0  0  0  0  0  0  0  # atno 17343 bound_to 10162
  156.1054  130.3653  150.0142 LP  0  0  0  0  0  0  0  0  0  0  0  0  # atno 17370 bound_to 10713
  156.8250  130.9372  151.3639 LP  0  0  0  0  0  0  0  0  0  0  0  0  # atno 17371 bound_to 10713
  140.5866  134.0301  155.7484 LP  0  0  0  0  0  0  0  0  0  0  0  0  # atno 17394 bound_to 11000
  141.1092  133.9643  157.2941 LP  0  0  0  0  0  0  0  0  0  0  0  0  # atno 17395 bound_to 11000

$$$$
