AV-unprocessed.smi:207|AV-procd|sdf|1603|dock1
  -GOLD-   2262019513D 1   1.00000     0.00000
 Structure written by MMmdl.
 56 59  0  0  0  0  0  0  0  0  2 V2000
  143.9091  134.7474  153.1328 C   0  0  0  0  0  0  0  0  0  0  0  0
  144.9576  134.6782  151.9976 C   0  0  0  0  0  0  0  0  0  0  0  0
  144.5050  135.5920  150.8351 C   0  0  0  0  0  0  0  0  0  0  0  0
  146.3013  135.2660  152.5013 C   0  0  0  0  0  0  0  0  0  0  0  0
  146.9925  134.3774  153.4296 N   0  0  0  0  0  0  0  0  0  0  0  0
  147.9280  134.9586  154.2237 C   0  0  0  0  0  0  0  0  0  0  0  0
  148.9933  134.1957  154.5814 N   0  0  0  0  0  0  0  0  0  0  0  0
  149.9543  134.6958  155.3621 C   0  0  0  0  0  0  0  0  0  0  0  0
  150.0458  135.9160  155.8914 N   0  0  0  0  0  0  0  0  0  0  0  0
  148.9831  136.6925  155.5373 C   0  0  0  0  0  0  0  0  0  0  0  0
  147.8875  136.2990  154.7145 C   0  0  0  0  0  0  0  0  0  0  0  0
  146.9927  137.3575  154.5970 N   0  0  0  0  0  0  0  0  0  0  0  0
  147.5266  138.3148  155.3042 C   0  0  0  0  0  0  0  0  0  0  0  0
  148.7291  138.0050  155.8975 N   0  0  0  0  0  0  0  0  0  0  0  0
  149.5301  138.8762  156.7460 C   0  0  0  0  0  0  0  0  0  0  0  0
  150.5562  139.7377  155.9847 C   0  0  0  0  0  0  0  0  0  0  0  0
  149.8414  140.9844  155.4247 C   0  0  0  0  0  0  0  0  0  0  0  0
  149.4190  141.8707  156.4420 O   0  0  0  0  0  0  0  0  0  0  0  0
  151.8728  139.9887  156.7352 C   0  0  0  0  0  0  0  0  0  0  0  0
  152.6614  139.5676  155.6004 O   0  0  0  0  0  0  0  0  0  0  0  0
  151.4762  138.9990  155.0019 C   0  0  0  0  0  0  0  0  0  0  0  0
  147.2255  133.0359  152.9208 C   0  0  0  0  0  0  0  0  0  0  0  0
  145.9034  132.4027  152.4747 C   0  0  0  0  0  0  0  0  0  0  0  0
  145.1598  133.2673  151.5146 N   0  3  1  0  0  0  0  0  0  0  0  0
  143.9411  132.5828  150.9952 C   0  0  0  0  0  0  0  0  0  0  0  0
  143.8534  132.6521  149.4618 C   0  0  0  0  0  0  0  0  0  0  0  0
  142.6146  132.1320  149.0282 O   0  0  0  0  0  0  0  0  0  0  0  0
  143.7790  135.7732  153.4795 H   0  0  0  0  0  0  0  0  0  0  0  0
  144.2017  134.1549  153.9995 H   0  0  0  0  0  0  0  0  0  0  0  0
  142.9299  134.3951  152.8084 H   0  0  0  0  0  0  0  0  0  0  0  0
  144.5227  136.6411  151.1340 H   0  0  0  0  0  0  0  0  0  0  0  0
  143.4882  135.3919  150.5009 H   0  0  0  0  0  0  0  0  0  0  0  0
  145.1634  135.4908  149.9716 H   0  0  0  0  0  0  0  0  0  0  0  0
  146.9701  135.4335  151.6554 H   0  0  0  0  0  0  0  0  0  0  0  0
  146.1261  136.2468  152.9453 H   0  0  0  0  0  0  0  0  0  0  0  0
  150.7658  134.0224  155.5962 H   0  0  0  0  0  0  0  0  0  0  0  0
  147.0557  139.2814  155.4107 H   0  0  0  0  0  0  0  0  0  0  0  0
  148.8509  139.5119  157.3154 H   0  0  0  0  0  0  0  0  0  0  0  0
  150.0307  138.2497  157.4855 H   0  0  0  0  0  0  0  0  0  0  0  0
  150.4984  141.5472  154.7618 H   0  0  0  0  0  0  0  0  0  0  0  0
  148.9652  140.7021  154.8399 H   0  0  0  0  0  0  0  0  0  0  0  0
  149.2148  142.7054  156.0482 H   0  0  0  0  0  0  0  0  0  0  0  0
  152.0473  141.0296  157.0098 H   0  0  0  0  0  0  0  0  0  0  0  0
  152.0247  139.3341  157.5951 H   0  0  0  0  0  0  0  0  0  0  0  0
  151.4637  137.9138  155.1050 H   0  0  0  0  0  0  0  0  0  0  0  0
  151.3464  139.2923  153.9596 H   0  0  0  0  0  0  0  0  0  0  0  0
  147.9164  133.0847  152.0781 H   0  0  0  0  0  0  0  0  0  0  0  0
  147.6855  132.4123  153.6883 H   0  0  0  0  0  0  0  0  0  0  0  0
  146.1157  131.4339  152.0241 H   0  0  0  0  0  0  0  0  0  0  0  0
  145.2808  132.2037  153.3477 H   0  0  0  0  0  0  0  0  0  0  0  0
  143.9428  131.5419  151.3222 H   0  0  0  0  0  0  0  0  0  0  0  0
  143.0249  133.0077  151.3983 H   0  0  0  0  0  0  0  0  0  0  0  0
  143.9763  133.6677  149.0870 H   0  0  0  0  0  0  0  0  0  0  0  0
  144.6494  132.0531  149.0189 H   0  0  0  0  0  0  0  0  0  0  0  0
  141.9496  132.7926  149.1526 H   0  0  0  0  0  0  0  0  0  0  0  0
  145.7662  133.3644  150.7124 H   0  0  0  0  0  0  0  0  0  0  0  0
  1  2  1  0  0  0  0
  1 28  1  0  0  0  0
  1 29  1  0  0  0  0
  1 30  1  0  0  0  0
  2 24  1  0  0  0  0
  2  3  1  0  0  0  0
  2  4  1  0  0  0  0
  3 31  1  0  0  0  0
  3 32  1  0  0  0  0
  3 33  1  0  0  0  0
  4  5  1  0  0  0  0
  4 34  1  0  0  0  0
  4 35  1  0  0  0  0
  5  6  1  0  0  0  0
  5 22  1  0  0  0  0
  6 11  1  0  0  0  0
  6  7  2  0  0  0  0
  7  8  1  0  0  0  0
  8  9  2  0  0  0  0
  8 36  1  0  0  0  0
  9 10  1  0  0  0  0
 10 14  1  0  0  0  0
 10 11  2  0  0  0  0
 11 12  1  0  0  0  0
 12 13  2  0  0  0  0
 13 14  1  0  0  0  0
 13 37  1  0  0  0  0
 14 15  1  0  0  0  0
 15 16  1  0  0  0  0
 15 38  1  0  0  0  0
 15 39  1  0  0  0  0
 16 21  1  0  0  0  0
 16 17  1  0  0  0  0
 16 19  1  0  0  0  0
 17 18  1  0  0  0  0
 17 40  1  0  0  0  0
 17 41  1  0  0  0  0
 18 42  1  0  0  0  0
 19 20  1  0  0  0  0
 19 43  1  0  0  0  0
 19 44  1  0  0  0  0
 20 21  1  0  0  0  0
 21 45  1  0  0  0  0
 21 46  1  0  0  0  0
 22 23  1  0  0  0  0
 22 47  1  0  0  0  0
 22 48  1  0  0  0  0
 23 24  1  0  0  0  0
 23 49  1  0  0  0  0
 23 50  1  0  0  0  0
 24 25  1  0  0  0  0
 24 56  1  0  0  0  0
 25 26  1  0  0  0  0
 25 51  1  0  0  0  0
 25 52  1  0  0  0  0
 26 27  1  0  0  0  0
 26 53  1  0  0  0  0
 26 54  1  0  0  0  0
 27 55  1  0  0  0  0
M  CHG  1  24   1
M  END
> <s_m_source_file>
AV-unprocessed.smi

> <i_m_source_file_index>
207

> <i_lp_mmshare_version>
43012

> <i_f3d_flags>
0

> <s_epik_input>
W09IXVtDSDJdW0NIMl1OMVtDSDJdW0NIMl1OKFtDSDJdQzEoW0NIM10pW0NIM10pYyhuW2NIXW4yKWMoYzIzKW5bY0hdbjNbQ0gyXUM0KFtDSDJdW09IXSlbQ0gyXU9bQ0gyXTQ=

> <s_epik_cmdline>
J2VwaWtfcHl0aG9uJywgJy1waCcsICc3LjAnLCAnLXRuJywgJzgnLCAnLW1hJywgJzIwMCcsICctbWV0YWxfYmluZGluZycsICctaW1hZScsICc8aW5maWxlLm1hZT4nLCAnLW9tYWUnLCAnPG91dGZpbGUubWFlPic=

> <r_lp_tautomer_probability>
1

> <r_epik_Ionization_Penalty>
0.416568

> <r_epik_Ionization_Penalty_Charging>
0.416506

> <r_epik_Ionization_Penalty_Neutral>
6.2219e-05

> <r_epik_State_Penalty>
0.419386

> <r_epik_Charging_Adjusted_Penalty>
0.835892

> <i_epik_Tot_Q>
1

> <i_epik_Tot_abs_Q>
1

> <r_epik_Metal_State_Penalty>
0.420232

> <b_epik_Metal_Only>
0

> <s_lp_Force_Field>
OPLS_2005

> <r_lp_Energy>
56.8459

> <b_lp_Chiralities_Consistent>
1

> <s_lp_Variant>
AV-unprocessed.smi:207-2

> <Gold.Version>
5.8.1

> <Gold.Id.Protein>
6NUR|6NUR_protein|mol2

> <Gold.PLP.Fitness>
42.5865

> <Gold.PLP.PLP>
-33.4256

> <Gold.PLP.part.hbond>
-5.0000

> <Gold.PLP.part.metal>
0.0000

> <Gold.PLP.part.buried>
-0.6942

> <Gold.PLP.part.nonpolar>
-28.1094

> <Gold.PLP.part.repulsive>
0.6905

> <Gold.PLP.ligand.clash>
0.0000

> <Gold.PLP.ligand.torsion>
1.8776

> <Gold.PLP.Chemscore.Hbond>
4.0000

> <Gold.PLP.Chemscore.CHOScore>
0.0000

> <Gold.PLP.Chemscore.Metal>
0.0000

> <Gold.Chemscore.Hbonds>
donor molecule, donor type, donor heavy atom, donor atom, acceptor molecule, acceptor atom, score
      L1  H    18    42       P1  8028  0.88
      L1  H    27    55       P1 10186  1.00
      P1  H  7997  8009       L1    20  1.00
      P1  H 10785 10796       L1    27  0.82

> <Gold.PLP.Chemscore.Internal.Correction>
0.9161

> <Gold.Rescore>
     Score         DG    S(hbond)    S(metal)    S(lipo)     H(rot)  DE(clash)    DE(int)     intcor
     12.13     -15.70       3.51        0.00      70.29       3.80       0.68       2.90       ----

> <Gold.Chemscore.Fitness>
12.1253

> <Gold.Chemscore.DG>
-15.7050

> <Gold.Chemscore.ZeroCoef>
-5.4800

> <Gold.Chemscore.Hbond>
3.5113

> <Gold.Chemscore.Metal>
0.0000

> <Gold.Chemscore.Lipo>
70.2936

> <Gold.Chemscore.Internal_Hbond>
0.0000

> <Gold.Chemscore.DEClash>
0.6839

> <Gold.Chemscore.DEInternal>
2.8958

> <Gold.Chemscore.Rot>
3.7997

> <Gold.Chemscore.Internal.Correction>
   9.000000E+99

> <Gold.Chemscore.Hbonds>
donor molecule, donor type, donor heavy atom, donor atom, acceptor molecule, acceptor atom, score
      L1  H    18    42       P1  8028  0.86
      L1  H    27    55       P1 10186  1.00
      P1  H  7997  8009       L1    20  0.40
      P1  H 10785 10796       L1    27  0.18

> <Gold.Chemscore.Hbond.Weighted>
-11.7279

> <Gold.Chemscore.Metal.Weighted>
-0.0000

> <Gold.Chemscore.Lipo.Weighted>
-8.2244

> <Gold.Chemscore.Internal_Hbond.Weighted>
0.0000

> <Gold.Chemscore.DEClash.Weighted>
0.6839

> <Gold.Chemscore.DEInternal.Weighted>
2.8958

> <Gold.Chemscore.Rot.Weighted>
9.7273

> <Gold.Chemscore.Internal.Correction.Weighted>
   9.000000E+99

> <Gold.Protein.RotatedTorsions>
[ 6907 6896 6895 6894 ] final   -0.91 input  -60.11 | X-H torsion
[ 7974 7965 7964 7962 ] final  -56.82 input  175.53 | X-H torsion
[ 8008 7997 7996 7995 ] final -145.58 input   59.86 | X-H torsion
[ 10167 10162 10161 10158 ] final  124.47 input  -65.29 | X-H torsion
[ 10718 10713 10712 10709 ] final -103.79 input   66.30 | X-H torsion
[ 10763 10752 10751 10750 ] final   73.18 input  -60.55 | X-H torsion
[ 11005 11000 10999 10996 ] final  -11.12 input  -57.11 | X-H torsion

> <Gold.Protein.ActiveResidues>
 VAL166  LYS551  ARG553  GLY616  TRP617  ASP618  TYR619  PRO620  LYS621  CYS622 
 ASP623  PHE694  ASN695  SER759  ASP760  ASP761  ALA762  ILE779  LEU786  VAL792 
 PHE793  MET794  SER795  GLU796  ALA797  LYS798  CYS799  TRP800  GLU811  SER814 

> <Gold.Protein.RotatedAtoms>
  151.5546  135.1067  159.9957 H   0  0  0  0  0  0  0  0  0  0  0  0  # atno 6907 bound_to 6896
  152.4475  133.7561  159.6731 H   0  0  0  0  0  0  0  0  0  0  0  0  # atno 6908 bound_to 6896
  150.8395  133.7892  159.3090 H   0  0  0  0  0  0  0  0  0  0  0  0  # atno 6909 bound_to 6896
  145.8582  140.8304  142.9950 H   0  0  0  0  0  0  0  0  0  0  0  0  # atno 7974 bound_to 7965
  155.5455  140.0612  157.2861 H   0  0  0  0  0  0  0  0  0  0  0  0  # atno 8008 bound_to 7997
  154.4438  140.1911  156.0678 H   0  0  0  0  0  0  0  0  0  0  0  0  # atno 8009 bound_to 7997
  156.0554  140.3279  155.7403 H   0  0  0  0  0  0  0  0  0  0  0  0  # atno 8010 bound_to 7997
  139.5740  144.6954  151.3703 H   0  0  0  0  0  0  0  0  0  0  0  0  # atno 10167 bound_to 10162
  156.0279  130.5484  150.7303 H   0  0  0  0  0  0  0  0  0  0  0  0  # atno 10718 bound_to 10713
  153.0505  135.5072  154.7856 H   0  0  0  0  0  0  0  0  0  0  0  0  # atno 10763 bound_to 10752
  154.6721  135.2954  154.9730 H   0  0  0  0  0  0  0  0  0  0  0  0  # atno 10764 bound_to 10752
  154.0544  135.6699  153.4857 H   0  0  0  0  0  0  0  0  0  0  0  0  # atno 10765 bound_to 10752
  140.7519  133.8585  155.9052 H   0  0  0  0  0  0  0  0  0  0  0  0  # atno 11005 bound_to 11000
  144.6727  140.1056  143.7458 LP  0  0  0  0  0  0  0  0  0  0  0  0  # atno 17320 bound_to 7965
  145.9278  139.2587  143.1343 LP  0  0  0  0  0  0  0  0  0  0  0  0  # atno 17321 bound_to 7965
  140.7023  143.7600  150.7424 LP  0  0  0  0  0  0  0  0  0  0  0  0  # atno 17342 bound_to 10162
  140.1114  143.4695  152.2367 LP  0  0  0  0  0  0  0  0  0  0  0  0  # atno 17343 bound_to 10162
  157.4897  131.0910  151.0441 LP  0  0  0  0  0  0  0  0  0  0  0  0  # atno 17370 bound_to 10713
  157.0851  130.5919  149.5428 LP  0  0  0  0  0  0  0  0  0  0  0  0  # atno 17371 bound_to 10713
  140.9743  134.1490  157.4550 LP  0  0  0  0  0  0  0  0  0  0  0  0  # atno 17394 bound_to 11000
  139.8786  134.9989  156.5926 LP  0  0  0  0  0  0  0  0  0  0  0  0  # atno 17395 bound_to 11000

$$$$
