AV-unprocessed.smi:21|AV-procd|sdf|152|dock5
  -GOLD-   2262015373D 1   1.00000     0.00000
 Structure written by MMmdl.
 62 65  0  0  0  0  0  0  0  0  2 V2000
  143.7731  132.6525  149.3471 C   0  0  0  0  0  0  0  0  0  0  0  0
  145.0184  133.1870  149.7659 O   0  0  0  0  0  0  0  0  0  0  0  0
  145.4048  132.7678  151.0661 C   0  0  2  0  0  0  0  0  0  0  0  0
  146.6077  133.5658  151.5489 C   0  0  0  0  0  0  0  0  0  0  0  0
  147.2148  132.6596  152.6243 C   0  0  2  0  0  0  0  0  0  0  0  0
  148.7075  132.9279  152.9011 C   0  0  0  0  0  0  0  0  0  0  0  0
  149.1115  132.5169  154.2481 N   0  0  0  0  0  0  0  0  0  0  0  0
  149.6769  131.1832  154.4114 C   0  0  0  0  0  0  0  0  0  0  0  0
  148.7114  133.2295  155.3415 C   0  0  0  0  0  0  0  0  0  0  0  0
  148.2154  134.4808  155.1457 N   0  0  0  0  0  0  0  0  0  0  0  0
  147.8084  135.2290  156.1740 C   0  0  0  0  0  0  0  0  0  0  0  0
  147.8068  134.9283  157.4718 N   0  0  0  0  0  0  0  0  0  0  0  0
  148.2998  133.6765  157.6869 C   0  0  0  0  0  0  0  0  0  0  0  0
  148.7691  132.7667  156.6937 C   0  0  0  0  0  0  0  0  0  0  0  0
  149.1789  131.5880  157.3111 N   0  0  0  0  0  0  0  0  0  0  0  0
  148.9732  131.7918  158.5828 C   0  0  0  0  0  0  0  0  0  0  0  0
  148.4538  133.0251  158.8973 N   0  0  0  0  0  0  0  0  0  0  0  0
  148.1304  133.5214  160.2239 C   0  0  0  0  0  0  0  0  0  0  0  0
  146.6672  134.0129  160.3605 C   0  0  1  0  0  0  0  0  0  0  0  0
  145.7713  132.8831  160.9208 C   0  0  0  0  0  0  0  0  0  0  0  0
  145.9014  131.7115  160.1430 O   0  0  0  0  0  0  0  0  0  0  0  0
  146.5557  135.3442  161.1558 C   0  0  1  0  0  0  0  0  0  0  0  0
  146.8030  135.2452  162.6619 C   0  0  0  0  0  0  0  0  0  0  0  0
  147.7360  136.4186  162.9672 C   0  0  0  0  0  0  0  0  0  0  0  0
  147.5826  137.2919  161.8596 O   0  0  0  0  0  0  0  0  0  0  0  0
  147.4909  136.4724  160.7069 C   0  0  0  0  0  0  0  0  0  0  0  0
  146.9941  131.2807  152.1273 N   0  3  1  0  0  0  0  0  0  0  0  0
  146.7681  130.2814  153.1943 C   0  0  0  0  0  0  0  0  0  0  0  0
  145.9166  131.3222  151.1096 C   0  0  0  0  0  0  0  0  0  0  0  0
  144.5876  132.8999  151.7780 H   0  0  0  0  0  0  0  0  0  0  0  0
  146.6378  132.7898  153.5421 H   0  0  0  0  0  0  0  0  0  0  0  0
  143.5347  133.0227  148.3500 H   0  0  0  0  0  0  0  0  0  0  0  0
  142.9688  132.9561  150.0184 H   0  0  0  0  0  0  0  0  0  0  0  0
  143.7986  131.5634  149.3010 H   0  0  0  0  0  0  0  0  0  0  0  0
  147.3127  133.7013  150.7271 H   0  0  0  0  0  0  0  0  0  0  0  0
  146.3371  134.5529  151.9257 H   0  0  0  0  0  0  0  0  0  0  0  0
  149.3103  132.3581  152.1934 H   0  0  0  0  0  0  0  0  0  0  0  0
  148.9509  133.9707  152.6975 H   0  0  0  0  0  0  0  0  0  0  0  0
  148.9126  130.4770  154.7368 H   0  0  0  0  0  0  0  0  0  0  0  0
  150.4865  131.1914  155.1418 H   0  0  0  0  0  0  0  0  0  0  0  0
  150.0886  130.8168  153.4706 H   0  0  0  0  0  0  0  0  0  0  0  0
  147.4314  136.2089  155.9206 H   0  0  0  0  0  0  0  0  0  0  0  0
  149.2032  131.0459  159.3300 H   0  0  0  0  0  0  0  0  0  0  0  0
  148.3321  132.7198  160.9351 H   0  0  0  0  0  0  0  0  0  0  0  0
  148.8219  134.3291  160.4677 H   0  0  0  0  0  0  0  0  0  0  0  0
  146.3075  134.2366  159.3548 H   0  0  0  0  0  0  0  0  0  0  0  0
  146.0333  132.6470  161.9523 H   0  0  0  0  0  0  0  0  0  0  0  0
  144.7191  133.1627  160.9179 H   0  0  0  0  0  0  0  0  0  0  0  0
  145.7220  131.9276  159.2406 H   0  0  0  0  0  0  0  0  0  0  0  0
  145.5377  135.7233  161.0616 H   0  0  0  0  0  0  0  0  0  0  0  0
  145.8607  135.3565  163.1998 H   0  0  0  0  0  0  0  0  0  0  0  0
  147.2406  134.2996  162.9795 H   0  0  0  0  0  0  0  0  0  0  0  0
  147.4933  136.9162  163.9064 H   0  0  0  0  0  0  0  0  0  0  0  0
  148.7726  136.0817  163.0170 H   0  0  0  0  0  0  0  0  0  0  0  0
  148.4872  136.1109  160.4529 H   0  0  0  0  0  0  0  0  0  0  0  0
  147.1006  137.0259  159.8527 H   0  0  0  0  0  0  0  0  0  0  0  0
  145.8574  130.5015  153.7529 H   0  0  0  0  0  0  0  0  0  0  0  0
  147.6043  130.2683  153.8938 H   0  0  0  0  0  0  0  0  0  0  0  0
  146.6745  129.2827  152.7666 H   0  0  0  0  0  0  0  0  0  0  0  0
  145.1093  130.6171  151.3131 H   0  0  0  0  0  0  0  0  0  0  0  0
  146.3583  131.0469  150.1510 H   0  0  0  0  0  0  0  0  0  0  0  0
  147.8340  131.0104  151.6354 H   0  0  0  0  0  0  0  0  0  0  0  0
  1  2  1  0  0  0  0
  1 32  1  0  0  0  0
  1 33  1  0  0  0  0
  1 34  1  0  0  0  0
  2  3  1  0  0  0  0
  3 30  1  0  0  0  0
  3 29  1  0  0  0  0
  3  4  1  0  0  0  0
  4  5  1  0  0  0  0
  4 35  1  0  0  0  0
  4 36  1  0  0  0  0
  5 31  1  0  0  0  0
  5  6  1  0  0  0  0
  5 27  1  0  0  0  0
  6  7  1  0  0  0  0
  6 37  1  0  0  0  0
  6 38  1  0  0  0  0
  7  8  1  0  0  0  0
  7  9  1  0  0  0  0
  8 39  1  0  0  0  0
  8 40  1  0  0  0  0
  8 41  1  0  0  0  0
  9 14  1  0  0  0  0
  9 10  2  0  0  0  0
 10 11  1  0  0  0  0
 11 12  2  0  0  0  0
 11 42  1  0  0  0  0
 12 13  1  0  0  0  0
 13 17  1  0  0  0  0
 13 14  2  0  0  0  0
 14 15  1  0  0  0  0
 15 16  2  0  0  0  0
 16 17  1  0  0  0  0
 16 43  1  0  0  0  0
 17 18  1  0  0  0  0
 18 19  1  0  0  0  0
 18 44  1  0  0  0  0
 18 45  1  0  0  0  0
 19 20  1  0  0  0  0
 19 22  1  0  0  0  0
 19 46  1  0  0  0  0
 20 21  1  0  0  0  0
 20 47  1  0  0  0  0
 20 48  1  0  0  0  0
 21 49  1  0  0  0  0
 22 26  1  0  0  0  0
 22 23  1  0  0  0  0
 22 50  1  0  0  0  0
 23 24  1  0  0  0  0
 23 51  1  0  0  0  0
 23 52  1  0  0  0  0
 24 25  1  0  0  0  0
 24 53  1  0  0  0  0
 24 54  1  0  0  0  0
 25 26  1  0  0  0  0
 26 55  1  0  0  0  0
 26 56  1  0  0  0  0
 27 28  1  0  0  0  0
 27 29  1  0  0  0  0
 27 62  1  0  0  0  0
 28 57  1  0  0  0  0
 28 58  1  0  0  0  0
 28 59  1  0  0  0  0
 29 60  1  0  0  0  0
 29 61  1  0  0  0  0
M  CHG  1  27   1
M  END
> <s_m_source_file>
AV-unprocessed.smi

> <i_m_source_file_index>
21

> <i_lp_mmshare_version>
43012

> <i_f3d_flags>
0

> <s_epik_input>
W0NIM11PW0NASF0xW0NIMl1bQ0BIXShOKFtDSDNdKVtDSDJdMSlbQ0gyXU4oW0NIM10pYyhuW2NIXW4yKWMoYzIzKW5bY0hdbjNbQ0gyXVtDQEhdKFtDSDJdW09IXSlbQ0BASF00W0NIMl1bQ0gyXU9bQ0gyXTQ=

> <s_epik_cmdline>
J2VwaWtfcHl0aG9uJywgJy1waCcsICc3LjAnLCAnLXRuJywgJzgnLCAnLW1hJywgJzIwMCcsICctbWV0YWxfYmluZGluZycsICctaW1hZScsICc8aW5maWxlLm1hZT4nLCAnLW9tYWUnLCAnPG91dGZpbGUubWFlPic=

> <r_lp_tautomer_probability>
1

> <r_epik_Ionization_Penalty>
0.0157465

> <r_epik_Ionization_Penalty_Charging>
0.015354

> <r_epik_Ionization_Penalty_Neutral>
0.000392529

> <r_epik_State_Penalty>
0.0120612

> <r_epik_Charging_Adjusted_Penalty>
0.0274152

> <i_epik_Tot_Q>
1

> <i_epik_Tot_abs_Q>
1

> <r_epik_Metal_State_Penalty>
0.0121253

> <b_epik_Metal_Only>
0

> <s_lp_Force_Field>
OPLS_2005

> <r_lp_Energy>
58.5761

> <b_lp_Chiralities_Consistent>
1

> <s_lp_Variant>
AV-unprocessed.smi:21-32

> <Gold.Version>
5.8.1

> <Gold.Id.Protein>
6NUR|6NUR_protein|mol2

> <Gold.PLP.Fitness>
49.5555

> <Gold.PLP.PLP>
-44.1094

> <Gold.PLP.part.hbond>
-3.0000

> <Gold.PLP.part.metal>
0.0000

> <Gold.PLP.part.buried>
-5.2429

> <Gold.PLP.part.nonpolar>
-36.2894

> <Gold.PLP.part.repulsive>
0.5393

> <Gold.PLP.ligand.clash>
0.0000

> <Gold.PLP.ligand.torsion>
1.3267

> <Gold.PLP.Chemscore.Hbond>
2.5232

> <Gold.PLP.Chemscore.CHOScore>
0.0000

> <Gold.PLP.Chemscore.Metal>
0.0000

> <Gold.Chemscore.Hbonds>
donor molecule, donor type, donor heavy atom, donor atom, acceptor molecule, acceptor atom, score
      L1  H    27    62       P1 10747  1.00
      P1  H  6931  6943       L1    25  0.93
      P1  H  6934  6947       L1    25  0.57

> <Gold.PLP.Chemscore.Internal.Correction>
0.5301

> <Gold.Rescore>
     Score         DG    S(hbond)    S(metal)    S(lipo)     H(rot)  DE(clash)    DE(int)     intcor
     13.68     -16.44       1.98        0.00     104.56       3.08       0.31       2.45       ----

> <Gold.Chemscore.Fitness>
13.6827

> <Gold.Chemscore.DG>
-16.4366

> <Gold.Chemscore.ZeroCoef>
-5.4800

> <Gold.Chemscore.Hbond>
1.9752

> <Gold.Chemscore.Metal>
0.0000

> <Gold.Chemscore.Lipo>
104.5614

> <Gold.Chemscore.Internal_Hbond>
0.0000

> <Gold.Chemscore.DEClash>
0.3086

> <Gold.Chemscore.DEInternal>
2.4453

> <Gold.Chemscore.Rot>
3.0758

> <Gold.Chemscore.Internal.Correction>
   9.000000E+99

> <Gold.Chemscore.Hbonds>
donor molecule, donor type, donor heavy atom, donor atom, acceptor molecule, acceptor atom, score
      L1  H    27    62       P1 10747  0.99
      P1  H  6931  6943       L1    25  0.31
      P1  H  6934  6947       L1    25  0.10

> <Gold.Chemscore.Hbond.Weighted>
-6.5970

> <Gold.Chemscore.Metal.Weighted>
-0.0000

> <Gold.Chemscore.Lipo.Weighted>
-12.2337

> <Gold.Chemscore.Internal_Hbond.Weighted>
0.0000

> <Gold.Chemscore.DEClash.Weighted>
0.3086

> <Gold.Chemscore.DEInternal.Weighted>
2.4453

> <Gold.Chemscore.Rot.Weighted>
7.8741

> <Gold.Chemscore.Internal.Correction.Weighted>
   9.000000E+99

> <Gold.Protein.RotatedTorsions>
[ 6907 6896 6895 6894 ] final   63.75 input  -60.11 | X-H torsion
[ 7974 7965 7964 7962 ] final -172.42 input  175.53 | X-H torsion
[ 8008 7997 7996 7995 ] final   53.78 input   59.86 | X-H torsion
[ 10167 10162 10161 10158 ] final  -97.31 input  -65.29 | X-H torsion
[ 10718 10713 10712 10709 ] final -115.02 input   66.30 | X-H torsion
[ 10763 10752 10751 10750 ] final -153.45 input  -60.55 | X-H torsion
[ 11005 11000 10999 10996 ] final  -72.99 input  -57.11 | X-H torsion

> <Gold.Protein.ActiveResidues>
 VAL166  LYS551  ARG553  GLY616  TRP617  ASP618  TYR619  PRO620  LYS621  CYS622 
 ASP623  PHE694  ASN695  SER759  ASP760  ASP761  ALA762  ILE779  LEU786  VAL792 
 PHE793  MET794  SER795  GLU796  ALA797  LYS798  CYS799  TRP800  GLU811  SER814 

> <Gold.Protein.RotatedAtoms>
  152.4278  134.5836  159.9954 H   0  0  0  0  0  0  0  0  0  0  0  0  # atno 6907 bound_to 6896
  151.5968  133.3355  159.3047 H   0  0  0  0  0  0  0  0  0  0  0  0  # atno 6908 bound_to 6896
  150.8168  134.7391  159.6802 H   0  0  0  0  0  0  0  0  0  0  0  0  # atno 6909 bound_to 6896
  144.7146  140.1775  143.6361 H   0  0  0  0  0  0  0  0  0  0  0  0  # atno 7974 bound_to 7965
  155.4739  140.3466  155.4329 H   0  0  0  0  0  0  0  0  0  0  0  0  # atno 8008 bound_to 7997
  156.1083  140.1454  156.9403 H   0  0  0  0  0  0  0  0  0  0  0  0  # atno 8009 bound_to 7997
  154.4739  140.0891  156.7192 H   0  0  0  0  0  0  0  0  0  0  0  0  # atno 8010 bound_to 7997
  140.2847  143.3259  152.0406 H   0  0  0  0  0  0  0  0  0  0  0  0  # atno 10167 bound_to 10162
  156.0868  130.6058  150.8851 H   0  0  0  0  0  0  0  0  0  0  0  0  # atno 10718 bound_to 10713
  154.7927  135.3212  154.7740 H   0  0  0  0  0  0  0  0  0  0  0  0  # atno 10763 bound_to 10752
  153.8426  135.6869  153.4805 H   0  0  0  0  0  0  0  0  0  0  0  0  # atno 10764 bound_to 10752
  153.1604  135.4663  154.9704 H   0  0  0  0  0  0  0  0  0  0  0  0  # atno 10765 bound_to 10752
  141.1616  133.6864  156.7143 H   0  0  0  0  0  0  0  0  0  0  0  0  # atno 11005 bound_to 11000
  145.8887  139.2363  143.1562 LP  0  0  0  0  0  0  0  0  0  0  0  0  # atno 17320 bound_to 7965
  145.9924  140.8591  143.0059 LP  0  0  0  0  0  0  0  0  0  0  0  0  # atno 17321 bound_to 7965
  139.4953  144.6567  151.6556 LP  0  0  0  0  0  0  0  0  0  0  0  0  # atno 17342 bound_to 10162
  140.5782  143.9991  150.6253 LP  0  0  0  0  0  0  0  0  0  0  0  0  # atno 17343 bound_to 10162
  157.6005  131.0941  150.8968 LP  0  0  0  0  0  0  0  0  0  0  0  0  # atno 17370 bound_to 10713
  156.9127  130.5286  149.5280 LP  0  0  0  0  0  0  0  0  0  0  0  0  # atno 17371 bound_to 10713
  140.2863  134.8276  157.3978 LP  0  0  0  0  0  0  0  0  0  0  0  0  # atno 17394 bound_to 11000
  140.1387  134.5000  155.8048 LP  0  0  0  0  0  0  0  0  0  0  0  0  # atno 17395 bound_to 11000

$$$$
