AV-unprocessed.smi:2597|AV-procd|sdf|10172|dock4
  -GOLD-   2272014183D 1   1.00000     0.00000
 Structure written by MMmdl.
 31 32  0  0  0  0  0  0  0  0  2 V2000
  149.2024  143.1770  157.9530 N   0  3  0  0  0  0  0  0  0  0  0  0
  150.5895  143.4318  158.3857 C   0  0  1  0  0  0  0  0  0  0  0  0
  150.5942  144.2849  159.6686 C   0  0  0  0  0  0  0  0  0  0  0  0
  152.0240  144.5470  160.1672 C   0  0  0  0  0  0  0  0  0  0  0  0
  152.7835  143.2309  160.3890 C   0  0  0  0  0  0  0  0  0  0  0  0
  152.7929  142.3755  159.1131 C   0  0  0  0  0  0  0  0  0  0  0  0
  151.3625  142.1046  158.6018 C   0  0  2  0  0  0  0  0  0  0  0  0
  151.3981  141.2751  157.4037 N   0  0  0  0  0  0  0  0  0  0  0  0
  152.0889  140.0976  157.2049 C   0  0  0  0  0  0  0  0  0  0  0  0
  151.7948  139.7673  155.9122 C   0  0  0  0  0  0  0  0  0  0  0  0
  152.2508  138.5899  155.1059 C   0  0  0  0  0  0  0  0  0  0  0  0
  153.6552  138.6860  155.0078 O   0  0  0  0  0  0  0  0  0  0  0  0
  150.9515  140.7430  155.3837 N   0  0  0  0  0  0  0  0  0  0  0  0
  150.7321  141.6492  156.2823 N   0  0  0  0  0  0  0  0  0  0  0  0
  151.0723  144.0078  157.5949 H   0  0  0  0  0  0  0  0  0  0  0  0
  150.8397  141.5306  159.3692 H   0  0  0  0  0  0  0  0  0  0  0  0
  148.9986  142.1909  158.0315 H   0  0  0  0  0  0  0  0  0  0  0  0
  149.0925  143.4673  156.9915 H   0  0  0  0  0  0  0  0  0  0  0  0
  150.0918  145.2360  159.4879 H   0  0  0  0  0  0  0  0  0  0  0  0
  150.0273  143.7799  160.4520 H   0  0  0  0  0  0  0  0  0  0  0  0
  152.5593  145.1609  159.4416 H   0  0  0  0  0  0  0  0  0  0  0  0
  151.9957  145.1194  161.0950 H   0  0  0  0  0  0  0  0  0  0  0  0
  153.8066  143.4404  160.7030 H   0  0  0  0  0  0  0  0  0  0  0  0
  152.3188  142.6714  161.2018 H   0  0  0  0  0  0  0  0  0  0  0  0
  153.3747  142.8854  158.3439 H   0  0  0  0  0  0  0  0  0  0  0  0
  153.3040  141.4321  159.3096 H   0  0  0  0  0  0  0  0  0  0  0  0
  152.7039  139.6237  157.9557 H   0  0  0  0  0  0  0  0  0  0  0  0
  151.9805  137.6508  155.5886 H   0  0  0  0  0  0  0  0  0  0  0  0
  151.8140  138.5905  154.1068 H   0  0  0  0  0  0  0  0  0  0  0  0
  153.9214  138.3474  154.1667 H   0  0  0  0  0  0  0  0  0  0  0  0
  148.5651  143.6999  158.5367 H   0  0  0  0  0  0  0  0  0  0  0  0
  1  2  1  0  0  0  0
  1 17  1  0  0  0  0
  1 18  1  0  0  0  0
  1 31  1  0  0  0  0
  2 15  1  0  0  0  0
  2  7  1  0  0  0  0
  2  3  1  0  0  0  0
  3  4  1  0  0  0  0
  3 19  1  0  0  0  0
  3 20  1  0  0  0  0
  4  5  1  0  0  0  0
  4 21  1  0  0  0  0
  4 22  1  0  0  0  0
  5  6  1  0  0  0  0
  5 23  1  0  0  0  0
  5 24  1  0  0  0  0
  6  7  1  0  0  0  0
  6 25  1  0  0  0  0
  6 26  1  0  0  0  0
  7 16  1  0  0  0  0
  7  8  1  0  0  0  0
  8 14  1  0  0  0  0
  8  9  1  0  0  0  0
  9 10  2  0  0  0  0
  9 27  1  0  0  0  0
 10 11  1  0  0  0  0
 10 13  1  0  0  0  0
 11 12  1  0  0  0  0
 11 28  1  0  0  0  0
 11 29  1  0  0  0  0
 12 30  1  0  0  0  0
 13 14  2  0  0  0  0
M  CHG  1   1   1
M  END
> <s_m_source_file>
AV-unprocessed.smi

> <i_m_source_file_index>
2597

> <i_lp_mmshare_version>
43012

> <i_f3d_flags>
0

> <s_epik_input>
W05IMl1bQ0BIXTFbQ0gyXVtDSDJdW0NIMl1bQ0gyXVtDQEhdMW4yW2NIXWMobm4yKVtDSDJdW09IXQ==

> <s_epik_cmdline>
J2VwaWtfcHl0aG9uJywgJy1waCcsICc3LjAnLCAnLXRuJywgJzgnLCAnLW1hJywgJzIwMCcsICctbWV0YWxfYmluZGluZycsICctaW1hZScsICc8aW5maWxlLm1hZT4nLCAnLW9tYWUnLCAnPG91dGZpbGUubWFlPic=

> <r_lp_tautomer_probability>
1

> <r_epik_Ionization_Penalty>
0.014346

> <r_epik_Ionization_Penalty_Charging>
0.014316

> <r_epik_Ionization_Penalty_Neutral>
3.00097e-05

> <r_epik_State_Penalty>
0.0111909

> <r_epik_Charging_Adjusted_Penalty>
0.0255069

> <i_epik_Tot_Q>
1

> <i_epik_Tot_abs_Q>
1

> <r_epik_Metal_State_Penalty>
0.011192

> <b_epik_Metal_Only>
0

> <s_lp_Force_Field>
OPLS_2005

> <r_lp_Energy>
13.7949

> <b_lp_Chiralities_Consistent>
1

> <s_lp_Variant>
AV-unprocessed.smi:2597-3

> <Gold.Version>
5.8.1

> <Gold.Id.Protein>
6NUR|6NUR_protein|mol2

> <Gold.PLP.Fitness>
42.9584

> <Gold.PLP.PLP>
-31.9885

> <Gold.PLP.part.hbond>
-3.7599

> <Gold.PLP.part.metal>
0.0000

> <Gold.PLP.part.buried>
-4.3152

> <Gold.PLP.part.nonpolar>
-24.4571

> <Gold.PLP.part.repulsive>
0.1877

> <Gold.PLP.ligand.clash>
0.0000

> <Gold.PLP.ligand.torsion>
0.1210

> <Gold.PLP.Chemscore.Hbond>
3.7280

> <Gold.PLP.Chemscore.CHOScore>
0.0000

> <Gold.PLP.Chemscore.Metal>
0.0000

> <Gold.Chemscore.Hbonds>
donor molecule, donor type, donor heavy atom, donor atom, acceptor molecule, acceptor atom, score
      L1  H     1    18       P1  8028  2.00
      P1  H  7989  7998       L1    13  0.83
      P1  H  7997  8009       L1    12  0.90

> <Gold.PLP.Chemscore.Internal.Correction>
0.0279

> <Gold.Rescore>
     Score         DG    S(hbond)    S(metal)    S(lipo)     H(rot)  DE(clash)    DE(int)     intcor
     16.04     -17.71       2.28        0.00      80.08       1.86       0.02       1.66       ----

> <Gold.Chemscore.Fitness>
16.0355

> <Gold.Chemscore.DG>
-17.7117

> <Gold.Chemscore.ZeroCoef>
-5.4800

> <Gold.Chemscore.Hbond>
2.2787

> <Gold.Chemscore.Metal>
0.0000

> <Gold.Chemscore.Lipo>
80.0835

> <Gold.Chemscore.Internal_Hbond>
0.0000

> <Gold.Chemscore.DEClash>
0.0202

> <Gold.Chemscore.DEInternal>
1.6559

> <Gold.Chemscore.Rot>
1.8551

> <Gold.Chemscore.Internal.Correction>
   9.000000E+99

> <Gold.Chemscore.Hbonds>
donor molecule, donor type, donor heavy atom, donor atom, acceptor molecule, acceptor atom, score
      L1  H     1    18       P1  8028  0.72
      P1  H  7989  7998       L1    13  0.28
      P1  H  7997  8009       L1    12  0.84

> <Gold.Chemscore.Hbond.Weighted>
-7.6108

> <Gold.Chemscore.Metal.Weighted>
-0.0000

> <Gold.Chemscore.Lipo.Weighted>
-9.3698

> <Gold.Chemscore.Internal_Hbond.Weighted>
0.0000

> <Gold.Chemscore.DEClash.Weighted>
0.0202

> <Gold.Chemscore.DEInternal.Weighted>
1.6559

> <Gold.Chemscore.Rot.Weighted>
4.7489

> <Gold.Chemscore.Internal.Correction.Weighted>
   9.000000E+99

> <Gold.Protein.RotatedTorsions>
[ 6907 6896 6895 6894 ] final  -28.95 input  -60.11 | X-H torsion
[ 7974 7965 7964 7962 ] final -118.94 input  175.53 | X-H torsion
[ 8008 7997 7996 7995 ] final -132.47 input   59.86 | X-H torsion
[ 10167 10162 10161 10158 ] final  123.45 input  -65.29 | X-H torsion
[ 10718 10713 10712 10709 ] final   79.54 input   66.30 | X-H torsion
[ 10763 10752 10751 10750 ] final  -76.74 input  -60.55 | X-H torsion
[ 11005 11000 10999 10996 ] final  -95.81 input  -57.11 | X-H torsion

> <Gold.Protein.ActiveResidues>
 VAL166  LYS551  ARG553  GLY616  TRP617  ASP618  TYR619  PRO620  LYS621  CYS622 
 ASP623  PHE694  ASN695  SER759  ASP760  ASP761  ALA762  ILE779  LEU786  VAL792 
 PHE793  MET794  SER795  GLU796  ALA797  LYS798  CYS799  TRP800  GLU811  SER814 

> <Gold.Protein.RotatedAtoms>
  151.1258  135.0104  159.8559 H   0  0  0  0  0  0  0  0  0  0  0  0  # atno 6907 bound_to 6896
  152.5449  134.1668  159.8590 H   0  0  0  0  0  0  0  0  0  0  0  0  # atno 6908 bound_to 6896
  151.1730  133.4727  159.2627 H   0  0  0  0  0  0  0  0  0  0  0  0  # atno 6909 bound_to 6896
  145.0681  140.8339  143.4112 H   0  0  0  0  0  0  0  0  0  0  0  0  # atno 7974 bound_to 7965
  155.3294  140.0466  157.3042 H   0  0  0  0  0  0  0  0  0  0  0  0  # atno 8008 bound_to 7997
  154.5336  140.2265  155.8727 H   0  0  0  0  0  0  0  0  0  0  0  0  # atno 8009 bound_to 7997
  156.1813  140.3073  155.9160 H   0  0  0  0  0  0  0  0  0  0  0  0  # atno 8010 bound_to 7997
  139.5799  144.6981  151.3556 H   0  0  0  0  0  0  0  0  0  0  0  0  # atno 10167 bound_to 10162
  157.6779  130.9918  150.1947 H   0  0  0  0  0  0  0  0  0  0  0  0  # atno 10718 bound_to 10713
  154.5038  135.5787  153.6552 H   0  0  0  0  0  0  0  0  0  0  0  0  # atno 10763 bound_to 10752
  152.9884  135.6142  154.2967 H   0  0  0  0  0  0  0  0  0  0  0  0  # atno 10764 bound_to 10752
  154.2877  135.2849  155.2648 H   0  0  0  0  0  0  0  0  0  0  0  0  # atno 10765 bound_to 10752
  141.1430  133.8053  157.0486 H   0  0  0  0  0  0  0  0  0  0  0  0  # atno 11005 bound_to 11000
  145.1326  139.2622  143.5531 LP  0  0  0  0  0  0  0  0  0  0  0  0  # atno 17320 bound_to 7965
  146.3527  140.0981  142.8609 LP  0  0  0  0  0  0  0  0  0  0  0  0  # atno 17321 bound_to 7965
  140.7078  143.7469  150.7513 LP  0  0  0  0  0  0  0  0  0  0  0  0  # atno 17342 bound_to 10162
  140.0998  143.4798  152.2431 LP  0  0  0  0  0  0  0  0  0  0  0  0  # atno 17343 bound_to 10162
  156.2650  130.3715  149.8090 LP  0  0  0  0  0  0  0  0  0  0  0  0  # atno 17370 bound_to 10713
  156.5824  130.8471  151.3386 LP  0  0  0  0  0  0  0  0  0  0  0  0  # atno 17371 bound_to 10713
  140.0646  134.9736  157.1364 LP  0  0  0  0  0  0  0  0  0  0  0  0  # atno 17394 bound_to 11000
  140.3798  134.2299  155.7172 LP  0  0  0  0  0  0  0  0  0  0  0  0  # atno 17395 bound_to 11000

$$$$
