AV-unprocessed.smi:1100|AV-procd|sdf|4761|dock2
  -GOLD-   22720 3293D 1   1.00000     0.00000
 Structure written by MMmdl.
 44 45  0  0  0  0  0  0  0  0  2 V2000
  149.4650  131.0078  153.8332 C   0  0  0  0  0  0  0  0  0  0  0  0
  148.7891  132.2138  153.1365 C   0  0  2  0  0  0  0  0  0  0  0  0
  148.2577  133.2147  154.1969 C   0  0  0  0  0  0  0  0  0  0  0  0
  148.8532  134.5428  154.0812 N   0  0  0  0  0  0  0  0  0  0  0  0
  149.6319  135.1171  155.0091 C   0  0  0  0  0  0  0  0  0  0  0  0
  149.9276  134.5665  156.0690 O   0  0  0  0  0  0  0  0  0  0  0  0
  150.0127  136.3481  154.6222 N   0  0  0  0  0  0  0  0  0  0  0  0
  150.8402  137.2664  155.2837 C   0  0  0  0  0  0  0  0  0  0  0  0
  151.5743  138.3515  154.6482 C   0  0  0  0  0  0  0  0  0  0  0  0
  152.3495  139.1798  155.3759 C   0  0  0  0  0  0  0  0  0  0  0  0
  152.4876  139.0304  156.8266 C   0  0  0  0  0  0  0  0  0  0  0  0
  153.2033  139.7731  157.4991 O   0  0  0  0  0  0  0  0  0  0  0  0
  151.7683  138.0144  157.3848 N   0  0  0  0  0  0  0  0  0  0  0  0
  151.8315  137.7834  158.8300 C   0  0  0  0  0  0  0  0  0  0  0  0
  150.9635  137.1509  156.6185 C   0  0  0  0  0  0  0  0  0  0  0  0
  147.6868  131.8242  152.1977 N   0  3  0  0  0  0  0  0  0  0  0  0
  146.8301  130.7373  152.7459 C   0  0  0  0  0  0  0  0  0  0  0  0
  145.7730  130.2953  151.7214 C   0  0  0  0  0  0  0  0  0  0  0  0
  144.9782  131.4116  151.3497 O   0  0  0  0  0  0  0  0  0  0  0  0
  145.7584  132.4234  150.7305 C   0  0  0  0  0  0  0  0  0  0  0  0
  146.8248  132.9376  151.7129 C   0  0  0  0  0  0  0  0  0  0  0  0
  150.2460  131.3263  154.5235 H   0  0  0  0  0  0  0  0  0  0  0  0
  149.9568  130.3463  153.1199 H   0  0  0  0  0  0  0  0  0  0  0  0
  148.7448  130.4213  154.4046 H   0  0  0  0  0  0  0  0  0  0  0  0
  149.5632  132.7044  152.5440 H   0  0  0  0  0  0  0  0  0  0  0  0
  147.1749  133.3254  154.1486 H   0  0  0  0  0  0  0  0  0  0  0  0
  148.4755  132.8384  155.1970 H   0  0  0  0  0  0  0  0  0  0  0  0
  148.6560  135.0604  153.2370 H   0  0  0  0  0  0  0  0  0  0  0  0
  149.6553  136.6684  153.7341 H   0  0  0  0  0  0  0  0  0  0  0  0
  151.5120  138.5342  153.5880 H   0  0  0  0  0  0  0  0  0  0  0  0
  152.8787  139.9797  154.8788 H   0  0  0  0  0  0  0  0  0  0  0  0
  151.1277  137.0210  159.1653 H   0  0  0  0  0  0  0  0  0  0  0  0
  151.6003  138.6968  159.3801 H   0  0  0  0  0  0  0  0  0  0  0  0
  152.8317  137.4573  159.1180 H   0  0  0  0  0  0  0  0  0  0  0  0
  150.4582  136.3823  157.1857 H   0  0  0  0  0  0  0  0  0  0  0  0
  147.4246  129.8694  153.0253 H   0  0  0  0  0  0  0  0  0  0  0  0
  146.3369  131.0849  153.6551 H   0  0  0  0  0  0  0  0  0  0  0  0
  146.2417  129.8524  150.8412 H   0  0  0  0  0  0  0  0  0  0  0  0
  145.1265  129.5323  152.1551 H   0  0  0  0  0  0  0  0  0  0  0  0
  146.2209  132.0375  149.8203 H   0  0  0  0  0  0  0  0  0  0  0  0
  145.1014  133.2400  150.4299 H   0  0  0  0  0  0  0  0  0  0  0  0
  146.3470  133.4290  152.5620 H   0  0  0  0  0  0  0  0  0  0  0  0
  147.4155  133.6880  151.1884 H   0  0  0  0  0  0  0  0  0  0  0  0
  148.1391  131.4533  151.3743 H   0  0  0  0  0  0  0  0  0  0  0  0
  1  2  1  0  0  0  0
  1 22  1  0  0  0  0
  1 23  1  0  0  0  0
  1 24  1  0  0  0  0
  2  3  1  0  0  0  0
  2 16  1  0  0  0  0
  2 25  1  0  0  0  0
  3  4  1  0  0  0  0
  3 26  1  0  0  0  0
  3 27  1  0  0  0  0
  4  5  1  0  0  0  0
  4 28  1  0  0  0  0
  5  6  2  0  0  0  0
  5  7  1  0  0  0  0
  7  8  1  0  0  0  0
  7 29  1  0  0  0  0
  8 15  2  0  0  0  0
  8  9  1  0  0  0  0
  9 10  2  0  0  0  0
  9 30  1  0  0  0  0
 10 11  1  0  0  0  0
 10 31  1  0  0  0  0
 11 12  2  0  0  0  0
 11 13  1  0  0  0  0
 13 14  1  0  0  0  0
 13 15  1  0  0  0  0
 14 32  1  0  0  0  0
 14 33  1  0  0  0  0
 14 34  1  0  0  0  0
 15 35  1  0  0  0  0
 16 21  1  0  0  0  0
 16 17  1  0  0  0  0
 16 44  1  0  0  0  0
 17 18  1  0  0  0  0
 17 36  1  0  0  0  0
 17 37  1  0  0  0  0
 18 19  1  0  0  0  0
 18 38  1  0  0  0  0
 18 39  1  0  0  0  0
 19 20  1  0  0  0  0
 20 21  1  0  0  0  0
 20 40  1  0  0  0  0
 20 41  1  0  0  0  0
 21 42  1  0  0  0  0
 21 43  1  0  0  0  0
M  CHG  1  16   1
M  END
> <s_m_source_file>
AV-unprocessed.smi

> <i_m_source_file_index>
1100

> <i_lp_mmshare_version>
43012

> <i_f3d_flags>
0

> <s_epik_input>
W0NIMl0xW0NIMl1PW0NIMl1bQ0gyXU4xW0NASF0oW0NIM10pW0NIMl1bTkhdQyg9TylbTkhdYzJbY0hdW2NIXWMoPU8pbihbQ0gzXSlbY0hdMg==

> <s_epik_cmdline>
J2VwaWtfcHl0aG9uJywgJy1waCcsICc3LjAnLCAnLXRuJywgJzgnLCAnLW1hJywgJzIwMCcsICctbWV0YWxfYmluZGluZycsICctaW1hZScsICc8aW5maWxlLm1hZT4nLCAnLW9tYWUnLCAnPG91dGZpbGUubWFlPic=

> <r_lp_tautomer_probability>
1

> <r_epik_Ionization_Penalty>
0.602556

> <r_epik_Ionization_Penalty_Charging>
0.602536

> <r_epik_Ionization_Penalty_Neutral>
1.99507e-05

> <r_epik_State_Penalty>
0.617039

> <r_epik_Charging_Adjusted_Penalty>
1.21958

> <i_epik_Tot_Q>
1

> <i_epik_Tot_abs_Q>
1

> <r_epik_Metal_State_Penalty>
0.619464

> <b_epik_Metal_Only>
0

> <s_lp_Force_Field>
OPLS_2005

> <r_lp_Energy>
33.1854

> <b_lp_Chiralities_Consistent>
1

> <s_lp_Variant>
AV-unprocessed.smi:1100-3

> <Gold.Version>
5.8.1

> <Gold.Id.Protein>
6NUR|6NUR_protein|mol2

> <Gold.PLP.Fitness>
44.6980

> <Gold.PLP.PLP>
-34.9358

> <Gold.PLP.part.hbond>
-4.0000

> <Gold.PLP.part.metal>
0.0000

> <Gold.PLP.part.buried>
-4.8820

> <Gold.PLP.part.nonpolar>
-26.4094

> <Gold.PLP.part.repulsive>
0.2089

> <Gold.PLP.ligand.clash>
0.0000

> <Gold.PLP.ligand.torsion>
1.1611

> <Gold.PLP.Chemscore.Hbond>
4.0000

> <Gold.PLP.Chemscore.CHOScore>
0.0000

> <Gold.PLP.Chemscore.Metal>
0.0000

> <Gold.Chemscore.Hbonds>
donor molecule, donor type, donor heavy atom, donor atom, acceptor molecule, acceptor atom, score
      L1  H     4    28       P1  7948  1.00
      L1  H     7    29       P1  7948  0.98
      L1  H    16    44       P1 10747  0.93
      P1  H  7997  8010       L1    12  0.84

> <Gold.PLP.Chemscore.Internal.Correction>
0.0844

> <Gold.Rescore>
     Score         DG    S(hbond)    S(metal)    S(lipo)     H(rot)  DE(clash)    DE(int)     intcor
     19.62     -22.11       3.47        0.00      76.67       1.54       0.05       2.44       ----

> <Gold.Chemscore.Fitness>
19.6226

> <Gold.Chemscore.DG>
-22.1112

> <Gold.Chemscore.ZeroCoef>
-5.4800

> <Gold.Chemscore.Hbond>
3.4740

> <Gold.Chemscore.Metal>
0.0000

> <Gold.Chemscore.Lipo>
76.6678

> <Gold.Chemscore.Internal_Hbond>
0.0000

> <Gold.Chemscore.DEClash>
0.0530

> <Gold.Chemscore.DEInternal>
2.4356

> <Gold.Chemscore.Rot>
1.5398

> <Gold.Chemscore.Internal.Correction>
   9.000000E+99

> <Gold.Chemscore.Hbonds>
donor molecule, donor type, donor heavy atom, donor atom, acceptor molecule, acceptor atom, score
      L1  H     4    28       P1  7948  0.65
      L1  H     7    29       P1  7948  0.58
      L1  H    16    44       P1 10747  0.89
      P1  H  7997  8010       L1    12  0.50

> <Gold.Chemscore.Hbond.Weighted>
-11.6030

> <Gold.Chemscore.Metal.Weighted>
-0.0000

> <Gold.Chemscore.Lipo.Weighted>
-8.9701

> <Gold.Chemscore.Internal_Hbond.Weighted>
0.0000

> <Gold.Chemscore.DEClash.Weighted>
0.0530

> <Gold.Chemscore.DEInternal.Weighted>
2.4356

> <Gold.Chemscore.Rot.Weighted>
3.9420

> <Gold.Chemscore.Internal.Correction.Weighted>
   9.000000E+99

> <Gold.Protein.RotatedTorsions>
[ 6907 6896 6895 6894 ] final  163.34 input  -60.11 | X-H torsion
[ 7974 7965 7964 7962 ] final -149.05 input  175.53 | X-H torsion
[ 8008 7997 7996 7995 ] final   58.23 input   59.86 | X-H torsion
[ 10167 10162 10161 10158 ] final   33.68 input  -65.29 | X-H torsion
[ 10718 10713 10712 10709 ] final   -8.69 input   66.30 | X-H torsion
[ 10763 10752 10751 10750 ] final  163.16 input  -60.55 | X-H torsion
[ 11005 11000 10999 10996 ] final  -99.84 input  -57.11 | X-H torsion

> <Gold.Protein.ActiveResidues>
 VAL166  LYS551  ARG553  GLY616  TRP617  ASP618  TYR619  PRO620  LYS621  CYS622 
 ASP623  PHE694  ASN695  SER759  ASP760  ASP761  ALA762  ILE779  LEU786  VAL792 
 PHE793  MET794  SER795  GLU796  ALA797  LYS798  CYS799  TRP800  GLU811  SER814 

> <Gold.Protein.RotatedAtoms>
  151.9267  133.3600  159.3916 H   0  0  0  0  0  0  0  0  0  0  0  0  # atno 6907 bound_to 6896
  150.7025  134.4579  159.5376 H   0  0  0  0  0  0  0  0  0  0  0  0  # atno 6908 bound_to 6896
  152.2212  134.8411  160.0536 H   0  0  0  0  0  0  0  0  0  0  0  0  # atno 6909 bound_to 6896
  144.7991  140.5115  143.5719 H   0  0  0  0  0  0  0  0  0  0  0  0  # atno 7974 bound_to 7965
  155.5466  140.3485  155.4459 H   0  0  0  0  0  0  0  0  0  0  0  0  # atno 8008 bound_to 7997
  156.0613  140.1341  156.9964 H   0  0  0  0  0  0  0  0  0  0  0  0  # atno 8009 bound_to 7997
  154.4481  140.0984  156.6506 H   0  0  0  0  0  0  0  0  0  0  0  0  # atno 8010 bound_to 7997
  140.4385  144.1222  150.6170 H   0  0  0  0  0  0  0  0  0  0  0  0  # atno 10167 bound_to 10162
  156.6989  130.5087  149.5922 H   0  0  0  0  0  0  0  0  0  0  0  0  # atno 10718 bound_to 10713
  154.2895  135.2761  155.2661 H   0  0  0  0  0  0  0  0  0  0  0  0  # atno 10763 bound_to 10752
  154.5146  135.5773  153.6635 H   0  0  0  0  0  0  0  0  0  0  0  0  # atno 10764 bound_to 10752
  152.9916  135.6189  154.3059 H   0  0  0  0  0  0  0  0  0  0  0  0  # atno 10765 bound_to 10752
  141.1293  133.8352  157.1024 H   0  0  0  0  0  0  0  0  0  0  0  0  # atno 11005 bound_to 11000
  145.5598  139.1479  143.3347 LP  0  0  0  0  0  0  0  0  0  0  0  0  # atno 17320 bound_to 7965
  146.2267  140.5735  142.8993 LP  0  0  0  0  0  0  0  0  0  0  0  0  # atno 17321 bound_to 7965
  140.4346  143.2553  151.9551 LP  0  0  0  0  0  0  0  0  0  0  0  0  # atno 17342 bound_to 10162
  139.4788  144.5712  151.8086 LP  0  0  0  0  0  0  0  0  0  0  0  0  # atno 17343 bound_to 10162
  156.1743  130.6457  151.0875 LP  0  0  0  0  0  0  0  0  0  0  0  0  # atno 17370 bound_to 10713
  157.6980  131.0786  150.6908 LP  0  0  0  0  0  0  0  0  0  0  0  0  # atno 17371 bound_to 10713
  140.0325  134.9894  157.0808 LP  0  0  0  0  0  0  0  0  0  0  0  0  # atno 17394 bound_to 11000
  140.4263  134.1828  155.7166 LP  0  0  0  0  0  0  0  0  0  0  0  0  # atno 17395 bound_to 11000

$$$$
