AV-unprocessed.smi:1533|AV-procd|sdf|6164|dock1
  -GOLD-   22720 6313D 1   1.00000     0.00000
 Structure written by MMmdl.
 37 39  0  0  0  0  0  0  0  0  1 V2000
  152.4467  138.6874  154.6520 C   0  0  0  0  0  0  0  0  0  0  0  0
  151.3204  137.7176  154.7669 C   0  0  0  0  0  0  0  0  0  0  0  0
  150.0687  138.1273  154.9347 N   0  0  0  0  0  0  0  0  0  0  0  0
  149.3406  136.9299  154.9858 O   0  0  0  0  0  0  0  0  0  0  0  0
  150.2538  135.9369  154.8608 C   0  0  0  0  0  0  0  0  0  0  0  0
  149.7798  134.5227  154.8318 C   0  0  0  0  0  0  0  0  0  0  0  0
  148.2497  134.4199  154.7302 C   0  0  0  0  0  0  0  0  0  0  0  0
  147.8137  134.2165  153.3535 N   0  0  0  0  0  0  0  0  0  0  0  0
  147.2067  133.1128  152.8911 C   0  0  0  0  0  0  0  0  0  0  0  0
  146.9439  132.1441  153.6049 O   0  0  0  0  0  0  0  0  0  0  0  0
  146.8198  133.1297  151.4014 C   0  0  2  0  0  0  0  0  0  0  0  0
  145.8140  134.2390  151.0057 C   0  0  0  0  0  0  0  0  0  0  0  0
  144.7017  133.4557  150.2834 C   0  0  2  0  0  0  0  0  0  0  0  0
  143.8795  132.6602  151.3148 C   0  0  0  0  0  0  0  0  0  0  0  0
  144.8316  131.5113  151.6936 C   0  0  0  0  0  0  0  0  0  0  0  0
  146.1080  131.8482  150.8912 C   0  0  1  0  0  0  0  0  0  0  0  0
  145.4942  132.3538  149.5889 C   0  0  0  0  0  0  0  0  0  0  0  0
  151.5023  136.3701  154.7033 N   0  0  0  0  0  0  0  0  0  0  0  0
  152.0808  139.7148  154.6640 H   0  0  0  0  0  0  0  0  0  0  0  0
  152.9887  138.5261  153.7199 H   0  0  0  0  0  0  0  0  0  0  0  0
  153.1403  138.5583  155.4830 H   0  0  0  0  0  0  0  0  0  0  0  0
  150.2528  134.0172  153.9887 H   0  0  0  0  0  0  0  0  0  0  0  0
  150.1315  134.0208  155.7341 H   0  0  0  0  0  0  0  0  0  0  0  0
  147.8948  133.5764  155.3233 H   0  0  0  0  0  0  0  0  0  0  0  0
  147.7777  135.3121  155.1460 H   0  0  0  0  0  0  0  0  0  0  0  0
  147.9868  134.9698  152.7034 H   0  0  0  0  0  0  0  0  0  0  0  0
  147.7303  133.2745  150.8165 H   0  0  0  0  0  0  0  0  0  0  0  0
  145.4244  134.8163  151.8453 H   0  0  0  0  0  0  0  0  0  0  0  0
  146.2860  134.9462  150.3225 H   0  0  0  0  0  0  0  0  0  0  0  0
  144.0928  134.0731  149.6224 H   0  0  0  0  0  0  0  0  0  0  0  0
  143.6006  133.2689  152.1758 H   0  0  0  0  0  0  0  0  0  0  0  0
  142.9638  132.2688  150.8699 H   0  0  0  0  0  0  0  0  0  0  0  0
  144.9917  131.4270  152.7678 H   0  0  0  0  0  0  0  0  0  0  0  0
  144.4187  130.5586  151.3593 H   0  0  0  0  0  0  0  0  0  0  0  0
  146.7811  130.9994  150.7669 H   0  0  0  0  0  0  0  0  0  0  0  0
  144.8631  131.6165  149.0892 H   0  0  0  0  0  0  0  0  0  0  0  0
  146.2309  132.7319  148.8777 H   0  0  0  0  0  0  0  0  0  0  0  0
  1  2  1  0  0  0  0
  1 19  1  0  0  0  0
  1 20  1  0  0  0  0
  1 21  1  0  0  0  0
  2 18  1  0  0  0  0
  2  3  2  0  0  0  0
  3  4  1  0  0  0  0
  4  5  1  0  0  0  0
  5  6  1  0  0  0  0
  5 18  2  0  0  0  0
  6  7  1  0  0  0  0
  6 22  1  0  0  0  0
  6 23  1  0  0  0  0
  7  8  1  0  0  0  0
  7 24  1  0  0  0  0
  7 25  1  0  0  0  0
  8  9  1  0  0  0  0
  8 26  1  0  0  0  0
  9 10  2  0  0  0  0
  9 11  1  0  0  0  0
 11 16  1  0  0  0  0
 11 12  1  0  0  0  0
 11 27  1  0  0  0  0
 12 13  1  0  0  0  0
 12 28  1  0  0  0  0
 12 29  1  0  0  0  0
 13 17  1  0  0  0  0
 13 14  1  0  0  0  0
 13 30  1  0  0  0  0
 14 15  1  0  0  0  0
 14 31  1  0  0  0  0
 14 32  1  0  0  0  0
 15 16  1  0  0  0  0
 15 33  1  0  0  0  0
 15 34  1  0  0  0  0
 16 17  1  0  0  0  0
 16 35  1  0  0  0  0
 17 36  1  0  0  0  0
 17 37  1  0  0  0  0
M  END
> <s_m_source_file>
AV-unprocessed.smi

> <i_m_source_file_index>
1533

> <i_lp_mmshare_version>
43012

> <i_f3d_flags>
0

> <s_epik_input>
W0NIM11jMW5vYyhuMSlbQ0gyXVtDSDJdW05IXUMoPU8pW0NASF0oW0NIMl1bQ0BASF0yMylbQ0BASF0oW0NIMl0zKVtDSDJdW0NIMl0y

> <s_epik_cmdline>
J2VwaWtfcHl0aG9uJywgJy1waCcsICc3LjAnLCAnLXRuJywgJzgnLCAnLW1hJywgJzIwMCcsICctbWV0YWxfYmluZGluZycsICctaW1hZScsICc8aW5maWxlLm1hZT4nLCAnLW9tYWUnLCAnPG91dGZpbGUubWFlPic=

> <r_lp_tautomer_probability>
1

> <r_epik_Ionization_Penalty>
1.90116e-08

> <r_epik_Ionization_Penalty_Charging>
0

> <r_epik_Ionization_Penalty_Neutral>
1.90116e-08

> <r_epik_State_Penalty>
-0

> <r_epik_Charging_Adjusted_Penalty>
0

> <i_epik_Tot_Q>
0

> <i_epik_Tot_abs_Q>
0

> <r_epik_Metal_State_Penalty>
-0

> <b_epik_Metal_Only>
0

> <s_lp_Force_Field>
OPLS_2005

> <r_lp_Energy>
42.9891

> <b_lp_Chiralities_Consistent>
1

> <s_lp_Variant>
AV-unprocessed.smi:1533-3

> <Gold.Version>
5.8.1

> <Gold.Id.Protein>
6NUR|6NUR_protein|mol2

> <Gold.PLP.Fitness>
38.5297

> <Gold.PLP.PLP>
-33.2720

> <Gold.PLP.part.hbond>
-2.0000

> <Gold.PLP.part.metal>
0.0000

> <Gold.PLP.part.buried>
-3.9026

> <Gold.PLP.part.nonpolar>
-27.5537

> <Gold.PLP.part.repulsive>
0.5378

> <Gold.PLP.ligand.clash>
0.0000

> <Gold.PLP.ligand.torsion>
0.3888

> <Gold.PLP.Chemscore.Hbond>
2.0000

> <Gold.PLP.Chemscore.CHOScore>
0.0000

> <Gold.PLP.Chemscore.Metal>
0.0000

> <Gold.Chemscore.Hbonds>
donor molecule, donor type, donor heavy atom, donor atom, acceptor molecule, acceptor atom, score
      L1  H     8    26       P1  7948  1.00
      P1  H 10752 10764       L1    18  1.00

> <Gold.PLP.Chemscore.Internal.Correction>
0.0352

> <Gold.Rescore>
     Score         DG    S(hbond)    S(metal)    S(lipo)     H(rot)  DE(clash)    DE(int)     intcor
     13.86     -15.81       1.95        0.00      73.11       1.85       0.40       1.55       ----

> <Gold.Chemscore.Fitness>
13.8558

> <Gold.Chemscore.DG>
-15.8082

> <Gold.Chemscore.ZeroCoef>
-5.4800

> <Gold.Chemscore.Hbond>
1.9485

> <Gold.Chemscore.Metal>
0.0000

> <Gold.Chemscore.Lipo>
73.1072

> <Gold.Chemscore.Internal_Hbond>
0.0000

> <Gold.Chemscore.DEClash>
0.3983

> <Gold.Chemscore.DEInternal>
1.5541

> <Gold.Chemscore.Rot>
1.8490

> <Gold.Chemscore.Internal.Correction>
   9.000000E+99

> <Gold.Chemscore.Hbonds>
donor molecule, donor type, donor heavy atom, donor atom, acceptor molecule, acceptor atom, score
      L1  H     8    26       P1  7948  0.91
      P1  H 10752 10764       L1    18  0.99

> <Gold.Chemscore.Hbond.Weighted>
-6.5081

> <Gold.Chemscore.Metal.Weighted>
-0.0000

> <Gold.Chemscore.Lipo.Weighted>
-8.5535

> <Gold.Chemscore.Internal_Hbond.Weighted>
0.0000

> <Gold.Chemscore.DEClash.Weighted>
0.3983

> <Gold.Chemscore.DEInternal.Weighted>
1.5541

> <Gold.Chemscore.Rot.Weighted>
4.7334

> <Gold.Chemscore.Internal.Correction.Weighted>
   9.000000E+99

> <Gold.Protein.RotatedTorsions>
[ 6907 6896 6895 6894 ] final  -90.37 input  -60.11 | X-H torsion
[ 7974 7965 7964 7962 ] final  -52.31 input  175.53 | X-H torsion
[ 8008 7997 7996 7995 ] final   90.46 input   59.86 | X-H torsion
[ 10167 10162 10161 10158 ] final   47.52 input  -65.29 | X-H torsion
[ 10718 10713 10712 10709 ] final  -32.15 input   66.30 | X-H torsion
[ 10763 10752 10751 10750 ] final  -68.50 input  -60.55 | X-H torsion
[ 11005 11000 10999 10996 ] final -115.31 input  -57.11 | X-H torsion

> <Gold.Protein.ActiveResidues>
 VAL166  LYS551  ARG553  GLY616  TRP617  ASP618  TYR619  PRO620  LYS621  CYS622 
 ASP623  PHE694  ASN695  SER759  ASP760  ASP761  ALA762  ILE779  LEU786  VAL792 
 PHE793  MET794  SER795  GLU796  ALA797  LYS798  CYS799  TRP800  GLU811  SER814 

> <Gold.Protein.RotatedAtoms>
  150.6881  134.2443  159.4484 H   0  0  0  0  0  0  0  0  0  0  0  0  # atno 6907 bound_to 6896
  152.0385  134.9723  160.0583 H   0  0  0  0  0  0  0  0  0  0  0  0  # atno 6908 bound_to 6896
  152.1234  133.4331  159.4723 H   0  0  0  0  0  0  0  0  0  0  0  0  # atno 6909 bound_to 6896
  145.9094  140.7928  142.9703 H   0  0  0  0  0  0  0  0  0  0  0  0  # atno 7974 bound_to 7965
  156.0122  140.3349  155.6952 H   0  0  0  0  0  0  0  0  0  0  0  0  # atno 8008 bound_to 7997
  155.6142  140.0668  157.2715 H   0  0  0  0  0  0  0  0  0  0  0  0  # atno 8009 bound_to 7997
  154.4285  140.1788  156.1291 H   0  0  0  0  0  0  0  0  0  0  0  0  # atno 8010 bound_to 7997
  140.3028  144.2914  150.6215 H   0  0  0  0  0  0  0  0  0  0  0  0  # atno 10167 bound_to 10162
  156.3784  130.4351  149.7489 H   0  0  0  0  0  0  0  0  0  0  0  0  # atno 10718 bound_to 10713
  154.3899  135.6055  153.5837 H   0  0  0  0  0  0  0  0  0  0  0  0  # atno 10763 bound_to 10752
  152.9787  135.5881  154.4310 H   0  0  0  0  0  0  0  0  0  0  0  0  # atno 10764 bound_to 10752
  154.4093  135.2844  155.2025 H   0  0  0  0  0  0  0  0  0  0  0  0  # atno 10765 bound_to 10752
  141.0495  133.9709  157.2860 H   0  0  0  0  0  0  0  0  0  0  0  0  # atno 11005 bound_to 11000
  144.6742  140.1802  143.7406 LP  0  0  0  0  0  0  0  0  0  0  0  0  # atno 17320 bound_to 7965
  145.8691  139.2262  143.1672 LP  0  0  0  0  0  0  0  0  0  0  0  0  # atno 17321 bound_to 7965
  140.5636  143.2189  151.7722 LP  0  0  0  0  0  0  0  0  0  0  0  0  # atno 17342 bound_to 10162
  139.4911  144.4314  151.9868 LP  0  0  0  0  0  0  0  0  0  0  0  0  # atno 17343 bound_to 10162
  156.4589  130.7942  151.2963 LP  0  0  0  0  0  0  0  0  0  0  0  0  # atno 17370 bound_to 10713
  157.7490  131.0072  150.3181 LP  0  0  0  0  0  0  0  0  0  0  0  0  # atno 17371 bound_to 10713
  139.9339  135.0198  156.8492 LP  0  0  0  0  0  0  0  0  0  0  0  0  # atno 17394 bound_to 11000
  140.6082  134.0108  155.7565 LP  0  0  0  0  0  0  0  0  0  0  0  0  # atno 17395 bound_to 11000

$$$$
