AV-unprocessed.smi:2662|AV-procd|sdf|10319|dock4
  -GOLD-   2272014333D 1   1.00000     0.00000
 Structure written by MMmdl.
 36 38  0  0  0  0  0  0  0  0  1 V2000
  152.6792  137.6543  154.6625 O   0  0  0  0  0  0  0  0  0  0  0  0
  151.9150  138.3608  155.6185 C   0  0  0  0  0  0  0  0  0  0  0  0
  150.6821  139.0114  155.0575 C   0  0  0  0  0  0  0  0  0  0  0  0
  149.8000  138.3581  154.2972 N   0  0  0  0  0  0  0  0  0  0  0  0
  148.8525  139.3245  154.0255 C   0  0  0  0  0  0  0  0  0  0  0  0
  147.6645  139.2570  153.2634 C   0  0  0  0  0  0  0  0  0  0  0  0
  146.8395  140.3926  153.1264 C   0  0  0  0  0  0  0  0  0  0  0  0
  147.1891  141.6083  153.7491 C   0  0  0  0  0  0  0  0  0  0  0  0
  148.3694  141.6966  154.5121 C   0  0  0  0  0  0  0  0  0  0  0  0
  149.1904  140.5607  154.6437 C   0  0  0  0  0  0  0  0  0  0  0  0
  150.3931  140.3159  155.2992 N   0  0  0  0  0  0  0  0  0  0  0  0
  151.1543  141.2869  156.0747 C   0  0  0  0  0  0  0  0  0  0  0  0
  150.3428  141.8634  157.2534 C   0  0  1  0  0  0  0  0  0  0  0  0
  149.4983  140.8436  157.7490 O   0  0  0  0  0  0  0  0  0  0  0  0
  151.2325  142.4623  158.3371 C   0  0  0  0  0  0  0  0  0  0  0  0
  151.1909  143.8482  158.6105 C   0  0  0  0  0  0  0  0  0  0  0  0
  151.9917  144.3978  159.6299 C   0  0  0  0  0  0  0  0  0  0  0  0
  151.9404  145.7259  159.8877 F   0  0  0  0  0  0  0  0  0  0  0  0
  152.8408  143.5665  160.3841 C   0  0  0  0  0  0  0  0  0  0  0  0
  152.8881  142.1850  160.1179 C   0  0  0  0  0  0  0  0  0  0  0  0
  152.0877  141.6327  159.0992 C   0  0  0  0  0  0  0  0  0  0  0  0
  152.1389  140.2993  158.8653 F   0  0  0  0  0  0  0  0  0  0  0  0
  153.4805  138.1299  154.5067 H   0  0  0  0  0  0  0  0  0  0  0  0
  151.6230  137.6698  156.4095 H   0  0  0  0  0  0  0  0  0  0  0  0
  152.5537  139.1212  156.0655 H   0  0  0  0  0  0  0  0  0  0  0  0
  147.3881  138.3301  152.7831 H   0  0  0  0  0  0  0  0  0  0  0  0
  145.9341  140.3301  152.5407 H   0  0  0  0  0  0  0  0  0  0  0  0
  146.5514  142.4731  153.6397 H   0  0  0  0  0  0  0  0  0  0  0  0
  148.6416  142.6268  154.9883 H   0  0  0  0  0  0  0  0  0  0  0  0
  152.0427  140.7782  156.4518 H   0  0  0  0  0  0  0  0  0  0  0  0
  151.5163  142.0844  155.4261 H   0  0  0  0  0  0  0  0  0  0  0  0
  149.6755  142.6415  156.8818 H   0  0  0  0  0  0  0  0  0  0  0  0
  149.4536  140.9200  158.6897 H   0  0  0  0  0  0  0  0  0  0  0  0
  150.5361  144.4962  158.0467 H   0  0  0  0  0  0  0  0  0  0  0  0
  153.4537  143.9873  161.1675 H   0  0  0  0  0  0  0  0  0  0  0  0
  153.5371  141.5465  160.6990 H   0  0  0  0  0  0  0  0  0  0  0  0
  1  2  1  0  0  0  0
  1 23  1  0  0  0  0
  2  3  1  0  0  0  0
  2 24  1  0  0  0  0
  2 25  1  0  0  0  0
  3 11  1  0  0  0  0
  3  4  2  0  0  0  0
  4  5  1  0  0  0  0
  5 10  2  0  0  0  0
  5  6  1  0  0  0  0
  6  7  2  0  0  0  0
  6 26  1  0  0  0  0
  7  8  1  0  0  0  0
  7 27  1  0  0  0  0
  8  9  2  0  0  0  0
  8 28  1  0  0  0  0
  9 10  1  0  0  0  0
  9 29  1  0  0  0  0
 10 11  1  0  0  0  0
 11 12  1  0  0  0  0
 12 13  1  0  0  0  0
 12 30  1  0  0  0  0
 12 31  1  0  0  0  0
 13 14  1  0  0  0  0
 13 15  1  0  0  0  0
 13 32  1  0  0  0  0
 14 33  1  0  0  0  0
 15 21  1  0  0  0  0
 15 16  2  0  0  0  0
 16 17  1  0  0  0  0
 16 34  1  0  0  0  0
 17 18  1  0  0  0  0
 17 19  2  0  0  0  0
 19 20  1  0  0  0  0
 19 35  1  0  0  0  0
 20 21  2  0  0  0  0
 20 36  1  0  0  0  0
 21 22  1  0  0  0  0
M  END
> <s_m_source_file>
AV-unprocessed.smi

> <i_m_source_file_index>
2662

> <i_lp_mmshare_version>
43012

> <i_f3d_flags>
0

> <s_epik_input>
W2NIXTFbY0hdW2NIXVtjSF1jKGMxMiluKGMobjIpW0NIMl1bT0hdKVtDSDJdW0NASF0oW09IXSljM1tjSF1jKEYpW2NIXVtjSF1jM0Y=

> <s_epik_cmdline>
J2VwaWtfcHl0aG9uJywgJy1waCcsICc3LjAnLCAnLXRuJywgJzgnLCAnLW1hJywgJzIwMCcsICctbWV0YWxfYmluZGluZycsICctaW1hZScsICc8aW5maWxlLm1hZT4nLCAnLW9tYWUnLCAnPG91dGZpbGUubWFlPic=

> <r_epik_Ionization_Penalty>
0.0634732

> <r_epik_Ionization_Penalty_Charging>
0

> <r_epik_Ionization_Penalty_Neutral>
0.0634732

> <r_epik_State_Penalty>
0.0551572

> <r_epik_Charging_Adjusted_Penalty>
0.0551572

> <i_epik_Tot_Q>
0

> <i_epik_Tot_abs_Q>
0

> <r_epik_Metal_State_Penalty>
5.78034e-05

> <b_epik_Metal_Only>
0

> <s_lp_Force_Field>
OPLS_2005

> <r_lp_Energy>
12.437

> <b_lp_Chiralities_Consistent>
1

> <s_lp_Variant>
AV-unprocessed.smi:2662-2

> <Gold.Version>
5.8.1

> <Gold.Id.Protein>
6NUR|6NUR_protein|mol2

> <Gold.PLP.Fitness>
51.7530

> <Gold.PLP.PLP>
-51.0193

> <Gold.PLP.part.hbond>
-1.0000

> <Gold.PLP.part.metal>
0.0000

> <Gold.PLP.part.buried>
-3.2147

> <Gold.PLP.part.nonpolar>
-47.3648

> <Gold.PLP.part.repulsive>
0.2263

> <Gold.PLP.ligand.clash>
0.0000

> <Gold.PLP.ligand.torsion>
0.3861

> <Gold.PLP.Chemscore.Hbond>
0.4960

> <Gold.PLP.Chemscore.CHOScore>
0.0000

> <Gold.PLP.Chemscore.Metal>
0.0000

> <Gold.Chemscore.Hbonds>
donor molecule, donor type, donor heavy atom, donor atom, acceptor molecule, acceptor atom, score
      P1  H 10752 10765       L1     1  0.50

> <Gold.PLP.Chemscore.Internal.Correction>
0.0178

> <Gold.Rescore>
     Score         DG    S(hbond)    S(metal)    S(lipo)     H(rot)  DE(clash)    DE(int)     intcor
     12.58     -14.27       0.42        0.00     126.10       2.88       0.19       1.50       ----

> <Gold.Chemscore.Fitness>
12.5782

> <Gold.Chemscore.DG>
-14.2669

> <Gold.Chemscore.ZeroCoef>
-5.4800

> <Gold.Chemscore.Hbond>
0.4185

> <Gold.Chemscore.Metal>
0.0000

> <Gold.Chemscore.Lipo>
126.0977

> <Gold.Chemscore.Internal_Hbond>
0.0000

> <Gold.Chemscore.DEClash>
0.1862

> <Gold.Chemscore.DEInternal>
1.5025

> <Gold.Chemscore.Rot>
2.8767

> <Gold.Chemscore.Internal.Correction>
   9.000000E+99

> <Gold.Chemscore.Hbonds>
donor molecule, donor type, donor heavy atom, donor atom, acceptor molecule, acceptor atom, score
      P1  H 10752 10765       L1     1  0.34

> <Gold.Chemscore.Hbond.Weighted>
-1.3979

> <Gold.Chemscore.Metal.Weighted>
-0.0000

> <Gold.Chemscore.Lipo.Weighted>
-14.7534

> <Gold.Chemscore.Internal_Hbond.Weighted>
0.0000

> <Gold.Chemscore.DEClash.Weighted>
0.1862

> <Gold.Chemscore.DEInternal.Weighted>
1.5025

> <Gold.Chemscore.Rot.Weighted>
7.3644

> <Gold.Chemscore.Internal.Correction.Weighted>
   9.000000E+99

> <Gold.Protein.RotatedTorsions>
[ 6907 6896 6895 6894 ] final  -35.64 input  -60.11 | X-H torsion
[ 7974 7965 7964 7962 ] final  107.72 input  175.53 | X-H torsion
[ 8008 7997 7996 7995 ] final  -15.23 input   59.86 | X-H torsion
[ 10167 10162 10161 10158 ] final   40.61 input  -65.29 | X-H torsion
[ 10718 10713 10712 10709 ] final -161.26 input   66.30 | X-H torsion
[ 10763 10752 10751 10750 ] final  164.48 input  -60.55 | X-H torsion
[ 11005 11000 10999 10996 ] final  -52.12 input  -57.11 | X-H torsion

> <Gold.Protein.ActiveResidues>
 VAL166  LYS551  ARG553  GLY616  TRP617  ASP618  TYR619  PRO620  LYS621  CYS622 
 ASP623  PHE694  ASN695  SER759  ASP760  ASP761  ALA762  ILE779  LEU786  VAL792 
 PHE793  MET794  SER795  GLU796  ALA797  LYS798  CYS799  TRP800  GLU811  SER814 

> <Gold.Protein.RotatedAtoms>
  151.0372  134.9581  159.8142 H   0  0  0  0  0  0  0  0  0  0  0  0  # atno 6907 bound_to 6896
  152.5357  134.2704  159.8979 H   0  0  0  0  0  0  0  0  0  0  0  0  # atno 6908 bound_to 6896
  151.2715  133.4210  159.2655 H   0  0  0  0  0  0  0  0  0  0  0  0  # atno 6909 bound_to 6896
  145.2900  139.2603  143.3870 H   0  0  0  0  0  0  0  0  0  0  0  0  # atno 7974 bound_to 7965
  154.5147  140.2202  155.9089 H   0  0  0  0  0  0  0  0  0  0  0  0  # atno 8008 bound_to 7997
  156.1593  140.3145  155.8745 H   0  0  0  0  0  0  0  0  0  0  0  0  # atno 8009 bound_to 7997
  155.3783  140.0471  157.3035 H   0  0  0  0  0  0  0  0  0  0  0  0  # atno 8010 bound_to 7997
  140.3724  144.2087  150.6132 H   0  0  0  0  0  0  0  0  0  0  0  0  # atno 10167 bound_to 10162
  156.5938  130.8781  151.2896 H   0  0  0  0  0  0  0  0  0  0  0  0  # atno 10718 bound_to 10713
  154.3095  135.2757  155.2573 H   0  0  0  0  0  0  0  0  0  0  0  0  # atno 10763 bound_to 10752
  154.4974  135.5817  153.6508 H   0  0  0  0  0  0  0  0  0  0  0  0  # atno 10764 bound_to 10752
  152.9890  135.6149  154.3271 H   0  0  0  0  0  0  0  0  0  0  0  0  # atno 10765 bound_to 10752
  141.0907  133.6633  156.3977 H   0  0  0  0  0  0  0  0  0  0  0  0  # atno 11005 bound_to 11000
  146.3188  140.3388  142.8646 LP  0  0  0  0  0  0  0  0  0  0  0  0  # atno 17320 bound_to 7965
  144.9181  140.7836  143.5765 LP  0  0  0  0  0  0  0  0  0  0  0  0  # atno 17321 bound_to 7965
  140.5019  143.2315  151.8665 LP  0  0  0  0  0  0  0  0  0  0  0  0  # atno 17342 bound_to 10162
  139.4802  144.5049  151.9011 LP  0  0  0  0  0  0  0  0  0  0  0  0  # atno 17343 bound_to 10162
  157.7297  130.9675  150.1799 LP  0  0  0  0  0  0  0  0  0  0  0  0  # atno 17370 bound_to 10713
  156.2527  130.3702  149.8215 LP  0  0  0  0  0  0  0  0  0  0  0  0  # atno 17371 bound_to 10713
  140.5258  134.6260  157.5333 LP  0  0  0  0  0  0  0  0  0  0  0  0  # atno 17394 bound_to 11000
  139.9733  134.7257  155.9999 LP  0  0  0  0  0  0  0  0  0  0  0  0  # atno 17395 bound_to 11000

$$$$
