AV-unprocessed.smi:633|AV-procd|sdf|3132|dock10
  -GOLD-   22720 0 53D 1   1.00000     0.00000
 Structure written by MMmdl.
 53 56  0  0  0  0  0  0  0  0  1 V2000
  152.2552  144.3934  157.6030 C   0  0  0  0  0  0  0  0  0  0  0  0
  151.3564  143.6201  158.5846 C   0  0  1  0  0  0  0  0  0  0  0  0
  150.6222  142.4293  157.9371 C   0  0  0  0  0  0  0  0  0  0  0  0
  151.5331  141.3083  157.7147 N   0  0  0  0  0  0  0  0  0  0  0  0
  151.0912  140.2478  156.8948 C   0  0  0  0  0  0  0  0  0  0  0  0
  150.7071  140.4977  155.5566 C   0  0  0  0  0  0  0  0  0  0  0  0
  150.2693  139.4276  154.7530 C   0  0  0  0  0  0  0  0  0  0  0  0
  150.2179  138.1290  155.3104 C   0  0  0  0  0  0  0  0  0  0  0  0
  149.8181  136.9658  154.5984 N   0  0  0  0  0  0  0  0  0  0  0  0
  149.6701  135.7119  155.0592 C   0  0  0  0  0  0  0  0  0  0  0  0
  149.9090  135.3462  156.2097 O   0  0  0  0  0  0  0  0  0  0  0  0
  149.2423  134.8898  154.0885 N   0  0  0  0  0  0  0  0  0  0  0  0
  148.9775  133.4567  154.2084 C   0  0  0  0  0  0  0  0  0  0  0  0
  150.1213  132.6693  154.8312 C   0  0  0  0  0  0  0  0  0  0  0  0
  149.9007  131.2913  155.4088 C   0  0  0  0  0  0  0  0  0  0  0  0
  150.2014  132.4574  156.3238 C   0  0  0  0  0  0  0  0  0  0  0  0
  148.5131  132.8075  152.9130 C   0  0  0  0  0  0  0  0  0  0  0  0
  147.2829  133.3007  152.1899 C   0  0  0  0  0  0  0  0  0  0  0  0
  147.2710  131.9492  152.8688 C   0  0  0  0  0  0  0  0  0  0  0  0
  150.6288  137.9771  156.6492 C   0  0  0  0  0  0  0  0  0  0  0  0
  151.0460  139.0003  157.4235 N   0  0  0  0  0  0  0  0  0  0  0  0
  152.2645  140.9160  158.9149 C   0  0  0  0  0  0  0  0  0  0  0  0
  152.9987  142.1281  159.5159 C   0  0  2  0  0  0  0  0  0  0  0  0
  153.6655  141.7858  160.8525 C   0  0  0  0  0  0  0  0  0  0  0  0
  152.0699  143.1875  159.7452 O   0  0  0  0  0  0  0  0  0  0  0  0
  151.6625  144.8254  156.7961 H   0  0  0  0  0  0  0  0  0  0  0  0
  153.0098  143.7564  157.1421 H   0  0  0  0  0  0  0  0  0  0  0  0
  152.7692  145.2114  158.1081 H   0  0  0  0  0  0  0  0  0  0  0  0
  150.6002  144.3221  158.9374 H   0  0  0  0  0  0  0  0  0  0  0  0
  149.8136  142.0987  158.5906 H   0  0  0  0  0  0  0  0  0  0  0  0
  150.1675  142.7460  156.9974 H   0  0  0  0  0  0  0  0  0  0  0  0
  150.7333  141.4944  155.1421 H   0  0  0  0  0  0  0  0  0  0  0  0
  149.9953  139.6243  153.7283 H   0  0  0  0  0  0  0  0  0  0  0  0
  149.6706  137.0955  153.6082 H   0  0  0  0  0  0  0  0  0  0  0  0
  149.0827  135.2933  153.1771 H   0  0  0  0  0  0  0  0  0  0  0  0
  148.1407  133.3952  154.9057 H   0  0  0  0  0  0  0  0  0  0  0  0
  151.0747  132.8087  154.3245 H   0  0  0  0  0  0  0  0  0  0  0  0
  148.8863  130.8978  155.4189 H   0  0  0  0  0  0  0  0  0  0  0  0
  150.6856  130.5532  155.2586 H   0  0  0  0  0  0  0  0  0  0  0  0
  151.1868  132.4963  156.7833 H   0  0  0  0  0  0  0  0  0  0  0  0
  149.3858  132.8379  156.9353 H   0  0  0  0  0  0  0  0  0  0  0  0
  149.3293  132.4716  152.2759 H   0  0  0  0  0  0  0  0  0  0  0  0
  146.7087  134.1005  152.6534 H   0  0  0  0  0  0  0  0  0  0  0  0
  147.3139  133.3182  151.1024 H   0  0  0  0  0  0  0  0  0  0  0  0
  147.2939  131.0662  152.2333 H   0  0  0  0  0  0  0  0  0  0  0  0
  146.6827  131.8533  153.7792 H   0  0  0  0  0  0  0  0  0  0  0  0
  150.6188  137.0042  157.1188 H   0  0  0  0  0  0  0  0  0  0  0  0
  151.5552  140.5108  159.6375 H   0  0  0  0  0  0  0  0  0  0  0  0
  152.9873  140.1281  158.7074 H   0  0  0  0  0  0  0  0  0  0  0  0
  153.7758  142.4627  158.8283 H   0  0  0  0  0  0  0  0  0  0  0  0
  154.3966  140.9858  160.7329 H   0  0  0  0  0  0  0  0  0  0  0  0
  152.9297  141.4597  161.5883 H   0  0  0  0  0  0  0  0  0  0  0  0
  154.1850  142.6525  161.2619 H   0  0  0  0  0  0  0  0  0  0  0  0
  1  2  1  0  0  0  0
  1 26  1  0  0  0  0
  1 27  1  0  0  0  0
  1 28  1  0  0  0  0
  2 25  1  0  0  0  0
  2  3  1  0  0  0  0
  2 29  1  0  0  0  0
  3  4  1  0  0  0  0
  3 30  1  0  0  0  0
  3 31  1  0  0  0  0
  4  5  1  0  0  0  0
  4 22  1  0  0  0  0
  5 21  1  0  0  0  0
  5  6  2  0  0  0  0
  6  7  1  0  0  0  0
  6 32  1  0  0  0  0
  7  8  2  0  0  0  0
  7 33  1  0  0  0  0
  8  9  1  0  0  0  0
  8 20  1  0  0  0  0
  9 10  1  0  0  0  0
  9 34  1  0  0  0  0
 10 11  2  0  0  0  0
 10 12  1  0  0  0  0
 12 13  1  0  0  0  0
 12 35  1  0  0  0  0
 13 14  1  0  0  0  0
 13 17  1  0  0  0  0
 13 36  1  0  0  0  0
 14 16  1  0  0  0  0
 14 15  1  0  0  0  0
 14 37  1  0  0  0  0
 15 16  1  0  0  0  0
 15 38  1  0  0  0  0
 15 39  1  0  0  0  0
 16 40  1  0  0  0  0
 16 41  1  0  0  0  0
 17 19  1  0  0  0  0
 17 18  1  0  0  0  0
 17 42  1  0  0  0  0
 18 19  1  0  0  0  0
 18 43  1  0  0  0  0
 18 44  1  0  0  0  0
 19 45  1  0  0  0  0
 19 46  1  0  0  0  0
 20 21  2  0  0  0  0
 20 47  1  0  0  0  0
 22 23  1  0  0  0  0
 22 48  1  0  0  0  0
 22 49  1  0  0  0  0
 23 24  1  0  0  0  0
 23 25  1  0  0  0  0
 23 50  1  0  0  0  0
 24 51  1  0  0  0  0
 24 52  1  0  0  0  0
 24 53  1  0  0  0  0
M  END
> <s_m_source_file>
AV-unprocessed.smi

> <i_m_source_file_index>
633

> <i_lp_mmshare_version>
43012

> <i_f3d_flags>
0

> <s_epik_input>
W0NIM11bQ0BASF0xW0NIMl1OKFtDSDJdW0NASF0oTzEpW0NIM10pYzJbY0hdW2NIXWMoW2NIXW4yKVtOSF1DKD1PKVtOSF1bQ0hdKFtDSF0zW0NIMl1bQ0gyXTMpW0NIXTRbQ0gyXVtDSDJdNA==

> <s_epik_cmdline>
J2VwaWtfcHl0aG9uJywgJy1waCcsICc3LjAnLCAnLXRuJywgJzgnLCAnLW1hJywgJzIwMCcsICctbWV0YWxfYmluZGluZycsICctaW1hZScsICc8aW5maWxlLm1hZT4nLCAnLW9tYWUnLCAnPG91dGZpbGUubWFlPic=

> <r_lp_tautomer_probability>
1

> <r_epik_Ionization_Penalty>
0.00291159

> <r_epik_Ionization_Penalty_Charging>
0

> <r_epik_Ionization_Penalty_Neutral>
0.00291159

> <r_epik_State_Penalty>
0.00200877

> <r_epik_Charging_Adjusted_Penalty>
0.00200877

> <i_epik_Tot_Q>
0

> <i_epik_Tot_abs_Q>
0

> <r_epik_Metal_State_Penalty>
-0

> <b_epik_Metal_Only>
0

> <s_lp_Force_Field>
OPLS_2005

> <r_lp_Energy>
43.3159

> <b_lp_Chiralities_Consistent>
1

> <s_lp_Variant>
AV-unprocessed.smi:633-3

> <Gold.Version>
5.8.1

> <Gold.Id.Protein>
6NUR|6NUR_protein|mol2

> <Gold.PLP.Fitness>
51.5658

> <Gold.PLP.PLP>
-46.3545

> <Gold.PLP.part.hbond>
-2.0000

> <Gold.PLP.part.metal>
0.0000

> <Gold.PLP.part.buried>
-5.1129

> <Gold.PLP.part.nonpolar>
-39.6178

> <Gold.PLP.part.repulsive>
0.0780

> <Gold.PLP.ligand.clash>
0.0000

> <Gold.PLP.ligand.torsion>
1.5020

> <Gold.PLP.Chemscore.Hbond>
1.9048

> <Gold.PLP.Chemscore.CHOScore>
0.0000

> <Gold.PLP.Chemscore.Metal>
0.0000

> <Gold.Chemscore.Hbonds>
donor molecule, donor type, donor heavy atom, donor atom, acceptor molecule, acceptor atom, score
      L1  H     9    34       P1  7948  0.89
      L1  H    12    35       P1  7948  1.00

> <Gold.PLP.Chemscore.Internal.Correction>
2.5010

> <Gold.Rescore>
     Score         DG    S(hbond)    S(metal)    S(lipo)     H(rot)  DE(clash)    DE(int)     intcor
     18.25     -21.17       1.69        0.00     116.60       1.40       0.04       2.88       ----

> <Gold.Chemscore.Fitness>
18.2512

> <Gold.Chemscore.DG>
-21.1728

> <Gold.Chemscore.ZeroCoef>
-5.4800

> <Gold.Chemscore.Hbond>
1.6888

> <Gold.Chemscore.Metal>
0.0000

> <Gold.Chemscore.Lipo>
116.5957

> <Gold.Chemscore.Internal_Hbond>
0.0000

> <Gold.Chemscore.DEClash>
0.0389

> <Gold.Chemscore.DEInternal>
2.8827

> <Gold.Chemscore.Rot>
1.4022

> <Gold.Chemscore.Internal.Correction>
   9.000000E+99

> <Gold.Chemscore.Hbonds>
donor molecule, donor type, donor heavy atom, donor atom, acceptor molecule, acceptor atom, score
      L1  H     9    34       P1  7948  0.61
      L1  H    12    35       P1  7948  0.29

> <Gold.Chemscore.Hbond.Weighted>
-5.6407

> <Gold.Chemscore.Metal.Weighted>
-0.0000

> <Gold.Chemscore.Lipo.Weighted>
-13.6417

> <Gold.Chemscore.Internal_Hbond.Weighted>
0.0000

> <Gold.Chemscore.DEClash.Weighted>
0.0389

> <Gold.Chemscore.DEInternal.Weighted>
2.8827

> <Gold.Chemscore.Rot.Weighted>
3.5897

> <Gold.Chemscore.Internal.Correction.Weighted>
   9.000000E+99

> <Gold.Protein.RotatedTorsions>
[ 6907 6896 6895 6894 ] final  150.80 input  -60.11 | X-H torsion
[ 7974 7965 7964 7962 ] final -170.15 input  175.53 | X-H torsion
[ 8008 7997 7996 7995 ] final  -87.09 input   59.86 | X-H torsion
[ 10167 10162 10161 10158 ] final -121.70 input  -65.29 | X-H torsion
[ 10718 10713 10712 10709 ] final   98.09 input   66.30 | X-H torsion
[ 10763 10752 10751 10750 ] final    4.39 input  -60.55 | X-H torsion
[ 11005 11000 10999 10996 ] final  155.32 input  -57.11 | X-H torsion

> <Gold.Protein.ActiveResidues>
 VAL166  LYS551  ARG553  GLY616  TRP617  ASP618  TYR619  PRO620  LYS621  CYS622 
 ASP623  PHE694  ASN695  SER759  ASP760  ASP761  ALA762  ILE779  LEU786  VAL792 
 PHE793  MET794  SER795  GLU796  ALA797  LYS798  CYS799  TRP800  GLU811  SER814 

> <Gold.Protein.RotatedAtoms>
  152.1094  133.4292  159.4623 H   0  0  0  0  0  0  0  0  0  0  0  0  # atno 6907 bound_to 6896
  150.6866  134.2666  159.4580 H   0  0  0  0  0  0  0  0  0  0  0  0  # atno 6908 bound_to 6896
  152.0533  134.9639  160.0625 H   0  0  0  0  0  0  0  0  0  0  0  0  # atno 6909 bound_to 6896
  144.7174  140.2115  143.6327 H   0  0  0  0  0  0  0  0  0  0  0  0  # atno 7974 bound_to 7965
  154.6593  140.0570  157.0044 H   0  0  0  0  0  0  0  0  0  0  0  0  # atno 8008 bound_to 7997
  155.1253  140.3251  155.4469 H   0  0  0  0  0  0  0  0  0  0  0  0  # atno 8009 bound_to 7997
  156.2611  140.1990  156.6373 H   0  0  0  0  0  0  0  0  0  0  0  0  # atno 8010 bound_to 7997
  140.0222  143.5333  152.2215 H   0  0  0  0  0  0  0  0  0  0  0  0  # atno 10167 bound_to 10162
  157.6901  131.0629  150.4743 H   0  0  0  0  0  0  0  0  0  0  0  0  # atno 10718 bound_to 10713
  153.2718  135.6933  153.7473 H   0  0  0  0  0  0  0  0  0  0  0  0  # atno 10763 bound_to 10752
  153.6493  135.3379  155.3096 H   0  0  0  0  0  0  0  0  0  0  0  0  # atno 10764 bound_to 10752
  154.8466  135.4450  154.1743 H   0  0  0  0  0  0  0  0  0  0  0  0  # atno 10765 bound_to 10752
  140.1571  134.8635  157.2528 H   0  0  0  0  0  0  0  0  0  0  0  0  # atno 11005 bound_to 11000
  145.8586  139.2211  143.1730 LP  0  0  0  0  0  0  0  0  0  0  0  0  # atno 17320 bound_to 7965
  146.0194  140.8362  142.9931 LP  0  0  0  0  0  0  0  0  0  0  0  0  # atno 17321 bound_to 7965
  139.6132  144.7613  151.2905 LP  0  0  0  0  0  0  0  0  0  0  0  0  # atno 17342 bound_to 10162
  140.7338  143.6785  150.8021 LP  0  0  0  0  0  0  0  0  0  0  0  0  # atno 17343 bound_to 10162
  156.5079  130.4132  149.6317 LP  0  0  0  0  0  0  0  0  0  0  0  0  # atno 17370 bound_to 10713
  156.3268  130.7310  151.2232 LP  0  0  0  0  0  0  0  0  0  0  0  0  # atno 17371 bound_to 10713
  140.2534  134.3656  155.7433 LP  0  0  0  0  0  0  0  0  0  0  0  0  # atno 17394 bound_to 11000
  141.2205  133.7329  156.8971 LP  0  0  0  0  0  0  0  0  0  0  0  0  # atno 17395 bound_to 11000

$$$$
