AV-unprocessed.smi:2895|AV-procd|sdf|11135|dock10
  -GOLD-   2272016 13D 1   1.00000     0.00000
 Structure written by MMmdl.
 54 57  0  0  0  0  0  0  0  0  3 V2000
  148.0783  138.0594  155.6768 O   0  0  0  0  0  0  0  0  0  0  0  0
  149.1833  138.0472  156.2205 C   0  0  0  0  0  0  0  0  0  0  0  0
  150.0581  137.0451  156.0278 N   0  0  0  0  0  0  0  0  0  0  0  0
  149.8328  135.8802  155.1790 C   0  0  0  0  0  0  0  0  0  0  0  0
  150.1261  134.5651  155.9212 C   0  0  0  0  0  0  0  0  0  0  0  0
  149.4949  133.3669  155.2380 C   0  0  0  0  0  0  0  0  0  0  0  0
  148.6269  133.5469  154.1384 C   0  0  0  0  0  0  0  0  0  0  0  0
  148.0546  132.4158  153.5210 C   0  0  0  0  0  0  0  0  0  0  0  0
  148.3391  131.1794  153.9860 N   0  3  0  0  0  0  0  0  0  0  0  0
  149.1634  130.9637  155.0346 C   0  0  0  0  0  0  0  0  0  0  0  0
  149.7668  132.0565  155.6900 C   0  0  0  0  0  0  0  0  0  0  0  0
  149.6249  139.0444  157.0296 N   0  0  0  0  0  0  0  0  0  0  0  0
  148.9510  140.3289  157.2805 C   0  0  0  0  0  0  0  0  0  0  0  0
  149.7882  141.4670  156.6640 C   0  0  0  0  0  0  0  0  0  0  0  0
  151.1853  141.4805  157.1854 N   0  3  0  0  0  0  0  0  0  0  0  0
  151.3314  142.0690  158.5517 C   0  0  1  0  0  0  0  0  0  0  0  0
  152.7977  142.1785  159.0386 C   0  0  0  0  0  0  0  0  0  0  0  0
  152.9023  143.6378  159.5198 C   0  0  1  0  0  0  0  0  0  0  0  0
  152.9827  144.5600  158.2912 C   0  0  0  0  0  0  0  0  0  0  0  0
  151.5562  144.4786  157.7195 C   0  0  0  0  0  0  0  0  0  0  0  0
  150.8399  143.5310  158.7065 C   0  0  2  0  0  0  0  0  0  0  0  0
  151.4941  143.9198  160.0283 C   0  0  0  0  0  0  0  0  0  0  0  0
  151.8272  140.1418  157.0442 C   0  0  0  0  0  0  0  0  0  0  0  0
  150.9594  139.0140  157.6400 C   0  0  0  0  0  0  0  0  0  0  0  0
  150.9534  137.1040  156.4908 H   0  0  0  0  0  0  0  0  0  0  0  0
  148.8086  135.8893  154.8019 H   0  0  0  0  0  0  0  0  0  0  0  0
  150.4848  135.9681  154.3095 H   0  0  0  0  0  0  0  0  0  0  0  0
  151.2033  134.4112  155.9963 H   0  0  0  0  0  0  0  0  0  0  0  0
  149.7518  134.6146  156.9446 H   0  0  0  0  0  0  0  0  0  0  0  0
  148.4032  134.5381  153.7709 H   0  0  0  0  0  0  0  0  0  0  0  0
  147.3828  132.4625  152.6762 H   0  0  0  0  0  0  0  0  0  0  0  0
  149.3141  129.9315  155.3158 H   0  0  0  0  0  0  0  0  0  0  0  0
  150.4277  131.8876  156.5280 H   0  0  0  0  0  0  0  0  0  0  0  0
  147.9357  140.3825  156.8885 H   0  0  0  0  0  0  0  0  0  0  0  0
  148.8497  140.4720  158.3570 H   0  0  0  0  0  0  0  0  0  0  0  0
  149.8388  141.3217  155.5841 H   0  0  0  0  0  0  0  0  0  0  0  0
  149.2938  142.4272  156.8009 H   0  0  0  0  0  0  0  0  0  0  0  0
  150.7739  141.4518  159.2577 H   0  0  0  0  0  0  0  0  0  0  0  0
  152.9801  141.4811  159.8571 H   0  0  0  0  0  0  0  0  0  0  0  0
  153.5323  141.9731  158.2590 H   0  0  0  0  0  0  0  0  0  0  0  0
  153.6997  143.8055  160.2446 H   0  0  0  0  0  0  0  0  0  0  0  0
  153.2195  145.5828  158.5885 H   0  0  0  0  0  0  0  0  0  0  0  0
  153.7395  144.2374  157.5751 H   0  0  0  0  0  0  0  0  0  0  0  0
  151.0893  145.4644  157.7260 H   0  0  0  0  0  0  0  0  0  0  0  0
  151.5401  144.1153  156.6920 H   0  0  0  0  0  0  0  0  0  0  0  0
  149.7547  143.6360  158.7095 H   0  0  0  0  0  0  0  0  0  0  0  0
  151.1997  143.2835  160.8649 H   0  0  0  0  0  0  0  0  0  0  0  0
  151.3334  144.9646  160.3009 H   0  0  0  0  0  0  0  0  0  0  0  0
  151.9737  139.9517  155.9801 H   0  0  0  0  0  0  0  0  0  0  0  0
  152.8221  140.1242  157.4869 H   0  0  0  0  0  0  0  0  0  0  0  0
  150.8603  139.1340  158.7192 H   0  0  0  0  0  0  0  0  0  0  0  0
  151.4666  138.0583  157.5026 H   0  0  0  0  0  0  0  0  0  0  0  0
  151.6996  142.1059  156.5811 H   0  0  0  0  0  0  0  0  0  0  0  0
  147.9127  130.3744  153.5260 H   0  0  0  0  0  0  0  0  0  0  0  0
  1  2  2  0  0  0  0
  2  3  1  0  0  0  0
  2 12  1  0  0  0  0
  3  4  1  0  0  0  0
  3 25  1  0  0  0  0
  4  5  1  0  0  0  0
  4 26  1  0  0  0  0
  4 27  1  0  0  0  0
  5  6  1  0  0  0  0
  5 28  1  0  0  0  0
  5 29  1  0  0  0  0
  6 11  1  0  0  0  0
  6  7  2  0  0  0  0
  7  8  1  0  0  0  0
  7 30  1  0  0  0  0
  8  9  2  0  0  0  0
  8 31  1  0  0  0  0
  9 10  1  0  0  0  0
  9 54  1  0  0  0  0
 10 11  2  0  0  0  0
 10 32  1  0  0  0  0
 11 33  1  0  0  0  0
 12 24  1  0  0  0  0
 12 13  1  0  0  0  0
 13 14  1  0  0  0  0
 13 34  1  0  0  0  0
 13 35  1  0  0  0  0
 14 15  1  0  0  0  0
 14 36  1  0  0  0  0
 14 37  1  0  0  0  0
 15 16  1  0  0  0  0
 15 23  1  0  0  0  0
 15 53  1  0  0  0  0
 16 21  1  0  0  0  0
 16 17  1  0  0  0  0
 16 38  1  0  0  0  0
 17 18  1  0  0  0  0
 17 39  1  0  0  0  0
 17 40  1  0  0  0  0
 18 22  1  0  0  0  0
 18 19  1  0  0  0  0
 18 41  1  0  0  0  0
 19 20  1  0  0  0  0
 19 42  1  0  0  0  0
 19 43  1  0  0  0  0
 20 21  1  0  0  0  0
 20 44  1  0  0  0  0
 20 45  1  0  0  0  0
 21 22  1  0  0  0  0
 21 46  1  0  0  0  0
 22 47  1  0  0  0  0
 22 48  1  0  0  0  0
 23 24  1  0  0  0  0
 23 49  1  0  0  0  0
 23 50  1  0  0  0  0
 24 51  1  0  0  0  0
 24 52  1  0  0  0  0
M  CHG  1   9   1
M  CHG  1  15   1
M  END
> <s_m_source_file>
AV-unprocessed.smi

> <i_m_source_file_index>
2895

> <i_lp_mmshare_version>
43012

> <i_f3d_flags>
0

> <s_epik_input>
W0NIMl0xW0NIMl1bQ0BASF0oW0NIMl0yKVtDQEBIXShbQ0gyXVtDQEhdMTIpTihbQ0gyXVtDSDJdMylbQ0gyXVtDSDJdTjNDKD1PKVtOSF1bQ0gyXVtDSDJdYzRbY0hdW2NIXW5bY0hdW2NIXTQ=

> <s_epik_cmdline>
J2VwaWtfcHl0aG9uJywgJy1waCcsICc3LjAnLCAnLXRuJywgJzgnLCAnLW1hJywgJzIwMCcsICctbWV0YWxfYmluZGluZycsICctaW1hZScsICc8aW5maWxlLm1hZT4nLCAnLW9tYWUnLCAnPG91dGZpbGUubWFlPic=

> <r_epik_Ionization_Penalty>
1.44916

> <r_epik_Ionization_Penalty_Charging>
1.44913

> <r_epik_Ionization_Penalty_Neutral>
2.64641e-05

> <r_epik_State_Penalty>
1.53218

> <r_epik_Charging_Adjusted_Penalty>
2.98131

> <i_epik_Tot_Q>
2

> <i_epik_Tot_abs_Q>
2

> <r_epik_Metal_State_Penalty>
1.58241

> <b_epik_Metal_Only>
0

> <s_lp_Force_Field>
OPLS_2005

> <r_lp_Energy>
107.439

> <b_lp_Chiralities_Consistent>
1

> <s_lp_Variant>
AV-unprocessed.smi:2895-8

> <Gold.Version>
5.8.1

> <Gold.Id.Protein>
6NUR|6NUR_protein|mol2

> <Gold.PLP.Fitness>
42.1177

> <Gold.PLP.PLP>
-44.2402

> <Gold.PLP.part.hbond>
0.0000

> <Gold.PLP.part.metal>
0.0000

> <Gold.PLP.part.buried>
-5.8520

> <Gold.PLP.part.nonpolar>
-38.8510

> <Gold.PLP.part.repulsive>
0.1599

> <Gold.PLP.ligand.clash>
1.8142

> <Gold.PLP.ligand.torsion>
0.1997

> <Gold.PLP.Chemscore.Hbond>
0.0000

> <Gold.PLP.Chemscore.CHOScore>
0.0000

> <Gold.PLP.Chemscore.Metal>
0.0000

> <Gold.PLP.Chemscore.Internal.Correction>
0.0911

> <Gold.Rescore>
     Score         DG    S(hbond)    S(metal)    S(lipo)     H(rot)  DE(clash)    DE(int)     intcor
     17.78     -18.31       0.00        0.00     141.56       1.46       0.33       0.20       ----

> <Gold.Chemscore.Fitness>
17.7807

> <Gold.Chemscore.DG>
-18.3116

> <Gold.Chemscore.ZeroCoef>
-5.4800

> <Gold.Chemscore.Hbond>
0.0000

> <Gold.Chemscore.Metal>
0.0000

> <Gold.Chemscore.Lipo>
141.5563

> <Gold.Chemscore.Internal_Hbond>
0.0000

> <Gold.Chemscore.DEClash>
0.3297

> <Gold.Chemscore.DEInternal>
0.2011

> <Gold.Chemscore.Rot>
1.4572

> <Gold.Chemscore.Internal.Correction>
   9.000000E+99

> <Gold.Chemscore.Hbond.Weighted>
-0.0000

> <Gold.Chemscore.Metal.Weighted>
-0.0000

> <Gold.Chemscore.Lipo.Weighted>
-16.5621

> <Gold.Chemscore.Internal_Hbond.Weighted>
0.0000

> <Gold.Chemscore.DEClash.Weighted>
0.3297

> <Gold.Chemscore.DEInternal.Weighted>
0.2011

> <Gold.Chemscore.Rot.Weighted>
3.7305

> <Gold.Chemscore.Internal.Correction.Weighted>
   9.000000E+99

> <Gold.Protein.RotatedTorsions>
[ 6907 6896 6895 6894 ] final -154.56 input  -60.11 | X-H torsion
[ 7974 7965 7964 7962 ] final  -88.97 input  175.53 | X-H torsion
[ 8008 7997 7996 7995 ] final  135.11 input   59.86 | X-H torsion
[ 10167 10162 10161 10158 ] final   24.84 input  -65.29 | X-H torsion
[ 10718 10713 10712 10709 ] final    8.51 input   66.30 | X-H torsion
[ 10763 10752 10751 10750 ] final  150.21 input  -60.55 | X-H torsion
[ 11005 11000 10999 10996 ] final  163.11 input  -57.11 | X-H torsion

> <Gold.Protein.ActiveResidues>
 VAL166  LYS551  ARG553  GLY616  TRP617  ASP618  TYR619  PRO620  LYS621  CYS622 
 ASP623  PHE694  ASN695  SER759  ASP760  ASP761  ALA762  ILE779  LEU786  VAL792 
 PHE793  MET794  SER795  GLU796  ALA797  LYS798  CYS799  TRP800  GLU811  SER814 

> <Gold.Protein.RotatedAtoms>
  151.2593  133.4310  159.2615 H   0  0  0  0  0  0  0  0  0  0  0  0  # atno 6907 bound_to 6896
  151.0546  134.9696  159.8239 H   0  0  0  0  0  0  0  0  0  0  0  0  # atno 6908 bound_to 6896
  152.5388  134.2546  159.8964 H   0  0  0  0  0  0  0  0  0  0  0  0  # atno 6909 bound_to 6896
  145.4460  140.9560  143.2048 H   0  0  0  0  0  0  0  0  0  0  0  0  # atno 7974 bound_to 7965
  156.3002  140.2479  156.3528 H   0  0  0  0  0  0  0  0  0  0  0  0  # atno 8008 bound_to 7997
  154.8949  140.0408  157.1879 H   0  0  0  0  0  0  0  0  0  0  0  0  # atno 8009 bound_to 7997
  154.8559  140.2913  155.5573 H   0  0  0  0  0  0  0  0  0  0  0  0  # atno 8010 bound_to 7997
  140.5155  144.0089  150.6392 H   0  0  0  0  0  0  0  0  0  0  0  0  # atno 10167 bound_to 10162
  156.9526  130.5903  149.5657 H   0  0  0  0  0  0  0  0  0  0  0  0  # atno 10718 bound_to 10713
  154.0838  135.2857  155.3285 H   0  0  0  0  0  0  0  0  0  0  0  0  # atno 10763 bound_to 10752
  154.6666  135.5315  153.8088 H   0  0  0  0  0  0  0  0  0  0  0  0  # atno 10764 bound_to 10752
  153.0439  135.6547  154.1012 H   0  0  0  0  0  0  0  0  0  0  0  0  # atno 10765 bound_to 10752
  140.2325  134.8113  157.3331 H   0  0  0  0  0  0  0  0  0  0  0  0  # atno 11005 bound_to 11000
  144.8091  139.5995  143.7037 LP  0  0  0  0  0  0  0  0  0  0  0  0  # atno 17320 bound_to 7965
  146.2530  139.6241  142.9414 LP  0  0  0  0  0  0  0  0  0  0  0  0  # atno 17321 bound_to 7965
  140.3423  143.3012  152.0575 LP  0  0  0  0  0  0  0  0  0  0  0  0  # atno 17342 bound_to 10162
  139.4908  144.6433  151.6831 LP  0  0  0  0  0  0  0  0  0  0  0  0  # atno 17343 bound_to 10162
  156.0356  130.5444  150.8645 LP  0  0  0  0  0  0  0  0  0  0  0  0  # atno 17370 bound_to 10713
  157.5711  131.0946  150.9415 LP  0  0  0  0  0  0  0  0  0  0  0  0  # atno 17371 bound_to 10713
  140.1736  134.4578  155.7816 LP  0  0  0  0  0  0  0  0  0  0  0  0  # atno 17394 bound_to 11000
  141.2217  133.6952  156.7749 LP  0  0  0  0  0  0  0  0  0  0  0  0  # atno 17395 bound_to 11000

$$$$
