AV-unprocessed.smi:155|AV-procd|sdf|1271|dock9
  -GOLD-   2262018533D 1   1.00000     0.00000
 Structure written by MMmdl.
 63 66  0  0  0  0  0  0  0  0  2 V2000
  145.9043  132.0454  149.3682 C   0  0  0  0  0  0  0  0  0  0  0  0
  145.4824  132.5822  150.6575 N   0  0  0  0  0  0  0  0  0  0  0  0
  144.8348  131.5143  151.4075 C   0  0  0  0  0  0  0  0  0  0  0  0
  146.6221  133.0835  151.4232 C   0  0  0  0  0  0  0  0  0  0  0  0
  146.1952  133.7267  152.7654 C   0  0  0  0  0  0  0  0  0  0  0  0
  147.3126  134.3604  153.5136 N   0  3  2  0  0  0  0  0  0  0  0  0
  148.3397  133.3888  153.9657 C   0  0  0  0  0  0  0  0  0  0  0  0
  149.6409  134.0608  154.4349 C   0  0  0  0  0  0  0  0  0  0  0  0
  149.5274  134.7183  155.8201 C   0  0  0  0  0  0  0  0  0  0  0  0
  148.9143  136.0484  155.7964 N   0  0  0  0  0  0  0  0  0  0  0  0
  149.5717  137.0547  156.4324 C   0  0  0  0  0  0  0  0  0  0  0  0
  150.1325  136.8127  157.6479 N   0  0  0  0  0  0  0  0  0  0  0  0
  150.7761  137.7828  158.3037 C   0  0  0  0  0  0  0  0  0  0  0  0
  150.9787  139.0477  157.9326 N   0  0  0  0  0  0  0  0  0  0  0  0
  150.4283  139.2968  156.7105 C   0  0  0  0  0  0  0  0  0  0  0  0
  149.7160  138.3690  155.8985 C   0  0  0  0  0  0  0  0  0  0  0  0
  149.3216  138.9876  154.7164 N   0  0  0  0  0  0  0  0  0  0  0  0
  149.7613  140.2114  154.8312 C   0  0  0  0  0  0  0  0  0  0  0  0
  150.4357  140.4822  155.9993 N   0  0  0  0  0  0  0  0  0  0  0  0
  151.0284  141.7466  156.3942 C   0  0  0  0  0  0  0  0  0  0  0  0
  151.2448  141.8357  157.9195 C   0  0  2  0  0  0  0  0  0  0  0  0
  150.0034  141.9020  158.5929 O   0  0  0  0  0  0  0  0  0  0  0  0
  152.1195  143.0241  158.3673 C   0  0  1  0  0  0  0  0  0  0  0  0
  151.5475  144.3941  157.9951 C   0  0  0  0  0  0  0  0  0  0  0  0
  152.1818  145.2863  159.0367 C   0  0  0  0  0  0  0  0  0  0  0  0
  152.1379  144.3916  160.2705 C   0  0  0  0  0  0  0  0  0  0  0  0
  152.2749  143.0585  159.7863 O   0  0  0  0  0  0  0  0  0  0  0  0
  147.8776  136.4066  154.8260 C   0  0  0  0  0  0  0  0  0  0  0  0
  146.8525  135.2910  154.5749 C   0  0  0  0  0  0  0  0  0  0  0  0
  146.3529  132.8167  148.7438 H   0  0  0  0  0  0  0  0  0  0  0  0
  145.0470  131.6487  148.8230 H   0  0  0  0  0  0  0  0  0  0  0  0
  146.6299  131.2400  149.4903 H   0  0  0  0  0  0  0  0  0  0  0  0
  144.4743  131.8835  152.3686 H   0  0  0  0  0  0  0  0  0  0  0  0
  145.5203  130.6864  151.5948 H   0  0  0  0  0  0  0  0  0  0  0  0
  143.9736  131.1282  150.8610 H   0  0  0  0  0  0  0  0  0  0  0  0
  147.2981  132.2575  151.6491 H   0  0  0  0  0  0  0  0  0  0  0  0
  147.1933  133.7748  150.8025 H   0  0  0  0  0  0  0  0  0  0  0  0
  145.4104  134.4706  152.6235 H   0  0  0  0  0  0  0  0  0  0  0  0
  145.7400  132.9632  153.3972 H   0  0  0  0  0  0  0  0  0  0  0  0
  147.9415  132.7439  154.7499 H   0  0  0  0  0  0  0  0  0  0  0  0
  148.5866  132.7376  153.1267 H   0  0  0  0  0  0  0  0  0  0  0  0
  150.4002  133.2813  154.5057 H   0  0  0  0  0  0  0  0  0  0  0  0
  150.0138  134.7673  153.6919 H   0  0  0  0  0  0  0  0  0  0  0  0
  148.9755  134.0768  156.5079 H   0  0  0  0  0  0  0  0  0  0  0  0
  150.5397  134.7918  156.2194 H   0  0  0  0  0  0  0  0  0  0  0  0
  151.1854  137.5067  159.2645 H   0  0  0  0  0  0  0  0  0  0  0  0
  149.6035  140.9549  154.0634 H   0  0  0  0  0  0  0  0  0  0  0  0
  151.9751  141.8530  155.8645 H   0  0  0  0  0  0  0  0  0  0  0  0
  150.3854  142.5561  156.0463 H   0  0  0  0  0  0  0  0  0  0  0  0
  151.7228  140.9174  158.2639 H   0  0  0  0  0  0  0  0  0  0  0  0
  149.7781  142.8119  158.7127 H   0  0  0  0  0  0  0  0  0  0  0  0
  153.1145  142.9486  157.9243 H   0  0  0  0  0  0  0  0  0  0  0  0
  151.7893  144.6911  156.9744 H   0  0  0  0  0  0  0  0  0  0  0  0
  150.4628  144.4126  158.1046 H   0  0  0  0  0  0  0  0  0  0  0  0
  153.2154  145.5052  158.7648 H   0  0  0  0  0  0  0  0  0  0  0  0
  151.6547  146.2307  159.1739 H   0  0  0  0  0  0  0  0  0  0  0  0
  152.9161  144.6373  160.9933 H   0  0  0  0  0  0  0  0  0  0  0  0
  151.1719  144.4799  160.7693 H   0  0  0  0  0  0  0  0  0  0  0  0
  147.3336  137.2668  155.2194 H   0  0  0  0  0  0  0  0  0  0  0  0
  148.3336  136.7327  153.8901 H   0  0  0  0  0  0  0  0  0  0  0  0
  145.9360  135.7718  154.2301 H   0  0  0  0  0  0  0  0  0  0  0  0
  146.5913  134.7631  155.4935 H   0  0  0  0  0  0  0  0  0  0  0  0
  147.7748  134.9421  152.8294 H   0  0  0  0  0  0  0  0  0  0  0  0
  1  2  1  0  0  0  0
  1 30  1  0  0  0  0
  1 31  1  0  0  0  0
  1 32  1  0  0  0  0
  2  3  1  0  0  0  0
  2  4  1  0  0  0  0
  3 33  1  0  0  0  0
  3 34  1  0  0  0  0
  3 35  1  0  0  0  0
  4  5  1  0  0  0  0
  4 36  1  0  0  0  0
  4 37  1  0  0  0  0
  5  6  1  0  0  0  0
  5 38  1  0  0  0  0
  5 39  1  0  0  0  0
  6 29  1  0  0  0  0
  6  7  1  0  0  0  0
  6 63  1  0  0  0  0
  7  8  1  0  0  0  0
  7 40  1  0  0  0  0
  7 41  1  0  0  0  0
  8  9  1  0  0  0  0
  8 42  1  0  0  0  0
  8 43  1  0  0  0  0
  9 10  1  0  0  0  0
  9 44  1  0  0  0  0
  9 45  1  0  0  0  0
 10 11  1  0  0  0  0
 10 28  1  0  0  0  0
 11 16  1  0  0  0  0
 11 12  2  0  0  0  0
 12 13  1  0  0  0  0
 13 14  2  0  0  0  0
 13 46  1  0  0  0  0
 14 15  1  0  0  0  0
 15 19  1  0  0  0  0
 15 16  2  0  0  0  0
 16 17  1  0  0  0  0
 17 18  2  0  0  0  0
 18 19  1  0  0  0  0
 18 47  1  0  0  0  0
 19 20  1  0  0  0  0
 20 21  1  0  0  0  0
 20 48  1  0  0  0  0
 20 49  1  0  0  0  0
 21 22  1  0  0  0  0
 21 23  1  0  0  0  0
 21 50  1  0  0  0  0
 22 51  1  0  0  0  0
 23 27  1  0  0  0  0
 23 24  1  0  0  0  0
 23 52  1  0  0  0  0
 24 25  1  0  0  0  0
 24 53  1  0  0  0  0
 24 54  1  0  0  0  0
 25 26  1  0  0  0  0
 25 55  1  0  0  0  0
 25 56  1  0  0  0  0
 26 27  1  0  0  0  0
 26 57  1  0  0  0  0
 26 58  1  0  0  0  0
 28 29  1  0  0  0  0
 28 59  1  0  0  0  0
 28 60  1  0  0  0  0
 29 61  1  0  0  0  0
 29 62  1  0  0  0  0
M  CHG  1   6   1
M  END
> <s_m_source_file>
AV-unprocessed.smi

> <i_m_source_file_index>
155

> <i_lp_mmshare_version>
43012

> <i_f3d_flags>
0

> <s_epik_input>
W0NIM11OKFtDSDNdKVtDSDJdW0NIMl1OMVtDSDJdW0NIMl1bQ0gyXU4oW0NIMl1bQ0gyXTEpYyhuW2NIXW4yKWMoYzIzKW5bY0hdbjNbQ0gyXVtDQEhdKFtPSF0pW0NAQEhdNFtDSDJdW0NIMl1bQ0gyXU80

> <s_epik_cmdline>
J2VwaWtfcHl0aG9uJywgJy1waCcsICc3LjAnLCAnLXRuJywgJzgnLCAnLW1hJywgJzIwMCcsICctbWV0YWxfYmluZGluZycsICctaW1hZScsICc8aW5maWxlLm1hZT4nLCAnLW9tYWUnLCAnPG91dGZpbGUubWFlPic=

> <r_epik_Ionization_Penalty>
0.0619615

> <r_epik_Ionization_Penalty_Charging>
0.0161638

> <r_epik_Ionization_Penalty_Neutral>
0.0457976

> <r_epik_State_Penalty>
0.403408

> <r_epik_Charging_Adjusted_Penalty>
0.419572

> <i_epik_Tot_Q>
1

> <i_epik_Tot_abs_Q>
1

> <r_epik_Metal_State_Penalty>
0.404222

> <b_epik_Metal_Only>
0

> <s_lp_Force_Field>
OPLS_2005

> <r_lp_Energy>
57.0558

> <b_lp_Chiralities_Consistent>
1

> <s_lp_Variant>
AV-unprocessed.smi:155-5

> <Gold.Version>
5.8.1

> <Gold.Id.Protein>
6NUR|6NUR_protein|mol2

> <Gold.PLP.Fitness>
52.7048

> <Gold.PLP.PLP>
-48.2114

> <Gold.PLP.part.hbond>
-1.1563

> <Gold.PLP.part.metal>
0.0000

> <Gold.PLP.part.buried>
-7.3855

> <Gold.PLP.part.nonpolar>
-38.9338

> <Gold.PLP.part.repulsive>
0.2535

> <Gold.PLP.ligand.clash>
0.0000

> <Gold.PLP.ligand.torsion>
0.9099

> <Gold.PLP.Chemscore.Hbond>
2.0000

> <Gold.PLP.Chemscore.CHOScore>
0.0000

> <Gold.PLP.Chemscore.Metal>
0.0000

> <Gold.Chemscore.Hbonds>
donor molecule, donor type, donor heavy atom, donor atom, acceptor molecule, acceptor atom, score
      L1  H     6    63       P1  7948  2.00

> <Gold.PLP.Chemscore.Internal.Correction>
0.3131

> <Gold.Rescore>
     Score         DG    S(hbond)    S(metal)    S(lipo)     H(rot)  DE(clash)    DE(int)     intcor
     12.52     -16.07       0.98        0.00     120.20       2.63       0.16       3.39       ----

> <Gold.Chemscore.Fitness>
12.5203

> <Gold.Chemscore.DG>
-16.0712

> <Gold.Chemscore.ZeroCoef>
-5.4800

> <Gold.Chemscore.Hbond>
0.9780

> <Gold.Chemscore.Metal>
0.0000

> <Gold.Chemscore.Lipo>
120.2025

> <Gold.Chemscore.Internal_Hbond>
0.0000

> <Gold.Chemscore.DEClash>
0.1613

> <Gold.Chemscore.DEInternal>
3.3897

> <Gold.Chemscore.Rot>
2.6324

> <Gold.Chemscore.Internal.Correction>
   9.000000E+99

> <Gold.Chemscore.Hbonds>
donor molecule, donor type, donor heavy atom, donor atom, acceptor molecule, acceptor atom, score
      L1  H     6    63       P1  7948  0.96

> <Gold.Chemscore.Hbond.Weighted>
-3.2664

> <Gold.Chemscore.Metal.Weighted>
-0.0000

> <Gold.Chemscore.Lipo.Weighted>
-14.0637

> <Gold.Chemscore.Internal_Hbond.Weighted>
0.0000

> <Gold.Chemscore.DEClash.Weighted>
0.1613

> <Gold.Chemscore.DEInternal.Weighted>
3.3897

> <Gold.Chemscore.Rot.Weighted>
6.7389

> <Gold.Chemscore.Internal.Correction.Weighted>
   9.000000E+99

> <Gold.Protein.RotatedTorsions>
[ 6907 6896 6895 6894 ] final   71.36 input  -60.11 | X-H torsion
[ 7974 7965 7964 7962 ] final   72.06 input  175.53 | X-H torsion
[ 8008 7997 7996 7995 ] final -101.42 input   59.86 | X-H torsion
[ 10167 10162 10161 10158 ] final -149.19 input  -65.29 | X-H torsion
[ 10718 10713 10712 10709 ] final -114.38 input   66.30 | X-H torsion
[ 10763 10752 10751 10750 ] final   14.81 input  -60.55 | X-H torsion
[ 11005 11000 10999 10996 ] final   -9.09 input  -57.11 | X-H torsion

> <Gold.Protein.ActiveResidues>
 VAL166  LYS551  ARG553  GLY616  TRP617  ASP618  TYR619  PRO620  LYS621  CYS622 
 ASP623  PHE694  ASN695  SER759  ASP760  ASP761  ALA762  ILE779  LEU786  VAL792 
 PHE793  MET794  SER795  GLU796  ALA797  LYS798  CYS799  TRP800  GLU811  SER814 

> <Gold.Protein.RotatedAtoms>
  152.4805  134.4731  159.9641 H   0  0  0  0  0  0  0  0  0  0  0  0  # atno 6907 bound_to 6896
  151.4738  133.3557  159.2835 H   0  0  0  0  0  0  0  0  0  0  0  0  # atno 6908 bound_to 6896
  150.8875  134.8300  159.7330 H   0  0  0  0  0  0  0  0  0  0  0  0  # atno 6909 bound_to 6896
  145.7580  139.2788  143.1392 H   0  0  0  0  0  0  0  0  0  0  0  0  # atno 7974 bound_to 7965
  154.8423  140.0434  157.1549 H   0  0  0  0  0  0  0  0  0  0  0  0  # atno 8008 bound_to 7997
  154.9033  140.3003  155.5285 H   0  0  0  0  0  0  0  0  0  0  0  0  # atno 8009 bound_to 7997
  156.2993  140.2372  156.4064 H   0  0  0  0  0  0  0  0  0  0  0  0  # atno 8010 bound_to 7997
  139.7465  143.8583  152.2576 H   0  0  0  0  0  0  0  0  0  0  0  0  # atno 10167 bound_to 10162
  156.0827  130.6024  150.8768 H   0  0  0  0  0  0  0  0  0  0  0  0  # atno 10718 bound_to 10713
  153.1586  135.6792  153.8776 H   0  0  0  0  0  0  0  0  0  0  0  0  # atno 10763 bound_to 10752
  153.8179  135.3134  155.3408 H   0  0  0  0  0  0  0  0  0  0  0  0  # atno 10764 bound_to 10752
  154.7916  135.4831  154.0153 H   0  0  0  0  0  0  0  0  0  0  0  0  # atno 10765 bound_to 10752
  140.7305  133.8753  155.8889 H   0  0  0  0  0  0  0  0  0  0  0  0  # atno 11005 bound_to 11000
  146.0292  140.8274  142.9884 LP  0  0  0  0  0  0  0  0  0  0  0  0  # atno 17320 bound_to 7965
  144.6836  140.2743  143.7301 LP  0  0  0  0  0  0  0  0  0  0  0  0  # atno 17321 bound_to 7965
  139.8549  144.7146  150.9169 LP  0  0  0  0  0  0  0  0  0  0  0  0  # atno 17342 bound_to 10162
  140.7792  143.3867  151.1381 LP  0  0  0  0  0  0  0  0  0  0  0  0  # atno 17343 bound_to 10162
  157.5949  131.0943  150.9057 LP  0  0  0  0  0  0  0  0  0  0  0  0  # atno 17370 bound_to 10713
  156.9225  130.5320  149.5279 LP  0  0  0  0  0  0  0  0  0  0  0  0  # atno 17371 bound_to 10713
  140.9925  134.1259  157.4394 LP  0  0  0  0  0  0  0  0  0  0  0  0  # atno 17394 bound_to 11000
  139.8827  135.0045  156.6251 LP  0  0  0  0  0  0  0  0  0  0  0  0  # atno 17395 bound_to 11000

$$$$
