AV-unprocessed.smi:2990|AV-procd|sdf|11395|dock6
  -GOLD-   2272016323D 1   1.00000     0.00000
 Structure written by MMmdl.
 40 42  0  0  0  0  0  0  0  0  2 V2000
  149.1812  140.1264  154.7636 C   0  0  0  0  0  0  0  0  0  0  0  0
  149.9008  140.7703  155.9008 C   0  0  0  0  0  0  0  0  0  0  0  0
  149.7251  142.0478  156.3417 N   0  3  0  0  0  0  0  0  0  0  0  0
  150.5713  142.2945  157.4237 C   0  0  0  0  0  0  0  0  0  0  0  0
  150.7499  143.4370  158.1978 C   0  0  0  0  0  0  0  0  0  0  0  0
  151.6982  143.3546  159.2386 C   0  0  0  0  0  0  0  0  0  0  0  0
  152.4243  142.1698  159.4775 C   0  0  0  0  0  0  0  0  0  0  0  0
  152.2362  141.0186  158.6843 C   0  0  0  0  0  0  0  0  0  0  0  0
  151.2984  141.1085  157.6557 C   0  0  0  0  0  0  0  0  0  0  0  0
  150.8533  140.1969  156.6901 N   0  0  0  0  0  0  0  0  0  0  0  0
  151.4229  138.8404  156.6449 C   0  0  0  0  0  0  0  0  0  0  0  0
  152.2587  138.5833  155.3752 C   0  0  2  0  0  0  0  0  0  0  0  0
  151.9702  137.3019  154.8529 O   0  0  0  0  0  0  0  0  0  0  0  0
  153.7697  138.6739  155.6338 C   0  0  0  0  0  0  0  0  0  0  0  0
  154.4374  138.8710  154.3946 O   0  0  0  0  0  0  0  0  0  0  0  0
  155.7845  138.5878  154.3261 C   0  0  0  0  0  0  0  0  0  0  0  0
  156.4179  138.7937  153.0830 C   0  0  0  0  0  0  0  0  0  0  0  0
  157.7910  138.5270  152.9203 C   0  0  0  0  0  0  0  0  0  0  0  0
  158.5481  138.0482  154.0051 C   0  0  0  0  0  0  0  0  0  0  0  0
  157.9295  137.8395  155.2517 C   0  0  0  0  0  0  0  0  0  0  0  0
  156.5561  138.1074  155.4149 C   0  0  0  0  0  0  0  0  0  0  0  0
  148.4497  140.8118  154.3351 H   0  0  0  0  0  0  0  0  0  0  0  0
  148.6598  139.2323  155.1056 H   0  0  0  0  0  0  0  0  0  0  0  0
  149.8886  139.8417  153.9845 H   0  0  0  0  0  0  0  0  0  0  0  0
  150.1932  144.3451  158.0177 H   0  0  0  0  0  0  0  0  0  0  0  0
  151.8705  144.2165  159.8670 H   0  0  0  0  0  0  0  0  0  0  0  0
  153.1402  142.1426  160.2862 H   0  0  0  0  0  0  0  0  0  0  0  0
  152.7940  140.1148  158.8806 H   0  0  0  0  0  0  0  0  0  0  0  0
  152.0488  138.7277  157.5308 H   0  0  0  0  0  0  0  0  0  0  0  0
  150.6227  138.1074  156.7491 H   0  0  0  0  0  0  0  0  0  0  0  0
  151.9898  139.3127  154.6102 H   0  0  0  0  0  0  0  0  0  0  0  0
  151.1142  137.0404  155.1564 H   0  0  0  0  0  0  0  0  0  0  0  0
  153.9855  139.4919  156.3236 H   0  0  0  0  0  0  0  0  0  0  0  0
  154.1174  137.7446  156.0889 H   0  0  0  0  0  0  0  0  0  0  0  0
  155.8444  139.1607  152.2446 H   0  0  0  0  0  0  0  0  0  0  0  0
  158.2624  138.6895  151.9624 H   0  0  0  0  0  0  0  0  0  0  0  0
  159.6008  137.8414  153.8811 H   0  0  0  0  0  0  0  0  0  0  0  0
  158.5098  137.4719  156.0852 H   0  0  0  0  0  0  0  0  0  0  0  0
  156.1184  137.9339  156.3861 H   0  0  0  0  0  0  0  0  0  0  0  0
  149.0721  142.7022  155.9302 H   0  0  0  0  0  0  0  0  0  0  0  0
  1  2  1  0  0  0  0
  1 22  1  0  0  0  0
  1 23  1  0  0  0  0
  1 24  1  0  0  0  0
  2 10  1  0  0  0  0
  2  3  2  0  0  0  0
  3  4  1  0  0  0  0
  3 40  1  0  0  0  0
  4  9  2  0  0  0  0
  4  5  1  0  0  0  0
  5  6  2  0  0  0  0
  5 25  1  0  0  0  0
  6  7  1  0  0  0  0
  6 26  1  0  0  0  0
  7  8  2  0  0  0  0
  7 27  1  0  0  0  0
  8  9  1  0  0  0  0
  8 28  1  0  0  0  0
  9 10  1  0  0  0  0
 10 11  1  0  0  0  0
 11 12  1  0  0  0  0
 11 29  1  0  0  0  0
 11 30  1  0  0  0  0
 12 13  1  0  0  0  0
 12 14  1  0  0  0  0
 12 31  1  0  0  0  0
 13 32  1  0  0  0  0
 14 15  1  0  0  0  0
 14 33  1  0  0  0  0
 14 34  1  0  0  0  0
 15 16  1  0  0  0  0
 16 21  1  0  0  0  0
 16 17  2  0  0  0  0
 17 18  1  0  0  0  0
 17 35  1  0  0  0  0
 18 19  2  0  0  0  0
 18 36  1  0  0  0  0
 19 20  1  0  0  0  0
 19 37  1  0  0  0  0
 20 21  2  0  0  0  0
 20 38  1  0  0  0  0
 21 39  1  0  0  0  0
M  CHG  1   3   1
M  END
> <s_m_source_file>
AV-unprocessed.smi

> <i_m_source_file_index>
2990

> <i_lp_mmshare_version>
43012

> <i_f3d_flags>
0

> <s_epik_input>
W2NIXTFbY0hdW2NIXVtjSF1jKGMxMiluKGMobjIpW0NIM10pW0NIMl1bQ0BIXShbT0hdKVtDSDJdT2MzW2NIXVtjSF1bY0hdW2NIXVtjSF0z

> <s_epik_cmdline>
J2VwaWtfcHl0aG9uJywgJy1waCcsICc3LjAnLCAnLXRuJywgJzgnLCAnLW1hJywgJzIwMCcsICctbWV0YWxfYmluZGluZycsICctaW1hZScsICc8aW5maWxlLm1hZT4nLCAnLW9tYWUnLCAnPG91dGZpbGUubWFlPic=

> <r_lp_tautomer_probability>
1

> <r_epik_Ionization_Penalty>
1.00673

> <r_epik_Ionization_Penalty_Charging>
1.00673

> <r_epik_Ionization_Penalty_Neutral>
2.3993e-06

> <r_epik_State_Penalty>
1.05579

> <r_epik_Charging_Adjusted_Penalty>
2.06252

> <i_epik_Tot_Q>
1

> <i_epik_Tot_abs_Q>
1

> <r_epik_Metal_State_Penalty>
5.03947

> <b_epik_Metal_Only>
0

> <s_lp_Force_Field>
OPLS_2005

> <r_lp_Energy>
19.3411

> <b_lp_Chiralities_Consistent>
1

> <s_lp_Variant>
AV-unprocessed.smi:2990-3

> <Gold.Version>
5.8.1

> <Gold.Id.Protein>
6NUR|6NUR_protein|mol2

> <Gold.PLP.Fitness>
52.5847

> <Gold.PLP.PLP>
-45.3587

> <Gold.PLP.part.hbond>
-3.0000

> <Gold.PLP.part.metal>
0.0000

> <Gold.PLP.part.buried>
0.7139

> <Gold.PLP.part.nonpolar>
-43.1712

> <Gold.PLP.part.repulsive>
0.1250

> <Gold.PLP.ligand.clash>
0.0000

> <Gold.PLP.ligand.torsion>
0.8896

> <Gold.PLP.Chemscore.Hbond>
2.9760

> <Gold.PLP.Chemscore.CHOScore>
0.0000

> <Gold.PLP.Chemscore.Metal>
0.0000

> <Gold.Chemscore.Hbonds>
donor molecule, donor type, donor heavy atom, donor atom, acceptor molecule, acceptor atom, score
      L1  H     3    40       P1  8028  1.53
      P1  H 10752 10765       L1    13  0.86

> <Gold.PLP.Chemscore.Internal.Correction>
0.0773

> <Gold.Rescore>
     Score         DG    S(hbond)    S(metal)    S(lipo)     H(rot)  DE(clash)    DE(int)     intcor
     21.16     -23.26       1.81        0.00     146.72       2.12       1.49       0.61       ----

> <Gold.Chemscore.Fitness>
21.1578

> <Gold.Chemscore.DG>
-23.2571

> <Gold.Chemscore.ZeroCoef>
-5.4800

> <Gold.Chemscore.Hbond>
1.8067

> <Gold.Chemscore.Metal>
0.0000

> <Gold.Chemscore.Lipo>
146.7166

> <Gold.Chemscore.Internal_Hbond>
0.0000

> <Gold.Chemscore.DEClash>
1.4874

> <Gold.Chemscore.DEInternal>
0.6119

> <Gold.Chemscore.Rot>
2.1184

> <Gold.Chemscore.Internal.Correction>
   9.000000E+99

> <Gold.Chemscore.Hbonds>
donor molecule, donor type, donor heavy atom, donor atom, acceptor molecule, acceptor atom, score
      L1  H     3    40       P1  8028  0.71
      P1  H 10752 10765       L1    13  0.58

> <Gold.Chemscore.Hbond.Weighted>
-6.0344

> <Gold.Chemscore.Metal.Weighted>
-0.0000

> <Gold.Chemscore.Lipo.Weighted>
-17.1658

> <Gold.Chemscore.Internal_Hbond.Weighted>
0.0000

> <Gold.Chemscore.DEClash.Weighted>
1.4874

> <Gold.Chemscore.DEInternal.Weighted>
0.6119

> <Gold.Chemscore.Rot.Weighted>
5.4231

> <Gold.Chemscore.Internal.Correction.Weighted>
   9.000000E+99

> <Gold.Protein.RotatedTorsions>
[ 6907 6896 6895 6894 ] final  -30.22 input  -60.11 | X-H torsion
[ 7974 7965 7964 7962 ] final  108.68 input  175.53 | X-H torsion
[ 8008 7997 7996 7995 ] final  154.62 input   59.86 | X-H torsion
[ 10167 10162 10161 10158 ] final    6.13 input  -65.29 | X-H torsion
[ 10718 10713 10712 10709 ] final   62.60 input   66.30 | X-H torsion
[ 10763 10752 10751 10750 ] final  161.21 input  -60.55 | X-H torsion
[ 11005 11000 10999 10996 ] final  110.20 input  -57.11 | X-H torsion

> <Gold.Protein.ActiveResidues>
 VAL166  LYS551  ARG553  GLY616  TRP617  ASP618  TYR619  PRO620  LYS621  CYS622 
 ASP623  PHE694  ASN695  SER759  ASP760  ASP761  ALA762  ILE779  LEU786  VAL792 
 PHE793  MET794  SER795  GLU796  ALA797  LYS798  CYS799  TRP800  GLU811  SER814 

> <Gold.Protein.RotatedAtoms>
  151.1085  135.0013  159.8482 H   0  0  0  0  0  0  0  0  0  0  0  0  # atno 6907 bound_to 6896
  152.5442  134.1864  159.8666 H   0  0  0  0  0  0  0  0  0  0  0  0  # atno 6908 bound_to 6896
  151.1912  133.4621  159.2628 H   0  0  0  0  0  0  0  0  0  0  0  0  # atno 6909 bound_to 6896
  145.2775  139.2644  143.3933 H   0  0  0  0  0  0  0  0  0  0  0  0  # atno 7974 bound_to 7965
  156.2522  140.1962  156.6674 H   0  0  0  0  0  0  0  0  0  0  0  0  # atno 8008 bound_to 7997
  154.6419  140.0582  156.9880 H   0  0  0  0  0  0  0  0  0  0  0  0  # atno 8009 bound_to 7997
  155.1550  140.3255  155.4426 H   0  0  0  0  0  0  0  0  0  0  0  0  # atno 8010 bound_to 7997
  140.6445  143.7696  150.7477 H   0  0  0  0  0  0  0  0  0  0  0  0  # atno 10167 bound_to 10162
  157.5912  130.9059  149.9608 H   0  0  0  0  0  0  0  0  0  0  0  0  # atno 10718 bound_to 10713
  154.2594  135.2769  155.2784 H   0  0  0  0  0  0  0  0  0  0  0  0  # atno 10763 bound_to 10752
  154.5397  135.5706  153.6832 H   0  0  0  0  0  0  0  0  0  0  0  0  # atno 10764 bound_to 10752
  152.9965  135.6248  154.2744 H   0  0  0  0  0  0  0  0  0  0  0  0  # atno 10765 bound_to 10752
  139.8877  134.9478  156.6242 H   0  0  0  0  0  0  0  0  0  0  0  0  # atno 11005 bound_to 11000
  146.3227  140.3234  142.8635 LP  0  0  0  0  0  0  0  0  0  0  0  0  # atno 17320 bound_to 7965
  144.9281  140.7944  143.5706 LP  0  0  0  0  0  0  0  0  0  0  0  0  # atno 17321 bound_to 7965
  140.1334  143.4505  152.2240 LP  0  0  0  0  0  0  0  0  0  0  0  0  # atno 17342 bound_to 10162
  139.5655  144.7432  151.4036 LP  0  0  0  0  0  0  0  0  0  0  0  0  # atno 17343 bound_to 10162
  156.0967  130.3659  150.0293 LP  0  0  0  0  0  0  0  0  0  0  0  0  # atno 17370 bound_to 10713
  156.8415  130.9427  151.3631 LP  0  0  0  0  0  0  0  0  0  0  0  0  # atno 17371 bound_to 10713
  140.7716  133.8734  155.8496 LP  0  0  0  0  0  0  0  0  0  0  0  0  # atno 17394 bound_to 11000
  140.9837  134.1371  157.4471 LP  0  0  0  0  0  0  0  0  0  0  0  0  # atno 17395 bound_to 11000

$$$$
