AV-unprocessed.smi:266|AV-procd|sdf|2032|dock4
  -GOLD-   2262021243D 1   1.00000     0.00000
 Structure written by MMmdl.
 52 55  0  0  0  0  0  0  0  0  1 V2000
  152.0862  139.3287  155.5142 C   0  0  0  0  0  0  0  0  0  0  0  0
  151.4730  139.9310  156.7888 C   0  0  1  0  0  0  0  0  0  0  0  0
  150.2964  139.2005  157.1214 O   0  0  0  0  0  0  0  0  0  0  0  0
  150.1127  139.2619  158.5238 C   0  0  0  0  0  0  0  0  0  0  0  0
  151.5304  139.0801  159.0402 C   0  0  0  0  0  0  0  0  0  0  0  0
  152.3600  139.9182  158.0654 C   0  0  1  0  0  0  0  0  0  0  0  0
  153.5993  139.2620  157.8588 O   0  0  0  0  0  0  0  0  0  0  0  0
  152.6397  141.3625  158.5598 C   0  0  0  0  0  0  0  0  0  0  0  0
  153.0655  141.4561  159.9490 N   0  0  0  0  0  0  0  0  0  0  0  0
  152.7820  142.4745  160.8280 C   0  0  0  0  0  0  0  0  0  0  0  0
  153.2885  142.3332  162.0209 N   0  0  0  0  0  0  0  0  0  0  0  0
  153.9930  141.1334  161.9669 C   0  0  0  0  0  0  0  0  0  0  0  0
  154.7836  140.3845  162.8963 C   0  0  0  0  0  0  0  0  0  0  0  0
  155.0236  140.7461  164.1921 N   0  0  0  0  0  0  0  0  0  0  0  0
  155.6087  139.7890  165.1238 C   0  0  0  0  0  0  0  0  0  0  0  0
  154.8817  142.1341  164.6430 C   0  0  0  0  0  0  0  0  0  0  0  0
  155.4829  142.3752  166.0422 C   0  0  2  0  0  0  0  0  0  0  0  0
  155.1032  143.7577  166.6060 C   0  0  0  0  0  0  0  0  0  0  0  0
  155.9294  144.0163  167.8705 C   0  0  0  0  0  0  0  0  0  0  0  0
  157.5384  143.1876  167.5879 S   0  0  0  0  0  0  0  0  0  0  0  0
  158.5489  144.1881  167.2127 O   0  0  0  0  0  0  0  0  0  0  0  0
  157.7831  142.2369  168.6831 O   0  0  0  0  0  0  0  0  0  0  0  0
  157.0159  142.2730  166.0885 C   0  0  0  0  0  0  0  0  0  0  0  0
  155.3348  139.2313  162.4305 N   0  0  0  0  0  0  0  0  0  0  0  0
  155.1337  138.8262  161.1747 C   0  0  0  0  0  0  0  0  0  0  0  0
  154.4227  139.4157  160.2151 N   0  0  0  0  0  0  0  0  0  0  0  0
  153.8647  140.5764  160.6594 C   0  0  0  0  0  0  0  0  0  0  0  0
  152.9841  139.8704  155.2159 H   0  0  0  0  0  0  0  0  0  0  0  0
  151.3803  139.3790  154.6847 H   0  0  0  0  0  0  0  0  0  0  0  0
  152.3529  138.2811  155.6561 H   0  0  0  0  0  0  0  0  0  0  0  0
  151.1591  140.9525  156.5685 H   0  0  0  0  0  0  0  0  0  0  0  0
  149.7110  140.2363  158.8060 H   0  0  0  0  0  0  0  0  0  0  0  0
  149.4310  138.4876  158.8757 H   0  0  0  0  0  0  0  0  0  0  0  0
  151.6375  139.3560  160.0877 H   0  0  0  0  0  0  0  0  0  0  0  0
  151.7930  138.0240  158.9567 H   0  0  0  0  0  0  0  0  0  0  0  0
  153.5221  138.3705  158.1623 H   0  0  0  0  0  0  0  0  0  0  0  0
  153.4069  141.8265  157.9384 H   0  0  0  0  0  0  0  0  0  0  0  0
  151.7458  141.9770  158.4435 H   0  0  0  0  0  0  0  0  0  0  0  0
  152.1799  143.3296  160.5566 H   0  0  0  0  0  0  0  0  0  0  0  0
  156.5382  139.3806  164.7260 H   0  0  0  0  0  0  0  0  0  0  0  0
  154.9152  138.9715  165.3219 H   0  0  0  0  0  0  0  0  0  0  0  0
  155.8395  140.2613  166.0791 H   0  0  0  0  0  0  0  0  0  0  0  0
  155.2849  142.8469  163.9236 H   0  0  0  0  0  0  0  0  0  0  0  0
  153.8134  142.3508  164.6799 H   0  0  0  0  0  0  0  0  0  0  0  0
  155.0806  141.6327  166.7329 H   0  0  0  0  0  0  0  0  0  0  0  0
  155.3402  144.5238  165.8664 H   0  0  0  0  0  0  0  0  0  0  0  0
  154.0343  143.8314  166.8091 H   0  0  0  0  0  0  0  0  0  0  0  0
  156.0798  145.0766  168.0738 H   0  0  0  0  0  0  0  0  0  0  0  0
  155.4609  143.5555  168.7405 H   0  0  0  0  0  0  0  0  0  0  0  0
  157.3762  141.2451  166.1273 H   0  0  0  0  0  0  0  0  0  0  0  0
  157.4671  142.7688  165.2289 H   0  0  0  0  0  0  0  0  0  0  0  0
  155.6102  137.8965  160.9002 H   0  0  0  0  0  0  0  0  0  0  0  0
  1  2  1  0  0  0  0
  1 28  1  0  0  0  0
  1 29  1  0  0  0  0
  1 30  1  0  0  0  0
  2  6  1  0  0  0  0
  2  3  1  0  0  0  0
  2 31  1  0  0  0  0
  3  4  1  0  0  0  0
  4  5  1  0  0  0  0
  4 32  1  0  0  0  0
  4 33  1  0  0  0  0
  5  6  1  0  0  0  0
  5 34  1  0  0  0  0
  5 35  1  0  0  0  0
  6  7  1  0  0  0  0
  6  8  1  0  0  0  0
  7 36  1  0  0  0  0
  8  9  1  0  0  0  0
  8 37  1  0  0  0  0
  8 38  1  0  0  0  0
  9 27  1  0  0  0  0
  9 10  1  0  0  0  0
 10 11  2  0  0  0  0
 10 39  1  0  0  0  0
 11 12  1  0  0  0  0
 12 27  2  0  0  0  0
 12 13  1  0  0  0  0
 13 14  1  0  0  0  0
 13 24  2  0  0  0  0
 14 15  1  0  0  0  0
 14 16  1  0  0  0  0
 15 40  1  0  0  0  0
 15 41  1  0  0  0  0
 15 42  1  0  0  0  0
 16 17  1  0  0  0  0
 16 43  1  0  0  0  0
 16 44  1  0  0  0  0
 17 23  1  0  0  0  0
 17 18  1  0  0  0  0
 17 45  1  0  0  0  0
 18 19  1  0  0  0  0
 18 46  1  0  0  0  0
 18 47  1  0  0  0  0
 19 20  1  0  0  0  0
 19 48  1  0  0  0  0
 19 49  1  0  0  0  0
 20 21  2  0  0  0  0
 20 22  2  0  0  0  0
 20 23  1  0  0  0  0
 23 50  1  0  0  0  0
 23 51  1  0  0  0  0
 24 25  1  0  0  0  0
 25 26  2  0  0  0  0
 25 52  1  0  0  0  0
 26 27  1  0  0  0  0
M  END
> <s_m_source_file>
AV-unprocessed.smi

> <i_m_source_file_index>
266

> <i_lp_mmshare_version>
43012

> <i_f3d_flags>
0

> <s_epik_input>
W0NIMl0xW0NIMl1PW0NAQEhdKFtDSDNdKVtDQEBdMShbT0hdKVtDSDJdbihbY0hdbjIpYyhjMjMpbltjSF1uYzNOKFtDSDNdKVtDSDJdW0NAQEhdKFtDSDJdNClbQ0gyXVtDSDJdUzQoPU8pPU8=

> <s_epik_cmdline>
J2VwaWtfcHl0aG9uJywgJy1waCcsICc3LjAnLCAnLXRuJywgJzgnLCAnLW1hJywgJzIwMCcsICctbWV0YWxfYmluZGluZycsICctaW1hZScsICc8aW5maWxlLm1hZT4nLCAnLW9tYWUnLCAnPG91dGZpbGUubWFlPic=

> <r_lp_tautomer_probability>
1

> <r_epik_Ionization_Penalty>
0.00155497

> <r_epik_Ionization_Penalty_Charging>
0

> <r_epik_Ionization_Penalty_Neutral>
0.00155497

> <r_epik_State_Penalty>
-0

> <r_epik_Charging_Adjusted_Penalty>
0

> <i_epik_Tot_Q>
0

> <i_epik_Tot_abs_Q>
0

> <r_epik_Metal_State_Penalty>
-0

> <b_epik_Metal_Only>
0

> <s_lp_Force_Field>
OPLS_2005

> <r_lp_Energy>
32.0182

> <b_lp_Chiralities_Consistent>
1

> <s_lp_Variant>
AV-unprocessed.smi:266-2

> <Gold.Version>
5.8.1

> <Gold.Id.Protein>
6NUR|6NUR_protein|mol2

> <Gold.PLP.Fitness>
44.3524

> <Gold.PLP.PLP>
-43.1348

> <Gold.PLP.part.hbond>
-1.5367

> <Gold.PLP.part.metal>
0.0000

> <Gold.PLP.part.buried>
-4.4593

> <Gold.PLP.part.nonpolar>
-37.1705

> <Gold.PLP.part.repulsive>
0.0453

> <Gold.PLP.ligand.clash>
0.0967

> <Gold.PLP.ligand.torsion>
0.8008

> <Gold.PLP.Chemscore.Hbond>
0.9357

> <Gold.PLP.Chemscore.CHOScore>
0.0000

> <Gold.PLP.Chemscore.Metal>
0.0000

> <Gold.Chemscore.Hbonds>
donor molecule, donor type, donor heavy atom, donor atom, acceptor molecule, acceptor atom, score
      P1  H  7997  8010       L1     7  0.91

> <Gold.PLP.Chemscore.Internal.Correction>
0.1086

> <Gold.Rescore>
     Score         DG    S(hbond)    S(metal)    S(lipo)     H(rot)  DE(clash)    DE(int)     intcor
      9.16     -11.80       0.98        0.00      79.67       2.45       0.02       2.62       ----

> <Gold.Chemscore.Fitness>
9.1633

> <Gold.Chemscore.DG>
-11.8026

> <Gold.Chemscore.ZeroCoef>
-5.4800

> <Gold.Chemscore.Hbond>
0.9779

> <Gold.Chemscore.Metal>
0.0000

> <Gold.Chemscore.Lipo>
79.6674

> <Gold.Chemscore.Internal_Hbond>
0.0000

> <Gold.Chemscore.DEClash>
0.0214

> <Gold.Chemscore.DEInternal>
2.6178

> <Gold.Chemscore.Rot>
2.4471

> <Gold.Chemscore.Internal.Correction>
   9.000000E+99

> <Gold.Chemscore.Hbonds>
donor molecule, donor type, donor heavy atom, donor atom, acceptor molecule, acceptor atom, score
      P1  H  7997  8010       L1     7  0.88

> <Gold.Chemscore.Hbond.Weighted>
-3.2660

> <Gold.Chemscore.Metal.Weighted>
-0.0000

> <Gold.Chemscore.Lipo.Weighted>
-9.3211

> <Gold.Chemscore.Internal_Hbond.Weighted>
0.0000

> <Gold.Chemscore.DEClash.Weighted>
0.0214

> <Gold.Chemscore.DEInternal.Weighted>
2.6178

> <Gold.Chemscore.Rot.Weighted>
6.2645

> <Gold.Chemscore.Internal.Correction.Weighted>
   9.000000E+99

> <Gold.Protein.RotatedTorsions>
[ 6907 6896 6895 6894 ] final  -50.51 input  -60.11 | X-H torsion
[ 7974 7965 7964 7962 ] final  160.87 input  175.53 | X-H torsion
[ 8008 7997 7996 7995 ] final   11.19 input   59.86 | X-H torsion
[ 10167 10162 10161 10158 ] final -107.56 input  -65.29 | X-H torsion
[ 10718 10713 10712 10709 ] final   94.02 input   66.30 | X-H torsion
[ 10763 10752 10751 10750 ] final   52.12 input  -60.55 | X-H torsion
[ 11005 11000 10999 10996 ] final  107.75 input  -57.11 | X-H torsion

> <Gold.Protein.ActiveResidues>
 VAL166  LYS551  ARG553  GLY616  TRP617  ASP618  TYR619  PRO620  LYS621  CYS622 
 ASP623  PHE694  ASN695  SER759  ASP760  ASP761  ALA762  ILE779  LEU786  VAL792 
 PHE793  MET794  SER795  GLU796  ALA797  LYS798  CYS799  TRP800  GLU811  SER814 

> <Gold.Protein.RotatedAtoms>
  150.8700  134.8072  159.7147 H   0  0  0  0  0  0  0  0  0  0  0  0  # atno 6907 bound_to 6896
  152.4708  134.4961  159.9720 H   0  0  0  0  0  0  0  0  0  0  0  0  # atno 6908 bound_to 6896
  151.5051  133.3458  159.2911 H   0  0  0  0  0  0  0  0  0  0  0  0  # atno 6909 bound_to 6896
  144.7715  139.7818  143.6295 H   0  0  0  0  0  0  0  0  0  0  0  0  # atno 7974 bound_to 7965
  154.8036  140.2856  155.5904 H   0  0  0  0  0  0  0  0  0  0  0  0  # atno 8008 bound_to 7997
  156.2980  140.2582  156.2838 H   0  0  0  0  0  0  0  0  0  0  0  0  # atno 8009 bound_to 7997
  154.9530  140.0379  157.2142 H   0  0  0  0  0  0  0  0  0  0  0  0  # atno 8010 bound_to 7997
  140.1756  143.4007  152.1321 H   0  0  0  0  0  0  0  0  0  0  0  0  # atno 10167 bound_to 10162
  157.6951  131.0498  150.4123 H   0  0  0  0  0  0  0  0  0  0  0  0  # atno 10718 bound_to 10713
  152.9787  135.5823  154.4526 H   0  0  0  0  0  0  0  0  0  0  0  0  # atno 10763 bound_to 10752
  154.4113  135.2770  155.2037 H   0  0  0  0  0  0  0  0  0  0  0  0  # atno 10764 bound_to 10752
  154.3825  135.6143  153.5853 H   0  0  0  0  0  0  0  0  0  0  0  0  # atno 10765 bound_to 10752
  139.8833  134.9410  156.5867 H   0  0  0  0  0  0  0  0  0  0  0  0  # atno 11005 bound_to 11000
  146.1864  139.5082  142.9833 LP  0  0  0  0  0  0  0  0  0  0  0  0  # atno 17320 bound_to 7965
  145.6311  141.0304  143.1862 LP  0  0  0  0  0  0  0  0  0  0  0  0  # atno 17321 bound_to 7965
  139.5318  144.7167  151.5028 LP  0  0  0  0  0  0  0  0  0  0  0  0  # atno 17342 bound_to 10162
  140.6553  143.8612  150.6829 LP  0  0  0  0  0  0  0  0  0  0  0  0  # atno 17343 bound_to 10162
  156.4506  130.4011  149.6638 LP  0  0  0  0  0  0  0  0  0  0  0  0  # atno 17370 bound_to 10713
  156.3789  130.7569  151.2560 LP  0  0  0  0  0  0  0  0  0  0  0  0  # atno 17371 bound_to 10713
  140.7986  133.8524  155.8707 LP  0  0  0  0  0  0  0  0  0  0  0  0  # atno 17394 bound_to 11000
  140.9613  134.1652  157.4652 LP  0  0  0  0  0  0  0  0  0  0  0  0  # atno 17395 bound_to 11000

$$$$
