AV-unprocessed.smi:35|AV-procd|sdf|278|dock2
  -GOLD-   2262016 43D 1   1.00000     0.00000
 Structure written by MMmdl.
 28 29  0  0  0  0  0  0  0  0  2 V2000
  151.6726  136.5036  159.3196 O   0  0  0  0  0  0  0  0  0  0  0  0
  151.4290  137.3333  158.4456 C   0  0  0  0  0  0  0  0  0  0  0  0
  152.3859  137.8369  157.6142 N   0  5  0  0  0  0  0  0  0  0  0  0
  152.1125  138.7682  156.6540 C   0  0  0  0  0  0  0  0  0  0  0  0
  152.9685  139.2158  155.8904 O   0  0  0  0  0  0  0  0  0  0  0  0
  150.7812  139.2530  156.5194 N   0  0  0  0  0  0  0  0  0  0  0  0
  150.4892  140.2889  155.4470 C   0  0  1  0  0  0  0  0  0  0  0  0
  149.7055  139.7132  154.4414 O   0  0  0  0  0  0  0  0  0  0  0  0
  148.3340  140.0275  154.6633 C   0  0  2  0  0  0  0  0  0  0  0  0
  147.4935  139.7840  153.3984 C   0  0  0  0  0  0  0  0  0  0  0  0
  147.8598  138.5547  152.8093 O   0  0  0  0  0  0  0  0  0  0  0  0
  148.4183  141.4808  155.1395 C   0  0  2  0  0  0  0  0  0  0  0  0
  148.5476  142.3595  154.0330 O   0  0  0  0  0  0  0  0  0  0  0  0
  149.6642  141.4605  156.0248 C   0  0  2  0  0  0  0  0  0  0  0  0
  150.3578  142.6942  156.0171 O   0  0  0  0  0  0  0  0  0  0  0  0
  149.7833  138.7349  157.3311 C   0  0  0  0  0  0  0  0  0  0  0  0
  150.0603  137.8111  158.2732 C   0  0  0  0  0  0  0  0  0  0  0  0
  148.5356  137.1673  159.3631 Br  0  0  0  0  0  0  0  0  0  0  0  0
  151.4631  140.5698  155.0420 H   0  0  0  0  0  0  0  0  0  0  0  0
  147.9490  139.4238  155.4874 H   0  0  0  0  0  0  0  0  0  0  0  0
  146.4360  139.7218  153.6565 H   0  0  0  0  0  0  0  0  0  0  0  0
  147.6077  140.5960  152.6795 H   0  0  0  0  0  0  0  0  0  0  0  0
  148.5453  138.7200  152.1798 H   0  0  0  0  0  0  0  0  0  0  0  0
  147.5319  141.7739  155.7029 H   0  0  0  0  0  0  0  0  0  0  0  0
  148.3985  143.2414  154.3391 H   0  0  0  0  0  0  0  0  0  0  0  0
  149.3697  141.2248  157.0487 H   0  0  0  0  0  0  0  0  0  0  0  0
  149.7827  143.3503  155.6519 H   0  0  0  0  0  0  0  0  0  0  0  0
  148.7600  139.0595  157.2234 H   0  0  0  0  0  0  0  0  0  0  0  0
  1  2  2  0  0  0  0
  2 17  1  0  0  0  0
  2  3  1  0  0  0  0
  3  4  1  0  0  0  0
  4  5  2  0  0  0  0
  4  6  1  0  0  0  0
  6  7  1  0  0  0  0
  6 16  1  0  0  0  0
  7 14  1  0  0  0  0
  7  8  1  0  0  0  0
  7 19  1  0  0  0  0
  8  9  1  0  0  0  0
  9 10  1  0  0  0  0
  9 12  1  0  0  0  0
  9 20  1  0  0  0  0
 10 11  1  0  0  0  0
 10 21  1  0  0  0  0
 10 22  1  0  0  0  0
 11 23  1  0  0  0  0
 12 13  1  0  0  0  0
 12 14  1  0  0  0  0
 12 24  1  0  0  0  0
 13 25  1  0  0  0  0
 14 15  1  0  0  0  0
 14 26  1  0  0  0  0
 15 27  1  0  0  0  0
 16 17  2  0  0  0  0
 16 28  1  0  0  0  0
 17 18  1  0  0  0  0
M  CHG  1   3  -1
M  END
> <s_m_source_file>
AV-unprocessed.smi

> <i_m_source_file_index>
35

> <i_lp_mmshare_version>
43012

> <i_f3d_flags>
0

> <s_epik_input>
Tz1jMVtuSF1jKD1PKW4oW2NIXWMxQnIpW0NAQEhdMk9bQ0BASF0oW0NIMl1bT0hdKVtDQEBIXShbT0hdKVtDQEhdMltPSF0=

> <s_epik_cmdline>
J2VwaWtfcHl0aG9uJywgJy1waCcsICc3LjAnLCAnLXRuJywgJzgnLCAnLW1hJywgJzIwMCcsICctbWV0YWxfYmluZGluZycsICctaW1hZScsICc8aW5maWxlLm1hZT4nLCAnLW9tYWUnLCAnPG91dGZpbGUubWFlPic=

> <r_epik_Ionization_Penalty>
1.06112

> <r_epik_Ionization_Penalty_Charging>
2.1796e-09

> <r_epik_Ionization_Penalty_Neutral>
1.06112

> <r_epik_State_Penalty>
1.11484

> <r_epik_Charging_Adjusted_Penalty>
1.11484

> <i_epik_Tot_Q>
-1

> <i_epik_Tot_abs_Q>
1

> <r_epik_Metal_State_Penalty>
0.0032876

> <b_epik_Metal_Only>
0

> <s_epik_Chemistry_Notes>
This compound contains an acetal/aminal-like group ( X-CH(R)-Y where X, Y are N, S, or O) that may be acid/base labile, releasing an aldehyde.

> <s_lp_Force_Field>
OPLS_2005

> <r_lp_Energy>
41.3474

> <b_lp_Chiralities_Consistent>
1

> <s_lp_Variant>
AV-unprocessed.smi:35-32

> <Gold.Version>
5.8.1

> <Gold.Id.Protein>
6NUR|6NUR_protein|mol2

> <Gold.PLP.Fitness>
40.0703

> <Gold.PLP.PLP>
-25.6385

> <Gold.PLP.part.hbond>
-7.2152

> <Gold.PLP.part.metal>
0.0000

> <Gold.PLP.part.buried>
-3.2306

> <Gold.PLP.part.nonpolar>
-15.8315

> <Gold.PLP.part.repulsive>
0.1296

> <Gold.PLP.ligand.clash>
0.0000

> <Gold.PLP.ligand.torsion>
0.3344

> <Gold.PLP.Chemscore.Hbond>
5.0269

> <Gold.PLP.Chemscore.CHOScore>
0.0000

> <Gold.PLP.Chemscore.Metal>
0.0000

> <Gold.Chemscore.Hbonds>
donor molecule, donor type, donor heavy atom, donor atom, acceptor molecule, acceptor atom, score
      L1  H    11    23       P1  7957  0.98
      L1  H    13    25       P1  8028  0.99
      L1  H    15    27       P1  8028  1.00
      P1  H  6896  6907       L1     1  0.90
      P1  H  7997  8009       L1     5  1.00
      P1  H  8011  8017       L1    13  0.19

> <Gold.PLP.Chemscore.Internal.Correction>
0.0199

> <Gold.Rescore>
     Score         DG    S(hbond)    S(metal)    S(lipo)     H(rot)  DE(clash)    DE(int)     intcor
     15.81     -16.34       4.83        0.00      34.23       3.63       0.12       0.40       ----

> <Gold.Chemscore.Fitness>
15.8140

> <Gold.Chemscore.DG>
-16.3403

> <Gold.Chemscore.ZeroCoef>
-5.4800

> <Gold.Chemscore.Hbond>
4.8317

> <Gold.Chemscore.Metal>
0.0000

> <Gold.Chemscore.Lipo>
34.2316

> <Gold.Chemscore.Internal_Hbond>
0.0000

> <Gold.Chemscore.DEClash>
0.1239

> <Gold.Chemscore.DEInternal>
0.4025

> <Gold.Chemscore.Rot>
3.6261

> <Gold.Chemscore.Internal.Correction>
   9.000000E+99

> <Gold.Chemscore.Hbonds>
donor molecule, donor type, donor heavy atom, donor atom, acceptor molecule, acceptor atom, score
      L1  H    11    23       P1  7957  0.84
      L1  H    13    25       P1  8028  0.90
      L1  H    15    27       P1  8028  0.98
      P1  H  6896  6907       L1     1  0.83
      P1  H  7997  8009       L1     5  1.00
      P1  H  8011  8017       L1    13  0.12

> <Gold.Chemscore.Hbond.Weighted>
-16.1380

> <Gold.Chemscore.Metal.Weighted>
-0.0000

> <Gold.Chemscore.Lipo.Weighted>
-4.0051

> <Gold.Chemscore.Internal_Hbond.Weighted>
0.0000

> <Gold.Chemscore.DEClash.Weighted>
0.1239

> <Gold.Chemscore.DEInternal.Weighted>
0.4025

> <Gold.Chemscore.Rot.Weighted>
9.2828

> <Gold.Chemscore.Internal.Correction.Weighted>
   9.000000E+99

> <Gold.Protein.RotatedTorsions>
[ 6907 6896 6895 6894 ] final   11.40 input  -60.11 | X-H torsion
[ 7974 7965 7964 7962 ] final  -86.11 input  175.53 | X-H torsion
[ 8008 7997 7996 7995 ] final -151.28 input   59.86 | X-H torsion
[ 10167 10162 10161 10158 ] final -143.67 input  -65.29 | X-H torsion
[ 10718 10713 10712 10709 ] final -165.33 input   66.30 | X-H torsion
[ 10763 10752 10751 10750 ] final  -21.62 input  -60.55 | X-H torsion
[ 11005 11000 10999 10996 ] final  -96.41 input  -57.11 | X-H torsion

> <Gold.Protein.ActiveResidues>
 VAL166  LYS551  ARG553  GLY616  TRP617  ASP618  TYR619  PRO620  LYS621  CYS622 
 ASP623  PHE694  ASN695  SER759  ASP760  ASP761  ALA762  ILE779  LEU786  VAL792 
 PHE793  MET794  SER795  GLU796  ALA797  LYS798  CYS799  TRP800  GLU811  SER814 

> <Gold.Protein.RotatedAtoms>
  151.7538  135.0826  160.0334 H   0  0  0  0  0  0  0  0  0  0  0  0  # atno 6907 bound_to 6896
  152.3399  133.6050  159.5877 H   0  0  0  0  0  0  0  0  0  0  0  0  # atno 6908 bound_to 6896
  150.7473  133.9654  159.3570 H   0  0  0  0  0  0  0  0  0  0  0  0  # atno 6909 bound_to 6896
  145.4843  140.9555  143.1847 H   0  0  0  0  0  0  0  0  0  0  0  0  # atno 7974 bound_to 7965
  155.6368  140.0697  157.2631 H   0  0  0  0  0  0  0  0  0  0  0  0  # atno 8008 bound_to 7997
  154.4193  140.1757  156.1580 H   0  0  0  0  0  0  0  0  0  0  0  0  # atno 8009 bound_to 7997
  155.9888  140.3347  155.6736 H   0  0  0  0  0  0  0  0  0  0  0  0  # atno 8010 bound_to 7997
  139.7971  143.7885  152.2655 H   0  0  0  0  0  0  0  0  0  0  0  0  # atno 10167 bound_to 10162
  156.6519  130.9011  151.3015 H   0  0  0  0  0  0  0  0  0  0  0  0  # atno 10718 bound_to 10713
  153.6389  135.6986  153.5248 H   0  0  0  0  0  0  0  0  0  0  0  0  # atno 10763 bound_to 10752
  153.2798  135.4189  155.1067 H   0  0  0  0  0  0  0  0  0  0  0  0  # atno 10764 bound_to 10752
  154.8504  135.3599  154.5933 H   0  0  0  0  0  0  0  0  0  0  0  0  # atno 10765 bound_to 10752
  141.1412  133.8096  157.0567 H   0  0  0  0  0  0  0  0  0  0  0  0  # atno 11005 bound_to 11000
  144.7871  139.6405  143.7129 LP  0  0  0  0  0  0  0  0  0  0  0  0  # atno 17320 bound_to 7965
  146.2322  139.5836  142.9547 LP  0  0  0  0  0  0  0  0  0  0  0  0  # atno 17321 bound_to 7965
  139.7994  144.7380  150.9846 LP  0  0  0  0  0  0  0  0  0  0  0  0  # atno 17342 bound_to 10162
  140.7820  143.4360  151.0622 LP  0  0  0  0  0  0  0  0  0  0  0  0  # atno 17343 bound_to 10162
  157.7138  130.9472  150.1182 LP  0  0  0  0  0  0  0  0  0  0  0  0  # atno 17370 bound_to 10713
  156.2077  130.3664  149.8708 LP  0  0  0  0  0  0  0  0  0  0  0  0  # atno 17371 bound_to 10713
  140.0597  134.9761  157.1283 LP  0  0  0  0  0  0  0  0  0  0  0  0  # atno 17394 bound_to 11000
  140.3866  134.2229  155.7168 LP  0  0  0  0  0  0  0  0  0  0  0  0  # atno 17395 bound_to 11000

$$$$
