AV-unprocessed.smi:2302|AV-procd|sdf|9239|dock3
  -GOLD-   2272012453D 1   1.00000     0.00000
 Structure written by MMmdl.
 40 41  0  0  0  0  0  0  0  0  2 V2000
  153.6989  141.5398  160.3063 C   0  0  0  0  0  0  0  0  0  0  0  0
  152.7930  142.5963  159.7096 C   0  0  0  0  0  0  0  0  0  0  0  0
  152.7432  143.8971  160.2482 C   0  0  0  0  0  0  0  0  0  0  0  0
  151.8840  144.8321  159.6438 C   0  0  0  0  0  0  0  0  0  0  0  0
  151.1153  144.4312  158.5341 C   0  0  0  0  0  0  0  0  0  0  0  0
  151.2227  143.1056  158.0570 C   0  0  0  0  0  0  0  0  0  0  0  0
  150.4091  142.8023  156.9333 N   0  0  0  0  0  0  0  0  0  0  0  0
  150.3061  141.6351  156.2740 C   0  0  0  0  0  0  0  0  0  0  0  0
  150.8923  140.5942  156.5714 O   0  0  0  0  0  0  0  0  0  0  0  0
  149.4699  141.7394  155.2311 N   0  0  0  0  0  0  0  0  0  0  0  0
  149.1416  140.6602  154.3034 C   0  0  0  0  0  0  0  0  0  0  0  0
  147.6502  140.2646  154.3308 C   0  0  1  0  0  0  0  0  0  0  0  0
  147.3347  138.9626  153.5619 C   0  0  0  0  0  0  0  0  0  0  0  0
  145.8916  138.6454  153.6571 N   0  3  1  0  0  0  0  0  0  0  0  0
  145.5222  137.4310  152.8990 C   0  0  0  0  0  0  0  0  0  0  0  0
  145.4576  138.5884  155.0713 C   0  0  0  0  0  0  0  0  0  0  0  0
  145.8249  139.8939  155.7955 C   0  0  0  0  0  0  0  0  0  0  0  0
  147.2231  140.1278  155.6827 O   0  0  0  0  0  0  0  0  0  0  0  0
  152.0560  142.2116  158.6454 N   0  0  0  0  0  0  0  0  0  0  0  0
  154.1665  141.8932  161.2257 H   0  0  0  0  0  0  0  0  0  0  0  0
  154.4878  141.2778  159.6008 H   0  0  0  0  0  0  0  0  0  0  0  0
  153.1314  140.6382  160.5391 H   0  0  0  0  0  0  0  0  0  0  0  0
  153.3461  144.1737  161.1006 H   0  0  0  0  0  0  0  0  0  0  0  0
  151.8153  145.8406  160.0241 H   0  0  0  0  0  0  0  0  0  0  0  0
  150.4503  145.1376  158.0589 H   0  0  0  0  0  0  0  0  0  0  0  0
  149.8462  143.5653  156.5880 H   0  0  0  0  0  0  0  0  0  0  0  0
  149.0253  142.6306  155.0670 H   0  0  0  0  0  0  0  0  0  0  0  0
  149.4463  140.9240  153.2894 H   0  0  0  0  0  0  0  0  0  0  0  0
  149.7462  139.7978  154.5854 H   0  0  0  0  0  0  0  0  0  0  0  0
  147.0885  141.0857  153.8816 H   0  0  0  0  0  0  0  0  0  0  0  0
  147.6173  139.0716  152.5142 H   0  0  0  0  0  0  0  0  0  0  0  0
  147.9081  138.1263  153.9652 H   0  0  0  0  0  0  0  0  0  0  0  0
  146.0156  136.5483  153.3078 H   0  0  0  0  0  0  0  0  0  0  0  0
  145.8087  137.5289  151.8514 H   0  0  0  0  0  0  0  0  0  0  0  0
  144.4445  137.2690  152.9360 H   0  0  0  0  0  0  0  0  0  0  0  0
  144.3799  138.4272  155.1208 H   0  0  0  0  0  0  0  0  0  0  0  0
  145.9329  137.7409  155.5680 H   0  0  0  0  0  0  0  0  0  0  0  0
  145.2685  140.7381  155.3856 H   0  0  0  0  0  0  0  0  0  0  0  0
  145.5636  139.8235  156.8516 H   0  0  0  0  0  0  0  0  0  0  0  0
  145.3960  139.4160  153.2315 H   0  0  0  0  0  0  0  0  0  0  0  0
  1  2  1  0  0  0  0
  1 20  1  0  0  0  0
  1 21  1  0  0  0  0
  1 22  1  0  0  0  0
  2 19  1  0  0  0  0
  2  3  2  0  0  0  0
  3  4  1  0  0  0  0
  3 23  1  0  0  0  0
  4  5  2  0  0  0  0
  4 24  1  0  0  0  0
  5  6  1  0  0  0  0
  5 25  1  0  0  0  0
  6  7  1  0  0  0  0
  6 19  2  0  0  0  0
  7  8  1  0  0  0  0
  7 26  1  0  0  0  0
  8  9  2  0  0  0  0
  8 10  1  0  0  0  0
 10 11  1  0  0  0  0
 10 27  1  0  0  0  0
 11 12  1  0  0  0  0
 11 28  1  0  0  0  0
 11 29  1  0  0  0  0
 12 18  1  0  0  0  0
 12 13  1  0  0  0  0
 12 30  1  0  0  0  0
 13 14  1  0  0  0  0
 13 31  1  0  0  0  0
 13 32  1  0  0  0  0
 14 15  1  0  0  0  0
 14 16  1  0  0  0  0
 14 40  1  0  0  0  0
 15 33  1  0  0  0  0
 15 34  1  0  0  0  0
 15 35  1  0  0  0  0
 16 17  1  0  0  0  0
 16 36  1  0  0  0  0
 16 37  1  0  0  0  0
 17 18  1  0  0  0  0
 17 38  1  0  0  0  0
 17 39  1  0  0  0  0
M  CHG  1  14   1
M  END
> <s_m_source_file>
AV-unprocessed.smi

> <i_m_source_file_index>
2302

> <i_lp_mmshare_version>
43012

> <i_f3d_flags>
0

> <s_epik_input>
W0NIM11jMVtjSF1bY0hdW2NIXWMobjEpW05IXUMoPU8pW05IXVtDSDJdW0NAQEhdMltDSDJdTihbQ0gzXSlbQ0gyXVtDSDJdTzI=

> <s_epik_cmdline>
J2VwaWtfcHl0aG9uJywgJy1waCcsICc3LjAnLCAnLXRuJywgJzgnLCAnLW1hJywgJzIwMCcsICctbWV0YWxfYmluZGluZycsICctaW1hZScsICc8aW5maWxlLm1hZT4nLCAnLW9tYWUnLCAnPG91dGZpbGUubWFlPic=

> <r_epik_Ionization_Penalty>
0.204647

> <r_epik_Ionization_Penalty_Charging>
0.204578

> <r_epik_Ionization_Penalty_Neutral>
6.91954e-05

> <r_epik_State_Penalty>
0.194513

> <r_epik_Charging_Adjusted_Penalty>
0.399091

> <i_epik_Tot_Q>
1

> <i_epik_Tot_abs_Q>
1

> <r_epik_Metal_State_Penalty>
0.194515

> <b_epik_Metal_Only>
0

> <s_lp_Force_Field>
OPLS_2005

> <r_lp_Energy>
15.833

> <b_lp_Chiralities_Consistent>
1

> <s_lp_Variant>
AV-unprocessed.smi:2302-4

> <Gold.Version>
5.8.1

> <Gold.Id.Protein>
6NUR|6NUR_protein|mol2

> <Gold.PLP.Fitness>
48.2616

> <Gold.PLP.PLP>
-36.6266

> <Gold.PLP.part.hbond>
-3.0000

> <Gold.PLP.part.metal>
0.0000

> <Gold.PLP.part.buried>
-3.8619

> <Gold.PLP.part.nonpolar>
-29.9712

> <Gold.PLP.part.repulsive>
0.2934

> <Gold.PLP.ligand.clash>
0.0000

> <Gold.PLP.ligand.torsion>
0.0771

> <Gold.PLP.Chemscore.Hbond>
3.9280

> <Gold.PLP.Chemscore.CHOScore>
0.0000

> <Gold.PLP.Chemscore.Metal>
0.0000

> <Gold.Chemscore.Hbonds>
donor molecule, donor type, donor heavy atom, donor atom, acceptor molecule, acceptor atom, score
      L1  H     7    26       P1  8028  1.00
      L1  H    10    27       P1  8028  0.63
      L1  H    14    40       P1 10175  1.40

> <Gold.PLP.Chemscore.Internal.Correction>
0.0052

> <Gold.Rescore>
     Score         DG    S(hbond)    S(metal)    S(lipo)     H(rot)  DE(clash)    DE(int)     intcor
     20.10     -21.76       2.92        0.00      83.72       1.27       0.05       1.60       ----

> <Gold.Chemscore.Fitness>
20.1000

> <Gold.Chemscore.DG>
-21.7586

> <Gold.Chemscore.ZeroCoef>
-5.4800

> <Gold.Chemscore.Hbond>
2.9174

> <Gold.Chemscore.Metal>
0.0000

> <Gold.Chemscore.Lipo>
83.7169

> <Gold.Chemscore.Internal_Hbond>
0.0000

> <Gold.Chemscore.DEClash>
0.0542

> <Gold.Chemscore.DEInternal>
1.6043

> <Gold.Chemscore.Rot>
1.2736

> <Gold.Chemscore.Internal.Correction>
   9.000000E+99

> <Gold.Chemscore.Hbonds>
donor molecule, donor type, donor heavy atom, donor atom, acceptor molecule, acceptor atom, score
      L1  H     7    26       P1  8028  1.00
      L1  H    10    27       P1  8028  0.61
      L1  H    14    40       P1 10175  0.68

> <Gold.Chemscore.Hbond.Weighted>
-9.7440

> <Gold.Chemscore.Metal.Weighted>
-0.0000

> <Gold.Chemscore.Lipo.Weighted>
-9.7949

> <Gold.Chemscore.Internal_Hbond.Weighted>
0.0000

> <Gold.Chemscore.DEClash.Weighted>
0.0542

> <Gold.Chemscore.DEInternal.Weighted>
1.6043

> <Gold.Chemscore.Rot.Weighted>
3.2603

> <Gold.Chemscore.Internal.Correction.Weighted>
   9.000000E+99

> <Gold.Protein.RotatedTorsions>
[ 6907 6896 6895 6894 ] final  125.34 input  -60.11 | X-H torsion
[ 7974 7965 7964 7962 ] final -108.14 input  175.53 | X-H torsion
[ 8008 7997 7996 7995 ] final   56.04 input   59.86 | X-H torsion
[ 10167 10162 10161 10158 ] final  118.61 input  -65.29 | X-H torsion
[ 10718 10713 10712 10709 ] final -162.23 input   66.30 | X-H torsion
[ 10763 10752 10751 10750 ] final  -79.07 input  -60.55 | X-H torsion
[ 11005 11000 10999 10996 ] final  134.07 input  -57.11 | X-H torsion

> <Gold.Protein.ActiveResidues>
 VAL166  LYS551  ARG553  GLY616  TRP617  ASP618  TYR619  PRO620  LYS621  CYS622 
 ASP623  PHE694  ASN695  SER759  ASP760  ASP761  ALA762  ILE779  LEU786  VAL792 
 PHE793  MET794  SER795  GLU796  ALA797  LYS798  CYS799  TRP800  GLU811  SER814 

> <Gold.Protein.RotatedAtoms>
  152.4000  133.6803  159.6307 H   0  0  0  0  0  0  0  0  0  0  0  0  # atno 6907 bound_to 6896
  150.7893  133.8808  159.3294 H   0  0  0  0  0  0  0  0  0  0  0  0  # atno 6908 bound_to 6896
  151.6575  135.0995  160.0224 H   0  0  0  0  0  0  0  0  0  0  0  0  # atno 6909 bound_to 6896
  145.1966  140.9038  143.3394 H   0  0  0  0  0  0  0  0  0  0  0  0  # atno 7974 bound_to 7965
  155.5109  140.3477  155.4388 H   0  0  0  0  0  0  0  0  0  0  0  0  # atno 8008 bound_to 7997
  156.0850  140.1396  156.9692 H   0  0  0  0  0  0  0  0  0  0  0  0  # atno 8009 bound_to 7997
  154.4601  140.0938  156.6846 H   0  0  0  0  0  0  0  0  0  0  0  0  # atno 8010 bound_to 7997
  139.6100  144.7079  151.2866 H   0  0  0  0  0  0  0  0  0  0  0  0  # atno 10167 bound_to 10162
  156.6075  130.8837  151.2929 H   0  0  0  0  0  0  0  0  0  0  0  0  # atno 10718 bound_to 10713
  154.5339  135.5708  153.6782 H   0  0  0  0  0  0  0  0  0  0  0  0  # atno 10763 bound_to 10752
  152.9946  135.6211  154.2591 H   0  0  0  0  0  0  0  0  0  0  0  0  # atno 10764 bound_to 10752
  154.2519  135.2859  155.2793 H   0  0  0  0  0  0  0  0  0  0  0  0  # atno 10765 bound_to 10752
  139.9891  134.9521  156.9814 H   0  0  0  0  0  0  0  0  0  0  0  0  # atno 11005 bound_to 11000
  144.9989  139.3617  143.6177 LP  0  0  0  0  0  0  0  0  0  0  0  0  # atno 17320 bound_to 7965
  146.3426  139.9203  142.8767 LP  0  0  0  0  0  0  0  0  0  0  0  0  # atno 17321 bound_to 7965
  140.7312  143.6858  150.7963 LP  0  0  0  0  0  0  0  0  0  0  0  0  # atno 17342 bound_to 10162
  140.0450  143.5307  152.2700 LP  0  0  0  0  0  0  0  0  0  0  0  0  # atno 17343 bound_to 10162
  157.7263  130.9627  150.1650 LP  0  0  0  0  0  0  0  0  0  0  0  0  # atno 17370 bound_to 10713
  156.2417  130.3691  149.8330 LP  0  0  0  0  0  0  0  0  0  0  0  0  # atno 17371 bound_to 10713
  140.4943  134.1161  155.7238 LP  0  0  0  0  0  0  0  0  0  0  0  0  # atno 17394 bound_to 11000
  141.1551  133.8898  157.1999 LP  0  0  0  0  0  0  0  0  0  0  0  0  # atno 17395 bound_to 11000

$$$$
