AV-unprocessed.smi:1619|AV-procd|sdf|6488|dock2
  -GOLD-   22720 7153D 1   1.00000     0.00000
 Structure written by MMmdl.
 44 46  0  0  0  0  0  0  0  0  2 V2000
  152.0492  144.3627  159.4321 C   0  0  0  0  0  0  0  0  0  0  0  0
  151.9211  143.0974  158.6023 C   0  0  0  0  0  0  0  0  0  0  0  0
  151.0459  143.0890  157.4931 C   0  0  0  0  0  0  0  0  0  0  0  0
  150.8964  141.9325  156.6973 C   0  0  0  0  0  0  0  0  0  0  0  0
  150.1086  141.7045  155.5823 N   0  0  0  0  0  0  0  0  0  0  0  0
  150.4045  140.4400  155.2981 C   0  0  0  0  0  0  0  0  0  0  0  0
  151.3033  139.8239  156.0905 N   0  0  0  0  0  0  0  0  0  0  0  0
  151.7833  138.4589  155.9724 C   0  0  0  0  0  0  0  0  0  0  0  0
  150.9866  137.6334  154.9424 C   0  0  1  0  0  0  0  0  0  0  0  0
  151.9144  136.9307  154.1412 O   0  0  0  0  0  0  0  0  0  0  0  0
  150.0116  136.6202  155.5812 C   0  0  0  0  0  0  0  0  0  0  0  0
  149.5685  135.5856  154.6172 N   0  3  0  0  0  0  0  0  0  0  0  0
  150.4074  134.3709  154.6048 C   0  0  0  0  0  0  0  0  0  0  0  0
  149.5137  133.2840  154.0176 C   0  0  0  0  0  0  0  0  0  0  0  0
  148.1431  133.6239  154.5946 C   0  0  0  0  0  0  0  0  0  0  0  0
  148.1571  135.1502  154.7561 C   0  0  0  0  0  0  0  0  0  0  0  0
  151.6533  140.7748  157.0434 C   0  0  0  0  0  0  0  0  0  0  0  0
  152.5262  140.7703  158.1458 C   0  0  0  0  0  0  0  0  0  0  0  0
  152.6647  141.9350  158.9294 C   0  0  0  0  0  0  0  0  0  0  0  0
  153.6117  141.9212  160.1166 C   0  0  0  0  0  0  0  0  0  0  0  0
  151.3981  145.1527  159.0573 H   0  0  0  0  0  0  0  0  0  0  0  0
  153.0738  144.7338  159.4067 H   0  0  0  0  0  0  0  0  0  0  0  0
  151.7761  144.1692  160.4696 H   0  0  0  0  0  0  0  0  0  0  0  0
  150.4787  143.9741  157.2445 H   0  0  0  0  0  0  0  0  0  0  0  0
  149.9468  139.9345  154.4601 H   0  0  0  0  0  0  0  0  0  0  0  0
  152.8387  138.4928  155.6982 H   0  0  0  0  0  0  0  0  0  0  0  0
  151.7308  137.9884  156.9556 H   0  0  0  0  0  0  0  0  0  0  0  0
  150.4382  138.3186  154.2958 H   0  0  0  0  0  0  0  0  0  0  0  0
  151.4859  136.6722  153.3388 H   0  0  0  0  0  0  0  0  0  0  0  0
  150.4986  136.1361  156.4292 H   0  0  0  0  0  0  0  0  0  0  0  0
  149.1277  137.1216  155.9777 H   0  0  0  0  0  0  0  0  0  0  0  0
  151.3227  134.5183  154.0310 H   0  0  0  0  0  0  0  0  0  0  0  0
  150.6864  134.1041  155.6258 H   0  0  0  0  0  0  0  0  0  0  0  0
  149.4911  133.3684  152.9303 H   0  0  0  0  0  0  0  0  0  0  0  0
  149.8452  132.2767  154.2724 H   0  0  0  0  0  0  0  0  0  0  0  0
  147.3246  133.2744  153.9643 H   0  0  0  0  0  0  0  0  0  0  0  0
  148.0319  133.1530  155.5725 H   0  0  0  0  0  0  0  0  0  0  0  0
  147.7328  135.4334  155.7209 H   0  0  0  0  0  0  0  0  0  0  0  0
  147.5631  135.6340  153.9799 H   0  0  0  0  0  0  0  0  0  0  0  0
  153.0839  139.8778  158.3882 H   0  0  0  0  0  0  0  0  0  0  0  0
  154.1314  140.9662  160.2004 H   0  0  0  0  0  0  0  0  0  0  0  0
  153.0633  142.0868  161.0443 H   0  0  0  0  0  0  0  0  0  0  0  0
  154.3651  142.7027  160.0153 H   0  0  0  0  0  0  0  0  0  0  0  0
  149.6516  135.9886  153.6944 H   0  0  0  0  0  0  0  0  0  0  0  0
  1  2  1  0  0  0  0
  1 21  1  0  0  0  0
  1 22  1  0  0  0  0
  1 23  1  0  0  0  0
  2 19  1  0  0  0  0
  2  3  2  0  0  0  0
  3  4  1  0  0  0  0
  3 24  1  0  0  0  0
  4 17  2  0  0  0  0
  4  5  1  0  0  0  0
  5  6  2  0  0  0  0
  6  7  1  0  0  0  0
  6 25  1  0  0  0  0
  7  8  1  0  0  0  0
  7 17  1  0  0  0  0
  8  9  1  0  0  0  0
  8 26  1  0  0  0  0
  8 27  1  0  0  0  0
  9 10  1  0  0  0  0
  9 11  1  0  0  0  0
  9 28  1  0  0  0  0
 10 29  1  0  0  0  0
 11 12  1  0  0  0  0
 11 30  1  0  0  0  0
 11 31  1  0  0  0  0
 12 16  1  0  0  0  0
 12 13  1  0  0  0  0
 12 44  1  0  0  0  0
 13 14  1  0  0  0  0
 13 32  1  0  0  0  0
 13 33  1  0  0  0  0
 14 15  1  0  0  0  0
 14 34  1  0  0  0  0
 14 35  1  0  0  0  0
 15 16  1  0  0  0  0
 15 36  1  0  0  0  0
 15 37  1  0  0  0  0
 16 38  1  0  0  0  0
 16 39  1  0  0  0  0
 17 18  1  0  0  0  0
 18 19  2  0  0  0  0
 18 40  1  0  0  0  0
 19 20  1  0  0  0  0
 20 41  1  0  0  0  0
 20 42  1  0  0  0  0
 20 43  1  0  0  0  0
M  CHG  1  12   1
M  END
> <s_m_source_file>
AV-unprocessed.smi

> <i_m_source_file_index>
1619

> <i_lp_mmshare_version>
43012

> <i_f3d_flags>
0

> <s_epik_input>
W0NIM11jKFtjSF0xKWMoW0NIM10pW2NIXWMoYzEyKW4oW2NIXW4yKVtDSDJdW0NASF0oW09IXSlbQ0gyXU4zW0NIMl1bQ0gyXVtDSDJdW0NIMl0z

> <s_epik_cmdline>
J2VwaWtfcHl0aG9uJywgJy1waCcsICc3LjAnLCAnLXRuJywgJzgnLCAnLW1hJywgJzIwMCcsICctbWV0YWxfYmluZGluZycsICctaW1hZScsICc8aW5maWxlLm1hZT4nLCAnLW9tYWUnLCAnPG91dGZpbGUubWFlPic=

> <r_epik_Ionization_Penalty>
0.0947557

> <r_epik_Ionization_Penalty_Charging>
0.00674132

> <r_epik_Ionization_Penalty_Neutral>
0.0880144

> <r_epik_State_Penalty>
0.0806172

> <r_epik_Charging_Adjusted_Penalty>
0.0873585

> <i_epik_Tot_Q>
1

> <i_epik_Tot_abs_Q>
1

> <r_epik_Metal_State_Penalty>
8.03852e-05

> <b_epik_Metal_Only>
0

> <s_lp_Force_Field>
OPLS_2005

> <r_lp_Energy>
32.1533

> <b_lp_Chiralities_Consistent>
1

> <s_lp_Variant>
AV-unprocessed.smi:1619-2

> <Gold.Version>
5.8.1

> <Gold.Id.Protein>
6NUR|6NUR_protein|mol2

> <Gold.PLP.Fitness>
50.7074

> <Gold.PLP.PLP>
-41.2864

> <Gold.PLP.part.hbond>
-3.0000

> <Gold.PLP.part.metal>
0.0000

> <Gold.PLP.part.buried>
-2.9833

> <Gold.PLP.part.nonpolar>
-34.4327

> <Gold.PLP.part.repulsive>
0.1344

> <Gold.PLP.ligand.clash>
0.0000

> <Gold.PLP.ligand.torsion>
1.3271

> <Gold.PLP.Chemscore.Hbond>
4.0000

> <Gold.PLP.Chemscore.CHOScore>
0.0000

> <Gold.PLP.Chemscore.Metal>
0.0000

> <Gold.Chemscore.Hbonds>
donor molecule, donor type, donor heavy atom, donor atom, acceptor molecule, acceptor atom, score
      L1  H    10    29       P1  7949  1.00
      L1  H    12    44       P1  7948  2.00
      P1  H 10752 10765       L1    10  0.95

> <Gold.PLP.Chemscore.Internal.Correction>
0.0752

> <Gold.Rescore>
     Score         DG    S(hbond)    S(metal)    S(lipo)     H(rot)  DE(clash)    DE(int)     intcor
     17.36     -18.88       1.85        0.00     105.89       2.02       0.05       1.48       ----

> <Gold.Chemscore.Fitness>
17.3571

> <Gold.Chemscore.DG>
-18.8847

> <Gold.Chemscore.ZeroCoef>
-5.4800

> <Gold.Chemscore.Hbond>
1.8544

> <Gold.Chemscore.Metal>
0.0000

> <Gold.Chemscore.Lipo>
105.8881

> <Gold.Chemscore.Internal_Hbond>
0.0000

> <Gold.Chemscore.DEClash>
0.0475

> <Gold.Chemscore.DEInternal>
1.4802

> <Gold.Chemscore.Rot>
2.0227

> <Gold.Chemscore.Internal.Correction>
   9.000000E+99

> <Gold.Chemscore.Hbonds>
donor molecule, donor type, donor heavy atom, donor atom, acceptor molecule, acceptor atom, score
      L1  H    10    29       P1  7949  0.85
      L1  H    12    44       P1  7948  0.28
      P1  H 10752 10765       L1    10  0.21

> <Gold.Chemscore.Hbond.Weighted>
-6.1938

> <Gold.Chemscore.Metal.Weighted>
-0.0000

> <Gold.Chemscore.Lipo.Weighted>
-12.3889

> <Gold.Chemscore.Internal_Hbond.Weighted>
0.0000

> <Gold.Chemscore.DEClash.Weighted>
0.0475

> <Gold.Chemscore.DEInternal.Weighted>
1.4802

> <Gold.Chemscore.Rot.Weighted>
5.1780

> <Gold.Chemscore.Internal.Correction.Weighted>
   9.000000E+99

> <Gold.Protein.RotatedTorsions>
[ 6907 6896 6895 6894 ] final  -31.65 input  -60.11 | X-H torsion
[ 7974 7965 7964 7962 ] final  108.72 input  175.53 | X-H torsion
[ 8008 7997 7996 7995 ] final  -42.47 input   59.86 | X-H torsion
[ 10167 10162 10161 10158 ] final  -53.32 input  -65.29 | X-H torsion
[ 10718 10713 10712 10709 ] final  143.73 input   66.30 | X-H torsion
[ 10763 10752 10751 10750 ] final  163.95 input  -60.55 | X-H torsion
[ 11005 11000 10999 10996 ] final  -31.19 input  -57.11 | X-H torsion

> <Gold.Protein.ActiveResidues>
 VAL166  LYS551  ARG553  GLY616  TRP617  ASP618  TYR619  PRO620  LYS621  CYS622 
 ASP623  PHE694  ASN695  SER759  ASP760  ASP761  ALA762  ILE779  LEU786  VAL792 
 PHE793  MET794  SER795  GLU796  ALA797  LYS798  CYS799  TRP800  GLU811  SER814 

> <Gold.Protein.RotatedAtoms>
  151.0892  134.9906  159.8394 H   0  0  0  0  0  0  0  0  0  0  0  0  # atno 6907 bound_to 6896
  152.5427  134.2086  159.8751 H   0  0  0  0  0  0  0  0  0  0  0  0  # atno 6908 bound_to 6896
  151.2121  133.4506  159.2632 H   0  0  0  0  0  0  0  0  0  0  0  0  # atno 6909 bound_to 6896
  145.2770  139.2646  143.3936 H   0  0  0  0  0  0  0  0  0  0  0  0  # atno 7974 bound_to 7965
  154.3999  140.1472  156.3361 H   0  0  0  0  0  0  0  0  0  0  0  0  # atno 8008 bound_to 7997
  155.8399  140.3462  155.5604 H   0  0  0  0  0  0  0  0  0  0  0  0  # atno 8009 bound_to 7997
  155.8098  140.0882  157.1901 H   0  0  0  0  0  0  0  0  0  0  0  0  # atno 8010 bound_to 7997
  140.6491  143.2554  151.4775 H   0  0  0  0  0  0  0  0  0  0  0  0  # atno 10167 bound_to 10162
  157.3655  131.0971  151.0876 H   0  0  0  0  0  0  0  0  0  0  0  0  # atno 10718 bound_to 10713
  154.3014  135.2759  155.2609 H   0  0  0  0  0  0  0  0  0  0  0  0  # atno 10763 bound_to 10752
  154.5044  135.5799  153.6559 H   0  0  0  0  0  0  0  0  0  0  0  0  # atno 10764 bound_to 10752
  152.9900  135.6166  154.3185 H   0  0  0  0  0  0  0  0  0  0  0  0  # atno 10765 bound_to 10752
  140.9447  133.7257  156.1129 H   0  0  0  0  0  0  0  0  0  0  0  0  # atno 11005 bound_to 11000
  146.3228  140.3228  142.8634 LP  0  0  0  0  0  0  0  0  0  0  0  0  # atno 17320 bound_to 7965
  144.9285  140.7949  143.5704 LP  0  0  0  0  0  0  0  0  0  0  0  0  # atno 17321 bound_to 7965
  139.5704  144.1942  152.1828 LP  0  0  0  0  0  0  0  0  0  0  0  0  # atno 17342 bound_to 10162
  140.1236  144.5351  150.6847 LP  0  0  0  0  0  0  0  0  0  0  0  0  # atno 17343 bound_to 10162
  157.2000  130.6390  149.5735 LP  0  0  0  0  0  0  0  0  0  0  0  0  # atno 17370 bound_to 10713
  155.9745  130.4694  150.6394 LP  0  0  0  0  0  0  0  0  0  0  0  0  # atno 17371 bound_to 10713
  140.7685  134.3859  157.5512 LP  0  0  0  0  0  0  0  0  0  0  0  0  # atno 17394 bound_to 11000
  139.8830  134.9007  156.2794 LP  0  0  0  0  0  0  0  0  0  0  0  0  # atno 17395 bound_to 11000

$$$$
