AV-unprocessed.smi:397|AV-procd|sdf|2488|dock9
  -GOLD-   2262022433D 1   1.00000     0.00000
 Structure written by MMmdl.
 37 38  0  0  0  0  0  0  0  0  1 V2000
  154.9021  135.2731  157.8285 C   0  0  0  0  0  0  0  0  0  0  0  0
  154.9356  134.9744  159.2127 O   0  0  0  0  0  0  0  0  0  0  0  0
  156.2080  135.2140  159.7916 C   0  0  0  0  0  0  0  0  0  0  0  0
  156.5710  136.7001  159.6553 C   0  0  0  0  0  0  0  0  0  0  0  0
  155.5302  137.5584  160.2101 N   0  0  0  0  0  0  0  0  0  0  0  0
  155.0468  138.6658  159.6276 C   0  0  0  0  0  0  0  0  0  0  0  0
  155.4616  139.0986  158.5514 O   0  0  0  0  0  0  0  0  0  0  0  0
  153.9263  139.3873  160.3919 C   0  0  0  0  0  0  0  0  0  0  0  0
  153.2370  140.4223  159.5891 N   0  0  0  0  0  0  0  0  0  0  0  0
  152.6723  140.0428  158.3458 C   0  0  0  0  0  0  0  0  0  0  0  0
  152.7441  138.8800  157.9434 O   0  0  0  0  0  0  0  0  0  0  0  0
  152.0222  141.1144  157.5987 C   0  0  0  0  0  0  0  0  0  0  0  0
  151.4361  140.7702  156.3455 C   0  0  0  0  0  0  0  0  0  0  0  0
  150.9654  140.4674  155.3325 N   0  0  0  0  0  0  0  0  0  0  0  0
  151.9806  142.3733  158.0807 C   0  0  0  0  0  0  0  0  0  0  0  0
  152.5446  142.7323  159.2914 N   0  0  0  0  0  0  0  0  0  0  0  0
  152.5087  144.0851  159.8105 C   0  0  0  0  0  0  0  0  0  0  0  0
  151.1780  144.7462  160.1020 C   0  0  0  0  0  0  0  0  0  0  0  0
  152.0169  145.2196  158.9363 C   0  0  0  0  0  0  0  0  0  0  0  0
  153.1971  141.7519  160.0770 C   0  0  0  0  0  0  0  0  0  0  0  0
  153.7226  142.0356  161.1563 O   0  0  0  0  0  0  0  0  0  0  0  0
  153.9052  135.0732  157.4357 H   0  0  0  0  0  0  0  0  0  0  0  0
  155.6118  134.6565  157.2754 H   0  0  0  0  0  0  0  0  0  0  0  0
  155.1328  136.3230  157.6449 H   0  0  0  0  0  0  0  0  0  0  0  0
  156.2140  134.9179  160.8418 H   0  0  0  0  0  0  0  0  0  0  0  0
  156.9569  134.6086  159.2790 H   0  0  0  0  0  0  0  0  0  0  0  0
  157.4870  136.8986  160.2118 H   0  0  0  0  0  0  0  0  0  0  0  0
  156.7826  136.9534  158.6149 H   0  0  0  0  0  0  0  0  0  0  0  0
  155.1350  137.2795  161.0962 H   0  0  0  0  0  0  0  0  0  0  0  0
  153.2130  138.6444  160.7530 H   0  0  0  0  0  0  0  0  0  0  0  0
  154.3507  139.8066  161.3053 H   0  0  0  0  0  0  0  0  0  0  0  0
  151.4836  143.1226  157.4833 H   0  0  0  0  0  0  0  0  0  0  0  0
  153.2997  144.3814  160.4971 H   0  0  0  0  0  0  0  0  0  0  0  0
  150.2635  144.2005  159.8801 H   0  0  0  0  0  0  0  0  0  0  0  0
  151.1252  145.3939  160.9749 H   0  0  0  0  0  0  0  0  0  0  0  0
  152.5184  146.1797  159.0396 H   0  0  0  0  0  0  0  0  0  0  0  0
  151.6626  144.9941  157.9330 H   0  0  0  0  0  0  0  0  0  0  0  0
  1  2  1  0  0  0  0
  1 22  1  0  0  0  0
  1 23  1  0  0  0  0
  1 24  1  0  0  0  0
  2  3  1  0  0  0  0
  3  4  1  0  0  0  0
  3 25  1  0  0  0  0
  3 26  1  0  0  0  0
  4  5  1  0  0  0  0
  4 27  1  0  0  0  0
  4 28  1  0  0  0  0
  5  6  1  0  0  0  0
  5 29  1  0  0  0  0
  6  7  2  0  0  0  0
  6  8  1  0  0  0  0
  8  9  1  0  0  0  0
  8 30  1  0  0  0  0
  8 31  1  0  0  0  0
  9 20  1  0  0  0  0
  9 10  1  0  0  0  0
 10 11  2  0  0  0  0
 10 12  1  0  0  0  0
 12 13  1  0  0  0  0
 12 15  2  0  0  0  0
 13 14  3  0  0  0  0
 15 16  1  0  0  0  0
 15 32  1  0  0  0  0
 16 17  1  0  0  0  0
 16 20  1  0  0  0  0
 17 19  1  0  0  0  0
 17 18  1  0  0  0  0
 17 33  1  0  0  0  0
 18 19  1  0  0  0  0
 18 34  1  0  0  0  0
 18 35  1  0  0  0  0
 19 36  1  0  0  0  0
 19 37  1  0  0  0  0
 20 21  2  0  0  0  0
M  END
> <s_m_source_file>
AV-unprocessed.smi

> <i_m_source_file_index>
397

> <i_lp_mmshare_version>
43012

> <i_f3d_flags>
0

> <s_epik_input>
W0NIM11PW0NIMl1bQ0gyXVtOSF1DKD1PKVtDSDJdbjFjKD1PKWMoQyNOKVtjSF1uKGMxPU8pW0NIXTJbQ0gyXVtDSDJdMg==

> <s_epik_cmdline>
J2VwaWtfcHl0aG9uJywgJy1waCcsICc3LjAnLCAnLXRuJywgJzgnLCAnLW1hJywgJzIwMCcsICctbWV0YWxfYmluZGluZycsICctaW1hZScsICc8aW5maWxlLm1hZT4nLCAnLW9tYWUnLCAnPG91dGZpbGUubWFlPic=

> <r_lp_tautomer_probability>
1

> <r_epik_Ionization_Penalty>
2.64697e-08

> <r_epik_Ionization_Penalty_Charging>
8.39351e-11

> <r_epik_Ionization_Penalty_Neutral>
2.63858e-08

> <r_epik_State_Penalty>
-0

> <r_epik_Charging_Adjusted_Penalty>
8.39351e-11

> <i_epik_Tot_Q>
0

> <i_epik_Tot_abs_Q>
0

> <r_epik_Metal_State_Penalty>
-0

> <b_epik_Metal_Only>
0

> <s_lp_Force_Field>
OPLS_2005

> <r_lp_Energy>
30.955

> <b_lp_Chiralities_Consistent>
1

> <s_lp_Variant>
AV-unprocessed.smi:397-1

> <Gold.Version>
5.8.1

> <Gold.Id.Protein>
6NUR|6NUR_protein|mol2

> <Gold.PLP.Fitness>
46.3296

> <Gold.PLP.PLP>
-37.9263

> <Gold.PLP.part.hbond>
-3.0000

> <Gold.PLP.part.metal>
0.0000

> <Gold.PLP.part.buried>
-6.5845

> <Gold.PLP.part.nonpolar>
-28.0159

> <Gold.PLP.part.repulsive>
0.0543

> <Gold.PLP.ligand.clash>
0.0000

> <Gold.PLP.ligand.torsion>
0.3401

> <Gold.PLP.Chemscore.Hbond>
2.9760

> <Gold.PLP.Chemscore.CHOScore>
0.0000

> <Gold.PLP.Chemscore.Metal>
0.0000

> <Gold.Chemscore.Hbonds>
donor molecule, donor type, donor heavy atom, donor atom, acceptor molecule, acceptor atom, score
      P1  H  7989  7998       L1    14  0.98
      P1  H  7997  8008       L1     7  0.96

> <Gold.PLP.Chemscore.Internal.Correction>
0.1556

> <Gold.Rescore>
     Score         DG    S(hbond)    S(metal)    S(lipo)     H(rot)  DE(clash)    DE(int)     intcor
     15.02     -17.03       2.94        0.00      68.65       2.46       0.24       1.77       ----

> <Gold.Chemscore.Fitness>
15.0227

> <Gold.Chemscore.DG>
-17.0269

> <Gold.Chemscore.ZeroCoef>
-5.4800

> <Gold.Chemscore.Hbond>
2.9398

> <Gold.Chemscore.Metal>
0.0000

> <Gold.Chemscore.Lipo>
68.6536

> <Gold.Chemscore.Internal_Hbond>
0.0000

> <Gold.Chemscore.DEClash>
0.2362

> <Gold.Chemscore.DEInternal>
1.7681

> <Gold.Chemscore.Rot>
2.4626

> <Gold.Chemscore.Internal.Correction>
   9.000000E+99

> <Gold.Chemscore.Hbonds>
donor molecule, donor type, donor heavy atom, donor atom, acceptor molecule, acceptor atom, score
      P1  H  7989  7998       L1    14  0.91
      P1  H  7997  8008       L1     7  0.91

> <Gold.Chemscore.Hbond.Weighted>
-9.8188

> <Gold.Chemscore.Metal.Weighted>
-0.0000

> <Gold.Chemscore.Lipo.Weighted>
-8.0325

> <Gold.Chemscore.Internal_Hbond.Weighted>
0.0000

> <Gold.Chemscore.DEClash.Weighted>
0.2362

> <Gold.Chemscore.DEInternal.Weighted>
1.7681

> <Gold.Chemscore.Rot.Weighted>
6.3043

> <Gold.Chemscore.Internal.Correction.Weighted>
   9.000000E+99

> <Gold.Protein.RotatedTorsions>
[ 6907 6896 6895 6894 ] final -164.39 input  -60.11 | X-H torsion
[ 7974 7965 7964 7962 ] final   97.82 input  175.53 | X-H torsion
[ 8008 7997 7996 7995 ] final -143.27 input   59.86 | X-H torsion
[ 10167 10162 10161 10158 ] final   58.60 input  -65.29 | X-H torsion
[ 10718 10713 10712 10709 ] final -148.39 input   66.30 | X-H torsion
[ 10763 10752 10751 10750 ] final  141.25 input  -60.55 | X-H torsion
[ 11005 11000 10999 10996 ] final  -74.85 input  -57.11 | X-H torsion

> <Gold.Protein.ActiveResidues>
 VAL166  LYS551  ARG553  GLY616  TRP617  ASP618  TYR619  PRO620  LYS621  CYS622 
 ASP623  PHE694  ASN695  SER759  ASP760  ASP761  ALA762  ILE779  LEU786  VAL792 
 PHE793  MET794  SER795  GLU796  ALA797  LYS798  CYS799  TRP800  GLU811  SER814 

> <Gold.Protein.RotatedAtoms>
  151.4111  133.3727  159.2743 H   0  0  0  0  0  0  0  0  0  0  0  0  # atno 6907 bound_to 6896
  150.9362  134.8776  159.7594 H   0  0  0  0  0  0  0  0  0  0  0  0  # atno 6908 bound_to 6896
  152.5051  134.4059  159.9484 H   0  0  0  0  0  0  0  0  0  0  0  0  # atno 6909 bound_to 6896
  145.4205  139.2322  143.3199 H   0  0  0  0  0  0  0  0  0  0  0  0  # atno 7974 bound_to 7965
  155.5078  140.0581  157.2928 H   0  0  0  0  0  0  0  0  0  0  0  0  # atno 8008 bound_to 7997
  154.4563  140.1974  156.0319 H   0  0  0  0  0  0  0  0  0  0  0  0  # atno 8009 bound_to 7997
  156.0805  140.3247  155.7692 H   0  0  0  0  0  0  0  0  0  0  0  0  # atno 8010 bound_to 7997
  140.1854  144.4139  150.6595 H   0  0  0  0  0  0  0  0  0  0  0  0  # atno 10167 bound_to 10162
  156.4196  130.8022  151.2244 H   0  0  0  0  0  0  0  0  0  0  0  0  # atno 10718 bound_to 10713
  153.9361  135.2985  155.3444 H   0  0  0  0  0  0  0  0  0  0  0  0  # atno 10763 bound_to 10752
  154.7501  135.4984  153.9278 H   0  0  0  0  0  0  0  0  0  0  0  0  # atno 10764 bound_to 10752
  153.1066  135.6748  153.9680 H   0  0  0  0  0  0  0  0  0  0  0  0  # atno 10765 bound_to 10752
  141.1639  133.6926  156.7427 H   0  0  0  0  0  0  0  0  0  0  0  0  # atno 11005 bound_to 11000
  146.2659  140.4928  142.8834 LP  0  0  0  0  0  0  0  0  0  0  0  0  # atno 17320 bound_to 7965
  144.8249  140.6611  143.6329 LP  0  0  0  0  0  0  0  0  0  0  0  0  # atno 17321 bound_to 7965
  140.6491  143.2220  151.6118 LP  0  0  0  0  0  0  0  0  0  0  0  0  # atno 17342 bound_to 10162
  139.5278  144.3006  152.1076 LP  0  0  0  0  0  0  0  0  0  0  0  0  # atno 17343 bound_to 10162
  157.7508  131.0232  150.3824 LP  0  0  0  0  0  0  0  0  0  0  0  0  # atno 17370 bound_to 10713
  156.4139  130.3939  149.6872 LP  0  0  0  0  0  0  0  0  0  0  0  0  # atno 17371 bound_to 10713
  140.2662  134.8428  157.3805 LP  0  0  0  0  0  0  0  0  0  0  0  0  # atno 17394 bound_to 11000
  140.1564  134.4784  155.7925 LP  0  0  0  0  0  0  0  0  0  0  0  0  # atno 17395 bound_to 11000

$$$$
