AV-unprocessed.smi:2698|AV-procd|sdf|10419|dock8
  -GOLD-   2272014453D 1   1.00000     0.00000
 Structure written by MMmdl.
 33 33  0  0  0  0  0  0  0  0  2 V2000
  152.5094  143.2077  160.7264 C   0  0  0  0  0  0  0  0  0  0  0  0
  152.8062  141.7257  160.4313 C   0  0  0  0  0  0  0  0  0  0  0  0
  154.2909  141.4163  160.6751 C   0  0  0  0  0  0  0  0  0  0  0  0
  152.3892  141.2901  159.0076 C   0  0  0  0  0  0  0  0  0  0  0  0
  152.6169  139.8006  158.7414 C   0  0  0  0  0  0  0  0  0  0  0  0
  153.7611  139.3651  158.6132 O   0  0  0  0  0  0  0  0  0  0  0  0
  151.5147  139.0404  158.6567 N   0  0  0  0  0  0  0  0  0  0  0  0
  151.4736  137.6037  158.3866 C   0  0  2  0  0  0  0  0  0  0  0  0
  152.0593  137.3334  156.9828 C   0  0  0  0  0  0  0  0  0  0  0  0
  151.4310  138.1177  155.8524 C   0  0  0  0  0  0  0  0  0  0  0  0
  151.4118  139.4643  155.5533 C   0  0  0  0  0  0  0  0  0  0  0  0
  150.6941  139.6807  154.3744 N   0  0  0  0  0  0  0  0  0  0  0  0
  150.3189  138.4643  153.9979 C   0  0  0  0  0  0  0  0  0  0  0  0
  150.7310  137.5032  154.8287 N   0  0  0  0  0  0  0  0  0  0  0  0
  150.0207  137.1160  158.4677 C   0  0  0  0  0  0  0  0  0  0  0  0
  149.7536  136.2239  159.3042 O   0  0  0  0  0  0  0  0  0  0  0  0
  149.1982  137.6457  157.6890 O   0  5  0  0  0  0  0  0  0  0  0  0
  150.5586  136.5126  154.7325 H   0  0  0  0  0  0  0  0  0  0  0  0
  153.0160  143.8617  160.0161 H   0  0  0  0  0  0  0  0  0  0  0  0
  152.8445  143.4813  161.7273 H   0  0  0  0  0  0  0  0  0  0  0  0
  151.4425  143.4248  160.6783 H   0  0  0  0  0  0  0  0  0  0  0  0
  152.2351  141.1305  161.1458 H   0  0  0  0  0  0  0  0  0  0  0  0
  154.9294  141.9786  159.9930 H   0  0  0  0  0  0  0  0  0  0  0  0
  154.5009  140.3561  160.5304 H   0  0  0  0  0  0  0  0  0  0  0  0
  154.5849  141.6719  161.6934 H   0  0  0  0  0  0  0  0  0  0  0  0
  151.3364  141.5212  158.8390 H   0  0  0  0  0  0  0  0  0  0  0  0
  152.9465  141.8629  158.2648 H   0  0  0  0  0  0  0  0  0  0  0  0
  150.6213  139.4887  158.7985 H   0  0  0  0  0  0  0  0  0  0  0  0
  152.0584  137.0505  159.1242 H   0  0  0  0  0  0  0  0  0  0  0  0
  153.1272  137.5566  156.9788 H   0  0  0  0  0  0  0  0  0  0  0  0
  151.9691  136.2722  156.7441 H   0  0  0  0  0  0  0  0  0  0  0  0
  151.8549  140.2898  156.0903 H   0  0  0  0  0  0  0  0  0  0  0  0
  149.7401  138.2709  153.1069 H   0  0  0  0  0  0  0  0  0  0  0  0
  1  2  1  0  0  0  0
  1 19  1  0  0  0  0
  1 20  1  0  0  0  0
  1 21  1  0  0  0  0
  2  3  1  0  0  0  0
  2  4  1  0  0  0  0
  2 22  1  0  0  0  0
  3 23  1  0  0  0  0
  3 24  1  0  0  0  0
  3 25  1  0  0  0  0
  4  5  1  0  0  0  0
  4 26  1  0  0  0  0
  4 27  1  0  0  0  0
  5  6  2  0  0  0  0
  5  7  1  0  0  0  0
  7  8  1  0  0  0  0
  7 28  1  0  0  0  0
  8  9  1  0  0  0  0
  8 15  1  0  0  0  0
  8 29  1  0  0  0  0
  9 30  1  0  0  0  0
  9 31  1  0  0  0  0
  9 10  1  0  0  0  0
 10 11  2  0  0  0  0
 10 14  1  0  0  0  0
 11 32  1  0  0  0  0
 11 12  1  0  0  0  0
 12 13  2  0  0  0  0
 13 14  1  0  0  0  0
 13 33  1  0  0  0  0
 14 18  1  0  0  0  0
 15 16  2  0  0  0  0
 15 17  1  0  0  0  0
M  CHG  1  17  -1
M  END
> <s_m_source_file>
AV-unprocessed.smi

> <i_m_source_file_index>
2698

> <i_lp_mmshare_version>
43012

> <i_f3d_flags>
0

> <s_epik_input>
W0NIM11bQ0hdKFtDSDNdKVtDSDJdQyg9TylbTkhdW0NAQEhdKEMoPU8pW09IXSlbQ0gyXWMxW2NIXVtuSF1bY0hdbjE=

> <s_epik_cmdline>
J2VwaWtfcHl0aG9uJywgJy1waCcsICc3LjAnLCAnLXRuJywgJzgnLCAnLW1hJywgJzIwMCcsICctbWV0YWxfYmluZGluZycsICctaW1hZScsICc8aW5maWxlLm1hZT4nLCAnLW9tYWUnLCAnPG91dGZpbGUubWFlPic=

> <r_lp_tautomer_probability>
0.5

> <r_epik_Ionization_Penalty>
0.536153

> <r_epik_Ionization_Penalty_Charging>
0.536153

> <r_epik_Ionization_Penalty_Neutral>
4.95393e-08

> <r_epik_State_Penalty>
0.778213

> <r_epik_Charging_Adjusted_Penalty>
1.31437

> <i_epik_Tot_Q>
-1

> <i_epik_Tot_abs_Q>
1

> <r_epik_Metal_State_Penalty>
0.658344

> <b_epik_Metal_Only>
0

> <s_lp_Force_Field>
OPLS_2005

> <r_lp_Energy>
3.7745

> <b_lp_Chiralities_Consistent>
1

> <s_lp_Variant>
AV-unprocessed.smi:2698-3

> <Gold.Version>
5.8.1

> <Gold.Id.Protein>
6NUR|6NUR_protein|mol2

> <Gold.PLP.Fitness>
46.1467

> <Gold.PLP.PLP>
-28.8376

> <Gold.PLP.part.hbond>
-3.0000

> <Gold.PLP.part.metal>
0.0000

> <Gold.PLP.part.buried>
-4.5865

> <Gold.PLP.part.nonpolar>
-21.8320

> <Gold.PLP.part.repulsive>
0.3128

> <Gold.PLP.ligand.clash>
0.0000

> <Gold.PLP.ligand.torsion>
0.1804

> <Gold.PLP.Chemscore.Hbond>
4.0000

> <Gold.PLP.Chemscore.CHOScore>
1.8694

> <Gold.PLP.Chemscore.Metal>
0.0000

> <Gold.Chemscore.Hbonds>
donor molecule, donor type, donor heavy atom, donor atom, acceptor molecule, acceptor atom, score
      P1  H  6896  6907       L1    16  2.00
      P1  H  7989  7998       L1    12  1.00
      P1  H  7997  8010       L1     6  1.00
      L1  C    13    33       P1  7948  1.00
      L1  C    13    33       P1  7957  0.66

> <Gold.PLP.Chemscore.Internal.Correction>
0.0616

> <Gold.Rescore>
     Score         DG    S(hbond)    S(metal)    S(lipo)     H(rot)  DE(clash)    DE(int)     intcor
     12.59     -14.86       2.94        0.00      62.26       3.01       0.01       2.26       ----

> <Gold.Chemscore.Fitness>
12.5910

> <Gold.Chemscore.DG>
-14.8636

> <Gold.Chemscore.ZeroCoef>
-5.4800

> <Gold.Chemscore.Hbond>
2.9390

> <Gold.Chemscore.Metal>
0.0000

> <Gold.Chemscore.Lipo>
62.2613

> <Gold.Chemscore.Internal_Hbond>
0.0000

> <Gold.Chemscore.DEClash>
0.0149

> <Gold.Chemscore.DEInternal>
2.2577

> <Gold.Chemscore.Rot>
3.0145

> <Gold.Chemscore.Internal.Correction>
   9.000000E+99

> <Gold.Chemscore.Hbonds>
donor molecule, donor type, donor heavy atom, donor atom, acceptor molecule, acceptor atom, score
      P1  H  6896  6907       L1    16  1.00
      P1  H  7989  7998       L1    12  0.50
      P1  H  7997  8010       L1     6  0.88

> <Gold.Chemscore.Hbond.Weighted>
-9.8161

> <Gold.Chemscore.Metal.Weighted>
-0.0000

> <Gold.Chemscore.Lipo.Weighted>
-7.2846

> <Gold.Chemscore.Internal_Hbond.Weighted>
0.0000

> <Gold.Chemscore.DEClash.Weighted>
0.0149

> <Gold.Chemscore.DEInternal.Weighted>
2.2577

> <Gold.Chemscore.Rot.Weighted>
7.7171

> <Gold.Chemscore.Internal.Correction.Weighted>
   9.000000E+99

> <Gold.Protein.RotatedTorsions>
[ 6907 6896 6895 6894 ] final  -58.93 input  -60.11 | X-H torsion
[ 7974 7965 7964 7962 ] final   36.78 input  175.53 | X-H torsion
[ 8008 7997 7996 7995 ] final   29.28 input   59.86 | X-H torsion
[ 10167 10162 10161 10158 ] final -128.32 input  -65.29 | X-H torsion
[ 10718 10713 10712 10709 ] final  111.22 input   66.30 | X-H torsion
[ 10763 10752 10751 10750 ] final -173.44 input  -60.55 | X-H torsion
[ 11005 11000 10999 10996 ] final -166.23 input  -57.11 | X-H torsion

> <Gold.Protein.ActiveResidues>
 VAL166  LYS551  ARG553  GLY616  TRP617  ASP618  TYR619  PRO620  LYS621  CYS622 
 ASP623  PHE694  ASN695  SER759  ASP760  ASP761  ALA762  ILE779  LEU786  VAL792 
 PHE793  MET794  SER795  GLU796  ALA797  LYS798  CYS799  TRP800  GLU811  SER814 

> <Gold.Protein.RotatedAtoms>
  150.7969  134.7035  159.6562 H   0  0  0  0  0  0  0  0  0  0  0  0  # atno 6907 bound_to 6896
  152.4082  134.6167  160.0050 H   0  0  0  0  0  0  0  0  0  0  0  0  # atno 6908 bound_to 6896
  151.6418  133.3288  159.3168 H   0  0  0  0  0  0  0  0  0  0  0  0  # atno 6909 bound_to 6896
  146.1186  139.5975  142.9305 H   0  0  0  0  0  0  0  0  0  0  0  0  # atno 7974 bound_to 7965
  155.0720  140.3201  155.4627 H   0  0  0  0  0  0  0  0  0  0  0  0  # atno 8008 bound_to 7997
  156.2788  140.2110  156.5792 H   0  0  0  0  0  0  0  0  0  0  0  0  # atno 8009 bound_to 7997
  154.7047  140.0503  157.0480 H   0  0  0  0  0  0  0  0  0  0  0  0  # atno 8010 bound_to 7997
  139.9516  143.6050  152.2473 H   0  0  0  0  0  0  0  0  0  0  0  0  # atno 10167 bound_to 10162
  157.6455  131.0947  150.6717 H   0  0  0  0  0  0  0  0  0  0  0  0  # atno 10718 bound_to 10713
  154.6078  135.2861  155.0465 H   0  0  0  0  0  0  0  0  0  0  0  0  # atno 10763 bound_to 10752
  154.1706  135.6473  153.5012 H   0  0  0  0  0  0  0  0  0  0  0  0  # atno 10764 bound_to 10752
  153.0182  135.5400  154.6820 H   0  0  0  0  0  0  0  0  0  0  0  0  # atno 10765 bound_to 10752
  140.5668  134.5278  157.5154 H   0  0  0  0  0  0  0  0  0  0  0  0  # atno 11005 bound_to 11000
  145.5514  141.0413  143.2276 LP  0  0  0  0  0  0  0  0  0  0  0  0  # atno 17320 bound_to 7965
  144.7576  139.7036  143.7247 LP  0  0  0  0  0  0  0  0  0  0  0  0  # atno 17321 bound_to 7965
  139.6624  144.7662  151.1937 LP  0  0  0  0  0  0  0  0  0  0  0  0  # atno 17342 bound_to 10162
  140.7581  143.5989  150.8719 LP  0  0  0  0  0  0  0  0  0  0  0  0  # atno 17343 bound_to 10162
  156.7034  130.4630  149.5566 LP  0  0  0  0  0  0  0  0  0  0  0  0  # atno 17370 bound_to 10713
  156.1779  130.6480  151.0917 LP  0  0  0  0  0  0  0  0  0  0  0  0  # atno 17371 bound_to 10713
  139.9381  134.7837  156.0749 LP  0  0  0  0  0  0  0  0  0  0  0  0  # atno 17394 bound_to 11000
  141.1081  133.6653  156.2912 LP  0  0  0  0  0  0  0  0  0  0  0  0  # atno 17395 bound_to 11000

$$$$
