AV-unprocessed.smi:885|AV-procd|sdf|4047|dock2
  -GOLD-   22720 1533D 1   1.00000     0.00000
 Structure written by MMmdl.
 39 41  0  0  0  0  0  0  0  0  1 V2000
  152.0636  143.8146  161.5734 C   0  0  0  0  0  0  0  0  0  0  0  0
  153.0710  142.8583  162.2362 C   0  0  0  0  0  0  0  0  0  0  0  0
  153.7570  141.8339  161.3146 C   0  0  0  0  0  0  0  0  0  0  0  0
  152.8546  141.2015  160.2414 C   0  0  0  0  0  0  0  0  0  0  0  0
  152.7703  142.0340  158.9431 C   0  0  0  0  0  0  0  0  0  0  0  0
  152.2729  141.2043  157.7975 C   0  0  0  0  0  0  0  0  0  0  0  0
  152.7582  139.9914  157.5544 N   0  0  0  0  0  0  0  0  0  0  0  0
  152.0330  139.5699  156.4311 O   0  0  0  0  0  0  0  0  0  0  0  0
  151.2035  140.5943  156.1187 C   0  0  0  0  0  0  0  0  0  0  0  0
  150.2534  140.4229  154.9765 C   0  0  1  0  0  0  0  0  0  0  0  0
  150.3483  139.0212  154.3436 C   0  0  0  0  0  0  0  0  0  0  0  0
  149.3448  138.8713  153.2908 N   0  0  0  0  0  0  0  0  0  0  0  0
  148.0025  139.1571  153.7955 C   0  0  0  0  0  0  0  0  0  0  0  0
  147.9617  140.5504  154.4487 C   0  0  0  0  0  0  0  0  0  0  0  0
  148.9359  140.6215  155.4844 O   0  0  0  0  0  0  0  0  0  0  0  0
  151.2954  141.6302  156.9508 N   0  0  0  0  0  0  0  0  0  0  0  0
  151.9770  143.3517  159.0561 C   0  0  0  0  0  0  0  0  0  0  0  0
  152.4471  144.3055  160.1682 C   0  0  0  0  0  0  0  0  0  0  0  0
  151.9397  144.6771  162.2289 H   0  0  0  0  0  0  0  0  0  0  0  0
  151.0815  143.3416  161.5359 H   0  0  0  0  0  0  0  0  0  0  0  0
  153.8489  143.4448  162.7262 H   0  0  0  0  0  0  0  0  0  0  0  0
  152.5572  142.3288  163.0394 H   0  0  0  0  0  0  0  0  0  0  0  0
  154.6242  142.2927  160.8385 H   0  0  0  0  0  0  0  0  0  0  0  0
  154.1649  141.0418  161.9435 H   0  0  0  0  0  0  0  0  0  0  0  0
  153.2943  140.2356  159.9877 H   0  0  0  0  0  0  0  0  0  0  0  0
  151.8628  140.9804  160.6380 H   0  0  0  0  0  0  0  0  0  0  0  0
  153.7934  142.3140  158.6862 H   0  0  0  0  0  0  0  0  0  0  0  0
  150.4761  141.1900  154.2323 H   0  0  0  0  0  0  0  0  0  0  0  0
  151.3460  138.8592  153.9348 H   0  0  0  0  0  0  0  0  0  0  0  0
  150.1957  138.2601  155.1101 H   0  0  0  0  0  0  0  0  0  0  0  0
  149.3758  137.9258  152.9229 H   0  0  0  0  0  0  0  0  0  0  0  0
  147.2773  139.1016  152.9835 H   0  0  0  0  0  0  0  0  0  0  0  0
  147.7124  138.4018  154.5267 H   0  0  0  0  0  0  0  0  0  0  0  0
  148.1374  141.3340  153.7100 H   0  0  0  0  0  0  0  0  0  0  0  0
  146.9770  140.7338  154.8785 H   0  0  0  0  0  0  0  0  0  0  0  0
  152.0523  143.8777  158.1034 H   0  0  0  0  0  0  0  0  0  0  0  0
  150.9158  143.1380  159.1904 H   0  0  0  0  0  0  0  0  0  0  0  0
  151.9586  145.2667  160.0044 H   0  0  0  0  0  0  0  0  0  0  0  0
  153.5176  144.5013  160.0971 H   0  0  0  0  0  0  0  0  0  0  0  0
  1 18  1  0  0  0  0
  1  2  1  0  0  0  0
  1 19  1  0  0  0  0
  1 20  1  0  0  0  0
  2  3  1  0  0  0  0
  2 21  1  0  0  0  0
  2 22  1  0  0  0  0
  3  4  1  0  0  0  0
  3 23  1  0  0  0  0
  3 24  1  0  0  0  0
  4  5  1  0  0  0  0
  4 25  1  0  0  0  0
  4 26  1  0  0  0  0
  5  6  1  0  0  0  0
  5 17  1  0  0  0  0
  5 27  1  0  0  0  0
  6 16  1  0  0  0  0
  6  7  2  0  0  0  0
  7  8  1  0  0  0  0
  8  9  1  0  0  0  0
  9 10  1  0  0  0  0
  9 16  2  0  0  0  0
 10 15  1  0  0  0  0
 10 11  1  0  0  0  0
 10 28  1  0  0  0  0
 11 12  1  0  0  0  0
 11 29  1  0  0  0  0
 11 30  1  0  0  0  0
 12 13  1  0  0  0  0
 12 31  1  0  0  0  0
 13 14  1  0  0  0  0
 13 32  1  0  0  0  0
 13 33  1  0  0  0  0
 14 15  1  0  0  0  0
 14 34  1  0  0  0  0
 14 35  1  0  0  0  0
 17 18  1  0  0  0  0
 17 36  1  0  0  0  0
 17 37  1  0  0  0  0
 18 38  1  0  0  0  0
 18 39  1  0  0  0  0
M  END
> <s_m_source_file>
AV-unprocessed.smi

> <i_m_source_file_index>
885

> <i_lp_mmshare_version>
43012

> <i_f3d_flags>
0

> <s_epik_input>
W0NIMl0xW0NIMl1bQ0gyXVtDSDJdW0NIMl1bQ0gyXVtDSF0xYzJub2MobjIpW0NAQEhdM1tDSDJdW05IXVtDSDJdW0NIMl1PMw==

> <s_epik_cmdline>
J2VwaWtfcHl0aG9uJywgJy1waCcsICc3LjAnLCAnLXRuJywgJzgnLCAnLW1hJywgJzIwMCcsICctbWV0YWxfYmluZGluZycsICctaW1hZScsICc8aW5maWxlLm1hZT4nLCAnLW9tYWUnLCAnPG91dGZpbGUubWFlPic=

> <r_lp_tautomer_probability>
1

> <r_epik_Ionization_Penalty>
0.861744

> <r_epik_Ionization_Penalty_Charging>
0

> <r_epik_Ionization_Penalty_Neutral>
0.861744

> <r_epik_State_Penalty>
0.898282

> <r_epik_Charging_Adjusted_Penalty>
0.898282

> <i_epik_Tot_Q>
0

> <i_epik_Tot_abs_Q>
0

> <r_epik_Metal_State_Penalty>
0.898282

> <b_epik_Metal_Only>
0

> <s_lp_Force_Field>
OPLS_2005

> <r_lp_Energy>
21.0678

> <b_lp_Chiralities_Consistent>
1

> <s_lp_Variant>
AV-unprocessed.smi:885-4

> <Gold.Version>
5.8.1

> <Gold.Id.Protein>
6NUR|6NUR_protein|mol2

> <Gold.PLP.Fitness>
45.7134

> <Gold.PLP.PLP>
-40.0229

> <Gold.PLP.part.hbond>
-2.8355

> <Gold.PLP.part.metal>
0.0000

> <Gold.PLP.part.buried>
-3.6602

> <Gold.PLP.part.nonpolar>
-32.2540

> <Gold.PLP.part.repulsive>
0.1189

> <Gold.PLP.ligand.clash>
0.0000

> <Gold.PLP.ligand.torsion>
0.2125

> <Gold.PLP.Chemscore.Hbond>
2.0000

> <Gold.PLP.Chemscore.CHOScore>
0.0000

> <Gold.PLP.Chemscore.Metal>
0.0000

> <Gold.Chemscore.Hbonds>
donor molecule, donor type, donor heavy atom, donor atom, acceptor molecule, acceptor atom, score
      L1  H    12    31       P1  7948  1.00
      P1  H  7997  8008       L1     7  1.00

> <Gold.PLP.Chemscore.Internal.Correction>
0.1155

> <Gold.Rescore>
     Score         DG    S(hbond)    S(metal)    S(lipo)     H(rot)  DE(clash)    DE(int)     intcor
     19.88     -20.13       1.68        0.00     103.63       1.21       0.10       0.16       ----

> <Gold.Chemscore.Fitness>
19.8836

> <Gold.Chemscore.DG>
-20.1343

> <Gold.Chemscore.ZeroCoef>
-5.4800

> <Gold.Chemscore.Hbond>
1.6839

> <Gold.Chemscore.Metal>
0.0000

> <Gold.Chemscore.Lipo>
103.6300

> <Gold.Chemscore.Internal_Hbond>
0.0000

> <Gold.Chemscore.DEClash>
0.0956

> <Gold.Chemscore.DEInternal>
0.1551

> <Gold.Chemscore.Rot>
1.2088

> <Gold.Chemscore.Internal.Correction>
   9.000000E+99

> <Gold.Chemscore.Hbonds>
donor molecule, donor type, donor heavy atom, donor atom, acceptor molecule, acceptor atom, score
      L1  H    12    31       P1  7948  0.88
      P1  H  7997  8008       L1     7  0.23

> <Gold.Chemscore.Hbond.Weighted>
-5.6242

> <Gold.Chemscore.Metal.Weighted>
-0.0000

> <Gold.Chemscore.Lipo.Weighted>
-12.1247

> <Gold.Chemscore.Internal_Hbond.Weighted>
0.0000

> <Gold.Chemscore.DEClash.Weighted>
0.0956

> <Gold.Chemscore.DEInternal.Weighted>
0.1551

> <Gold.Chemscore.Rot.Weighted>
3.0946

> <Gold.Chemscore.Internal.Correction.Weighted>
   9.000000E+99

> <Gold.Protein.RotatedTorsions>
[ 6907 6896 6895 6894 ] final   80.37 input  -60.11 | X-H torsion
[ 7974 7965 7964 7962 ] final  -22.42 input  175.53 | X-H torsion
[ 8008 7997 7996 7995 ] final  -74.51 input   59.86 | X-H torsion
[ 10167 10162 10161 10158 ] final  -31.75 input  -65.29 | X-H torsion
[ 10718 10713 10712 10709 ] final  155.78 input   66.30 | X-H torsion
[ 10763 10752 10751 10750 ] final   35.65 input  -60.55 | X-H torsion
[ 11005 11000 10999 10996 ] final -176.74 input  -57.11 | X-H torsion

> <Gold.Protein.ActiveResidues>
 VAL166  LYS551  ARG553  GLY616  TRP617  ASP618  TYR619  PRO620  LYS621  CYS622 
 ASP623  PHE694  ASN695  SER759  ASP760  ASP761  ALA762  ILE779  LEU786  VAL792 
 PHE793  MET794  SER795  GLU796  ALA797  LYS798  CYS799  TRP800  GLU811  SER814 

> <Gold.Protein.RotatedAtoms>
  152.5232  134.3368  159.9202 H   0  0  0  0  0  0  0  0  0  0  0  0  # atno 6907 bound_to 6896
  151.3317  133.3991  159.2671 H   0  0  0  0  0  0  0  0  0  0  0  0  # atno 6908 bound_to 6896
  150.9875  134.9235  159.7938 H   0  0  0  0  0  0  0  0  0  0  0  0  # atno 6909 bound_to 6896
  146.1676  140.4477  142.8545 H   0  0  0  0  0  0  0  0  0  0  0  0  # atno 7974 bound_to 7965
  154.5337  140.0760  156.8390 H   0  0  0  0  0  0  0  0  0  0  0  0  # atno 8008 bound_to 7997
  155.3322  140.3402  155.4221 H   0  0  0  0  0  0  0  0  0  0  0  0  # atno 8009 bound_to 7997
  156.1807  140.1651  156.8266 H   0  0  0  0  0  0  0  0  0  0  0  0  # atno 8010 bound_to 7997
  140.7231  143.3747  151.1713 H   0  0  0  0  0  0  0  0  0  0  0  0  # atno 10167 bound_to 10162
  157.2138  131.0703  151.1953 H   0  0  0  0  0  0  0  0  0  0  0  0  # atno 10718 bound_to 10713
  153.0110  135.6327  154.1861 H   0  0  0  0  0  0  0  0  0  0  0  0  # atno 10763 bound_to 10752
  154.1603  135.2824  155.3112 H   0  0  0  0  0  0  0  0  0  0  0  0  # atno 10764 bound_to 10752
  154.5987  135.5594  153.7412 H   0  0  0  0  0  0  0  0  0  0  0  0  # atno 10765 bound_to 10752
  140.4487  134.6363  157.4791 H   0  0  0  0  0  0  0  0  0  0  0  0  # atno 11005 bound_to 11000
  144.8115  140.6394  143.6412 LP  0  0  0  0  0  0  0  0  0  0  0  0  # atno 17320 bound_to 7965
  145.4426  139.1534  143.3962 LP  0  0  0  0  0  0  0  0  0  0  0  0  # atno 17321 bound_to 7965
  139.7324  143.9051  152.3024 LP  0  0  0  0  0  0  0  0  0  0  0  0  # atno 17342 bound_to 10162
  139.8845  144.6999  150.8840 LP  0  0  0  0  0  0  0  0  0  0  0  0  # atno 17343 bound_to 10162
  157.3645  130.7148  149.6523 LP  0  0  0  0  0  0  0  0  0  0  0  0  # atno 17370 bound_to 10713
  155.9688  130.4216  150.4477 LP  0  0  0  0  0  0  0  0  0  0  0  0  # atno 17371 bound_to 10713
  140.0021  134.6820  155.9513 LP  0  0  0  0  0  0  0  0  0  0  0  0  # atno 17394 bound_to 11000
  141.1674  133.6537  156.4527 LP  0  0  0  0  0  0  0  0  0  0  0  0  # atno 17395 bound_to 11000

$$$$
