AV-unprocessed.smi:2866|AV-procd|sdf|11020|dock5
  -GOLD-   2272015483D 1   1.00000     0.00000
 Structure written by MMmdl.
 41 43  0  0  0  0  0  0  0  0  1 V2000
  151.2133  144.9279  160.5196 C   0  0  0  0  0  0  0  0  0  0  0  0
  151.8054  143.5442  160.3178 C   0  0  0  0  0  0  0  0  0  0  0  0
  151.6140  142.8889  159.0806 C   0  0  0  0  0  0  0  0  0  0  0  0
  152.1535  141.6044  158.8505 C   0  0  0  0  0  0  0  0  0  0  0  0
  152.0956  140.7925  157.7306 N   0  0  0  0  0  0  0  0  0  0  0  0
  152.7897  139.7317  158.1323 C   0  0  0  0  0  0  0  0  0  0  0  0
  153.2907  139.7598  159.3821 N   0  0  0  0  0  0  0  0  0  0  0  0
  154.0770  138.7248  160.0291 C   0  0  0  0  0  0  0  0  0  0  0  0
  153.2152  137.5252  160.4776 C   0  0  1  0  0  0  0  0  0  0  0  0
  152.6336  136.9007  159.3502 O   0  0  0  0  0  0  0  0  0  0  0  0
  154.0049  136.4583  161.2617 C   0  0  0  0  0  0  0  0  0  0  0  0
  154.2546  136.8366  162.6411 N   0  0  0  0  0  0  0  0  0  0  0  0
  153.8617  136.1893  163.7923 C   0  0  0  0  0  0  0  0  0  0  0  0
  154.3155  136.9273  164.8473 C   0  0  0  0  0  0  0  0  0  0  0  0
  154.9803  138.0314  164.2385 C   0  0  0  0  0  0  0  0  0  0  0  0
  155.6822  139.1841  164.9071 C   0  0  0  0  0  0  0  0  0  0  0  0
  155.5010  139.1330  166.2267 F   0  0  0  0  0  0  0  0  0  0  0  0
  156.9893  139.1294  164.6515 F   0  0  0  0  0  0  0  0  0  0  0  0
  155.1975  140.3393  164.4515 F   0  0  0  0  0  0  0  0  0  0  0  0
  154.9350  137.9704  162.9144 N   0  0  0  0  0  0  0  0  0  0  0  0
  152.8927  140.9870  159.9014 C   0  0  0  0  0  0  0  0  0  0  0  0
  153.0873  141.6276  161.1377 C   0  0  0  0  0  0  0  0  0  0  0  0
  152.5446  142.9122  161.3500 C   0  0  0  0  0  0  0  0  0  0  0  0
  152.7659  143.5981  162.6864 C   0  0  0  0  0  0  0  0  0  0  0  0
  150.6684  145.2601  159.6355 H   0  0  0  0  0  0  0  0  0  0  0  0
  152.0011  145.6543  160.7199 H   0  0  0  0  0  0  0  0  0  0  0  0
  150.5189  144.9285  161.3600 H   0  0  0  0  0  0  0  0  0  0  0  0
  151.0518  143.3698  158.2937 H   0  0  0  0  0  0  0  0  0  0  0  0
  152.9461  138.8849  157.4799 H   0  0  0  0  0  0  0  0  0  0  0  0
  154.8595  138.3992  159.3426 H   0  0  0  0  0  0  0  0  0  0  0  0
  154.5830  139.1751  160.8839 H   0  0  0  0  0  0  0  0  0  0  0  0
  152.3991  137.8910  161.1021 H   0  0  0  0  0  0  0  0  0  0  0  0
  153.1465  137.1219  158.5876 H   0  0  0  0  0  0  0  0  0  0  0  0
  153.4652  135.5101  161.2610 H   0  0  0  0  0  0  0  0  0  0  0  0
  154.9650  136.2713  160.7785 H   0  0  0  0  0  0  0  0  0  0  0  0
  153.3000  135.2670  163.7658 H   0  0  0  0  0  0  0  0  0  0  0  0
  154.1898  136.7126  165.8982 H   0  0  0  0  0  0  0  0  0  0  0  0
  153.6541  141.1355  161.9144 H   0  0  0  0  0  0  0  0  0  0  0  0
  153.3531  142.9747  163.3614 H   0  0  0  0  0  0  0  0  0  0  0  0
  151.8123  143.8092  163.1711 H   0  0  0  0  0  0  0  0  0  0  0  0
  153.3006  144.5382  162.5493 H   0  0  0  0  0  0  0  0  0  0  0  0
  1  2  1  0  0  0  0
  1 25  1  0  0  0  0
  1 26  1  0  0  0  0
  1 27  1  0  0  0  0
  2 23  1  0  0  0  0
  2  3  2  0  0  0  0
  3  4  1  0  0  0  0
  3 28  1  0  0  0  0
  4 21  2  0  0  0  0
  4  5  1  0  0  0  0
  5  6  2  0  0  0  0
  6  7  1  0  0  0  0
  6 29  1  0  0  0  0
  7  8  1  0  0  0  0
  7 21  1  0  0  0  0
  8  9  1  0  0  0  0
  8 30  1  0  0  0  0
  8 31  1  0  0  0  0
  9 10  1  0  0  0  0
  9 11  1  0  0  0  0
  9 32  1  0  0  0  0
 10 33  1  0  0  0  0
 11 12  1  0  0  0  0
 11 34  1  0  0  0  0
 11 35  1  0  0  0  0
 12 20  1  0  0  0  0
 12 13  1  0  0  0  0
 13 14  2  0  0  0  0
 13 36  1  0  0  0  0
 14 15  1  0  0  0  0
 14 37  1  0  0  0  0
 15 16  1  0  0  0  0
 15 20  2  0  0  0  0
 16 17  1  0  0  0  0
 16 18  1  0  0  0  0
 16 19  1  0  0  0  0
 21 22  1  0  0  0  0
 22 23  2  0  0  0  0
 22 38  1  0  0  0  0
 23 24  1  0  0  0  0
 24 39  1  0  0  0  0
 24 40  1  0  0  0  0
 24 41  1  0  0  0  0
M  END
> <s_m_source_file>
AV-unprocessed.smi

> <i_m_source_file_index>
2866

> <i_lp_mmshare_version>
43012

> <i_f3d_flags>
0

> <s_epik_input>
W0NIM11jKFtjSF0xKWMoW0NIM10pW2NIXWMoYzEyKW4oW2NIXW4yKVtDSDJdW0NASF0oW09IXSlbQ0gyXW4zW2NIXVtjSF1jKG4zKUMoRikoRilG

> <s_epik_cmdline>
J2VwaWtfcHl0aG9uJywgJy1waCcsICc3LjAnLCAnLXRuJywgJzgnLCAnLW1hJywgJzIwMCcsICctbWV0YWxfYmluZGluZycsICctaW1hZScsICc8aW5maWxlLm1hZT4nLCAnLW9tYWUnLCAnPG91dGZpbGUubWFlPic=

> <r_lp_tautomer_probability>
1

> <r_epik_Ionization_Penalty>
0.1021

> <r_epik_Ionization_Penalty_Charging>
0

> <r_epik_Ionization_Penalty_Neutral>
0.1021

> <r_epik_State_Penalty>
0.0920694

> <r_epik_Charging_Adjusted_Penalty>
0.0920694

> <i_epik_Tot_Q>
0

> <i_epik_Tot_abs_Q>
0

> <r_epik_Metal_State_Penalty>
0.0784291

> <b_epik_Metal_Only>
0

> <s_lp_Force_Field>
OPLS_2005

> <r_lp_Energy>
10.7654

> <b_lp_Chiralities_Consistent>
1

> <s_lp_Variant>
AV-unprocessed.smi:2866-2

> <Gold.Version>
5.8.1

> <Gold.Id.Protein>
6NUR|6NUR_protein|mol2

> <Gold.PLP.Fitness>
54.0096

> <Gold.PLP.PLP>
-51.9488

> <Gold.PLP.part.hbond>
-1.0000

> <Gold.PLP.part.metal>
0.0000

> <Gold.PLP.part.buried>
-5.0440

> <Gold.PLP.part.nonpolar>
-44.9937

> <Gold.PLP.part.repulsive>
0.0000

> <Gold.PLP.ligand.clash>
0.0000

> <Gold.PLP.ligand.torsion>
0.4945

> <Gold.PLP.Chemscore.Hbond>
1.0000

> <Gold.PLP.Chemscore.CHOScore>
0.0000

> <Gold.PLP.Chemscore.Metal>
0.0000

> <Gold.Chemscore.Hbonds>
donor molecule, donor type, donor heavy atom, donor atom, acceptor molecule, acceptor atom, score
      P1  H  6896  6908       L1    10  0.78

> <Gold.PLP.Chemscore.Internal.Correction>
0.0497

> <Gold.Rescore>
     Score         DG    S(hbond)    S(metal)    S(lipo)     H(rot)  DE(clash)    DE(int)     intcor
     16.99     -17.73       0.89        0.00     132.31       2.42       0.26       0.48       ----

> <Gold.Chemscore.Fitness>
16.9923

> <Gold.Chemscore.DG>
-17.7344

> <Gold.Chemscore.ZeroCoef>
-5.4800

> <Gold.Chemscore.Hbond>
0.8923

> <Gold.Chemscore.Metal>
0.0000

> <Gold.Chemscore.Lipo>
132.3102

> <Gold.Chemscore.Internal_Hbond>
0.0000

> <Gold.Chemscore.DEClash>
0.2581

> <Gold.Chemscore.DEInternal>
0.4840

> <Gold.Chemscore.Rot>
2.4243

> <Gold.Chemscore.Internal.Correction>
   9.000000E+99

> <Gold.Chemscore.Hbonds>
donor molecule, donor type, donor heavy atom, donor atom, acceptor molecule, acceptor atom, score
      P1  H  6896  6908       L1    10  0.52

> <Gold.Chemscore.Hbond.Weighted>
-2.9804

> <Gold.Chemscore.Metal.Weighted>
-0.0000

> <Gold.Chemscore.Lipo.Weighted>
-15.4803

> <Gold.Chemscore.Internal_Hbond.Weighted>
0.0000

> <Gold.Chemscore.DEClash.Weighted>
0.2581

> <Gold.Chemscore.DEInternal.Weighted>
0.4840

> <Gold.Chemscore.Rot.Weighted>
6.2063

> <Gold.Chemscore.Internal.Correction.Weighted>
   9.000000E+99

> <Gold.Protein.RotatedTorsions>
[ 6907 6896 6895 6894 ] final -117.72 input  -60.11 | X-H torsion
[ 7974 7965 7964 7962 ] final -116.68 input  175.53 | X-H torsion
[ 8008 7997 7996 7995 ] final   71.44 input   59.86 | X-H torsion
[ 10167 10162 10161 10158 ] final   44.56 input  -65.29 | X-H torsion
[ 10718 10713 10712 10709 ] final -125.17 input   66.30 | X-H torsion
[ 10763 10752 10751 10750 ] final   27.51 input  -60.55 | X-H torsion
[ 11005 11000 10999 10996 ] final   -2.74 input  -57.11 | X-H torsion

> <Gold.Protein.ActiveResidues>
 VAL166  LYS551  ARG553  GLY616  TRP617  ASP618  TYR619  PRO620  LYS621  CYS622 
 ASP623  PHE694  ASN695  SER759  ASP760  ASP761  ALA762  ILE779  LEU786  VAL792 
 PHE793  MET794  SER795  GLU796  ALA797  LYS798  CYS799  TRP800  GLU811  SER814 

> <Gold.Protein.RotatedAtoms>
  150.8160  133.8337  159.3160 H   0  0  0  0  0  0  0  0  0  0  0  0  # atno 6907 bound_to 6896
  151.6109  135.1038  160.0090 H   0  0  0  0  0  0  0  0  0  0  0  0  # atno 6908 bound_to 6896
  152.4251  133.7141  159.6552 H   0  0  0  0  0  0  0  0  0  0  0  0  # atno 6909 bound_to 6896
  145.0939  140.8508  143.3966 H   0  0  0  0  0  0  0  0  0  0  0  0  # atno 7974 bound_to 7965
  155.7540  140.3488  155.5164 H   0  0  0  0  0  0  0  0  0  0  0  0  # atno 8008 bound_to 7997
  155.8978  140.1029  157.1393 H   0  0  0  0  0  0  0  0  0  0  0  0  # atno 8009 bound_to 7997
  154.4040  140.1292  156.4384 H   0  0  0  0  0  0  0  0  0  0  0  0  # atno 8010 bound_to 7997
  140.3330  144.2564  150.6165 H   0  0  0  0  0  0  0  0  0  0  0  0  # atno 10167 bound_to 10162
  156.1652  130.6629  151.0104 H   0  0  0  0  0  0  0  0  0  0  0  0  # atno 10718 bound_to 10713
  153.0551  135.6535  154.0596 H   0  0  0  0  0  0  0  0  0  0  0  0  # atno 10763 bound_to 10752
  154.0276  135.2914  155.3374 H   0  0  0  0  0  0  0  0  0  0  0  0  # atno 10764 bound_to 10752
  154.6862  135.5301  153.8397 H   0  0  0  0  0  0  0  0  0  0  0  0  # atno 10765 bound_to 10752
  140.6617  133.9314  155.8440 H   0  0  0  0  0  0  0  0  0  0  0  0  # atno 11005 bound_to 11000
  145.1033  139.2807  143.5675 LP  0  0  0  0  0  0  0  0  0  0  0  0  # atno 17320 bound_to 7965
  146.3531  140.0607  142.8629 LP  0  0  0  0  0  0  0  0  0  0  0  0  # atno 17321 bound_to 7965
  140.5379  143.2229  151.8132 LP  0  0  0  0  0  0  0  0  0  0  0  0  # atno 17342 bound_to 10162
  139.4853  144.4637  151.9509 LP  0  0  0  0  0  0  0  0  0  0  0  0  # atno 17343 bound_to 10162
  157.6762  131.0849  150.7488 LP  0  0  0  0  0  0  0  0  0  0  0  0  # atno 17370 bound_to 10713
  156.7549  130.4780  149.5449 LP  0  0  0  0  0  0  0  0  0  0  0  0  # atno 17371 bound_to 10713
  141.0460  134.0553  157.3843 LP  0  0  0  0  0  0  0  0  0  0  0  0  # atno 17394 bound_to 11000
  139.9011  135.0164  156.7271 LP  0  0  0  0  0  0  0  0  0  0  0  0  # atno 17395 bound_to 11000

$$$$
