AV-unprocessed.smi:1266|AV-procd|sdf|5321|dock2
  -GOLD-   22720 4443D 1   1.00000     0.00000
 Structure written by MMmdl.
 40 41  0  0  0  0  0  0  0  0  3 V2000
  152.5147  139.7226  157.2348 O   0  0  0  0  0  0  0  0  0  0  0  0
  152.6498  139.4239  158.4222 C   0  0  0  0  0  0  0  0  0  0  0  0
  152.7430  137.9557  158.8616 C   0  0  0  0  0  0  0  0  0  0  0  0
  151.5600  137.1569  158.4987 N   0  0  0  0  0  0  0  0  0  0  0  0
  150.3942  137.3559  159.2646 C   0  0  0  0  0  0  0  0  0  0  0  0
  149.2536  136.6808  159.0216 C   0  0  0  0  0  0  0  0  0  0  0  0
  148.0675  136.8945  159.8215 N   0  3  0  0  0  0  0  0  0  0  0  0
  148.2012  137.2158  160.9979 O   0  0  0  0  0  0  0  0  0  0  0  0
  146.9647  136.7479  159.3027 O   0  5  0  0  0  0  0  0  0  0  0  0
  149.2548  135.7269  157.9294 C   0  0  0  0  0  0  0  0  0  0  0  0
  150.3682  135.5275  157.1971 C   0  0  0  0  0  0  0  0  0  0  0  0
  151.6103  136.2588  157.4675 C   0  0  0  0  0  0  0  0  0  0  0  0
  152.6329  136.0759  156.8069 O   0  0  0  0  0  0  0  0  0  0  0  0
  152.7366  140.3334  159.4053 N   0  0  0  0  0  0  0  0  0  0  0  0
  152.6751  141.7830  159.2327 C   0  0  0  0  0  0  0  0  0  0  0  0
  152.4795  142.4388  160.6160 C   0  0  0  0  0  0  0  0  0  0  0  0
  152.7407  143.9547  160.6126 C   0  0  0  0  0  0  0  0  0  0  0  0
  151.5349  144.8374  160.2450 C   0  0  0  0  0  0  0  0  0  0  0  0
  150.6279  144.3254  159.1125 C   0  0  0  0  0  0  0  0  0  0  0  0
  151.3546  143.6243  157.9537 C   0  0  0  0  0  0  0  0  0  0  0  0
  151.5722  142.1231  158.2090 C   0  0  0  0  0  0  0  0  0  0  0  0
  153.6432  137.5253  158.4205 H   0  0  0  0  0  0  0  0  0  0  0  0
  152.9079  137.9146  159.9400 H   0  0  0  0  0  0  0  0  0  0  0  0
  150.4981  138.0823  160.0578 H   0  0  0  0  0  0  0  0  0  0  0  0
  148.3635  135.1654  157.6909 H   0  0  0  0  0  0  0  0  0  0  0  0
  150.3472  134.8115  156.3886 H   0  0  0  0  0  0  0  0  0  0  0  0
  152.8492  139.9959  160.3503 H   0  0  0  0  0  0  0  0  0  0  0  0
  153.6337  142.1222  158.8353 H   0  0  0  0  0  0  0  0  0  0  0  0
  151.4925  142.2159  161.0234 H   0  0  0  0  0  0  0  0  0  0  0  0
  153.1937  141.9887  161.3073 H   0  0  0  0  0  0  0  0  0  0  0  0
  153.0817  144.2555  161.6040 H   0  0  0  0  0  0  0  0  0  0  0  0
  153.5749  144.1778  159.9463 H   0  0  0  0  0  0  0  0  0  0  0  0
  150.9181  144.9881  161.1316 H   0  0  0  0  0  0  0  0  0  0  0  0
  151.9101  145.8268  159.9805 H   0  0  0  0  0  0  0  0  0  0  0  0
  149.8728  143.6548  159.5244 H   0  0  0  0  0  0  0  0  0  0  0  0
  150.0699  145.1758  158.7192 H   0  0  0  0  0  0  0  0  0  0  0  0
  150.7326  143.7183  157.0630 H   0  0  0  0  0  0  0  0  0  0  0  0
  152.2933  144.1254  157.7148 H   0  0  0  0  0  0  0  0  0  0  0  0
  151.8289  141.6553  157.2577 H   0  0  0  0  0  0  0  0  0  0  0  0
  150.6292  141.6658  158.5124 H   0  0  0  0  0  0  0  0  0  0  0  0
  1  2  2  0  0  0  0
  2  3  1  0  0  0  0
  2 14  1  0  0  0  0
  3  4  1  0  0  0  0
  3 22  1  0  0  0  0
  3 23  1  0  0  0  0
  4 12  1  0  0  0  0
  4  5  1  0  0  0  0
  5  6  2  0  0  0  0
  5 24  1  0  0  0  0
  6  7  1  0  0  0  0
  6 10  1  0  0  0  0
  7  8  2  0  0  0  0
  7  9  1  0  0  0  0
 10 11  2  0  0  0  0
 10 25  1  0  0  0  0
 11 12  1  0  0  0  0
 11 26  1  0  0  0  0
 12 13  2  0  0  0  0
 14 15  1  0  0  0  0
 14 27  1  0  0  0  0
 15 21  1  0  0  0  0
 15 16  1  0  0  0  0
 15 28  1  0  0  0  0
 16 17  1  0  0  0  0
 16 29  1  0  0  0  0
 16 30  1  0  0  0  0
 17 18  1  0  0  0  0
 17 31  1  0  0  0  0
 17 32  1  0  0  0  0
 18 19  1  0  0  0  0
 18 33  1  0  0  0  0
 18 34  1  0  0  0  0
 19 20  1  0  0  0  0
 19 35  1  0  0  0  0
 19 36  1  0  0  0  0
 20 21  1  0  0  0  0
 20 37  1  0  0  0  0
 20 38  1  0  0  0  0
 21 39  1  0  0  0  0
 21 40  1  0  0  0  0
M  CHG  1   7   1
M  CHG  1   9  -1
M  END
> <s_m_source_file>
AV-unprocessed.smi

> <i_m_source_file_index>
1266

> <i_lp_mmshare_version>
43012

> <i_f3d_flags>
0

> <s_epik_input>
W0NIMl0xW0NIMl1bQ0gyXVtDSDJdW0NIMl1bQ0gyXVtDSF0xW05IXUMoPU8pW0NIMl1uMltjSF1jKFtOK10oPU8pW08tXSlbY0hdW2NIXWMyPU8=

> <s_epik_cmdline>
J2VwaWtfcHl0aG9uJywgJy1waCcsICc3LjAnLCAnLXRuJywgJzgnLCAnLW1hJywgJzIwMCcsICctbWV0YWxfYmluZGluZycsICctaW1hZScsICc8aW5maWxlLm1hZT4nLCAnLW9tYWUnLCAnPG91dGZpbGUubWFlPic=

> <r_lp_tautomer_probability>
1

> <r_epik_Ionization_Penalty>
2.02954e-08

> <r_epik_Ionization_Penalty_Charging>
8.05481e-11

> <r_epik_Ionization_Penalty_Neutral>
2.02148e-08

> <r_epik_State_Penalty>
-0

> <r_epik_Charging_Adjusted_Penalty>
8.05481e-11

> <i_epik_Tot_Q>
0

> <i_epik_Tot_abs_Q>
2

> <r_epik_Metal_State_Penalty>
-0

> <b_epik_Metal_Only>
0

> <s_lp_Force_Field>
OPLS_2005

> <r_lp_Energy>
25.8216

> <b_lp_Chiralities_Consistent>
1

> <s_lp_Variant>
AV-unprocessed.smi:1266-1

> <Gold.Version>
5.8.1

> <Gold.Id.Protein>
6NUR|6NUR_protein|mol2

> <Gold.PLP.Fitness>
44.1826

> <Gold.PLP.PLP>
-35.2799

> <Gold.PLP.part.hbond>
-4.0000

> <Gold.PLP.part.metal>
0.0000

> <Gold.PLP.part.buried>
-5.7382

> <Gold.PLP.part.nonpolar>
-25.6486

> <Gold.PLP.part.repulsive>
0.1183

> <Gold.PLP.ligand.clash>
0.0000

> <Gold.PLP.ligand.torsion>
0.7740

> <Gold.PLP.Chemscore.Hbond>
3.4700

> <Gold.PLP.Chemscore.CHOScore>
0.0000

> <Gold.PLP.Chemscore.Metal>
0.0000

> <Gold.Chemscore.Hbonds>
donor molecule, donor type, donor heavy atom, donor atom, acceptor molecule, acceptor atom, score
      P1  H  6931  6943       L1     8  0.96
      P1  H  6934  6947       L1     8  0.55
      P1  H  7997  8010       L1     1  0.99
      P1  H 10752 10763       L1    13  1.00

> <Gold.PLP.Chemscore.Internal.Correction>
0.0408

> <Gold.Rescore>
     Score         DG    S(hbond)    S(metal)    S(lipo)     H(rot)  DE(clash)    DE(int)     intcor
     20.90     -22.85       3.20        0.00      90.93       1.55       0.06       1.89       ----

> <Gold.Chemscore.Fitness>
20.8999

> <Gold.Chemscore.DG>
-22.8523

> <Gold.Chemscore.ZeroCoef>
-5.4800

> <Gold.Chemscore.Hbond>
3.2045

> <Gold.Chemscore.Metal>
0.0000

> <Gold.Chemscore.Lipo>
90.9255

> <Gold.Chemscore.Internal_Hbond>
0.0000

> <Gold.Chemscore.DEClash>
0.0624

> <Gold.Chemscore.DEInternal>
1.8900

> <Gold.Chemscore.Rot>
1.5505

> <Gold.Chemscore.Internal.Correction>
   9.000000E+99

> <Gold.Chemscore.Hbonds>
donor molecule, donor type, donor heavy atom, donor atom, acceptor molecule, acceptor atom, score
      P1  H  6931  6943       L1     8  0.91
      P1  H  6934  6947       L1     8  0.12
      P1  H  7997  8010       L1     1  0.63
      P1  H 10752 10763       L1    13  1.00

> <Gold.Chemscore.Hbond.Weighted>
-10.7031

> <Gold.Chemscore.Metal.Weighted>
-0.0000

> <Gold.Chemscore.Lipo.Weighted>
-10.6383

> <Gold.Chemscore.Internal_Hbond.Weighted>
0.0000

> <Gold.Chemscore.DEClash.Weighted>
0.0624

> <Gold.Chemscore.DEInternal.Weighted>
1.8900

> <Gold.Chemscore.Rot.Weighted>
3.9692

> <Gold.Chemscore.Internal.Correction.Weighted>
   9.000000E+99

> <Gold.Protein.RotatedTorsions>
[ 6907 6896 6895 6894 ] final -126.51 input  -60.11 | X-H torsion
[ 7974 7965 7964 7962 ] final  162.53 input  175.53 | X-H torsion
[ 8008 7997 7996 7995 ] final   73.45 input   59.86 | X-H torsion
[ 10167 10162 10161 10158 ] final -115.02 input  -65.29 | X-H torsion
[ 10718 10713 10712 10709 ] final -148.28 input   66.30 | X-H torsion
[ 10763 10752 10751 10750 ] final  121.19 input  -60.55 | X-H torsion
[ 11005 11000 10999 10996 ] final -162.26 input  -57.11 | X-H torsion

> <Gold.Protein.ActiveResidues>
 VAL166  LYS551  ARG553  GLY616  TRP617  ASP618  TYR619  PRO620  LYS621  CYS622 
 ASP623  PHE694  ASN695  SER759  ASP760  ASP761  ALA762  ILE779  LEU786  VAL792 
 PHE793  MET794  SER795  GLU796  ALA797  LYS798  CYS799  TRP800  GLU811  SER814 

> <Gold.Protein.RotatedAtoms>
  150.8976  133.7160  159.2887 H   0  0  0  0  0  0  0  0  0  0  0  0  # atno 6907 bound_to 6896
  151.4689  135.1043  159.9755 H   0  0  0  0  0  0  0  0  0  0  0  0  # atno 6908 bound_to 6896
  152.4858  133.8321  159.7164 H   0  0  0  0  0  0  0  0  0  0  0  0  # atno 6909 bound_to 6896
  144.7632  139.8053  143.6325 H   0  0  0  0  0  0  0  0  0  0  0  0  # atno 7974 bound_to 7965
  155.7839  140.3481  155.5312 H   0  0  0  0  0  0  0  0  0  0  0  0  # atno 8008 bound_to 7997
  155.8701  140.0985  157.1576 H   0  0  0  0  0  0  0  0  0  0  0  0  # atno 8009 bound_to 7997
  154.4017  140.1342  156.4055 H   0  0  0  0  0  0  0  0  0  0  0  0  # atno 8010 bound_to 7997
  140.0947  143.4668  152.1849 H   0  0  0  0  0  0  0  0  0  0  0  0  # atno 10167 bound_to 10162
  156.4183  130.8016  151.2237 H   0  0  0  0  0  0  0  0  0  0  0  0  # atno 10718 bound_to 10713
  153.6103  135.3432  155.2976 H   0  0  0  0  0  0  0  0  0  0  0  0  # atno 10763 bound_to 10752
  154.8620  135.4248  154.2317 H   0  0  0  0  0  0  0  0  0  0  0  0  # atno 10764 bound_to 10752
  153.3166  135.7035  153.7140 H   0  0  0  0  0  0  0  0  0  0  0  0  # atno 10765 bound_to 10752
  140.6112  134.4847  157.5215 H   0  0  0  0  0  0  0  0  0  0  0  0  # atno 11005 bound_to 11000
  146.1716  139.4869  142.9924 LP  0  0  0  0  0  0  0  0  0  0  0  0  # atno 17320 bound_to 7965
  145.6552  141.0254  143.1739 LP  0  0  0  0  0  0  0  0  0  0  0  0  # atno 17321 bound_to 7965
  139.5705  144.7460  151.3904 LP  0  0  0  0  0  0  0  0  0  0  0  0  # atno 17342 bound_to 10162
  140.7010  143.7632  150.7403 LP  0  0  0  0  0  0  0  0  0  0  0  0  # atno 17343 bound_to 10162
  157.7508  131.0236  150.3841 LP  0  0  0  0  0  0  0  0  0  0  0  0  # atno 17370 bound_to 10713
  156.4153  130.3942  149.6862 LP  0  0  0  0  0  0  0  0  0  0  0  0  # atno 17371 bound_to 10713
  139.9191  134.8185  156.1268 LP  0  0  0  0  0  0  0  0  0  0  0  0  # atno 17394 bound_to 11000
  141.0806  133.6756  156.2329 LP  0  0  0  0  0  0  0  0  0  0  0  0  # atno 17395 bound_to 11000

$$$$
