AV-unprocessed.smi:3082|AV-procd|sdf|11743|dock3
  -GOLD-   2272017133D 1   1.00000     0.00000
 Structure written by MMmdl.
 28 29  0  0  0  0  0  0  0  0  2 V2000
  153.7029  142.1753  162.2539 C   0  0  0  0  0  0  0  0  0  0  0  0
  152.7652  142.7167  161.2136 C   0  0  0  0  0  0  0  0  0  0  0  0
  152.0527  143.9489  161.2344 C   0  0  0  0  0  0  0  0  0  0  0  0
  151.3086  144.1295  160.1558 N   0  0  0  0  0  0  0  0  0  0  0  0
  151.5160  143.0223  159.4090 N   0  0  0  0  0  0  0  0  0  0  0  0
  150.8488  142.8663  158.1251 C   0  0  1  0  0  0  0  0  0  0  0  0
  151.4386  141.6925  157.3175 C   0  0  0  0  0  0  0  0  0  0  0  0
  150.6989  141.5412  155.9794 C   0  0  0  0  0  0  0  0  0  0  0  0
  149.1839  141.3986  156.2026 C   0  0  0  0  0  0  0  0  0  0  0  0
  148.6597  142.5397  156.9846 N   0  3  0  0  0  0  0  0  0  0  0  0
  149.3242  142.6939  158.2972 C   0  0  0  0  0  0  0  0  0  0  0  0
  152.3905  142.1529  160.0271 C   0  0  0  0  0  0  0  0  0  0  0  0
  153.7899  142.8447  163.1101 H   0  0  0  0  0  0  0  0  0  0  0  0
  154.7074  142.0336  161.8545 H   0  0  0  0  0  0  0  0  0  0  0  0
  153.3674  141.2102  162.6342 H   0  0  0  0  0  0  0  0  0  0  0  0
  152.0553  144.7139  161.9968 H   0  0  0  0  0  0  0  0  0  0  0  0
  151.0228  143.7846  157.5611 H   0  0  0  0  0  0  0  0  0  0  0  0
  152.5026  141.8525  157.1395 H   0  0  0  0  0  0  0  0  0  0  0  0
  151.3538  140.7628  157.8820 H   0  0  0  0  0  0  0  0  0  0  0  0
  150.8974  142.4101  155.3505 H   0  0  0  0  0  0  0  0  0  0  0  0
  151.0798  140.6744  155.4388 H   0  0  0  0  0  0  0  0  0  0  0  0
  148.6629  141.3536  155.2459 H   0  0  0  0  0  0  0  0  0  0  0  0
  148.9634  140.4698  156.7306 H   0  0  0  0  0  0  0  0  0  0  0  0
  148.8003  143.3861  156.4519 H   0  0  0  0  0  0  0  0  0  0  0  0
  149.0971  141.8194  158.9089 H   0  0  0  0  0  0  0  0  0  0  0  0
  148.8992  143.5584  158.8079 H   0  0  0  0  0  0  0  0  0  0  0  0
  152.6736  141.2129  159.5763 H   0  0  0  0  0  0  0  0  0  0  0  0
  147.6692  142.4083  157.1328 H   0  0  0  0  0  0  0  0  0  0  0  0
  1  2  1  0  0  0  0
  1 13  1  0  0  0  0
  1 14  1  0  0  0  0
  1 15  1  0  0  0  0
  2 12  2  0  0  0  0
  2  3  1  0  0  0  0
  3  4  2  0  0  0  0
  3 16  1  0  0  0  0
  4  5  1  0  0  0  0
  5  6  1  0  0  0  0
  5 12  1  0  0  0  0
  6 11  1  0  0  0  0
  6  7  1  0  0  0  0
  6 17  1  0  0  0  0
  7  8  1  0  0  0  0
  7 18  1  0  0  0  0
  7 19  1  0  0  0  0
  8  9  1  0  0  0  0
  8 20  1  0  0  0  0
  8 21  1  0  0  0  0
  9 10  1  0  0  0  0
  9 22  1  0  0  0  0
  9 23  1  0  0  0  0
 10 11  1  0  0  0  0
 10 24  1  0  0  0  0
 10 28  1  0  0  0  0
 11 25  1  0  0  0  0
 11 26  1  0  0  0  0
 12 27  1  0  0  0  0
M  CHG  1  10   1
M  END
> <s_m_source_file>
AV-unprocessed.smi

> <i_m_source_file_index>
3082

> <i_lp_mmshare_version>
43012

> <i_f3d_flags>
0

> <s_epik_input>
W0NIM11jMVtjSF1ubihbY0hdMSlbQ0BASF0yW0NIMl1bQ0gyXVtDSDJdW05IXVtDSDJdMg==

> <s_epik_cmdline>
J2VwaWtfcHl0aG9uJywgJy1waCcsICc3LjAnLCAnLXRuJywgJzgnLCAnLW1hJywgJzIwMCcsICctbWV0YWxfYmluZGluZycsICctaW1hZScsICc8aW5maWxlLm1hZT4nLCAnLW9tYWUnLCAnPG91dGZpbGUubWFlPic=

> <r_lp_tautomer_probability>
1

> <r_epik_Ionization_Penalty>
0.000667973

> <r_epik_Ionization_Penalty_Charging>
0.000651447

> <r_epik_Ionization_Penalty_Neutral>
1.65255e-05

> <r_epik_State_Penalty>
-0

> <r_epik_Charging_Adjusted_Penalty>
0.000651447

> <i_epik_Tot_Q>
1

> <i_epik_Tot_abs_Q>
1

> <r_epik_Metal_State_Penalty>
-0

> <b_epik_Metal_Only>
0

> <s_lp_Force_Field>
OPLS_2005

> <r_lp_Energy>
15.6496

> <b_lp_Chiralities_Consistent>
1

> <s_lp_Variant>
AV-unprocessed.smi:3082-2

> <Gold.Version>
5.8.1

> <Gold.Id.Protein>
6NUR|6NUR_protein|mol2

> <Gold.PLP.Fitness>
33.7291

> <Gold.PLP.PLP>
-28.0660

> <Gold.PLP.part.hbond>
-1.0000

> <Gold.PLP.part.metal>
0.0000

> <Gold.PLP.part.buried>
-3.1560

> <Gold.PLP.part.nonpolar>
-22.9571

> <Gold.PLP.part.repulsive>
0.0935

> <Gold.PLP.ligand.clash>
0.0000

> <Gold.PLP.ligand.torsion>
0.1774

> <Gold.PLP.Chemscore.Hbond>
2.0000

> <Gold.PLP.Chemscore.CHOScore>
0.0000

> <Gold.PLP.Chemscore.Metal>
0.0000

> <Gold.Chemscore.Hbonds>
donor molecule, donor type, donor heavy atom, donor atom, acceptor molecule, acceptor atom, score
      L1  H    10    24       P1  8028  2.00

> <Gold.PLP.Chemscore.Internal.Correction>
0.0179

> <Gold.Rescore>
     Score         DG    S(hbond)    S(metal)    S(lipo)     H(rot)  DE(clash)    DE(int)     intcor
     15.31     -15.35       1.00        0.00      77.77       1.00       0.02       0.01       ----

> <Gold.Chemscore.Fitness>
15.3137

> <Gold.Chemscore.DG>
-15.3471

> <Gold.Chemscore.ZeroCoef>
-5.4800

> <Gold.Chemscore.Hbond>
0.9965

> <Gold.Chemscore.Metal>
0.0000

> <Gold.Chemscore.Lipo>
77.7673

> <Gold.Chemscore.Internal_Hbond>
0.0000

> <Gold.Chemscore.DEClash>
0.0222

> <Gold.Chemscore.DEInternal>
0.0112

> <Gold.Chemscore.Rot>
1.0000

> <Gold.Chemscore.Internal.Correction>
   9.000000E+99

> <Gold.Chemscore.Hbonds>
donor molecule, donor type, donor heavy atom, donor atom, acceptor molecule, acceptor atom, score
      L1  H    10    24       P1  8028  0.86

> <Gold.Chemscore.Hbond.Weighted>
-3.3283

> <Gold.Chemscore.Metal.Weighted>
-0.0000

> <Gold.Chemscore.Lipo.Weighted>
-9.0988

> <Gold.Chemscore.Internal_Hbond.Weighted>
0.0000

> <Gold.Chemscore.DEClash.Weighted>
0.0222

> <Gold.Chemscore.DEInternal.Weighted>
0.0112

> <Gold.Chemscore.Rot.Weighted>
2.5600

> <Gold.Chemscore.Internal.Correction.Weighted>
   9.000000E+99

> <Gold.Protein.RotatedTorsions>
[ 6907 6896 6895 6894 ] final   23.56 input  -60.11 | X-H torsion
[ 7974 7965 7964 7962 ] final    3.67 input  175.53 | X-H torsion
[ 8008 7997 7996 7995 ] final   -6.60 input   59.86 | X-H torsion
[ 10167 10162 10161 10158 ] final  -86.99 input  -65.29 | X-H torsion
[ 10718 10713 10712 10709 ] final -164.88 input   66.30 | X-H torsion
[ 10763 10752 10751 10750 ] final  176.94 input  -60.55 | X-H torsion
[ 11005 11000 10999 10996 ] final  157.34 input  -57.11 | X-H torsion

> <Gold.Protein.ActiveResidues>
 VAL166  LYS551  ARG553  GLY616  TRP617  ASP618  TYR619  PRO620  LYS621  CYS622 
 ASP623  PHE694  ASN695  SER759  ASP760  ASP761  ALA762  ILE779  LEU786  VAL792 
 PHE793  MET794  SER795  GLU796  ALA797  LYS798  CYS799  TRP800  GLU811  SER814 

> <Gold.Protein.RotatedAtoms>
  151.9442  135.0199  160.0537 H   0  0  0  0  0  0  0  0  0  0  0  0  # atno 6907 bound_to 6896
  152.2010  133.4836  159.5067 H   0  0  0  0  0  0  0  0  0  0  0  0  # atno 6908 bound_to 6896
  150.6954  134.1508  159.4182 H   0  0  0  0  0  0  0  0  0  0  0  0  # atno 6909 bound_to 6896
  146.2445  140.0651  142.8366 H   0  0  0  0  0  0  0  0  0  0  0  0  # atno 7974 bound_to 7965
  154.5921  140.2428  155.7906 H   0  0  0  0  0  0  0  0  0  0  0  0  # atno 8008 bound_to 7997
  156.2254  140.2984  156.0009 H   0  0  0  0  0  0  0  0  0  0  0  0  # atno 8009 bound_to 7997
  155.2356  140.0405  157.2958 H   0  0  0  0  0  0  0  0  0  0  0  0  # atno 8010 bound_to 7997
  140.3888  143.2714  151.9291 H   0  0  0  0  0  0  0  0  0  0  0  0  # atno 10167 bound_to 10162
  156.6454  130.8986  151.3004 H   0  0  0  0  0  0  0  0  0  0  0  0  # atno 10718 bound_to 10713
  154.4878  135.2777  155.1520 H   0  0  0  0  0  0  0  0  0  0  0  0  # atno 10763 bound_to 10752
  154.3204  135.6211  153.5509 H   0  0  0  0  0  0  0  0  0  0  0  0  # atno 10764 bound_to 10752
  152.9884  135.5741  154.5293 H   0  0  0  0  0  0  0  0  0  0  0  0  # atno 10765 bound_to 10752
  140.1760  134.8509  157.2747 H   0  0  0  0  0  0  0  0  0  0  0  0  # atno 11005 bound_to 11000
  145.0866  140.9256  143.4794 LP  0  0  0  0  0  0  0  0  0  0  0  0  # atno 17320 bound_to 7965
  145.0815  139.2956  143.5781 LP  0  0  0  0  0  0  0  0  0  0  0  0  # atno 17321 bound_to 7965
  139.4790  144.5748  151.8030 LP  0  0  0  0  0  0  0  0  0  0  0  0  # atno 17342 bound_to 10162
  140.4861  144.1378  150.5941 LP  0  0  0  0  0  0  0  0  0  0  0  0  # atno 17343 bound_to 10162
  157.7158  130.9495  150.1249 LP  0  0  0  0  0  0  0  0  0  0  0  0  # atno 17370 bound_to 10713
  156.2126  130.3668  149.8652 LP  0  0  0  0  0  0  0  0  0  0  0  0  # atno 17371 bound_to 10713
  140.2322  134.3896  155.7517 LP  0  0  0  0  0  0  0  0  0  0  0  0  # atno 17394 bound_to 11000
  141.2220  133.7221  156.8658 LP  0  0  0  0  0  0  0  0  0  0  0  0  # atno 17395 bound_to 11000

$$$$
