AV-unprocessed.smi:2402|AV-procd|sdf|9508|dock5
  -GOLD-   2272013133D 1   1.00000     0.00000
 Structure written by MMmdl.
 38 39  0  0  0  0  0  0  0  0  1 V2000
  150.5306  141.2635  154.7215 C   0  0  0  0  0  0  0  0  0  0  0  0
  149.2390  141.0115  153.9723 C   0  0  0  0  0  0  0  0  0  0  0  0
  148.3916  142.0770  153.6125 C   0  0  0  0  0  0  0  0  0  0  0  0
  147.2042  141.7759  152.9168 C   0  0  0  0  0  0  0  0  0  0  0  0
  146.2431  142.8710  152.5043 C   0  0  0  0  0  0  0  0  0  0  0  0
  146.8466  140.5183  152.5794 N   0  0  0  0  0  0  0  0  0  0  0  0
  147.6560  139.4845  152.9189 C   0  0  0  0  0  0  0  0  0  0  0  0
  147.3720  138.1272  152.6113 N   0  0  0  0  0  0  0  0  0  0  0  0
  146.1821  137.5010  152.6353 C   0  0  0  0  0  0  0  0  0  0  0  0
  145.1073  138.0224  152.9344 O   0  0  0  0  0  0  0  0  0  0  0  0
  146.3033  136.2133  152.2816 N   0  0  0  0  0  0  0  0  0  0  0  0
  145.1952  135.2692  152.1869 C   0  0  1  0  0  0  0  0  0  0  0  0
  144.5929  135.2933  150.8086 C   0  0  0  0  0  0  0  0  0  0  0  0
  144.5324  134.0848  150.2536 C   0  0  0  0  0  0  0  0  0  0  0  0
  145.0873  133.0041  151.1439 C   0  0  1  0  0  0  0  0  0  0  0  0
  146.1387  132.1413  150.4270 C   0  0  0  0  0  0  0  0  0  0  0  0
  146.6308  131.1470  151.3002 O   0  0  0  0  0  0  0  0  0  0  0  0
  145.6409  133.7935  152.3590 C   0  0  0  0  0  0  0  0  0  0  0  0
  148.8636  139.6993  153.6206 C   0  0  0  0  0  0  0  0  0  0  0  0
  144.4148  135.5274  152.9045 H   0  0  0  0  0  0  0  0  0  0  0  0
  144.2481  132.3807  151.4557 H   0  0  0  0  0  0  0  0  0  0  0  0
  150.6253  142.3114  155.0081 H   0  0  0  0  0  0  0  0  0  0  0  0
  151.3854  141.0013  154.0978 H   0  0  0  0  0  0  0  0  0  0  0  0
  150.5667  140.6582  155.6275 H   0  0  0  0  0  0  0  0  0  0  0  0
  148.6441  143.0969  153.8639 H   0  0  0  0  0  0  0  0  0  0  0  0
  146.6308  143.8565  152.7631 H   0  0  0  0  0  0  0  0  0  0  0  0
  145.2837  142.7400  153.0055 H   0  0  0  0  0  0  0  0  0  0  0  0
  146.0752  142.8435  151.4273 H   0  0  0  0  0  0  0  0  0  0  0  0
  148.1663  137.5707  152.3328 H   0  0  0  0  0  0  0  0  0  0  0  0
  147.2224  135.8628  152.0545 H   0  0  0  0  0  0  0  0  0  0  0  0
  144.2387  136.2053  150.3507 H   0  0  0  0  0  0  0  0  0  0  0  0
  144.1225  133.8708  149.2776 H   0  0  0  0  0  0  0  0  0  0  0  0
  145.6992  131.6498  149.5583 H   0  0  0  0  0  0  0  0  0  0  0  0
  146.9678  132.7522  150.0682 H   0  0  0  0  0  0  0  0  0  0  0  0
  147.4806  130.8701  150.9933 H   0  0  0  0  0  0  0  0  0  0  0  0
  146.7294  133.7233  152.3912 H   0  0  0  0  0  0  0  0  0  0  0  0
  145.2749  133.3789  153.2988 H   0  0  0  0  0  0  0  0  0  0  0  0
  149.4992  138.8668  153.8866 H   0  0  0  0  0  0  0  0  0  0  0  0
  1  2  1  0  0  0  0
  1 22  1  0  0  0  0
  1 23  1  0  0  0  0
  1 24  1  0  0  0  0
  2 19  1  0  0  0  0
  2  3  2  0  0  0  0
  3  4  1  0  0  0  0
  3 25  1  0  0  0  0
  4  5  1  0  0  0  0
  4  6  2  0  0  0  0
  5 26  1  0  0  0  0
  5 27  1  0  0  0  0
  5 28  1  0  0  0  0
  6  7  1  0  0  0  0
  7  8  1  0  0  0  0
  7 19  2  0  0  0  0
  8  9  1  0  0  0  0
  8 29  1  0  0  0  0
  9 10  2  0  0  0  0
  9 11  1  0  0  0  0
 11 12  1  0  0  0  0
 11 30  1  0  0  0  0
 12 20  1  0  0  0  0
 12 18  1  0  0  0  0
 12 13  1  0  0  0  0
 13 14  2  0  0  0  0
 13 31  1  0  0  0  0
 14 15  1  0  0  0  0
 14 32  1  0  0  0  0
 15 21  1  0  0  0  0
 15 16  1  0  0  0  0
 15 18  1  0  0  0  0
 16 17  1  0  0  0  0
 16 33  1  0  0  0  0
 16 34  1  0  0  0  0
 17 35  1  0  0  0  0
 18 36  1  0  0  0  0
 18 37  1  0  0  0  0
 19 38  1  0  0  0  0
M  END
> <s_m_source_file>
AV-unprocessed.smi

> <i_m_source_file_index>
2402

> <i_lp_mmshare_version>
43012

> <i_f3d_flags>
0

> <s_epik_input>
W0NIM11jMVtjSF1jKFtDSDNdKW5jKFtjSF0xKVtOSF1DKD1PKVtOSF1bQ0BASF0yW0NIXT1bQ0hdW0NAQEhdKFtDSDJdMilbQ0gyXVtPSF0=

> <s_epik_cmdline>
J2VwaWtfcHl0aG9uJywgJy1waCcsICc3LjAnLCAnLXRuJywgJzgnLCAnLW1hJywgJzIwMCcsICctbWV0YWxfYmluZGluZycsICctaW1hZScsICc8aW5maWxlLm1hZT4nLCAnLW9tYWUnLCAnPG91dGZpbGUubWFlPic=

> <r_lp_tautomer_probability>
1

> <r_epik_Ionization_Penalty>
0.000257495

> <r_epik_Ionization_Penalty_Charging>
0

> <r_epik_Ionization_Penalty_Neutral>
0.000257495

> <r_epik_State_Penalty>
-0

> <r_epik_Charging_Adjusted_Penalty>
0

> <i_epik_Tot_Q>
0

> <i_epik_Tot_abs_Q>
0

> <r_epik_Metal_State_Penalty>
-0

> <b_epik_Metal_Only>
0

> <s_lp_Force_Field>
OPLS_2005

> <r_lp_Energy>
18.3393

> <b_lp_Chiralities_Consistent>
1

> <s_lp_Variant>
AV-unprocessed.smi:2402-4

> <Gold.Version>
5.8.1

> <Gold.Id.Protein>
6NUR|6NUR_protein|mol2

> <Gold.PLP.Fitness>
43.7541

> <Gold.PLP.PLP>
-36.1178

> <Gold.PLP.part.hbond>
-2.9446

> <Gold.PLP.part.metal>
0.0000

> <Gold.PLP.part.buried>
-2.5420

> <Gold.PLP.part.nonpolar>
-30.0595

> <Gold.PLP.part.repulsive>
0.4162

> <Gold.PLP.ligand.clash>
0.0000

> <Gold.PLP.ligand.torsion>
0.6527

> <Gold.PLP.Chemscore.Hbond>
2.9760

> <Gold.PLP.Chemscore.CHOScore>
0.0000

> <Gold.PLP.Chemscore.Metal>
0.0000

> <Gold.Chemscore.Hbonds>
donor molecule, donor type, donor heavy atom, donor atom, acceptor molecule, acceptor atom, score
      L1  H     8    29       P1  7948  1.00
      L1  H    11    30       P1  7948  0.96
      L1  H    17    35       P1 10747  1.00

> <Gold.PLP.Chemscore.Internal.Correction>
0.0137

> <Gold.Rescore>
     Score         DG    S(hbond)    S(metal)    S(lipo)     H(rot)  DE(clash)    DE(int)     intcor
     18.29     -19.73       2.92        0.00      77.43       1.78       0.07       1.36       ----

> <Gold.Chemscore.Fitness>
18.2937

> <Gold.Chemscore.DG>
-19.7283

> <Gold.Chemscore.ZeroCoef>
-5.4800

> <Gold.Chemscore.Hbond>
2.9214

> <Gold.Chemscore.Metal>
0.0000

> <Gold.Chemscore.Lipo>
77.4264

> <Gold.Chemscore.Internal_Hbond>
0.0000

> <Gold.Chemscore.DEClash>
0.0733

> <Gold.Chemscore.DEInternal>
1.3613

> <Gold.Chemscore.Rot>
1.7844

> <Gold.Chemscore.Internal.Correction>
   9.000000E+99

> <Gold.Chemscore.Hbonds>
donor molecule, donor type, donor heavy atom, donor atom, acceptor molecule, acceptor atom, score
      L1  H     8    29       P1  7948  0.98
      L1  H    11    30       P1  7948  0.92
      L1  H    17    35       P1 10747  1.00

> <Gold.Chemscore.Hbond.Weighted>
-9.7575

> <Gold.Chemscore.Metal.Weighted>
-0.0000

> <Gold.Chemscore.Lipo.Weighted>
-9.0589

> <Gold.Chemscore.Internal_Hbond.Weighted>
0.0000

> <Gold.Chemscore.DEClash.Weighted>
0.0733

> <Gold.Chemscore.DEInternal.Weighted>
1.3613

> <Gold.Chemscore.Rot.Weighted>
4.5681

> <Gold.Chemscore.Internal.Correction.Weighted>
   9.000000E+99

> <Gold.Protein.RotatedTorsions>
[ 6907 6896 6895 6894 ] final  -29.66 input  -60.11 | X-H torsion
[ 7974 7965 7964 7962 ] final    3.47 input  175.53 | X-H torsion
[ 8008 7997 7996 7995 ] final  -71.84 input   59.86 | X-H torsion
[ 10167 10162 10161 10158 ] final  -30.61 input  -65.29 | X-H torsion
[ 10718 10713 10712 10709 ] final  165.73 input   66.30 | X-H torsion
[ 10763 10752 10751 10750 ] final  118.59 input  -60.55 | X-H torsion
[ 11005 11000 10999 10996 ] final  116.70 input  -57.11 | X-H torsion

> <Gold.Protein.ActiveResidues>
 VAL166  LYS551  ARG553  GLY616  TRP617  ASP618  TYR619  PRO620  LYS621  CYS622 
 ASP623  PHE694  ASN695  SER759  ASP760  ASP761  ALA762  ILE779  LEU786  VAL792 
 PHE793  MET794  SER795  GLU796  ALA797  LYS798  CYS799  TRP800  GLU811  SER814 

> <Gold.Protein.RotatedAtoms>
  151.1161  135.0053  159.8516 H   0  0  0  0  0  0  0  0  0  0  0  0  # atno 6907 bound_to 6896
  152.5445  134.1778  159.8633 H   0  0  0  0  0  0  0  0  0  0  0  0  # atno 6908 bound_to 6896
  151.1832  133.4667  159.2627 H   0  0  0  0  0  0  0  0  0  0  0  0  # atno 6909 bound_to 6896
  146.2445  140.0681  142.8364 H   0  0  0  0  0  0  0  0  0  0  0  0  # atno 7974 bound_to 7965
  154.5119  140.0808  156.8006 H   0  0  0  0  0  0  0  0  0  0  0  0  # atno 8008 bound_to 7997
  155.3766  140.3425  155.4227 H   0  0  0  0  0  0  0  0  0  0  0  0  # atno 8009 bound_to 7997
  156.1583  140.1580  156.8643 H   0  0  0  0  0  0  0  0  0  0  0  0  # atno 8010 bound_to 7997
  140.7247  143.3835  151.1557 H   0  0  0  0  0  0  0  0  0  0  0  0  # atno 10167 bound_to 10162
  157.0759  131.0379  151.2594 H   0  0  0  0  0  0  0  0  0  0  0  0  # atno 10718 bound_to 10713
  153.5700  135.3504  155.2834 H   0  0  0  0  0  0  0  0  0  0  0  0  # atno 10763 bound_to 10752
  154.8683  135.4157  154.2735 H   0  0  0  0  0  0  0  0  0  0  0  0  # atno 10764 bound_to 10752
  153.3499  135.7054  153.6867 H   0  0  0  0  0  0  0  0  0  0  0  0  # atno 10765 bound_to 10752
  139.9050  134.9601  156.7238 H   0  0  0  0  0  0  0  0  0  0  0  0  # atno 11005 bound_to 11000
  145.0840  140.9240  143.4808 LP  0  0  0  0  0  0  0  0  0  0  0  0  # atno 17320 bound_to 7965
  145.0840  139.2939  143.5769 LP  0  0  0  0  0  0  0  0  0  0  0  0  # atno 17321 bound_to 7965
  139.7428  143.8898  152.3055 LP  0  0  0  0  0  0  0  0  0  0  0  0  # atno 17342 bound_to 10162
  139.8725  144.7061  150.8971 LP  0  0  0  0  0  0  0  0  0  0  0  0  # atno 17343 bound_to 10162
  157.4839  130.7782  149.7441 LP  0  0  0  0  0  0  0  0  0  0  0  0  # atno 17370 bound_to 10713
  155.9937  130.3923  150.2889 LP  0  0  0  0  0  0  0  0  0  0  0  0  # atno 17371 bound_to 10713
  140.6980  133.9332  155.8006 LP  0  0  0  0  0  0  0  0  0  0  0  0  # atno 17394 bound_to 11000
  141.0393  134.0644  157.3921 LP  0  0  0  0  0  0  0  0  0  0  0  0  # atno 17395 bound_to 11000

$$$$
