AV-unprocessed.smi:99|AV-procd|sdf|895|dock4
  -GOLD-   2262017393D 1   1.00000     0.00000
 Structure written by MMmdl.
 52 55  0  0  0  0  0  0  0  0  2 V2000
  147.9793  132.6238  159.1601 O   0  0  0  0  0  0  0  0  0  0  0  0
  147.7538  133.8336  159.2321 C   0  0  0  0  0  0  0  0  0  0  0  0
  147.6600  134.6400  158.1576 O   0  0  0  0  0  0  0  0  0  0  0  0
  147.7869  134.0997  156.8531 C   0  0  0  0  0  0  0  0  0  0  0  0
  149.1676  133.4334  156.7170 C   0  0  2  0  0  0  0  0  0  0  0  0
  150.1724  134.2952  157.2528 O   0  0  0  0  0  0  0  0  0  0  0  0
  150.8373  135.0055  156.2411 C   0  0  2  0  0  0  0  0  0  0  0  0
  150.7163  136.4951  156.4973 N   0  0  0  0  0  0  0  0  0  0  0  0
  150.0484  136.9910  157.6053 C   0  0  0  0  0  0  0  0  0  0  0  0
  149.9466  138.3175  157.8277 C   0  0  0  0  0  0  0  0  0  0  0  0
  150.5550  139.2520  156.8849 C   0  0  0  0  0  0  0  0  0  0  0  0
  150.4568  140.4593  157.0957 O   0  0  0  0  0  0  0  0  0  0  0  0
  151.2115  138.7387  155.8047 N   0  5  0  0  0  0  0  0  0  0  0  0
  151.3150  137.3968  155.5763 C   0  0  0  0  0  0  0  0  0  0  0  0
  151.9031  136.9209  154.6043 O   0  0  0  0  0  0  0  0  0  0  0  0
  150.2370  134.5656  154.8879 C   0  0  2  0  0  0  0  0  0  0  0  0
  149.2574  135.4652  154.3923 O   0  0  0  0  0  0  0  0  0  0  0  0
  149.6350  133.2232  155.2771 C   0  0  2  0  0  0  0  0  0  0  0  0
  148.6296  132.7466  154.3882 O   0  0  0  0  0  0  0  0  0  0  0  0
  148.4496  131.4237  154.1882 C   0  0  0  0  0  0  0  0  0  0  0  0
  149.0891  130.5497  154.7766 O   0  0  0  0  0  0  0  0  0  0  0  0
  147.3969  131.1311  153.1731 C   0  0  0  0  0  0  0  0  0  0  0  0
  146.8077  132.1997  152.4576 C   0  0  0  0  0  0  0  0  0  0  0  0
  145.8105  131.9541  151.4937 C   0  0  0  0  0  0  0  0  0  0  0  0
  145.3898  130.6366  151.2341 C   0  0  0  0  0  0  0  0  0  0  0  0
  145.9677  129.5651  151.9393 C   0  0  0  0  0  0  0  0  0  0  0  0
  146.9652  129.8086  152.9036 C   0  0  0  0  0  0  0  0  0  0  0  0
  147.5578  134.5589  160.5203 C   0  0  0  0  0  0  0  0  0  0  0  0
  147.5727  135.9733  160.5288 C   0  0  0  0  0  0  0  0  0  0  0  0
  147.3926  136.6856  161.7306 C   0  0  0  0  0  0  0  0  0  0  0  0
  147.1965  135.9920  162.9388 C   0  0  0  0  0  0  0  0  0  0  0  0
  147.1806  134.5851  162.9440 C   0  0  0  0  0  0  0  0  0  0  0  0
  147.3600  133.8708  161.7431 C   0  0  0  0  0  0  0  0  0  0  0  0
  146.9976  133.3624  156.7019 H   0  0  0  0  0  0  0  0  0  0  0  0
  147.6497  134.8825  156.1074 H   0  0  0  0  0  0  0  0  0  0  0  0
  149.1645  132.4833  157.2519 H   0  0  0  0  0  0  0  0  0  0  0  0
  151.9013  134.7787  156.3295 H   0  0  0  0  0  0  0  0  0  0  0  0
  149.5951  136.3198  158.3173 H   0  0  0  0  0  0  0  0  0  0  0  0
  149.4219  138.6863  158.6968 H   0  0  0  0  0  0  0  0  0  0  0  0
  151.0295  134.4624  154.1460 H   0  0  0  0  0  0  0  0  0  0  0  0
  149.5346  135.7726  153.5432 H   0  0  0  0  0  0  0  0  0  0  0  0
  150.4450  132.4928  155.3203 H   0  0  0  0  0  0  0  0  0  0  0  0
  147.1141  133.2196  152.6404 H   0  0  0  0  0  0  0  0  0  0  0  0
  145.3679  132.7780  150.9538 H   0  0  0  0  0  0  0  0  0  0  0  0
  144.6248  130.4482  150.4953 H   0  0  0  0  0  0  0  0  0  0  0  0
  145.6450  128.5533  151.7415 H   0  0  0  0  0  0  0  0  0  0  0  0
  147.3865  128.9629  153.4275 H   0  0  0  0  0  0  0  0  0  0  0  0
  147.7223  136.5278  159.6135 H   0  0  0  0  0  0  0  0  0  0  0  0
  147.4054  137.7656  161.7243 H   0  0  0  0  0  0  0  0  0  0  0  0
  147.0591  136.5383  163.8604 H   0  0  0  0  0  0  0  0  0  0  0  0
  147.0308  134.0516  163.8711 H   0  0  0  0  0  0  0  0  0  0  0  0
  147.3450  132.7915  161.7829 H   0  0  0  0  0  0  0  0  0  0  0  0
  1  2  2  0  0  0  0
  2  3  1  0  0  0  0
  2 28  1  0  0  0  0
  3  4  1  0  0  0  0
  4  5  1  0  0  0  0
  4 34  1  0  0  0  0
  4 35  1  0  0  0  0
  5 18  1  0  0  0  0
  5  6  1  0  0  0  0
  5 36  1  0  0  0  0
  6  7  1  0  0  0  0
  7  8  1  0  0  0  0
  7 16  1  0  0  0  0
  7 37  1  0  0  0  0
  8 14  1  0  0  0  0
  8  9  1  0  0  0  0
  9 10  2  0  0  0  0
  9 38  1  0  0  0  0
 10 11  1  0  0  0  0
 10 39  1  0  0  0  0
 11 12  2  0  0  0  0
 11 13  1  0  0  0  0
 13 14  1  0  0  0  0
 14 15  2  0  0  0  0
 16 17  1  0  0  0  0
 16 18  1  0  0  0  0
 16 40  1  0  0  0  0
 17 41  1  0  0  0  0
 18 19  1  0  0  0  0
 18 42  1  0  0  0  0
 19 20  1  0  0  0  0
 20 21  2  0  0  0  0
 20 22  1  0  0  0  0
 22 27  1  0  0  0  0
 22 23  2  0  0  0  0
 23 24  1  0  0  0  0
 23 43  1  0  0  0  0
 24 25  2  0  0  0  0
 24 44  1  0  0  0  0
 25 26  1  0  0  0  0
 25 45  1  0  0  0  0
 26 27  2  0  0  0  0
 26 46  1  0  0  0  0
 27 47  1  0  0  0  0
 28 33  1  0  0  0  0
 28 29  2  0  0  0  0
 29 30  1  0  0  0  0
 29 48  1  0  0  0  0
 30 31  2  0  0  0  0
 30 49  1  0  0  0  0
 31 32  1  0  0  0  0
 31 50  1  0  0  0  0
 32 33  2  0  0  0  0
 32 51  1  0  0  0  0
 33 52  1  0  0  0  0
M  CHG  1  13  -1
M  END
> <s_m_source_file>
AV-unprocessed.smi

> <i_m_source_file_index>
99

> <i_lp_mmshare_version>
43012

> <i_f3d_flags>
0

> <s_epik_input>
W2NIXTFbY0hdW2NIXVtjSF1bY0hdYzFDKD1PKU9bQ0gyXVtDQEBIXTJPW0NAQEhdKG4zW2NIXVtjSF1jKD1PKVtuSF1jMz1PKVtDQEBIXShbT0hdKVtDQEhdMk9DKD1PKWM0W2NIXVtjSF1bY0hdW2NIXVtjSF00

> <s_epik_cmdline>
J2VwaWtfcHl0aG9uJywgJy1waCcsICc3LjAnLCAnLXRuJywgJzgnLCAnLW1hJywgJzIwMCcsICctbWV0YWxfYmluZGluZycsICctaW1hZScsICc8aW5maWxlLm1hZT4nLCAnLW9tYWUnLCAnPG91dGZpbGUubWFlPic=

> <r_lp_tautomer_probability>
1

> <r_epik_Ionization_Penalty>
2.89159

> <r_epik_Ionization_Penalty_Charging>
2.1077e-08

> <r_epik_Ionization_Penalty_Neutral>
2.89159

> <r_epik_State_Penalty>
2.88671

> <r_epik_Charging_Adjusted_Penalty>
2.88671

> <i_epik_Tot_Q>
-1

> <i_epik_Tot_abs_Q>
1

> <r_epik_Metal_State_Penalty>
0.0727308

> <b_epik_Metal_Only>
1

> <s_epik_Chemistry_Notes>
This compound has an ester and may undergo hydrolysis at high or low pH. This compound contains an acetal/aminal-like group ( X-CH(R)-Y where X, Y are N, S, or O) that may be acid/base labile, releasing an aldehyde.

> <s_lp_Force_Field>
OPLS_2005

> <r_lp_Energy>
56.6396

> <b_lp_Chiralities_Consistent>
1

> <s_lp_Variant>
AV-unprocessed.smi:99-31

> <Gold.Version>
5.8.1

> <Gold.Id.Protein>
6NUR|6NUR_protein|mol2

> <Gold.PLP.Fitness>
55.3289

> <Gold.PLP.PLP>
-49.0080

> <Gold.PLP.part.hbond>
-3.0000

> <Gold.PLP.part.metal>
0.0000

> <Gold.PLP.part.buried>
-7.8574

> <Gold.PLP.part.nonpolar>
-40.0050

> <Gold.PLP.part.repulsive>
0.2362

> <Gold.PLP.ligand.clash>
0.0000

> <Gold.PLP.ligand.torsion>
0.6426

> <Gold.PLP.Chemscore.Hbond>
2.4754

> <Gold.PLP.Chemscore.CHOScore>
0.0000

> <Gold.PLP.Chemscore.Metal>
0.0000

> <Gold.Chemscore.Hbonds>
donor molecule, donor type, donor heavy atom, donor atom, acceptor molecule, acceptor atom, score
      L1  H    17    41       P1  7948  0.91
      P1  H  6896  6907       L1     6  0.47
      P1  H 10752 10763       L1    15  0.94

> <Gold.PLP.Chemscore.Internal.Correction>
0.1799

> <Gold.Rescore>
     Score         DG    S(hbond)    S(metal)    S(lipo)     H(rot)  DE(clash)    DE(int)     intcor
     14.84     -18.39       2.12        0.00     118.40       3.13       0.02       3.52       ----

> <Gold.Chemscore.Fitness>
14.8402

> <Gold.Chemscore.DG>
-18.3856

> <Gold.Chemscore.ZeroCoef>
-5.4800

> <Gold.Chemscore.Hbond>
2.1189

> <Gold.Chemscore.Metal>
0.0000

> <Gold.Chemscore.Lipo>
118.4032

> <Gold.Chemscore.Internal_Hbond>
0.0000

> <Gold.Chemscore.DEClash>
0.0231

> <Gold.Chemscore.DEInternal>
3.5222

> <Gold.Chemscore.Rot>
3.1346

> <Gold.Chemscore.Internal.Correction>
   9.000000E+99

> <Gold.Chemscore.Hbonds>
donor molecule, donor type, donor heavy atom, donor atom, acceptor molecule, acceptor atom, score
      L1  H    17    41       P1  7948  0.23
      P1  H  6896  6907       L1     6  0.41
      P1  H 10752 10763       L1    15  0.92

> <Gold.Chemscore.Hbond.Weighted>
-7.0770

> <Gold.Chemscore.Metal.Weighted>
-0.0000

> <Gold.Chemscore.Lipo.Weighted>
-13.8532

> <Gold.Chemscore.Internal_Hbond.Weighted>
0.0000

> <Gold.Chemscore.DEClash.Weighted>
0.0231

> <Gold.Chemscore.DEInternal.Weighted>
3.5222

> <Gold.Chemscore.Rot.Weighted>
8.0246

> <Gold.Chemscore.Internal.Correction.Weighted>
   9.000000E+99

> <Gold.Protein.RotatedTorsions>
[ 6907 6896 6895 6894 ] final -126.54 input  -60.11 | X-H torsion
[ 7974 7965 7964 7962 ] final  -36.76 input  175.53 | X-H torsion
[ 8008 7997 7996 7995 ] final -137.96 input   59.86 | X-H torsion
[ 10167 10162 10161 10158 ] final  169.81 input  -65.29 | X-H torsion
[ 10718 10713 10712 10709 ] final  134.22 input   66.30 | X-H torsion
[ 10763 10752 10751 10750 ] final   33.85 input  -60.55 | X-H torsion
[ 11005 11000 10999 10996 ] final   98.32 input  -57.11 | X-H torsion

> <Gold.Protein.ActiveResidues>
 VAL166  LYS551  ARG553  GLY616  TRP617  ASP618  TYR619  PRO620  LYS621  CYS622 
 ASP623  PHE694  ASN695  SER759  ASP760  ASP761  ALA762  ILE779  LEU786  VAL792 
 PHE793  MET794  SER795  GLU796  ALA797  LYS798  CYS799  TRP800  GLU811  SER814 

> <Gold.Protein.RotatedAtoms>
  150.8980  133.7155  159.2886 H   0  0  0  0  0  0  0  0  0  0  0  0  # atno 6907 bound_to 6896
  151.4683  135.1042  159.9754 H   0  0  0  0  0  0  0  0  0  0  0  0  # atno 6908 bound_to 6896
  152.4860  133.8326  159.7166 H   0  0  0  0  0  0  0  0  0  0  0  0  # atno 6909 bound_to 6896
  146.0633  140.6317  142.8986 H   0  0  0  0  0  0  0  0  0  0  0  0  # atno 7974 bound_to 7965
  155.4205  140.0518  157.3026 H   0  0  0  0  0  0  0  0  0  0  0  0  # atno 8008 bound_to 7997
  154.4905  140.2118  155.9519 H   0  0  0  0  0  0  0  0  0  0  0  0  # atno 8009 bound_to 7997
  156.1335  140.3167  155.8390 H   0  0  0  0  0  0  0  0  0  0  0  0  # atno 8010 bound_to 7997
  139.5002  144.3665  151.9770 H   0  0  0  0  0  0  0  0  0  0  0  0  # atno 10167 bound_to 10162
  157.4694  131.1079  150.9821 H   0  0  0  0  0  0  0  0  0  0  0  0  # atno 10718 bound_to 10713
  153.0192  135.6376  154.1576 H   0  0  0  0  0  0  0  0  0  0  0  0  # atno 10763 bound_to 10752
  154.1312  135.2840  155.3186 H   0  0  0  0  0  0  0  0  0  0  0  0  # atno 10764 bound_to 10752
  154.6193  135.5530  153.7619 H   0  0  0  0  0  0  0  0  0  0  0  0  # atno 10765 bound_to 10752
  139.8773  134.9043  156.4439 H   0  0  0  0  0  0  0  0  0  0  0  0  # atno 11005 bound_to 11000
  144.7188  140.4301  143.7024 LP  0  0  0  0  0  0  0  0  0  0  0  0  # atno 17320 bound_to 7965
  145.6521  139.1567  143.2856 LP  0  0  0  0  0  0  0  0  0  0  0  0  # atno 17321 bound_to 7965
  140.3101  144.3548  150.6036 LP  0  0  0  0  0  0  0  0  0  0  0  0  # atno 17342 bound_to 10162
  140.5805  143.2173  151.7436 LP  0  0  0  0  0  0  0  0  0  0  0  0  # atno 17343 bound_to 10162
  157.0591  130.5818  149.5383 LP  0  0  0  0  0  0  0  0  0  0  0  0  # atno 17370 bound_to 10713
  156.0066  130.5153  150.7850 LP  0  0  0  0  0  0  0  0  0  0  0  0  # atno 17371 bound_to 10713
  140.8980  133.7800  155.9647 LP  0  0  0  0  0  0  0  0  0  0  0  0  # atno 17394 bound_to 11000
  140.8682  134.2759  157.5203 LP  0  0  0  0  0  0  0  0  0  0  0  0  # atno 17395 bound_to 11000

$$$$
