AV-unprocessed.smi:1080|AV-procd|sdf|4707|dock1
  -GOLD-   22720 3233D 1   1.00000     0.00000
 Structure written by MMmdl.
 48 50  0  0  0  0  0  0  0  0  1 V2000
  150.2462  136.6070  154.4365 O   0  0  0  0  0  0  0  0  0  0  0  0
  149.7271  136.4668  155.5437 C   0  0  0  0  0  0  0  0  0  0  0  0
  149.3316  135.2965  156.0753 N   0  0  0  0  0  0  0  0  0  0  0  0
  149.4662  133.9840  155.5453 C   0  0  0  0  0  0  0  0  0  0  0  0
  149.2212  133.8051  154.1679 C   0  0  0  0  0  0  0  0  0  0  0  0
  149.3286  132.5109  153.6210 C   0  0  0  0  0  0  0  0  0  0  0  0
  149.6469  131.4211  154.3505 N   0  0  0  0  0  0  0  0  0  0  0  0
  149.8677  131.5915  155.6711 C   0  0  0  0  0  0  0  0  0  0  0  0
  149.7874  132.8414  156.3174 C   0  0  0  0  0  0  0  0  0  0  0  0
  149.4643  137.4851  156.3762 N   0  0  0  0  0  0  0  0  0  0  0  0
  149.7635  138.8938  156.1323 C   0  0  2  0  0  0  0  0  0  0  0  0
  151.2862  139.0842  156.0193 C   0  0  0  0  0  0  0  0  0  0  0  0
  151.6766  140.5712  155.8931 C   0  0  0  0  0  0  0  0  0  0  0  0
  151.0550  141.4912  156.9755 C   0  0  2  0  0  0  0  0  0  0  0  0
  151.7559  141.3975  158.3542 C   0  0  0  0  0  0  0  0  0  0  0  0
  151.7170  140.3297  158.9662 O   0  0  0  0  0  0  0  0  0  0  0  0
  152.4257  142.4710  158.8479 N   0  0  0  0  0  0  0  0  0  0  0  0
  152.3616  143.7936  158.2123 C   0  0  0  0  0  0  0  0  0  0  0  0
  151.3715  144.6748  158.9930 C   0  0  0  0  0  0  0  0  0  0  0  0
  151.9312  144.9317  160.7066 S   0  0  0  0  0  0  0  0  0  0  0  0
  152.2844  143.2088  161.1770 C   0  0  0  0  0  0  0  0  0  0  0  0
  153.1613  142.5215  160.1178 C   0  0  0  0  0  0  0  0  0  0  0  0
  149.5335  141.2383  157.0811 C   0  0  0  0  0  0  0  0  0  0  0  0
  149.1841  139.7523  157.2702 C   0  0  0  0  0  0  0  0  0  0  0  0
  148.8430  135.3555  156.9565 H   0  0  0  0  0  0  0  0  0  0  0  0
  148.9598  134.6418  153.5367 H   0  0  0  0  0  0  0  0  0  0  0  0
  149.1509  132.3466  152.5684 H   0  0  0  0  0  0  0  0  0  0  0  0
  150.1100  130.7020  156.2335 H   0  0  0  0  0  0  0  0  0  0  0  0
  149.9589  132.8930  157.3812 H   0  0  0  0  0  0  0  0  0  0  0  0
  149.0287  137.2681  157.2606 H   0  0  0  0  0  0  0  0  0  0  0  0
  149.3116  139.2235  155.1950 H   0  0  0  0  0  0  0  0  0  0  0  0
  151.7785  138.6366  156.8822 H   0  0  0  0  0  0  0  0  0  0  0  0
  151.6609  138.5397  155.1518 H   0  0  0  0  0  0  0  0  0  0  0  0
  152.7633  140.6651  155.8970 H   0  0  0  0  0  0  0  0  0  0  0  0
  151.3561  140.9276  154.9133 H   0  0  0  0  0  0  0  0  0  0  0  0
  151.2107  142.5003  156.5971 H   0  0  0  0  0  0  0  0  0  0  0  0
  153.3492  144.2568  158.2008 H   0  0  0  0  0  0  0  0  0  0  0  0
  152.0598  143.7380  157.1654 H   0  0  0  0  0  0  0  0  0  0  0  0
  151.2638  145.6464  158.5108 H   0  0  0  0  0  0  0  0  0  0  0  0
  150.3830  144.2139  159.0071 H   0  0  0  0  0  0  0  0  0  0  0  0
  152.7846  143.2065  162.1455 H   0  0  0  0  0  0  0  0  0  0  0  0
  151.3427  142.6729  161.3017 H   0  0  0  0  0  0  0  0  0  0  0  0
  153.4822  141.5404  160.4636 H   0  0  0  0  0  0  0  0  0  0  0  0
  154.0886  143.0811  159.9874 H   0  0  0  0  0  0  0  0  0  0  0  0
  149.1048  141.8160  157.9006 H   0  0  0  0  0  0  0  0  0  0  0  0
  149.0490  141.6050  156.1754 H   0  0  0  0  0  0  0  0  0  0  0  0
  148.1001  139.6364  157.3057 H   0  0  0  0  0  0  0  0  0  0  0  0
  149.5609  139.4033  158.2326 H   0  0  0  0  0  0  0  0  0  0  0  0
  1  2  2  0  0  0  0
  2  3  1  0  0  0  0
  2 10  1  0  0  0  0
  3  4  1  0  0  0  0
  3 25  1  0  0  0  0
  4  9  1  0  0  0  0
  4  5  2  0  0  0  0
  5  6  1  0  0  0  0
  5 26  1  0  0  0  0
  6  7  2  0  0  0  0
  6 27  1  0  0  0  0
  7  8  1  0  0  0  0
  8  9  2  0  0  0  0
  8 28  1  0  0  0  0
  9 29  1  0  0  0  0
 10 11  1  0  0  0  0
 10 30  1  0  0  0  0
 11 24  1  0  0  0  0
 11 12  1  0  0  0  0
 11 31  1  0  0  0  0
 12 13  1  0  0  0  0
 12 32  1  0  0  0  0
 12 33  1  0  0  0  0
 13 14  1  0  0  0  0
 13 34  1  0  0  0  0
 13 35  1  0  0  0  0
 14 15  1  0  0  0  0
 14 23  1  0  0  0  0
 14 36  1  0  0  0  0
 15 16  2  0  0  0  0
 15 17  1  0  0  0  0
 17 22  1  0  0  0  0
 17 18  1  0  0  0  0
 18 19  1  0  0  0  0
 18 37  1  0  0  0  0
 18 38  1  0  0  0  0
 19 20  1  0  0  0  0
 19 39  1  0  0  0  0
 19 40  1  0  0  0  0
 20 21  1  0  0  0  0
 21 22  1  0  0  0  0
 21 41  1  0  0  0  0
 21 42  1  0  0  0  0
 22 43  1  0  0  0  0
 22 44  1  0  0  0  0
 23 24  1  0  0  0  0
 23 45  1  0  0  0  0
 23 46  1  0  0  0  0
 24 47  1  0  0  0  0
 24 48  1  0  0  0  0
M  END
> <s_m_source_file>
AV-unprocessed.smi

> <i_m_source_file_index>
1080

> <i_lp_mmshare_version>
43012

> <i_f3d_flags>
0

> <s_epik_input>
W2NIXTFbY0hdbltjSF1bY0hdYzFbTkhdQyg9TylbTkhdW0NAQEhdMltDSDJdW0NIMl1bQ0BIXShbQ0gyXVtDSDJdMilDKD1PKU4zW0NIMl1bQ0gyXVNbQ0gyXVtDSDJdMw==

> <s_epik_cmdline>
J2VwaWtfcHl0aG9uJywgJy1waCcsICc3LjAnLCAnLXRuJywgJzgnLCAnLW1hJywgJzIwMCcsICctbWV0YWxfYmluZGluZycsICctaW1hZScsICc8aW5maWxlLm1hZT4nLCAnLW9tYWUnLCAnPG91dGZpbGUubWFlPic=

> <r_epik_Ionization_Penalty>
0.118325

> <r_epik_Ionization_Penalty_Charging>
0

> <r_epik_Ionization_Penalty_Neutral>
0.118325

> <r_epik_State_Penalty>
0.107868

> <r_epik_Charging_Adjusted_Penalty>
0.107868

> <i_epik_Tot_Q>
0

> <i_epik_Tot_abs_Q>
0

> <r_epik_Metal_State_Penalty>
0.0897632

> <b_epik_Metal_Only>
0

> <s_lp_Force_Field>
OPLS_2005

> <r_lp_Energy>
32.5604

> <b_lp_Chiralities_Consistent>
1

> <s_lp_Variant>
AV-unprocessed.smi:1080-2

> <Gold.Version>
5.8.1

> <Gold.Id.Protein>
6NUR|6NUR_protein|mol2

> <Gold.PLP.Fitness>
43.7790

> <Gold.PLP.PLP>
-42.6077

> <Gold.PLP.part.hbond>
0.0000

> <Gold.PLP.part.metal>
0.0000

> <Gold.PLP.part.buried>
-5.8558

> <Gold.PLP.part.nonpolar>
-38.0883

> <Gold.PLP.part.repulsive>
2.0414

> <Gold.PLP.ligand.clash>
0.0000

> <Gold.PLP.ligand.torsion>
0.3764

> <Gold.PLP.Chemscore.Hbond>
0.0000

> <Gold.PLP.Chemscore.CHOScore>
0.6172

> <Gold.PLP.Chemscore.Metal>
0.0000

> <Gold.Chemscore.Hbonds>
donor molecule, donor type, donor heavy atom, donor atom, acceptor molecule, acceptor atom, score
      L1  C     6    27       P1 10747  0.55

> <Gold.PLP.Chemscore.Internal.Correction>
0.0724

> <Gold.Rescore>
     Score         DG    S(hbond)    S(metal)    S(lipo)     H(rot)  DE(clash)    DE(int)     intcor
     14.96     -15.30       0.00        0.00     110.90       1.23       0.00       0.34       ----

> <Gold.Chemscore.Fitness>
14.9576

> <Gold.Chemscore.DG>
-15.2954

> <Gold.Chemscore.ZeroCoef>
-5.4800

> <Gold.Chemscore.Hbond>
0.0000

> <Gold.Chemscore.Metal>
0.0000

> <Gold.Chemscore.Lipo>
110.9008

> <Gold.Chemscore.Internal_Hbond>
0.0000

> <Gold.Chemscore.DEClash>
0.0015

> <Gold.Chemscore.DEInternal>
0.3363

> <Gold.Chemscore.Rot>
1.2344

> <Gold.Chemscore.Internal.Correction>
   9.000000E+99

> <Gold.Chemscore.Hbond.Weighted>
-0.0000

> <Gold.Chemscore.Metal.Weighted>
-0.0000

> <Gold.Chemscore.Lipo.Weighted>
-12.9754

> <Gold.Chemscore.Internal_Hbond.Weighted>
0.0000

> <Gold.Chemscore.DEClash.Weighted>
0.0015

> <Gold.Chemscore.DEInternal.Weighted>
0.3363

> <Gold.Chemscore.Rot.Weighted>
3.1600

> <Gold.Chemscore.Internal.Correction.Weighted>
   9.000000E+99

> <Gold.Protein.RotatedTorsions>
[ 6907 6896 6895 6894 ] final -159.50 input  -60.11 | X-H torsion
[ 7974 7965 7964 7962 ] final  -24.10 input  175.53 | X-H torsion
[ 8008 7997 7996 7995 ] final   92.59 input   59.86 | X-H torsion
[ 10167 10162 10161 10158 ] final  179.39 input  -65.29 | X-H torsion
[ 10718 10713 10712 10709 ] final   97.09 input   66.30 | X-H torsion
[ 10763 10752 10751 10750 ] final  -14.60 input  -60.55 | X-H torsion
[ 11005 11000 10999 10996 ] final -140.37 input  -57.11 | X-H torsion

> <Gold.Protein.ActiveResidues>
 VAL166  LYS551  ARG553  GLY616  TRP617  ASP618  TYR619  PRO620  LYS621  CYS622 
 ASP623  PHE694  ASN695  SER759  ASP760  ASP761  ALA762  ILE779  LEU786  VAL792 
 PHE793  MET794  SER795  GLU796  ALA797  LYS798  CYS799  TRP800  GLU811  SER814 

> <Gold.Protein.RotatedAtoms>
  151.3345  133.3987  159.2665 H   0  0  0  0  0  0  0  0  0  0  0  0  # atno 6907 bound_to 6896
  150.9928  134.9259  159.7919 H   0  0  0  0  0  0  0  0  0  0  0  0  # atno 6908 bound_to 6896
  152.5252  134.3310  159.9235 H   0  0  0  0  0  0  0  0  0  0  0  0  # atno 6909 bound_to 6896
  146.1576  140.4705  142.8585 H   0  0  0  0  0  0  0  0  0  0  0  0  # atno 7974 bound_to 7965
  156.0370  140.3323  155.7202 H   0  0  0  0  0  0  0  0  0  0  0  0  # atno 8008 bound_to 7997
  155.5800  140.0636  157.2803 H   0  0  0  0  0  0  0  0  0  0  0  0  # atno 8009 bound_to 7997
  154.4377  140.1845  156.0955 H   0  0  0  0  0  0  0  0  0  0  0  0  # atno 8010 bound_to 7997
  139.5334  144.2566  152.0741 H   0  0  0  0  0  0  0  0  0  0  0  0  # atno 10167 bound_to 10162
  157.6917  131.0599  150.4591 H   0  0  0  0  0  0  0  0  0  0  0  0  # atno 10718 bound_to 10713
  153.5307  135.7014  153.5685 H   0  0  0  0  0  0  0  0  0  0  0  0  # atno 10763 bound_to 10752
  153.3693  135.3949  155.1777 H   0  0  0  0  0  0  0  0  0  0  0  0  # atno 10764 bound_to 10752
  154.8685  135.3808  154.4804 H   0  0  0  0  0  0  0  0  0  0  0  0  # atno 10765 bound_to 10752
  140.8429  134.2380  157.4801 H   0  0  0  0  0  0  0  0  0  0  0  0  # atno 11005 bound_to 11000
  144.7983  140.6166  143.6495 LP  0  0  0  0  0  0  0  0  0  0  0  0  # atno 17320 bound_to 7965
  145.4670  139.1507  143.3835 LP  0  0  0  0  0  0  0  0  0  0  0  0  # atno 17321 bound_to 7965
  140.2033  144.4636  150.6421 LP  0  0  0  0  0  0  0  0  0  0  0  0  # atno 17342 bound_to 10162
  140.6527  143.2229  151.6040 LP  0  0  0  0  0  0  0  0  0  0  0  0  # atno 17343 bound_to 10162
  156.4937  130.4101  149.6392 LP  0  0  0  0  0  0  0  0  0  0  0  0  # atno 17370 bound_to 10713
  156.3393  130.7373  151.2316 LP  0  0  0  0  0  0  0  0  0  0  0  0  # atno 17371 bound_to 10713
  139.8703  134.9645  156.4496 LP  0  0  0  0  0  0  0  0  0  0  0  0  # atno 17394 bound_to 11000
  140.8875  133.7872  155.9535 LP  0  0  0  0  0  0  0  0  0  0  0  0  # atno 17395 bound_to 11000

$$$$
