AV-unprocessed.smi:1362|AV-procd|sdf|5558|dock8
  -GOLD-   22720 5153D 1   1.00000     0.00000
 Structure written by MMmdl.
 39 39  0  0  0  0  0  0  0  0  1 V2000
  152.2026  141.1970  159.0159 C   0  0  0  0  0  0  0  0  0  0  0  0
  151.8836  140.2195  157.9046 C   0  0  0  0  0  0  0  0  0  0  0  0
  152.7596  139.7682  157.0683 N   0  0  0  0  0  0  0  0  0  0  0  0
  152.3437  138.8668  156.0784 C   0  0  0  0  0  0  0  0  0  0  0  0
  153.4296  138.3848  155.1315 C   0  0  0  0  0  0  0  0  0  0  0  0
  151.0444  138.4583  155.9824 C   0  0  0  0  0  0  0  0  0  0  0  0
  150.5616  137.4804  154.9120 C   0  0  0  0  0  0  0  0  0  0  0  0
  150.1094  136.1079  155.4166 C   0  0  0  0  0  0  0  0  0  0  0  0
  150.1331  135.8463  156.6195 O   0  0  0  0  0  0  0  0  0  0  0  0
  149.6879  135.2448  154.4799 N   0  0  0  0  0  0  0  0  0  0  0  0
  149.1527  133.9074  154.7308 C   0  0  2  0  0  0  0  0  0  0  0  0
  150.0986  133.1639  155.6927 C   0  0  0  0  0  0  0  0  0  0  0  0
  148.9315  133.1634  153.3871 C   0  0  0  0  0  0  0  0  0  0  0  0
  147.7351  133.7300  152.5966 C   0  0  0  0  0  0  0  0  0  0  0  0
  148.7475  131.6469  153.5775 C   0  0  0  0  0  0  0  0  0  0  0  0
  150.0529  138.9795  156.9432 C   0  0  0  0  0  0  0  0  0  0  0  0
  148.8592  138.6824  156.9456 O   0  0  0  0  0  0  0  0  0  0  0  0
  150.5425  139.8421  157.8617 N   0  0  0  0  0  0  0  0  0  0  0  0
  149.9028  140.2277  158.5411 H   0  0  0  0  0  0  0  0  0  0  0  0
  152.5866  142.1277  158.5972 H   0  0  0  0  0  0  0  0  0  0  0  0
  152.9618  140.7788  159.6772 H   0  0  0  0  0  0  0  0  0  0  0  0
  151.3199  141.4301  159.6133 H   0  0  0  0  0  0  0  0  0  0  0  0
  153.5728  137.3089  155.2304 H   0  0  0  0  0  0  0  0  0  0  0  0
  154.3835  138.8695  155.3427 H   0  0  0  0  0  0  0  0  0  0  0  0
  153.1675  138.6076  154.0970 H   0  0  0  0  0  0  0  0  0  0  0  0
  149.7334  137.9443  154.3751 H   0  0  0  0  0  0  0  0  0  0  0  0
  151.3309  137.3267  154.1546 H   0  0  0  0  0  0  0  0  0  0  0  0
  149.7108  135.5483  153.5171 H   0  0  0  0  0  0  0  0  0  0  0  0
  148.1812  134.0060  155.2191 H   0  0  0  0  0  0  0  0  0  0  0  0
  149.6815  132.2094  156.0121 H   0  0  0  0  0  0  0  0  0  0  0  0
  150.2771  133.7455  156.5976 H   0  0  0  0  0  0  0  0  0  0  0  0
  151.0659  132.9700  155.2281 H   0  0  0  0  0  0  0  0  0  0  0  0
  149.8207  133.3071  152.7712 H   0  0  0  0  0  0  0  0  0  0  0  0
  146.8122  133.6604  153.1732 H   0  0  0  0  0  0  0  0  0  0  0  0
  147.5857  133.1824  151.6655 H   0  0  0  0  0  0  0  0  0  0  0  0
  147.8809  134.7763  152.3276 H   0  0  0  0  0  0  0  0  0  0  0  0
  147.9108  131.4291  154.2420 H   0  0  0  0  0  0  0  0  0  0  0  0
  149.6387  131.1787  153.9943 H   0  0  0  0  0  0  0  0  0  0  0  0
  148.5505  131.1534  152.6255 H   0  0  0  0  0  0  0  0  0  0  0  0
  1  2  1  0  0  0  0
  1 20  1  0  0  0  0
  1 21  1  0  0  0  0
  1 22  1  0  0  0  0
  2 18  1  0  0  0  0
  2  3  2  0  0  0  0
  3  4  1  0  0  0  0
  4  5  1  0  0  0  0
  4  6  2  0  0  0  0
  5 23  1  0  0  0  0
  5 24  1  0  0  0  0
  5 25  1  0  0  0  0
  6  7  1  0  0  0  0
  6 16  1  0  0  0  0
  7  8  1  0  0  0  0
  7 26  1  0  0  0  0
  7 27  1  0  0  0  0
  8  9  2  0  0  0  0
  8 10  1  0  0  0  0
 10 11  1  0  0  0  0
 10 28  1  0  0  0  0
 11 12  1  0  0  0  0
 11 13  1  0  0  0  0
 11 29  1  0  0  0  0
 12 30  1  0  0  0  0
 12 31  1  0  0  0  0
 12 32  1  0  0  0  0
 13 14  1  0  0  0  0
 13 15  1  0  0  0  0
 13 33  1  0  0  0  0
 14 34  1  0  0  0  0
 14 35  1  0  0  0  0
 14 36  1  0  0  0  0
 15 37  1  0  0  0  0
 15 38  1  0  0  0  0
 15 39  1  0  0  0  0
 16 17  2  0  0  0  0
 16 18  1  0  0  0  0
 18 19  1  0  0  0  0
M  END
> <s_m_source_file>
AV-unprocessed.smi

> <i_m_source_file_index>
1362

> <i_lp_mmshare_version>
43012

> <i_f3d_flags>
0

> <s_epik_input>
W0NIM11jMW5jKFtDSDNdKWMoYyg9TylbbkhdMSlbQ0gyXUMoPU8pW05IXVtDQEhdKFtDSDNdKVtDSF0oW0NIM10pW0NIM10=

> <s_epik_cmdline>
J2VwaWtfcHl0aG9uJywgJy1waCcsICc3LjAnLCAnLXRuJywgJzgnLCAnLW1hJywgJzIwMCcsICctbWV0YWxfYmluZGluZycsICctaW1hZScsICc8aW5maWxlLm1hZT4nLCAnLW9tYWUnLCAnPG91dGZpbGUubWFlPic=

> <r_lp_tautomer_probability>
0.839158

> <r_epik_Ionization_Penalty>
0.000388977

> <r_epik_Ionization_Penalty_Charging>
0.000356458

> <r_epik_Ionization_Penalty_Neutral>
3.25191e-05

> <r_epik_State_Penalty>
0.0469868

> <r_epik_Charging_Adjusted_Penalty>
0.0473433

> <i_epik_Tot_Q>
0

> <i_epik_Tot_abs_Q>
0

> <r_epik_Metal_State_Penalty>
0.223288

> <b_epik_Metal_Only>
0

> <s_lp_Force_Field>
OPLS_2005

> <r_lp_Energy>
7.29912

> <b_lp_Chiralities_Consistent>
1

> <s_lp_Variant>
AV-unprocessed.smi:1362-1

> <Gold.Version>
5.8.1

> <Gold.Id.Protein>
6NUR|6NUR_protein|mol2

> <Gold.PLP.Fitness>
33.7525

> <Gold.PLP.PLP>
-28.4326

> <Gold.PLP.part.hbond>
-2.0000

> <Gold.PLP.part.metal>
0.0000

> <Gold.PLP.part.buried>
-1.8816

> <Gold.PLP.part.nonpolar>
-23.6889

> <Gold.PLP.part.repulsive>
0.1463

> <Gold.PLP.ligand.clash>
0.0000

> <Gold.PLP.ligand.torsion>
0.3585

> <Gold.PLP.Chemscore.Hbond>
2.0000

> <Gold.PLP.Chemscore.CHOScore>
0.0000

> <Gold.PLP.Chemscore.Metal>
0.0000

> <Gold.Chemscore.Hbonds>
donor molecule, donor type, donor heavy atom, donor atom, acceptor molecule, acceptor atom, score
      L1  H    10    28       P1  7948  0.65
      P1  H  7997  8008       L1     3  0.95

> <Gold.PLP.Chemscore.Internal.Correction>
0.0369

> <Gold.Rescore>
     Score         DG    S(hbond)    S(metal)    S(lipo)     H(rot)  DE(clash)    DE(int)     intcor
     12.91     -14.41       1.90        0.00      59.12       1.69       0.18       1.32       ----

> <Gold.Chemscore.Fitness>
12.9060

> <Gold.Chemscore.DG>
-14.4052

> <Gold.Chemscore.ZeroCoef>
-5.4800

> <Gold.Chemscore.Hbond>
1.8978

> <Gold.Chemscore.Metal>
0.0000

> <Gold.Chemscore.Lipo>
59.1189

> <Gold.Chemscore.Internal_Hbond>
0.0000

> <Gold.Chemscore.DEClash>
0.1798

> <Gold.Chemscore.DEInternal>
1.3194

> <Gold.Chemscore.Rot>
1.6916

> <Gold.Chemscore.Internal.Correction>
   9.000000E+99

> <Gold.Chemscore.Hbonds>
donor molecule, donor type, donor heavy atom, donor atom, acceptor molecule, acceptor atom, score
      L1  H    10    28       P1  7948  0.06
      P1  H  7997  8008       L1     3  0.21

> <Gold.Chemscore.Hbond.Weighted>
-6.3388

> <Gold.Chemscore.Metal.Weighted>
-0.0000

> <Gold.Chemscore.Lipo.Weighted>
-6.9169

> <Gold.Chemscore.Internal_Hbond.Weighted>
0.0000

> <Gold.Chemscore.DEClash.Weighted>
0.1798

> <Gold.Chemscore.DEInternal.Weighted>
1.3194

> <Gold.Chemscore.Rot.Weighted>
4.3305

> <Gold.Chemscore.Internal.Correction.Weighted>
   9.000000E+99

> <Gold.Protein.RotatedTorsions>
[ 6907 6896 6895 6894 ] final  111.27 input  -60.11 | X-H torsion
[ 7974 7965 7964 7962 ] final   39.61 input  175.53 | X-H torsion
[ 8008 7997 7996 7995 ] final  -48.01 input   59.86 | X-H torsion
[ 10167 10162 10161 10158 ] final -141.95 input  -65.29 | X-H torsion
[ 10718 10713 10712 10709 ] final  176.92 input   66.30 | X-H torsion
[ 10763 10752 10751 10750 ] final  -15.23 input  -60.55 | X-H torsion
[ 11005 11000 10999 10996 ] final  -63.78 input  -57.11 | X-H torsion

> <Gold.Protein.ActiveResidues>
 VAL166  LYS551  ARG553  GLY616  TRP617  ASP618  TYR619  PRO620  LYS621  CYS622 
 ASP623  PHE694  ASN695  SER759  ASP760  ASP761  ALA762  ILE779  LEU786  VAL792 
 PHE793  MET794  SER795  GLU796  ALA797  LYS798  CYS799  TRP800  GLU811  SER814 

> <Gold.Protein.RotatedAtoms>
  152.4978  133.8682  159.7284 H   0  0  0  0  0  0  0  0  0  0  0  0  # atno 6907 bound_to 6896
  150.9176  133.6911  159.2846 H   0  0  0  0  0  0  0  0  0  0  0  0  # atno 6908 bound_to 6896
  151.4300  135.1013  159.9692 H   0  0  0  0  0  0  0  0  0  0  0  0  # atno 6909 bound_to 6896
  146.0970  139.5631  142.9438 H   0  0  0  0  0  0  0  0  0  0  0  0  # atno 7974 bound_to 7965
  154.4023  140.1332  156.4268 H   0  0  0  0  0  0  0  0  0  0  0  0  # atno 8008 bound_to 7997
  155.7589  140.3486  155.5168 H   0  0  0  0  0  0  0  0  0  0  0  0  # atno 8009 bound_to 7997
  155.8878  140.0998  157.1430 H   0  0  0  0  0  0  0  0  0  0  0  0  # atno 8010 bound_to 7997
  139.8135  143.7670  152.2664 H   0  0  0  0  0  0  0  0  0  0  0  0  # atno 10167 bound_to 10162
  156.9131  130.9916  151.3017 H   0  0  0  0  0  0  0  0  0  0  0  0  # atno 10718 bound_to 10713
  153.5401  135.7013  153.5641 H   0  0  0  0  0  0  0  0  0  0  0  0  # atno 10763 bound_to 10752
  153.3610  135.3970  155.1718 H   0  0  0  0  0  0  0  0  0  0  0  0  # atno 10764 bound_to 10752
  154.8674  135.3788  154.4905 H   0  0  0  0  0  0  0  0  0  0  0  0  # atno 10765 bound_to 10752
  141.1404  133.6656  156.5732 H   0  0  0  0  0  0  0  0  0  0  0  0  # atno 11005 bound_to 11000
  145.5928  141.0367  143.2061 LP  0  0  0  0  0  0  0  0  0  0  0  0  # atno 17320 bound_to 7965
  144.7403  139.7467  143.7313 LP  0  0  0  0  0  0  0  0  0  0  0  0  # atno 17321 bound_to 7965
  139.7826  144.7439  151.0066 LP  0  0  0  0  0  0  0  0  0  0  0  0  # atno 17342 bound_to 10162
  140.7817  143.4526  151.0392 LP  0  0  0  0  0  0  0  0  0  0  0  0  # atno 17343 bound_to 10162
  157.5955  130.8474  149.8723 LP  0  0  0  0  0  0  0  0  0  0  0  0  # atno 17370 bound_to 10713
  156.0526  130.3714  150.1164 LP  0  0  0  0  0  0  0  0  0  0  0  0  # atno 17371 bound_to 10713
  140.3896  134.7452  157.4713 LP  0  0  0  0  0  0  0  0  0  0  0  0  # atno 17394 bound_to 11000
  140.0576  134.6041  155.8787 LP  0  0  0  0  0  0  0  0  0  0  0  0  # atno 17395 bound_to 11000

$$$$
