AV-unprocessed.smi:2526|AV-procd|sdf|9936|dock9
  -GOLD-   2272013583D 1   1.00000     0.00000
 Structure written by MMmdl.
 29 30  0  0  0  0  0  0  0  0  2 V2000
  141.7003  138.0523  154.1006 C   0  0  0  0  0  0  0  0  0  0  0  0
  142.3548  136.9646  153.4056 N   0  0  0  0  0  0  0  0  0  0  0  0
  143.2309  137.0247  152.3443 C   0  0  0  0  0  0  0  0  0  0  0  0
  143.5808  135.7412  152.0212 C   0  0  0  0  0  0  0  0  0  0  0  0
  144.5040  135.2354  150.9305 C   0  0  2  0  0  0  0  0  0  0  0  0
  143.8543  134.1828  150.1451 N   0  0  0  0  0  0  0  0  0  0  0  0
  144.0099  132.8544  150.2994 C   0  0  0  0  0  0  0  0  0  0  0  0
  143.3282  132.0529  149.6659 O   0  0  0  0  0  0  0  0  0  0  0  0
  145.0996  132.3301  151.2502 C   0  0  0  0  0  0  0  0  0  0  0  0
  145.6815  133.3932  152.1998 C   0  0  0  0  0  0  0  0  0  0  0  0
  145.8622  134.7374  151.4820 C   0  0  2  0  0  0  0  0  0  0  0  0
  146.5240  135.7341  152.3446 N   0  3  0  0  0  0  0  0  0  0  0  0
  142.8609  134.9626  152.9737 C   0  0  0  0  0  0  0  0  0  0  0  0
  142.1248  135.6941  153.7926 N   0  0  0  0  0  0  0  0  0  0  0  0
  141.9757  139.0052  153.6480 H   0  0  0  0  0  0  0  0  0  0  0  0
  142.0035  138.0570  155.1480 H   0  0  0  0  0  0  0  0  0  0  0  0
  140.6182  137.9317  154.0405 H   0  0  0  0  0  0  0  0  0  0  0  0
  143.5258  137.9671  151.9058 H   0  0  0  0  0  0  0  0  0  0  0  0
  144.7082  136.0482  150.2322 H   0  0  0  0  0  0  0  0  0  0  0  0
  143.1610  134.4880  149.4766 H   0  0  0  0  0  0  0  0  0  0  0  0
  144.7094  131.4895  151.8247 H   0  0  0  0  0  0  0  0  0  0  0  0
  145.9008  131.9312  150.6272 H   0  0  0  0  0  0  0  0  0  0  0  0
  145.0288  133.5100  153.0661 H   0  0  0  0  0  0  0  0  0  0  0  0
  146.6391  133.0436  152.5868 H   0  0  0  0  0  0  0  0  0  0  0  0
  146.5341  134.5751  150.6377 H   0  0  0  0  0  0  0  0  0  0  0  0
  146.7604  135.3072  153.2291 H   0  0  0  0  0  0  0  0  0  0  0  0
  145.9000  136.5124  152.5029 H   0  0  0  0  0  0  0  0  0  0  0  0
  142.8471  133.8887  153.0881 H   0  0  0  0  0  0  0  0  0  0  0  0
  147.3660  136.0642  151.8947 H   0  0  0  0  0  0  0  0  0  0  0  0
  1  2  1  0  0  0  0
  1 15  1  0  0  0  0
  1 16  1  0  0  0  0
  1 17  1  0  0  0  0
  2 14  1  0  0  0  0
  2  3  1  0  0  0  0
  3  4  2  0  0  0  0
  3 18  1  0  0  0  0
  4  5  1  0  0  0  0
  4 13  1  0  0  0  0
  5 11  1  0  0  0  0
  5  6  1  0  0  0  0
  5 19  1  0  0  0  0
  6  7  1  0  0  0  0
  6 20  1  0  0  0  0
  7  8  2  0  0  0  0
  7  9  1  0  0  0  0
  9 10  1  0  0  0  0
  9 21  1  0  0  0  0
  9 22  1  0  0  0  0
 10 11  1  0  0  0  0
 10 23  1  0  0  0  0
 10 24  1  0  0  0  0
 11 12  1  0  0  0  0
 11 25  1  0  0  0  0
 12 26  1  0  0  0  0
 12 27  1  0  0  0  0
 12 29  1  0  0  0  0
 13 14  2  0  0  0  0
 13 28  1  0  0  0  0
M  CHG  1  12   1
M  END
> <s_m_source_file>
AV-unprocessed.smi

> <i_m_source_file_index>
2526

> <i_lp_mmshare_version>
43012

> <i_f3d_flags>
0

> <s_epik_input>
W0NIM11uMVtjSF1jKFtjSF1uMSlbQ0BASF0yW05IXUMoPU8pW0NIMl1bQ0gyXVtDQEhdMltOSDJd

> <s_epik_cmdline>
J2VwaWtfcHl0aG9uJywgJy1waCcsICc3LjAnLCAnLXRuJywgJzgnLCAnLW1hJywgJzIwMCcsICctbWV0YWxfYmluZGluZycsICctaW1hZScsICc8aW5maWxlLm1hZT4nLCAnLW9tYWUnLCAnPG91dGZpbGUubWFlPic=

> <r_lp_tautomer_probability>
1

> <r_epik_Ionization_Penalty>
0.00878543

> <r_epik_Ionization_Penalty_Charging>
0.00874185

> <r_epik_Ionization_Penalty_Neutral>
4.35793e-05

> <r_epik_State_Penalty>
0.00660351

> <r_epik_Charging_Adjusted_Penalty>
0.0153454

> <i_epik_Tot_Q>
1

> <i_epik_Tot_abs_Q>
1

> <r_epik_Metal_State_Penalty>
0.00660727

> <b_epik_Metal_Only>
0

> <s_lp_Force_Field>
OPLS_2005

> <r_lp_Energy>
11.1602

> <b_lp_Chiralities_Consistent>
1

> <s_lp_Variant>
AV-unprocessed.smi:2526-3

> <Gold.Version>
5.8.1

> <Gold.Id.Protein>
6NUR|6NUR_protein|mol2

> <Gold.PLP.Fitness>
42.2923

> <Gold.PLP.PLP>
-24.0956

> <Gold.PLP.part.hbond>
-2.7712

> <Gold.PLP.part.metal>
0.0000

> <Gold.PLP.part.buried>
-7.1231

> <Gold.PLP.part.nonpolar>
-16.7682

> <Gold.PLP.part.repulsive>
0.9281

> <Gold.PLP.ligand.clash>
0.0000

> <Gold.PLP.ligand.torsion>
0.2511

> <Gold.PLP.Chemscore.Hbond>
3.3585

> <Gold.PLP.Chemscore.CHOScore>
2.8682

> <Gold.PLP.Chemscore.Metal>
0.0000

> <Gold.Chemscore.Hbonds>
donor molecule, donor type, donor heavy atom, donor atom, acceptor molecule, acceptor atom, score
      L1  H     6    20       P1 10186  0.45
      L1  H    12    29       P1  7948  2.00
      P1  H 10785 10796       L1     8  0.76
      L1  C     3    18       P1 10171  1.00
      L1  C     3    18       P1 10175  1.00
      L1  C    13    28       P1 10957  0.54

> <Gold.PLP.Chemscore.Internal.Correction>
0.0187

> <Gold.Rescore>
     Score         DG    S(hbond)    S(metal)    S(lipo)     H(rot)  DE(clash)    DE(int)     intcor
     16.30     -16.83       2.79        0.00      39.20       1.00       0.05       0.48       ----

> <Gold.Chemscore.Fitness>
16.2998

> <Gold.Chemscore.DG>
-16.8298

> <Gold.Chemscore.ZeroCoef>
-5.4800

> <Gold.Chemscore.Hbond>
2.7916

> <Gold.Chemscore.Metal>
0.0000

> <Gold.Chemscore.Lipo>
39.1962

> <Gold.Chemscore.Internal_Hbond>
0.0000

> <Gold.Chemscore.DEClash>
0.0456

> <Gold.Chemscore.DEInternal>
0.4844

> <Gold.Chemscore.Rot>
1.0000

> <Gold.Chemscore.Internal.Correction>
   9.000000E+99

> <Gold.Chemscore.Hbonds>
donor molecule, donor type, donor heavy atom, donor atom, acceptor molecule, acceptor atom, score
      L1  H     6    20       P1 10186  0.45
      L1  H    12    29       P1  7948  0.93
      P1  H 10785 10796       L1     8  0.74

> <Gold.Chemscore.Hbond.Weighted>
-9.3238

> <Gold.Chemscore.Metal.Weighted>
-0.0000

> <Gold.Chemscore.Lipo.Weighted>
-4.5860

> <Gold.Chemscore.Internal_Hbond.Weighted>
0.0000

> <Gold.Chemscore.DEClash.Weighted>
0.0456

> <Gold.Chemscore.DEInternal.Weighted>
0.4844

> <Gold.Chemscore.Rot.Weighted>
2.5600

> <Gold.Chemscore.Internal.Correction.Weighted>
   9.000000E+99

> <Gold.Protein.RotatedTorsions>
[ 6907 6896 6895 6894 ] final   79.59 input  -60.11 | X-H torsion
[ 7974 7965 7964 7962 ] final  113.68 input  175.53 | X-H torsion
[ 8008 7997 7996 7995 ] final    7.98 input   59.86 | X-H torsion
[ 10167 10162 10161 10158 ] final -129.17 input  -65.29 | X-H torsion
[ 10718 10713 10712 10709 ] final   15.23 input   66.30 | X-H torsion
[ 10763 10752 10751 10750 ] final -101.56 input  -60.55 | X-H torsion
[ 11005 11000 10999 10996 ] final   88.10 input  -57.11 | X-H torsion

> <Gold.Protein.ActiveResidues>
 VAL166  LYS551  ARG553  GLY616  TRP617  ASP618  TYR619  PRO620  LYS621  CYS622 
 ASP623  PHE694  ASN695  SER759  ASP760  ASP761  ALA762  ILE779  LEU786  VAL792 
 PHE793  MET794  SER795  GLU796  ALA797  LYS798  CYS799  TRP800  GLU811  SER814 

> <Gold.Protein.RotatedAtoms>
  152.5204  134.3487  159.9243 H   0  0  0  0  0  0  0  0  0  0  0  0  # atno 6907 bound_to 6896
  151.3438  133.3946  159.2681 H   0  0  0  0  0  0  0  0  0  0  0  0  # atno 6908 bound_to 6896
  150.9782  134.9161  159.7886 H   0  0  0  0  0  0  0  0  0  0  0  0  # atno 6909 bound_to 6896
  145.2139  139.2893  143.4254 H   0  0  0  0  0  0  0  0  0  0  0  0  # atno 7974 bound_to 7965
  154.7608  140.2784  155.6215 H   0  0  0  0  0  0  0  0  0  0  0  0  # atno 8008 bound_to 7997
  156.2915  140.2660  156.2313 H   0  0  0  0  0  0  0  0  0  0  0  0  # atno 8009 bound_to 7997
  155.0020  140.0372  157.2353 H   0  0  0  0  0  0  0  0  0  0  0  0  # atno 8010 bound_to 7997
  139.9426  143.6146  152.2499 H   0  0  0  0  0  0  0  0  0  0  0  0  # atno 10167 bound_to 10162
  157.0505  130.6268  149.5767 H   0  0  0  0  0  0  0  0  0  0  0  0  # atno 10718 bound_to 10713
  154.7667  135.4893  153.9568 H   0  0  0  0  0  0  0  0  0  0  0  0  # atno 10763 bound_to 10752
  153.1316  135.6754  153.9176 H   0  0  0  0  0  0  0  0  0  0  0  0  # atno 10764 bound_to 10752
  153.8878  135.3124  155.3425 H   0  0  0  0  0  0  0  0  0  0  0  0  # atno 10765 bound_to 10752
  139.8904  134.8466  156.2953 H   0  0  0  0  0  0  0  0  0  0  0  0  # atno 11005 bound_to 11000
  146.3391  140.2424  142.8596 LP  0  0  0  0  0  0  0  0  0  0  0  0  # atno 17320 bound_to 7965
  144.9829  140.8476  143.5386 LP  0  0  0  0  0  0  0  0  0  0  0  0  # atno 17321 bound_to 7965
  139.6692  144.7661  151.1815 LP  0  0  0  0  0  0  0  0  0  0  0  0  # atno 17342 bound_to 10162
  140.7606  143.5891  150.8815 LP  0  0  0  0  0  0  0  0  0  0  0  0  # atno 17343 bound_to 10162
  156.0009  130.5088  150.7659 LP  0  0  0  0  0  0  0  0  0  0  0  0  # atno 17370 bound_to 10713
  157.5034  131.0920  151.0287 LP  0  0  0  0  0  0  0  0  0  0  0  0  # atno 17371 bound_to 10713
  140.9949  133.7186  156.0870 LP  0  0  0  0  0  0  0  0  0  0  0  0  # atno 17394 bound_to 11000
  140.7576  134.3976  157.5531 LP  0  0  0  0  0  0  0  0  0  0  0  0  # atno 17395 bound_to 11000

$$$$
