AV-unprocessed.smi:2908|AV-procd|sdf|11170|dock5
  -GOLD-   2272016 63D 1   1.00000     0.00000
 Structure written by MMmdl.
 44 45  0  0  0  0  0  0  0  0  2 V2000
  149.5749  140.8909  153.6664 O   0  0  0  0  0  0  0  0  0  0  0  0
  148.5960  140.6972  154.3891 C   0  0  0  0  0  0  0  0  0  0  0  0
  148.6879  140.6996  155.7307 N   0  0  0  0  0  0  0  0  0  0  0  0
  149.9049  140.9322  156.5053 C   0  0  0  0  0  0  0  0  0  0  0  0
  149.6211  141.6070  157.8619 C   0  0  0  0  0  0  0  0  0  0  0  0
  150.7303  142.5344  158.3269 C   0  0  0  0  0  0  0  0  0  0  0  0
  151.6039  142.1932  159.3828 C   0  0  0  0  0  0  0  0  0  0  0  0
  152.6303  143.0904  159.7442 C   0  0  0  0  0  0  0  0  0  0  0  0
  152.7603  144.3088  159.0459 C   0  0  0  0  0  0  0  0  0  0  0  0
  151.8583  144.6001  158.0025 C   0  0  0  0  0  0  0  0  0  0  0  0
  150.8880  143.7150  157.6856 N   0  3  0  0  0  0  0  0  0  0  0  0
  147.3608  140.4122  153.9053 N   0  0  0  0  0  0  0  0  0  0  0  0
  146.9725  140.3517  152.4869 C   0  0  0  0  0  0  0  0  0  0  0  0
  146.8092  138.8758  152.0833 C   0  0  0  0  0  0  0  0  0  0  0  0
  145.7781  138.1501  152.9813 C   0  0  0  0  0  0  0  0  0  0  0  0
  145.6423  136.6540  152.5930 C   0  0  1  0  0  0  0  0  0  0  0  0
  146.7294  135.9113  153.1121 O   0  0  0  0  0  0  0  0  0  0  0  0
  144.3180  135.9758  153.0080 C   0  0  0  0  0  0  0  0  0  0  0  0
  144.2764  135.8542  154.3349 F   0  0  0  0  0  0  0  0  0  0  0  0
  143.2539  136.6686  152.6035 F   0  0  0  0  0  0  0  0  0  0  0  0
  144.2562  134.7517  152.4842 F   0  0  0  0  0  0  0  0  0  0  0  0
  146.0804  138.4041  154.4799 C   0  0  0  0  0  0  0  0  0  0  0  0
  146.2877  139.9027  154.7663 C   0  0  0  0  0  0  0  0  0  0  0  0
  147.8436  140.5241  156.2562 H   0  0  0  0  0  0  0  0  0  0  0  0
  150.4503  139.9987  156.6542 H   0  0  0  0  0  0  0  0  0  0  0  0
  150.5599  141.5717  155.9136 H   0  0  0  0  0  0  0  0  0  0  0  0
  148.6931  142.1768  157.7992 H   0  0  0  0  0  0  0  0  0  0  0  0
  149.4545  140.8436  158.6231 H   0  0  0  0  0  0  0  0  0  0  0  0
  151.4971  141.2522  159.9025 H   0  0  0  0  0  0  0  0  0  0  0  0
  153.3118  142.8454  160.5457 H   0  0  0  0  0  0  0  0  0  0  0  0
  153.5413  145.0085  159.3055 H   0  0  0  0  0  0  0  0  0  0  0  0
  151.8854  145.5054  157.4139 H   0  0  0  0  0  0  0  0  0  0  0  0
  146.0281  140.8811  152.3503 H   0  0  0  0  0  0  0  0  0  0  0  0
  147.6757  140.8407  151.8129 H   0  0  0  0  0  0  0  0  0  0  0  0
  146.5023  138.8142  151.0388 H   0  0  0  0  0  0  0  0  0  0  0  0
  147.7785  138.3795  152.1490 H   0  0  0  0  0  0  0  0  0  0  0  0
  144.8159  138.6200  152.7731 H   0  0  0  0  0  0  0  0  0  0  0  0
  145.7090  136.5891  151.5059 H   0  0  0  0  0  0  0  0  0  0  0  0
  147.5064  136.1387  152.6245 H   0  0  0  0  0  0  0  0  0  0  0  0
  145.2632  138.0424  155.1021 H   0  0  0  0  0  0  0  0  0  0  0  0
  146.9725  137.8552  154.7843 H   0  0  0  0  0  0  0  0  0  0  0  0
  146.4910  140.0552  155.8272 H   0  0  0  0  0  0  0  0  0  0  0  0
  145.3681  140.4533  154.5625 H   0  0  0  0  0  0  0  0  0  0  0  0
  150.2512  143.9434  156.9220 H   0  0  0  0  0  0  0  0  0  0  0  0
  1  2  2  0  0  0  0
  2  3  1  0  0  0  0
  2 12  1  0  0  0  0
  3  4  1  0  0  0  0
  3 24  1  0  0  0  0
  4  5  1  0  0  0  0
  4 25  1  0  0  0  0
  4 26  1  0  0  0  0
  5  6  1  0  0  0  0
  5 27  1  0  0  0  0
  5 28  1  0  0  0  0
  6 11  1  0  0  0  0
  6  7  2  0  0  0  0
  7  8  1  0  0  0  0
  7 29  1  0  0  0  0
  8  9  2  0  0  0  0
  8 30  1  0  0  0  0
  9 10  1  0  0  0  0
  9 31  1  0  0  0  0
 10 11  2  0  0  0  0
 10 32  1  0  0  0  0
 11 44  1  0  0  0  0
 12 23  1  0  0  0  0
 12 13  1  0  0  0  0
 13 14  1  0  0  0  0
 13 33  1  0  0  0  0
 13 34  1  0  0  0  0
 14 15  1  0  0  0  0
 14 35  1  0  0  0  0
 14 36  1  0  0  0  0
 15 16  1  0  0  0  0
 15 22  1  0  0  0  0
 15 37  1  0  0  0  0
 16 17  1  0  0  0  0
 16 18  1  0  0  0  0
 16 38  1  0  0  0  0
 17 39  1  0  0  0  0
 18 19  1  0  0  0  0
 18 20  1  0  0  0  0
 18 21  1  0  0  0  0
 22 23  1  0  0  0  0
 22 40  1  0  0  0  0
 22 41  1  0  0  0  0
 23 42  1  0  0  0  0
 23 43  1  0  0  0  0
M  CHG  1  11   1
M  END
> <s_m_source_file>
AV-unprocessed.smi

> <i_m_source_file_index>
2908

> <i_lp_mmshare_version>
43012

> <i_f3d_flags>
0

> <s_epik_input>
RkMoRikoRilbQ0BASF0oW09IXSlbQ0hdKFtDSDJdW0NIMl0xKVtDSDJdW0NIMl1OMUMoPU8pW05IXVtDSDJdW0NIMl1jMltjSF1bY0hdW2NIXVtjSF1uMg==

> <s_epik_cmdline>
J2VwaWtfcHl0aG9uJywgJy1waCcsICc3LjAnLCAnLXRuJywgJzgnLCAnLW1hJywgJzIwMCcsICctbWV0YWxfYmluZGluZycsICctaW1hZScsICc8aW5maWxlLm1hZT4nLCAnLW9tYWUnLCAnPG91dGZpbGUubWFlPic=

> <r_epik_Ionization_Penalty>
1.55054

> <r_epik_Ionization_Penalty_Charging>
1.55036

> <r_epik_Ionization_Penalty_Neutral>
0.00017404

> <r_epik_State_Penalty>
1.64453

> <r_epik_Charging_Adjusted_Penalty>
3.19489

> <i_epik_Tot_Q>
1

> <i_epik_Tot_abs_Q>
1

> <r_epik_Metal_State_Penalty>
1.68672

> <b_epik_Metal_Only>
0

> <s_lp_Force_Field>
OPLS_2005

> <r_lp_Energy>
43.524

> <b_lp_Chiralities_Consistent>
1

> <s_lp_Variant>
AV-unprocessed.smi:2908-4

> <Gold.Version>
5.8.1

> <Gold.Id.Protein>
6NUR|6NUR_protein|mol2

> <Gold.PLP.Fitness>
48.0659

> <Gold.PLP.PLP>
-38.1595

> <Gold.PLP.part.hbond>
-4.0000

> <Gold.PLP.part.metal>
0.0000

> <Gold.PLP.part.buried>
-3.2816

> <Gold.PLP.part.nonpolar>
-34.1049

> <Gold.PLP.part.repulsive>
3.3379

> <Gold.PLP.ligand.clash>
1.5640

> <Gold.PLP.ligand.torsion>
0.9211

> <Gold.PLP.Chemscore.Hbond>
4.3489

> <Gold.PLP.Chemscore.CHOScore>
0.0000

> <Gold.PLP.Chemscore.Metal>
0.0000

> <Gold.Chemscore.Hbonds>
donor molecule, donor type, donor heavy atom, donor atom, acceptor molecule, acceptor atom, score
      L1  H    11    44       P1  8028  2.00
      L1  H    17    39       P1  7948  1.00
      P1  H  7989  7998       L1     1  0.36
      P1  H  8011  8017       L1     1  0.99

> <Gold.PLP.Chemscore.Internal.Correction>
0.2659

> <Gold.Rescore>
     Score         DG    S(hbond)    S(metal)    S(lipo)     H(rot)  DE(clash)    DE(int)     intcor
     19.25     -22.21       3.22        0.00     103.56       2.40       2.04       0.91       ----

> <Gold.Chemscore.Fitness>
19.2535

> <Gold.Chemscore.DG>
-22.2100

> <Gold.Chemscore.ZeroCoef>
-5.4800

> <Gold.Chemscore.Hbond>
3.2228

> <Gold.Chemscore.Metal>
0.0000

> <Gold.Chemscore.Lipo>
103.5616

> <Gold.Chemscore.Internal_Hbond>
0.0000

> <Gold.Chemscore.DEClash>
2.0439

> <Gold.Chemscore.DEInternal>
0.9125

> <Gold.Chemscore.Rot>
2.4026

> <Gold.Chemscore.Internal.Correction>
   9.000000E+99

> <Gold.Chemscore.Hbonds>
donor molecule, donor type, donor heavy atom, donor atom, acceptor molecule, acceptor atom, score
      L1  H    11    44       P1  8028  0.96
      L1  H    17    39       P1  7948  0.99
      P1  H  7989  7998       L1     1  0.34
      P1  H  8011  8017       L1     1  0.89

> <Gold.Chemscore.Hbond.Weighted>
-10.7640

> <Gold.Chemscore.Metal.Weighted>
-0.0000

> <Gold.Chemscore.Lipo.Weighted>
-12.1167

> <Gold.Chemscore.Internal_Hbond.Weighted>
0.0000

> <Gold.Chemscore.DEClash.Weighted>
2.0439

> <Gold.Chemscore.DEInternal.Weighted>
0.9125

> <Gold.Chemscore.Rot.Weighted>
6.1508

> <Gold.Chemscore.Internal.Correction.Weighted>
   9.000000E+99

> <Gold.Protein.RotatedTorsions>
[ 6907 6896 6895 6894 ] final -124.38 input  -60.11 | X-H torsion
[ 7974 7965 7964 7962 ] final  -89.93 input  175.53 | X-H torsion
[ 8008 7997 7996 7995 ] final  -39.28 input   59.86 | X-H torsion
[ 10167 10162 10161 10158 ] final  119.15 input  -65.29 | X-H torsion
[ 10718 10713 10712 10709 ] final   77.13 input   66.30 | X-H torsion
[ 10763 10752 10751 10750 ] final   31.81 input  -60.55 | X-H torsion
[ 11005 11000 10999 10996 ] final -138.55 input  -57.11 | X-H torsion

> <Gold.Protein.ActiveResidues>
 VAL166  LYS551  ARG553  GLY616  TRP617  ASP618  TYR619  PRO620  LYS621  CYS622 
 ASP623  PHE694  ASN695  SER759  ASP760  ASP761  ALA762  ILE779  LEU786  VAL792 
 PHE793  MET794  SER795  GLU796  ALA797  LYS798  CYS799  TRP800  GLU811  SER814 

> <Gold.Protein.RotatedAtoms>
  150.8762  133.7435  159.2945 H   0  0  0  0  0  0  0  0  0  0  0  0  # atno 6907 bound_to 6896
  151.5031  135.1061  159.9844 H   0  0  0  0  0  0  0  0  0  0  0  0  # atno 6908 bound_to 6896
  152.4729  133.8026  159.7016 H   0  0  0  0  0  0  0  0  0  0  0  0  # atno 6909 bound_to 6896
  145.4332  140.9556  143.2116 H   0  0  0  0  0  0  0  0  0  0  0  0  # atno 7974 bound_to 7965
  154.4025  140.1555  156.2838 H   0  0  0  0  0  0  0  0  0  0  0  0  # atno 8008 bound_to 7997
  155.8846  140.3442  155.5890 H   0  0  0  0  0  0  0  0  0  0  0  0  # atno 8009 bound_to 7997
  155.7628  140.0820  157.2137 H   0  0  0  0  0  0  0  0  0  0  0  0  # atno 8010 bound_to 7997
  139.6065  144.7071  151.2942 H   0  0  0  0  0  0  0  0  0  0  0  0  # atno 10167 bound_to 10162
  157.6699  130.9807  150.1596 H   0  0  0  0  0  0  0  0  0  0  0  0  # atno 10718 bound_to 10713
  153.0296  135.6429  154.1257 H   0  0  0  0  0  0  0  0  0  0  0  0  # atno 10763 bound_to 10752
  154.0981  135.2861  155.3259 H   0  0  0  0  0  0  0  0  0  0  0  0  # atno 10764 bound_to 10752
  154.6418  135.5457  153.7861 H   0  0  0  0  0  0  0  0  0  0  0  0  # atno 10765 bound_to 10752
  140.8605  134.2175  157.4710 H   0  0  0  0  0  0  0  0  0  0  0  0  # atno 11005 bound_to 11000
  144.8169  139.5861  143.7004 LP  0  0  0  0  0  0  0  0  0  0  0  0  # atno 17320 bound_to 7965
  146.2596  139.6379  142.9371 LP  0  0  0  0  0  0  0  0  0  0  0  0  # atno 17321 bound_to 7965
  140.7288  143.6925  150.7911 LP  0  0  0  0  0  0  0  0  0  0  0  0  # atno 17342 bound_to 10162
  140.0511  143.5249  152.2673 LP  0  0  0  0  0  0  0  0  0  0  0  0  # atno 17343 bound_to 10162
  156.2376  130.3688  149.8374 LP  0  0  0  0  0  0  0  0  0  0  0  0  # atno 17370 bound_to 10713
  156.6183  130.8615  151.3470 LP  0  0  0  0  0  0  0  0  0  0  0  0  # atno 17371 bound_to 10713
  139.8707  134.9727  156.4783 LP  0  0  0  0  0  0  0  0  0  0  0  0  # atno 17394 bound_to 11000
  140.8688  133.8004  155.9342 LP  0  0  0  0  0  0  0  0  0  0  0  0  # atno 17395 bound_to 11000

$$$$
