AV-unprocessed.smi:535|AV-procd|sdf|2861|dock7
  -GOLD-   2262023353D 1   1.00000     0.00000
 Structure written by MMmdl.
 45 47  0  0  0  0  0  0  0  0  2 V2000
  148.5165  140.8336  154.1974 C   0  0  0  0  0  0  0  0  0  0  0  0
  149.8541  140.7142  154.6485 O   0  0  0  0  0  0  0  0  0  0  0  0
  149.9628  140.8255  156.0576 C   0  0  0  0  0  0  0  0  0  0  0  0
  151.4344  141.0845  156.4216 C   0  0  0  0  0  0  0  0  0  0  0  0
  151.8911  140.2477  157.5284 N   0  0  0  0  0  0  0  0  0  0  0  0
  152.3170  140.6206  158.7712 C   0  0  0  0  0  0  0  0  0  0  0  0
  152.4081  141.9538  159.1976 N   0  0  0  0  0  0  0  0  0  0  0  0
  152.2003  143.1661  158.4012 C   0  0  0  0  0  0  0  0  0  0  0  0
  151.2416  144.1530  159.0908 C   0  0  0  0  0  0  0  0  0  0  0  0
  151.7736  144.5390  160.4757 C   0  0  0  0  0  0  0  0  0  0  0  0
  152.0856  143.2735  161.2907 C   0  0  2  0  0  0  0  0  0  0  0  0
  152.6989  143.6181  162.6546 C   0  0  0  0  0  0  0  0  0  0  0  0
  153.0057  142.3390  160.4789 C   0  0  0  0  0  0  0  0  0  0  0  0
  152.6136  139.5960  159.5754 N   0  0  0  0  0  0  0  0  0  0  0  0
  152.3745  138.4851  158.7850 C   0  0  0  0  0  0  0  0  0  0  0  0
  151.9280  138.8478  157.5540 C   0  0  0  0  0  0  0  0  0  0  0  0
  151.5519  137.8770  156.5005 C   0  0  0  0  0  0  0  0  0  0  0  0
  151.1261  138.2531  155.4105 O   0  0  0  0  0  0  0  0  0  0  0  0
  151.7343  136.5794  156.9022 N   0  5  0  0  0  0  0  0  0  0  0  0
  152.1925  136.1698  158.1355 C   0  0  0  0  0  0  0  0  0  0  0  0
  152.3268  134.9780  158.4163 O   0  0  0  0  0  0  0  0  0  0  0  0
  152.5113  137.1025  159.0868 N   0  0  0  0  0  0  0  0  0  0  0  0
  152.9962  136.6965  160.4090 C   0  0  0  0  0  0  0  0  0  0  0  0
  148.4855  140.7339  153.1125 H   0  0  0  0  0  0  0  0  0  0  0  0
  148.0982  141.8066  154.4583 H   0  0  0  0  0  0  0  0  0  0  0  0
  147.8844  140.0543  154.6251 H   0  0  0  0  0  0  0  0  0  0  0  0
  149.3298  141.6375  156.4152 H   0  0  0  0  0  0  0  0  0  0  0  0
  149.5989  139.9130  156.5297 H   0  0  0  0  0  0  0  0  0  0  0  0
  152.0772  140.9319  155.5588 H   0  0  0  0  0  0  0  0  0  0  0  0
  151.5779  142.1309  156.6895 H   0  0  0  0  0  0  0  0  0  0  0  0
  153.1667  143.6467  158.2429 H   0  0  0  0  0  0  0  0  0  0  0  0
  151.8353  142.9222  157.4084 H   0  0  0  0  0  0  0  0  0  0  0  0
  151.1197  145.0455  158.4767 H   0  0  0  0  0  0  0  0  0  0  0  0
  150.2515  143.7082  159.1909 H   0  0  0  0  0  0  0  0  0  0  0  0
  152.6775  145.1391  160.3630 H   0  0  0  0  0  0  0  0  0  0  0  0
  151.0464  145.1619  160.9978 H   0  0  0  0  0  0  0  0  0  0  0  0
  151.1477  142.7468  161.4741 H   0  0  0  0  0  0  0  0  0  0  0  0
  153.6483  144.1421  162.5413 H   0  0  0  0  0  0  0  0  0  0  0  0
  152.8837  142.7171  163.2402 H   0  0  0  0  0  0  0  0  0  0  0  0
  152.0322  144.2568  163.2344 H   0  0  0  0  0  0  0  0  0  0  0  0
  153.2138  141.4465  161.0699 H   0  0  0  0  0  0  0  0  0  0  0  0
  153.9695  142.8164  160.2967 H   0  0  0  0  0  0  0  0  0  0  0  0
  153.9076  136.1045  160.3167 H   0  0  0  0  0  0  0  0  0  0  0  0
  152.2467  136.0919  160.9214 H   0  0  0  0  0  0  0  0  0  0  0  0
  153.2257  137.5452  161.0527 H   0  0  0  0  0  0  0  0  0  0  0  0
  1  2  1  0  0  0  0
  1 24  1  0  0  0  0
  1 25  1  0  0  0  0
  1 26  1  0  0  0  0
  2  3  1  0  0  0  0
  3  4  1  0  0  0  0
  3 27  1  0  0  0  0
  3 28  1  0  0  0  0
  4  5  1  0  0  0  0
  4 29  1  0  0  0  0
  4 30  1  0  0  0  0
  5 16  1  0  0  0  0
  5  6  1  0  0  0  0
  6  7  1  0  0  0  0
  6 14  2  0  0  0  0
  7 13  1  0  0  0  0
  7  8  1  0  0  0  0
  8  9  1  0  0  0  0
  8 31  1  0  0  0  0
  8 32  1  0  0  0  0
  9 10  1  0  0  0  0
  9 33  1  0  0  0  0
  9 34  1  0  0  0  0
 10 11  1  0  0  0  0
 10 35  1  0  0  0  0
 10 36  1  0  0  0  0
 11 12  1  0  0  0  0
 11 13  1  0  0  0  0
 11 37  1  0  0  0  0
 12 38  1  0  0  0  0
 12 39  1  0  0  0  0
 12 40  1  0  0  0  0
 13 41  1  0  0  0  0
 13 42  1  0  0  0  0
 14 15  1  0  0  0  0
 15 22  1  0  0  0  0
 15 16  2  0  0  0  0
 16 17  1  0  0  0  0
 17 18  2  0  0  0  0
 17 19  1  0  0  0  0
 19 20  1  0  0  0  0
 20 21  2  0  0  0  0
 20 22  1  0  0  0  0
 22 23  1  0  0  0  0
 23 43  1  0  0  0  0
 23 44  1  0  0  0  0
 23 45  1  0  0  0  0
M  CHG  1  19  -1
M  END
> <s_m_source_file>
AV-unprocessed.smi

> <i_m_source_file_index>
535

> <i_lp_mmshare_version>
43012

> <i_f3d_flags>
0

> <s_epik_input>
W0NIM11uMWMoPU8pW25IXWMoPU8pYyhjMTIpbihbQ0gyXVtDSDJdT1tDSDNdKWMobjIpTjNbQ0gyXVtDSDJdW0NIMl1bQ0BASF0oW0NIM10pW0NIMl0z

> <s_epik_cmdline>
J2VwaWtfcHl0aG9uJywgJy1waCcsICc3LjAnLCAnLXRuJywgJzgnLCAnLW1hJywgJzIwMCcsICctbWV0YWxfYmluZGluZycsICctaW1hZScsICc8aW5maWxlLm1hZT4nLCAnLW9tYWUnLCAnPG91dGZpbGUubWFlPic=

> <r_lp_tautomer_probability>
1

> <r_epik_Ionization_Penalty>
5.11375

> <r_epik_Ionization_Penalty_Charging>
0.0788329

> <r_epik_Ionization_Penalty_Neutral>
5.03492

> <r_epik_State_Penalty>
5.02848

> <r_epik_Charging_Adjusted_Penalty>
5.10731

> <i_epik_Tot_Q>
-1

> <i_epik_Tot_abs_Q>
1

> <r_epik_Metal_State_Penalty>
1.14014

> <b_epik_Metal_Only>
1

> <s_lp_Force_Field>
OPLS_2005

> <r_lp_Energy>
42.0611

> <b_lp_Chiralities_Consistent>
1

> <s_lp_Variant>
AV-unprocessed.smi:535-4

> <Gold.Version>
5.8.1

> <Gold.Id.Protein>
6NUR|6NUR_protein|mol2

> <Gold.PLP.Fitness>
49.8754

> <Gold.PLP.PLP>
-43.0388

> <Gold.PLP.part.hbond>
-3.0000

> <Gold.PLP.part.metal>
0.0000

> <Gold.PLP.part.buried>
-5.3645

> <Gold.PLP.part.nonpolar>
-34.1385

> <Gold.PLP.part.repulsive>
0.1805

> <Gold.PLP.ligand.clash>
0.8985

> <Gold.PLP.ligand.torsion>
0.4154

> <Gold.PLP.Chemscore.Hbond>
2.8200

> <Gold.PLP.Chemscore.CHOScore>
0.0000

> <Gold.PLP.Chemscore.Metal>
0.0000

> <Gold.Chemscore.Hbonds>
donor molecule, donor type, donor heavy atom, donor atom, acceptor molecule, acceptor atom, score
      P1  H  7989  7998       L1     2  0.61

> <Gold.PLP.Chemscore.Internal.Correction>
0.1060

> <Gold.Rescore>
     Score         DG    S(hbond)    S(metal)    S(lipo)     H(rot)  DE(clash)    DE(int)     intcor
     16.14     -18.00       1.47        0.00      96.53       1.44       0.29       1.57       ----

> <Gold.Chemscore.Fitness>
16.1405

> <Gold.Chemscore.DG>
-18.0023

> <Gold.Chemscore.ZeroCoef>
-5.4800

> <Gold.Chemscore.Hbond>
1.4692

> <Gold.Chemscore.Metal>
0.0000

> <Gold.Chemscore.Lipo>
96.5330

> <Gold.Chemscore.Internal_Hbond>
0.0000

> <Gold.Chemscore.DEClash>
0.2878

> <Gold.Chemscore.DEInternal>
1.5740

> <Gold.Chemscore.Rot>
1.4372

> <Gold.Chemscore.Internal.Correction>
   9.000000E+99

> <Gold.Chemscore.Hbonds>
donor molecule, donor type, donor heavy atom, donor atom, acceptor molecule, acceptor atom, score
      P1  H  6896  6907       L1    21  0.01
      P1  H  7989  7998       L1     2  0.57

> <Gold.Chemscore.Hbond.Weighted>
-4.9073

> <Gold.Chemscore.Metal.Weighted>
-0.0000

> <Gold.Chemscore.Lipo.Weighted>
-11.2944

> <Gold.Chemscore.Internal_Hbond.Weighted>
0.0000

> <Gold.Chemscore.DEClash.Weighted>
0.2878

> <Gold.Chemscore.DEInternal.Weighted>
1.5740

> <Gold.Chemscore.Rot.Weighted>
3.6793

> <Gold.Chemscore.Internal.Correction.Weighted>
   9.000000E+99

> <Gold.Protein.RotatedTorsions>
[ 6907 6896 6895 6894 ] final   68.15 input  -60.11 | X-H torsion
[ 7974 7965 7964 7962 ] final   99.49 input  175.53 | X-H torsion
[ 8008 7997 7996 7995 ] final  164.49 input   59.86 | X-H torsion
[ 10167 10162 10161 10158 ] final    3.67 input  -65.29 | X-H torsion
[ 10718 10713 10712 10709 ] final   47.65 input   66.30 | X-H torsion
[ 10763 10752 10751 10750 ] final  -23.96 input  -60.55 | X-H torsion
[ 11005 11000 10999 10996 ] final  -97.43 input  -57.11 | X-H torsion

> <Gold.Protein.ActiveResidues>
 VAL166  LYS551  ARG553  GLY616  TRP617  ASP618  TYR619  PRO620  LYS621  CYS622 
 ASP623  PHE694  ASN695  SER759  ASP760  ASP761  ALA762  ILE779  LEU786  VAL792 
 PHE793  MET794  SER795  GLU796  ALA797  LYS798  CYS799  TRP800  GLU811  SER814 

> <Gold.Protein.RotatedAtoms>
  152.4601  134.5204  159.9780 H   0  0  0  0  0  0  0  0  0  0  0  0  # atno 6907 bound_to 6896
  151.5255  133.3453  159.2917 H   0  0  0  0  0  0  0  0  0  0  0  0  # atno 6908 bound_to 6896
  150.8560  134.7929  159.7108 H   0  0  0  0  0  0  0  0  0  0  0  0  # atno 6909 bound_to 6896
  145.3982  139.2352  143.3314 H   0  0  0  0  0  0  0  0  0  0  0  0  # atno 7974 bound_to 7965
  156.1875  140.1695  156.8156 H   0  0  0  0  0  0  0  0  0  0  0  0  # atno 8008 bound_to 7997
  154.5432  140.0732  156.8577 H   0  0  0  0  0  0  0  0  0  0  0  0  # atno 8009 bound_to 7997
  155.3174  140.3371  155.4244 H   0  0  0  0  0  0  0  0  0  0  0  0  # atno 8010 bound_to 7997
  140.6574  143.7392  150.7677 H   0  0  0  0  0  0  0  0  0  0  0  0  # atno 10167 bound_to 10162
  157.4607  130.8194  149.7883 H   0  0  0  0  0  0  0  0  0  0  0  0  # atno 10718 bound_to 10713
  153.6762  135.6969  153.5132 H   0  0  0  0  0  0  0  0  0  0  0  0  # atno 10763 bound_to 10752
  153.2520  135.4272  155.0806 H   0  0  0  0  0  0  0  0  0  0  0  0  # atno 10764 bound_to 10752
  154.8413  135.3533  154.6305 H   0  0  0  0  0  0  0  0  0  0  0  0  # atno 10765 bound_to 10752
  141.1379  133.8170  157.0705 H   0  0  0  0  0  0  0  0  0  0  0  0  # atno 11005 bound_to 11000
  146.2765  140.4675  142.8793 LP  0  0  0  0  0  0  0  0  0  0  0  0  # atno 17320 bound_to 7965
  144.8392  140.6831  143.6240 LP  0  0  0  0  0  0  0  0  0  0  0  0  # atno 17321 bound_to 7965
  140.1055  143.4748  152.2401 LP  0  0  0  0  0  0  0  0  0  0  0  0  # atno 17342 bound_to 10162
  139.5799  144.7505  151.3666 LP  0  0  0  0  0  0  0  0  0  0  0  0  # atno 17343 bound_to 10162
  156.0027  130.3871  150.2544 LP  0  0  0  0  0  0  0  0  0  0  0  0  # atno 17370 bound_to 10713
  157.0721  131.0120  151.3186 LP  0  0  0  0  0  0  0  0  0  0  0  0  # atno 17371 bound_to 10713
  140.0514  134.9803  157.1144 LP  0  0  0  0  0  0  0  0  0  0  0  0  # atno 17394 bound_to 11000
  140.3984  134.2109  155.7164 LP  0  0  0  0  0  0  0  0  0  0  0  0  # atno 17395 bound_to 11000

$$$$
