AV-unprocessed.smi:1929|AV-procd|sdf|7807|dock2
  -GOLD-   22720 9543D 1   1.00000     0.00000
 Structure written by MMmdl.
 43 44  0  0  0  0  0  0  0  0  4 V2000
  153.6668  124.2943  151.0876 C   0  0  0  0  0  0  0  0  0  0  0  0
  152.3702  124.4648  151.7320 N   0  5  0  0  0  0  0  0  0  0  0  0
  152.1982  124.4786  153.0811 C   0  0  0  0  0  0  0  0  0  0  0  0
  153.0202  124.3947  153.9996 O   0  0  0  0  0  0  0  0  0  0  0  0
  150.7136  124.5922  153.4474 C   0  0  0  0  0  0  0  0  0  0  0  0
  150.1296  125.8197  152.8510 N   0  3  2  0  0  0  0  0  0  0  0  0
  149.5574  126.7504  153.8617 C   0  0  0  0  0  0  0  0  0  0  0  0
  149.0885  128.0597  153.2069 C   0  0  0  0  0  0  0  0  0  0  0  0
  148.0703  127.7894  152.0881 C   0  0  1  0  0  0  0  0  0  0  0  0
  147.7124  129.0437  151.4315 N   0  0  0  0  0  0  0  0  0  0  0  0
  146.4759  129.5587  151.3693 C   0  0  0  0  0  0  0  0  0  0  0  0
  145.4870  129.0108  151.8556 O   0  0  0  0  0  0  0  0  0  0  0  0
  146.4651  130.7218  150.6952 N   0  0  0  0  0  0  0  0  0  0  0  0
  145.3636  131.5836  150.4402 C   0  0  0  0  0  0  0  0  0  0  0  0
  144.4051  131.7438  151.4655 C   0  0  0  0  0  0  0  0  0  0  0  0
  143.2878  132.5761  151.2492 C   0  0  0  0  0  0  0  0  0  0  0  0
  143.1362  133.2036  150.0632 N   0  3  0  0  0  0  0  0  0  0  0  0
  144.0169  133.0693  149.0484 C   0  0  0  0  0  0  0  0  0  0  0  0
  145.1540  132.2507  149.2064 C   0  0  0  0  0  0  0  0  0  0  0  0
  148.6679  126.7935  151.0778 C   0  0  0  0  0  0  0  0  0  0  0  0
  149.1498  125.5117  151.7783 C   0  0  0  0  0  0  0  0  0  0  0  0
  153.5831  124.2992  150.0010 H   0  0  0  0  0  0  0  0  0  0  0  0
  154.1428  123.3505  151.3554 H   0  0  0  0  0  0  0  0  0  0  0  0
  154.3690  125.0871  151.3476 H   0  0  0  0  0  0  0  0  0  0  0  0
  150.2195  123.7097  153.0388 H   0  0  0  0  0  0  0  0  0  0  0  0
  150.5385  124.5707  154.5255 H   0  0  0  0  0  0  0  0  0  0  0  0
  148.7245  126.2663  154.3739 H   0  0  0  0  0  0  0  0  0  0  0  0
  150.2997  126.9868  154.6244 H   0  0  0  0  0  0  0  0  0  0  0  0
  148.6505  128.7118  153.9636 H   0  0  0  0  0  0  0  0  0  0  0  0
  149.9530  128.5901  152.8042 H   0  0  0  0  0  0  0  0  0  0  0  0
  147.1783  127.3482  152.5378 H   0  0  0  0  0  0  0  0  0  0  0  0
  148.4649  129.5587  150.9977 H   0  0  0  0  0  0  0  0  0  0  0  0
  147.3387  130.9978  150.2710 H   0  0  0  0  0  0  0  0  0  0  0  0
  144.5246  131.2401  152.4139 H   0  0  0  0  0  0  0  0  0  0  0  0
  142.5155  132.7556  151.9830 H   0  0  0  0  0  0  0  0  0  0  0  0
  143.7850  133.6119  148.1437 H   0  0  0  0  0  0  0  0  0  0  0  0
  145.8343  132.1408  148.3756 H   0  0  0  0  0  0  0  0  0  0  0  0
  147.9291  126.5381  150.3171 H   0  0  0  0  0  0  0  0  0  0  0  0
  149.5057  127.2548  150.5527 H   0  0  0  0  0  0  0  0  0  0  0  0
  149.6071  124.8524  151.0397 H   0  0  0  0  0  0  0  0  0  0  0  0
  148.3018  124.9724  152.2034 H   0  0  0  0  0  0  0  0  0  0  0  0
  150.8989  126.3016  152.4079 H   0  0  0  0  0  0  0  0  0  0  0  0
  142.3196  133.8001  149.9261 H   0  0  0  0  0  0  0  0  0  0  0  0
  1  2  1  0  0  0  0
  1 22  1  0  0  0  0
  1 23  1  0  0  0  0
  1 24  1  0  0  0  0
  2  3  1  0  0  0  0
  3  4  2  0  0  0  0
  3  5  1  0  0  0  0
  5  6  1  0  0  0  0
  5 25  1  0  0  0  0
  5 26  1  0  0  0  0
  6 21  1  0  0  0  0
  6  7  1  0  0  0  0
  6 42  1  0  0  0  0
  7  8  1  0  0  0  0
  7 27  1  0  0  0  0
  7 28  1  0  0  0  0
  8  9  1  0  0  0  0
  8 29  1  0  0  0  0
  8 30  1  0  0  0  0
  9 10  1  0  0  0  0
  9 20  1  0  0  0  0
  9 31  1  0  0  0  0
 10 11  1  0  0  0  0
 10 32  1  0  0  0  0
 11 12  2  0  0  0  0
 11 13  1  0  0  0  0
 13 14  1  0  0  0  0
 13 33  1  0  0  0  0
 14 19  1  0  0  0  0
 14 15  2  0  0  0  0
 15 16  1  0  0  0  0
 15 34  1  0  0  0  0
 16 17  2  0  0  0  0
 16 35  1  0  0  0  0
 17 18  1  0  0  0  0
 17 43  1  0  0  0  0
 18 19  2  0  0  0  0
 18 36  1  0  0  0  0
 19 37  1  0  0  0  0
 20 21  1  0  0  0  0
 20 38  1  0  0  0  0
 20 39  1  0  0  0  0
 21 40  1  0  0  0  0
 21 41  1  0  0  0  0
M  CHG  1   2  -1
M  CHG  1   6   1
M  CHG  1  17   1
M  END
> <s_m_source_file>
AV-unprocessed.smi

> <i_m_source_file_index>
1929

> <i_lp_mmshare_version>
43012

> <i_f3d_flags>
0

> <s_epik_input>
W0NIM11bTkhdQyg9TylbQ0gyXU4xW0NIMl1bQ0gyXVtDSF0oW0NIMl1bQ0gyXTEpW05IXUMoPU8pW05IXWMyW2NIXVtjSF1uW2NIXVtjSF0y

> <s_epik_cmdline>
J2VwaWtfcHl0aG9uJywgJy1waCcsICc3LjAnLCAnLXRuJywgJzgnLCAnLW1hJywgJzIwMCcsICctbWV0YWxfYmluZGluZycsICctaW1hZScsICc8aW5maWxlLm1hZT4nLCAnLW9tYWUnLCAnPG91dGZpbGUubWFlPic=

> <r_epik_Ionization_Penalty>
7.25133

> <r_epik_Ionization_Penalty_Charging>
7.25131

> <r_epik_Ionization_Penalty_Neutral>
1.84563e-05

> <r_epik_State_Penalty>
8.093

> <r_epik_Charging_Adjusted_Penalty>
15.3443

> <i_epik_Tot_Q>
1

> <i_epik_Tot_abs_Q>
3

> <r_epik_Metal_State_Penalty>
4.12368

> <b_epik_Metal_Only>
1

> <s_lp_Force_Field>
OPLS_2005

> <r_lp_Energy>
21.0398

> <b_lp_Chiralities_Consistent>
1

> <s_lp_Variant>
AV-unprocessed.smi:1929-9

> <Gold.Version>
5.8.1

> <Gold.Id.Protein>
6NUR|6NUR_protein|mol2

> <Gold.PLP.Fitness>
46.9016

> <Gold.PLP.PLP>
-34.6687

> <Gold.PLP.part.hbond>
-3.7365

> <Gold.PLP.part.metal>
0.0000

> <Gold.PLP.part.buried>
-2.3560

> <Gold.PLP.part.nonpolar>
-28.8946

> <Gold.PLP.part.repulsive>
0.5213

> <Gold.PLP.ligand.clash>
0.0000

> <Gold.PLP.ligand.torsion>
1.0370

> <Gold.PLP.Chemscore.Hbond>
4.7158

> <Gold.PLP.Chemscore.CHOScore>
0.0000

> <Gold.PLP.Chemscore.Metal>
0.0000

> <Gold.Chemscore.Hbonds>
donor molecule, donor type, donor heavy atom, donor atom, acceptor molecule, acceptor atom, score
      L1  H     6    42       P1 10737  1.00
      L1  H    10    32       P1 10747  0.81
      L1  H    13    33       P1 10747  0.94
      L1  H    17    43       P1 10186  1.85

> <Gold.PLP.Chemscore.Internal.Correction>
0.1596

> <Gold.Rescore>
     Score         DG    S(hbond)    S(metal)    S(lipo)     H(rot)  DE(clash)    DE(int)     intcor
     19.91     -22.10       3.22        0.00      86.38       1.66       0.13       2.06       ----

> <Gold.Chemscore.Fitness>
19.9060

> <Gold.Chemscore.DG>
-22.0966

> <Gold.Chemscore.ZeroCoef>
-5.4800

> <Gold.Chemscore.Hbond>
3.2196

> <Gold.Chemscore.Metal>
0.0000

> <Gold.Chemscore.Lipo>
86.3770

> <Gold.Chemscore.Internal_Hbond>
0.0000

> <Gold.Chemscore.DEClash>
0.1340

> <Gold.Chemscore.DEInternal>
2.0566

> <Gold.Chemscore.Rot>
1.6574

> <Gold.Chemscore.Internal.Correction>
   9.000000E+99

> <Gold.Chemscore.Hbonds>
donor molecule, donor type, donor heavy atom, donor atom, acceptor molecule, acceptor atom, score
      L1  H     6    42       P1 10737  0.99
      L1  H    10    32       P1 10747  0.13
      L1  H    13    33       P1 10747  0.91
      L1  H    17    43       P1 10186  0.89

> <Gold.Chemscore.Hbond.Weighted>
-10.7535

> <Gold.Chemscore.Metal.Weighted>
-0.0000

> <Gold.Chemscore.Lipo.Weighted>
-10.1061

> <Gold.Chemscore.Internal_Hbond.Weighted>
0.0000

> <Gold.Chemscore.DEClash.Weighted>
0.1340

> <Gold.Chemscore.DEInternal.Weighted>
2.0566

> <Gold.Chemscore.Rot.Weighted>
4.2430

> <Gold.Chemscore.Internal.Correction.Weighted>
   9.000000E+99

> <Gold.Protein.RotatedTorsions>
[ 6907 6896 6895 6894 ] final -123.14 input  -60.11 | X-H torsion
[ 7974 7965 7964 7962 ] final  161.12 input  175.53 | X-H torsion
[ 8008 7997 7996 7995 ] final   47.92 input   59.86 | X-H torsion
[ 10167 10162 10161 10158 ] final -139.43 input  -65.29 | X-H torsion
[ 10718 10713 10712 10709 ] final   55.45 input   66.30 | X-H torsion
[ 10763 10752 10751 10750 ] final    7.05 input  -60.55 | X-H torsion
[ 11005 11000 10999 10996 ] final  -68.18 input  -57.11 | X-H torsion

> <Gold.Protein.ActiveResidues>
 VAL166  LYS551  ARG553  GLY616  TRP617  ASP618  TYR619  PRO620  LYS621  CYS622 
 ASP623  PHE694  ASN695  SER759  ASP760  ASP761  ALA762  ILE779  LEU786  VAL792 
 PHE793  MET794  SER795  GLU796  ALA797  LYS798  CYS799  TRP800  GLU811  SER814 

> <Gold.Protein.RotatedAtoms>
  150.8642  133.7598  159.2981 H   0  0  0  0  0  0  0  0  0  0  0  0  # atno 6907 bound_to 6896
  151.5231  135.1066  159.9893 H   0  0  0  0  0  0  0  0  0  0  0  0  # atno 6908 bound_to 6896
  152.4649  133.7857  159.6930 H   0  0  0  0  0  0  0  0  0  0  0  0  # atno 6909 bound_to 6896
  144.7702  139.7853  143.6300 H   0  0  0  0  0  0  0  0  0  0  0  0  # atno 7974 bound_to 7965
  155.3771  140.3426  155.4245 H   0  0  0  0  0  0  0  0  0  0  0  0  # atno 8008 bound_to 7997
  156.1631  140.1607  156.8612 H   0  0  0  0  0  0  0  0  0  0  0  0  # atno 8009 bound_to 7997
  154.5159  140.0778  156.8061 H   0  0  0  0  0  0  0  0  0  0  0  0  # atno 8010 bound_to 7997
  139.8380  143.7359  152.2664 H   0  0  0  0  0  0  0  0  0  0  0  0  # atno 10167 bound_to 10162
  157.5346  130.8654  149.8735 H   0  0  0  0  0  0  0  0  0  0  0  0  # atno 10718 bound_to 10713
  153.2407  135.6903  153.7786 H   0  0  0  0  0  0  0  0  0  0  0  0  # atno 10763 bound_to 10752
  153.6917  135.3312  155.3204 H   0  0  0  0  0  0  0  0  0  0  0  0  # atno 10764 bound_to 10752
  154.8354  135.4547  154.1327 H   0  0  0  0  0  0  0  0  0  0  0  0  # atno 10765 bound_to 10752
  141.1526  133.6735  156.6406 H   0  0  0  0  0  0  0  0  0  0  0  0  # atno 11005 bound_to 11000
  146.1842  139.5049  142.9847 LP  0  0  0  0  0  0  0  0  0  0  0  0  # atno 17320 bound_to 7965
  145.6348  141.0297  143.1844 LP  0  0  0  0  0  0  0  0  0  0  0  0  # atno 17321 bound_to 7965
  139.7588  144.7513  151.0396 LP  0  0  0  0  0  0  0  0  0  0  0  0  # atno 17342 bound_to 10162
  140.7801  143.4775  151.0062 LP  0  0  0  0  0  0  0  0  0  0  0  0  # atno 17343 bound_to 10162
  156.0448  130.3730  150.1344 LP  0  0  0  0  0  0  0  0  0  0  0  0  # atno 17370 bound_to 10713
  156.9527  130.9780  151.3495 LP  0  0  0  0  0  0  0  0  0  0  0  0  # atno 17371 bound_to 10713
  140.3396  134.7860  157.4388 LP  0  0  0  0  0  0  0  0  0  0  0  0  # atno 17394 bound_to 11000
  140.0949  134.5551  155.8408 LP  0  0  0  0  0  0  0  0  0  0  0  0  # atno 17395 bound_to 11000

$$$$
