AV-unprocessed.smi:2057|AV-procd|sdf|8341|dock2
  -GOLD-   2272011 13D 1   1.00000     0.00000
 Structure written by MMmdl.
 44 46  0  0  0  0  0  0  0  0  1 V2000
  151.1999  145.0673  159.6716 C   0  0  0  0  0  0  0  0  0  0  0  0
  151.6379  144.7425  160.9829 O   0  0  0  0  0  0  0  0  0  0  0  0
  152.4904  143.6702  161.1365 C   0  0  0  0  0  0  0  0  0  0  0  0
  153.0799  143.4971  162.4019 C   0  0  0  0  0  0  0  0  0  0  0  0
  153.9702  142.4355  162.6447 C   0  0  0  0  0  0  0  0  0  0  0  0
  154.2895  141.5113  161.6193 C   0  0  0  0  0  0  0  0  0  0  0  0
  155.1680  140.4605  161.7926 O   0  0  0  0  0  0  0  0  0  0  0  0
  155.7685  140.2816  163.0668 C   0  0  0  0  0  0  0  0  0  0  0  0
  153.6876  141.6692  160.3466 C   0  0  0  0  0  0  0  0  0  0  0  0
  154.0137  140.6949  159.2184 C   0  0  1  0  0  0  0  0  0  0  0  0
  155.4051  140.5320  159.0168 O   0  0  0  0  0  0  0  0  0  0  0  0
  153.3557  139.3234  159.4655 C   0  0  0  0  0  0  0  0  0  0  0  0
  153.1325  138.5825  158.2317 N   0  0  0  0  0  0  0  0  0  0  0  0
  153.5994  137.3572  157.8824 C   0  0  0  0  0  0  0  0  0  0  0  0
  154.4715  136.5566  158.8075 C   0  0  0  0  0  0  0  0  0  0  0  0
  153.9986  135.2469  159.0490 O   0  0  0  0  0  0  0  0  0  0  0  0
  153.2315  136.9247  156.6734 N   0  0  0  0  0  0  0  0  0  0  0  0
  152.4519  137.9618  156.2001 C   0  0  0  0  0  0  0  0  0  0  0  0
  151.7662  138.1119  154.9734 C   0  0  0  0  0  0  0  0  0  0  0  0
  151.0209  139.2803  154.7105 C   0  0  0  0  0  0  0  0  0  0  0  0
  150.9508  140.3134  155.6677 C   0  0  0  0  0  0  0  0  0  0  0  0
  151.6270  140.1840  156.8960 C   0  0  0  0  0  0  0  0  0  0  0  0
  152.3690  139.0154  157.1530 C   0  0  0  0  0  0  0  0  0  0  0  0
  152.8046  142.7475  160.1100 C   0  0  0  0  0  0  0  0  0  0  0  0
  150.5406  145.9342  159.7171 H   0  0  0  0  0  0  0  0  0  0  0  0
  150.6358  144.2479  159.2241 H   0  0  0  0  0  0  0  0  0  0  0  0
  152.0389  145.3250  159.0238 H   0  0  0  0  0  0  0  0  0  0  0  0
  152.8516  144.1911  163.1976 H   0  0  0  0  0  0  0  0  0  0  0  0
  154.3987  142.3559  163.6318 H   0  0  0  0  0  0  0  0  0  0  0  0
  156.4310  139.4167  163.0322 H   0  0  0  0  0  0  0  0  0  0  0  0
  155.0204  140.0925  163.8379 H   0  0  0  0  0  0  0  0  0  0  0  0
  156.3705  141.1462  163.3489 H   0  0  0  0  0  0  0  0  0  0  0  0
  153.6350  141.1051  158.2820 H   0  0  0  0  0  0  0  0  0  0  0  0
  155.8265  140.4938  159.8618 H   0  0  0  0  0  0  0  0  0  0  0  0
  153.9515  138.7279  160.1572 H   0  0  0  0  0  0  0  0  0  0  0  0
  152.3861  139.4622  159.9458 H   0  0  0  0  0  0  0  0  0  0  0  0
  155.4755  136.4892  158.3890 H   0  0  0  0  0  0  0  0  0  0  0  0
  154.5483  137.0758  159.7630 H   0  0  0  0  0  0  0  0  0  0  0  0
  154.6906  134.7541  159.4635 H   0  0  0  0  0  0  0  0  0  0  0  0
  151.8134  137.3266  154.2336 H   0  0  0  0  0  0  0  0  0  0  0  0
  150.5003  139.3842  153.7697 H   0  0  0  0  0  0  0  0  0  0  0  0
  150.3777  141.2049  155.4587 H   0  0  0  0  0  0  0  0  0  0  0  0
  151.5766  140.9730  157.6318 H   0  0  0  0  0  0  0  0  0  0  0  0
  152.3770  142.8547  159.1249 H   0  0  0  0  0  0  0  0  0  0  0  0
  1  2  1  0  0  0  0
  1 25  1  0  0  0  0
  1 26  1  0  0  0  0
  1 27  1  0  0  0  0
  2  3  1  0  0  0  0
  3 24  1  0  0  0  0
  3  4  2  0  0  0  0
  4  5  1  0  0  0  0
  4 28  1  0  0  0  0
  5  6  2  0  0  0  0
  5 29  1  0  0  0  0
  6  7  1  0  0  0  0
  6  9  1  0  0  0  0
  7  8  1  0  0  0  0
  8 30  1  0  0  0  0
  8 31  1  0  0  0  0
  8 32  1  0  0  0  0
  9 10  1  0  0  0  0
  9 24  2  0  0  0  0
 10 11  1  0  0  0  0
 10 12  1  0  0  0  0
 10 33  1  0  0  0  0
 11 34  1  0  0  0  0
 12 13  1  0  0  0  0
 12 35  1  0  0  0  0
 12 36  1  0  0  0  0
 13 23  1  0  0  0  0
 13 14  1  0  0  0  0
 14 15  1  0  0  0  0
 14 17  2  0  0  0  0
 15 16  1  0  0  0  0
 15 37  1  0  0  0  0
 15 38  1  0  0  0  0
 16 39  1  0  0  0  0
 17 18  1  0  0  0  0
 18 23  2  0  0  0  0
 18 19  1  0  0  0  0
 19 20  2  0  0  0  0
 19 40  1  0  0  0  0
 20 21  1  0  0  0  0
 20 41  1  0  0  0  0
 21 22  2  0  0  0  0
 21 42  1  0  0  0  0
 22 23  1  0  0  0  0
 22 43  1  0  0  0  0
 24 44  1  0  0  0  0
M  END
> <s_m_source_file>
AV-unprocessed.smi

> <i_m_source_file_index>
2057

> <i_lp_mmshare_version>
43012

> <i_f3d_flags>
0

> <s_epik_input>
W0NIM11PYzFbY0hdW2NIXWMoT1tDSDNdKWMoW2NIXTEpW0NASF0oW09IXSlbQ0gyXW4oYyhuMilbQ0gyXVtPSF0pYyhjMjMpW2NIXVtjSF1bY0hdW2NIXTM=

> <s_epik_cmdline>
J2VwaWtfcHl0aG9uJywgJy1waCcsICc3LjAnLCAnLXRuJywgJzgnLCAnLW1hJywgJzIwMCcsICctbWV0YWxfYmluZGluZycsICctaW1hZScsICc8aW5maWxlLm1hZT4nLCAnLW9tYWUnLCAnPG91dGZpbGUubWFlPic=

> <r_lp_tautomer_probability>
1

> <r_epik_Ionization_Penalty>
0.0634722

> <r_epik_Ionization_Penalty_Charging>
0

> <r_epik_Ionization_Penalty_Neutral>
0.0634722

> <r_epik_State_Penalty>
0.0551572

> <r_epik_Charging_Adjusted_Penalty>
0.0551572

> <i_epik_Tot_Q>
0

> <i_epik_Tot_abs_Q>
0

> <r_epik_Metal_State_Penalty>
5.78034e-05

> <b_epik_Metal_Only>
0

> <s_lp_Force_Field>
OPLS_2005

> <r_lp_Energy>
19.4747

> <b_lp_Chiralities_Consistent>
1

> <s_lp_Variant>
AV-unprocessed.smi:2057-2

> <Gold.Version>
5.8.1

> <Gold.Id.Protein>
6NUR|6NUR_protein|mol2

> <Gold.PLP.Fitness>
55.6777

> <Gold.PLP.PLP>
-48.4297

> <Gold.PLP.part.hbond>
-3.1789

> <Gold.PLP.part.metal>
0.0000

> <Gold.PLP.part.buried>
-2.0590

> <Gold.PLP.part.nonpolar>
-42.2057

> <Gold.PLP.part.repulsive>
0.1892

> <Gold.PLP.ligand.clash>
0.0000

> <Gold.PLP.ligand.torsion>
0.5603

> <Gold.PLP.Chemscore.Hbond>
2.7440

> <Gold.PLP.Chemscore.CHOScore>
0.0000

> <Gold.PLP.Chemscore.Metal>
0.0000

> <Gold.Chemscore.Hbonds>
donor molecule, donor type, donor heavy atom, donor atom, acceptor molecule, acceptor atom, score
      P1  H  6896  6909       L1    16  0.78
      P1  H  7997  8008       L1    11  0.69
      P1  H 10752 10764       L1    17  0.79

> <Gold.PLP.Chemscore.Internal.Correction>
0.1366

> <Gold.Rescore>
     Score         DG    S(hbond)    S(metal)    S(lipo)     H(rot)  DE(clash)    DE(int)     intcor
     17.08     -19.53       2.14        0.00     128.19       3.17       1.15       1.29       ----

> <Gold.Chemscore.Fitness>
17.0798

> <Gold.Chemscore.DG>
-19.5261

> <Gold.Chemscore.ZeroCoef>
-5.4800

> <Gold.Chemscore.Hbond>
2.1420

> <Gold.Chemscore.Metal>
0.0000

> <Gold.Chemscore.Lipo>
128.1882

> <Gold.Chemscore.Internal_Hbond>
0.0000

> <Gold.Chemscore.DEClash>
1.1517

> <Gold.Chemscore.DEInternal>
1.2945

> <Gold.Chemscore.Rot>
3.1665

> <Gold.Chemscore.Internal.Correction>
   9.000000E+99

> <Gold.Chemscore.Hbonds>
donor molecule, donor type, donor heavy atom, donor atom, acceptor molecule, acceptor atom, score
      P1  H  6896  6909       L1    16  0.11
      P1  H  7997  8008       L1    11  0.28
      P1  H 10752 10764       L1    17  0.68

> <Gold.Chemscore.Hbond.Weighted>
-7.1543

> <Gold.Chemscore.Metal.Weighted>
-0.0000

> <Gold.Chemscore.Lipo.Weighted>
-14.9980

> <Gold.Chemscore.Internal_Hbond.Weighted>
0.0000

> <Gold.Chemscore.DEClash.Weighted>
1.1517

> <Gold.Chemscore.DEInternal.Weighted>
1.2945

> <Gold.Chemscore.Rot.Weighted>
8.1062

> <Gold.Chemscore.Internal.Correction.Weighted>
   9.000000E+99

> <Gold.Protein.RotatedTorsions>
[ 6907 6896 6895 6894 ] final -157.77 input  -60.11 | X-H torsion
[ 7974 7965 7964 7962 ] final   63.49 input  175.53 | X-H torsion
[ 8008 7997 7996 7995 ] final -143.41 input   59.86 | X-H torsion
[ 10167 10162 10161 10158 ] final   49.89 input  -65.29 | X-H torsion
[ 10718 10713 10712 10709 ] final  157.26 input   66.30 | X-H torsion
[ 10763 10752 10751 10750 ] final    2.02 input  -60.55 | X-H torsion
[ 11005 11000 10999 10996 ] final   70.90 input  -57.11 | X-H torsion

> <Gold.Protein.ActiveResidues>
 VAL166  LYS551  ARG553  GLY616  TRP617  ASP618  TYR619  PRO620  LYS621  CYS622 
 ASP623  PHE694  ASN695  SER759  ASP760  ASP761  ALA762  ILE779  LEU786  VAL792 
 PHE793  MET794  SER795  GLU796  ALA797  LYS798  CYS799  TRP800  GLU811  SER814 

> <Gold.Protein.RotatedAtoms>
  151.3080  133.4093  159.2644 H   0  0  0  0  0  0  0  0  0  0  0  0  # atno 6907 bound_to 6896
  151.0139  134.9418  159.8032 H   0  0  0  0  0  0  0  0  0  0  0  0  # atno 6908 bound_to 6896
  152.5307  134.3044  159.9143 H   0  0  0  0  0  0  0  0  0  0  0  0  # atno 6909 bound_to 6896
  145.8613  139.3316  143.0817 H   0  0  0  0  0  0  0  0  0  0  0  0  # atno 7974 bound_to 7965
  155.5101  140.0582  157.2925 H   0  0  0  0  0  0  0  0  0  0  0  0  # atno 8008 bound_to 7997
  154.4555  140.1970  156.0341 H   0  0  0  0  0  0  0  0  0  0  0  0  # atno 8009 bound_to 7997
  156.0790  140.3249  155.7674 H   0  0  0  0  0  0  0  0  0  0  0  0  # atno 8010 bound_to 7997
  140.2781  144.3188  150.6271 H   0  0  0  0  0  0  0  0  0  0  0  0  # atno 10167 bound_to 10162
  157.1939  131.0661  151.2063 H   0  0  0  0  0  0  0  0  0  0  0  0  # atno 10718 bound_to 10713
  153.3007  135.6955  153.7206 H   0  0  0  0  0  0  0  0  0  0  0  0  # atno 10763 bound_to 10752
  153.6121  135.3442  155.2983 H   0  0  0  0  0  0  0  0  0  0  0  0  # atno 10764 bound_to 10752
  154.8550  135.4366  154.2117 H   0  0  0  0  0  0  0  0  0  0  0  0  # atno 10765 bound_to 10752
  139.9572  134.7123  156.0726 H   0  0  0  0  0  0  0  0  0  0  0  0  # atno 11005 bound_to 11000
  145.9245  140.9092  143.0388 LP  0  0  0  0  0  0  0  0  0  0  0  0  # atno 17320 bound_to 7965
  144.6726  140.1334  143.7442 LP  0  0  0  0  0  0  0  0  0  0  0  0  # atno 17321 bound_to 7965
  140.5834  143.2171  151.7386 LP  0  0  0  0  0  0  0  0  0  0  0  0  # atno 17342 bound_to 10162
  139.4970  144.4046  152.0145 LP  0  0  0  0  0  0  0  0  0  0  0  0  # atno 17343 bound_to 10162
  157.3833  130.7243  149.6645 LP  0  0  0  0  0  0  0  0  0  0  0  0  # atno 17370 bound_to 10713
  155.9708  130.4166  150.4240 LP  0  0  0  0  0  0  0  0  0  0  0  0  # atno 17371 bound_to 10713
  141.1245  133.6603  156.3301 LP  0  0  0  0  0  0  0  0  0  0  0  0  # atno 17394 bound_to 11000
  140.5581  134.5961  157.5426 LP  0  0  0  0  0  0  0  0  0  0  0  0  # atno 17395 bound_to 11000

$$$$
