AV-unprocessed.smi:451|AV-procd|sdf|2609|dock6
  -GOLD-   2262023 03D 1   1.00000     0.00000
 Structure written by MMmdl.
 38 38  0  0  0  0  0  0  0  0  1 V2000
  147.0696  140.7933  153.1499 C   0  0  0  0  0  0  0  0  0  0  0  0
  147.9871  140.4576  154.3329 C   0  0  0  0  0  0  0  0  0  0  0  0
  149.1862  141.4123  154.5034 C   0  0  0  0  0  0  0  0  0  0  0  0
  150.2028  140.9261  155.4197 N   0  0  0  0  0  0  0  0  0  0  0  0
  150.5886  141.6211  156.5697 C   0  0  0  0  0  0  0  0  0  0  0  0
  149.9782  142.8390  156.8280 N   0  0  0  0  0  0  0  0  0  0  0  0
  151.5437  141.1420  157.4204 C   0  0  0  0  0  0  0  0  0  0  0  0
  151.9403  141.8049  158.5808 N   0  0  0  0  0  0  0  0  0  0  0  0
  152.9653  141.2548  159.4602 C   0  0  0  0  0  0  0  0  0  0  0  0
  151.2806  143.0252  159.0391 C   0  0  0  0  0  0  0  0  0  0  0  0
  152.2822  144.1615  159.3164 C   0  0  0  0  0  0  0  0  0  0  0  0
  152.0918  144.7368  160.6016 O   0  0  0  0  0  0  0  0  0  0  0  0
  152.3234  143.8439  161.6802 C   0  0  0  0  0  0  0  0  0  0  0  0
  152.1972  139.8552  157.1490 C   0  0  0  0  0  0  0  0  0  0  0  0
  153.0591  139.3240  157.8490 O   0  0  0  0  0  0  0  0  0  0  0  0
  151.7679  139.2084  155.9932 N   0  0  0  0  0  0  0  0  0  0  0  0
  150.7982  139.6776  155.1150 C   0  0  0  0  0  0  0  0  0  0  0  0
  150.4984  138.9973  154.1333 O   0  0  0  0  0  0  0  0  0  0  0  0
  152.1933  138.3185  155.7786 H   0  0  0  0  0  0  0  0  0  0  0  0
  146.2079  140.1260  153.1278 H   0  0  0  0  0  0  0  0  0  0  0  0
  147.5903  140.6873  152.1981 H   0  0  0  0  0  0  0  0  0  0  0  0
  146.6968  141.8158  153.2186 H   0  0  0  0  0  0  0  0  0  0  0  0
  147.3957  140.4792  155.2487 H   0  0  0  0  0  0  0  0  0  0  0  0
  148.3412  139.4316  154.2309 H   0  0  0  0  0  0  0  0  0  0  0  0
  149.6503  141.6524  153.5461 H   0  0  0  0  0  0  0  0  0  0  0  0
  148.8618  142.3740  154.9014 H   0  0  0  0  0  0  0  0  0  0  0  0
  149.2760  143.2195  156.2102 H   0  0  0  0  0  0  0  0  0  0  0  0
  150.1957  143.3818  157.6512 H   0  0  0  0  0  0  0  0  0  0  0  0
  153.6023  140.5534  158.9199 H   0  0  0  0  0  0  0  0  0  0  0  0
  152.5141  140.7236  160.2982 H   0  0  0  0  0  0  0  0  0  0  0  0
  153.6045  142.0434  159.8584 H   0  0  0  0  0  0  0  0  0  0  0  0
  150.5547  143.3429  158.2897 H   0  0  0  0  0  0  0  0  0  0  0  0
  150.7078  142.8069  159.9401 H   0  0  0  0  0  0  0  0  0  0  0  0
  153.3105  143.8168  159.1955 H   0  0  0  0  0  0  0  0  0  0  0  0
  152.1373  144.9604  158.5894 H   0  0  0  0  0  0  0  0  0  0  0  0
  152.2301  144.3841  162.6222 H   0  0  0  0  0  0  0  0  0  0  0  0
  153.3278  143.4211  161.6367 H   0  0  0  0  0  0  0  0  0  0  0  0
  151.6002  143.0291  161.6965 H   0  0  0  0  0  0  0  0  0  0  0  0
  1  2  1  0  0  0  0
  1 20  1  0  0  0  0
  1 21  1  0  0  0  0
  1 22  1  0  0  0  0
  2  3  1  0  0  0  0
  2 23  1  0  0  0  0
  2 24  1  0  0  0  0
  3  4  1  0  0  0  0
  3 25  1  0  0  0  0
  3 26  1  0  0  0  0
  4 17  1  0  0  0  0
  4  5  1  0  0  0  0
  5  6  1  0  0  0  0
  5  7  2  0  0  0  0
  6 27  1  0  0  0  0
  6 28  1  0  0  0  0
  7  8  1  0  0  0  0
  7 14  1  0  0  0  0
  8  9  1  0  0  0  0
  8 10  1  0  0  0  0
  9 29  1  0  0  0  0
  9 30  1  0  0  0  0
  9 31  1  0  0  0  0
 10 11  1  0  0  0  0
 10 32  1  0  0  0  0
 10 33  1  0  0  0  0
 11 12  1  0  0  0  0
 11 34  1  0  0  0  0
 11 35  1  0  0  0  0
 12 13  1  0  0  0  0
 13 36  1  0  0  0  0
 13 37  1  0  0  0  0
 13 38  1  0  0  0  0
 14 15  2  0  0  0  0
 14 16  1  0  0  0  0
 16 19  1  0  0  0  0
 16 17  1  0  0  0  0
 17 18  2  0  0  0  0
M  END
> <s_m_source_file>
AV-unprocessed.smi

> <i_m_source_file_index>
451

> <i_lp_mmshare_version>
43012

> <i_f3d_flags>
0

> <s_epik_input>
W0NIM11bQ0gyXVtDSDJdbjFjKFtOSDJdKWMoYyg9TylbbkhdYzE9TylOKFtDSDNdKVtDSDJdW0NIMl1PW0NIM10=

> <s_epik_cmdline>
J2VwaWtfcHl0aG9uJywgJy1waCcsICc3LjAnLCAnLXRuJywgJzgnLCAnLW1hJywgJzIwMCcsICctbWV0YWxfYmluZGluZycsICctaW1hZScsICc8aW5maWxlLm1hZT4nLCAnLW9tYWUnLCAnPG91dGZpbGUubWFlPic=

> <r_lp_tautomer_probability>
1

> <r_epik_Ionization_Penalty>
2.19941e-05

> <r_epik_Ionization_Penalty_Charging>
2.62604e-06

> <r_epik_Ionization_Penalty_Neutral>
1.93681e-05

> <r_epik_State_Penalty>
-0

> <r_epik_Charging_Adjusted_Penalty>
2.62604e-06

> <i_epik_Tot_Q>
0

> <i_epik_Tot_abs_Q>
0

> <r_epik_Metal_State_Penalty>
-0

> <b_epik_Metal_Only>
0

> <s_epik_Chemistry_Notes>
This compound has an imine and may undergo hydrolysis.

> <s_lp_Force_Field>
OPLS_2005

> <r_lp_Energy>
22.0879

> <b_lp_Chiralities_Consistent>
1

> <s_lp_Variant>
AV-unprocessed.smi:451-1

> <Gold.Version>
5.8.1

> <Gold.Id.Protein>
6NUR|6NUR_protein|mol2

> <Gold.PLP.Fitness>
41.3121

> <Gold.PLP.PLP>
-37.1372

> <Gold.PLP.part.hbond>
-2.1198

> <Gold.PLP.part.metal>
0.0000

> <Gold.PLP.part.buried>
-2.1531

> <Gold.PLP.part.nonpolar>
-31.6463

> <Gold.PLP.part.repulsive>
0.4978

> <Gold.PLP.ligand.clash>
21.3575

> <Gold.PLP.ligand.torsion>
0.4475

> <Gold.PLP.Chemscore.Hbond>
1.7040

> <Gold.PLP.Chemscore.CHOScore>
0.0000

> <Gold.PLP.Chemscore.Metal>
0.0000

> <Gold.Chemscore.Hbonds>
donor molecule, donor type, donor heavy atom, donor atom, acceptor molecule, acceptor atom, score
      L1  H     6    27       P1  8028  0.70
      P1  H  7997  8010       L1    15  1.00

> <Gold.PLP.Chemscore.Internal.Correction>
21.3153

> <Gold.Rescore>
     Score         DG    S(hbond)    S(metal)    S(lipo)     H(rot)  DE(clash)    DE(int)     intcor
      8.89     -13.11       1.31        0.00      71.59       2.00       0.20       4.02       ----

> <Gold.Chemscore.Fitness>
8.8945

> <Gold.Chemscore.DG>
-13.1143

> <Gold.Chemscore.ZeroCoef>
-5.4800

> <Gold.Chemscore.Hbond>
1.3131

> <Gold.Chemscore.Metal>
0.0000

> <Gold.Chemscore.Lipo>
71.5925

> <Gold.Chemscore.Internal_Hbond>
0.0000

> <Gold.Chemscore.DEClash>
0.1992

> <Gold.Chemscore.DEInternal>
4.0206

> <Gold.Chemscore.Rot>
2.0031

> <Gold.Chemscore.Internal.Correction>
   9.000000E+99

> <Gold.Chemscore.Hbonds>
donor molecule, donor type, donor heavy atom, donor atom, acceptor molecule, acceptor atom, score
      L1  H     6    27       P1  8028  0.72
      P1  H  7997  8010       L1    15  0.30

> <Gold.Chemscore.Hbond.Weighted>
-4.3858

> <Gold.Chemscore.Metal.Weighted>
-0.0000

> <Gold.Chemscore.Lipo.Weighted>
-8.3763

> <Gold.Chemscore.Internal_Hbond.Weighted>
0.0000

> <Gold.Chemscore.DEClash.Weighted>
0.1992

> <Gold.Chemscore.DEInternal.Weighted>
4.0206

> <Gold.Chemscore.Rot.Weighted>
5.1278

> <Gold.Chemscore.Internal.Correction.Weighted>
   9.000000E+99

> <Gold.Protein.RotatedTorsions>
[ 6907 6896 6895 6894 ] final  -50.51 input  -60.11 | X-H torsion
[ 7974 7965 7964 7962 ] final  130.57 input  175.53 | X-H torsion
[ 8008 7997 7996 7995 ] final   28.72 input   59.86 | X-H torsion
[ 10167 10162 10161 10158 ] final  117.74 input  -65.29 | X-H torsion
[ 10718 10713 10712 10709 ] final  -37.11 input   66.30 | X-H torsion
[ 10763 10752 10751 10750 ] final  -79.26 input  -60.55 | X-H torsion
[ 11005 11000 10999 10996 ] final  -75.91 input  -57.11 | X-H torsion

> <Gold.Protein.ActiveResidues>
 VAL166  LYS551  ARG553  GLY616  TRP617  ASP618  TYR619  PRO620  LYS621  CYS622 
 ASP623  PHE694  ASN695  SER759  ASP760  ASP761  ALA762  ILE779  LEU786  VAL792 
 PHE793  MET794  SER795  GLU796  ALA797  LYS798  CYS799  TRP800  GLU811  SER814 

> <Gold.Protein.RotatedAtoms>
  150.8700  134.8072  159.7147 H   0  0  0  0  0  0  0  0  0  0  0  0  # atno 6907 bound_to 6896
  152.4708  134.4961  159.9720 H   0  0  0  0  0  0  0  0  0  0  0  0  # atno 6908 bound_to 6896
  151.5051  133.3458  159.2911 H   0  0  0  0  0  0  0  0  0  0  0  0  # atno 6909 bound_to 6896
  145.0165  139.4172  143.5219 H   0  0  0  0  0  0  0  0  0  0  0  0  # atno 7974 bound_to 7965
  155.0631  140.3192  155.4654 H   0  0  0  0  0  0  0  0  0  0  0  0  # atno 8008 bound_to 7997
  156.2808  140.2125  156.5703 H   0  0  0  0  0  0  0  0  0  0  0  0  # atno 8009 bound_to 7997
  154.7115  140.0497  157.0542 H   0  0  0  0  0  0  0  0  0  0  0  0  # atno 8010 bound_to 7997
  139.6158  144.7091  151.2742 H   0  0  0  0  0  0  0  0  0  0  0  0  # atno 10167 bound_to 10162
  156.3190  130.4263  149.7978 H   0  0  0  0  0  0  0  0  0  0  0  0  # atno 10718 bound_to 10713
  154.5364  135.5701  153.6802 H   0  0  0  0  0  0  0  0  0  0  0  0  # atno 10763 bound_to 10752
  152.9952  135.6217  154.2560 H   0  0  0  0  0  0  0  0  0  0  0  0  # atno 10764 bound_to 10752
  154.2489  135.2860  155.2804 H   0  0  0  0  0  0  0  0  0  0  0  0  # atno 10765 bound_to 10752
  141.1649  133.6964  156.7588 H   0  0  0  0  0  0  0  0  0  0  0  0  # atno 11005 bound_to 11000
  146.3478  139.9638  142.8714 LP  0  0  0  0  0  0  0  0  0  0  0  0  # atno 17320 bound_to 7965
  145.1953  140.9830  143.4187 LP  0  0  0  0  0  0  0  0  0  0  0  0  # atno 17321 bound_to 7965
  140.7350  143.6749  150.8050 LP  0  0  0  0  0  0  0  0  0  0  0  0  # atno 17342 bound_to 10162
  140.0352  143.5403  152.2742 LP  0  0  0  0  0  0  0  0  0  0  0  0  # atno 17343 bound_to 10162
  156.5293  130.8250  151.3231 LP  0  0  0  0  0  0  0  0  0  0  0  0  # atno 17370 bound_to 10713
  157.7408  130.9857  150.2400 LP  0  0  0  0  0  0  0  0  0  0  0  0  # atno 17371 bound_to 10713
  140.2549  134.8512  157.3703 LP  0  0  0  0  0  0  0  0  0  0  0  0  # atno 17394 bound_to 11000
  140.1667  134.4660  155.7858 LP  0  0  0  0  0  0  0  0  0  0  0  0  # atno 17395 bound_to 11000

$$$$
