AV-unprocessed.smi:2940|AV-procd|sdf|11262|dock1
  -GOLD-   2272016153D 1   1.00000     0.00000
 Structure written by MMmdl.
 26 27  0  0  0  0  0  0  0  0  1 V2000
  150.4594  138.8859  153.7058 N   0  0  0  0  0  0  0  0  0  0  0  0
  150.7293  139.6949  154.8064 C   0  0  0  0  0  0  0  0  0  0  0  0
  151.5711  139.2291  155.8362 C   0  0  0  0  0  0  0  0  0  0  0  0
  151.8207  140.0757  156.9333 C   0  0  0  0  0  0  0  0  0  0  0  0
  151.2205  141.3552  156.9612 C   0  0  0  0  0  0  0  0  0  0  0  0
  151.4189  142.2536  158.0191 N   0  0  0  0  0  0  0  0  0  0  0  0
  152.4320  141.8125  158.9694 C   0  0  0  0  0  0  0  0  0  0  0  0
  152.5026  142.7901  160.1559 C   0  0  0  0  0  0  0  0  0  0  0  0
  152.7471  144.1089  159.6749 O   0  0  0  0  0  0  0  0  0  0  0  0
  151.7131  144.5608  158.8049 C   0  0  0  0  0  0  0  0  0  0  0  0
  151.6229  143.6295  157.5831 C   0  0  0  0  0  0  0  0  0  0  0  0
  150.3944  141.7202  155.8769 C   0  0  0  0  0  0  0  0  0  0  0  0
  150.1503  140.9140  154.8210 N   0  0  0  0  0  0  0  0  0  0  0  0
  149.8597  139.1959  152.9549 H   0  0  0  0  0  0  0  0  0  0  0  0
  150.8551  137.9604  153.6260 H   0  0  0  0  0  0  0  0  0  0  0  0
  152.0169  138.2461  155.7898 H   0  0  0  0  0  0  0  0  0  0  0  0
  152.4614  139.7438  157.7371 H   0  0  0  0  0  0  0  0  0  0  0  0
  152.1939  140.8096  159.3259 H   0  0  0  0  0  0  0  0  0  0  0  0
  153.4040  141.7596  158.4769 H   0  0  0  0  0  0  0  0  0  0  0  0
  151.5771  142.7685  160.7336 H   0  0  0  0  0  0  0  0  0  0  0  0
  153.3076  142.5034  160.8323 H   0  0  0  0  0  0  0  0  0  0  0  0
  150.7625  144.5947  159.3398 H   0  0  0  0  0  0  0  0  0  0  0  0
  151.9363  145.5790  158.4864 H   0  0  0  0  0  0  0  0  0  0  0  0
  152.5401  143.7014  156.9971 H   0  0  0  0  0  0  0  0  0  0  0  0
  150.8002  143.9392  156.9376 H   0  0  0  0  0  0  0  0  0  0  0  0
  149.9142  142.6876  155.8545 H   0  0  0  0  0  0  0  0  0  0  0  0
  1  2  1  0  0  0  0
  1 14  1  0  0  0  0
  1 15  1  0  0  0  0
  2 13  1  0  0  0  0
  2  3  2  0  0  0  0
  3  4  1  0  0  0  0
  3 16  1  0  0  0  0
  4  5  2  0  0  0  0
  4 17  1  0  0  0  0
  5  6  1  0  0  0  0
  5 12  1  0  0  0  0
  6 11  1  0  0  0  0
  6  7  1  0  0  0  0
  7  8  1  0  0  0  0
  7 18  1  0  0  0  0
  7 19  1  0  0  0  0
  8  9  1  0  0  0  0
  8 20  1  0  0  0  0
  8 21  1  0  0  0  0
  9 10  1  0  0  0  0
 10 11  1  0  0  0  0
 10 22  1  0  0  0  0
 10 23  1  0  0  0  0
 11 24  1  0  0  0  0
 11 25  1  0  0  0  0
 12 13  2  0  0  0  0
 12 26  1  0  0  0  0
M  END
> <s_m_source_file>
AV-unprocessed.smi

> <i_m_source_file_index>
2940

> <i_lp_mmshare_version>
43012

> <i_f3d_flags>
0

> <s_epik_input>
W05IMl1jMVtjSF1bY0hdYyhbY0hdbjEpTjJbQ0gyXVtDSDJdT1tDSDJdW0NIMl0y

> <s_epik_cmdline>
J2VwaWtfcHl0aG9uJywgJy1waCcsICc3LjAnLCAnLXRuJywgJzgnLCAnLW1hJywgJzIwMCcsICctbWV0YWxfYmluZGluZycsICctaW1hZScsICc8aW5maWxlLm1hZT4nLCAnLW9tYWUnLCAnPG91dGZpbGUubWFlPic=

> <r_lp_tautomer_probability>
1

> <r_epik_Ionization_Penalty>
0.109499

> <r_epik_Ionization_Penalty_Charging>
0

> <r_epik_Ionization_Penalty_Neutral>
0.109499

> <r_epik_State_Penalty>
0.0992404

> <r_epik_Charging_Adjusted_Penalty>
0.0992404

> <i_epik_Tot_Q>
0

> <i_epik_Tot_abs_Q>
0

> <r_epik_Metal_State_Penalty>
0.000108026

> <b_epik_Metal_Only>
0

> <s_lp_Force_Field>
OPLS_2005

> <r_lp_Energy>
21.5337

> <b_lp_Chiralities_Consistent>
1

> <s_lp_Variant>
AV-unprocessed.smi:2940-1

> <Gold.Version>
5.8.1

> <Gold.Id.Protein>
6NUR|6NUR_protein|mol2

> <Gold.PLP.Fitness>
33.4802

> <Gold.PLP.PLP>
-28.3076

> <Gold.PLP.part.hbond>
-2.0000

> <Gold.PLP.part.metal>
0.0000

> <Gold.PLP.part.buried>
-1.3398

> <Gold.PLP.part.nonpolar>
-24.3092

> <Gold.PLP.part.repulsive>
0.2494

> <Gold.PLP.ligand.clash>
0.1746

> <Gold.PLP.ligand.torsion>
0.3054

> <Gold.PLP.Chemscore.Hbond>
0.9516

> <Gold.PLP.Chemscore.CHOScore>
1.0000

> <Gold.PLP.Chemscore.Metal>
0.0000

> <Gold.Chemscore.Hbonds>
donor molecule, donor type, donor heavy atom, donor atom, acceptor molecule, acceptor atom, score
      L1  H     1    14       P1  7957  1.00
      L1  C    12    26       P1  8028  1.00

> <Gold.PLP.Chemscore.Internal.Correction>
0.1032

> <Gold.Rescore>
     Score         DG    S(hbond)    S(metal)    S(lipo)     H(rot)  DE(clash)    DE(int)     intcor
     13.54     -14.17       0.75        0.00      74.90       1.00       0.39       0.24       ----

> <Gold.Chemscore.Fitness>
13.5357

> <Gold.Chemscore.DG>
-14.1717

> <Gold.Chemscore.ZeroCoef>
-5.4800

> <Gold.Chemscore.Hbond>
0.7451

> <Gold.Chemscore.Metal>
0.0000

> <Gold.Chemscore.Lipo>
74.8980

> <Gold.Chemscore.Internal_Hbond>
0.0000

> <Gold.Chemscore.DEClash>
0.3919

> <Gold.Chemscore.DEInternal>
0.2441

> <Gold.Chemscore.Rot>
1.0000

> <Gold.Chemscore.Internal.Correction>
   9.000000E+99

> <Gold.Chemscore.Hbonds>
donor molecule, donor type, donor heavy atom, donor atom, acceptor molecule, acceptor atom, score
      L1  H     1    14       P1  7957  0.89

> <Gold.Chemscore.Hbond.Weighted>
-2.4887

> <Gold.Chemscore.Metal.Weighted>
-0.0000

> <Gold.Chemscore.Lipo.Weighted>
-8.7631

> <Gold.Chemscore.Internal_Hbond.Weighted>
0.0000

> <Gold.Chemscore.DEClash.Weighted>
0.3919

> <Gold.Chemscore.DEInternal.Weighted>
0.2441

> <Gold.Chemscore.Rot.Weighted>
2.5600

> <Gold.Chemscore.Internal.Correction.Weighted>
   9.000000E+99

> <Gold.Protein.RotatedTorsions>
[ 6907 6896 6895 6894 ] final  150.94 input  -60.11 | X-H torsion
[ 7974 7965 7964 7962 ] final  137.33 input  175.53 | X-H torsion
[ 8008 7997 7996 7995 ] final -136.67 input   59.86 | X-H torsion
[ 10167 10162 10161 10158 ] final -174.99 input  -65.29 | X-H torsion
[ 10718 10713 10712 10709 ] final   17.48 input   66.30 | X-H torsion
[ 10763 10752 10751 10750 ] final -109.69 input  -60.55 | X-H torsion
[ 11005 11000 10999 10996 ] final  -12.13 input  -57.11 | X-H torsion

> <Gold.Protein.ActiveResidues>
 VAL166  LYS551  ARG553  GLY616  TRP617  ASP618  TYR619  PRO620  LYS621  CYS622 
 ASP623  PHE694  ASN695  SER759  ASP760  ASP761  ALA762  ILE779  LEU786  VAL792 
 PHE793  MET794  SER795  GLU796  ALA797  LYS798  CYS799  TRP800  GLU811  SER814 

> <Gold.Protein.RotatedAtoms>
  152.1075  133.4283  159.4615 H   0  0  0  0  0  0  0  0  0  0  0  0  # atno 6907 bound_to 6896
  150.6866  134.2687  159.4588 H   0  0  0  0  0  0  0  0  0  0  0  0  # atno 6908 bound_to 6896
  152.0553  134.9628  160.0625 H   0  0  0  0  0  0  0  0  0  0  0  0  # atno 6909 bound_to 6896
  144.9478  139.4854  143.5540 H   0  0  0  0  0  0  0  0  0  0  0  0  # atno 7974 bound_to 7965
  155.3991  140.0505  157.3037 H   0  0  0  0  0  0  0  0  0  0  0  0  # atno 8008 bound_to 7997
  154.4999  140.2153  155.9328 H   0  0  0  0  0  0  0  0  0  0  0  0  # atno 8009 bound_to 7997
  156.1454  140.3146  155.8567 H   0  0  0  0  0  0  0  0  0  0  0  0  # atno 8010 bound_to 7997
  139.5604  144.1883  152.1230 H   0  0  0  0  0  0  0  0  0  0  0  0  # atno 10167 bound_to 10162
  157.0827  130.6394  149.5830 H   0  0  0  0  0  0  0  0  0  0  0  0  # atno 10718 bound_to 10713
  154.8207  135.4592  154.0770 H   0  0  0  0  0  0  0  0  0  0  0  0  # atno 10763 bound_to 10752
  153.2126  135.6884  153.8102 H   0  0  0  0  0  0  0  0  0  0  0  0  # atno 10764 bound_to 10752
  153.7547  135.3293  155.3304 H   0  0  0  0  0  0  0  0  0  0  0  0  # atno 10765 bound_to 10752
  140.7625  133.8504  155.9137 H   0  0  0  0  0  0  0  0  0  0  0  0  # atno 11005 bound_to 11000
  146.3310  139.8543  142.8867 LP  0  0  0  0  0  0  0  0  0  0  0  0  # atno 17320 bound_to 7965
  145.2890  141.0161  143.3674 LP  0  0  0  0  0  0  0  0  0  0  0  0  # atno 17321 bound_to 7965
  140.1396  144.5214  150.6752 LP  0  0  0  0  0  0  0  0  0  0  0  0  # atno 17342 bound_to 10162
  140.6883  143.2362  151.5200 LP  0  0  0  0  0  0  0  0  0  0  0  0  # atno 17343 bound_to 10162
  155.9919  130.4975  150.7319 LP  0  0  0  0  0  0  0  0  0  0  0  0  # atno 17370 bound_to 10713
  157.4787  131.0900  151.0561 LP  0  0  0  0  0  0  0  0  0  0  0  0  # atno 17371 bound_to 10713
  140.9650  134.1606  157.4623 LP  0  0  0  0  0  0  0  0  0  0  0  0  # atno 17394 bound_to 11000
  139.8768  134.9958  156.5764 LP  0  0  0  0  0  0  0  0  0  0  0  0  # atno 17395 bound_to 11000

$$$$
