AV-unprocessed.smi:3154|AV-procd|sdf|12024|dock2
  -GOLD-   2272017443D 1   1.00000     0.00000
 Structure written by MMmdl.
 34 35  0  0  0  0  0  0  0  0  1 V2000
  147.1601  141.8319  153.9938 C   0  0  0  0  0  0  0  0  0  0  0  0
  148.0793  140.6030  153.8825 C   0  0  1  0  0  0  0  0  0  0  0  0
  149.1668  140.5681  154.9839 C   0  0  0  0  0  0  0  0  0  0  0  0
  150.2055  139.5868  154.7247 N   0  0  0  0  0  0  0  0  0  0  0  0
  150.0756  138.3181  154.2000 C   0  0  0  0  0  0  0  0  0  0  0  0
  151.3270  137.7755  154.1337 C   0  0  0  0  0  0  0  0  0  0  0  0
  152.1686  138.8050  154.6401 C   0  0  0  0  0  0  0  0  0  0  0  0
  151.4952  139.8895  154.9885 N   0  0  0  0  0  0  0  0  0  0  0  0
  147.2267  139.4202  153.9515 N   0  0  0  0  0  0  0  0  0  0  0  0
  146.7962  138.9499  152.6284 C   0  0  0  0  0  0  0  0  0  0  0  0
  145.8844  137.7311  152.7475 C   0  0  0  0  0  0  0  0  0  0  0  0
  144.8663  137.7887  153.4367 O   0  0  0  0  0  0  0  0  0  0  0  0
  146.2627  136.6382  152.0679 N   0  0  0  0  0  0  0  0  0  0  0  0
  145.5598  135.3969  152.0352 C   0  0  0  0  0  0  0  0  0  0  0  0
  146.1595  134.2712  151.2209 C   0  0  0  0  0  0  0  0  0  0  0  0
  144.9307  134.9810  150.7229 C   0  0  0  0  0  0  0  0  0  0  0  0
  147.7158  142.7602  153.8598 H   0  0  0  0  0  0  0  0  0  0  0  0
  146.6706  141.8757  154.9675 H   0  0  0  0  0  0  0  0  0  0  0  0
  146.3818  141.8134  153.2299 H   0  0  0  0  0  0  0  0  0  0  0  0
  148.5550  140.6395  152.9011 H   0  0  0  0  0  0  0  0  0  0  0  0
  149.6389  141.5473  155.0757 H   0  0  0  0  0  0  0  0  0  0  0  0
  148.7360  140.3385  155.9583 H   0  0  0  0  0  0  0  0  0  0  0  0
  149.1144  137.9105  153.9234 H   0  0  0  0  0  0  0  0  0  0  0  0
  151.6002  136.7937  153.7761 H   0  0  0  0  0  0  0  0  0  0  0  0
  153.2417  138.7974  154.7626 H   0  0  0  0  0  0  0  0  0  0  0  0
  146.4266  139.6409  154.5266 H   0  0  0  0  0  0  0  0  0  0  0  0
  146.2670  139.7459  152.1019 H   0  0  0  0  0  0  0  0  0  0  0  0
  147.6577  138.6768  152.0198 H   0  0  0  0  0  0  0  0  0  0  0  0
  147.1162  136.6908  151.5310 H   0  0  0  0  0  0  0  0  0  0  0  0
  145.0243  135.1014  152.9363 H   0  0  0  0  0  0  0  0  0  0  0  0
  147.0955  134.4618  150.6992 H   0  0  0  0  0  0  0  0  0  0  0  0
  146.0359  133.2585  151.5992 H   0  0  0  0  0  0  0  0  0  0  0  0
  143.9863  134.4422  150.7681 H   0  0  0  0  0  0  0  0  0  0  0  0
  145.0465  135.6456  149.8689 H   0  0  0  0  0  0  0  0  0  0  0  0
  1  2  1  0  0  0  0
  1 17  1  0  0  0  0
  1 18  1  0  0  0  0
  1 19  1  0  0  0  0
  2  3  1  0  0  0  0
  2  9  1  0  0  0  0
  2 20  1  0  0  0  0
  3  4  1  0  0  0  0
  3 21  1  0  0  0  0
  3 22  1  0  0  0  0
  4  8  1  0  0  0  0
  4  5  1  0  0  0  0
  5  6  2  0  0  0  0
  5 23  1  0  0  0  0
  6  7  1  0  0  0  0
  6 24  1  0  0  0  0
  7  8  2  0  0  0  0
  7 25  1  0  0  0  0
  9 10  1  0  0  0  0
  9 26  1  0  0  0  0
 10 11  1  0  0  0  0
 10 27  1  0  0  0  0
 10 28  1  0  0  0  0
 11 12  2  0  0  0  0
 11 13  1  0  0  0  0
 13 14  1  0  0  0  0
 13 29  1  0  0  0  0
 14 16  1  0  0  0  0
 14 15  1  0  0  0  0
 14 30  1  0  0  0  0
 15 16  1  0  0  0  0
 15 31  1  0  0  0  0
 15 32  1  0  0  0  0
 16 33  1  0  0  0  0
 16 34  1  0  0  0  0
M  END
> <s_m_source_file>
AV-unprocessed.smi

> <i_m_source_file_index>
3154

> <i_lp_mmshare_version>
43012

> <i_f3d_flags>
0

> <s_epik_input>
bjFbY0hdW2NIXVtjSF1uMVtDSDJdW0NAQEhdKFtDSDNdKVtOSF1bQ0gyXUMoPU8pW05IXVtDSF0yW0NIMl1bQ0gyXTI=

> <s_epik_cmdline>
J2VwaWtfcHl0aG9uJywgJy1waCcsICc3LjAnLCAnLXRuJywgJzgnLCAnLW1hJywgJzIwMCcsICctbWV0YWxfYmluZGluZycsICctaW1hZScsICc8aW5maWxlLm1hZT4nLCAnLW9tYWUnLCAnPG91dGZpbGUubWFlPic=

> <r_lp_tautomer_probability>
1

> <r_epik_Ionization_Penalty>
1.00229

> <r_epik_Ionization_Penalty_Charging>
0

> <r_epik_Ionization_Penalty_Neutral>
1.00229

> <r_epik_State_Penalty>
1.0509

> <r_epik_Charging_Adjusted_Penalty>
1.0509

> <i_epik_Tot_Q>
0

> <i_epik_Tot_abs_Q>
0

> <r_epik_Metal_State_Penalty>
1.05084

> <b_epik_Metal_Only>
0

> <s_lp_Force_Field>
OPLS_2005

> <r_lp_Energy>
18.1237

> <b_lp_Chiralities_Consistent>
1

> <s_lp_Variant>
AV-unprocessed.smi:3154-4

> <Gold.Version>
5.8.1

> <Gold.Id.Protein>
6NUR|6NUR_protein|mol2

> <Gold.PLP.Fitness>
37.3783

> <Gold.PLP.PLP>
-33.2898

> <Gold.PLP.part.hbond>
-2.0000

> <Gold.PLP.part.metal>
0.0000

> <Gold.PLP.part.buried>
-4.3578

> <Gold.PLP.part.nonpolar>
-28.7287

> <Gold.PLP.part.repulsive>
0.6238

> <Gold.PLP.ligand.clash>
0.0000

> <Gold.PLP.ligand.torsion>
0.8618

> <Gold.PLP.Chemscore.Hbond>
1.4180

> <Gold.PLP.Chemscore.CHOScore>
0.4839

> <Gold.PLP.Chemscore.Metal>
0.0000

> <Gold.Chemscore.Hbonds>
donor molecule, donor type, donor heavy atom, donor atom, acceptor molecule, acceptor atom, score
      L1  H    13    29       P1  7948  0.72
      P1  H  7989  7998       L1     8  0.65
      L1  C     5    23       P1  7948  0.55

> <Gold.PLP.Chemscore.Internal.Correction>
0.1061

> <Gold.Rescore>
     Score         DG    S(hbond)    S(metal)    S(lipo)     H(rot)  DE(clash)    DE(int)     intcor
     10.41     -11.20       0.97        0.00      67.53       2.12       0.06       0.73       ----

> <Gold.Chemscore.Fitness>
10.4131

> <Gold.Chemscore.DG>
-11.2019

> <Gold.Chemscore.ZeroCoef>
-5.4800

> <Gold.Chemscore.Hbond>
0.9744

> <Gold.Chemscore.Metal>
0.0000

> <Gold.Chemscore.Lipo>
67.5305

> <Gold.Chemscore.Internal_Hbond>
0.0000

> <Gold.Chemscore.DEClash>
0.0609

> <Gold.Chemscore.DEInternal>
0.7280

> <Gold.Chemscore.Rot>
2.1225

> <Gold.Chemscore.Internal.Correction>
   9.000000E+99

> <Gold.Chemscore.Hbonds>
donor molecule, donor type, donor heavy atom, donor atom, acceptor molecule, acceptor atom, score
      L1  H    13    29       P1  7948  0.72
      P1  H  7989  7998       L1     8  0.02

> <Gold.Chemscore.Hbond.Weighted>
-3.2545

> <Gold.Chemscore.Metal.Weighted>
-0.0000

> <Gold.Chemscore.Lipo.Weighted>
-7.9011

> <Gold.Chemscore.Internal_Hbond.Weighted>
0.0000

> <Gold.Chemscore.DEClash.Weighted>
0.0609

> <Gold.Chemscore.DEInternal.Weighted>
0.7280

> <Gold.Chemscore.Rot.Weighted>
5.4337

> <Gold.Chemscore.Internal.Correction.Weighted>
   9.000000E+99

> <Gold.Protein.RotatedTorsions>
[ 6907 6896 6895 6894 ] final  114.37 input  -60.11 | X-H torsion
[ 7974 7965 7964 7962 ] final  152.59 input  175.53 | X-H torsion
[ 8008 7997 7996 7995 ] final -145.44 input   59.86 | X-H torsion
[ 10167 10162 10161 10158 ] final   50.19 input  -65.29 | X-H torsion
[ 10718 10713 10712 10709 ] final   75.05 input   66.30 | X-H torsion
[ 10763 10752 10751 10750 ] final  102.68 input  -60.55 | X-H torsion
[ 11005 11000 10999 10996 ] final -145.35 input  -57.11 | X-H torsion

> <Gold.Protein.ActiveResidues>
 VAL166  LYS551  ARG553  GLY616  TRP617  ASP618  TYR619  PRO620  LYS621  CYS622 
 ASP623  PHE694  ASN695  SER759  ASP760  ASP761  ALA762  ILE779  LEU786  VAL792 
 PHE793  MET794  SER795  GLU796  ALA797  LYS798  CYS799  TRP800  GLU811  SER814 

> <Gold.Protein.RotatedAtoms>
  152.4806  133.8246  159.7071 H   0  0  0  0  0  0  0  0  0  0  0  0  # atno 6907 bound_to 6896
  150.8854  133.7306  159.2926 H   0  0  0  0  0  0  0  0  0  0  0  0  # atno 6908 bound_to 6896
  151.4796  135.1055  159.9826 H   0  0  0  0  0  0  0  0  0  0  0  0  # atno 6909 bound_to 6896
  144.8212  139.6689  143.6100 H   0  0  0  0  0  0  0  0  0  0  0  0  # atno 7974 bound_to 7965
  155.5433  140.0610  157.2865 H   0  0  0  0  0  0  0  0  0  0  0  0  # atno 8008 bound_to 7997
  154.4445  140.1915  156.0657 H   0  0  0  0  0  0  0  0  0  0  0  0  # atno 8009 bound_to 7997
  156.0569  140.3277  155.7420 H   0  0  0  0  0  0  0  0  0  0  0  0  # atno 8010 bound_to 7997
  140.2750  144.3222  150.6279 H   0  0  0  0  0  0  0  0  0  0  0  0  # atno 10167 bound_to 10162
  157.6618  130.9707  150.1297 H   0  0  0  0  0  0  0  0  0  0  0  0  # atno 10718 bound_to 10713
  153.3428  135.4002  155.1585 H   0  0  0  0  0  0  0  0  0  0  0  0  # atno 10763 bound_to 10752
  154.8647  135.3637  154.5323 H   0  0  0  0  0  0  0  0  0  0  0  0  # atno 10764 bound_to 10752
  153.5769  135.7077  153.5539 H   0  0  0  0  0  0  0  0  0  0  0  0  # atno 10765 bound_to 10752
  140.7931  134.2945  157.5006 H   0  0  0  0  0  0  0  0  0  0  0  0  # atno 11005 bound_to 11000
  146.2517  139.6214  142.9422 LP  0  0  0  0  0  0  0  0  0  0  0  0  # atno 17320 bound_to 7965
  145.5101  141.0435  143.2492 LP  0  0  0  0  0  0  0  0  0  0  0  0  # atno 17321 bound_to 7965
  140.5859  143.2170  151.7344 LP  0  0  0  0  0  0  0  0  0  0  0  0  # atno 17342 bound_to 10162
  139.4978  144.4012  152.0179 LP  0  0  0  0  0  0  0  0  0  0  0  0  # atno 17343 bound_to 10162
  156.2147  130.3669  149.8627 LP  0  0  0  0  0  0  0  0  0  0  0  0  # atno 17370 bound_to 10713
  156.6496  130.8738  151.3529 LP  0  0  0  0  0  0  0  0  0  0  0  0  # atno 17371 bound_to 10713
  139.8729  134.9386  156.3719 LP  0  0  0  0  0  0  0  0  0  0  0  0  # atno 17394 bound_to 11000
  140.9370  133.7540  156.0097 LP  0  0  0  0  0  0  0  0  0  0  0  0  # atno 17395 bound_to 11000

$$$$
