AV-unprocessed.smi:1703|AV-procd|sdf|6871|dock5
  -GOLD-   22720 8 73D 1   1.00000     0.00000
 Structure written by MMmdl.
 49 51  0  0  0  0  0  0  0  0  2 V2000
  147.7648  136.0135  162.4040 C   0  0  0  0  0  0  0  0  0  0  0  0
  147.6299  135.9640  160.8786 C   0  0  1  0  0  0  0  0  0  0  0  0
  148.8238  136.6280  160.1702 C   0  0  0  0  0  0  0  0  0  0  0  0
  148.7295  136.5108  158.7208 N   0  0  0  0  0  0  0  0  0  0  0  0
  149.8448  137.1896  158.0625 C   0  0  0  0  0  0  0  0  0  0  0  0
  150.0042  138.6818  158.4237 C   0  0  2  0  0  0  0  0  0  0  0  0
  148.7490  139.3237  158.3083 O   0  0  0  0  0  0  0  0  0  0  0  0
  151.0157  139.3941  157.5038 C   0  0  0  0  0  0  0  0  0  0  0  0
  150.8845  140.8602  157.5416 N   0  0  0  0  0  0  0  0  0  0  0  0
  150.0856  141.6827  156.8023 C   0  0  0  0  0  0  0  0  0  0  0  0
  149.1206  141.2645  155.7384 C   0  0  0  0  0  0  0  0  0  0  0  0
  149.2554  142.0011  154.5410 O   0  0  0  0  0  0  0  0  0  0  0  0
  150.3344  142.9593  157.2122 N   0  3  0  0  0  0  0  0  0  0  0  0
  151.2985  142.9548  158.2198 C   0  0  0  0  0  0  0  0  0  0  0  0
  151.8681  144.0015  158.9386 C   0  0  0  0  0  0  0  0  0  0  0  0
  152.8351  143.6533  159.9038 C   0  0  0  0  0  0  0  0  0  0  0  0
  153.2028  142.3100  160.1226 C   0  0  0  0  0  0  0  0  0  0  0  0
  152.6176  141.2573  159.3882 C   0  0  0  0  0  0  0  0  0  0  0  0
  151.6595  141.6088  158.4369 C   0  0  0  0  0  0  0  0  0  0  0  0
  148.6431  135.0967  158.3629 C   0  0  0  0  0  0  0  0  0  0  0  0
  147.4831  134.3716  159.0743 C   0  0  2  0  0  0  0  0  0  0  0  0
  146.1008  134.7285  158.5015 C   0  0  0  0  0  0  0  0  0  0  0  0
  147.5473  134.5958  160.4838 O   0  0  0  0  0  0  0  0  0  0  0  0
  147.8224  137.0425  162.7597 H   0  0  0  0  0  0  0  0  0  0  0  0
  148.6628  135.4929  162.7379 H   0  0  0  0  0  0  0  0  0  0  0  0
  146.9077  135.5431  162.8861 H   0  0  0  0  0  0  0  0  0  0  0  0
  146.7094  136.4778  160.5994 H   0  0  0  0  0  0  0  0  0  0  0  0
  148.8658  137.6806  160.4530 H   0  0  0  0  0  0  0  0  0  0  0  0
  149.7540  136.1750  160.5176 H   0  0  0  0  0  0  0  0  0  0  0  0
  150.7609  136.6807  158.3656 H   0  0  0  0  0  0  0  0  0  0  0  0
  149.7890  137.0589  156.9803 H   0  0  0  0  0  0  0  0  0  0  0  0
  150.3473  138.7753  159.4548 H   0  0  0  0  0  0  0  0  0  0  0  0
  148.7938  140.1536  158.7575 H   0  0  0  0  0  0  0  0  0  0  0  0
  152.0325  139.1587  157.8198 H   0  0  0  0  0  0  0  0  0  0  0  0
  150.9333  139.0441  156.4748 H   0  0  0  0  0  0  0  0  0  0  0  0
  149.2668  140.2069  155.5187 H   0  0  0  0  0  0  0  0  0  0  0  0
  148.1026  141.3820  156.1106 H   0  0  0  0  0  0  0  0  0  0  0  0
  149.3021  142.9202  154.7574 H   0  0  0  0  0  0  0  0  0  0  0  0
  151.5891  145.0314  158.7706 H   0  0  0  0  0  0  0  0  0  0  0  0
  153.3053  144.4321  160.4868 H   0  0  0  0  0  0  0  0  0  0  0  0
  153.9503  142.0818  160.8689 H   0  0  0  0  0  0  0  0  0  0  0  0
  152.9125  140.2337  159.5640 H   0  0  0  0  0  0  0  0  0  0  0  0
  148.5232  134.9824  157.2858 H   0  0  0  0  0  0  0  0  0  0  0  0
  149.5799  134.6010  158.6222 H   0  0  0  0  0  0  0  0  0  0  0  0
  147.6190  133.2997  158.9284 H   0  0  0  0  0  0  0  0  0  0  0  0
  146.0327  134.4445  157.4511 H   0  0  0  0  0  0  0  0  0  0  0  0
  145.8935  135.7968  158.5632 H   0  0  0  0  0  0  0  0  0  0  0  0
  145.3105  134.2028  159.0376 H   0  0  0  0  0  0  0  0  0  0  0  0
  149.8731  143.7717  156.8231 H   0  0  0  0  0  0  0  0  0  0  0  0
  1  2  1  0  0  0  0
  1 24  1  0  0  0  0
  1 25  1  0  0  0  0
  1 26  1  0  0  0  0
  2 23  1  0  0  0  0
  2  3  1  0  0  0  0
  2 27  1  0  0  0  0
  3  4  1  0  0  0  0
  3 28  1  0  0  0  0
  3 29  1  0  0  0  0
  4  5  1  0  0  0  0
  4 20  1  0  0  0  0
  5  6  1  0  0  0  0
  5 30  1  0  0  0  0
  5 31  1  0  0  0  0
  6  7  1  0  0  0  0
  6  8  1  0  0  0  0
  6 32  1  0  0  0  0
  7 33  1  0  0  0  0
  8  9  1  0  0  0  0
  8 34  1  0  0  0  0
  8 35  1  0  0  0  0
  9 19  1  0  0  0  0
  9 10  1  0  0  0  0
 10 11  1  0  0  0  0
 10 13  2  0  0  0  0
 11 12  1  0  0  0  0
 11 36  1  0  0  0  0
 11 37  1  0  0  0  0
 12 38  1  0  0  0  0
 13 14  1  0  0  0  0
 13 49  1  0  0  0  0
 14 19  2  0  0  0  0
 14 15  1  0  0  0  0
 15 16  2  0  0  0  0
 15 39  1  0  0  0  0
 16 17  1  0  0  0  0
 16 40  1  0  0  0  0
 17 18  2  0  0  0  0
 17 41  1  0  0  0  0
 18 19  1  0  0  0  0
 18 42  1  0  0  0  0
 20 21  1  0  0  0  0
 20 43  1  0  0  0  0
 20 44  1  0  0  0  0
 21 22  1  0  0  0  0
 21 23  1  0  0  0  0
 21 45  1  0  0  0  0
 22 46  1  0  0  0  0
 22 47  1  0  0  0  0
 22 48  1  0  0  0  0
M  CHG  1  13   1
M  END
> <s_m_source_file>
AV-unprocessed.smi

> <i_m_source_file_index>
1703

> <i_lp_mmshare_version>
43012

> <i_f3d_flags>
0

> <s_epik_input>
W0NIM11bQ0BASF0xW0NIMl1OKFtDSDJdW0NASF0oTzEpW0NIM10pW0NIMl1bQ0BIXShbT0hdKVtDSDJdbihjKG4yKVtDSDJdW09IXSljKGMyMylbY0hdW2NIXVtjSF1bY0hdMw==

> <s_epik_cmdline>
J2VwaWtfcHl0aG9uJywgJy1waCcsICc3LjAnLCAnLXRuJywgJzgnLCAnLW1hJywgJzIwMCcsICctbWV0YWxfYmluZGluZycsICctaW1hZScsICc8aW5maWxlLm1hZT4nLCAnLW9tYWUnLCAnPG91dGZpbGUubWFlPic=

> <r_epik_Ionization_Penalty>
1.7682

> <r_epik_Ionization_Penalty_Charging>
1.55298

> <r_epik_Ionization_Penalty_Neutral>
0.215215

> <r_epik_State_Penalty>
1.83821

> <r_epik_Charging_Adjusted_Penalty>
3.39119

> <i_epik_Tot_Q>
1

> <i_epik_Tot_abs_Q>
1

> <r_epik_Metal_State_Penalty>
5.89206

> <b_epik_Metal_Only>
0

> <s_lp_Force_Field>
OPLS_2005

> <r_lp_Energy>
35.0588

> <b_lp_Chiralities_Consistent>
1

> <s_lp_Variant>
AV-unprocessed.smi:1703-19

> <Gold.Version>
5.8.1

> <Gold.Id.Protein>
6NUR|6NUR_protein|mol2

> <Gold.PLP.Fitness>
50.3691

> <Gold.PLP.PLP>
-42.5470

> <Gold.PLP.part.hbond>
-4.2058

> <Gold.PLP.part.metal>
0.0000

> <Gold.PLP.part.buried>
-5.7761

> <Gold.PLP.part.nonpolar>
-33.0105

> <Gold.PLP.part.repulsive>
0.0064

> <Gold.PLP.ligand.clash>
0.0000

> <Gold.PLP.ligand.torsion>
0.7067

> <Gold.PLP.Chemscore.Hbond>
3.0721

> <Gold.PLP.Chemscore.CHOScore>
0.0000

> <Gold.PLP.Chemscore.Metal>
0.0000

> <Gold.Chemscore.Hbonds>
donor molecule, donor type, donor heavy atom, donor atom, acceptor molecule, acceptor atom, score
      L1  H    12    38       P1  8028  0.98
      L1  H    13    49       P1  8028  2.00
      P1  H  8011  8017       L1    12  0.06

> <Gold.PLP.Chemscore.Internal.Correction>
0.0192

> <Gold.Rescore>
     Score         DG    S(hbond)    S(metal)    S(lipo)     H(rot)  DE(clash)    DE(int)     intcor
     16.51     -17.21       1.92        0.00     110.21       2.96       0.03       0.67       ----

> <Gold.Chemscore.Fitness>
16.5144

> <Gold.Chemscore.DG>
-17.2120

> <Gold.Chemscore.ZeroCoef>
-5.4800

> <Gold.Chemscore.Hbond>
1.9173

> <Gold.Chemscore.Metal>
0.0000

> <Gold.Chemscore.Lipo>
110.2082

> <Gold.Chemscore.Internal_Hbond>
0.0000

> <Gold.Chemscore.DEClash>
0.0270

> <Gold.Chemscore.DEInternal>
0.6706

> <Gold.Chemscore.Rot>
2.9555

> <Gold.Chemscore.Internal.Correction>
   9.000000E+99

> <Gold.Chemscore.Hbonds>
donor molecule, donor type, donor heavy atom, donor atom, acceptor molecule, acceptor atom, score
      L1  H    12    38       P1  8028  0.91
      L1  H    13    49       P1  8028  0.98

> <Gold.Chemscore.Hbond.Weighted>
-6.4037

> <Gold.Chemscore.Metal.Weighted>
-0.0000

> <Gold.Chemscore.Lipo.Weighted>
-12.8944

> <Gold.Chemscore.Internal_Hbond.Weighted>
0.0000

> <Gold.Chemscore.DEClash.Weighted>
0.0270

> <Gold.Chemscore.DEInternal.Weighted>
0.6706

> <Gold.Chemscore.Rot.Weighted>
7.5660

> <Gold.Chemscore.Internal.Correction.Weighted>
   9.000000E+99

> <Gold.Protein.RotatedTorsions>
[ 6907 6896 6895 6894 ] final   -8.16 input  -60.11 | X-H torsion
[ 7974 7965 7964 7962 ] final   53.20 input  175.53 | X-H torsion
[ 8008 7997 7996 7995 ] final  -32.24 input   59.86 | X-H torsion
[ 10167 10162 10161 10158 ] final  174.96 input  -65.29 | X-H torsion
[ 10718 10713 10712 10709 ] final   19.57 input   66.30 | X-H torsion
[ 10763 10752 10751 10750 ] final  -71.99 input  -60.55 | X-H torsion
[ 11005 11000 10999 10996 ] final  -14.26 input  -57.11 | X-H torsion

> <Gold.Protein.ActiveResidues>
 VAL166  LYS551  ARG553  GLY616  TRP617  ASP618  TYR619  PRO620  LYS621  CYS622 
 ASP623  PHE694  ASN695  SER759  ASP760  ASP761  ALA762  ILE779  LEU786  VAL792 
 PHE793  MET794  SER795  GLU796  ALA797  LYS798  CYS799  TRP800  GLU811  SER814 

> <Gold.Protein.RotatedAtoms>
  151.4380  135.1017  159.9661 H   0  0  0  0  0  0  0  0  0  0  0  0  # atno 6907 bound_to 6896
  152.4933  133.8555  159.7234 H   0  0  0  0  0  0  0  0  0  0  0  0  # atno 6908 bound_to 6896
  150.9108  133.6941  159.2883 H   0  0  0  0  0  0  0  0  0  0  0  0  # atno 6909 bound_to 6896
  145.9736  139.4173  143.0175 H   0  0  0  0  0  0  0  0  0  0  0  0  # atno 7974 bound_to 7965
  154.4186  140.1743  156.1696 H   0  0  0  0  0  0  0  0  0  0  0  0  # atno 8008 bound_to 7997
  155.9771  140.3380  155.6605 H   0  0  0  0  0  0  0  0  0  0  0  0  # atno 8009 bound_to 7997
  155.6549  140.0694  157.2565 H   0  0  0  0  0  0  0  0  0  0  0  0  # atno 8010 bound_to 7997
  139.5160  144.3086  152.0312 H   0  0  0  0  0  0  0  0  0  0  0  0  # atno 10167 bound_to 10162
  157.1123  130.6514  149.5901 H   0  0  0  0  0  0  0  0  0  0  0  0  # atno 10718 bound_to 10713
  154.4394  135.5944  153.6119 H   0  0  0  0  0  0  0  0  0  0  0  0  # atno 10763 bound_to 10752
  152.9804  135.5994  154.3741 H   0  0  0  0  0  0  0  0  0  0  0  0  # atno 10764 bound_to 10752
  154.3589  135.2841  155.2309 H   0  0  0  0  0  0  0  0  0  0  0  0  # atno 10765 bound_to 10752
  140.7846  133.8336  155.9323 H   0  0  0  0  0  0  0  0  0  0  0  0  # atno 11005 bound_to 11000
  145.7871  140.9831  143.1069 LP  0  0  0  0  0  0  0  0  0  0  0  0  # atno 17320 bound_to 7965
  144.6843  139.9636  143.7481 LP  0  0  0  0  0  0  0  0  0  0  0  0  # atno 17321 bound_to 7965
  140.2532  144.4147  150.6214 LP  0  0  0  0  0  0  0  0  0  0  0  0  # atno 17342 bound_to 10162
  140.6210  143.2176  151.6694 LP  0  0  0  0  0  0  0  0  0  0  0  0  # atno 17343 bound_to 10162
  155.9847  130.4874  150.6998 LP  0  0  0  0  0  0  0  0  0  0  0  0  # atno 17370 bound_to 10713
  157.4548  131.0876  151.0808 LP  0  0  0  0  0  0  0  0  0  0  0  0  # atno 17371 bound_to 10713
  140.9449  134.1853  157.4770 LP  0  0  0  0  0  0  0  0  0  0  0  0  # atno 17394 bound_to 11000
  139.8738  134.9886  156.5422 LP  0  0  0  0  0  0  0  0  0  0  0  0  # atno 17395 bound_to 11000

$$$$
