AV-unprocessed.smi:3116|AV-procd|sdf|11869|dock1
  -GOLD-   2272017253D 1   1.00000     0.00000
 Structure written by MMmdl.
 34 34  0  0  0  0  0  0  0  0  2 V2000
  149.5899  137.2804  156.1572 C   0  0  0  0  0  0  0  0  0  0  0  0
  149.6387  138.8127  156.0611 C   0  0  1  0  0  0  0  0  0  0  0  0
  150.4471  139.3574  157.1768 N   0  3  0  0  0  0  0  0  0  0  0  0
  150.6794  140.8223  157.1578 C   0  0  1  0  0  0  0  0  0  0  0  0
  149.3868  141.5280  156.7097 C   0  0  0  0  0  0  0  0  0  0  0  0
  151.2404  141.3006  158.5244 C   0  0  1  0  0  0  0  0  0  0  0  0
  152.5437  140.5752  158.9138 C   0  0  0  0  0  0  0  0  0  0  0  0
  151.3782  142.7525  158.6084 N   0  0  0  0  0  0  0  0  0  0  0  0
  152.5166  143.4777  158.8977 C   0  0  0  0  0  0  0  0  0  0  0  0
  152.1741  144.7993  158.8975 C   0  0  0  0  0  0  0  0  0  0  0  0
  150.7835  144.7880  158.5997 C   0  0  0  0  0  0  0  0  0  0  0  0
  150.3093  143.5642  158.4364 N   0  0  0  0  0  0  0  0  0  0  0  0
  150.2041  139.2335  154.6976 C   0  0  0  0  0  0  0  0  0  0  0  0
  149.5322  138.8420  153.6123 N   0  0  0  0  0  0  0  0  0  0  0  0
  151.2416  139.8895  154.6238 O   0  0  0  0  0  0  0  0  0  0  0  0
  148.9793  136.8521  155.3611 H   0  0  0  0  0  0  0  0  0  0  0  0
  149.1553  136.9623  157.1054 H   0  0  0  0  0  0  0  0  0  0  0  0
  150.5857  136.8407  156.0855 H   0  0  0  0  0  0  0  0  0  0  0  0
  148.6176  139.1854  156.1605 H   0  0  0  0  0  0  0  0  0  0  0  0
  149.9681  139.1426  158.0394 H   0  0  0  0  0  0  0  0  0  0  0  0
  151.4391  141.0438  156.4064 H   0  0  0  0  0  0  0  0  0  0  0  0
  149.5076  142.6107  156.6867 H   0  0  0  0  0  0  0  0  0  0  0  0
  148.5489  141.2984  157.3683 H   0  0  0  0  0  0  0  0  0  0  0  0
  149.1032  141.2139  155.7048 H   0  0  0  0  0  0  0  0  0  0  0  0
  150.5152  141.0206  159.2892 H   0  0  0  0  0  0  0  0  0  0  0  0
  152.3963  139.4953  158.9404 H   0  0  0  0  0  0  0  0  0  0  0  0
  152.8789  140.8820  159.9051 H   0  0  0  0  0  0  0  0  0  0  0  0
  153.3549  140.7780  158.2146 H   0  0  0  0  0  0  0  0  0  0  0  0
  153.4680  142.9982  159.0763 H   0  0  0  0  0  0  0  0  0  0  0  0
  152.8187  145.6461  159.0819 H   0  0  0  0  0  0  0  0  0  0  0  0
  150.1086  145.6257  158.5017 H   0  0  0  0  0  0  0  0  0  0  0  0
  149.8583  139.0977  152.6914 H   0  0  0  0  0  0  0  0  0  0  0  0
  148.6908  138.2929  153.7168 H   0  0  0  0  0  0  0  0  0  0  0  0
  151.3393  138.8837  157.1833 H   0  0  0  0  0  0  0  0  0  0  0  0
  1  2  1  0  0  0  0
  1 16  1  0  0  0  0
  1 17  1  0  0  0  0
  1 18  1  0  0  0  0
  2  3  1  0  0  0  0
  2 13  1  0  0  0  0
  2 19  1  0  0  0  0
  3  4  1  0  0  0  0
  3 20  1  0  0  0  0
  3 34  1  0  0  0  0
  4  5  1  0  0  0  0
  4  6  1  0  0  0  0
  4 21  1  0  0  0  0
  5 22  1  0  0  0  0
  5 23  1  0  0  0  0
  5 24  1  0  0  0  0
  6  7  1  0  0  0  0
  6  8  1  0  0  0  0
  6 25  1  0  0  0  0
  7 26  1  0  0  0  0
  7 27  1  0  0  0  0
  7 28  1  0  0  0  0
  8 12  1  0  0  0  0
  8  9  1  0  0  0  0
  9 10  2  0  0  0  0
  9 29  1  0  0  0  0
 10 11  1  0  0  0  0
 10 30  1  0  0  0  0
 11 12  2  0  0  0  0
 11 31  1  0  0  0  0
 13 14  1  0  0  0  0
 13 15  2  0  0  0  0
 14 32  1  0  0  0  0
 14 33  1  0  0  0  0
M  CHG  1   3   1
M  END
> <s_m_source_file>
AV-unprocessed.smi

> <i_m_source_file_index>
3116

> <i_lp_mmshare_version>
43012

> <i_f3d_flags>
0

> <s_epik_input>
W05IMl1DKD1PKVtDQEhdKFtDSDNdKVtOSF1bQ0BIXShbQ0gzXSlbQ0BIXShbQ0gzXSluMVtjSF1bY0hdW2NIXW4x

> <s_epik_cmdline>
J2VwaWtfcHl0aG9uJywgJy1waCcsICc3LjAnLCAnLXRuJywgJzgnLCAnLW1hJywgJzIwMCcsICctbWV0YWxfYmluZGluZycsICctaW1hZScsICc8aW5maWxlLm1hZT4nLCAnLW9tYWUnLCAnPG91dGZpbGUubWFlPic=

> <r_lp_tautomer_probability>
1

> <r_epik_Ionization_Penalty>
0.15658

> <r_epik_Ionization_Penalty_Charging>
0.156568

> <r_epik_Ionization_Penalty_Neutral>
1.19778e-05

> <r_epik_State_Penalty>
0.145866

> <r_epik_Charging_Adjusted_Penalty>
0.302434

> <i_epik_Tot_Q>
1

> <i_epik_Tot_abs_Q>
1

> <r_epik_Metal_State_Penalty>
0.146064

> <b_epik_Metal_Only>
0

> <s_lp_Force_Field>
OPLS_2005

> <r_lp_Energy>
10.8176

> <b_lp_Chiralities_Consistent>
1

> <s_lp_Variant>
AV-unprocessed.smi:3116-8

> <Gold.Version>
5.8.1

> <Gold.Id.Protein>
6NUR|6NUR_protein|mol2

> <Gold.PLP.Fitness>
36.5157

> <Gold.PLP.PLP>
-27.7822

> <Gold.PLP.part.hbond>
-2.5655

> <Gold.PLP.part.metal>
0.0000

> <Gold.PLP.part.buried>
-5.6593

> <Gold.PLP.part.nonpolar>
-21.4845

> <Gold.PLP.part.repulsive>
0.3423

> <Gold.PLP.ligand.clash>
0.0000

> <Gold.PLP.ligand.torsion>
0.2298

> <Gold.PLP.Chemscore.Hbond>
2.0000

> <Gold.PLP.Chemscore.CHOScore>
1.0000

> <Gold.PLP.Chemscore.Metal>
0.0000

> <Gold.Chemscore.Hbonds>
donor molecule, donor type, donor heavy atom, donor atom, acceptor molecule, acceptor atom, score
      L1  H    14    32       P1  7957  1.00
      P1  H  7989  7998       L1    15  1.00
      L1  C    11    31       P1  8029  1.00

> <Gold.PLP.Chemscore.Internal.Correction>
0.1932

> <Gold.Rescore>
     Score         DG    S(hbond)    S(metal)    S(lipo)     H(rot)  DE(clash)    DE(int)     intcor
     10.79     -13.68       2.00        0.00      66.58       2.45       0.00       2.89       ----

> <Gold.Chemscore.Fitness>
10.7892

> <Gold.Chemscore.DG>
-13.6783

> <Gold.Chemscore.ZeroCoef>
-5.4800

> <Gold.Chemscore.Hbond>
1.9974

> <Gold.Chemscore.Metal>
0.0000

> <Gold.Chemscore.Lipo>
66.5813

> <Gold.Chemscore.Internal_Hbond>
0.0000

> <Gold.Chemscore.DEClash>
0.0000

> <Gold.Chemscore.DEInternal>
2.8891

> <Gold.Chemscore.Rot>
2.4465

> <Gold.Chemscore.Internal.Correction>
   9.000000E+99

> <Gold.Chemscore.Hbonds>
donor molecule, donor type, donor heavy atom, donor atom, acceptor molecule, acceptor atom, score
      L1  H    14    32       P1  7957  0.83
      P1  H  7989  7998       L1    15  0.94

> <Gold.Chemscore.Hbond.Weighted>
-6.6714

> <Gold.Chemscore.Metal.Weighted>
-0.0000

> <Gold.Chemscore.Lipo.Weighted>
-7.7900

> <Gold.Chemscore.Internal_Hbond.Weighted>
0.0000

> <Gold.Chemscore.DEClash.Weighted>
0.0000

> <Gold.Chemscore.DEInternal.Weighted>
2.8891

> <Gold.Chemscore.Rot.Weighted>
6.2631

> <Gold.Chemscore.Internal.Correction.Weighted>
   9.000000E+99

> <Gold.Protein.RotatedTorsions>
[ 6907 6896 6895 6894 ] final  124.81 input  -60.11 | X-H torsion
[ 7974 7965 7964 7962 ] final -160.60 input  175.53 | X-H torsion
[ 8008 7997 7996 7995 ] final  -99.94 input   59.86 | X-H torsion
[ 10167 10162 10161 10158 ] final -108.06 input  -65.29 | X-H torsion
[ 10718 10713 10712 10709 ] final  171.41 input   66.30 | X-H torsion
[ 10763 10752 10751 10750 ] final -165.36 input  -60.55 | X-H torsion
[ 11005 11000 10999 10996 ] final  101.68 input  -57.11 | X-H torsion

> <Gold.Protein.ActiveResidues>
 VAL166  LYS551  ARG553  GLY616  TRP617  ASP618  TYR619  PRO620  LYS621  CYS622 
 ASP623  PHE694  ASN695  SER759  ASP760  ASP761  ALA762  ILE779  LEU786  VAL792 
 PHE793  MET794  SER795  GLU796  ALA797  LYS798  CYS799  TRP800  GLU811  SER814 

> <Gold.Protein.RotatedAtoms>
  152.4046  133.6869  159.6345 H   0  0  0  0  0  0  0  0  0  0  0  0  # atno 6907 bound_to 6896
  150.7933  133.8731  159.3273 H   0  0  0  0  0  0  0  0  0  0  0  0  # atno 6908 bound_to 6896
  151.6489  135.1005  160.0208 H   0  0  0  0  0  0  0  0  0  0  0  0  # atno 6909 bound_to 6896
  144.7421  140.3518  143.6114 H   0  0  0  0  0  0  0  0  0  0  0  0  # atno 7974 bound_to 7965
  154.8218  140.0444  157.1416 H   0  0  0  0  0  0  0  0  0  0  0  0  # atno 8008 bound_to 7997
  154.9251  140.3032  155.5176 H   0  0  0  0  0  0  0  0  0  0  0  0  # atno 8009 bound_to 7997
  156.2980  140.2333  156.4305 H   0  0  0  0  0  0  0  0  0  0  0  0  # atno 8010 bound_to 7997
  140.1702  143.4049  152.1360 H   0  0  0  0  0  0  0  0  0  0  0  0  # atno 10167 bound_to 10162
  156.9939  131.0156  151.2849 H   0  0  0  0  0  0  0  0  0  0  0  0  # atno 10718 bound_to 10713
  154.6940  135.2976  154.9439 H   0  0  0  0  0  0  0  0  0  0  0  0  # atno 10763 bound_to 10752
  154.0393  135.6659  153.4792 H   0  0  0  0  0  0  0  0  0  0  0  0  # atno 10764 bound_to 10752
  153.0632  135.5103  154.8047 H   0  0  0  0  0  0  0  0  0  0  0  0  # atno 10765 bound_to 10752
  139.8774  134.9193  156.4944 H   0  0  0  0  0  0  0  0  0  0  0  0  # atno 11005 bound_to 11000
  145.7269  139.1725  143.2453 LP  0  0  0  0  0  0  0  0  0  0  0  0  # atno 17320 bound_to 7965
  146.1236  140.7278  142.9446 LP  0  0  0  0  0  0  0  0  0  0  0  0  # atno 17321 bound_to 7965
  139.5341  144.7191  151.4953 LP  0  0  0  0  0  0  0  0  0  0  0  0  # atno 17342 bound_to 10162
  140.6587  143.8545  150.6863 LP  0  0  0  0  0  0  0  0  0  0  0  0  # atno 17343 bound_to 10162
  157.5439  130.8138  149.8062 LP  0  0  0  0  0  0  0  0  0  0  0  0  # atno 17370 bound_to 10713
  156.0197  130.3800  150.2001 LP  0  0  0  0  0  0  0  0  0  0  0  0  # atno 17371 bound_to 10713
  140.8635  133.8042  155.9290 LP  0  0  0  0  0  0  0  0  0  0  0  0  # atno 17394 bound_to 11000
  140.9025  134.2360  157.5033 LP  0  0  0  0  0  0  0  0  0  0  0  0  # atno 17395 bound_to 11000

$$$$
