AV-unprocessed.smi:609|AV-procd|sdf|3049|dock4
  -GOLD-   2262023573D 1   1.00000     0.00000
 Structure written by MMmdl.
 44 46  0  0  0  0  0  0  0  0  3 V2000
  152.4389  143.2496  161.7616 C   0  0  0  0  0  0  0  0  0  0  0  0
  152.0139  142.8058  160.3721 C   0  0  0  0  0  0  0  0  0  0  0  0
  152.4950  141.5707  159.8818 C   0  0  0  0  0  0  0  0  0  0  0  0
  152.0855  141.1908  158.6092 C   0  0  0  0  0  0  0  0  0  0  0  0
  152.3718  140.0488  157.8578 N   0  3  0  0  0  0  0  0  0  0  0  0
  151.7314  140.1218  156.6580 C   0  0  0  0  0  0  0  0  0  0  0  0
  151.0498  141.2995  156.6284 N   0  0  0  0  0  0  0  0  0  0  0  0
  150.1978  141.8735  155.5789 C   0  0  0  0  0  0  0  0  0  0  0  0
  149.4138  140.8128  154.7786 C   0  0  2  0  0  0  0  0  0  0  0  0
  149.8282  140.8973  153.4309 O   0  0  0  0  0  0  0  0  0  0  0  0
  147.8852  140.9831  154.8537 C   0  0  0  0  0  0  0  0  0  0  0  0
  147.2748  142.2168  153.6702 S   0  0  0  0  0  0  0  0  0  0  0  0
  145.7977  142.8621  154.3907 C   0  0  0  0  0  0  0  0  0  0  0  0
  145.2900  142.4720  155.5626 N   0  3  0  0  0  0  0  0  0  0  0  0
  144.1417  143.1687  155.8270 C   0  0  0  0  0  0  0  0  0  0  0  0
  143.9515  144.0234  154.7702 C   0  0  0  0  0  0  0  0  0  0  0  0
  144.9919  143.8169  153.9000 N   0  0  0  0  0  0  0  0  0  0  0  0
  145.2169  144.5154  152.6323 C   0  0  0  0  0  0  0  0  0  0  0  0
  151.2323  141.9942  157.8284 C   0  0  0  0  0  0  0  0  0  0  0  0
  150.7483  143.2132  158.2958 C   0  0  0  0  0  0  0  0  0  0  0  0
  151.1501  143.6156  159.5896 C   0  0  0  0  0  0  0  0  0  0  0  0
  150.6346  144.9392  160.1289 C   0  0  0  0  0  0  0  0  0  0  0  0
  153.1173  142.5299  162.2205 H   0  0  0  0  0  0  0  0  0  0  0  0
  151.5702  143.3505  162.4126 H   0  0  0  0  0  0  0  0  0  0  0  0
  152.9530  144.2100  161.7175 H   0  0  0  0  0  0  0  0  0  0  0  0
  153.1501  140.9477  160.4731 H   0  0  0  0  0  0  0  0  0  0  0  0
  151.7611  139.3810  155.8719 H   0  0  0  0  0  0  0  0  0  0  0  0
  149.5070  142.5635  156.0660 H   0  0  0  0  0  0  0  0  0  0  0  0
  150.8252  142.4764  154.9206 H   0  0  0  0  0  0  0  0  0  0  0  0
  149.6772  139.8199  155.1439 H   0  0  0  0  0  0  0  0  0  0  0  0
  149.4731  140.1590  152.9594 H   0  0  0  0  0  0  0  0  0  0  0  0
  147.3912  140.0384  154.6332 H   0  0  0  0  0  0  0  0  0  0  0  0
  147.5806  141.2734  155.8599 H   0  0  0  0  0  0  0  0  0  0  0  0
  143.5616  143.0103  156.7245 H   0  0  0  0  0  0  0  0  0  0  0  0
  143.1726  144.7482  154.5806 H   0  0  0  0  0  0  0  0  0  0  0  0
  144.7142  145.4826  152.6599 H   0  0  0  0  0  0  0  0  0  0  0  0
  144.8064  143.9199  151.8170 H   0  0  0  0  0  0  0  0  0  0  0  0
  146.2841  144.6759  152.4768 H   0  0  0  0  0  0  0  0  0  0  0  0
  150.0898  143.8282  157.7003 H   0  0  0  0  0  0  0  0  0  0  0  0
  149.9514  145.4175  159.4263 H   0  0  0  0  0  0  0  0  0  0  0  0
  151.4616  145.6260  160.3108 H   0  0  0  0  0  0  0  0  0  0  0  0
  150.0958  144.7889  161.0646 H   0  0  0  0  0  0  0  0  0  0  0  0
  145.6960  141.7644  156.1619 H   0  0  0  0  0  0  0  0  0  0  0  0
  152.9543  139.2720  158.1437 H   0  0  0  0  0  0  0  0  0  0  0  0
  1  2  1  0  0  0  0
  1 23  1  0  0  0  0
  1 24  1  0  0  0  0
  1 25  1  0  0  0  0
  2 21  1  0  0  0  0
  2  3  2  0  0  0  0
  3  4  1  0  0  0  0
  3 26  1  0  0  0  0
  4 19  2  0  0  0  0
  4  5  1  0  0  0  0
  5  6  2  0  0  0  0
  5 44  1  0  0  0  0
  6  7  1  0  0  0  0
  6 27  1  0  0  0  0
  7  8  1  0  0  0  0
  7 19  1  0  0  0  0
  8  9  1  0  0  0  0
  8 28  1  0  0  0  0
  8 29  1  0  0  0  0
  9 10  1  0  0  0  0
  9 11  1  0  0  0  0
  9 30  1  0  0  0  0
 10 31  1  0  0  0  0
 11 12  1  0  0  0  0
 11 32  1  0  0  0  0
 11 33  1  0  0  0  0
 12 13  1  0  0  0  0
 13 17  1  0  0  0  0
 13 14  2  0  0  0  0
 14 15  1  0  0  0  0
 14 43  1  0  0  0  0
 15 16  2  0  0  0  0
 15 34  1  0  0  0  0
 16 17  1  0  0  0  0
 16 35  1  0  0  0  0
 17 18  1  0  0  0  0
 18 36  1  0  0  0  0
 18 37  1  0  0  0  0
 18 38  1  0  0  0  0
 19 20  1  0  0  0  0
 20 21  2  0  0  0  0
 20 39  1  0  0  0  0
 21 22  1  0  0  0  0
 22 40  1  0  0  0  0
 22 41  1  0  0  0  0
 22 42  1  0  0  0  0
M  CHG  1   5   1
M  CHG  1  14   1
M  END
> <s_m_source_file>
AV-unprocessed.smi

> <i_m_source_file_index>
609

> <i_lp_mmshare_version>
43012

> <i_f3d_flags>
0

> <s_epik_input>
W0NIM11jKFtjSF0xKWMoW0NIM10pW2NIXWMoYzEyKW4oW2NIXW4yKVtDSDJdW0NASF0oW09IXSlbQ0gyXVNjM25bY0hdW2NIXW4zW0NIM10=

> <s_epik_cmdline>
J2VwaWtfcHl0aG9uJywgJy1waCcsICc3LjAnLCAnLXRuJywgJzgnLCAnLW1hJywgJzIwMCcsICctbWV0YWxfYmluZGluZycsICctaW1hZScsICc8aW5maWxlLm1hZT4nLCAnLW9tYWUnLCAnPG91dGZpbGUubWFlPic=

> <r_lp_tautomer_probability>
1

> <r_epik_Ionization_Penalty>
1.19058

> <r_epik_Ionization_Penalty_Charging>
1.07615

> <r_epik_Ionization_Penalty_Neutral>
0.114429

> <r_epik_State_Penalty>
1.23473

> <r_epik_Charging_Adjusted_Penalty>
2.31088

> <i_epik_Tot_Q>
2

> <i_epik_Tot_abs_Q>
2

> <r_epik_Metal_State_Penalty>
4.63867

> <b_epik_Metal_Only>
0

> <s_lp_Force_Field>
OPLS_2005

> <r_lp_Energy>
20.2349

> <b_lp_Chiralities_Consistent>
1

> <s_lp_Variant>
AV-unprocessed.smi:609-5

> <Gold.Version>
5.8.1

> <Gold.Id.Protein>
6NUR|6NUR_protein|mol2

> <Gold.PLP.Fitness>
55.4446

> <Gold.PLP.PLP>
-53.6739

> <Gold.PLP.part.hbond>
-2.7676

> <Gold.PLP.part.metal>
0.0000

> <Gold.PLP.part.buried>
-7.1576

> <Gold.PLP.part.nonpolar>
-42.3277

> <Gold.PLP.part.repulsive>
0.0931

> <Gold.PLP.ligand.clash>
0.0000

> <Gold.PLP.ligand.torsion>
1.4980

> <Gold.PLP.Chemscore.Hbond>
1.5760

> <Gold.PLP.Chemscore.CHOScore>
0.0000

> <Gold.PLP.Chemscore.Metal>
0.0000

> <Gold.Chemscore.Hbonds>
donor molecule, donor type, donor heavy atom, donor atom, acceptor molecule, acceptor atom, score
      L1  H    10    31       P1  7957  0.42
      P1  H  7989  7998       L1    10  0.27
      P1  H  8011  8017       L1    10  1.00

> <Gold.PLP.Chemscore.Internal.Correction>
0.0387

> <Gold.Rescore>
     Score         DG    S(hbond)    S(metal)    S(lipo)     H(rot)  DE(clash)    DE(int)     intcor
     15.70     -17.65       1.26        0.00     124.67       2.59       0.45       1.50       ----

> <Gold.Chemscore.Fitness>
15.7036

> <Gold.Chemscore.DG>
-17.6523

> <Gold.Chemscore.ZeroCoef>
-5.4800

> <Gold.Chemscore.Hbond>
1.2596

> <Gold.Chemscore.Metal>
0.0000

> <Gold.Chemscore.Lipo>
124.6681

> <Gold.Chemscore.Internal_Hbond>
0.0000

> <Gold.Chemscore.DEClash>
0.4455

> <Gold.Chemscore.DEInternal>
1.5032

> <Gold.Chemscore.Rot>
2.5863

> <Gold.Chemscore.Internal.Correction>
   9.000000E+99

> <Gold.Chemscore.Hbonds>
donor molecule, donor type, donor heavy atom, donor atom, acceptor molecule, acceptor atom, score
      L1  H    10    31       P1  7957  0.42
      P1  H  7989  7998       L1    10  0.14
      P1  H  8011  8017       L1    10  0.68

> <Gold.Chemscore.Hbond.Weighted>
-4.2071

> <Gold.Chemscore.Metal.Weighted>
-0.0000

> <Gold.Chemscore.Lipo.Weighted>
-14.5862

> <Gold.Chemscore.Internal_Hbond.Weighted>
0.0000

> <Gold.Chemscore.DEClash.Weighted>
0.4455

> <Gold.Chemscore.DEInternal.Weighted>
1.5032

> <Gold.Chemscore.Rot.Weighted>
6.6210

> <Gold.Chemscore.Internal.Correction.Weighted>
   9.000000E+99

> <Gold.Protein.RotatedTorsions>
[ 6907 6896 6895 6894 ] final   28.11 input  -60.11 | X-H torsion
[ 7974 7965 7964 7962 ] final -125.96 input  175.53 | X-H torsion
[ 8008 7997 7996 7995 ] final  -93.53 input   59.86 | X-H torsion
[ 10167 10162 10161 10158 ] final  107.66 input  -65.29 | X-H torsion
[ 10718 10713 10712 10709 ] final  -66.90 input   66.30 | X-H torsion
[ 10763 10752 10751 10750 ] final  122.67 input  -60.55 | X-H torsion
[ 11005 11000 10999 10996 ] final   39.82 input  -57.11 | X-H torsion

> <Gold.Protein.ActiveResidues>
 VAL166  LYS551  ARG553  GLY616  TRP617  ASP618  TYR619  PRO620  LYS621  CYS622 
 ASP623  PHE694  ASN695  SER759  ASP760  ASP761  ALA762  ILE779  LEU786  VAL792 
 PHE793  MET794  SER795  GLU796  ALA797  LYS798  CYS799  TRP800  GLU811  SER814 

> <Gold.Protein.RotatedAtoms>
  152.0122  134.9870  160.0568 H   0  0  0  0  0  0  0  0  0  0  0  0  # atno 6907 bound_to 6896
  152.1418  133.4464  159.4779 H   0  0  0  0  0  0  0  0  0  0  0  0  # atno 6908 bound_to 6896
  150.6866  134.2214  159.4441 H   0  0  0  0  0  0  0  0  0  0  0  0  # atno 6909 bound_to 6896
  144.9921  140.7742  143.4547 H   0  0  0  0  0  0  0  0  0  0  0  0  # atno 7974 bound_to 7965
  154.7369  140.0498  157.0776 H   0  0  0  0  0  0  0  0  0  0  0  0  # atno 8008 bound_to 7997
  155.0229  140.3149  155.4767 H   0  0  0  0  0  0  0  0  0  0  0  0  # atno 8009 bound_to 7997
  156.2855  140.2164  156.5348 H   0  0  0  0  0  0  0  0  0  0  0  0  # atno 8010 bound_to 7997
  139.6909  144.7108  151.1351 H   0  0  0  0  0  0  0  0  0  0  0  0  # atno 10167 bound_to 10162
  156.0587  130.4269  150.1775 H   0  0  0  0  0  0  0  0  0  0  0  0  # atno 10718 bound_to 10713
  153.6334  135.3392  155.3049 H   0  0  0  0  0  0  0  0  0  0  0  0  # atno 10763 bound_to 10752
  154.8575  135.4301  154.2081 H   0  0  0  0  0  0  0  0  0  0  0  0  # atno 10764 bound_to 10752
  153.2982  135.7022  153.7301 H   0  0  0  0  0  0  0  0  0  0  0  0  # atno 10765 bound_to 10752
  140.1991  134.3893  155.8106 H   0  0  0  0  0  0  0  0  0  0  0  0  # atno 11005 bound_to 11000
  145.2270  139.2132  143.5063 LP  0  0  0  0  0  0  0  0  0  0  0  0  # atno 17320 bound_to 7965
  146.3434  140.2140  142.8590 LP  0  0  0  0  0  0  0  0  0  0  0  0  # atno 17321 bound_to 7965
  140.7682  143.5561  150.9150 LP  0  0  0  0  0  0  0  0  0  0  0  0  # atno 17342 bound_to 10162
  139.9239  143.6574  152.3091 LP  0  0  0  0  0  0  0  0  0  0  0  0  # atno 17343 bound_to 10162
  156.9847  130.9875  151.3429 LP  0  0  0  0  0  0  0  0  0  0  0  0  # atno 17370 bound_to 10713
  157.5578  130.8225  149.8227 LP  0  0  0  0  0  0  0  0  0  0  0  0  # atno 17371 bound_to 10713
  141.2227  133.7084  156.8226 LP  0  0  0  0  0  0  0  0  0  0  0  0  # atno 17394 bound_to 11000
  140.2075  134.8852  157.3237 LP  0  0  0  0  0  0  0  0  0  0  0  0  # atno 17395 bound_to 11000

$$$$
