AV-unprocessed.smi:2356|AV-procd|sdf|9396|dock10
  -GOLD-   2272013 33D 1   1.00000     0.00000
 Structure written by MMmdl.
 53 56  0  0  0  0  0  0  0  0  1 V2000
  155.3407  140.7376  162.3919 C   0  0  0  0  0  0  0  0  0  0  0  0
  154.3545  140.6921  161.2373 C   0  0  0  0  0  0  0  0  0  0  0  0
  154.0008  141.8934  160.7313 N   0  0  0  0  0  0  0  0  0  0  0  0
  153.1304  141.9444  159.6963 C   0  0  0  0  0  0  0  0  0  0  0  0
  152.7915  143.2175  159.1974 N   0  0  0  0  0  0  0  0  0  0  0  0
  152.7566  144.3914  160.0560 C   0  0  0  0  0  0  0  0  0  0  0  0
  152.2137  145.5064  159.1639 C   0  0  0  0  0  0  0  0  0  0  0  0
  151.2636  144.7651  158.2234 C   0  0  0  0  0  0  0  0  0  0  0  0
  151.9060  143.3835  158.0528 C   0  0  0  0  0  0  0  0  0  0  0  0
  152.5931  140.7699  159.1214 C   0  0  0  0  0  0  0  0  0  0  0  0
  152.9606  139.5173  159.6477 C   0  0  0  0  0  0  0  0  0  0  0  0
  153.8570  139.4640  160.7412 C   0  0  0  0  0  0  0  0  0  0  0  0
  154.3073  138.2579  161.3481 N   0  0  0  0  0  0  0  0  0  0  0  0
  153.9363  136.9820  161.1251 C   0  0  0  0  0  0  0  0  0  0  0  0
  153.0862  136.6248  160.3133 O   0  0  0  0  0  0  0  0  0  0  0  0
  154.5874  136.0854  161.8890 N   0  0  0  0  0  0  0  0  0  0  0  0
  154.4327  134.6285  161.9058 C   0  0  1  0  0  0  0  0  0  0  0  0
  155.0741  134.0225  160.6504 C   0  0  0  0  0  0  0  0  0  0  0  0
  155.0134  132.4878  160.6978 C   0  0  0  0  0  0  0  0  0  0  0  0
  155.6403  132.0001  161.8822 O   0  0  0  0  0  0  0  0  0  0  0  0
  155.0803  132.4721  163.1090 C   0  0  2  0  0  0  0  0  0  0  0  0
  153.7042  131.8752  163.3732 C   0  0  0  0  0  0  0  0  0  0  0  0
  153.1587  131.7823  164.7792 C   0  0  0  0  0  0  0  0  0  0  0  0
  153.5693  130.5287  164.0439 C   0  0  0  0  0  0  0  0  0  0  0  0
  155.0958  134.0125  163.1519 C   0  0  0  0  0  0  0  0  0  0  0  0
  156.2537  140.2031  162.1286 H   0  0  0  0  0  0  0  0  0  0  0  0
  154.9116  140.2703  163.2784 H   0  0  0  0  0  0  0  0  0  0  0  0
  155.6126  141.7622  162.6489 H   0  0  0  0  0  0  0  0  0  0  0  0
  152.0846  144.2086  160.8956 H   0  0  0  0  0  0  0  0  0  0  0  0
  153.7444  144.6338  160.4491 H   0  0  0  0  0  0  0  0  0  0  0  0
  151.7248  146.3013  159.7277 H   0  0  0  0  0  0  0  0  0  0  0  0
  153.0286  145.9503  158.5902 H   0  0  0  0  0  0  0  0  0  0  0  0
  150.2898  144.6573  158.7028 H   0  0  0  0  0  0  0  0  0  0  0  0
  151.1140  145.2818  157.2750 H   0  0  0  0  0  0  0  0  0  0  0  0
  152.5001  143.3434  157.1393 H   0  0  0  0  0  0  0  0  0  0  0  0
  151.1443  142.6044  158.0024 H   0  0  0  0  0  0  0  0  0  0  0  0
  151.9154  140.8101  158.2818 H   0  0  0  0  0  0  0  0  0  0  0  0
  152.5537  138.6310  159.1883 H   0  0  0  0  0  0  0  0  0  0  0  0
  154.9899  138.3836  162.0811 H   0  0  0  0  0  0  0  0  0  0  0  0
  155.2868  136.4570  162.5156 H   0  0  0  0  0  0  0  0  0  0  0  0
  153.3703  134.3799  161.8918 H   0  0  0  0  0  0  0  0  0  0  0  0
  154.5716  134.3870  159.7536 H   0  0  0  0  0  0  0  0  0  0  0  0
  156.1159  134.3383  160.5750 H   0  0  0  0  0  0  0  0  0  0  0  0
  153.9833  132.1366  160.6350 H   0  0  0  0  0  0  0  0  0  0  0  0
  155.5339  132.0701  159.8360 H   0  0  0  0  0  0  0  0  0  0  0  0
  155.7416  132.1144  163.8990 H   0  0  0  0  0  0  0  0  0  0  0  0
  152.9647  132.0899  162.6051 H   0  0  0  0  0  0  0  0  0  0  0  0
  153.7959  132.1207  165.5938 H   0  0  0  0  0  0  0  0  0  0  0  0
  152.0936  131.9565  164.9177 H   0  0  0  0  0  0  0  0  0  0  0  0
  152.7791  129.8697  163.6901 H   0  0  0  0  0  0  0  0  0  0  0  0
  154.4807  130.0311  164.3699 H   0  0  0  0  0  0  0  0  0  0  0  0
  156.1319  134.3496  163.2079 H   0  0  0  0  0  0  0  0  0  0  0  0
  154.6134  134.3621  164.0653 H   0  0  0  0  0  0  0  0  0  0  0  0
  1  2  1  0  0  0  0
  1 26  1  0  0  0  0
  1 27  1  0  0  0  0
  1 28  1  0  0  0  0
  2 12  1  0  0  0  0
  2  3  2  0  0  0  0
  3  4  1  0  0  0  0
  4  5  1  0  0  0  0
  4 10  2  0  0  0  0
  5  9  1  0  0  0  0
  5  6  1  0  0  0  0
  6  7  1  0  0  0  0
  6 29  1  0  0  0  0
  6 30  1  0  0  0  0
  7  8  1  0  0  0  0
  7 31  1  0  0  0  0
  7 32  1  0  0  0  0
  8  9  1  0  0  0  0
  8 33  1  0  0  0  0
  8 34  1  0  0  0  0
  9 35  1  0  0  0  0
  9 36  1  0  0  0  0
 10 11  1  0  0  0  0
 10 37  1  0  0  0  0
 11 12  2  0  0  0  0
 11 38  1  0  0  0  0
 12 13  1  0  0  0  0
 13 14  1  0  0  0  0
 13 39  1  0  0  0  0
 14 15  2  0  0  0  0
 14 16  1  0  0  0  0
 16 17  1  0  0  0  0
 16 40  1  0  0  0  0
 17 25  1  0  0  0  0
 17 18  1  0  0  0  0
 17 41  1  0  0  0  0
 18 19  1  0  0  0  0
 18 42  1  0  0  0  0
 18 43  1  0  0  0  0
 19 20  1  0  0  0  0
 19 44  1  0  0  0  0
 19 45  1  0  0  0  0
 20 21  1  0  0  0  0
 21 22  1  0  0  0  0
 21 25  1  0  0  0  0
 21 46  1  0  0  0  0
 22 24  1  0  0  0  0
 22 23  1  0  0  0  0
 22 47  1  0  0  0  0
 23 24  1  0  0  0  0
 23 48  1  0  0  0  0
 23 49  1  0  0  0  0
 24 50  1  0  0  0  0
 24 51  1  0  0  0  0
 25 52  1  0  0  0  0
 25 53  1  0  0  0  0
M  END
> <s_m_source_file>
AV-unprocessed.smi

> <i_m_source_file_index>
2356

> <i_lp_mmshare_version>
43012

> <i_f3d_flags>
0

> <s_epik_input>
W0NIMl0xW0NIMl1bQ0gyXVtDSDJdTjFjKG5jMltDSDNdKVtjSF1bY0hdYzJbTkhdQyg9TylbTkhdW0NAQEhdM1tDSDJdW0NIMl1PW0NASF0oW0NIMl0zKVtDSF00W0NIMl1bQ0gyXTQ=

> <s_epik_cmdline>
J2VwaWtfcHl0aG9uJywgJy1waCcsICc3LjAnLCAnLXRuJywgJzgnLCAnLW1hJywgJzIwMCcsICctbWV0YWxfYmluZGluZycsICctaW1hZScsICc8aW5maWxlLm1hZT4nLCAnLW9tYWUnLCAnPG91dGZpbGUubWFlPic=

> <r_lp_tautomer_probability>
1

> <r_epik_Ionization_Penalty>
0.308781

> <r_epik_Ionization_Penalty_Charging>
0

> <r_epik_Ionization_Penalty_Neutral>
0.308781

> <r_epik_State_Penalty>
0.302092

> <r_epik_Charging_Adjusted_Penalty>
0.302092

> <i_epik_Tot_Q>
0

> <i_epik_Tot_abs_Q>
0

> <r_epik_Metal_State_Penalty>
0.197467

> <b_epik_Metal_Only>
0

> <s_lp_Force_Field>
OPLS_2005

> <r_lp_Energy>
54.1465

> <b_lp_Chiralities_Consistent>
1

> <s_lp_Variant>
AV-unprocessed.smi:2356-4

> <Gold.Version>
5.8.1

> <Gold.Id.Protein>
6NUR|6NUR_protein|mol2

> <Gold.PLP.Fitness>
47.5781

> <Gold.PLP.PLP>
-45.1303

> <Gold.PLP.part.hbond>
-1.0000

> <Gold.PLP.part.metal>
0.0000

> <Gold.PLP.part.buried>
-4.4849

> <Gold.PLP.part.nonpolar>
-39.6028

> <Gold.PLP.part.repulsive>
0.0456

> <Gold.PLP.ligand.clash>
0.0000

> <Gold.PLP.ligand.torsion>
0.9091

> <Gold.PLP.Chemscore.Hbond>
1.0000

> <Gold.PLP.Chemscore.CHOScore>
0.0000

> <Gold.PLP.Chemscore.Metal>
0.0000

> <Gold.Chemscore.Hbonds>
donor molecule, donor type, donor heavy atom, donor atom, acceptor molecule, acceptor atom, score
      P1  H  6896  6907       L1    15  1.00

> <Gold.PLP.Chemscore.Internal.Correction>
1.2659

> <Gold.Rescore>
     Score         DG    S(hbond)    S(metal)    S(lipo)     H(rot)  DE(clash)    DE(int)     intcor
     18.64     -20.86       1.00        0.00     127.82       1.14       0.18       2.03       ----

> <Gold.Chemscore.Fitness>
18.6422

> <Gold.Chemscore.DG>
-20.8552

> <Gold.Chemscore.ZeroCoef>
-5.4800

> <Gold.Chemscore.Hbond>
0.9992

> <Gold.Chemscore.Metal>
0.0000

> <Gold.Chemscore.Lipo>
127.8215

> <Gold.Chemscore.Internal_Hbond>
0.0000

> <Gold.Chemscore.DEClash>
0.1836

> <Gold.Chemscore.DEInternal>
2.0294

> <Gold.Chemscore.Rot>
1.1395

> <Gold.Chemscore.Internal.Correction>
   9.000000E+99

> <Gold.Chemscore.Hbonds>
donor molecule, donor type, donor heavy atom, donor atom, acceptor molecule, acceptor atom, score
      P1  H  6896  6907       L1    15  1.00

> <Gold.Chemscore.Hbond.Weighted>
-3.3372

> <Gold.Chemscore.Metal.Weighted>
-0.0000

> <Gold.Chemscore.Lipo.Weighted>
-14.9551

> <Gold.Chemscore.Internal_Hbond.Weighted>
0.0000

> <Gold.Chemscore.DEClash.Weighted>
0.1836

> <Gold.Chemscore.DEInternal.Weighted>
2.0294

> <Gold.Chemscore.Rot.Weighted>
2.9171

> <Gold.Chemscore.Internal.Correction.Weighted>
   9.000000E+99

> <Gold.Protein.RotatedTorsions>
[ 6907 6896 6895 6894 ] final   34.06 input  -60.11 | X-H torsion
[ 7974 7965 7964 7962 ] final -123.48 input  175.53 | X-H torsion
[ 8008 7997 7996 7995 ] final   80.63 input   59.86 | X-H torsion
[ 10167 10162 10161 10158 ] final  149.54 input  -65.29 | X-H torsion
[ 10718 10713 10712 10709 ] final  -67.50 input   66.30 | X-H torsion
[ 10763 10752 10751 10750 ] final  140.54 input  -60.55 | X-H torsion
[ 11005 11000 10999 10996 ] final  -35.88 input  -57.11 | X-H torsion

> <Gold.Protein.ActiveResidues>
 VAL166  LYS551  ARG553  GLY616  TRP617  ASP618  TYR619  PRO620  LYS621  CYS622 
 ASP623  PHE694  ASN695  SER759  ASP760  ASP761  ALA762  ILE779  LEU786  VAL792 
 PHE793  MET794  SER795  GLU796  ALA797  LYS798  CYS799  TRP800  GLU811  SER814 

> <Gold.Protein.RotatedAtoms>
  152.0972  134.9367  160.0570 H   0  0  0  0  0  0  0  0  0  0  0  0  # atno 6907 bound_to 6896
  152.0595  133.4051  159.4420 H   0  0  0  0  0  0  0  0  0  0  0  0  # atno 6908 bound_to 6896
  150.6838  134.3137  159.4800 H   0  0  0  0  0  0  0  0  0  0  0  0  # atno 6909 bound_to 6896
  145.0182  140.7965  143.4397 H   0  0  0  0  0  0  0  0  0  0  0  0  # atno 7974 bound_to 7965
  155.8861  140.3441  155.5922 H   0  0  0  0  0  0  0  0  0  0  0  0  # atno 8008 bound_to 7997
  155.7665  140.0839  157.2148 H   0  0  0  0  0  0  0  0  0  0  0  0  # atno 8009 bound_to 7997
  154.4029  140.1526  156.2879 H   0  0  0  0  0  0  0  0  0  0  0  0  # atno 8010 bound_to 7997
  139.4860  144.5593  151.7260 H   0  0  0  0  0  0  0  0  0  0  0  0  # atno 10167 bound_to 10162
  156.0554  130.4279  150.1863 H   0  0  0  0  0  0  0  0  0  0  0  0  # atno 10718 bound_to 10713
  153.9244  135.2997  155.3447 H   0  0  0  0  0  0  0  0  0  0  0  0  # atno 10763 bound_to 10752
  154.7559  135.4958  153.9376 H   0  0  0  0  0  0  0  0  0  0  0  0  # atno 10764 bound_to 10752
  153.1124  135.6762  153.9580 H   0  0  0  0  0  0  0  0  0  0  0  0  # atno 10765 bound_to 10752
  140.9831  133.7045  156.1718 H   0  0  0  0  0  0  0  0  0  0  0  0  # atno 11005 bound_to 11000
  145.1931  139.2291  143.5232 LP  0  0  0  0  0  0  0  0  0  0  0  0  # atno 17320 bound_to 7965
  146.3481  140.1731  142.8589 LP  0  0  0  0  0  0  0  0  0  0  0  0  # atno 17321 bound_to 7965
  140.5160  144.0952  150.6008 LP  0  0  0  0  0  0  0  0  0  0  0  0  # atno 17342 bound_to 10162
  140.3894  143.2760  152.0078 LP  0  0  0  0  0  0  0  0  0  0  0  0  # atno 17343 bound_to 10162
  156.9940  130.9902  151.3407 LP  0  0  0  0  0  0  0  0  0  0  0  0  # atno 17370 bound_to 10713
  157.5520  130.8188  149.8156 LP  0  0  0  0  0  0  0  0  0  0  0  0  # atno 17371 bound_to 10713
  140.7156  134.4414  157.5578 LP  0  0  0  0  0  0  0  0  0  0  0  0  # atno 17394 bound_to 11000
  139.8959  134.8673  156.2113 LP  0  0  0  0  0  0  0  0  0  0  0  0  # atno 17395 bound_to 11000

$$$$
