AV-unprocessed.smi:1830|AV-procd|sdf|7444|dock3
  -GOLD-   22720 9133D 1   1.00000     0.00000
 Structure written by MMmdl.
 54 57  0  0  0  0  0  0  0  0  3 V2000
  151.5200  137.8658  156.7663 O   0  0  0  0  0  0  0  0  0  0  0  0
  150.2991  137.9594  156.8890 C   0  0  0  0  0  0  0  0  0  0  0  0
  149.4684  136.9099  156.8412 N   0  0  0  0  0  0  0  0  0  0  0  0
  149.8928  135.5319  156.6244 C   0  0  0  0  0  0  0  0  0  0  0  0
  149.4854  135.0453  155.2262 C   0  0  2  0  0  0  0  0  0  0  0  0
  147.9863  135.3046  154.9431 C   0  0  0  0  0  0  0  0  0  0  0  0
  147.6531  134.7117  153.6355 N   0  3  2  0  0  0  0  0  0  0  0  0
  146.2745  134.8479  153.1352 C   0  0  0  0  0  0  0  0  0  0  0  0
  146.1017  133.6833  152.1394 C   0  0  0  0  0  0  0  0  0  0  0  0
  147.3737  132.8256  152.2731 C   0  0  0  0  0  0  0  0  0  0  0  0
  147.9567  133.2793  153.6078 C   0  0  1  0  0  0  0  0  0  0  0  0
  149.4583  133.0812  153.8508 C   0  0  0  0  0  0  0  0  0  0  0  0
  149.7670  133.6437  155.1279 O   0  0  0  0  0  0  0  0  0  0  0  0
  149.6301  139.1046  157.1038 N   0  0  0  0  0  0  0  0  0  0  0  0
  150.1704  140.4102  157.2807 C   0  0  0  0  0  0  0  0  0  0  0  0
  151.3575  140.6152  158.0304 C   0  0  0  0  0  0  0  0  0  0  0  0
  151.9106  141.9052  158.1337 C   0  0  0  0  0  0  0  0  0  0  0  0
  151.2784  142.9708  157.4714 C   0  0  0  0  0  0  0  0  0  0  0  0
  150.1589  142.7421  156.7545 N   0  3  0  0  0  0  0  0  0  0  0  0
  149.5692  141.5267  156.6290 C   0  0  0  0  0  0  0  0  0  0  0  0
  148.3915  141.4439  155.8511 N   0  0  0  0  0  0  0  0  0  0  0  0
  148.4436  141.6459  154.4077 C   0  0  0  0  0  0  0  0  0  0  0  0
  146.9899  141.8286  153.9812 C   0  0  0  0  0  0  0  0  0  0  0  0
  146.3903  142.5722  155.1708 C   0  0  0  0  0  0  0  0  0  0  0  0
  147.1494  142.0041  156.3746 C   0  0  0  0  0  0  0  0  0  0  0  0
  148.4777  137.0725  156.9471 H   0  0  0  0  0  0  0  0  0  0  0  0
  150.9742  135.4654  156.7513 H   0  0  0  0  0  0  0  0  0  0  0  0
  149.4417  134.8840  157.3780 H   0  0  0  0  0  0  0  0  0  0  0  0
  150.0840  135.5737  154.4815 H   0  0  0  0  0  0  0  0  0  0  0  0
  147.3628  134.8626  155.7221 H   0  0  0  0  0  0  0  0  0  0  0  0
  147.7773  136.3750  154.9247 H   0  0  0  0  0  0  0  0  0  0  0  0
  145.5660  134.7455  153.9588 H   0  0  0  0  0  0  0  0  0  0  0  0
  146.1202  135.8228  152.6722 H   0  0  0  0  0  0  0  0  0  0  0  0
  145.2131  133.1030  152.3908 H   0  0  0  0  0  0  0  0  0  0  0  0
  145.9803  134.0422  151.1168 H   0  0  0  0  0  0  0  0  0  0  0  0
  147.1678  131.7551  152.2446 H   0  0  0  0  0  0  0  0  0  0  0  0
  148.0644  133.0578  151.4611 H   0  0  0  0  0  0  0  0  0  0  0  0
  147.3995  132.7885  154.4095 H   0  0  0  0  0  0  0  0  0  0  0  0
  149.7091  132.0204  153.8552 H   0  0  0  0  0  0  0  0  0  0  0  0
  150.0568  133.5560  153.0715 H   0  0  0  0  0  0  0  0  0  0  0  0
  148.6385  139.0171  157.2716 H   0  0  0  0  0  0  0  0  0  0  0  0
  151.8687  139.7953  158.5117 H   0  0  0  0  0  0  0  0  0  0  0  0
  152.8141  142.0711  158.7022 H   0  0  0  0  0  0  0  0  0  0  0  0
  151.6335  143.9911  157.4875 H   0  0  0  0  0  0  0  0  0  0  0  0
  149.0110  142.5465  154.1688 H   0  0  0  0  0  0  0  0  0  0  0  0
  148.9104  140.7999  153.9025 H   0  0  0  0  0  0  0  0  0  0  0  0
  146.8869  142.3708  153.0407 H   0  0  0  0  0  0  0  0  0  0  0  0
  146.5078  140.8563  153.8681 H   0  0  0  0  0  0  0  0  0  0  0  0
  146.5971  143.6391  155.0764 H   0  0  0  0  0  0  0  0  0  0  0  0
  145.3104  142.4455  155.2524 H   0  0  0  0  0  0  0  0  0  0  0  0
  146.5702  141.2026  156.8337 H   0  0  0  0  0  0  0  0  0  0  0  0
  147.3278  142.7710  157.1294 H   0  0  0  0  0  0  0  0  0  0  0  0
  148.2512  135.1448  152.9463 H   0  0  0  0  0  0  0  0  0  0  0  0
  149.7251  143.5360  156.2832 H   0  0  0  0  0  0  0  0  0  0  0  0
  1  2  2  0  0  0  0
  2  3  1  0  0  0  0
  2 14  1  0  0  0  0
  3  4  1  0  0  0  0
  3 26  1  0  0  0  0
  4  5  1  0  0  0  0
  4 27  1  0  0  0  0
  4 28  1  0  0  0  0
  5 13  1  0  0  0  0
  5  6  1  0  0  0  0
  5 29  1  0  0  0  0
  6  7  1  0  0  0  0
  6 30  1  0  0  0  0
  6 31  1  0  0  0  0
  7 11  1  0  0  0  0
  7  8  1  0  0  0  0
  7 53  1  0  0  0  0
  8  9  1  0  0  0  0
  8 32  1  0  0  0  0
  8 33  1  0  0  0  0
  9 10  1  0  0  0  0
  9 34  1  0  0  0  0
  9 35  1  0  0  0  0
 10 11  1  0  0  0  0
 10 36  1  0  0  0  0
 10 37  1  0  0  0  0
 11 12  1  0  0  0  0
 11 38  1  0  0  0  0
 12 13  1  0  0  0  0
 12 39  1  0  0  0  0
 12 40  1  0  0  0  0
 14 15  1  0  0  0  0
 14 41  1  0  0  0  0
 15 20  1  0  0  0  0
 15 16  2  0  0  0  0
 16 17  1  0  0  0  0
 16 42  1  0  0  0  0
 17 18  2  0  0  0  0
 17 43  1  0  0  0  0
 18 19  1  0  0  0  0
 18 44  1  0  0  0  0
 19 20  2  0  0  0  0
 19 54  1  0  0  0  0
 20 21  1  0  0  0  0
 21 25  1  0  0  0  0
 21 22  1  0  0  0  0
 22 23  1  0  0  0  0
 22 45  1  0  0  0  0
 22 46  1  0  0  0  0
 23 24  1  0  0  0  0
 23 47  1  0  0  0  0
 23 48  1  0  0  0  0
 24 25  1  0  0  0  0
 24 49  1  0  0  0  0
 24 50  1  0  0  0  0
 25 51  1  0  0  0  0
 25 52  1  0  0  0  0
M  CHG  1   7   1
M  CHG  1  19   1
M  END
> <s_m_source_file>
AV-unprocessed.smi

> <i_m_source_file_index>
1830

> <i_lp_mmshare_version>
43012

> <i_f3d_flags>
0

> <s_epik_input>
W0NIMl0xW0NIMl1bQ0gyXVtDQEhdKE4xMilbQ0gyXU9bQ0BASF0oW0NIMl0yKVtDSDJdW05IXUMoPU8pW05IXWMzW2NIXVtjSF1bY0hdbmMzTjRbQ0gyXVtDSDJdW0NIMl1bQ0gyXTQ=

> <s_epik_cmdline>
J2VwaWtfcHl0aG9uJywgJy1waCcsICc3LjAnLCAnLXRuJywgJzgnLCAnLW1hJywgJzIwMCcsICctbWV0YWxfYmluZGluZycsICctaW1hZScsICc8aW5maWxlLm1hZT4nLCAnLW9tYWUnLCAnPG91dGZpbGUubWFlPic=

> <r_lp_tautomer_probability>
0.999994

> <r_epik_Ionization_Penalty>
1.29113

> <r_epik_Ionization_Penalty_Charging>
1.29111

> <r_epik_Ionization_Penalty_Neutral>
1.88144e-05

> <r_epik_State_Penalty>
1.32676

> <r_epik_Charging_Adjusted_Penalty>
2.61787

> <i_epik_Tot_Q>
2

> <i_epik_Tot_abs_Q>
2

> <r_epik_Metal_State_Penalty>
1.40425

> <b_epik_Metal_Only>
0

> <s_lp_Force_Field>
OPLS_2005

> <r_lp_Energy>
74.3766

> <b_lp_Chiralities_Consistent>
1

> <s_lp_Variant>
AV-unprocessed.smi:1830-13

> <Gold.Version>
5.8.1

> <Gold.Id.Protein>
6NUR|6NUR_protein|mol2

> <Gold.PLP.Fitness>
46.4700

> <Gold.PLP.PLP>
-35.3052

> <Gold.PLP.part.hbond>
-2.0000

> <Gold.PLP.part.metal>
0.0000

> <Gold.PLP.part.buried>
-3.8177

> <Gold.PLP.part.nonpolar>
-28.6026

> <Gold.PLP.part.repulsive>
0.2525

> <Gold.PLP.ligand.clash>
0.0000

> <Gold.PLP.ligand.torsion>
0.6219

> <Gold.PLP.Chemscore.Hbond>
4.0000

> <Gold.PLP.Chemscore.CHOScore>
0.0000

> <Gold.PLP.Chemscore.Metal>
0.0000

> <Gold.Chemscore.Hbonds>
donor molecule, donor type, donor heavy atom, donor atom, acceptor molecule, acceptor atom, score
      L1  H     7    53       P1  7948  2.00
      L1  H    19    54       P1  8028  2.00

> <Gold.PLP.Chemscore.Internal.Correction>
0.4086

> <Gold.Rescore>
     Score         DG    S(hbond)    S(metal)    S(lipo)     H(rot)  DE(clash)    DE(int)     intcor
     16.67     -18.26       1.94        0.00      85.00       1.43       0.06       1.53       ----

> <Gold.Chemscore.Fitness>
16.6727

> <Gold.Chemscore.DG>
-18.2623

> <Gold.Chemscore.ZeroCoef>
-5.4800

> <Gold.Chemscore.Hbond>
1.9437

> <Gold.Chemscore.Metal>
0.0000

> <Gold.Chemscore.Lipo>
85.0049

> <Gold.Chemscore.Internal_Hbond>
0.0000

> <Gold.Chemscore.DEClash>
0.0629

> <Gold.Chemscore.DEInternal>
1.5268

> <Gold.Chemscore.Rot>
1.4278

> <Gold.Chemscore.Internal.Correction>
   9.000000E+99

> <Gold.Chemscore.Hbonds>
donor molecule, donor type, donor heavy atom, donor atom, acceptor molecule, acceptor atom, score
      L1  H     7    53       P1  7948  0.94
      L1  H    19    54       P1  8028  0.97

> <Gold.Chemscore.Hbond.Weighted>
-6.4918

> <Gold.Chemscore.Metal.Weighted>
-0.0000

> <Gold.Chemscore.Lipo.Weighted>
-9.9456

> <Gold.Chemscore.Internal_Hbond.Weighted>
0.0000

> <Gold.Chemscore.DEClash.Weighted>
0.0629

> <Gold.Chemscore.DEInternal.Weighted>
1.5268

> <Gold.Chemscore.Rot.Weighted>
3.6551

> <Gold.Chemscore.Internal.Correction.Weighted>
   9.000000E+99

> <Gold.Protein.RotatedTorsions>
[ 6907 6896 6895 6894 ] final -121.59 input  -60.11 | X-H torsion
[ 7974 7965 7964 7962 ] final    3.44 input  175.53 | X-H torsion
[ 8008 7997 7996 7995 ] final  -82.16 input   59.86 | X-H torsion
[ 10167 10162 10161 10158 ] final  158.00 input  -65.29 | X-H torsion
[ 10718 10713 10712 10709 ] final  100.91 input   66.30 | X-H torsion
[ 10763 10752 10751 10750 ] final  127.03 input  -60.55 | X-H torsion
[ 11005 11000 10999 10996 ] final   76.95 input  -57.11 | X-H torsion

> <Gold.Protein.ActiveResidues>
 VAL166  LYS551  ARG553  GLY616  TRP617  ASP618  TYR619  PRO620  LYS621  CYS622 
 ASP623  PHE694  ASN695  SER759  ASP760  ASP761  ALA762  ILE779  LEU786  VAL792 
 PHE793  MET794  SER795  GLU796  ALA797  LYS798  CYS799  TRP800  GLU811  SER814 

> <Gold.Protein.RotatedAtoms>
  150.8497  133.7806  159.3029 H   0  0  0  0  0  0  0  0  0  0  0  0  # atno 6907 bound_to 6896
  151.5481  135.1066  159.9952 H   0  0  0  0  0  0  0  0  0  0  0  0  # atno 6908 bound_to 6896
  152.4543  133.7648  159.6822 H   0  0  0  0  0  0  0  0  0  0  0  0  # atno 6909 bound_to 6896
  146.2445  140.0684  142.8364 H   0  0  0  0  0  0  0  0  0  0  0  0  # atno 7974 bound_to 7965
  154.6058  140.0637  156.9429 H   0  0  0  0  0  0  0  0  0  0  0  0  # atno 8008 bound_to 7997
  155.2056  140.3318  155.4318 H   0  0  0  0  0  0  0  0  0  0  0  0  # atno 8009 bound_to 7997
  156.2346  140.1857  156.7136 H   0  0  0  0  0  0  0  0  0  0  0  0  # atno 8010 bound_to 7997
  139.4825  144.4865  151.8369 H   0  0  0  0  0  0  0  0  0  0  0  0  # atno 10167 bound_to 10162
  157.6842  131.0711  150.5172 H   0  0  0  0  0  0  0  0  0  0  0  0  # atno 10718 bound_to 10713
  153.7028  135.3280  155.3228 H   0  0  0  0  0  0  0  0  0  0  0  0  # atno 10763 bound_to 10752
  154.8408  135.4458  154.1393 H   0  0  0  0  0  0  0  0  0  0  0  0  # atno 10764 bound_to 10752
  153.2465  135.6977  153.7804 H   0  0  0  0  0  0  0  0  0  0  0  0  # atno 10765 bound_to 10752
  139.9276  134.7643  156.1460 H   0  0  0  0  0  0  0  0  0  0  0  0  # atno 11005 bound_to 11000
  145.0838  140.9238  143.4810 LP  0  0  0  0  0  0  0  0  0  0  0  0  # atno 17320 bound_to 7965
  145.0843  139.2937  143.5768 LP  0  0  0  0  0  0  0  0  0  0  0  0  # atno 17321 bound_to 7965
  140.4346  144.2069  150.5889 LP  0  0  0  0  0  0  0  0  0  0  0  0  # atno 17342 bound_to 10162
  140.4745  143.2401  151.9042 LP  0  0  0  0  0  0  0  0  0  0  0  0  # atno 17343 bound_to 10162
  156.5487  130.4226  149.6118 LP  0  0  0  0  0  0  0  0  0  0  0  0  # atno 17370 bound_to 10713
  156.2922  130.7130  151.1982 LP  0  0  0  0  0  0  0  0  0  0  0  0  # atno 17371 bound_to 10713
  141.0844  133.6740  156.2404 LP  0  0  0  0  0  0  0  0  0  0  0  0  # atno 17394 bound_to 11000
  140.6293  134.5281  157.5557 LP  0  0  0  0  0  0  0  0  0  0  0  0  # atno 17395 bound_to 11000

$$$$
