AV-unprocessed.smi:2885|AV-procd|sdf|11086|dock4
  -GOLD-   2272015553D 1   1.00000     0.00000
 Structure written by MMmdl.
 40 42  0  0  0  0  0  0  0  0  1 V2000
  144.6448  138.2137  152.8549 N   0  0  0  0  0  0  0  0  0  0  0  0
  145.9056  138.0852  153.2777 C   0  0  0  0  0  0  0  0  0  0  0  0
  146.4736  136.9964  153.3288 O   0  0  0  0  0  0  0  0  0  0  0  0
  146.5479  139.3488  153.7308 C   0  0  0  0  0  0  0  0  0  0  0  0
  147.8636  139.7184  153.5619 C   0  0  0  0  0  0  0  0  0  0  0  0
  148.0168  140.9545  154.1782 N   0  0  0  0  0  0  0  0  0  0  0  0
  149.2578  141.7147  154.2546 C   0  0  0  0  0  0  0  0  0  0  0  0
  150.0020  141.4681  155.5698 C   0  0  0  0  0  0  0  0  0  0  0  0
  150.2317  140.3160  155.9363 O   0  0  0  0  0  0  0  0  0  0  0  0
  150.3898  142.5538  156.2573 N   0  0  0  0  0  0  0  0  0  0  0  0
  151.2238  142.5346  157.4514 C   0  0  0  0  0  0  0  0  0  0  0  0
  151.5986  143.9531  157.8748 C   0  0  0  0  0  0  0  0  0  0  0  0
  152.6700  144.1700  158.9526 C   0  0  0  0  0  0  0  0  0  0  0  0
  151.8720  145.3846  159.4354 C   0  0  0  0  0  0  0  0  0  0  0  0
  150.6439  144.7619  158.7664 C   0  0  0  0  0  0  0  0  0  0  0  0
  146.8030  141.2739  154.6732 C   0  0  0  0  0  0  0  0  0  0  0  0
  146.5363  142.5248  155.4493 C   0  0  0  0  0  0  0  0  0  0  0  0
  145.2144  142.7407  156.1520 C   0  0  0  0  0  0  0  0  0  0  0  0
  145.5653  143.5684  154.9432 C   0  0  0  0  0  0  0  0  0  0  0  0
  145.8877  140.3350  154.4574 N   0  0  0  0  0  0  0  0  0  0  0  0
  144.1380  137.4001  152.5380 H   0  0  0  0  0  0  0  0  0  0  0  0
  144.2028  139.1209  152.8609 H   0  0  0  0  0  0  0  0  0  0  0  0
  148.6864  139.2150  153.0756 H   0  0  0  0  0  0  0  0  0  0  0  0
  149.9022  141.4341  153.4205 H   0  0  0  0  0  0  0  0  0  0  0  0
  149.0322  142.7752  154.1392 H   0  0  0  0  0  0  0  0  0  0  0  0
  150.1523  143.4607  155.8823 H   0  0  0  0  0  0  0  0  0  0  0  0
  150.6666  142.0349  158.2440 H   0  0  0  0  0  0  0  0  0  0  0  0
  152.1171  141.9326  157.2779 H   0  0  0  0  0  0  0  0  0  0  0  0
  151.8583  144.5613  157.0053 H   0  0  0  0  0  0  0  0  0  0  0  0
  152.7007  143.3663  159.6902 H   0  0  0  0  0  0  0  0  0  0  0  0
  153.6639  144.4000  158.5673 H   0  0  0  0  0  0  0  0  0  0  0  0
  151.8021  145.4845  160.5189 H   0  0  0  0  0  0  0  0  0  0  0  0
  152.1869  146.3150  158.9600 H   0  0  0  0  0  0  0  0  0  0  0  0
  150.0061  145.4652  158.2298 H   0  0  0  0  0  0  0  0  0  0  0  0
  150.0655  144.1345  159.4469 H   0  0  0  0  0  0  0  0  0  0  0  0
  147.4389  142.8653  155.9532 H   0  0  0  0  0  0  0  0  0  0  0  0
  144.4439  141.9813  156.0315 H   0  0  0  0  0  0  0  0  0  0  0  0
  145.2363  143.2328  157.1220 H   0  0  0  0  0  0  0  0  0  0  0  0
  145.8259  144.6125  155.1031 H   0  0  0  0  0  0  0  0  0  0  0  0
  145.0268  143.3574  154.0214 H   0  0  0  0  0  0  0  0  0  0  0  0
  1  2  1  0  0  0  0
  1 21  1  0  0  0  0
  1 22  1  0  0  0  0
  2  3  2  0  0  0  0
  2  4  1  0  0  0  0
  4 20  1  0  0  0  0
  4  5  2  0  0  0  0
  5  6  1  0  0  0  0
  5 23  1  0  0  0  0
  6  7  1  0  0  0  0
  6 16  1  0  0  0  0
  7  8  1  0  0  0  0
  7 24  1  0  0  0  0
  7 25  1  0  0  0  0
  8  9  2  0  0  0  0
  8 10  1  0  0  0  0
 10 11  1  0  0  0  0
 10 26  1  0  0  0  0
 11 12  1  0  0  0  0
 11 27  1  0  0  0  0
 11 28  1  0  0  0  0
 12 15  1  0  0  0  0
 12 13  1  0  0  0  0
 12 29  1  0  0  0  0
 13 14  1  0  0  0  0
 13 30  1  0  0  0  0
 13 31  1  0  0  0  0
 14 15  1  0  0  0  0
 14 32  1  0  0  0  0
 14 33  1  0  0  0  0
 15 34  1  0  0  0  0
 15 35  1  0  0  0  0
 16 17  1  0  0  0  0
 16 20  2  0  0  0  0
 17 19  1  0  0  0  0
 17 18  1  0  0  0  0
 17 36  1  0  0  0  0
 18 19  1  0  0  0  0
 18 37  1  0  0  0  0
 18 38  1  0  0  0  0
 19 39  1  0  0  0  0
 19 40  1  0  0  0  0
M  END
> <s_m_source_file>
AV-unprocessed.smi

> <i_m_source_file_index>
2885

> <i_lp_mmshare_version>
43012

> <i_f3d_flags>
0

> <s_epik_input>
W05IMl1DKD1PKWMxW2NIXW4oYyhuMSlbQ0hdMltDSDJdW0NIMl0yKVtDSDJdQyg9TylbTkhdW0NIMl1bQ0hdM1tDSDJdW0NIMl1bQ0gyXTM=

> <s_epik_cmdline>
J2VwaWtfcHl0aG9uJywgJy1waCcsICc3LjAnLCAnLXRuJywgJzgnLCAnLW1hJywgJzIwMCcsICctbWV0YWxfYmluZGluZycsICctaW1hZScsICc8aW5maWxlLm1hZT4nLCAnLW9tYWUnLCAnPG91dGZpbGUubWFlPic=

> <r_lp_tautomer_probability>
1

> <r_epik_Ionization_Penalty>
0.00135877

> <r_epik_Ionization_Penalty_Charging>
0.00135847

> <r_epik_Ionization_Penalty_Neutral>
3.0068e-07

> <r_epik_State_Penalty>
0.000904027

> <r_epik_Charging_Adjusted_Penalty>
0.00226249

> <i_epik_Tot_Q>
0

> <i_epik_Tot_abs_Q>
0

> <r_epik_Metal_State_Penalty>
-0

> <b_epik_Metal_Only>
0

> <s_lp_Force_Field>
OPLS_2005

> <r_lp_Energy>
17.7141

> <b_lp_Chiralities_Consistent>
1

> <s_lp_Variant>
AV-unprocessed.smi:2885-1

> <Gold.Version>
5.8.1

> <Gold.Id.Protein>
6NUR|6NUR_protein|mol2

> <Gold.PLP.Fitness>
43.8361

> <Gold.PLP.PLP>
-37.3769

> <Gold.PLP.part.hbond>
-2.0000

> <Gold.PLP.part.metal>
0.0000

> <Gold.PLP.part.buried>
-2.8828

> <Gold.PLP.part.nonpolar>
-33.2626

> <Gold.PLP.part.repulsive>
1.1465

> <Gold.PLP.ligand.clash>
0.0000

> <Gold.PLP.ligand.torsion>
1.2781

> <Gold.PLP.Chemscore.Hbond>
2.0000

> <Gold.PLP.Chemscore.CHOScore>
0.9115

> <Gold.PLP.Chemscore.Metal>
0.0000

> <Gold.Chemscore.Hbonds>
donor molecule, donor type, donor heavy atom, donor atom, acceptor molecule, acceptor atom, score
      L1  H     1    22       P1 10175  0.88
      L1  H    10    26       P1  8028  0.96
      L1  C     5    23       P1  7957  0.83

> <Gold.PLP.Chemscore.Internal.Correction>
0.2809

> <Gold.Rescore>
     Score         DG    S(hbond)    S(metal)    S(lipo)     H(rot)  DE(clash)    DE(int)     intcor
     15.86     -17.32       1.91        0.00      89.90       1.98       0.11       1.35       ----

> <Gold.Chemscore.Fitness>
15.8612

> <Gold.Chemscore.DG>
-17.3219

> <Gold.Chemscore.ZeroCoef>
-5.4800

> <Gold.Chemscore.Hbond>
1.9133

> <Gold.Chemscore.Metal>
0.0000

> <Gold.Chemscore.Lipo>
89.8964

> <Gold.Chemscore.Internal_Hbond>
0.0000

> <Gold.Chemscore.DEClash>
0.1131

> <Gold.Chemscore.DEInternal>
1.3475

> <Gold.Chemscore.Rot>
1.9791

> <Gold.Chemscore.Internal.Correction>
   9.000000E+99

> <Gold.Chemscore.Hbonds>
donor molecule, donor type, donor heavy atom, donor atom, acceptor molecule, acceptor atom, score
      L1  H     1    22       P1 10175  0.85
      L1  H    10    26       P1  8028  0.92

> <Gold.Chemscore.Hbond.Weighted>
-6.3905

> <Gold.Chemscore.Metal.Weighted>
-0.0000

> <Gold.Chemscore.Lipo.Weighted>
-10.5179

> <Gold.Chemscore.Internal_Hbond.Weighted>
0.0000

> <Gold.Chemscore.DEClash.Weighted>
0.1131

> <Gold.Chemscore.DEInternal.Weighted>
1.3475

> <Gold.Chemscore.Rot.Weighted>
5.0665

> <Gold.Chemscore.Internal.Correction.Weighted>
   9.000000E+99

> <Gold.Protein.RotatedTorsions>
[ 6907 6896 6895 6894 ] final   37.62 input  -60.11 | X-H torsion
[ 7974 7965 7964 7962 ] final  -27.97 input  175.53 | X-H torsion
[ 8008 7997 7996 7995 ] final   84.02 input   59.86 | X-H torsion
[ 10167 10162 10161 10158 ] final   77.77 input  -65.29 | X-H torsion
[ 10718 10713 10712 10709 ] final  174.05 input   66.30 | X-H torsion
[ 10763 10752 10751 10750 ] final  -86.53 input  -60.55 | X-H torsion
[ 11005 11000 10999 10996 ] final -113.86 input  -57.11 | X-H torsion

> <Gold.Protein.ActiveResidues>
 VAL166  LYS551  ARG553  GLY616  TRP617  ASP618  TYR619  PRO620  LYS621  CYS622 
 ASP623  PHE694  ASN695  SER759  ASP760  ASP761  ALA762  ILE779  LEU786  VAL792 
 PHE793  MET794  SER795  GLU796  ALA797  LYS798  CYS799  TRP800  GLU811  SER814 

> <Gold.Protein.RotatedAtoms>
  152.1455  134.9029  160.0551 H   0  0  0  0  0  0  0  0  0  0  0  0  # atno 6907 bound_to 6896
  152.0080  133.3846  159.4216 H   0  0  0  0  0  0  0  0  0  0  0  0  # atno 6908 bound_to 6896
  150.6869  134.3683  159.5024 H   0  0  0  0  0  0  0  0  0  0  0  0  # atno 6909 bound_to 6896
  146.1321  140.5221  142.8689 H   0  0  0  0  0  0  0  0  0  0  0  0  # atno 7974 bound_to 7965
  155.9316  140.3414  155.6254 H   0  0  0  0  0  0  0  0  0  0  0  0  # atno 8008 bound_to 7997
  155.7150  140.0776  157.2373 H   0  0  0  0  0  0  0  0  0  0  0  0  # atno 8009 bound_to 7997
  154.4086  140.1616  156.2326 H   0  0  0  0  0  0  0  0  0  0  0  0  # atno 8010 bound_to 7997
  139.9781  144.5846  150.7925 H   0  0  0  0  0  0  0  0  0  0  0  0  # atno 10167 bound_to 10162
  156.9552  131.0043  151.2940 H   0  0  0  0  0  0  0  0  0  0  0  0  # atno 10718 bound_to 10713
  154.6235  135.5446  153.7601 H   0  0  0  0  0  0  0  0  0  0  0  0  # atno 10763 bound_to 10752
  153.0249  135.6418  154.1406 H   0  0  0  0  0  0  0  0  0  0  0  0  # atno 10764 bound_to 10752
  154.1339  135.2912  155.3158 H   0  0  0  0  0  0  0  0  0  0  0  0  # atno 10765 bound_to 10752
  141.0588  133.9569  157.2705 H   0  0  0  0  0  0  0  0  0  0  0  0  # atno 11005 bound_to 11000
  144.7701  140.5618  143.6676 LP  0  0  0  0  0  0  0  0  0  0  0  0  # atno 17320 bound_to 7965
  145.5238  139.1476  143.3537 LP  0  0  0  0  0  0  0  0  0  0  0  0  # atno 17321 bound_to 7965
  140.7499  143.2946  151.3239 LP  0  0  0  0  0  0  0  0  0  0  0  0  # atno 17342 bound_to 10162
  139.6430  144.0503  152.2569 LP  0  0  0  0  0  0  0  0  0  0  0  0  # atno 17343 bound_to 10162
  157.5695  130.8300  149.8372 LP  0  0  0  0  0  0  0  0  0  0  0  0  # atno 17370 bound_to 10713
  156.0345  130.3755  150.1596 LP  0  0  0  0  0  0  0  0  0  0  0  0  # atno 17371 bound_to 10713
  139.9414  135.0190  156.8719 LP  0  0  0  0  0  0  0  0  0  0  0  0  # atno 17394 bound_to 11000
  140.5910  134.0262  155.7500 LP  0  0  0  0  0  0  0  0  0  0  0  0  # atno 17395 bound_to 11000

$$$$
