AV-unprocessed.smi:2356|AV-procd|sdf|9397|dock6
  -GOLD-   2272013 33D 1   1.00000     0.00000
 Structure written by MMmdl.
 54 57  0  0  0  0  0  0  0  0  2 V2000
  147.0525  142.5493  153.8763 C   0  0  0  0  0  0  0  0  0  0  0  0
  148.1824  141.6639  154.3713 C   0  0  0  0  0  0  0  0  0  0  0  0
  149.1030  142.2261  155.1855 N   0  3  0  0  0  0  0  0  0  0  0  0
  150.1593  141.5598  155.7103 C   0  0  0  0  0  0  0  0  0  0  0  0
  151.0512  142.2586  156.5493 N   0  0  0  0  0  0  0  0  0  0  0  0
  150.9871  143.7100  156.5984 C   0  0  0  0  0  0  0  0  0  0  0  0
  151.9057  144.1240  157.7510 C   0  0  0  0  0  0  0  0  0  0  0  0
  152.0991  142.8585  158.5975 C   0  0  0  0  0  0  0  0  0  0  0  0
  151.2895  141.7652  157.8943 C   0  0  0  0  0  0  0  0  0  0  0  0
  150.3185  140.1923  155.3857 C   0  0  0  0  0  0  0  0  0  0  0  0
  149.3858  139.5591  154.5401 C   0  0  0  0  0  0  0  0  0  0  0  0
  148.3008  140.3009  154.0111 C   0  0  0  0  0  0  0  0  0  0  0  0
  147.3014  139.7393  153.1699 N   0  0  0  0  0  0  0  0  0  0  0  0
  146.6959  138.5385  153.2485 C   0  0  0  0  0  0  0  0  0  0  0  0
  146.9364  137.6872  154.1014 O   0  0  0  0  0  0  0  0  0  0  0  0
  145.7892  138.3184  152.2790 N   0  0  0  0  0  0  0  0  0  0  0  0
  144.9576  137.1306  152.0691 C   0  0  2  0  0  0  0  0  0  0  0  0
  143.7277  137.1888  152.9845 C   0  0  0  0  0  0  0  0  0  0  0  0
  142.9000  135.9005  152.8610 C   0  0  0  0  0  0  0  0  0  0  0  0
  143.7055  134.7613  153.1562 O   0  0  0  0  0  0  0  0  0  0  0  0
  144.8526  134.5915  152.3218 C   0  0  1  0  0  0  0  0  0  0  0  0
  144.4701  134.1811  150.9060 C   0  0  0  0  0  0  0  0  0  0  0  0
  143.7901  132.8572  150.6487 C   0  0  0  0  0  0  0  0  0  0  0  0
  145.2134  133.0755  150.1937 C   0  0  0  0  0  0  0  0  0  0  0  0
  145.7485  135.8445  152.3727 C   0  0  0  0  0  0  0  0  0  0  0  0
  146.0870  142.1331  154.1654 H   0  0  0  0  0  0  0  0  0  0  0  0
  147.0809  142.6290  152.7894 H   0  0  0  0  0  0  0  0  0  0  0  0
  147.1233  143.5555  154.2906 H   0  0  0  0  0  0  0  0  0  0  0  0
  151.3062  144.1568  155.6561 H   0  0  0  0  0  0  0  0  0  0  0  0
  149.9610  144.0234  156.7967 H   0  0  0  0  0  0  0  0  0  0  0  0
  152.8679  144.4625  157.3647 H   0  0  0  0  0  0  0  0  0  0  0  0
  151.4763  144.9436  158.3281 H   0  0  0  0  0  0  0  0  0  0  0  0
  153.1556  142.5890  158.6240 H   0  0  0  0  0  0  0  0  0  0  0  0
  151.7692  142.9979  159.6273 H   0  0  0  0  0  0  0  0  0  0  0  0
  150.3356  141.6088  158.4004 H   0  0  0  0  0  0  0  0  0  0  0  0
  151.8333  140.8201  157.8846 H   0  0  0  0  0  0  0  0  0  0  0  0
  151.1433  139.6155  155.7765 H   0  0  0  0  0  0  0  0  0  0  0  0
  149.5177  138.5098  154.3279 H   0  0  0  0  0  0  0  0  0  0  0  0
  147.0538  140.2978  152.3662 H   0  0  0  0  0  0  0  0  0  0  0  0
  145.6616  139.0629  151.6085 H   0  0  0  0  0  0  0  0  0  0  0  0
  144.6036  137.1122  151.0372 H   0  0  0  0  0  0  0  0  0  0  0  0
  144.0398  137.3161  154.0222 H   0  0  0  0  0  0  0  0  0  0  0  0
  143.1098  138.0523  152.7354 H   0  0  0  0  0  0  0  0  0  0  0  0
  142.0678  135.9261  153.5646 H   0  0  0  0  0  0  0  0  0  0  0  0
  142.4604  135.8142  151.8672 H   0  0  0  0  0  0  0  0  0  0  0  0
  145.4178  133.7643  152.7532 H   0  0  0  0  0  0  0  0  0  0  0  0
  144.1457  135.0027  150.2715 H   0  0  0  0  0  0  0  0  0  0  0  0
  143.6301  132.1956  151.4977 H   0  0  0  0  0  0  0  0  0  0  0  0
  143.0147  132.8319  149.8858 H   0  0  0  0  0  0  0  0  0  0  0  0
  145.3869  133.1937  149.1261 H   0  0  0  0  0  0  0  0  0  0  0  0
  146.0004  132.5587  150.7395 H   0  0  0  0  0  0  0  0  0  0  0  0
  146.5868  135.7305  151.6847 H   0  0  0  0  0  0  0  0  0  0  0  0
  146.1834  135.9207  153.3703 H   0  0  0  0  0  0  0  0  0  0  0  0
  148.9933  143.2122  155.4217 H   0  0  0  0  0  0  0  0  0  0  0  0
  1  2  1  0  0  0  0
  1 26  1  0  0  0  0
  1 27  1  0  0  0  0
  1 28  1  0  0  0  0
  2 12  1  0  0  0  0
  2  3  2  0  0  0  0
  3  4  1  0  0  0  0
  3 54  1  0  0  0  0
  4  5  1  0  0  0  0
  4 10  2  0  0  0  0
  5  9  1  0  0  0  0
  5  6  1  0  0  0  0
  6  7  1  0  0  0  0
  6 29  1  0  0  0  0
  6 30  1  0  0  0  0
  7  8  1  0  0  0  0
  7 31  1  0  0  0  0
  7 32  1  0  0  0  0
  8  9  1  0  0  0  0
  8 33  1  0  0  0  0
  8 34  1  0  0  0  0
  9 35  1  0  0  0  0
  9 36  1  0  0  0  0
 10 11  1  0  0  0  0
 10 37  1  0  0  0  0
 11 12  2  0  0  0  0
 11 38  1  0  0  0  0
 12 13  1  0  0  0  0
 13 14  1  0  0  0  0
 13 39  1  0  0  0  0
 14 15  2  0  0  0  0
 14 16  1  0  0  0  0
 16 17  1  0  0  0  0
 16 40  1  0  0  0  0
 17 25  1  0  0  0  0
 17 18  1  0  0  0  0
 17 41  1  0  0  0  0
 18 19  1  0  0  0  0
 18 42  1  0  0  0  0
 18 43  1  0  0  0  0
 19 20  1  0  0  0  0
 19 44  1  0  0  0  0
 19 45  1  0  0  0  0
 20 21  1  0  0  0  0
 21 22  1  0  0  0  0
 21 25  1  0  0  0  0
 21 46  1  0  0  0  0
 22 24  1  0  0  0  0
 22 23  1  0  0  0  0
 22 47  1  0  0  0  0
 23 24  1  0  0  0  0
 23 48  1  0  0  0  0
 23 49  1  0  0  0  0
 24 50  1  0  0  0  0
 24 51  1  0  0  0  0
 25 52  1  0  0  0  0
 25 53  1  0  0  0  0
M  CHG  1   3   1
M  END
> <s_m_source_file>
AV-unprocessed.smi

> <i_m_source_file_index>
2356

> <i_lp_mmshare_version>
43012

> <i_f3d_flags>
0

> <s_epik_input>
W0NIMl0xW0NIMl1bQ0gyXVtDSDJdTjFjKG5jMltDSDNdKVtjSF1bY0hdYzJbTkhdQyg9TylbTkhdW0NAQEhdM1tDSDJdW0NIMl1PW0NASF0oW0NIMl0zKVtDSF00W0NIMl1bQ0gyXTQ=

> <s_epik_cmdline>
J2VwaWtfcHl0aG9uJywgJy1waCcsICc3LjAnLCAnLXRuJywgJzgnLCAnLW1hJywgJzIwMCcsICctbWV0YWxfYmluZGluZycsICctaW1hZScsICc8aW5maWxlLm1hZT4nLCAnLW9tYWUnLCAnPG91dGZpbGUubWFlPic=

> <r_lp_tautomer_probability>
0.999994

> <r_epik_Ionization_Penalty>
0.534681

> <r_epik_Ionization_Penalty_Charging>
0.534661

> <r_epik_Ionization_Penalty_Neutral>
1.99132e-05

> <r_epik_State_Penalty>
0.543738

> <r_epik_Charging_Adjusted_Penalty>
1.0784

> <i_epik_Tot_Q>
1

> <i_epik_Tot_abs_Q>
1

> <r_epik_Metal_State_Penalty>
0.74699

> <b_epik_Metal_Only>
0

> <s_lp_Force_Field>
OPLS_2005

> <r_lp_Energy>
60.0457

> <b_lp_Chiralities_Consistent>
1

> <s_lp_Variant>
AV-unprocessed.smi:2356-5

> <Gold.Version>
5.8.1

> <Gold.Id.Protein>
6NUR|6NUR_protein|mol2

> <Gold.PLP.Fitness>
48.9740

> <Gold.PLP.PLP>
-44.4548

> <Gold.PLP.part.hbond>
-3.4232

> <Gold.PLP.part.metal>
0.0000

> <Gold.PLP.part.buried>
-0.4174

> <Gold.PLP.part.nonpolar>
-41.8861

> <Gold.PLP.part.repulsive>
0.5613

> <Gold.PLP.ligand.clash>
0.0000

> <Gold.PLP.ligand.torsion>
1.4115

> <Gold.PLP.Chemscore.Hbond>
2.0000

> <Gold.PLP.Chemscore.CHOScore>
0.0000

> <Gold.PLP.Chemscore.Metal>
0.0000

> <Gold.Chemscore.Hbonds>
donor molecule, donor type, donor heavy atom, donor atom, acceptor molecule, acceptor atom, score
      L1  H     3    54       P1  8028  1.95

> <Gold.PLP.Chemscore.Internal.Correction>
1.3423

> <Gold.Rescore>
     Score         DG    S(hbond)    S(metal)    S(lipo)     H(rot)  DE(clash)    DE(int)     intcor
     15.64     -18.88       0.99        0.00     114.75       1.31       0.42       2.83       ----

> <Gold.Chemscore.Fitness>
15.6376

> <Gold.Chemscore.DG>
-18.8847

> <Gold.Chemscore.ZeroCoef>
-5.4800

> <Gold.Chemscore.Hbond>
0.9948

> <Gold.Chemscore.Metal>
0.0000

> <Gold.Chemscore.Lipo>
114.7459

> <Gold.Chemscore.Internal_Hbond>
0.0000

> <Gold.Chemscore.DEClash>
0.4196

> <Gold.Chemscore.DEInternal>
2.8275

> <Gold.Chemscore.Rot>
1.3060

> <Gold.Chemscore.Internal.Correction>
   9.000000E+99

> <Gold.Chemscore.Hbonds>
donor molecule, donor type, donor heavy atom, donor atom, acceptor molecule, acceptor atom, score
      L1  H     3    54       P1  8028  0.92

> <Gold.Chemscore.Hbond.Weighted>
-3.3227

> <Gold.Chemscore.Metal.Weighted>
-0.0000

> <Gold.Chemscore.Lipo.Weighted>
-13.4253

> <Gold.Chemscore.Internal_Hbond.Weighted>
0.0000

> <Gold.Chemscore.DEClash.Weighted>
0.4196

> <Gold.Chemscore.DEInternal.Weighted>
2.8275

> <Gold.Chemscore.Rot.Weighted>
3.3433

> <Gold.Chemscore.Internal.Correction.Weighted>
   9.000000E+99

> <Gold.Protein.RotatedTorsions>
[ 6907 6896 6895 6894 ] final -121.62 input  -60.11 | X-H torsion
[ 7974 7965 7964 7962 ] final   34.60 input  175.53 | X-H torsion
[ 8008 7997 7996 7995 ] final  -84.96 input   59.86 | X-H torsion
[ 10167 10162 10161 10158 ] final -105.70 input  -65.29 | X-H torsion
[ 10718 10713 10712 10709 ] final   54.28 input   66.30 | X-H torsion
[ 10763 10752 10751 10750 ] final -130.66 input  -60.55 | X-H torsion
[ 11005 11000 10999 10996 ] final -143.38 input  -57.11 | X-H torsion

> <Gold.Protein.ActiveResidues>
 VAL166  LYS551  ARG553  GLY616  TRP617  ASP618  TYR619  PRO620  LYS621  CYS622 
 ASP623  PHE694  ASN695  SER759  ASP760  ASP761  ALA762  ILE779  LEU786  VAL792 
 PHE793  MET794  SER795  GLU796  ALA797  LYS798  CYS799  TRP800  GLU811  SER814 

> <Gold.Protein.RotatedAtoms>
  150.8500  133.7802  159.3028 H   0  0  0  0  0  0  0  0  0  0  0  0  # atno 6907 bound_to 6896
  151.5477  135.1066  159.9951 H   0  0  0  0  0  0  0  0  0  0  0  0  # atno 6908 bound_to 6896
  152.4544  133.7651  159.6824 H   0  0  0  0  0  0  0  0  0  0  0  0  # atno 6909 bound_to 6896
  146.1341  139.6248  142.9207 H   0  0  0  0  0  0  0  0  0  0  0  0  # atno 7974 bound_to 7965
  154.6355  140.0598  156.9783 H   0  0  0  0  0  0  0  0  0  0  0  0  # atno 8008 bound_to 7997
  155.1598  140.3281  155.4395 H   0  0  0  0  0  0  0  0  0  0  0  0  # atno 8009 bound_to 7997
  156.2505  140.1932  156.6706 H   0  0  0  0  0  0  0  0  0  0  0  0  # atno 8010 bound_to 7997
  140.1957  143.3857  152.1170 H   0  0  0  0  0  0  0  0  0  0  0  0  # atno 10167 bound_to 10162
  157.5243  130.8586  149.8600 H   0  0  0  0  0  0  0  0  0  0  0  0  # atno 10718 bound_to 10713
  154.8754  135.3855  154.4120 H   0  0  0  0  0  0  0  0  0  0  0  0  # atno 10763 bound_to 10752
  153.4833  135.7030  153.5931 H   0  0  0  0  0  0  0  0  0  0  0  0  # atno 10764 bound_to 10752
  153.4337  135.3872  155.2153 H   0  0  0  0  0  0  0  0  0  0  0  0  # atno 10765 bound_to 10752
  140.8131  134.2720  157.4932 H   0  0  0  0  0  0  0  0  0  0  0  0  # atno 11005 bound_to 11000
  145.5195  141.0432  143.2443 LP  0  0  0  0  0  0  0  0  0  0  0  0  # atno 17320 bound_to 7965
  144.7721  139.6711  143.7190 LP  0  0  0  0  0  0  0  0  0  0  0  0  # atno 17321 bound_to 7965
  139.5237  144.7075  151.5309 LP  0  0  0  0  0  0  0  0  0  0  0  0  # atno 17342 bound_to 10162
  140.6425  143.8860  150.6705 LP  0  0  0  0  0  0  0  0  0  0  0  0  # atno 17343 bound_to 10162
  156.0375  130.3747  150.1520 LP  0  0  0  0  0  0  0  0  0  0  0  0  # atno 17370 bound_to 10713
  156.9707  130.9834  151.3459 LP  0  0  0  0  0  0  0  0  0  0  0  0  # atno 17371 bound_to 10713
  139.8713  134.9494  156.4025 LP  0  0  0  0  0  0  0  0  0  0  0  0  # atno 17394 bound_to 11000
  140.9177  133.7667  155.9868 LP  0  0  0  0  0  0  0  0  0  0  0  0  # atno 17395 bound_to 11000

$$$$
