AV-unprocessed.smi:1830|AV-procd|sdf|7449|dock4
  -GOLD-   22720 9143D 1   1.00000     0.00000
 Structure written by MMmdl.
 54 57  0  0  0  0  0  0  0  0  3 V2000
  146.6354  138.5201  154.5255 O   0  0  0  0  0  0  0  0  0  0  0  0
  147.2433  138.2306  153.4957 C   0  0  0  0  0  0  0  0  0  0  0  0
  146.6911  137.5657  152.4716 N   0  0  0  0  0  0  0  0  0  0  0  0
  145.3190  137.0679  152.4308 C   0  0  0  0  0  0  0  0  0  0  0  0
  145.1976  135.6708  151.7900 C   0  0  1  0  0  0  0  0  0  0  0  0
  146.2641  134.6738  152.2914 C   0  0  0  0  0  0  0  0  0  0  0  0
  146.0306  133.3072  151.7697 N   0  3  2  0  0  0  0  0  0  0  0  0
  146.4889  133.0417  150.3880 C   0  0  0  0  0  0  0  0  0  0  0  0
  145.5442  131.9712  149.8188 C   0  0  0  0  0  0  0  0  0  0  0  0
  144.5873  131.6193  150.9632 C   0  0  0  0  0  0  0  0  0  0  0  0
  144.6333  132.8415  151.8814 C   0  0  2  0  0  0  0  0  0  0  0  0
  143.6368  133.9385  151.4439 C   0  0  0  0  0  0  0  0  0  0  0  0
  143.9134  135.1567  152.1208 O   0  0  0  0  0  0  0  0  0  0  0  0
  148.5215  138.5509  153.2355 N   0  0  0  0  0  0  0  0  0  0  0  0
  149.4139  139.3159  154.0392 C   0  0  0  0  0  0  0  0  0  0  0  0
  150.7928  138.9982  154.1397 C   0  0  0  0  0  0  0  0  0  0  0  0
  151.6433  139.8084  154.9161 C   0  0  0  0  0  0  0  0  0  0  0  0
  151.1056  140.9306  155.5709 C   0  0  0  0  0  0  0  0  0  0  0  0
  149.7929  141.2146  155.4426 N   0  3  0  0  0  0  0  0  0  0  0  0
  148.9270  140.4722  154.7091 C   0  0  0  0  0  0  0  0  0  0  0  0
  147.5687  140.8536  154.6659 N   0  0  0  0  0  0  0  0  0  0  0  0
  147.0933  141.5275  155.8717 C   0  0  0  0  0  0  0  0  0  0  0  0
  146.0956  142.5919  155.4097 C   0  0  0  0  0  0  0  0  0  0  0  0
  146.5582  142.9093  153.9930 C   0  0  0  0  0  0  0  0  0  0  0  0
  147.0429  141.5502  153.4923 C   0  0  0  0  0  0  0  0  0  0  0  0
  147.2663  137.3704  151.6650 H   0  0  0  0  0  0  0  0  0  0  0  0
  144.9463  137.0368  153.4550 H   0  0  0  0  0  0  0  0  0  0  0  0
  144.6897  137.7818  151.8971 H   0  0  0  0  0  0  0  0  0  0  0  0
  145.2661  135.7755  150.7062 H   0  0  0  0  0  0  0  0  0  0  0  0
  147.2707  134.9980  152.0244 H   0  0  0  0  0  0  0  0  0  0  0  0
  146.2287  134.6263  153.3804 H   0  0  0  0  0  0  0  0  0  0  0  0
  146.4411  133.9434  149.7764 H   0  0  0  0  0  0  0  0  0  0  0  0
  147.5258  132.7050  150.4005 H   0  0  0  0  0  0  0  0  0  0  0  0
  144.9868  132.3808  148.9755 H   0  0  0  0  0  0  0  0  0  0  0  0
  146.0834  131.0943  149.4594 H   0  0  0  0  0  0  0  0  0  0  0  0
  143.5816  131.3776  150.6174 H   0  0  0  0  0  0  0  0  0  0  0  0
  144.9687  130.7485  151.4983 H   0  0  0  0  0  0  0  0  0  0  0  0
  144.4275  132.5633  152.9159 H   0  0  0  0  0  0  0  0  0  0  0  0
  143.6713  134.1047  150.3657 H   0  0  0  0  0  0  0  0  0  0  0  0
  142.6177  133.6295  151.6770 H   0  0  0  0  0  0  0  0  0  0  0  0
  148.8609  138.3143  152.3145 H   0  0  0  0  0  0  0  0  0  0  0  0
  151.2179  138.1534  153.6191 H   0  0  0  0  0  0  0  0  0  0  0  0
  152.6948  139.5754  155.0014 H   0  0  0  0  0  0  0  0  0  0  0  0
  151.6811  141.6077  156.1855 H   0  0  0  0  0  0  0  0  0  0  0  0
  146.6259  140.8235  156.5608 H   0  0  0  0  0  0  0  0  0  0  0  0
  147.9290  141.9998  156.3916 H   0  0  0  0  0  0  0  0  0  0  0  0
  145.0897  142.1703  155.3819 H   0  0  0  0  0  0  0  0  0  0  0  0
  146.0765  143.4669  156.0600 H   0  0  0  0  0  0  0  0  0  0  0  0
  145.7709  143.3354  153.3703 H   0  0  0  0  0  0  0  0  0  0  0  0
  147.3896  143.6152  154.0219 H   0  0  0  0  0  0  0  0  0  0  0  0
  147.7469  141.6526  152.6671 H   0  0  0  0  0  0  0  0  0  0  0  0
  146.1986  140.9722  153.1151 H   0  0  0  0  0  0  0  0  0  0  0  0
  146.5744  132.6808  152.3462 H   0  0  0  0  0  0  0  0  0  0  0  0
  149.4311  142.0353  155.9289 H   0  0  0  0  0  0  0  0  0  0  0  0
  1  2  2  0  0  0  0
  2  3  1  0  0  0  0
  2 14  1  0  0  0  0
  3  4  1  0  0  0  0
  3 26  1  0  0  0  0
  4  5  1  0  0  0  0
  4 27  1  0  0  0  0
  4 28  1  0  0  0  0
  5 13  1  0  0  0  0
  5  6  1  0  0  0  0
  5 29  1  0  0  0  0
  6  7  1  0  0  0  0
  6 30  1  0  0  0  0
  6 31  1  0  0  0  0
  7 11  1  0  0  0  0
  7  8  1  0  0  0  0
  7 53  1  0  0  0  0
  8  9  1  0  0  0  0
  8 32  1  0  0  0  0
  8 33  1  0  0  0  0
  9 10  1  0  0  0  0
  9 34  1  0  0  0  0
  9 35  1  0  0  0  0
 10 11  1  0  0  0  0
 10 36  1  0  0  0  0
 10 37  1  0  0  0  0
 11 12  1  0  0  0  0
 11 38  1  0  0  0  0
 12 13  1  0  0  0  0
 12 39  1  0  0  0  0
 12 40  1  0  0  0  0
 14 15  1  0  0  0  0
 14 41  1  0  0  0  0
 15 20  1  0  0  0  0
 15 16  2  0  0  0  0
 16 17  1  0  0  0  0
 16 42  1  0  0  0  0
 17 18  2  0  0  0  0
 17 43  1  0  0  0  0
 18 19  1  0  0  0  0
 18 44  1  0  0  0  0
 19 20  2  0  0  0  0
 19 54  1  0  0  0  0
 20 21  1  0  0  0  0
 21 25  1  0  0  0  0
 21 22  1  0  0  0  0
 22 23  1  0  0  0  0
 22 45  1  0  0  0  0
 22 46  1  0  0  0  0
 23 24  1  0  0  0  0
 23 47  1  0  0  0  0
 23 48  1  0  0  0  0
 24 25  1  0  0  0  0
 24 49  1  0  0  0  0
 24 50  1  0  0  0  0
 25 51  1  0  0  0  0
 25 52  1  0  0  0  0
M  CHG  1   7   1
M  CHG  1  19   1
M  END
> <s_m_source_file>
AV-unprocessed.smi

> <i_m_source_file_index>
1830

> <i_lp_mmshare_version>
43012

> <i_f3d_flags>
0

> <s_epik_input>
W0NIMl0xW0NIMl1bQ0gyXVtDQEhdKE4xMilbQ0gyXU9bQ0BASF0oW0NIMl0yKVtDSDJdW05IXUMoPU8pW05IXWMzW2NIXVtjSF1bY0hdbmMzTjRbQ0gyXVtDSDJdW0NIMl1bQ0gyXTQ=

> <s_epik_cmdline>
J2VwaWtfcHl0aG9uJywgJy1waCcsICc3LjAnLCAnLXRuJywgJzgnLCAnLW1hJywgJzIwMCcsICctbWV0YWxfYmluZGluZycsICctaW1hZScsICc8aW5maWxlLm1hZT4nLCAnLW9tYWUnLCAnPG91dGZpbGUubWFlPic=

> <r_lp_tautomer_probability>
0.999994

> <r_epik_Ionization_Penalty>
1.29113

> <r_epik_Ionization_Penalty_Charging>
1.29111

> <r_epik_Ionization_Penalty_Neutral>
1.88144e-05

> <r_epik_State_Penalty>
1.32676

> <r_epik_Charging_Adjusted_Penalty>
2.61787

> <i_epik_Tot_Q>
2

> <i_epik_Tot_abs_Q>
2

> <r_epik_Metal_State_Penalty>
1.40425

> <b_epik_Metal_Only>
0

> <s_lp_Force_Field>
OPLS_2005

> <r_lp_Energy>
74.6229

> <b_lp_Chiralities_Consistent>
1

> <s_lp_Variant>
AV-unprocessed.smi:1830-18

> <Gold.Version>
5.8.1

> <Gold.Id.Protein>
6NUR|6NUR_protein|mol2

> <Gold.PLP.Fitness>
45.2598

> <Gold.PLP.PLP>
-44.3599

> <Gold.PLP.part.hbond>
-3.0000

> <Gold.PLP.part.metal>
0.0000

> <Gold.PLP.part.buried>
-4.7661

> <Gold.PLP.part.nonpolar>
-37.5764

> <Gold.PLP.part.repulsive>
0.5361

> <Gold.PLP.ligand.clash>
0.0000

> <Gold.PLP.ligand.torsion>
1.1734

> <Gold.PLP.Chemscore.Hbond>
1.0284

> <Gold.PLP.Chemscore.CHOScore>
0.0000

> <Gold.PLP.Chemscore.Metal>
0.0000

> <Gold.Chemscore.Hbonds>
donor molecule, donor type, donor heavy atom, donor atom, acceptor molecule, acceptor atom, score
      L1  H     3    26       P1  7948  0.43
      L1  H    14    41       P1  7948  0.30

> <Gold.PLP.Chemscore.Internal.Correction>
0.1615

> <Gold.Rescore>
     Score         DG    S(hbond)    S(metal)    S(lipo)     H(rot)  DE(clash)    DE(int)     intcor
     12.89     -17.95       1.21        0.00     103.43       1.43       0.05       5.01       ----

> <Gold.Chemscore.Fitness>
12.8887

> <Gold.Chemscore.DG>
-17.9538

> <Gold.Chemscore.ZeroCoef>
-5.4800

> <Gold.Chemscore.Hbond>
1.2059

> <Gold.Chemscore.Metal>
0.0000

> <Gold.Chemscore.Lipo>
103.4280

> <Gold.Chemscore.Internal_Hbond>
0.0000

> <Gold.Chemscore.DEClash>
0.0512

> <Gold.Chemscore.DEInternal>
5.0140

> <Gold.Chemscore.Rot>
1.4278

> <Gold.Chemscore.Internal.Correction>
   9.000000E+99

> <Gold.Chemscore.Hbonds>
donor molecule, donor type, donor heavy atom, donor atom, acceptor molecule, acceptor atom, score
      L1  H     3    26       P1  7948  0.42
      L1  H    14    41       P1  7948  0.28

> <Gold.Chemscore.Hbond.Weighted>
-4.0278

> <Gold.Chemscore.Metal.Weighted>
-0.0000

> <Gold.Chemscore.Lipo.Weighted>
-12.1011

> <Gold.Chemscore.Internal_Hbond.Weighted>
0.0000

> <Gold.Chemscore.DEClash.Weighted>
0.0512

> <Gold.Chemscore.DEInternal.Weighted>
5.0140

> <Gold.Chemscore.Rot.Weighted>
3.6551

> <Gold.Chemscore.Internal.Correction.Weighted>
   9.000000E+99

> <Gold.Protein.RotatedTorsions>
[ 6907 6896 6895 6894 ] final   92.65 input  -60.11 | X-H torsion
[ 7974 7965 7964 7962 ] final  -52.91 input  175.53 | X-H torsion
[ 8008 7997 7996 7995 ] final   13.76 input   59.86 | X-H torsion
[ 10167 10162 10161 10158 ] final  -63.39 input  -65.29 | X-H torsion
[ 10718 10713 10712 10709 ] final -108.32 input   66.30 | X-H torsion
[ 10763 10752 10751 10750 ] final   -3.79 input  -60.55 | X-H torsion
[ 11005 11000 10999 10996 ] final   10.58 input  -57.11 | X-H torsion

> <Gold.Protein.ActiveResidues>
 VAL166  LYS551  ARG553  GLY616  TRP617  ASP618  TYR619  PRO620  LYS621  CYS622 
 ASP623  PHE694  ASN695  SER759  ASP760  ASP761  ALA762  ILE779  LEU786  VAL792 
 PHE793  MET794  SER795  GLU796  ALA797  LYS798  CYS799  TRP800  GLU811  SER814 

> <Gold.Protein.RotatedAtoms>
  152.5453  134.1470  159.8502 H   0  0  0  0  0  0  0  0  0  0  0  0  # atno 6907 bound_to 6896
  151.1500  133.4906  159.2603 H   0  0  0  0  0  0  0  0  0  0  0  0  # atno 6908 bound_to 6896
  151.1482  135.0224  159.8711 H   0  0  0  0  0  0  0  0  0  0  0  0  # atno 6909 bound_to 6896
  145.9027  140.7981  142.9735 H   0  0  0  0  0  0  0  0  0  0  0  0  # atno 7974 bound_to 7965
  154.8389  140.2911  155.5672 H   0  0  0  0  0  0  0  0  0  0  0  0  # atno 8008 bound_to 7997
  156.3010  140.2517  156.3260 H   0  0  0  0  0  0  0  0  0  0  0  0  # atno 8009 bound_to 7997
  154.9147  140.0387  157.1955 H   0  0  0  0  0  0  0  0  0  0  0  0  # atno 8010 bound_to 7997
  140.5874  143.2336  151.6213 H   0  0  0  0  0  0  0  0  0  0  0  0  # atno 10167 bound_to 10162
  156.0480  130.5707  150.7945 H   0  0  0  0  0  0  0  0  0  0  0  0  # atno 10718 bound_to 10713
  153.3761  135.6996  153.6600 H   0  0  0  0  0  0  0  0  0  0  0  0  # atno 10763 bound_to 10752
  153.5231  135.3608  155.2641 H   0  0  0  0  0  0  0  0  0  0  0  0  # atno 10764 bound_to 10752
  154.8687  135.4162  154.3050 H   0  0  0  0  0  0  0  0  0  0  0  0  # atno 10765 bound_to 10752
  140.5128  134.0635  155.7823 H   0  0  0  0  0  0  0  0  0  0  0  0  # atno 11005 bound_to 11000
  144.6737  140.1702  143.7415 LP  0  0  0  0  0  0  0  0  0  0  0  0  # atno 17320 bound_to 7965
  145.8771  139.2303  143.1627 LP  0  0  0  0  0  0  0  0  0  0  0  0  # atno 17321 bound_to 7965
  139.5206  144.3218  152.0904 LP  0  0  0  0  0  0  0  0  0  0  0  0  # atno 17342 bound_to 10162
  140.2377  144.4302  150.6273 LP  0  0  0  0  0  0  0  0  0  0  0  0  # atno 17343 bound_to 10162
  157.5376  131.0939  150.9871 LP  0  0  0  0  0  0  0  0  0  0  0  0  # atno 17370 bound_to 10713
  157.0162  130.5656  149.5326 LP  0  0  0  0  0  0  0  0  0  0  0  0  # atno 17371 bound_to 10713
  141.1376  133.9194  157.2399 LP  0  0  0  0  0  0  0  0  0  0  0  0  # atno 17394 bound_to 11000
  139.9649  135.0144  156.9360 LP  0  0  0  0  0  0  0  0  0  0  0  0  # atno 17395 bound_to 11000

$$$$
