AV-unprocessed.smi:1865|AV-procd|sdf|7555|dock7
  -GOLD-   22720 9273D 1   1.00000     0.00000
 Structure written by MMmdl.
 41 42  0  0  0  0  0  0  0  0  2 V2000
  151.7744  139.7497  159.8458 O   0  0  0  0  0  0  0  0  0  0  0  0
  152.7767  140.1105  159.2283 C   0  0  0  0  0  0  0  0  0  0  0  0
  153.8245  141.0047  159.8980 C   0  0  0  0  0  0  0  0  0  0  0  0
  153.2042  142.0866  160.8028 C   0  0  0  0  0  0  0  0  0  0  0  0
  152.3552  143.1082  160.0251 C   0  0  0  0  0  0  0  0  0  0  0  0
  153.0720  143.6964  158.8081 C   0  0  0  0  0  0  0  0  0  0  0  0
  152.2851  144.9654  158.4714 C   0  0  0  0  0  0  0  0  0  0  0  0
  151.6603  145.4396  159.7918 C   0  0  0  0  0  0  0  0  0  0  0  0
  151.9647  144.3525  160.8311 C   0  0  0  0  0  0  0  0  0  0  0  0
  153.0159  139.7659  157.9535 N   0  0  0  0  0  0  0  0  0  0  0  0
  152.1324  138.9515  157.1273 C   0  0  0  0  0  0  0  0  0  0  0  0
  152.2112  139.3466  155.6432 C   0  0  0  0  0  0  0  0  0  0  0  0
  150.8369  139.4867  155.0183 C   0  0  0  0  0  0  0  0  0  0  0  0
  150.0331  140.6158  155.2904 C   0  0  0  0  0  0  0  0  0  0  0  0
  148.7565  140.7142  154.6985 C   0  0  0  0  0  0  0  0  0  0  0  0
  148.3124  139.6807  153.8480 C   0  0  0  0  0  0  0  0  0  0  0  0
  149.1092  138.6153  153.6117 N   0  3  0  0  0  0  0  0  0  0  0  0
  150.3376  138.4839  154.1589 C   0  0  0  0  0  0  0  0  0  0  0  0
  154.5065  140.3868  160.4843 H   0  0  0  0  0  0  0  0  0  0  0  0
  154.4206  141.4691  159.1122 H   0  0  0  0  0  0  0  0  0  0  0  0
  152.5926  141.6223  161.5781 H   0  0  0  0  0  0  0  0  0  0  0  0
  154.0035  142.6169  161.3227 H   0  0  0  0  0  0  0  0  0  0  0  0
  151.4430  142.6225  159.6744 H   0  0  0  0  0  0  0  0  0  0  0  0
  154.0967  143.9627  159.0715 H   0  0  0  0  0  0  0  0  0  0  0  0
  153.1163  142.9999  157.9703 H   0  0  0  0  0  0  0  0  0  0  0  0
  152.9190  145.7273  158.0170 H   0  0  0  0  0  0  0  0  0  0  0  0
  151.4945  144.7302  157.7578 H   0  0  0  0  0  0  0  0  0  0  0  0
  152.0690  146.4008  160.1057 H   0  0  0  0  0  0  0  0  0  0  0  0
  150.5839  145.5676  159.6719 H   0  0  0  0  0  0  0  0  0  0  0  0
  151.1198  144.1699  161.4959 H   0  0  0  0  0  0  0  0  0  0  0  0
  152.8046  144.6722  161.4496 H   0  0  0  0  0  0  0  0  0  0  0  0
  153.8622  140.1071  157.5208 H   0  0  0  0  0  0  0  0  0  0  0  0
  152.3764  137.8955  157.2568 H   0  0  0  0  0  0  0  0  0  0  0  0
  151.1133  139.0813  157.4926 H   0  0  0  0  0  0  0  0  0  0  0  0
  152.7531  140.2873  155.5337 H   0  0  0  0  0  0  0  0  0  0  0  0
  152.7749  138.6012  155.0806 H   0  0  0  0  0  0  0  0  0  0  0  0
  150.3876  141.3974  155.9466 H   0  0  0  0  0  0  0  0  0  0  0  0
  148.1268  141.5696  154.8951 H   0  0  0  0  0  0  0  0  0  0  0  0
  147.3515  139.6738  153.3545 H   0  0  0  0  0  0  0  0  0  0  0  0
  150.8785  137.5861  153.8967 H   0  0  0  0  0  0  0  0  0  0  0  0
  148.7681  137.8780  152.9941 H   0  0  0  0  0  0  0  0  0  0  0  0
  1  2  2  0  0  0  0
  2  3  1  0  0  0  0
  2 10  1  0  0  0  0
  3  4  1  0  0  0  0
  3 19  1  0  0  0  0
  3 20  1  0  0  0  0
  4  5  1  0  0  0  0
  4 21  1  0  0  0  0
  4 22  1  0  0  0  0
  5  9  1  0  0  0  0
  5  6  1  0  0  0  0
  5 23  1  0  0  0  0
  6  7  1  0  0  0  0
  6 24  1  0  0  0  0
  6 25  1  0  0  0  0
  7  8  1  0  0  0  0
  7 26  1  0  0  0  0
  7 27  1  0  0  0  0
  8  9  1  0  0  0  0
  8 28  1  0  0  0  0
  8 29  1  0  0  0  0
  9 30  1  0  0  0  0
  9 31  1  0  0  0  0
 10 11  1  0  0  0  0
 10 32  1  0  0  0  0
 11 12  1  0  0  0  0
 11 33  1  0  0  0  0
 11 34  1  0  0  0  0
 12 13  1  0  0  0  0
 12 35  1  0  0  0  0
 12 36  1  0  0  0  0
 13 18  1  0  0  0  0
 13 14  2  0  0  0  0
 14 15  1  0  0  0  0
 14 37  1  0  0  0  0
 15 16  2  0  0  0  0
 15 38  1  0  0  0  0
 16 17  1  0  0  0  0
 16 39  1  0  0  0  0
 17 18  2  0  0  0  0
 17 41  1  0  0  0  0
 18 40  1  0  0  0  0
M  CHG  1  17   1
M  END
> <s_m_source_file>
AV-unprocessed.smi

> <i_m_source_file_index>
1865

> <i_lp_mmshare_version>
43012

> <i_f3d_flags>
0

> <s_epik_input>
W0NIMl0xW0NIMl1bQ0gyXVtDSDJdW0NIXTFbQ0gyXVtDSDJdQyg9TylbTkhdW0NIMl1bQ0gyXWMyW2NIXVtjSF1bY0hdbltjSF0y

> <s_epik_cmdline>
J2VwaWtfcHl0aG9uJywgJy1waCcsICc3LjAnLCAnLXRuJywgJzgnLCAnLW1hJywgJzIwMCcsICctbWV0YWxfYmluZGluZycsICctaW1hZScsICc8aW5maWxlLm1hZT4nLCAnLW9tYWUnLCAnPG91dGZpbGUubWFlPic=

> <r_epik_Ionization_Penalty>
2.25234

> <r_epik_Ionization_Penalty_Charging>
2.25234

> <r_epik_Ionization_Penalty_Neutral>
2.26352e-08

> <r_epik_State_Penalty>
2.39956

> <r_epik_Charging_Adjusted_Penalty>
4.6519

> <i_epik_Tot_Q>
1

> <i_epik_Tot_abs_Q>
1

> <r_epik_Metal_State_Penalty>
2.41271

> <b_epik_Metal_Only>
0

> <s_lp_Force_Field>
OPLS_2005

> <r_lp_Energy>
27.3415

> <b_lp_Chiralities_Consistent>
1

> <s_lp_Variant>
AV-unprocessed.smi:1865-2

> <Gold.Version>
5.8.1

> <Gold.Id.Protein>
6NUR|6NUR_protein|mol2

> <Gold.PLP.Fitness>
49.0704

> <Gold.PLP.PLP>
-45.1610

> <Gold.PLP.part.hbond>
-2.7125

> <Gold.PLP.part.metal>
0.0000

> <Gold.PLP.part.buried>
0.1732

> <Gold.PLP.part.nonpolar>
-44.9213

> <Gold.PLP.part.repulsive>
2.0080

> <Gold.PLP.ligand.clash>
0.0000

> <Gold.PLP.ligand.torsion>
1.0734

> <Gold.PLP.Chemscore.Hbond>
2.0000

> <Gold.PLP.Chemscore.CHOScore>
0.0000

> <Gold.PLP.Chemscore.Metal>
0.0000

> <Gold.Chemscore.Hbonds>
donor molecule, donor type, donor heavy atom, donor atom, acceptor molecule, acceptor atom, score
      L1  H    17    41       P1  7948  2.00

> <Gold.PLP.Chemscore.Internal.Correction>
0.0563

> <Gold.Rescore>
     Score         DG    S(hbond)    S(metal)    S(lipo)     H(rot)  DE(clash)    DE(int)     intcor
     16.82     -20.12       1.00        0.00     133.57       1.69       2.30       1.01       ----

> <Gold.Chemscore.Fitness>
16.8172

> <Gold.Chemscore.DG>
-20.1235

> <Gold.Chemscore.ZeroCoef>
-5.4800

> <Gold.Chemscore.Hbond>
0.9984

> <Gold.Chemscore.Metal>
0.0000

> <Gold.Chemscore.Lipo>
133.5655

> <Gold.Chemscore.Internal_Hbond>
0.0000

> <Gold.Chemscore.DEClash>
2.3009

> <Gold.Chemscore.DEInternal>
1.0054

> <Gold.Chemscore.Rot>
1.6868

> <Gold.Chemscore.Internal.Correction>
   9.000000E+99

> <Gold.Chemscore.Hbonds>
donor molecule, donor type, donor heavy atom, donor atom, acceptor molecule, acceptor atom, score
      L1  H    17    41       P1  7948  0.95

> <Gold.Chemscore.Hbond.Weighted>
-3.3346

> <Gold.Chemscore.Metal.Weighted>
-0.0000

> <Gold.Chemscore.Lipo.Weighted>
-15.6272

> <Gold.Chemscore.Internal_Hbond.Weighted>
0.0000

> <Gold.Chemscore.DEClash.Weighted>
2.3009

> <Gold.Chemscore.DEInternal.Weighted>
1.0054

> <Gold.Chemscore.Rot.Weighted>
4.3183

> <Gold.Chemscore.Internal.Correction.Weighted>
   9.000000E+99

> <Gold.Protein.RotatedTorsions>
[ 6907 6896 6895 6894 ] final   95.24 input  -60.11 | X-H torsion
[ 7974 7965 7964 7962 ] final   22.73 input  175.53 | X-H torsion
[ 8008 7997 7996 7995 ] final -152.06 input   59.86 | X-H torsion
[ 10167 10162 10161 10158 ] final   51.86 input  -65.29 | X-H torsion
[ 10718 10713 10712 10709 ] final  165.62 input   66.30 | X-H torsion
[ 10763 10752 10751 10750 ] final   63.39 input  -60.55 | X-H torsion
[ 11005 11000 10999 10996 ] final  -87.11 input  -57.11 | X-H torsion

> <Gold.Protein.ActiveResidues>
 VAL166  LYS551  ARG553  GLY616  TRP617  ASP618  TYR619  PRO620  LYS621  CYS622 
 ASP623  PHE694  ASN695  SER759  ASP760  ASP761  ALA762  ILE779  LEU786  VAL792 
 PHE793  MET794  SER795  GLU796  ALA797  LYS798  CYS799  TRP800  GLU811  SER814 

> <Gold.Protein.RotatedAtoms>
  152.5445  134.1070  159.8341 H   0  0  0  0  0  0  0  0  0  0  0  0  # atno 6907 bound_to 6896
  151.1141  133.5144  159.2612 H   0  0  0  0  0  0  0  0  0  0  0  0  # atno 6908 bound_to 6896
  151.1851  135.0388  159.8863 H   0  0  0  0  0  0  0  0  0  0  0  0  # atno 6909 bound_to 6896
  146.2016  139.7844  142.8757 H   0  0  0  0  0  0  0  0  0  0  0  0  # atno 7974 bound_to 7965
  155.6492  140.0710  157.2592 H   0  0  0  0  0  0  0  0  0  0  0  0  # atno 8008 bound_to 7997
  154.4166  140.1736  156.1706 H   0  0  0  0  0  0  0  0  0  0  0  0  # atno 8009 bound_to 7997
  155.9791  140.3355  155.6649 H   0  0  0  0  0  0  0  0  0  0  0  0  # atno 8010 bound_to 7997
  140.2574  144.3411  150.6328 H   0  0  0  0  0  0  0  0  0  0  0  0  # atno 10167 bound_to 10162
  157.0776  131.0383  151.2588 H   0  0  0  0  0  0  0  0  0  0  0  0  # atno 10718 bound_to 10713
  153.0016  135.5431  154.6344 H   0  0  0  0  0  0  0  0  0  0  0  0  # atno 10763 bound_to 10752
  154.5614  135.2834  155.0917 H   0  0  0  0  0  0  0  0  0  0  0  0  # atno 10764 bound_to 10752
  154.2118  135.6466  153.5170 H   0  0  0  0  0  0  0  0  0  0  0  0  # atno 10765 bound_to 10752
  141.1621  133.7492  156.9259 H   0  0  0  0  0  0  0  0  0  0  0  0  # atno 11005 bound_to 11000
  145.3465  141.0298  143.3363 LP  0  0  0  0  0  0  0  0  0  0  0  0  # atno 17320 bound_to 7965
  144.8696  139.5058  143.6774 LP  0  0  0  0  0  0  0  0  0  0  0  0  # atno 17321 bound_to 7965
  140.5993  143.2167  151.7104 LP  0  0  0  0  0  0  0  0  0  0  0  0  # atno 17342 bound_to 10162
  139.5027  144.3818  152.0368 LP  0  0  0  0  0  0  0  0  0  0  0  0  # atno 17343 bound_to 10162
  157.4827  130.7774  149.7430 LP  0  0  0  0  0  0  0  0  0  0  0  0  # atno 17370 bound_to 10713
  155.9933  130.3925  150.2907 LP  0  0  0  0  0  0  0  0  0  0  0  0  # atno 17371 bound_to 10713
  140.1419  134.9287  157.2478 LP  0  0  0  0  0  0  0  0  0  0  0  0  # atno 17394 bound_to 11000
  140.2826  134.3332  155.7338 LP  0  0  0  0  0  0  0  0  0  0  0  0  # atno 17395 bound_to 11000

$$$$
