AV-unprocessed.smi:1987|AV-procd|sdf|8054|dock5
  -GOLD-   2272010253D 1   1.00000     0.00000
 Structure written by MMmdl.
 37 39  0  0  0  0  0  0  0  0  2 V2000
  152.4871  139.7172  156.7830 O   0  0  0  0  0  0  0  0  0  0  0  0
  151.3566  140.0050  157.1741 C   0  0  0  0  0  0  0  0  0  0  0  0
  150.1811  139.0754  156.8786 C   0  0  0  0  0  0  0  0  0  0  0  0
  149.9349  138.2137  158.0203 N   0  0  0  0  0  0  0  0  0  0  0  0
  150.6628  137.2262  158.5457 C   0  0  0  0  0  0  0  0  0  0  0  0
  150.0406  136.6488  159.5623 N   0  0  0  0  0  0  0  0  0  0  0  0
  148.8530  137.3560  159.6486 N   0  0  0  0  0  0  0  0  0  0  0  0
  148.7844  138.2859  158.7364 N   0  0  0  0  0  0  0  0  0  0  0  0
  151.0615  141.1447  157.8174 N   0  0  0  0  0  0  0  0  0  0  0  0
  151.9710  142.2700  157.9933 C   0  0  0  0  0  0  0  0  0  0  0  0
  151.2002  143.5801  158.2549 C   0  0  2  0  0  0  0  0  0  0  0  0
  151.9378  144.5812  159.1412 C   0  0  0  0  0  0  0  0  0  0  0  0
  150.8267  145.4762  159.7075 C   0  0  0  0  0  0  0  0  0  0  0  0
  149.5502  144.7459  159.5239 N   0  3  2  0  0  0  0  0  0  0  0  0
  148.6797  144.7253  160.7182 C   0  0  0  0  0  0  0  0  0  0  0  0
  147.2529  144.3339  160.4153 C   0  0  0  0  0  0  0  0  0  0  0  0
  147.5998  145.7800  160.6980 C   0  0  0  0  0  0  0  0  0  0  0  0
  149.8747  143.4058  158.9986 C   0  0  0  0  0  0  0  0  0  0  0  0
  149.2814  139.6568  156.6728 H   0  0  0  0  0  0  0  0  0  0  0  0
  150.3870  138.4660  155.9973 H   0  0  0  0  0  0  0  0  0  0  0  0
  151.6304  136.9212  158.1752 H   0  0  0  0  0  0  0  0  0  0  0  0
  150.1069  141.2814  158.1183 H   0  0  0  0  0  0  0  0  0  0  0  0
  152.6229  142.0420  158.8371 H   0  0  0  0  0  0  0  0  0  0  0  0
  152.6168  142.3725  157.1194 H   0  0  0  0  0  0  0  0  0  0  0  0
  150.9908  144.0678  157.3011 H   0  0  0  0  0  0  0  0  0  0  0  0
  152.4358  144.0599  159.9603 H   0  0  0  0  0  0  0  0  0  0  0  0
  152.6960  145.1458  158.5974 H   0  0  0  0  0  0  0  0  0  0  0  0
  151.0173  145.7170  160.7545 H   0  0  0  0  0  0  0  0  0  0  0  0
  150.7667  146.4166  159.1587 H   0  0  0  0  0  0  0  0  0  0  0  0
  149.1469  144.4274  161.6556 H   0  0  0  0  0  0  0  0  0  0  0  0
  146.9977  144.0678  159.3907 H   0  0  0  0  0  0  0  0  0  0  0  0
  146.7064  143.7927  161.1852 H   0  0  0  0  0  0  0  0  0  0  0  0
  147.2819  146.1907  161.6544 H   0  0  0  0  0  0  0  0  0  0  0  0
  147.5755  146.4765  159.8618 H   0  0  0  0  0  0  0  0  0  0  0  0
  149.0769  143.0311  158.3563 H   0  0  0  0  0  0  0  0  0  0  0  0
  150.0004  142.7046  159.8256 H   0  0  0  0  0  0  0  0  0  0  0  0
  149.0502  145.2286  158.7909 H   0  0  0  0  0  0  0  0  0  0  0  0
  1  2  2  0  0  0  0
  2  3  1  0  0  0  0
  2  9  1  0  0  0  0
  3  4  1  0  0  0  0
  3 19  1  0  0  0  0
  3 20  1  0  0  0  0
  4  8  1  0  0  0  0
  4  5  1  0  0  0  0
  5  6  2  0  0  0  0
  5 21  1  0  0  0  0
  6  7  1  0  0  0  0
  7  8  2  0  0  0  0
  9 10  1  0  0  0  0
  9 22  1  0  0  0  0
 10 11  1  0  0  0  0
 10 23  1  0  0  0  0
 10 24  1  0  0  0  0
 11 18  1  0  0  0  0
 11 12  1  0  0  0  0
 11 25  1  0  0  0  0
 12 13  1  0  0  0  0
 12 26  1  0  0  0  0
 12 27  1  0  0  0  0
 13 14  1  0  0  0  0
 13 28  1  0  0  0  0
 13 29  1  0  0  0  0
 14 15  1  0  0  0  0
 14 18  1  0  0  0  0
 14 37  1  0  0  0  0
 15 17  1  0  0  0  0
 15 16  1  0  0  0  0
 15 30  1  0  0  0  0
 16 17  1  0  0  0  0
 16 31  1  0  0  0  0
 16 32  1  0  0  0  0
 17 33  1  0  0  0  0
 17 34  1  0  0  0  0
 18 35  1  0  0  0  0
 18 36  1  0  0  0  0
M  CHG  1  14   1
M  END
> <s_m_source_file>
AV-unprocessed.smi

> <i_m_source_file_index>
1987

> <i_lp_mmshare_version>
43012

> <i_f3d_flags>
0

> <s_epik_input>
bjFubltjSF1uMVtDSDJdQyg9TylbTkhdW0NIMl1bQ0BASF0yW0NIMl1bQ0gyXU4oW0NIMl0yKVtDSF0zW0NIMl1bQ0gyXTM=

> <s_epik_cmdline>
J2VwaWtfcHl0aG9uJywgJy1waCcsICc3LjAnLCAnLXRuJywgJzgnLCAnLW1hJywgJzIwMCcsICctbWV0YWxfYmluZGluZycsICctaW1hZScsICc8aW5maWxlLm1hZT4nLCAnLW9tYWUnLCAnPG91dGZpbGUubWFlPic=

> <r_lp_tautomer_probability>
1

> <r_epik_Ionization_Penalty>
0.000242849

> <r_epik_Ionization_Penalty_Charging>
0.000241326

> <r_epik_Ionization_Penalty_Neutral>
1.52322e-06

> <r_epik_State_Penalty>
-0

> <r_epik_Charging_Adjusted_Penalty>
0.000241326

> <i_epik_Tot_Q>
1

> <i_epik_Tot_abs_Q>
1

> <r_epik_Metal_State_Penalty>
-0

> <b_epik_Metal_Only>
0

> <s_lp_Force_Field>
OPLS_2005

> <r_lp_Energy>
37.5939

> <b_lp_Chiralities_Consistent>
1

> <s_lp_Variant>
AV-unprocessed.smi:1987-1

> <Gold.Version>
5.8.1

> <Gold.Id.Protein>
6NUR|6NUR_protein|mol2

> <Gold.PLP.Fitness>
41.5209

> <Gold.PLP.PLP>
-30.9409

> <Gold.PLP.part.hbond>
-5.8428

> <Gold.PLP.part.metal>
0.0000

> <Gold.PLP.part.buried>
-4.1783

> <Gold.PLP.part.nonpolar>
-20.6412

> <Gold.PLP.part.repulsive>
0.2794

> <Gold.PLP.ligand.clash>
0.0000

> <Gold.PLP.ligand.torsion>
1.5720

> <Gold.PLP.Chemscore.Hbond>
4.1441

> <Gold.PLP.Chemscore.CHOScore>
0.0000

> <Gold.PLP.Chemscore.Metal>
0.0000

> <Gold.Chemscore.Hbonds>
donor molecule, donor type, donor heavy atom, donor atom, acceptor molecule, acceptor atom, score
      L1  H    14    37       P1  8029  1.98
      P1  H  6896  6909       L1     6  1.00
      P1  H  6931  6943       L1     7  0.02
      P1  H  7997  8010       L1     1  1.00

> <Gold.PLP.Chemscore.Internal.Correction>
1.2917

> <Gold.Rescore>
     Score         DG    S(hbond)    S(metal)    S(lipo)     H(rot)  DE(clash)    DE(int)     intcor
     14.81     -16.39       2.96        0.00      66.07       2.62       0.01       1.57       ----

> <Gold.Chemscore.Fitness>
14.8134

> <Gold.Chemscore.DG>
-16.3939

> <Gold.Chemscore.ZeroCoef>
-5.4800

> <Gold.Chemscore.Hbond>
2.9648

> <Gold.Chemscore.Metal>
0.0000

> <Gold.Chemscore.Lipo>
66.0680

> <Gold.Chemscore.Internal_Hbond>
0.0000

> <Gold.Chemscore.DEClash>
0.0110

> <Gold.Chemscore.DEInternal>
1.5694

> <Gold.Chemscore.Rot>
2.6244

> <Gold.Chemscore.Internal.Correction>
   9.000000E+99

> <Gold.Chemscore.Hbonds>
donor molecule, donor type, donor heavy atom, donor atom, acceptor molecule, acceptor atom, score
      L1  H    14    37       P1  8029  0.91
      P1  H  6896  6909       L1     6  0.49
      P1  H  6931  6943       L1     7  0.01
      P1  H  7997  8010       L1     1  1.00

> <Gold.Chemscore.Hbond.Weighted>
-9.9025

> <Gold.Chemscore.Metal.Weighted>
-0.0000

> <Gold.Chemscore.Lipo.Weighted>
-7.7300

> <Gold.Chemscore.Internal_Hbond.Weighted>
0.0000

> <Gold.Chemscore.DEClash.Weighted>
0.0110

> <Gold.Chemscore.DEInternal.Weighted>
1.5694

> <Gold.Chemscore.Rot.Weighted>
6.7186

> <Gold.Chemscore.Internal.Correction.Weighted>
   9.000000E+99

> <Gold.Protein.RotatedTorsions>
[ 6907 6896 6895 6894 ] final   70.08 input  -60.11 | X-H torsion
[ 7974 7965 7964 7962 ] final   34.63 input  175.53 | X-H torsion
[ 8008 7997 7996 7995 ] final   66.47 input   59.86 | X-H torsion
[ 10167 10162 10161 10158 ] final -135.96 input  -65.29 | X-H torsion
[ 10718 10713 10712 10709 ] final -116.79 input   66.30 | X-H torsion
[ 10763 10752 10751 10750 ] final   57.61 input  -60.55 | X-H torsion
[ 11005 11000 10999 10996 ] final   41.18 input  -57.11 | X-H torsion

> <Gold.Protein.ActiveResidues>
 VAL166  LYS551  ARG553  GLY616  TRP617  ASP618  TYR619  PRO620  LYS621  CYS622 
 ASP623  PHE694  ASN695  SER759  ASP760  ASP761  ALA762  ILE779  LEU786  VAL792 
 PHE793  MET794  SER795  GLU796  ALA797  LYS798  CYS799  TRP800  GLU811  SER814 

> <Gold.Protein.RotatedAtoms>
  152.4727  134.4920  159.9698 H   0  0  0  0  0  0  0  0  0  0  0  0  # atno 6907 bound_to 6896
  151.4943  133.3512  159.2866 H   0  0  0  0  0  0  0  0  0  0  0  0  # atno 6908 bound_to 6896
  150.8747  134.8154  159.7242 H   0  0  0  0  0  0  0  0  0  0  0  0  # atno 6909 bound_to 6896
  146.1340  139.6245  142.9208 H   0  0  0  0  0  0  0  0  0  0  0  0  # atno 7974 bound_to 7965
  155.6778  140.3496  155.4843 H   0  0  0  0  0  0  0  0  0  0  0  0  # atno 8008 bound_to 7997
  155.9633  140.1141  157.0899 H   0  0  0  0  0  0  0  0  0  0  0  0  # atno 8009 bound_to 7997
  154.4148  140.1171  156.5194 H   0  0  0  0  0  0  0  0  0  0  0  0  # atno 8010 bound_to 7997
  139.8726  143.6938  152.2638 H   0  0  0  0  0  0  0  0  0  0  0  0  # atno 10167 bound_to 10162
  156.0988  130.6154  150.9081 H   0  0  0  0  0  0  0  0  0  0  0  0  # atno 10718 bound_to 10713
  152.9853  135.5636  154.5418 H   0  0  0  0  0  0  0  0  0  0  0  0  # atno 10763 bound_to 10752
  154.4871  135.2791  155.1528 H   0  0  0  0  0  0  0  0  0  0  0  0  # atno 10764 bound_to 10752
  154.3012  135.6307  153.5479 H   0  0  0  0  0  0  0  0  0  0  0  0  # atno 10765 bound_to 10752
  140.1859  134.4046  155.8173 H   0  0  0  0  0  0  0  0  0  0  0  0  # atno 11005 bound_to 11000
  145.5198  141.0432  143.2441 LP  0  0  0  0  0  0  0  0  0  0  0  0  # atno 17320 bound_to 7965
  144.7720  139.6714  143.7191 LP  0  0  0  0  0  0  0  0  0  0  0  0  # atno 17321 bound_to 7965
  139.7269  144.7591  151.0864 LP  0  0  0  0  0  0  0  0  0  0  0  0  # atno 17342 bound_to 10162
  140.7758  143.5136  150.9622 LP  0  0  0  0  0  0  0  0  0  0  0  0  # atno 17343 bound_to 10162
  157.6154  131.0933  150.8720 LP  0  0  0  0  0  0  0  0  0  0  0  0  # atno 17370 bound_to 10713
  156.8852  130.5193  149.5289 LP  0  0  0  0  0  0  0  0  0  0  0  0  # atno 17371 bound_to 10713
  141.2225  133.7023  156.8012 LP  0  0  0  0  0  0  0  0  0  0  0  0  # atno 17394 bound_to 11000
  140.2214  134.8754  157.3381 LP  0  0  0  0  0  0  0  0  0  0  0  0  # atno 17395 bound_to 11000

$$$$
