AV-unprocessed.smi:1446|AV-procd|sdf|5889|dock7
  -GOLD-   22720 5573D 1   1.00000     0.00000
 Structure written by MMmdl.
 47 48  0  0  0  0  0  0  0  0  1 V2000
  158.2362  135.6844  161.9685 C   0  0  0  0  0  0  0  0  0  0  0  0
  156.8038  135.2116  161.7473 C   0  0  0  0  0  0  0  0  0  0  0  0
  156.5854  134.1490  161.1666 O   0  0  0  0  0  0  0  0  0  0  0  0
  155.8353  136.0128  162.2185 N   0  0  0  0  0  0  0  0  0  0  0  0
  154.3967  135.7578  162.1158 C   0  0  2  0  0  0  0  0  0  0  0  0
  153.7342  136.9363  161.3751 C   0  0  0  0  0  0  0  0  0  0  0  0
  152.8596  136.7199  160.5341 O   0  0  0  0  0  0  0  0  0  0  0  0
  154.1911  138.1598  161.7031 N   0  0  0  0  0  0  0  0  0  0  0  0
  153.7896  139.4188  161.1834 C   0  0  0  0  0  0  0  0  0  0  0  0
  154.1776  140.5359  161.9523 C   0  0  0  0  0  0  0  0  0  0  0  0
  153.8319  141.8307  161.5201 C   0  0  0  0  0  0  0  0  0  0  0  0
  153.0965  141.9935  160.3219 C   0  0  0  0  0  0  0  0  0  0  0  0
  152.7192  143.2593  159.8226 N   0  0  0  0  0  0  0  0  0  0  0  0
  152.1732  143.2767  158.4676 C   0  0  0  0  0  0  0  0  0  0  0  0
  152.1227  144.7174  157.9289 C   0  0  0  0  0  0  0  0  0  0  0  0
  151.3972  145.5455  158.8319 O   0  0  0  0  0  0  0  0  0  0  0  0
  152.0175  145.6015  160.1121 C   0  0  0  0  0  0  0  0  0  0  0  0
  152.0592  144.1933  160.7302 C   0  0  0  0  0  0  0  0  0  0  0  0
  152.7570  140.8122  159.6228 C   0  0  0  0  0  0  0  0  0  0  0  0
  153.0893  139.5708  160.0342 N   0  0  0  0  0  0  0  0  0  0  0  0
  153.8032  135.6289  163.5502 C   0  0  0  0  0  0  0  0  0  0  0  0
  154.0981  136.8728  164.4121 C   0  0  0  0  0  0  0  0  0  0  0  0
  154.2996  134.3717  164.2944 C   0  0  0  0  0  0  0  0  0  0  0  0
  158.4105  136.6254  161.4466 H   0  0  0  0  0  0  0  0  0  0  0  0
  158.9497  134.9489  161.5955 H   0  0  0  0  0  0  0  0  0  0  0  0
  158.4272  135.8366  163.0310 H   0  0  0  0  0  0  0  0  0  0  0  0
  156.1112  136.8702  162.6750 H   0  0  0  0  0  0  0  0  0  0  0  0
  154.2281  134.8273  161.5691 H   0  0  0  0  0  0  0  0  0  0  0  0
  154.9112  138.1908  162.4098 H   0  0  0  0  0  0  0  0  0  0  0  0
  154.7360  140.4078  162.8683 H   0  0  0  0  0  0  0  0  0  0  0  0
  154.1315  142.6743  162.1233 H   0  0  0  0  0  0  0  0  0  0  0  0
  152.7611  142.6638  157.7855 H   0  0  0  0  0  0  0  0  0  0  0  0
  151.1685  142.8525  158.4885 H   0  0  0  0  0  0  0  0  0  0  0  0
  153.1291  145.1137  157.7842 H   0  0  0  0  0  0  0  0  0  0  0  0
  151.6309  144.7364  156.9564 H   0  0  0  0  0  0  0  0  0  0  0  0
  153.0227  146.0171  160.0236 H   0  0  0  0  0  0  0  0  0  0  0  0
  151.4497  146.2758  160.7530 H   0  0  0  0  0  0  0  0  0  0  0  0
  151.0450  143.8460  160.9323 H   0  0  0  0  0  0  0  0  0  0  0  0
  152.5903  144.2345  161.6818 H   0  0  0  0  0  0  0  0  0  0  0  0
  152.2175  140.8528  158.6884 H   0  0  0  0  0  0  0  0  0  0  0  0
  152.7175  135.5488  163.4706 H   0  0  0  0  0  0  0  0  0  0  0  0
  155.1711  137.0424  164.5063 H   0  0  0  0  0  0  0  0  0  0  0  0
  153.6919  136.7590  165.4177 H   0  0  0  0  0  0  0  0  0  0  0  0
  153.6537  137.7757  163.9936 H   0  0  0  0  0  0  0  0  0  0  0  0
  155.3878  134.3577  164.3624 H   0  0  0  0  0  0  0  0  0  0  0  0
  153.9838  133.4510  163.8036 H   0  0  0  0  0  0  0  0  0  0  0  0
  153.9053  134.3364  165.3102 H   0  0  0  0  0  0  0  0  0  0  0  0
  1  2  1  0  0  0  0
  1 24  1  0  0  0  0
  1 25  1  0  0  0  0
  1 26  1  0  0  0  0
  2  3  2  0  0  0  0
  2  4  1  0  0  0  0
  4  5  1  0  0  0  0
  4 27  1  0  0  0  0
  5  6  1  0  0  0  0
  5 21  1  0  0  0  0
  5 28  1  0  0  0  0
  6  7  2  0  0  0  0
  6  8  1  0  0  0  0
  8  9  1  0  0  0  0
  8 29  1  0  0  0  0
  9 20  1  0  0  0  0
  9 10  2  0  0  0  0
 10 11  1  0  0  0  0
 10 30  1  0  0  0  0
 11 12  2  0  0  0  0
 11 31  1  0  0  0  0
 12 13  1  0  0  0  0
 12 19  1  0  0  0  0
 13 18  1  0  0  0  0
 13 14  1  0  0  0  0
 14 15  1  0  0  0  0
 14 32  1  0  0  0  0
 14 33  1  0  0  0  0
 15 16  1  0  0  0  0
 15 34  1  0  0  0  0
 15 35  1  0  0  0  0
 16 17  1  0  0  0  0
 17 18  1  0  0  0  0
 17 36  1  0  0  0  0
 17 37  1  0  0  0  0
 18 38  1  0  0  0  0
 18 39  1  0  0  0  0
 19 20  2  0  0  0  0
 19 40  1  0  0  0  0
 21 22  1  0  0  0  0
 21 23  1  0  0  0  0
 21 41  1  0  0  0  0
 22 42  1  0  0  0  0
 22 43  1  0  0  0  0
 22 44  1  0  0  0  0
 23 45  1  0  0  0  0
 23 46  1  0  0  0  0
 23 47  1  0  0  0  0
M  END
> <s_m_source_file>
AV-unprocessed.smi

> <i_m_source_file_index>
1446

> <i_lp_mmshare_version>
43012

> <i_f3d_flags>
0

> <s_epik_input>
W0NIM11DKD1PKVtOSF1bQ0BASF0oW0NIXShbQ0gzXSlbQ0gzXSlDKD1PKVtOSF1jMVtjSF1bY0hdYyhbY0hdbjEpTjJbQ0gyXVtDSDJdT1tDSDJdW0NIMl0y

> <s_epik_cmdline>
J2VwaWtfcHl0aG9uJywgJy1waCcsICc3LjAnLCAnLXRuJywgJzgnLCAnLW1hJywgJzIwMCcsICctbWV0YWxfYmluZGluZycsICctaW1hZScsICc8aW5maWxlLm1hZT4nLCAnLW9tYWUnLCAnPG91dGZpbGUubWFlPic=

> <r_lp_tautomer_probability>
1

> <r_epik_Ionization_Penalty>
0.00298315

> <r_epik_Ionization_Penalty_Charging>
0

> <r_epik_Ionization_Penalty_Neutral>
0.00298315

> <r_epik_State_Penalty>
0.0038483

> <r_epik_Charging_Adjusted_Penalty>
0.0038483

> <i_epik_Tot_Q>
0

> <i_epik_Tot_abs_Q>
0

> <r_epik_Metal_State_Penalty>
-0

> <b_epik_Metal_Only>
0

> <s_lp_Force_Field>
OPLS_2005

> <r_lp_Energy>
27.9322

> <b_lp_Chiralities_Consistent>
1

> <s_lp_Variant>
AV-unprocessed.smi:1446-1

> <Gold.Version>
5.8.1

> <Gold.Id.Protein>
6NUR|6NUR_protein|mol2

> <Gold.PLP.Fitness>
46.3958

> <Gold.PLP.PLP>
-44.7208

> <Gold.PLP.part.hbond>
-1.4862

> <Gold.PLP.part.metal>
0.0000

> <Gold.PLP.part.buried>
-5.7318

> <Gold.PLP.part.nonpolar>
-37.5182

> <Gold.PLP.part.repulsive>
0.1385

> <Gold.PLP.ligand.clash>
0.0000

> <Gold.PLP.ligand.torsion>
0.7983

> <Gold.PLP.Chemscore.Hbond>
0.9588

> <Gold.PLP.Chemscore.CHOScore>
0.0000

> <Gold.PLP.Chemscore.Metal>
0.0000

> <Gold.Chemscore.Hbonds>
donor molecule, donor type, donor heavy atom, donor atom, acceptor molecule, acceptor atom, score
      P1  H  6896  6909       L1     7  1.00

> <Gold.PLP.Chemscore.Internal.Correction>
0.3954

> <Gold.Rescore>
     Score         DG    S(hbond)    S(metal)    S(lipo)     H(rot)  DE(clash)    DE(int)     intcor
     15.79     -18.19       0.98        0.00     118.61       1.74       0.06       2.34       ----

> <Gold.Chemscore.Fitness>
15.7855

> <Gold.Chemscore.DG>
-18.1880

> <Gold.Chemscore.ZeroCoef>
-5.4800

> <Gold.Chemscore.Hbond>
0.9832

> <Gold.Chemscore.Metal>
0.0000

> <Gold.Chemscore.Lipo>
118.6058

> <Gold.Chemscore.Internal_Hbond>
0.0000

> <Gold.Chemscore.DEClash>
0.0640

> <Gold.Chemscore.DEInternal>
2.3384

> <Gold.Chemscore.Rot>
1.7394

> <Gold.Chemscore.Internal.Correction>
   9.000000E+99

> <Gold.Chemscore.Hbonds>
donor molecule, donor type, donor heavy atom, donor atom, acceptor molecule, acceptor atom, score
      P1  H  6896  6909       L1     7  0.99

> <Gold.Chemscore.Hbond.Weighted>
-3.2839

> <Gold.Chemscore.Metal.Weighted>
-0.0000

> <Gold.Chemscore.Lipo.Weighted>
-13.8769

> <Gold.Chemscore.Internal_Hbond.Weighted>
0.0000

> <Gold.Chemscore.DEClash.Weighted>
0.0640

> <Gold.Chemscore.DEInternal.Weighted>
2.3384

> <Gold.Chemscore.Rot.Weighted>
4.4528

> <Gold.Chemscore.Internal.Correction.Weighted>
   9.000000E+99

> <Gold.Protein.RotatedTorsions>
[ 6907 6896 6895 6894 ] final  156.96 input  -60.11 | X-H torsion
[ 7974 7965 7964 7962 ] final  -23.63 input  175.53 | X-H torsion
[ 8008 7997 7996 7995 ] final  -84.62 input   59.86 | X-H torsion
[ 10167 10162 10161 10158 ] final   60.31 input  -65.29 | X-H torsion
[ 10718 10713 10712 10709 ] final   13.86 input   66.30 | X-H torsion
[ 10763 10752 10751 10750 ] final   66.66 input  -60.55 | X-H torsion
[ 11005 11000 10999 10996 ] final   10.30 input  -57.11 | X-H torsion

> <Gold.Protein.ActiveResidues>
 VAL166  LYS551  ARG553  GLY616  TRP617  ASP618  TYR619  PRO620  LYS621  CYS622 
 ASP623  PHE694  ASN695  SER759  ASP760  ASP761  ALA762  ILE779  LEU786  VAL792 
 PHE793  MET794  SER795  GLU796  ALA797  LYS798  CYS799  TRP800  GLU811  SER814 

> <Gold.Protein.RotatedAtoms>
  152.0220  133.3902  159.4261 H   0  0  0  0  0  0  0  0  0  0  0  0  # atno 6907 bound_to 6896
  150.6889  134.3615  159.4962 H   0  0  0  0  0  0  0  0  0  0  0  0  # atno 6908 bound_to 6896
  152.1390  134.9076  160.0605 H   0  0  0  0  0  0  0  0  0  0  0  0  # atno 6909 bound_to 6896
  146.1604  140.4642  142.8574 H   0  0  0  0  0  0  0  0  0  0  0  0  # atno 7974 bound_to 7965
  154.6317  140.0602  156.9740 H   0  0  0  0  0  0  0  0  0  0  0  0  # atno 8008 bound_to 7997
  155.1655  140.3286  155.4384 H   0  0  0  0  0  0  0  0  0  0  0  0  # atno 8009 bound_to 7997
  156.2486  140.1923  156.6759 H   0  0  0  0  0  0  0  0  0  0  0  0  # atno 8010 bound_to 7997
  140.1669  144.4315  150.6680 H   0  0  0  0  0  0  0  0  0  0  0  0  # atno 10167 bound_to 10162
  157.0308  130.6192  149.5735 H   0  0  0  0  0  0  0  0  0  0  0  0  # atno 10718 bound_to 10713
  153.0150  135.5312  154.6858 H   0  0  0  0  0  0  0  0  0  0  0  0  # atno 10763 bound_to 10752
  154.6006  135.2868  155.0541 H   0  0  0  0  0  0  0  0  0  0  0  0  # atno 10764 bound_to 10752
  154.1600  135.6549  153.5036 H   0  0  0  0  0  0  0  0  0  0  0  0  # atno 10765 bound_to 10752
  140.5161  134.0605  155.7831 H   0  0  0  0  0  0  0  0  0  0  0  0  # atno 11005 bound_to 11000
  144.8019  140.6230  143.6472 LP  0  0  0  0  0  0  0  0  0  0  0  0  # atno 17320 bound_to 7965
  145.4602  139.1513  143.3870 LP  0  0  0  0  0  0  0  0  0  0  0  0  # atno 17321 bound_to 7965
  140.6607  143.2251  151.5863 LP  0  0  0  0  0  0  0  0  0  0  0  0  # atno 17342 bound_to 10162
  139.5355  144.2793  152.1242 LP  0  0  0  0  0  0  0  0  0  0  0  0  # atno 17343 bound_to 10162
  156.0070  130.5158  150.7863 LP  0  0  0  0  0  0  0  0  0  0  0  0  # atno 17370 bound_to 10713
  157.5179  131.0929  151.0116 LP  0  0  0  0  0  0  0  0  0  0  0  0  # atno 17371 bound_to 10713
  141.1360  133.9221  157.2433 LP  0  0  0  0  0  0  0  0  0  0  0  0  # atno 17394 bound_to 11000
  139.9632  135.0149  156.9316 LP  0  0  0  0  0  0  0  0  0  0  0  0  # atno 17395 bound_to 11000

$$$$
