AV-unprocessed.smi:3285|AV-procd|sdf|12586|dock8
  -GOLD-   2272018513D 1   1.00000     0.00000
 Structure written by MMmdl.
 45 46  0  0  0  0  0  0  0  0  2 V2000
  150.7478  135.1309  156.7231 C   0  0  0  0  0  0  0  0  0  0  0  0
  150.7674  133.6789  156.3407 C   0  0  0  0  0  0  0  0  0  0  0  0
  151.2486  132.7938  157.1966 N   0  0  0  0  0  0  0  0  0  0  0  0
  151.1378  131.5511  156.5670 O   0  0  0  0  0  0  0  0  0  0  0  0
  150.5875  131.7378  155.3413 C   0  0  0  0  0  0  0  0  0  0  0  0
  150.3836  130.5124  154.5158 C   0  0  0  0  0  0  0  0  0  0  0  0
  150.3243  133.0649  155.1332 C   0  0  0  0  0  0  0  0  0  0  0  0
  149.7117  133.7286  153.9254 C   0  0  0  0  0  0  0  0  0  0  0  0
  148.2929  133.2141  153.6379 C   0  0  0  0  0  0  0  0  0  0  0  0
  147.5678  134.1176  152.7187 N   0  3  0  0  0  0  0  0  0  0  0  0
  146.9100  133.4618  151.5679 C   0  0  2  0  0  0  0  0  0  0  0  0
  145.7282  134.3236  151.0898 C   0  0  0  0  0  0  0  0  0  0  0  0
  144.9842  133.6632  149.9170 C   0  0  0  0  0  0  0  0  0  0  0  0
  144.4949  132.2419  150.2619 C   0  0  2  0  0  0  0  0  0  0  0  0
  143.2993  132.2734  151.2356 C   0  0  0  0  0  0  0  0  0  0  0  0
  145.6860  131.3754  150.7452 C   0  0  2  0  0  0  0  0  0  0  0  0
  145.2918  129.9233  151.0629 C   0  0  0  0  0  0  0  0  0  0  0  0
  146.4350  132.0361  151.9208 C   0  0  0  0  0  0  0  0  0  0  0  0
  150.0741  135.7032  156.0860 H   0  0  0  0  0  0  0  0  0  0  0  0
  151.7415  135.5698  156.6342 H   0  0  0  0  0  0  0  0  0  0  0  0
  150.4163  135.2640  157.7533 H   0  0  0  0  0  0  0  0  0  0  0  0
  149.9583  130.7567  153.5426 H   0  0  0  0  0  0  0  0  0  0  0  0
  149.7054  129.8203  155.0149 H   0  0  0  0  0  0  0  0  0  0  0  0
  151.3304  129.9982  154.3498 H   0  0  0  0  0  0  0  0  0  0  0  0
  149.6701  134.8090  154.0673 H   0  0  0  0  0  0  0  0  0  0  0  0
  150.3343  133.5806  153.0424 H   0  0  0  0  0  0  0  0  0  0  0  0
  148.3439  132.2148  153.2034 H   0  0  0  0  0  0  0  0  0  0  0  0
  147.7430  133.1285  154.5749 H   0  0  0  0  0  0  0  0  0  0  0  0
  146.8776  134.6408  153.2385 H   0  0  0  0  0  0  0  0  0  0  0  0
  147.6317  133.4040  150.7512 H   0  0  0  0  0  0  0  0  0  0  0  0
  145.0357  134.4979  151.9141 H   0  0  0  0  0  0  0  0  0  0  0  0
  146.0862  135.3070  150.7825 H   0  0  0  0  0  0  0  0  0  0  0  0
  144.1453  134.2881  149.6083 H   0  0  0  0  0  0  0  0  0  0  0  0
  145.6528  133.6136  149.0565 H   0  0  0  0  0  0  0  0  0  0  0  0
  144.1238  131.8007  149.3356 H   0  0  0  0  0  0  0  0  0  0  0  0
  143.5776  132.6502  152.2193 H   0  0  0  0  0  0  0  0  0  0  0  0
  142.8679  131.2820  151.3711 H   0  0  0  0  0  0  0  0  0  0  0  0
  142.5040  132.9134  150.8526 H   0  0  0  0  0  0  0  0  0  0  0  0
  146.3901  131.3217  149.9132 H   0  0  0  0  0  0  0  0  0  0  0  0
  144.6532  129.8604  151.9441 H   0  0  0  0  0  0  0  0  0  0  0  0
  146.1747  129.3137  151.2571 H   0  0  0  0  0  0  0  0  0  0  0  0
  144.7578  129.4689  150.2281 H   0  0  0  0  0  0  0  0  0  0  0  0
  147.2899  131.4145  152.1868 H   0  0  0  0  0  0  0  0  0  0  0  0
  145.7945  132.0642  152.8030 H   0  0  0  0  0  0  0  0  0  0  0  0
  148.2475  134.7665  152.3479 H   0  0  0  0  0  0  0  0  0  0  0  0
  1  2  1  0  0  0  0
  1 19  1  0  0  0  0
  1 20  1  0  0  0  0
  1 21  1  0  0  0  0
  2  7  1  0  0  0  0
  2  3  2  0  0  0  0
  3  4  1  0  0  0  0
  4  5  1  0  0  0  0
  5  6  1  0  0  0  0
  5  7  2  0  0  0  0
  6 22  1  0  0  0  0
  6 23  1  0  0  0  0
  6 24  1  0  0  0  0
  7  8  1  0  0  0  0
  8  9  1  0  0  0  0
  8 25  1  0  0  0  0
  8 26  1  0  0  0  0
  9 10  1  0  0  0  0
  9 27  1  0  0  0  0
  9 28  1  0  0  0  0
 10 11  1  0  0  0  0
 10 29  1  0  0  0  0
 10 45  1  0  0  0  0
 11 18  1  0  0  0  0
 11 12  1  0  0  0  0
 11 30  1  0  0  0  0
 12 13  1  0  0  0  0
 12 31  1  0  0  0  0
 12 32  1  0  0  0  0
 13 14  1  0  0  0  0
 13 33  1  0  0  0  0
 13 34  1  0  0  0  0
 14 15  1  0  0  0  0
 14 16  1  0  0  0  0
 14 35  1  0  0  0  0
 15 36  1  0  0  0  0
 15 37  1  0  0  0  0
 15 38  1  0  0  0  0
 16 17  1  0  0  0  0
 16 18  1  0  0  0  0
 16 39  1  0  0  0  0
 17 40  1  0  0  0  0
 17 41  1  0  0  0  0
 17 42  1  0  0  0  0
 18 43  1  0  0  0  0
 18 44  1  0  0  0  0
M  CHG  1  10   1
M  END
> <s_m_source_file>
AV-unprocessed.smi

> <i_m_source_file_index>
3285

> <i_lp_mmshare_version>
43012

> <i_f3d_flags>
0

> <s_epik_input>
W0NIM11jMW5vYyhbQ0gzXSljMVtDSDJdW0NIMl1bTkhdW0NAQEhdMltDSDJdW0NIMl1bQ0BASF0oW0NIM10pW0NAQEhdKFtDSDNdKVtDSDJdMg==

> <s_epik_cmdline>
J2VwaWtfcHl0aG9uJywgJy1waCcsICc3LjAnLCAnLXRuJywgJzgnLCAnLW1hJywgJzIwMCcsICctbWV0YWxfYmluZGluZycsICctaW1hZScsICc8aW5maWxlLm1hZT4nLCAnLW9tYWUnLCAnPG91dGZpbGUubWFlPic=

> <r_lp_tautomer_probability>
1

> <r_epik_Ionization_Penalty>
0.000204615

> <r_epik_Ionization_Penalty_Charging>
0.000204615

> <r_epik_Ionization_Penalty_Neutral>
9.28663e-11

> <r_epik_State_Penalty>
-0

> <r_epik_Charging_Adjusted_Penalty>
0.000204615

> <i_epik_Tot_Q>
1

> <i_epik_Tot_abs_Q>
1

> <r_epik_Metal_State_Penalty>
-0

> <b_epik_Metal_Only>
0

> <s_lp_Force_Field>
OPLS_2005

> <r_lp_Energy>
13.9003

> <b_lp_Chiralities_Consistent>
1

> <s_lp_Variant>
AV-unprocessed.smi:3285-7

> <Gold.Version>
5.8.1

> <Gold.Id.Protein>
6NUR|6NUR_protein|mol2

> <Gold.PLP.Fitness>
39.5293

> <Gold.PLP.PLP>
-31.9725

> <Gold.PLP.part.hbond>
-2.0000

> <Gold.PLP.part.metal>
0.0000

> <Gold.PLP.part.buried>
-1.7784

> <Gold.PLP.part.nonpolar>
-28.8397

> <Gold.PLP.part.repulsive>
0.0032

> <Gold.PLP.ligand.clash>
0.0000

> <Gold.PLP.ligand.torsion>
0.7247

> <Gold.PLP.Chemscore.Hbond>
3.0000

> <Gold.PLP.Chemscore.CHOScore>
0.0000

> <Gold.PLP.Chemscore.Metal>
0.0000

> <Gold.Chemscore.Hbonds>
donor molecule, donor type, donor heavy atom, donor atom, acceptor molecule, acceptor atom, score
      L1  H    10    45       P1  7948  2.00
      P1  H  6896  6908       L1     3  0.81

> <Gold.PLP.Chemscore.Internal.Correction>
0.0061

> <Gold.Rescore>
     Score         DG    S(hbond)    S(metal)    S(lipo)     H(rot)  DE(clash)    DE(int)     intcor
     17.47     -19.82       1.91        0.00      97.63       1.35       1.48       0.87       ----

> <Gold.Chemscore.Fitness>
17.4720

> <Gold.Chemscore.DG>
-19.8239

> <Gold.Chemscore.ZeroCoef>
-5.4800

> <Gold.Chemscore.Hbond>
1.9068

> <Gold.Chemscore.Metal>
0.0000

> <Gold.Chemscore.Lipo>
97.6254

> <Gold.Chemscore.Internal_Hbond>
0.0000

> <Gold.Chemscore.DEClash>
1.4831

> <Gold.Chemscore.DEInternal>
0.8688

> <Gold.Chemscore.Rot>
1.3465

> <Gold.Chemscore.Internal.Correction>
   9.000000E+99

> <Gold.Chemscore.Hbonds>
donor molecule, donor type, donor heavy atom, donor atom, acceptor molecule, acceptor atom, score
      L1  H    10    45       P1  7948  0.30
      P1  H  6896  6908       L1     3  0.68

> <Gold.Chemscore.Hbond.Weighted>
-6.3687

> <Gold.Chemscore.Metal.Weighted>
-0.0000

> <Gold.Chemscore.Lipo.Weighted>
-11.4222

> <Gold.Chemscore.Internal_Hbond.Weighted>
0.0000

> <Gold.Chemscore.DEClash.Weighted>
1.4831

> <Gold.Chemscore.DEInternal.Weighted>
0.8688

> <Gold.Chemscore.Rot.Weighted>
3.4470

> <Gold.Chemscore.Internal.Correction.Weighted>
   9.000000E+99

> <Gold.Protein.RotatedTorsions>
[ 6907 6896 6895 6894 ] final   87.98 input  -60.11 | X-H torsion
[ 7974 7965 7964 7962 ] final -166.97 input  175.53 | X-H torsion
[ 8008 7997 7996 7995 ] final   62.25 input   59.86 | X-H torsion
[ 10167 10162 10161 10158 ] final   28.21 input  -65.29 | X-H torsion
[ 10718 10713 10712 10709 ] final   -2.49 input   66.30 | X-H torsion
[ 10763 10752 10751 10750 ] final -106.36 input  -60.55 | X-H torsion
[ 11005 11000 10999 10996 ] final  -34.54 input  -57.11 | X-H torsion

> <Gold.Protein.ActiveResidues>
 VAL166  LYS551  ARG553  GLY616  TRP617  ASP618  TYR619  PRO620  LYS621  CYS622 
 ASP623  PHE694  ASN695  SER759  ASP760  ASP761  ALA762  ILE779  LEU786  VAL792 
 PHE793  MET794  SER795  GLU796  ALA797  LYS798  CYS799  TRP800  GLU811  SER814 

> <Gold.Protein.RotatedAtoms>
  152.5419  134.2193  159.8780 H   0  0  0  0  0  0  0  0  0  0  0  0  # atno 6907 bound_to 6896
  151.2171  133.4516  159.2607 H   0  0  0  0  0  0  0  0  0  0  0  0  # atno 6908 bound_to 6896
  151.0841  134.9889  159.8426 H   0  0  0  0  0  0  0  0  0  0  0  0  # atno 6909 bound_to 6896
  144.7233  140.2588  143.6268 H   0  0  0  0  0  0  0  0  0  0  0  0  # atno 7974 bound_to 7965
  155.6114  140.3495  155.4623 H   0  0  0  0  0  0  0  0  0  0  0  0  # atno 8008 bound_to 7997
  156.0151  140.1241  157.0438 H   0  0  0  0  0  0  0  0  0  0  0  0  # atno 8009 bound_to 7997
  154.4295  140.1073  156.5871 H   0  0  0  0  0  0  0  0  0  0  0  0  # atno 8010 bound_to 7997
  140.4872  144.0524  150.6284 H   0  0  0  0  0  0  0  0  0  0  0  0  # atno 10167 bound_to 10162
  156.7901  130.5359  149.5737 H   0  0  0  0  0  0  0  0  0  0  0  0  # atno 10718 bound_to 10713
  154.8007  135.4715  154.0269 H   0  0  0  0  0  0  0  0  0  0  0  0  # atno 10763 bound_to 10752
  153.1777  135.6835  153.8528 H   0  0  0  0  0  0  0  0  0  0  0  0  # atno 10764 bound_to 10752
  153.8089  135.3220  155.3376 H   0  0  0  0  0  0  0  0  0  0  0  0  # atno 10765 bound_to 10752
  140.9724  133.7102  156.1546 H   0  0  0  0  0  0  0  0  0  0  0  0  # atno 11005 bound_to 11000
  145.8156  139.2021  143.1968 LP  0  0  0  0  0  0  0  0  0  0  0  0  # atno 17320 bound_to 7965
  146.0558  140.8022  142.9759 LP  0  0  0  0  0  0  0  0  0  0  0  0  # atno 17321 bound_to 7965
  140.3782  143.2817  152.0200 LP  0  0  0  0  0  0  0  0  0  0  0  0  # atno 17342 bound_to 10162
  139.4844  144.6176  151.7317 LP  0  0  0  0  0  0  0  0  0  0  0  0  # atno 17343 bound_to 10162
  156.1164  130.6078  151.0127 LP  0  0  0  0  0  0  0  0  0  0  0  0  # atno 17370 bound_to 10713
  157.6605  131.0881  150.7850 LP  0  0  0  0  0  0  0  0  0  0  0  0  # atno 17371 bound_to 10713
  140.7309  134.4256  157.5566 LP  0  0  0  0  0  0  0  0  0  0  0  0  # atno 17394 bound_to 11000
  139.8917  134.8772  156.2305 LP  0  0  0  0  0  0  0  0  0  0  0  0  # atno 17395 bound_to 11000

$$$$
