AV-unprocessed.smi:287|AV-procd|sdf|2203|dock8
  -GOLD-   2262022 23D 1   1.00000     0.00000
 Structure written by MMmdl.
 55 58  0  0  0  0  0  0  0  0  1 V2000
  147.3867  137.0476  163.1352 C   0  0  0  0  0  0  0  0  0  0  0  0
  146.9962  136.7609  161.7259 C   0  0  0  0  0  0  0  0  0  0  0  0
  145.9779  136.0565  161.1527 C   0  0  0  0  0  0  0  0  0  0  0  0
  146.1418  136.1443  159.7379 C   0  0  0  0  0  0  0  0  0  0  0  0
  145.2330  135.5126  158.6920 C   0  0  1  0  0  0  0  0  0  0  0  0
  145.9847  134.3869  157.9621 C   0  0  0  0  0  0  0  0  0  0  0  0
  144.0919  134.8956  159.2558 O   0  0  0  0  0  0  0  0  0  0  0  0
  144.6991  136.5437  157.6713 C   0  0  0  0  0  0  0  0  0  0  0  0
  143.4622  136.1189  157.0288 N   0  0  0  0  0  0  0  0  0  0  0  0
  143.4253  135.8190  155.7133 C   0  0  0  0  0  0  0  0  0  0  0  0
  142.1861  135.6908  155.1840 N   0  0  0  0  0  0  0  0  0  0  0  0
  142.0368  135.3883  153.8928 C   0  0  0  0  0  0  0  0  0  0  0  0
  142.9788  135.1787  152.9735 N   0  0  0  0  0  0  0  0  0  0  0  0
  144.2358  135.3141  153.4893 C   0  0  0  0  0  0  0  0  0  0  0  0
  144.5433  135.6256  154.8470 C   0  0  0  0  0  0  0  0  0  0  0  0
  145.9233  135.6604  155.0074 N   0  0  0  0  0  0  0  0  0  0  0  0
  146.3944  135.3834  153.8236 C   0  0  0  0  0  0  0  0  0  0  0  0
  145.4521  135.1868  152.8383 N   0  0  0  0  0  0  0  0  0  0  0  0
  145.7133  134.8269  151.3989 C   0  0  1  0  0  0  0  0  0  0  0  0
  146.3288  133.5772  151.3361 O   0  0  0  0  0  0  0  0  0  0  0  0
  145.3369  132.5703  151.1800 C   0  0  2  0  0  0  0  0  0  0  0  0
  145.9612  131.2330  150.7454 C   0  0  0  0  0  0  0  0  0  0  0  0
  146.8000  131.4320  149.6274 O   0  0  0  0  0  0  0  0  0  0  0  0
  144.3967  133.2310  150.1654 C   0  0  2  0  0  0  0  0  0  0  0  0
  144.9029  133.0839  148.8481 O   0  0  0  0  0  0  0  0  0  0  0  0
  144.3790  134.6879  150.6343 C   0  0  2  0  0  0  0  0  0  0  0  0
  144.2445  135.6088  149.5673 O   0  0  0  0  0  0  0  0  0  0  0  0
  147.2638  136.9188  159.5626 C   0  0  0  0  0  0  0  0  0  0  0  0
  148.0015  137.4214  158.3653 C   0  0  0  0  0  0  0  0  0  0  0  0
  147.7888  137.2938  160.7623 O   0  0  0  0  0  0  0  0  0  0  0  0
  146.3722  135.6157  151.0347 H   0  0  0  0  0  0  0  0  0  0  0  0
  144.7976  132.4443  152.1213 H   0  0  0  0  0  0  0  0  0  0  0  0
  143.3999  132.7897  150.1950 H   0  0  0  0  0  0  0  0  0  0  0  0
  143.5429  134.8252  151.3211 H   0  0  0  0  0  0  0  0  0  0  0  0
  146.8408  136.4069  163.8279 H   0  0  0  0  0  0  0  0  0  0  0  0
  147.1702  138.0847  163.3919 H   0  0  0  0  0  0  0  0  0  0  0  0
  148.4526  136.8762  163.2860 H   0  0  0  0  0  0  0  0  0  0  0  0
  145.2011  135.5313  161.6884 H   0  0  0  0  0  0  0  0  0  0  0  0
  146.8707  134.7679  157.4528 H   0  0  0  0  0  0  0  0  0  0  0  0
  145.3569  133.9073  157.2101 H   0  0  0  0  0  0  0  0  0  0  0  0
  146.3143  133.6148  158.6583 H   0  0  0  0  0  0  0  0  0  0  0  0
  144.2443  133.9640  159.2965 H   0  0  0  0  0  0  0  0  0  0  0  0
  144.4816  137.4731  158.1994 H   0  0  0  0  0  0  0  0  0  0  0  0
  145.4584  136.7739  156.9224 H   0  0  0  0  0  0  0  0  0  0  0  0
  142.6497  136.0826  157.6279 H   0  0  0  0  0  0  0  0  0  0  0  0
  141.0178  135.3024  153.5457 H   0  0  0  0  0  0  0  0  0  0  0  0
  147.4560  135.3183  153.6343 H   0  0  0  0  0  0  0  0  0  0  0  0
  146.5777  130.8276  151.5484 H   0  0  0  0  0  0  0  0  0  0  0  0
  145.1955  130.4914  150.5153 H   0  0  0  0  0  0  0  0  0  0  0  0
  147.6961  131.4606  149.9263 H   0  0  0  0  0  0  0  0  0  0  0  0
  145.2625  133.9139  148.5738 H   0  0  0  0  0  0  0  0  0  0  0  0
  144.0454  136.4594  149.9273 H   0  0  0  0  0  0  0  0  0  0  0  0
  147.3408  137.9986  157.7187 H   0  0  0  0  0  0  0  0  0  0  0  0
  148.4057  136.5924  157.7848 H   0  0  0  0  0  0  0  0  0  0  0  0
  148.8332  138.0645  158.6540 H   0  0  0  0  0  0  0  0  0  0  0  0
  1  2  1  0  0  0  0
  1 35  1  0  0  0  0
  1 36  1  0  0  0  0
  1 37  1  0  0  0  0
  2 30  1  0  0  0  0
  2  3  2  0  0  0  0
  3  4  1  0  0  0  0
  3 38  1  0  0  0  0
  4  5  1  0  0  0  0
  4 28  2  0  0  0  0
  5  6  1  0  0  0  0
  5  7  1  0  0  0  0
  5  8  1  0  0  0  0
  6 39  1  0  0  0  0
  6 40  1  0  0  0  0
  6 41  1  0  0  0  0
  7 42  1  0  0  0  0
  8  9  1  0  0  0  0
  8 43  1  0  0  0  0
  8 44  1  0  0  0  0
  9 10  1  0  0  0  0
  9 45  1  0  0  0  0
 10 15  1  0  0  0  0
 10 11  2  0  0  0  0
 11 12  1  0  0  0  0
 12 13  2  0  0  0  0
 12 46  1  0  0  0  0
 13 14  1  0  0  0  0
 14 18  1  0  0  0  0
 14 15  2  0  0  0  0
 15 16  1  0  0  0  0
 16 17  2  0  0  0  0
 17 18  1  0  0  0  0
 17 47  1  0  0  0  0
 18 19  1  0  0  0  0
 19 31  1  0  0  0  0
 19 26  1  0  0  0  0
 19 20  1  0  0  0  0
 20 21  1  0  0  0  0
 21 32  1  0  0  0  0
 21 22  1  0  0  0  0
 21 24  1  0  0  0  0
 22 23  1  0  0  0  0
 22 48  1  0  0  0  0
 22 49  1  0  0  0  0
 23 50  1  0  0  0  0
 24 33  1  0  0  0  0
 24 25  1  0  0  0  0
 24 26  1  0  0  0  0
 25 51  1  0  0  0  0
 26 34  1  0  0  0  0
 26 27  1  0  0  0  0
 27 52  1  0  0  0  0
 28 29  1  0  0  0  0
 28 30  1  0  0  0  0
 29 53  1  0  0  0  0
 29 54  1  0  0  0  0
 29 55  1  0  0  0  0
M  END
> <s_m_source_file>
AV-unprocessed.smi

> <i_m_source_file_index>
287

> <i_lp_mmshare_version>
43012

> <i_f3d_flags>
0

> <s_epik_input>
W0NIM11jMVtjSF1jKGMobzEpW0NIM10pW0NAQF0oW0NIM10pKFtPSF0pW0NIMl1bTkhdYyhuW2NIXW4yKWMoYzIzKW5bY0hdbjNbQ0BASF00T1tDQEhdKFtDSDJdW09IXSlbQ0BASF0oW09IXSlbQ0BIXTRbT0hd

> <s_epik_cmdline>
J2VwaWtfcHl0aG9uJywgJy1waCcsICc3LjAnLCAnLXRuJywgJzgnLCAnLW1hJywgJzIwMCcsICctbWV0YWxfYmluZGluZycsICctaW1hZScsICc8aW5maWxlLm1hZT4nLCAnLW9tYWUnLCAnPG91dGZpbGUubWFlPic=

> <r_lp_tautomer_probability>
1

> <r_epik_Ionization_Penalty>
0.000992612

> <r_epik_Ionization_Penalty_Charging>
0

> <r_epik_Ionization_Penalty_Neutral>
0.000992612

> <r_epik_State_Penalty>
-0

> <r_epik_Charging_Adjusted_Penalty>
0

> <i_epik_Tot_Q>
0

> <i_epik_Tot_abs_Q>
0

> <r_epik_Metal_State_Penalty>
-0

> <b_epik_Metal_Only>
0

> <s_epik_Chemistry_Notes>
This compound contains an acetal/aminal-like group ( X-CH(R)-Y where X, Y are N, S, or O) that may be acid/base labile, releasing an aldehyde.

> <s_lp_Force_Field>
OPLS_2005

> <r_lp_Energy>
46.8376

> <b_lp_Chiralities_Consistent>
1

> <s_lp_Variant>
AV-unprocessed.smi:287-27

> <Gold.Version>
5.8.1

> <Gold.Id.Protein>
6NUR|6NUR_protein|mol2

> <Gold.PLP.Fitness>
49.6354

> <Gold.PLP.PLP>
-34.1544

> <Gold.PLP.part.hbond>
-6.7515

> <Gold.PLP.part.metal>
0.0000

> <Gold.PLP.part.buried>
-5.8260

> <Gold.PLP.part.nonpolar>
-21.8814

> <Gold.PLP.part.repulsive>
0.4021

> <Gold.PLP.ligand.clash>
0.0000

> <Gold.PLP.ligand.torsion>
0.6458

> <Gold.PLP.Chemscore.Hbond>
4.5584

> <Gold.PLP.Chemscore.CHOScore>
1.0000

> <Gold.PLP.Chemscore.Metal>
0.0000

> <Gold.Chemscore.Hbonds>
donor molecule, donor type, donor heavy atom, donor atom, acceptor molecule, acceptor atom, score
      L1  H    23    50       P1 10747  0.78
      L1  H    25    51       P1  7921  1.00
      L1  H    27    52       P1 10171  0.80
      P1  H  6931  6943       L1    30  0.74
      P1  H  6934  6947       L1    30  0.72
      L1  C    17    47       P1  7948  1.00

> <Gold.PLP.Chemscore.Internal.Correction>
0.0974

> <Gold.Rescore>
     Score         DG    S(hbond)    S(metal)    S(lipo)     H(rot)  DE(clash)    DE(int)     intcor
      8.08     -11.17       3.44        0.00      65.66       5.27       0.33       2.76       ----

> <Gold.Chemscore.Fitness>
8.0765

> <Gold.Chemscore.DG>
-11.1732

> <Gold.Chemscore.ZeroCoef>
-5.4800

> <Gold.Chemscore.Hbond>
3.4414

> <Gold.Chemscore.Metal>
0.0000

> <Gold.Chemscore.Lipo>
65.6641

> <Gold.Chemscore.Internal_Hbond>
0.0000

> <Gold.Chemscore.DEClash>
0.3350

> <Gold.Chemscore.DEInternal>
2.7617

> <Gold.Chemscore.Rot>
5.2672

> <Gold.Chemscore.Internal.Correction>
   9.000000E+99

> <Gold.Chemscore.Hbonds>
donor molecule, donor type, donor heavy atom, donor atom, acceptor molecule, acceptor atom, score
      L1  H    23    50       P1 10747  0.74
      L1  H    25    51       P1  7921  0.82
      L1  H    27    52       P1 10171  0.76
      P1  H  6931  6943       L1    30  0.17
      P1  H  6934  6947       L1    30  0.04

> <Gold.Chemscore.Hbond.Weighted>
-11.4944

> <Gold.Chemscore.Metal.Weighted>
-0.0000

> <Gold.Chemscore.Lipo.Weighted>
-7.6827

> <Gold.Chemscore.Internal_Hbond.Weighted>
0.0000

> <Gold.Chemscore.DEClash.Weighted>
0.3350

> <Gold.Chemscore.DEInternal.Weighted>
2.7617

> <Gold.Chemscore.Rot.Weighted>
13.4839

> <Gold.Chemscore.Internal.Correction.Weighted>
   9.000000E+99

> <Gold.Protein.RotatedTorsions>
[ 6907 6896 6895 6894 ] final   13.17 input  -60.11 | X-H torsion
[ 7974 7965 7964 7962 ] final  -57.12 input  175.53 | X-H torsion
[ 8008 7997 7996 7995 ] final  108.31 input   59.86 | X-H torsion
[ 10167 10162 10161 10158 ] final  106.41 input  -65.29 | X-H torsion
[ 10718 10713 10712 10709 ] final -170.63 input   66.30 | X-H torsion
[ 10763 10752 10751 10750 ] final   77.16 input  -60.55 | X-H torsion
[ 11005 11000 10999 10996 ] final -137.68 input  -57.11 | X-H torsion

> <Gold.Protein.ActiveResidues>
 VAL166  LYS551  ARG553  GLY616  TRP617  ASP618  TYR619  PRO620  LYS621  CYS622 
 ASP623  PHE694  ASN695  SER759  ASP760  ASP761  ALA762  ILE779  LEU786  VAL792 
 PHE793  MET794  SER795  GLU796  ALA797  LYS798  CYS799  TRP800  GLU811  SER814 

> <Gold.Protein.RotatedAtoms>
  151.7820  135.0759  160.0374 H   0  0  0  0  0  0  0  0  0  0  0  0  # atno 6907 bound_to 6896
  152.3216  133.5856  159.5757 H   0  0  0  0  0  0  0  0  0  0  0  0  # atno 6908 bound_to 6896
  150.7373  133.9918  159.3651 H   0  0  0  0  0  0  0  0  0  0  0  0  # atno 6909 bound_to 6896
  145.8547  140.8327  142.9967 H   0  0  0  0  0  0  0  0  0  0  0  0  # atno 7974 bound_to 7965
  156.1893  140.3078  155.9301 H   0  0  0  0  0  0  0  0  0  0  0  0  # atno 8008 bound_to 7997
  155.3209  140.0456  157.3056 H   0  0  0  0  0  0  0  0  0  0  0  0  # atno 8009 bound_to 7997
  154.5433  140.2268  155.8614 H   0  0  0  0  0  0  0  0  0  0  0  0  # atno 8010 bound_to 7997
  139.7011  144.7094  151.1184 H   0  0  0  0  0  0  0  0  0  0  0  0  # atno 10167 bound_to 10162
  156.7290  130.9299  151.3103 H   0  0  0  0  0  0  0  0  0  0  0  0  # atno 10718 bound_to 10713
  153.0778  135.4924  154.8441 H   0  0  0  0  0  0  0  0  0  0  0  0  # atno 10763 bound_to 10752
  154.7111  135.3020  154.9198 H   0  0  0  0  0  0  0  0  0  0  0  0  # atno 10764 bound_to 10752
  153.9892  135.6780  153.4806 H   0  0  0  0  0  0  0  0  0  0  0  0  # atno 10765 bound_to 10752
  140.8688  134.2076  157.4663 H   0  0  0  0  0  0  0  0  0  0  0  0  # atno 11005 bound_to 11000
  144.6728  140.1006  143.7460 LP  0  0  0  0  0  0  0  0  0  0  0  0  # atno 17320 bound_to 7965
  145.9317  139.2610  143.1321 LP  0  0  0  0  0  0  0  0  0  0  0  0  # atno 17321 bound_to 7965
  140.7710  143.5422  150.9299 LP  0  0  0  0  0  0  0  0  0  0  0  0  # atno 17342 bound_to 10162
  139.9104  143.6727  152.3116 LP  0  0  0  0  0  0  0  0  0  0  0  0  # atno 17343 bound_to 10162
  157.6866  130.9192  150.0404 LP  0  0  0  0  0  0  0  0  0  0  0  0  # atno 17370 bound_to 10713
  156.1542  130.3643  149.9394 LP  0  0  0  0  0  0  0  0  0  0  0  0  # atno 17371 bound_to 10713
  139.8711  134.9764  156.4921 LP  0  0  0  0  0  0  0  0  0  0  0  0  # atno 17394 bound_to 11000
  140.8597  133.8069  155.9252 LP  0  0  0  0  0  0  0  0  0  0  0  0  # atno 17395 bound_to 11000

$$$$
