AV-unprocessed.smi:3228|AV-procd|sdf|12319|dock4
  -GOLD-   2272018163D 1   1.00000     0.00000
 Structure written by MMmdl.
 31 32  0  0  0  0  0  0  0  0  1 V2000
  150.8878  140.1306  156.4762 O   0  0  0  0  0  0  0  0  0  0  0  0
  150.5237  141.2956  156.6393 C   0  0  0  0  0  0  0  0  0  0  0  0
  151.0715  142.1216  157.5422 N   0  0  0  0  0  0  0  0  0  0  0  0
  152.1598  141.7694  158.4483 C   0  0  0  0  0  0  0  0  0  0  0  0
  152.5738  142.9514  159.3479 C   0  0  2  0  0  0  0  0  0  0  0  0
  152.8921  142.5559  160.7985 C   0  0  0  0  0  0  0  0  0  0  0  0
  152.5629  143.7822  161.6652 C   0  0  0  0  0  0  0  0  0  0  0  0
  151.9282  144.8174  160.7287 C   0  0  0  0  0  0  0  0  0  0  0  0
  151.4890  144.0224  159.4983 C   0  0  1  0  0  0  0  0  0  0  0  0
  151.3886  144.8483  158.3568 O   0  0  0  0  0  0  0  0  0  0  0  0
  149.5411  141.9069  155.9546 N   0  0  0  0  0  0  0  0  0  0  0  0
  148.7263  141.3726  154.9221 C   0  0  0  0  0  0  0  0  0  0  0  0
  149.0726  140.3395  154.1448 N   0  0  0  0  0  0  0  0  0  0  0  0
  148.0791  140.0284  153.2129 C   0  0  0  0  0  0  0  0  0  0  0  0
  146.9754  140.8405  153.2955 C   0  0  0  0  0  0  0  0  0  0  0  0
  147.1405  142.0349  154.5549 S   0  0  0  0  0  0  0  0  0  0  0  0
  150.7110  143.0622  157.6091 H   0  0  0  0  0  0  0  0  0  0  0  0
  151.8696  140.9125  159.0586 H   0  0  0  0  0  0  0  0  0  0  0  0
  153.0076  141.4428  157.8456 H   0  0  0  0  0  0  0  0  0  0  0  0
  153.4633  143.4270  158.9302 H   0  0  0  0  0  0  0  0  0  0  0  0
  152.2652  141.7188  161.1088 H   0  0  0  0  0  0  0  0  0  0  0  0
  153.9302  142.2415  160.9110 H   0  0  0  0  0  0  0  0  0  0  0  0
  151.8654  143.5028  162.4556 H   0  0  0  0  0  0  0  0  0  0  0  0
  153.4545  144.1865  162.1459 H   0  0  0  0  0  0  0  0  0  0  0  0
  151.1024  145.3551  161.1958 H   0  0  0  0  0  0  0  0  0  0  0  0
  152.6833  145.5534  160.4478 H   0  0  0  0  0  0  0  0  0  0  0  0
  150.5227  143.5543  159.6916 H   0  0  0  0  0  0  0  0  0  0  0  0
  152.2275  144.8632  157.9216 H   0  0  0  0  0  0  0  0  0  0  0  0
  149.3541  142.8679  156.2000 H   0  0  0  0  0  0  0  0  0  0  0  0
  148.2405  139.2104  152.5263 H   0  0  0  0  0  0  0  0  0  0  0  0
  146.0790  140.8082  152.6943 H   0  0  0  0  0  0  0  0  0  0  0  0
  1  2  2  0  0  0  0
  2  3  1  0  0  0  0
  2 11  1  0  0  0  0
  3  4  1  0  0  0  0
  3 17  1  0  0  0  0
  4  5  1  0  0  0  0
  4 18  1  0  0  0  0
  4 19  1  0  0  0  0
  5  9  1  0  0  0  0
  5  6  1  0  0  0  0
  5 20  1  0  0  0  0
  6  7  1  0  0  0  0
  6 21  1  0  0  0  0
  6 22  1  0  0  0  0
  7  8  1  0  0  0  0
  7 23  1  0  0  0  0
  7 24  1  0  0  0  0
  8  9  1  0  0  0  0
  8 25  1  0  0  0  0
  8 26  1  0  0  0  0
  9 10  1  0  0  0  0
  9 27  1  0  0  0  0
 10 28  1  0  0  0  0
 11 12  1  0  0  0  0
 11 29  1  0  0  0  0
 12 16  1  0  0  0  0
 12 13  2  0  0  0  0
 13 14  1  0  0  0  0
 14 15  2  0  0  0  0
 14 30  1  0  0  0  0
 15 16  1  0  0  0  0
 15 31  1  0  0  0  0
M  END
> <s_m_source_file>
AV-unprocessed.smi

> <i_m_source_file_index>
3228

> <i_lp_mmshare_version>
43012

> <i_f3d_flags>
0

> <s_epik_input>
czFbY0hdW2NIXW5jMVtOSF1DKD1PKVtOSF1bQ0gyXVtDQEBIXTJbQ0gyXVtDSDJdW0NIMl1bQ0BIXTJbT0hd

> <s_epik_cmdline>
J2VwaWtfcHl0aG9uJywgJy1waCcsICc3LjAnLCAnLXRuJywgJzgnLCAnLW1hJywgJzIwMCcsICctbWV0YWxfYmluZGluZycsICctaW1hZScsICc8aW5maWxlLm1hZT4nLCAnLW9tYWUnLCAnPG91dGZpbGUubWFlPic=

> <r_lp_tautomer_probability>
0.999

> <r_epik_Ionization_Penalty>
0.000399498

> <r_epik_Ionization_Penalty_Charging>
0

> <r_epik_Ionization_Penalty_Neutral>
0.000399498

> <r_epik_State_Penalty>
0.000177984

> <r_epik_Charging_Adjusted_Penalty>
0.000177984

> <i_epik_Tot_Q>
0

> <i_epik_Tot_abs_Q>
0

> <r_epik_Metal_State_Penalty>
0.0060793

> <b_epik_Metal_Only>
0

> <s_lp_Force_Field>
OPLS_2005

> <r_lp_Energy>
20.7116

> <b_lp_Chiralities_Consistent>
1

> <s_lp_Variant>
AV-unprocessed.smi:3228-1

> <Gold.Version>
5.8.1

> <Gold.Id.Protein>
6NUR|6NUR_protein|mol2

> <Gold.PLP.Fitness>
40.2279

> <Gold.PLP.PLP>
-34.3271

> <Gold.PLP.part.hbond>
-1.0000

> <Gold.PLP.part.metal>
0.0000

> <Gold.PLP.part.buried>
-2.3660

> <Gold.PLP.part.nonpolar>
-31.7039

> <Gold.PLP.part.repulsive>
1.0286

> <Gold.PLP.ligand.clash>
0.0000

> <Gold.PLP.ligand.torsion>
0.6708

> <Gold.PLP.Chemscore.Hbond>
1.0000

> <Gold.PLP.Chemscore.CHOScore>
1.4137

> <Gold.PLP.Chemscore.Metal>
0.0000

> <Gold.Chemscore.Hbonds>
donor molecule, donor type, donor heavy atom, donor atom, acceptor molecule, acceptor atom, score
      L1  H    11    29       P1  8028  1.00
      L1  C    14    30       P1  7957  0.46
      L1  C    15    31       P1 10175  1.00

> <Gold.PLP.Chemscore.Internal.Correction>
0.0015

> <Gold.Rescore>
     Score         DG    S(hbond)    S(metal)    S(lipo)     H(rot)  DE(clash)    DE(int)     intcor
     11.07     -14.34       0.99        0.00      88.67       1.88       0.17       3.09       ----

> <Gold.Chemscore.Fitness>
11.0745

> <Gold.Chemscore.DG>
-14.3360

> <Gold.Chemscore.ZeroCoef>
-5.4800

> <Gold.Chemscore.Hbond>
0.9853

> <Gold.Chemscore.Metal>
0.0000

> <Gold.Chemscore.Lipo>
88.6698

> <Gold.Chemscore.Internal_Hbond>
0.0000

> <Gold.Chemscore.DEClash>
0.1731

> <Gold.Chemscore.DEInternal>
3.0884

> <Gold.Chemscore.Rot>
1.8786

> <Gold.Chemscore.Internal.Correction>
   9.000000E+99

> <Gold.Chemscore.Hbonds>
donor molecule, donor type, donor heavy atom, donor atom, acceptor molecule, acceptor atom, score
      L1  H    11    29       P1  8028  0.92

> <Gold.Chemscore.Hbond.Weighted>
-3.2908

> <Gold.Chemscore.Metal.Weighted>
-0.0000

> <Gold.Chemscore.Lipo.Weighted>
-10.3744

> <Gold.Chemscore.Internal_Hbond.Weighted>
0.0000

> <Gold.Chemscore.DEClash.Weighted>
0.1731

> <Gold.Chemscore.DEInternal.Weighted>
3.0884

> <Gold.Chemscore.Rot.Weighted>
4.8091

> <Gold.Chemscore.Internal.Correction.Weighted>
   9.000000E+99

> <Gold.Protein.RotatedTorsions>
[ 6907 6896 6895 6894 ] final  158.59 input  -60.11 | X-H torsion
[ 7974 7965 7964 7962 ] final -130.61 input  175.53 | X-H torsion
[ 8008 7997 7996 7995 ] final  168.95 input   59.86 | X-H torsion
[ 10167 10162 10161 10158 ] final   38.32 input  -65.29 | X-H torsion
[ 10718 10713 10712 10709 ] final -130.07 input   66.30 | X-H torsion
[ 10763 10752 10751 10750 ] final  -26.63 input  -60.55 | X-H torsion
[ 11005 11000 10999 10996 ] final   73.86 input  -57.11 | X-H torsion

> <Gold.Protein.ActiveResidues>
 VAL166  LYS551  ARG553  GLY616  TRP617  ASP618  TYR619  PRO620  LYS621  CYS622 
 ASP623  PHE694  ASN695  SER759  ASP760  ASP761  ALA762  ILE779  LEU786  VAL792 
 PHE793  MET794  SER795  GLU796  ALA797  LYS798  CYS799  TRP800  GLU811  SER814 

> <Gold.Protein.RotatedAtoms>
  151.9981  133.3815  159.4170 H   0  0  0  0  0  0  0  0  0  0  0  0  # atno 6907 bound_to 6896
  150.6913  134.3864  159.5066 H   0  0  0  0  0  0  0  0  0  0  0  0  # atno 6908 bound_to 6896
  152.1607  134.8914  160.0592 H   0  0  0  0  0  0  0  0  0  0  0  0  # atno 6909 bound_to 6896
  144.9458  140.7290  143.4818 H   0  0  0  0  0  0  0  0  0  0  0  0  # atno 7974 bound_to 7965
  156.1501  140.1577  156.8784 H   0  0  0  0  0  0  0  0  0  0  0  0  # atno 8008 bound_to 7997
  154.5063  140.0812  156.7938 H   0  0  0  0  0  0  0  0  0  0  0  0  # atno 8009 bound_to 7997
  155.3913  140.3410  155.4254 H   0  0  0  0  0  0  0  0  0  0  0  0  # atno 8010 bound_to 7997
  140.3948  144.1804  150.6131 H   0  0  0  0  0  0  0  0  0  0  0  0  # atno 10167 bound_to 10162
  156.2109  130.6917  151.0648 H   0  0  0  0  0  0  0  0  0  0  0  0  # atno 10718 bound_to 10713
  153.7191  135.6946  153.5017 H   0  0  0  0  0  0  0  0  0  0  0  0  # atno 10763 bound_to 10752
  153.2217  135.4368  155.0495 H   0  0  0  0  0  0  0  0  0  0  0  0  # atno 10764 bound_to 10752
  154.8290  135.3462  154.6725 H   0  0  0  0  0  0  0  0  0  0  0  0  # atno 10765 bound_to 10752
  139.9419  134.7383  156.1077 H   0  0  0  0  0  0  0  0  0  0  0  0  # atno 11005 bound_to 11000
  145.2920  139.1880  143.4735 LP  0  0  0  0  0  0  0  0  0  0  0  0  # atno 17320 bound_to 7965
  146.3303  140.2898  142.8614 LP  0  0  0  0  0  0  0  0  0  0  0  0  # atno 17321 bound_to 7965
  140.4802  143.2382  151.8965 LP  0  0  0  0  0  0  0  0  0  0  0  0  # atno 17342 bound_to 10162
  139.4787  144.5277  151.8711 LP  0  0  0  0  0  0  0  0  0  0  0  0  # atno 17343 bound_to 10162
  157.7037  131.0765  150.6736 LP  0  0  0  0  0  0  0  0  0  0  0  0  # atno 17370 bound_to 10713
  156.6795  130.4563  149.5632 LP  0  0  0  0  0  0  0  0  0  0  0  0  # atno 17371 bound_to 10713
  141.1057  133.6661  156.2857 LP  0  0  0  0  0  0  0  0  0  0  0  0  # atno 17394 bound_to 11000
  140.5930  134.5631  157.5503 LP  0  0  0  0  0  0  0  0  0  0  0  0  # atno 17395 bound_to 11000

$$$$
