AV-unprocessed.smi:1957|AV-procd|sdf|7904|dock8
  -GOLD-   2272010 63D 1   1.00000     0.00000
 Structure written by MMmdl.
 42 43  0  0  0  0  0  0  0  0  1 V2000
  153.0115  142.2050  159.3897 C   0  0  0  0  0  0  0  0  0  0  0  0
  152.1624  142.2656  158.2577 O   0  0  0  0  0  0  0  0  0  0  0  0
  152.0448  141.0155  157.5977 C   0  0  0  0  0  0  0  0  0  0  0  0
  151.3384  141.2160  156.2472 C   0  0  0  0  0  0  0  0  0  0  0  0
  151.0750  139.9390  155.5746 N   0  0  0  0  0  0  0  0  0  0  0  0
  149.7296  139.6446  155.4350 N   0  0  0  0  0  0  0  0  0  0  0  0
  149.3592  138.5548  154.8444 C   0  0  0  0  0  0  0  0  0  0  0  0
  147.9220  138.2078  154.6690 C   0  0  0  0  0  0  0  0  0  0  0  0
  147.0330  138.7672  155.3133 O   0  0  0  0  0  0  0  0  0  0  0  0
  147.6729  137.2446  153.7633 N   0  0  0  0  0  0  0  0  0  0  0  0
  146.3545  136.7374  153.3854 C   0  0  2  0  0  0  0  0  0  0  0  0
  146.3281  135.1877  153.4411 C   0  0  0  0  0  0  0  0  0  0  0  0
  145.2974  134.4918  152.5277 C   0  0  0  0  0  0  0  0  0  0  0  0
  143.8377  134.9614  152.6933 C   0  0  0  0  0  0  0  0  0  0  0  0
  143.5768  136.4800  152.5531 C   0  0  0  0  0  0  0  0  0  0  0  0
  144.5652  137.1869  151.7399 N   0  0  0  0  0  0  0  0  0  0  0  0
  145.8570  137.3627  152.0672 C   0  0  0  0  0  0  0  0  0  0  0  0
  146.6257  137.9835  151.3340 O   0  0  0  0  0  0  0  0  0  0  0  0
  150.3423  137.6192  154.3246 C   0  0  0  0  0  0  0  0  0  0  0  0
  151.6517  137.9205  154.4671 C   0  0  0  0  0  0  0  0  0  0  0  0
  152.0969  139.1508  155.1239 C   0  0  0  0  0  0  0  0  0  0  0  0
  153.2828  139.4522  155.2556 O   0  0  0  0  0  0  0  0  0  0  0  0
  153.0610  143.1859  159.8623 H   0  0  0  0  0  0  0  0  0  0  0  0
  154.0246  141.9157  159.1073 H   0  0  0  0  0  0  0  0  0  0  0  0
  152.6363  141.4943  160.1271 H   0  0  0  0  0  0  0  0  0  0  0  0
  153.0275  140.5629  157.4559 H   0  0  0  0  0  0  0  0  0  0  0  0
  151.4602  140.3324  158.2155 H   0  0  0  0  0  0  0  0  0  0  0  0
  150.4028  141.7570  156.3986 H   0  0  0  0  0  0  0  0  0  0  0  0
  151.9447  141.8625  155.6102 H   0  0  0  0  0  0  0  0  0  0  0  0
  148.4624  136.8421  153.2781 H   0  0  0  0  0  0  0  0  0  0  0  0
  145.6654  137.1023  154.1482 H   0  0  0  0  0  0  0  0  0  0  0  0
  147.3125  134.8005  153.1744 H   0  0  0  0  0  0  0  0  0  0  0  0
  146.1615  134.8754  154.4727 H   0  0  0  0  0  0  0  0  0  0  0  0
  145.5982  134.6121  151.4861 H   0  0  0  0  0  0  0  0  0  0  0  0
  145.3406  133.4176  152.7098 H   0  0  0  0  0  0  0  0  0  0  0  0
  143.2394  134.4401  151.9451 H   0  0  0  0  0  0  0  0  0  0  0  0
  143.4538  134.6258  153.6572 H   0  0  0  0  0  0  0  0  0  0  0  0
  142.5920  136.6406  152.1138 H   0  0  0  0  0  0  0  0  0  0  0  0
  143.5286  136.9432  153.5391 H   0  0  0  0  0  0  0  0  0  0  0  0
  144.2413  137.5850  150.8703 H   0  0  0  0  0  0  0  0  0  0  0  0
  150.0417  136.7043  153.8351 H   0  0  0  0  0  0  0  0  0  0  0  0
  152.3937  137.2347  154.0852 H   0  0  0  0  0  0  0  0  0  0  0  0
  1  2  1  0  0  0  0
  1 23  1  0  0  0  0
  1 24  1  0  0  0  0
  1 25  1  0  0  0  0
  2  3  1  0  0  0  0
  3  4  1  0  0  0  0
  3 26  1  0  0  0  0
  3 27  1  0  0  0  0
  4  5  1  0  0  0  0
  4 28  1  0  0  0  0
  4 29  1  0  0  0  0
  5 21  1  0  0  0  0
  5  6  1  0  0  0  0
  6  7  2  0  0  0  0
  7  8  1  0  0  0  0
  7 19  1  0  0  0  0
  8  9  2  0  0  0  0
  8 10  1  0  0  0  0
 10 11  1  0  0  0  0
 10 30  1  0  0  0  0
 11 17  1  0  0  0  0
 11 12  1  0  0  0  0
 11 31  1  0  0  0  0
 12 13  1  0  0  0  0
 12 32  1  0  0  0  0
 12 33  1  0  0  0  0
 13 14  1  0  0  0  0
 13 34  1  0  0  0  0
 13 35  1  0  0  0  0
 14 15  1  0  0  0  0
 14 36  1  0  0  0  0
 14 37  1  0  0  0  0
 15 16  1  0  0  0  0
 15 38  1  0  0  0  0
 15 39  1  0  0  0  0
 16 17  1  0  0  0  0
 16 40  1  0  0  0  0
 17 18  2  0  0  0  0
 19 20  2  0  0  0  0
 19 41  1  0  0  0  0
 20 21  1  0  0  0  0
 20 42  1  0  0  0  0
 21 22  2  0  0  0  0
M  END
> <s_m_source_file>
AV-unprocessed.smi

> <i_m_source_file_index>
1957

> <i_lp_mmshare_version>
43012

> <i_f3d_flags>
0

> <s_epik_input>
W0NIM11PW0NIMl1bQ0gyXW4xbmMoW2NIXVtjSF1jMT1PKUMoPU8pW05IXVtDQEBIXTJbQ0gyXVtDSDJdW0NIMl1bQ0gyXVtOSF1DMj1P

> <s_epik_cmdline>
J2VwaWtfcHl0aG9uJywgJy1waCcsICc3LjAnLCAnLXRuJywgJzgnLCAnLW1hJywgJzIwMCcsICctbWV0YWxfYmluZGluZycsICctaW1hZScsICc8aW5maWxlLm1hZT4nLCAnLW9tYWUnLCAnPG91dGZpbGUubWFlPic=

> <r_lp_tautomer_probability>
1

> <r_epik_Ionization_Penalty>
2.17512e-06

> <r_epik_Ionization_Penalty_Charging>
5.0222e-09

> <r_epik_Ionization_Penalty_Neutral>
2.1701e-06

> <r_epik_State_Penalty>
-0

> <r_epik_Charging_Adjusted_Penalty>
5.0222e-09

> <i_epik_Tot_Q>
0

> <i_epik_Tot_abs_Q>
0

> <r_epik_Metal_State_Penalty>
-0

> <b_epik_Metal_Only>
0

> <s_lp_Force_Field>
OPLS_2005

> <r_lp_Energy>
35.215

> <b_lp_Chiralities_Consistent>
1

> <s_lp_Variant>
AV-unprocessed.smi:1957-1

> <Gold.Version>
5.8.1

> <Gold.Id.Protein>
6NUR|6NUR_protein|mol2

> <Gold.PLP.Fitness>
41.9994

> <Gold.PLP.PLP>
-31.1868

> <Gold.PLP.part.hbond>
-3.6813

> <Gold.PLP.part.metal>
0.0000

> <Gold.PLP.part.buried>
-3.1447

> <Gold.PLP.part.nonpolar>
-27.3315

> <Gold.PLP.part.repulsive>
2.2967

> <Gold.PLP.ligand.clash>
0.0000

> <Gold.PLP.ligand.torsion>
0.3733

> <Gold.PLP.Chemscore.Hbond>
3.8305

> <Gold.PLP.Chemscore.CHOScore>
0.0000

> <Gold.PLP.Chemscore.Metal>
0.0000

> <Gold.Chemscore.Hbonds>
donor molecule, donor type, donor heavy atom, donor atom, acceptor molecule, acceptor atom, score
      L1  H    10    30       P1  7948  0.90
      L1  H    16    40       P1 10171  0.93
      P1  H  7954  7966       L1    18  0.80
      P1  H  7997  8009       L1    22  0.99

> <Gold.PLP.Chemscore.Internal.Correction>
0.0677

> <Gold.Rescore>
     Score         DG    S(hbond)    S(metal)    S(lipo)     H(rot)  DE(clash)    DE(int)     intcor
     17.86     -20.23       3.68        0.00      60.01       1.78       1.96       0.40       ----

> <Gold.Chemscore.Fitness>
17.8641

> <Gold.Chemscore.DG>
-20.2301

> <Gold.Chemscore.ZeroCoef>
-5.4800

> <Gold.Chemscore.Hbond>
3.6776

> <Gold.Chemscore.Metal>
0.0000

> <Gold.Chemscore.Lipo>
60.0099

> <Gold.Chemscore.Internal_Hbond>
0.0000

> <Gold.Chemscore.DEClash>
1.9620

> <Gold.Chemscore.DEInternal>
0.4039

> <Gold.Chemscore.Rot>
1.7791

> <Gold.Chemscore.Internal.Correction>
   9.000000E+99

> <Gold.Chemscore.Hbonds>
donor molecule, donor type, donor heavy atom, donor atom, acceptor molecule, acceptor atom, score
      L1  H    10    30       P1  7948  0.87
      L1  H    16    40       P1 10171  0.88
      P1  H  7954  7966       L1    18  0.79
      P1  H  7997  8009       L1    22  0.92

> <Gold.Chemscore.Hbond.Weighted>
-12.2833

> <Gold.Chemscore.Metal.Weighted>
-0.0000

> <Gold.Chemscore.Lipo.Weighted>
-7.0212

> <Gold.Chemscore.Internal_Hbond.Weighted>
0.0000

> <Gold.Chemscore.DEClash.Weighted>
1.9620

> <Gold.Chemscore.DEInternal.Weighted>
0.4039

> <Gold.Chemscore.Rot.Weighted>
4.5544

> <Gold.Chemscore.Internal.Correction.Weighted>
   9.000000E+99

> <Gold.Protein.RotatedTorsions>
[ 6907 6896 6895 6894 ] final   10.79 input  -60.11 | X-H torsion
[ 7974 7965 7964 7962 ] final  -81.11 input  175.53 | X-H torsion
[ 8008 7997 7996 7995 ] final -131.14 input   59.86 | X-H torsion
[ 10167 10162 10161 10158 ] final   83.66 input  -65.29 | X-H torsion
[ 10718 10713 10712 10709 ] final -125.37 input   66.30 | X-H torsion
[ 10763 10752 10751 10750 ] final  -43.31 input  -60.55 | X-H torsion
[ 11005 11000 10999 10996 ] final  -29.06 input  -57.11 | X-H torsion

> <Gold.Protein.ActiveResidues>
 VAL166  LYS551  ARG553  GLY616  TRP617  ASP618  TYR619  PRO620  LYS621  CYS622 
 ASP623  PHE694  ASN695  SER759  ASP760  ASP761  ALA762  ILE779  LEU786  VAL792 
 PHE793  MET794  SER795  GLU796  ALA797  LYS798  CYS799  TRP800  GLU811  SER814 

> <Gold.Protein.RotatedAtoms>
  151.7439  135.0848  160.0319 H   0  0  0  0  0  0  0  0  0  0  0  0  # atno 6907 bound_to 6896
  152.3461  133.6120  159.5920 H   0  0  0  0  0  0  0  0  0  0  0  0  # atno 6908 bound_to 6896
  150.7510  133.9562  159.3543 H   0  0  0  0  0  0  0  0  0  0  0  0  # atno 6909 bound_to 6896
  145.5510  140.9496  143.1499 H   0  0  0  0  0  0  0  0  0  0  0  0  # atno 7974 bound_to 7965
  155.3074  140.0455  157.3033 H   0  0  0  0  0  0  0  0  0  0  0  0  # atno 8008 bound_to 7997
  154.5452  140.2300  155.8541 H   0  0  0  0  0  0  0  0  0  0  0  0  # atno 8009 bound_to 7997
  156.1918  140.3048  155.9354 H   0  0  0  0  0  0  0  0  0  0  0  0  # atno 8010 bound_to 7997
  139.9161  144.6242  150.8488 H   0  0  0  0  0  0  0  0  0  0  0  0  # atno 10167 bound_to 10162
  156.1669  130.6641  151.0127 H   0  0  0  0  0  0  0  0  0  0  0  0  # atno 10718 bound_to 10713
  153.9934  135.6702  153.4755 H   0  0  0  0  0  0  0  0  0  0  0  0  # atno 10763 bound_to 10752
  153.0695  135.4982  154.8269 H   0  0  0  0  0  0  0  0  0  0  0  0  # atno 10764 bound_to 10752
  154.7096  135.3094  154.9181 H   0  0  0  0  0  0  0  0  0  0  0  0  # atno 10765 bound_to 10752
  140.9263  133.7366  156.0872 H   0  0  0  0  0  0  0  0  0  0  0  0  # atno 11005 bound_to 11000
  144.7529  139.7147  143.7266 LP  0  0  0  0  0  0  0  0  0  0  0  0  # atno 17320 bound_to 7965
  146.1917  139.5160  142.9801 LP  0  0  0  0  0  0  0  0  0  0  0  0  # atno 17321 bound_to 7965
  140.7674  143.3330  151.2368 LP  0  0  0  0  0  0  0  0  0  0  0  0  # atno 17342 bound_to 10162
  139.6901  143.9706  152.2855 LP  0  0  0  0  0  0  0  0  0  0  0  0  # atno 17343 bound_to 10162
  157.6774  131.0847  150.7458 LP  0  0  0  0  0  0  0  0  0  0  0  0  # atno 17370 bound_to 10713
  156.7519  130.4771  149.5455 LP  0  0  0  0  0  0  0  0  0  0  0  0  # atno 17371 bound_to 10713
  140.7922  134.3605  157.5461 LP  0  0  0  0  0  0  0  0  0  0  0  0  # atno 17394 bound_to 11000
  139.8786  134.9147  156.3113 LP  0  0  0  0  0  0  0  0  0  0  0  0  # atno 17395 bound_to 11000

$$$$
