AV-unprocessed.smi:2658|AV-procd|sdf|10309|dock2
  -GOLD-   2272014323D 1   1.00000     0.00000
 Structure written by MMmdl.
 46 48  0  0  0  0  0  0  0  0  1 V2000
  152.7392  143.4152  161.2461 C   0  0  0  0  0  0  0  0  0  0  0  0
  152.2048  142.8842  159.9275 C   0  0  0  0  0  0  0  0  0  0  0  0
  152.6887  141.6503  159.4378 C   0  0  0  0  0  0  0  0  0  0  0  0
  152.2140  141.1183  158.2192 C   0  0  0  0  0  0  0  0  0  0  0  0
  152.5420  139.9440  157.5637 N   0  0  0  0  0  0  0  0  0  0  0  0
  151.7623  140.0114  156.4886 C   0  0  0  0  0  0  0  0  0  0  0  0
  150.9673  141.0923  156.3697 N   0  0  0  0  0  0  0  0  0  0  0  0
  150.0331  141.3790  155.2959 C   0  0  0  0  0  0  0  0  0  0  0  0
  149.0473  140.2219  155.0411 C   0  0  1  0  0  0  0  0  0  0  0  0
  148.3098  139.9503  156.2168 O   0  0  0  0  0  0  0  0  0  0  0  0
  148.0586  140.5391  153.9098 C   0  0  0  0  0  0  0  0  0  0  0  0
  147.8254  141.9444  153.8758 O   0  0  0  0  0  0  0  0  0  0  0  0
  146.5924  142.4158  154.2767 C   0  0  0  0  0  0  0  0  0  0  0  0
  146.0984  143.6030  153.7037 C   0  0  0  0  0  0  0  0  0  0  0  0
  144.8411  144.0665  154.1345 C   0  0  0  0  0  0  0  0  0  0  0  0
  144.2441  145.3377  153.5605 C   0  0  0  0  0  0  0  0  0  0  0  0
  144.1730  143.2991  155.1149 C   0  0  0  0  0  0  0  0  0  0  0  0
  142.8154  143.7051  155.6579 C   0  0  0  0  0  0  0  0  0  0  0  0
  144.6992  142.1624  155.6272 N   0  0  0  0  0  0  0  0  0  0  0  0
  145.8927  141.7245  155.2133 N   0  0  0  0  0  0  0  0  0  0  0  0
  151.2335  141.8603  157.4977 C   0  0  0  0  0  0  0  0  0  0  0  0
  150.7469  143.0913  157.9721 C   0  0  0  0  0  0  0  0  0  0  0  0
  151.2325  143.6085  159.1918 C   0  0  0  0  0  0  0  0  0  0  0  0
  150.7017  144.9384  159.6969 C   0  0  0  0  0  0  0  0  0  0  0  0
  153.4746  142.7371  161.6799 H   0  0  0  0  0  0  0  0  0  0  0  0
  151.9295  143.5336  161.9663 H   0  0  0  0  0  0  0  0  0  0  0  0
  153.2202  144.3829  161.1024 H   0  0  0  0  0  0  0  0  0  0  0  0
  153.4296  141.0984  159.9972 H   0  0  0  0  0  0  0  0  0  0  0  0
  151.7689  139.2293  155.7435 H   0  0  0  0  0  0  0  0  0  0  0  0
  149.4921  142.2942  155.5409 H   0  0  0  0  0  0  0  0  0  0  0  0
  150.6084  141.5907  154.3939 H   0  0  0  0  0  0  0  0  0  0  0  0
  149.6017  139.3174  154.7875 H   0  0  0  0  0  0  0  0  0  0  0  0
  147.4429  139.6679  155.9689 H   0  0  0  0  0  0  0  0  0  0  0  0
  148.4764  140.2238  152.9519 H   0  0  0  0  0  0  0  0  0  0  0  0
  147.1285  139.9891  154.0663 H   0  0  0  0  0  0  0  0  0  0  0  0
  146.6694  144.1367  152.9581 H   0  0  0  0  0  0  0  0  0  0  0  0
  143.2728  145.1334  153.1090 H   0  0  0  0  0  0  0  0  0  0  0  0
  144.8898  145.7643  152.7923 H   0  0  0  0  0  0  0  0  0  0  0  0
  144.1114  146.0839  154.3444 H   0  0  0  0  0  0  0  0  0  0  0  0
  142.8631  144.7020  156.0960 H   0  0  0  0  0  0  0  0  0  0  0  0
  142.4712  143.0156  156.4301 H   0  0  0  0  0  0  0  0  0  0  0  0
  142.0740  143.7132  154.8588 H   0  0  0  0  0  0  0  0  0  0  0  0
  150.0056  143.6311  157.4014 H   0  0  0  0  0  0  0  0  0  0  0  0
  149.9546  145.3527  159.0194 H   0  0  0  0  0  0  0  0  0  0  0  0
  151.5114  145.6630  159.7863 H   0  0  0  0  0  0  0  0  0  0  0  0
  150.2353  144.8172  160.6749 H   0  0  0  0  0  0  0  0  0  0  0  0
  1  2  1  0  0  0  0
  1 25  1  0  0  0  0
  1 26  1  0  0  0  0
  1 27  1  0  0  0  0
  2 23  1  0  0  0  0
  2  3  2  0  0  0  0
  3  4  1  0  0  0  0
  3 28  1  0  0  0  0
  4 21  2  0  0  0  0
  4  5  1  0  0  0  0
  5  6  2  0  0  0  0
  6  7  1  0  0  0  0
  6 29  1  0  0  0  0
  7  8  1  0  0  0  0
  7 21  1  0  0  0  0
  8  9  1  0  0  0  0
  8 30  1  0  0  0  0
  8 31  1  0  0  0  0
  9 10  1  0  0  0  0
  9 11  1  0  0  0  0
  9 32  1  0  0  0  0
 10 33  1  0  0  0  0
 11 12  1  0  0  0  0
 11 34  1  0  0  0  0
 11 35  1  0  0  0  0
 12 13  1  0  0  0  0
 13 20  1  0  0  0  0
 13 14  2  0  0  0  0
 14 15  1  0  0  0  0
 14 36  1  0  0  0  0
 15 16  1  0  0  0  0
 15 17  2  0  0  0  0
 16 37  1  0  0  0  0
 16 38  1  0  0  0  0
 16 39  1  0  0  0  0
 17 18  1  0  0  0  0
 17 19  1  0  0  0  0
 18 40  1  0  0  0  0
 18 41  1  0  0  0  0
 18 42  1  0  0  0  0
 19 20  2  0  0  0  0
 21 22  1  0  0  0  0
 22 23  2  0  0  0  0
 22 43  1  0  0  0  0
 23 24  1  0  0  0  0
 24 44  1  0  0  0  0
 24 45  1  0  0  0  0
 24 46  1  0  0  0  0
M  END
> <s_m_source_file>
AV-unprocessed.smi

> <i_m_source_file_index>
2658

> <i_lp_mmshare_version>
43012

> <i_f3d_flags>
0

> <s_epik_input>
W0NIM11jKFtjSF0xKWMoW0NIM10pW2NIXWMoYzEyKW4oW2NIXW4yKVtDSDJdW0NASF0oW09IXSlbQ0gyXU9jM1tjSF1jKFtDSDNdKWMoW0NIM10pbm4z

> <s_epik_cmdline>
J2VwaWtfcHl0aG9uJywgJy1waCcsICc3LjAnLCAnLXRuJywgJzgnLCAnLW1hJywgJzIwMCcsICctbWV0YWxfYmluZGluZycsICctaW1hZScsICc8aW5maWxlLm1hZT4nLCAnLW9tYWUnLCAnPG91dGZpbGUubWFlPic=

> <r_lp_tautomer_probability>
1

> <r_epik_Ionization_Penalty>
0.110663

> <r_epik_Ionization_Penalty_Charging>
0

> <r_epik_Ionization_Penalty_Neutral>
0.110663

> <r_epik_State_Penalty>
0.100267

> <r_epik_Charging_Adjusted_Penalty>
0.100267

> <i_epik_Tot_Q>
0

> <i_epik_Tot_abs_Q>
0

> <r_epik_Metal_State_Penalty>
0.0843924

> <b_epik_Metal_Only>
0

> <s_lp_Force_Field>
OPLS_2005

> <r_lp_Energy>
13.1317

> <b_lp_Chiralities_Consistent>
1

> <s_lp_Variant>
AV-unprocessed.smi:2658-2

> <Gold.Version>
5.8.1

> <Gold.Id.Protein>
6NUR|6NUR_protein|mol2

> <Gold.PLP.Fitness>
48.3479

> <Gold.PLP.PLP>
-47.5236

> <Gold.PLP.part.hbond>
-1.3332

> <Gold.PLP.part.metal>
0.0000

> <Gold.PLP.part.buried>
-5.9656

> <Gold.PLP.part.nonpolar>
-40.9987

> <Gold.PLP.part.repulsive>
0.3987

> <Gold.PLP.ligand.clash>
0.0000

> <Gold.PLP.ligand.torsion>
1.1516

> <Gold.PLP.Chemscore.Hbond>
1.0000

> <Gold.PLP.Chemscore.CHOScore>
0.0000

> <Gold.PLP.Chemscore.Metal>
0.0000

> <Gold.Chemscore.Hbonds>
donor molecule, donor type, donor heavy atom, donor atom, acceptor molecule, acceptor atom, score
      P1  H  7997  8008       L1     5  0.88

> <Gold.PLP.Chemscore.Internal.Correction>
0.1274

> <Gold.Rescore>
     Score         DG    S(hbond)    S(metal)    S(lipo)     H(rot)  DE(clash)    DE(int)     intcor
     14.76     -16.41       0.79        0.00     123.49       2.40       0.53       1.12       ----

> <Gold.Chemscore.Fitness>
14.7609

> <Gold.Chemscore.DG>
-16.4127

> <Gold.Chemscore.ZeroCoef>
-5.4800

> <Gold.Chemscore.Hbond>
0.7856

> <Gold.Chemscore.Metal>
0.0000

> <Gold.Chemscore.Lipo>
123.4900

> <Gold.Chemscore.Internal_Hbond>
0.0000

> <Gold.Chemscore.DEClash>
0.5336

> <Gold.Chemscore.DEInternal>
1.1182

> <Gold.Chemscore.Rot>
2.3983

> <Gold.Chemscore.Internal.Correction>
   9.000000E+99

> <Gold.Chemscore.Hbonds>
donor molecule, donor type, donor heavy atom, donor atom, acceptor molecule, acceptor atom, score
      P1  H  7997  8008       L1     5  0.15

> <Gold.Chemscore.Hbond.Weighted>
-2.6240

> <Gold.Chemscore.Metal.Weighted>
-0.0000

> <Gold.Chemscore.Lipo.Weighted>
-14.4483

> <Gold.Chemscore.Internal_Hbond.Weighted>
0.0000

> <Gold.Chemscore.DEClash.Weighted>
0.5336

> <Gold.Chemscore.DEInternal.Weighted>
1.1182

> <Gold.Chemscore.Rot.Weighted>
6.1397

> <Gold.Chemscore.Internal.Correction.Weighted>
   9.000000E+99

> <Gold.Protein.RotatedTorsions>
[ 6907 6896 6895 6894 ] final   71.56 input  -60.11 | X-H torsion
[ 7974 7965 7964 7962 ] final   97.61 input  175.53 | X-H torsion
[ 8008 7997 7996 7995 ] final  -59.03 input   59.86 | X-H torsion
[ 10167 10162 10161 10158 ] final -151.52 input  -65.29 | X-H torsion
[ 10718 10713 10712 10709 ] final  -71.06 input   66.30 | X-H torsion
[ 10763 10752 10751 10750 ] final   89.37 input  -60.55 | X-H torsion
[ 11005 11000 10999 10996 ] final  162.01 input  -57.11 | X-H torsion

> <Gold.Protein.ActiveResidues>
 VAL166  LYS551  ARG553  GLY616  TRP617  ASP618  TYR619  PRO620  LYS621  CYS622 
 ASP623  PHE694  ASN695  SER759  ASP760  ASP761  ALA762  ILE779  LEU786  VAL792 
 PHE793  MET794  SER795  GLU796  ALA797  LYS798  CYS799  TRP800  GLU811  SER814 

> <Gold.Protein.RotatedAtoms>
  152.4817  134.4702  159.9632 H   0  0  0  0  0  0  0  0  0  0  0  0  # atno 6907 bound_to 6896
  151.4706  133.3564  159.2831 H   0  0  0  0  0  0  0  0  0  0  0  0  # atno 6908 bound_to 6896
  150.8895  134.8322  159.7344 H   0  0  0  0  0  0  0  0  0  0  0  0  # atno 6909 bound_to 6896
  145.4232  139.2319  143.3185 H   0  0  0  0  0  0  0  0  0  0  0  0  # atno 7974 bound_to 7965
  154.4334  140.1071  156.6051 H   0  0  0  0  0  0  0  0  0  0  0  0  # atno 8008 bound_to 7997
  155.5869  140.3491  155.4537 H   0  0  0  0  0  0  0  0  0  0  0  0  # atno 8009 bound_to 7997
  156.0276  140.1253  157.0282 H   0  0  0  0  0  0  0  0  0  0  0  0  # atno 8010 bound_to 7997
  139.7260  143.8882  152.2519 H   0  0  0  0  0  0  0  0  0  0  0  0  # atno 10167 bound_to 10162
  156.0379  130.4344  150.2388 H   0  0  0  0  0  0  0  0  0  0  0  0  # atno 10718 bound_to 10713
  153.1864  135.4473  155.0094 H   0  0  0  0  0  0  0  0  0  0  0  0  # atno 10763 bound_to 10752
  154.8063  135.3276  154.7425 H   0  0  0  0  0  0  0  0  0  0  0  0  # atno 10764 bound_to 10752
  153.7884  135.6972  153.4931 H   0  0  0  0  0  0  0  0  0  0  0  0  # atno 10765 bound_to 10752
  140.2215  134.8193  157.3225 H   0  0  0  0  0  0  0  0  0  0  0  0  # atno 11005 bound_to 11000
  146.2646  140.4959  142.8839 LP  0  0  0  0  0  0  0  0  0  0  0  0  # atno 17320 bound_to 7965
  144.8231  140.6584  143.6339 LP  0  0  0  0  0  0  0  0  0  0  0  0  # atno 17321 bound_to 7965
  139.8791  144.7027  150.8898 LP  0  0  0  0  0  0  0  0  0  0  0  0  # atno 17342 bound_to 10162
  140.7763  143.3675  151.1711 LP  0  0  0  0  0  0  0  0  0  0  0  0  # atno 17343 bound_to 10162
  157.0486  131.0056  151.3261 LP  0  0  0  0  0  0  0  0  0  0  0  0  # atno 17370 bound_to 10713
  157.5157  130.7966  149.7753 LP  0  0  0  0  0  0  0  0  0  0  0  0  # atno 17371 bound_to 10713
  140.1845  134.4448  155.7752 LP  0  0  0  0  0  0  0  0  0  0  0  0  # atno 17394 bound_to 11000
  141.2223  133.6999  156.7924 LP  0  0  0  0  0  0  0  0  0  0  0  0  # atno 17395 bound_to 11000

$$$$
