AV-unprocessed.smi:3007|AV-procd|sdf|11446|dock3
  -GOLD-   2272016373D 1   1.00000     0.00000
 Structure written by MMmdl.
 39 40  0  0  0  0  0  0  0  0  1 V2000
  152.2090  144.0741  161.6167 C   0  0  0  0  0  0  0  0  0  0  0  0
  152.0732  144.7269  160.2393 C   0  0  0  0  0  0  0  0  0  0  0  0
  151.6764  145.8913  160.1884 O   0  0  0  0  0  0  0  0  0  0  0  0
  152.3897  144.0124  159.1327 N   0  0  0  0  0  0  0  0  0  0  0  0
  152.8109  142.6076  159.1890 C   0  0  0  0  0  0  0  0  0  0  0  0
  151.6940  141.7281  158.5993 C   0  0  0  0  0  0  0  0  0  0  0  0
  151.3372  142.1652  157.1630 C   0  0  0  0  0  0  0  0  0  0  0  0
  150.1627  141.4307  156.7054 N   0  0  0  0  0  0  0  0  0  0  0  0
  150.1236  140.6117  155.6421 C   0  0  0  0  0  0  0  0  0  0  0  0
  151.1064  140.3785  154.9371 O   0  0  0  0  0  0  0  0  0  0  0  0
  148.7632  139.9630  155.3380 C   0  0  2  0  0  0  0  0  0  0  0  0
  148.8589  138.8190  154.3079 C   0  0  0  0  0  0  0  0  0  0  0  0
  147.7927  140.9775  154.9422 N   0  0  0  0  0  0  0  0  0  0  0  0
  147.7082  141.6467  153.7376 C   0  0  0  0  0  0  0  0  0  0  0  0
  146.6254  142.4758  153.8030 C   0  0  0  0  0  0  0  0  0  0  0  0
  146.0934  142.2344  155.0999 C   0  0  0  0  0  0  0  0  0  0  0  0
  146.7878  141.3342  155.7760 N   0  0  0  0  0  0  0  0  0  0  0  0
  151.0897  143.6892  157.0843 C   0  0  0  0  0  0  0  0  0  0  0  0
  152.2343  144.4759  157.7479 C   0  0  0  0  0  0  0  0  0  0  0  0
  153.2371  143.7580  161.7960 H   0  0  0  0  0  0  0  0  0  0  0  0
  151.5508  143.2092  161.7011 H   0  0  0  0  0  0  0  0  0  0  0  0
  151.9351  144.7776  162.4038 H   0  0  0  0  0  0  0  0  0  0  0  0
  153.7295  142.4823  158.6140 H   0  0  0  0  0  0  0  0  0  0  0  0
  153.0478  142.2766  160.2011 H   0  0  0  0  0  0  0  0  0  0  0  0
  152.0012  140.6818  158.6074 H   0  0  0  0  0  0  0  0  0  0  0  0
  150.8120  141.7964  159.2384 H   0  0  0  0  0  0  0  0  0  0  0  0
  152.1868  141.9194  156.5228 H   0  0  0  0  0  0  0  0  0  0  0  0
  149.3100  141.5661  157.2286 H   0  0  0  0  0  0  0  0  0  0  0  0
  148.4051  139.5242  156.2708 H   0  0  0  0  0  0  0  0  0  0  0  0
  149.5351  138.0360  154.6523 H   0  0  0  0  0  0  0  0  0  0  0  0
  149.2219  139.1671  153.3400 H   0  0  0  0  0  0  0  0  0  0  0  0
  147.8835  138.3592  154.1477 H   0  0  0  0  0  0  0  0  0  0  0  0
  148.4188  141.4794  152.9416 H   0  0  0  0  0  0  0  0  0  0  0  0
  146.2655  143.1486  153.0388 H   0  0  0  0  0  0  0  0  0  0  0  0
  145.2273  142.6808  155.5657 H   0  0  0  0  0  0  0  0  0  0  0  0
  150.9817  143.9999  156.0445 H   0  0  0  0  0  0  0  0  0  0  0  0
  150.1499  143.9381  157.5797 H   0  0  0  0  0  0  0  0  0  0  0  0
  152.0449  145.5447  157.6626 H   0  0  0  0  0  0  0  0  0  0  0  0
  153.1658  144.3031  157.2069 H   0  0  0  0  0  0  0  0  0  0  0  0
  1  2  1  0  0  0  0
  1 20  1  0  0  0  0
  1 21  1  0  0  0  0
  1 22  1  0  0  0  0
  2  3  2  0  0  0  0
  2  4  1  0  0  0  0
  4 19  1  0  0  0  0
  4  5  1  0  0  0  0
  5  6  1  0  0  0  0
  5 23  1  0  0  0  0
  5 24  1  0  0  0  0
  6  7  1  0  0  0  0
  6 25  1  0  0  0  0
  6 26  1  0  0  0  0
  7  8  1  0  0  0  0
  7 18  1  0  0  0  0
  7 27  1  0  0  0  0
  8  9  1  0  0  0  0
  8 28  1  0  0  0  0
  9 10  2  0  0  0  0
  9 11  1  0  0  0  0
 11 12  1  0  0  0  0
 11 13  1  0  0  0  0
 11 29  1  0  0  0  0
 12 30  1  0  0  0  0
 12 31  1  0  0  0  0
 12 32  1  0  0  0  0
 13 17  1  0  0  0  0
 13 14  1  0  0  0  0
 14 15  2  0  0  0  0
 14 33  1  0  0  0  0
 15 16  1  0  0  0  0
 15 34  1  0  0  0  0
 16 17  2  0  0  0  0
 16 35  1  0  0  0  0
 18 19  1  0  0  0  0
 18 36  1  0  0  0  0
 18 37  1  0  0  0  0
 19 38  1  0  0  0  0
 19 39  1  0  0  0  0
M  END
> <s_m_source_file>
AV-unprocessed.smi

> <i_m_source_file_index>
3007

> <i_lp_mmshare_version>
43012

> <i_f3d_flags>
0

> <s_epik_input>
W0NIM11DKD1PKU4xW0NIMl1bQ0gyXVtDSF0oW0NIMl1bQ0gyXTEpW05IXUMoPU8pW0NASF0oW0NIM10pbjJbY0hdW2NIXVtjSF1uMg==

> <s_epik_cmdline>
J2VwaWtfcHl0aG9uJywgJy1waCcsICc3LjAnLCAnLXRuJywgJzgnLCAnLW1hJywgJzIwMCcsICctbWV0YWxfYmluZGluZycsICctaW1hZScsICc8aW5maWxlLm1hZT4nLCAnLW9tYWUnLCAnPG91dGZpbGUubWFlPic=

> <r_lp_tautomer_probability>
1

> <r_epik_Ionization_Penalty>
4.2887e-05

> <r_epik_Ionization_Penalty_Charging>
0

> <r_epik_Ionization_Penalty_Neutral>
4.2887e-05

> <r_epik_State_Penalty>
-0

> <r_epik_Charging_Adjusted_Penalty>
0

> <i_epik_Tot_Q>
0

> <i_epik_Tot_abs_Q>
0

> <r_epik_Metal_State_Penalty>
-0

> <b_epik_Metal_Only>
0

> <s_lp_Force_Field>
OPLS_2005

> <r_lp_Energy>
25.1722

> <b_lp_Chiralities_Consistent>
1

> <s_lp_Variant>
AV-unprocessed.smi:3007-1

> <Gold.Version>
5.8.1

> <Gold.Id.Protein>
6NUR|6NUR_protein|mol2

> <Gold.PLP.Fitness>
48.2728

> <Gold.PLP.PLP>
-42.9399

> <Gold.PLP.part.hbond>
-1.7223

> <Gold.PLP.part.metal>
0.0000

> <Gold.PLP.part.buried>
-4.8904

> <Gold.PLP.part.nonpolar>
-36.2896

> <Gold.PLP.part.repulsive>
0.3817

> <Gold.PLP.ligand.clash>
0.0000

> <Gold.PLP.ligand.torsion>
0.3816

> <Gold.PLP.Chemscore.Hbond>
1.0000

> <Gold.PLP.Chemscore.CHOScore>
0.9947

> <Gold.PLP.Chemscore.Metal>
0.0000

> <Gold.Chemscore.Hbonds>
donor molecule, donor type, donor heavy atom, donor atom, acceptor molecule, acceptor atom, score
      P1  H  7989  7998       L1    10  1.00
      L1  C    14    33       P1  7957  0.91

> <Gold.PLP.Chemscore.Internal.Correction>
0.1119

> <Gold.Rescore>
     Score         DG    S(hbond)    S(metal)    S(lipo)     H(rot)  DE(clash)    DE(int)     intcor
     14.65     -15.84       0.97        0.00      92.79       1.46       0.87       0.32       ----

> <Gold.Chemscore.Fitness>
14.6519

> <Gold.Chemscore.DG>
-15.8401

> <Gold.Chemscore.ZeroCoef>
-5.4800

> <Gold.Chemscore.Hbond>
0.9693

> <Gold.Chemscore.Metal>
0.0000

> <Gold.Chemscore.Lipo>
92.7863

> <Gold.Chemscore.Internal_Hbond>
0.0000

> <Gold.Chemscore.DEClash>
0.8673

> <Gold.Chemscore.DEInternal>
0.3210

> <Gold.Chemscore.Rot>
1.4583

> <Gold.Chemscore.Internal.Correction>
   9.000000E+99

> <Gold.Chemscore.Hbonds>
donor molecule, donor type, donor heavy atom, donor atom, acceptor molecule, acceptor atom, score
      P1  H  7989  7998       L1    10  0.97

> <Gold.Chemscore.Hbond.Weighted>
-3.2373

> <Gold.Chemscore.Metal.Weighted>
-0.0000

> <Gold.Chemscore.Lipo.Weighted>
-10.8560

> <Gold.Chemscore.Internal_Hbond.Weighted>
0.0000

> <Gold.Chemscore.DEClash.Weighted>
0.8673

> <Gold.Chemscore.DEInternal.Weighted>
0.3210

> <Gold.Chemscore.Rot.Weighted>
3.7332

> <Gold.Chemscore.Internal.Correction.Weighted>
   9.000000E+99

> <Gold.Protein.RotatedTorsions>
[ 6907 6896 6895 6894 ] final  126.97 input  -60.11 | X-H torsion
[ 7974 7965 7964 7962 ] final  162.97 input  175.53 | X-H torsion
[ 8008 7997 7996 7995 ] final -174.64 input   59.86 | X-H torsion
[ 10167 10162 10161 10158 ] final   87.15 input  -65.29 | X-H torsion
[ 10718 10713 10712 10709 ] final  107.33 input   66.30 | X-H torsion
[ 10763 10752 10751 10750 ] final  -99.89 input  -60.55 | X-H torsion
[ 11005 11000 10999 10996 ] final  110.94 input  -57.11 | X-H torsion

> <Gold.Protein.ActiveResidues>
 VAL166  LYS551  ARG553  GLY616  TRP617  ASP618  TYR619  PRO620  LYS621  CYS622 
 ASP623  PHE694  ASN695  SER759  ASP760  ASP761  ALA762  ILE779  LEU786  VAL792 
 PHE793  MET794  SER795  GLU796  ALA797  LYS798  CYS799  TRP800  GLU811  SER814 

> <Gold.Protein.RotatedAtoms>
  152.3855  133.6605  159.6195 H   0  0  0  0  0  0  0  0  0  0  0  0  # atno 6907 bound_to 6896
  150.7775  133.9042  159.3359 H   0  0  0  0  0  0  0  0  0  0  0  0  # atno 6908 bound_to 6896
  151.6839  135.0959  160.0272 H   0  0  0  0  0  0  0  0  0  0  0  0  # atno 6909 bound_to 6896
  144.7611  139.8116  143.6332 H   0  0  0  0  0  0  0  0  0  0  0  0  # atno 7974 bound_to 7965
  155.9727  140.1166  157.0798 H   0  0  0  0  0  0  0  0  0  0  0  0  # atno 8008 bound_to 7997
  154.4160  140.1160  156.5395 H   0  0  0  0  0  0  0  0  0  0  0  0  # atno 8009 bound_to 7997
  155.6576  140.3473  155.4773 H   0  0  0  0  0  0  0  0  0  0  0  0  # atno 8010 bound_to 7997
  139.8803  144.6443  150.8850 H   0  0  0  0  0  0  0  0  0  0  0  0  # atno 10167 bound_to 10162
  157.6632  131.0870  150.6140 H   0  0  0  0  0  0  0  0  0  0  0  0  # atno 10718 bound_to 10713
  154.7535  135.4955  153.9332 H   0  0  0  0  0  0  0  0  0  0  0  0  # atno 10763 bound_to 10752
  153.1170  135.6723  153.9409 H   0  0  0  0  0  0  0  0  0  0  0  0  # atno 10764 bound_to 10752
  153.9152  135.3094  155.3427 H   0  0  0  0  0  0  0  0  0  0  0  0  # atno 10765 bound_to 10752
  139.8892  134.9496  156.6355 H   0  0  0  0  0  0  0  0  0  0  0  0  # atno 11005 bound_to 11000
  146.1675  139.4812  142.9949 LP  0  0  0  0  0  0  0  0  0  0  0  0  # atno 17320 bound_to 7965
  145.6616  141.0239  143.1706 LP  0  0  0  0  0  0  0  0  0  0  0  0  # atno 17321 bound_to 7965
  140.7745  143.3591  151.1863 LP  0  0  0  0  0  0  0  0  0  0  0  0  # atno 17342 bound_to 10162
  139.7202  143.9236  152.2982 LP  0  0  0  0  0  0  0  0  0  0  0  0  # atno 17343 bound_to 10162
  156.6442  130.4467  149.5741 LP  0  0  0  0  0  0  0  0  0  0  0  0  # atno 17370 bound_to 10713
  156.2186  130.6723  151.1345 LP  0  0  0  0  0  0  0  0  0  0  0  0  # atno 17371 bound_to 10713
  140.7634  133.8799  155.8435 LP  0  0  0  0  0  0  0  0  0  0  0  0  # atno 17394 bound_to 11000
  140.9903  134.1287  157.4414 LP  0  0  0  0  0  0  0  0  0  0  0  0  # atno 17395 bound_to 11000

$$$$
