AV-unprocessed.smi:1066|AV-procd|sdf|4668|dock9
  -GOLD-   22720 3183D 1   1.00000     0.00000
 Structure written by MMmdl.
 38 40  0  0  0  0  0  0  0  0  2 V2000
  150.4914  135.2541  156.2381 C   0  0  0  0  0  0  0  0  0  0  0  0
  150.7666  136.3895  157.1816 C   0  0  0  0  0  0  0  0  0  0  0  0
  150.6254  136.2028  158.4874 N   0  0  0  0  0  0  0  0  0  0  0  0
  150.9451  137.4212  159.0972 O   0  0  0  0  0  0  0  0  0  0  0  0
  151.2684  138.2858  158.1084 C   0  0  0  0  0  0  0  0  0  0  0  0
  151.7160  139.9162  158.4219 Cl  0  0  0  0  0  0  0  0  0  0  0  0
  151.1816  137.7174  156.8700 C   0  0  0  0  0  0  0  0  0  0  0  0
  151.4465  138.3206  155.5139 C   0  0  0  0  0  0  0  0  0  0  0  0
  150.5061  139.5035  155.2844 C   0  0  0  0  0  0  0  0  0  0  0  0
  150.9563  140.6468  155.2181 O   0  0  0  0  0  0  0  0  0  0  0  0
  149.2019  139.2151  155.1590 N   0  0  0  0  0  0  0  0  0  0  0  0
  148.1528  140.1938  154.9026 C   0  0  2  0  0  0  0  0  0  0  0  0
  148.3199  140.9767  153.6046 C   0  0  0  0  0  0  0  0  0  0  0  0
  147.4641  142.2250  153.8535 C   0  0  0  0  0  0  0  0  0  0  0  0
  147.4290  142.4367  155.3229 N   0  3  1  0  0  0  0  0  0  0  0  0
  146.0644  142.6374  155.8576 C   0  0  0  0  0  0  0  0  0  0  0  0
  144.9885  141.9673  155.0369 C   0  0  0  0  0  0  0  0  0  0  0  0
  145.1795  143.4666  154.9579 C   0  0  0  0  0  0  0  0  0  0  0  0
  148.1461  141.3052  155.9502 C   0  0  0  0  0  0  0  0  0  0  0  0
  150.0146  135.6099  155.3246 H   0  0  0  0  0  0  0  0  0  0  0  0
  149.8305  134.5104  156.6847 H   0  0  0  0  0  0  0  0  0  0  0  0
  151.4160  134.7509  155.9555 H   0  0  0  0  0  0  0  0  0  0  0  0
  152.4784  138.6605  155.4198 H   0  0  0  0  0  0  0  0  0  0  0  0
  151.2979  137.5876  154.7200 H   0  0  0  0  0  0  0  0  0  0  0  0
  148.9225  138.2469  155.2289 H   0  0  0  0  0  0  0  0  0  0  0  0
  147.1778  139.7014  154.9076 H   0  0  0  0  0  0  0  0  0  0  0  0
  149.3640  141.2625  153.4656 H   0  0  0  0  0  0  0  0  0  0  0  0
  148.0035  140.4158  152.7246 H   0  0  0  0  0  0  0  0  0  0  0  0
  147.8643  143.1012  153.3428 H   0  0  0  0  0  0  0  0  0  0  0  0
  146.4557  142.0568  153.4718 H   0  0  0  0  0  0  0  0  0  0  0  0
  145.9728  142.7096  156.9401 H   0  0  0  0  0  0  0  0  0  0  0  0
  145.2900  141.3767  154.1738 H   0  0  0  0  0  0  0  0  0  0  0  0
  144.1088  141.6040  155.5642 H   0  0  0  0  0  0  0  0  0  0  0  0
  144.4237  144.0899  155.4315 H   0  0  0  0  0  0  0  0  0  0  0  0
  145.6107  143.8720  154.0443 H   0  0  0  0  0  0  0  0  0  0  0  0
  147.6978  140.9873  156.8930 H   0  0  0  0  0  0  0  0  0  0  0  0
  149.1648  141.6319  156.1648 H   0  0  0  0  0  0  0  0  0  0  0  0
  147.9552  143.2737  155.5294 H   0  0  0  0  0  0  0  0  0  0  0  0
  1  2  1  0  0  0  0
  1 20  1  0  0  0  0
  1 21  1  0  0  0  0
  1 22  1  0  0  0  0
  2  7  1  0  0  0  0
  2  3  2  0  0  0  0
  3  4  1  0  0  0  0
  4  5  1  0  0  0  0
  5  6  1  0  0  0  0
  5  7  2  0  0  0  0
  7  8  1  0  0  0  0
  8  9  1  0  0  0  0
  8 23  1  0  0  0  0
  8 24  1  0  0  0  0
  9 10  2  0  0  0  0
  9 11  1  0  0  0  0
 11 12  1  0  0  0  0
 11 25  1  0  0  0  0
 12 19  1  0  0  0  0
 12 13  1  0  0  0  0
 12 26  1  0  0  0  0
 13 14  1  0  0  0  0
 13 27  1  0  0  0  0
 13 28  1  0  0  0  0
 14 15  1  0  0  0  0
 14 29  1  0  0  0  0
 14 30  1  0  0  0  0
 15 16  1  0  0  0  0
 15 19  1  0  0  0  0
 15 38  1  0  0  0  0
 16 18  1  0  0  0  0
 16 17  1  0  0  0  0
 16 31  1  0  0  0  0
 17 18  1  0  0  0  0
 17 32  1  0  0  0  0
 17 33  1  0  0  0  0
 18 34  1  0  0  0  0
 18 35  1  0  0  0  0
 19 36  1  0  0  0  0
 19 37  1  0  0  0  0
M  CHG  1  15   1
M  END
> <s_m_source_file>
AV-unprocessed.smi

> <i_m_source_file_index>
1066

> <i_lp_mmshare_version>
43012

> <i_f3d_flags>
0

> <s_epik_input>
W0NIM11jMW5vYyhDbCljMVtDSDJdQyg9TylbTkhdW0NAQEhdMltDSDJdW0NIMl1OKFtDSDJdMilbQ0hdM1tDSDJdW0NIMl0z

> <s_epik_cmdline>
J2VwaWtfcHl0aG9uJywgJy1waCcsICc3LjAnLCAnLXRuJywgJzgnLCAnLW1hJywgJzIwMCcsICctbWV0YWxfYmluZGluZycsICctaW1hZScsICc8aW5maWxlLm1hZT4nLCAnLW9tYWUnLCAnPG91dGZpbGUubWFlPic=

> <r_epik_Ionization_Penalty>
0.00108138

> <r_epik_Ionization_Penalty_Charging>
0.00108128

> <r_epik_Ionization_Penalty_Neutral>
9.66632e-08

> <r_epik_State_Penalty>
0.000708577

> <r_epik_Charging_Adjusted_Penalty>
0.00178986

> <i_epik_Tot_Q>
1

> <i_epik_Tot_abs_Q>
1

> <r_epik_Metal_State_Penalty>
-0

> <b_epik_Metal_Only>
0

> <s_lp_Force_Field>
OPLS_2005

> <r_lp_Energy>
31.6954

> <b_lp_Chiralities_Consistent>
1

> <s_lp_Variant>
AV-unprocessed.smi:1066-1

> <Gold.Version>
5.8.1

> <Gold.Id.Protein>
6NUR|6NUR_protein|mol2

> <Gold.PLP.Fitness>
34.8959

> <Gold.PLP.PLP>
-24.2676

> <Gold.PLP.part.hbond>
-3.0000

> <Gold.PLP.part.metal>
0.0000

> <Gold.PLP.part.buried>
-2.5554

> <Gold.PLP.part.nonpolar>
-19.3052

> <Gold.PLP.part.repulsive>
0.1759

> <Gold.PLP.ligand.clash>
0.0000

> <Gold.PLP.ligand.torsion>
0.6961

> <Gold.PLP.Chemscore.Hbond>
3.5840

> <Gold.PLP.Chemscore.CHOScore>
0.0000

> <Gold.PLP.Chemscore.Metal>
0.0000

> <Gold.Chemscore.Hbonds>
donor molecule, donor type, donor heavy atom, donor atom, acceptor molecule, acceptor atom, score
      L1  H    15    38       P1  8028  2.00
      P1  H  6896  6908       L1     3  0.39
      P1  H  7989  7998       L1    10  0.90

> <Gold.PLP.Chemscore.Internal.Correction>
1.2685

> <Gold.Rescore>
     Score         DG    S(hbond)    S(metal)    S(lipo)     H(rot)  DE(clash)    DE(int)     intcor
     15.80     -17.68       2.80        0.00      58.59       1.57       0.01       1.87       ----

> <Gold.Chemscore.Fitness>
15.7957

> <Gold.Chemscore.DG>
-17.6792

> <Gold.Chemscore.ZeroCoef>
-5.4800

> <Gold.Chemscore.Hbond>
2.8044

> <Gold.Chemscore.Metal>
0.0000

> <Gold.Chemscore.Lipo>
58.5872

> <Gold.Chemscore.Internal_Hbond>
0.0000

> <Gold.Chemscore.DEClash>
0.0106

> <Gold.Chemscore.DEInternal>
1.8729

> <Gold.Chemscore.Rot>
1.5711

> <Gold.Chemscore.Internal.Correction>
   9.000000E+99

> <Gold.Chemscore.Hbonds>
donor molecule, donor type, donor heavy atom, donor atom, acceptor molecule, acceptor atom, score
      L1  H    15    38       P1  8028  0.60
      P1  H  6896  6908       L1     3  0.04
      P1  H  7989  7998       L1    10  0.57

> <Gold.Chemscore.Hbond.Weighted>
-9.3666

> <Gold.Chemscore.Metal.Weighted>
-0.0000

> <Gold.Chemscore.Lipo.Weighted>
-6.8547

> <Gold.Chemscore.Internal_Hbond.Weighted>
0.0000

> <Gold.Chemscore.DEClash.Weighted>
0.0106

> <Gold.Chemscore.DEInternal.Weighted>
1.8729

> <Gold.Chemscore.Rot.Weighted>
4.0221

> <Gold.Chemscore.Internal.Correction.Weighted>
   9.000000E+99

> <Gold.Protein.RotatedTorsions>
[ 6907 6896 6895 6894 ] final -131.75 input  -60.11 | X-H torsion
[ 7974 7965 7964 7962 ] final  123.92 input  175.53 | X-H torsion
[ 8008 7997 7996 7995 ] final  -98.18 input   59.86 | X-H torsion
[ 10167 10162 10161 10158 ] final  -69.70 input  -65.29 | X-H torsion
[ 10718 10713 10712 10709 ] final  -39.54 input   66.30 | X-H torsion
[ 10763 10752 10751 10750 ] final  157.87 input  -60.55 | X-H torsion
[ 11005 11000 10999 10996 ] final -136.24 input  -57.11 | X-H torsion

> <Gold.Protein.ActiveResidues>
 VAL166  LYS551  ARG553  GLY616  TRP617  ASP618  TYR619  PRO620  LYS621  CYS622 
 ASP623  PHE694  ASN695  SER759  ASP760  ASP761  ALA762  ILE779  LEU786  VAL792 
 PHE793  MET794  SER795  GLU796  ALA797  LYS798  CYS799  TRP800  GLU811  SER814 

> <Gold.Protein.RotatedAtoms>
  150.9545  133.6513  159.2765 H   0  0  0  0  0  0  0  0  0  0  0  0  # atno 6907 bound_to 6896
  151.3857  135.0946  159.9520 H   0  0  0  0  0  0  0  0  0  0  0  0  # atno 6908 bound_to 6896
  152.5123  133.9070  159.7524 H   0  0  0  0  0  0  0  0  0  0  0  0  # atno 6909 bound_to 6896
  145.0904  139.3591  143.4864 H   0  0  0  0  0  0  0  0  0  0  0  0  # atno 7974 bound_to 7965
  154.7977  140.0457  157.1249 H   0  0  0  0  0  0  0  0  0  0  0  0  # atno 8008 bound_to 7997
  154.9515  140.3066  155.5053 H   0  0  0  0  0  0  0  0  0  0  0  0  # atno 8009 bound_to 7997
  156.2958  140.2287  156.4593 H   0  0  0  0  0  0  0  0  0  0  0  0  # atno 8010 bound_to 7997
  140.5410  143.2315  151.7089 H   0  0  0  0  0  0  0  0  0  0  0  0  # atno 10167 bound_to 10162
  156.2913  130.4228  149.8235 H   0  0  0  0  0  0  0  0  0  0  0  0  # atno 10718 bound_to 10713
  154.2071  135.2787  155.2971 H   0  0  0  0  0  0  0  0  0  0  0  0  # atno 10763 bound_to 10752
  154.5808  135.5590  153.7187 H   0  0  0  0  0  0  0  0  0  0  0  0  # atno 10764 bound_to 10752
  153.0073  135.6344  154.2210 H   0  0  0  0  0  0  0  0  0  0  0  0  # atno 10765 bound_to 10752
  140.8824  134.1915  157.4582 H   0  0  0  0  0  0  0  0  0  0  0  0  # atno 11005 bound_to 11000
  146.3531  140.0735  142.8622 LP  0  0  0  0  0  0  0  0  0  0  0  0  # atno 17320 bound_to 7965
  145.1073  140.9383  143.4677 LP  0  0  0  0  0  0  0  0  0  0  0  0  # atno 17321 bound_to 7965
  139.4989  144.3968  152.0223 LP  0  0  0  0  0  0  0  0  0  0  0  0  # atno 17342 bound_to 10162
  140.3077  144.3574  150.6042 LP  0  0  0  0  0  0  0  0  0  0  0  0  # atno 17343 bound_to 10162
  156.5647  130.8399  151.3339 LP  0  0  0  0  0  0  0  0  0  0  0  0  # atno 17370 bound_to 10713
  157.7343  130.9744  150.2023 LP  0  0  0  0  0  0  0  0  0  0  0  0  # atno 17371 bound_to 10713
  139.8721  134.9823  156.5150 LP  0  0  0  0  0  0  0  0  0  0  0  0  # atno 17394 bound_to 11000
  140.8446  133.8179  155.9108 LP  0  0  0  0  0  0  0  0  0  0  0  0  # atno 17395 bound_to 11000

$$$$
