AV-unprocessed.smi:3043|AV-procd|sdf|11603|dock9
  -GOLD-   2272016583D 1   1.00000     0.00000
 Structure written by MMmdl.
 44 45  0  0  0  0  0  0  0  0  2 V2000
  150.6198  141.3098  156.4675 C   0  0  0  0  0  0  0  0  0  0  0  0
  151.5909  140.1379  156.3076 C   0  0  0  0  0  0  0  0  0  0  0  0
  152.5427  140.0663  157.0848 O   0  0  0  0  0  0  0  0  0  0  0  0
  151.3736  139.2245  155.3307 N   0  0  0  0  0  0  0  0  0  0  0  0
  152.2163  138.0357  155.1550 C   0  0  0  0  0  0  0  0  0  0  0  0
  151.4016  136.7870  155.5380 C   0  0  0  0  0  0  0  0  0  0  0  0
  150.1016  136.6859  154.7094 C   0  0  0  0  0  0  0  0  0  0  0  0
  149.2499  135.4837  155.1560 C   0  0  0  0  0  0  0  0  0  0  0  0
  148.1378  135.2294  154.2148 N   0  3  0  0  0  0  0  0  0  0  0  0
  147.6492  133.8332  154.1683 C   0  0  2  0  0  0  0  0  0  0  0  0
  148.2630  133.0749  152.9749 C   0  0  0  0  0  0  0  0  0  0  0  0
  146.1068  133.8398  154.1392 C   0  0  0  0  0  0  0  0  0  0  0  0
  145.5639  134.2301  152.8500 N   0  0  0  0  0  0  0  0  0  0  0  0
  146.0092  135.2177  151.9968 C   0  0  0  0  0  0  0  0  0  0  0  0
  145.1840  135.2166  150.9088 C   0  0  0  0  0  0  0  0  0  0  0  0
  144.2546  134.1764  151.1901 C   0  0  0  0  0  0  0  0  0  0  0  0
  144.4859  133.5869  152.3522 N   0  0  0  0  0  0  0  0  0  0  0  0
  149.3194  138.0194  154.7709 C   0  0  0  0  0  0  0  0  0  0  0  0
  150.2241  139.2136  154.4174 C   0  0  0  0  0  0  0  0  0  0  0  0
  149.6055  140.9520  156.6466 H   0  0  0  0  0  0  0  0  0  0  0  0
  150.6235  141.9398  155.5776 H   0  0  0  0  0  0  0  0  0  0  0  0
  150.9062  141.9316  157.3163 H   0  0  0  0  0  0  0  0  0  0  0  0
  152.5385  137.9712  154.1147 H   0  0  0  0  0  0  0  0  0  0  0  0
  153.1322  138.0750  155.7463 H   0  0  0  0  0  0  0  0  0  0  0  0
  152.0103  135.8940  155.3917 H   0  0  0  0  0  0  0  0  0  0  0  0
  151.1614  136.8254  156.6017 H   0  0  0  0  0  0  0  0  0  0  0  0
  150.3963  136.5207  153.6714 H   0  0  0  0  0  0  0  0  0  0  0  0
  149.8805  134.5966  155.2123 H   0  0  0  0  0  0  0  0  0  0  0  0
  148.8527  135.6547  156.1577 H   0  0  0  0  0  0  0  0  0  0  0  0
  147.3663  135.8136  154.5040 H   0  0  0  0  0  0  0  0  0  0  0  0
  147.9585  133.3369  155.0895 H   0  0  0  0  0  0  0  0  0  0  0  0
  147.9498  132.0308  152.9607 H   0  0  0  0  0  0  0  0  0  0  0  0
  149.3519  133.0722  153.0100 H   0  0  0  0  0  0  0  0  0  0  0  0
  147.9625  133.5225  152.0270 H   0  0  0  0  0  0  0  0  0  0  0  0
  145.7226  132.8469  154.3773 H   0  0  0  0  0  0  0  0  0  0  0  0
  145.7161  134.5135  154.9042 H   0  0  0  0  0  0  0  0  0  0  0  0
  146.8651  135.8333  152.2324 H   0  0  0  0  0  0  0  0  0  0  0  0
  145.2366  135.8598  150.0428 H   0  0  0  0  0  0  0  0  0  0  0  0
  143.4250  133.8344  150.5889 H   0  0  0  0  0  0  0  0  0  0  0  0
  148.4702  137.9935  154.0876 H   0  0  0  0  0  0  0  0  0  0  0  0
  148.9075  138.1631  155.7711 H   0  0  0  0  0  0  0  0  0  0  0  0
  149.6437  140.1348  154.4344 H   0  0  0  0  0  0  0  0  0  0  0  0
  150.5837  139.1176  153.3919 H   0  0  0  0  0  0  0  0  0  0  0  0
  148.4170  135.5070  153.2846 H   0  0  0  0  0  0  0  0  0  0  0  0
  1  2  1  0  0  0  0
  1 20  1  0  0  0  0
  1 21  1  0  0  0  0
  1 22  1  0  0  0  0
  2  3  2  0  0  0  0
  2  4  1  0  0  0  0
  4 19  1  0  0  0  0
  4  5  1  0  0  0  0
  5  6  1  0  0  0  0
  5 23  1  0  0  0  0
  5 24  1  0  0  0  0
  6  7  1  0  0  0  0
  6 25  1  0  0  0  0
  6 26  1  0  0  0  0
  7  8  1  0  0  0  0
  7 18  1  0  0  0  0
  7 27  1  0  0  0  0
  8  9  1  0  0  0  0
  8 28  1  0  0  0  0
  8 29  1  0  0  0  0
  9 10  1  0  0  0  0
  9 30  1  0  0  0  0
  9 44  1  0  0  0  0
 10 11  1  0  0  0  0
 10 12  1  0  0  0  0
 10 31  1  0  0  0  0
 11 32  1  0  0  0  0
 11 33  1  0  0  0  0
 11 34  1  0  0  0  0
 12 13  1  0  0  0  0
 12 35  1  0  0  0  0
 12 36  1  0  0  0  0
 13 17  1  0  0  0  0
 13 14  1  0  0  0  0
 14 15  2  0  0  0  0
 14 37  1  0  0  0  0
 15 16  1  0  0  0  0
 15 38  1  0  0  0  0
 16 17  2  0  0  0  0
 16 39  1  0  0  0  0
 18 19  1  0  0  0  0
 18 40  1  0  0  0  0
 18 41  1  0  0  0  0
 19 42  1  0  0  0  0
 19 43  1  0  0  0  0
M  CHG  1   9   1
M  END
> <s_m_source_file>
AV-unprocessed.smi

> <i_m_source_file_index>
3043

> <i_lp_mmshare_version>
43012

> <i_f3d_flags>
0

> <s_epik_input>
W0NIM11DKD1PKU4xW0NIMl1bQ0gyXVtDSF0oW0NIMl1bQ0gyXTEpW0NIMl1bTkhdW0NASF0oW0NIM10pW0NIMl1uMltjSF1bY0hdW2NIXW4y

> <s_epik_cmdline>
J2VwaWtfcHl0aG9uJywgJy1waCcsICc3LjAnLCAnLXRuJywgJzgnLCAnLW1hJywgJzIwMCcsICctbWV0YWxfYmluZGluZycsICctaW1hZScsICc8aW5maWxlLm1hZT4nLCAnLW9tYWUnLCAnPG91dGZpbGUubWFlPic=

> <r_lp_tautomer_probability>
1

> <r_epik_Ionization_Penalty>
0.00300549

> <r_epik_Ionization_Penalty_Charging>
0.00299781

> <r_epik_Ionization_Penalty_Neutral>
7.6831e-06

> <r_epik_State_Penalty>
0.00210473

> <r_epik_Charging_Adjusted_Penalty>
0.00510254

> <i_epik_Tot_Q>
1

> <i_epik_Tot_abs_Q>
1

> <r_epik_Metal_State_Penalty>
-0

> <b_epik_Metal_Only>
0

> <s_lp_Force_Field>
OPLS_2005

> <r_lp_Energy>
29.3743

> <b_lp_Chiralities_Consistent>
1

> <s_lp_Variant>
AV-unprocessed.smi:3043-1

> <Gold.Version>
5.8.1

> <Gold.Id.Protein>
6NUR|6NUR_protein|mol2

> <Gold.PLP.Fitness>
44.0340

> <Gold.PLP.PLP>
-31.2471

> <Gold.PLP.part.hbond>
-2.0000

> <Gold.PLP.part.metal>
0.0000

> <Gold.PLP.part.buried>
0.4239

> <Gold.PLP.part.nonpolar>
-28.9993

> <Gold.PLP.part.repulsive>
0.1039

> <Gold.PLP.ligand.clash>
0.0000

> <Gold.PLP.ligand.torsion>
1.1285

> <Gold.PLP.Chemscore.Hbond>
3.0000

> <Gold.PLP.Chemscore.CHOScore>
2.0000

> <Gold.PLP.Chemscore.Metal>
0.0000

> <Gold.Chemscore.Hbonds>
donor molecule, donor type, donor heavy atom, donor atom, acceptor molecule, acceptor atom, score
      L1  H     9    44       P1  7948  2.00
      P1  H  7997  8009       L1     3  1.00
      L1  C    14    37       P1  7948  1.00
      L1  C    16    39       P1 10186  0.59

> <Gold.PLP.Chemscore.Internal.Correction>
0.0439

> <Gold.Rescore>
     Score         DG    S(hbond)    S(metal)    S(lipo)     H(rot)  DE(clash)    DE(int)     intcor
     14.15     -15.39       1.96        0.00      66.72       1.74       0.09       1.14       ----

> <Gold.Chemscore.Fitness>
14.1523

> <Gold.Chemscore.DG>
-15.3858

> <Gold.Chemscore.ZeroCoef>
-5.4800

> <Gold.Chemscore.Hbond>
1.9640

> <Gold.Chemscore.Metal>
0.0000

> <Gold.Chemscore.Lipo>
66.7169

> <Gold.Chemscore.Internal_Hbond>
0.0000

> <Gold.Chemscore.DEClash>
0.0898

> <Gold.Chemscore.DEInternal>
1.1437

> <Gold.Chemscore.Rot>
1.7422

> <Gold.Chemscore.Internal.Correction>
   9.000000E+99

> <Gold.Chemscore.Hbonds>
donor molecule, donor type, donor heavy atom, donor atom, acceptor molecule, acceptor atom, score
      L1  H     9    44       P1  7948  0.99
      P1  H  7997  8009       L1     3  0.98

> <Gold.Chemscore.Hbond.Weighted>
-6.5598

> <Gold.Chemscore.Metal.Weighted>
-0.0000

> <Gold.Chemscore.Lipo.Weighted>
-7.8059

> <Gold.Chemscore.Internal_Hbond.Weighted>
0.0000

> <Gold.Chemscore.DEClash.Weighted>
0.0898

> <Gold.Chemscore.DEInternal.Weighted>
1.1437

> <Gold.Chemscore.Rot.Weighted>
4.4600

> <Gold.Chemscore.Internal.Correction.Weighted>
   9.000000E+99

> <Gold.Protein.RotatedTorsions>
[ 6907 6896 6895 6894 ] final  -45.01 input  -60.11 | X-H torsion
[ 7974 7965 7964 7962 ] final  118.21 input  175.53 | X-H torsion
[ 8008 7997 7996 7995 ] final -175.34 input   59.86 | X-H torsion
[ 10167 10162 10161 10158 ] final  127.22 input  -65.29 | X-H torsion
[ 10718 10713 10712 10709 ] final -177.47 input   66.30 | X-H torsion
[ 10763 10752 10751 10750 ] final    5.54 input  -60.55 | X-H torsion
[ 11005 11000 10999 10996 ] final -128.29 input  -57.11 | X-H torsion

> <Gold.Protein.ActiveResidues>
 VAL166  LYS551  ARG553  GLY616  TRP617  ASP618  TYR619  PRO620  LYS621  CYS622 
 ASP623  PHE694  ASN695  SER759  ASP760  ASP761  ALA762  ILE779  LEU786  VAL792 
 PHE793  MET794  SER795  GLU796  ALA797  LYS798  CYS799  TRP800  GLU811  SER814 

> <Gold.Protein.RotatedAtoms>
  150.9266  134.8683  159.7523 H   0  0  0  0  0  0  0  0  0  0  0  0  # atno 6907 bound_to 6896
  152.5018  134.4140  159.9468 H   0  0  0  0  0  0  0  0  0  0  0  0  # atno 6908 bound_to 6896
  151.4170  133.3670  159.2786 H   0  0  0  0  0  0  0  0  0  0  0  0  # atno 6909 bound_to 6896
  145.1579  139.3172  143.4532 H   0  0  0  0  0  0  0  0  0  0  0  0  # atno 7974 bound_to 7965
  155.9814  140.1182  157.0723 H   0  0  0  0  0  0  0  0  0  0  0  0  # atno 8008 bound_to 7997
  154.4184  140.1144  156.5508 H   0  0  0  0  0  0  0  0  0  0  0  0  # atno 8009 bound_to 7997
  155.6466  140.3473  155.4735 H   0  0  0  0  0  0  0  0  0  0  0  0  # atno 8010 bound_to 7997
  139.5589  144.6868  151.4100 H   0  0  0  0  0  0  0  0  0  0  0  0  # atno 10167 bound_to 10162
  156.8300  130.9650  151.3107 H   0  0  0  0  0  0  0  0  0  0  0  0  # atno 10718 bound_to 10713
  153.2582  135.6920  153.7606 H   0  0  0  0  0  0  0  0  0  0  0  0  # atno 10763 bound_to 10752
  153.6675  135.3350  155.3145 H   0  0  0  0  0  0  0  0  0  0  0  0  # atno 10764 bound_to 10752
  154.8420  135.4492  154.1564 H   0  0  0  0  0  0  0  0  0  0  0  0  # atno 10765 bound_to 10752
  140.9529  134.1041  157.4045 H   0  0  0  0  0  0  0  0  0  0  0  0  # atno 11005 bound_to 11000
  146.3486  140.1678  142.8590 LP  0  0  0  0  0  0  0  0  0  0  0  0  # atno 17320 bound_to 7965
  145.0362  140.8909  143.5080 LP  0  0  0  0  0  0  0  0  0  0  0  0  # atno 17321 bound_to 7965
  140.6866  143.7958  150.7195 LP  0  0  0  0  0  0  0  0  0  0  0  0  # atno 17342 bound_to 10162
  140.1428  143.4426  152.2182 LP  0  0  0  0  0  0  0  0  0  0  0  0  # atno 17343 bound_to 10162
  157.6412  130.8807  149.9451 LP  0  0  0  0  0  0  0  0  0  0  0  0  # atno 17370 bound_to 10713
  156.0940  130.3661  150.0342 LP  0  0  0  0  0  0  0  0  0  0  0  0  # atno 17371 bound_to 10713
  139.8853  135.0071  156.6425 LP  0  0  0  0  0  0  0  0  0  0  0  0  # atno 17394 bound_to 11000
  140.7577  133.8843  155.8395 LP  0  0  0  0  0  0  0  0  0  0  0  0  # atno 17395 bound_to 11000

$$$$
