AV-unprocessed.smi:798|AV-procd|sdf|3778|dock9
  -GOLD-   22720 1213D 1   1.00000     0.00000
 Structure written by MMmdl.
 33 35  0  0  0  0  0  0  0  0  2 V2000
  149.8182  137.8796  159.6101 O   0  0  0  0  0  0  0  0  0  0  0  0
  149.4250  136.8846  158.9971 C   0  0  0  0  0  0  0  0  0  0  0  0
  148.9490  135.7429  159.5436 N   0  5  0  0  0  0  0  0  0  0  0  0
  148.1406  135.7977  160.6148 C   0  0  0  0  0  0  0  0  0  0  0  0
  147.7086  136.9601  161.1297 N   0  0  0  0  0  0  0  0  0  0  0  0
  146.8802  136.7950  162.2315 N   0  0  0  0  0  0  0  0  0  0  0  0
  146.7008  135.5050  162.5151 C   0  0  0  0  0  0  0  0  0  0  0  0
  147.5252  134.3756  161.4616 S   0  0  0  0  0  0  0  0  0  0  0  0
  149.4368  136.8750  157.6565 N   0  0  0  0  0  0  0  0  0  0  0  0
  149.8930  137.9615  156.7871 C   0  0  1  0  0  0  0  0  0  0  0  0
  151.3697  137.7420  156.3925 C   0  0  2  0  0  0  0  0  0  0  0  0
  151.9392  139.0541  155.8234 C   0  0  0  0  0  0  0  0  0  0  0  0
  151.2370  139.1566  154.4558 C   0  0  0  0  0  0  0  0  0  0  0  0
  150.3621  137.8873  154.4223 C   0  0  1  0  0  0  0  0  0  0  0  0
  151.2572  136.8840  155.1383 C   0  0  0  0  0  0  0  0  0  0  0  0
  149.1762  138.0527  155.4049 C   0  0  1  0  0  0  0  0  0  0  0  0
  148.0338  137.0401  155.1597 C   0  0  0  0  0  0  0  0  0  0  0  0
  147.5297  137.1690  153.8467 O   0  0  0  0  0  0  0  0  0  0  0  0
  146.0766  135.2171  163.3479 H   0  0  0  0  0  0  0  0  0  0  0  0
  149.1039  136.0388  157.1996 H   0  0  0  0  0  0  0  0  0  0  0  0
  149.7996  138.9061  157.3263 H   0  0  0  0  0  0  0  0  0  0  0  0
  151.9836  137.3179  157.1882 H   0  0  0  0  0  0  0  0  0  0  0  0
  151.7344  139.9119  156.4649 H   0  0  0  0  0  0  0  0  0  0  0  0
  153.0199  138.9842  155.6944 H   0  0  0  0  0  0  0  0  0  0  0  0
  150.6491  140.0698  154.3556 H   0  0  0  0  0  0  0  0  0  0  0  0
  151.9702  139.1426  153.6483 H   0  0  0  0  0  0  0  0  0  0  0  0
  150.0691  137.5989  153.4125 H   0  0  0  0  0  0  0  0  0  0  0  0
  152.2134  136.7223  154.6375 H   0  0  0  0  0  0  0  0  0  0  0  0
  150.7808  135.9184  155.3130 H   0  0  0  0  0  0  0  0  0  0  0  0
  148.7499  139.0512  155.2965 H   0  0  0  0  0  0  0  0  0  0  0  0
  148.3661  136.0138  155.3162 H   0  0  0  0  0  0  0  0  0  0  0  0
  147.2075  137.2228  155.8468 H   0  0  0  0  0  0  0  0  0  0  0  0
  148.2395  137.0237  153.2401 H   0  0  0  0  0  0  0  0  0  0  0  0
  1  2  2  0  0  0  0
  2  3  1  0  0  0  0
  2  9  1  0  0  0  0
  3  4  1  0  0  0  0
  4  8  1  0  0  0  0
  4  5  2  0  0  0  0
  5  6  1  0  0  0  0
  6  7  2  0  0  0  0
  7  8  1  0  0  0  0
  7 19  1  0  0  0  0
  9 10  1  0  0  0  0
  9 20  1  0  0  0  0
 10 16  1  0  0  0  0
 10 11  1  0  0  0  0
 10 21  1  0  0  0  0
 11 15  1  0  0  0  0
 11 12  1  0  0  0  0
 11 22  1  0  0  0  0
 12 13  1  0  0  0  0
 12 23  1  0  0  0  0
 12 24  1  0  0  0  0
 13 14  1  0  0  0  0
 13 25  1  0  0  0  0
 13 26  1  0  0  0  0
 14 15  1  0  0  0  0
 14 16  1  0  0  0  0
 14 27  1  0  0  0  0
 15 28  1  0  0  0  0
 15 29  1  0  0  0  0
 16 17  1  0  0  0  0
 16 30  1  0  0  0  0
 17 18  1  0  0  0  0
 17 31  1  0  0  0  0
 17 32  1  0  0  0  0
 18 33  1  0  0  0  0
M  CHG  1   3  -1
M  END
> <s_m_source_file>
AV-unprocessed.smi

> <i_m_source_file_index>
798

> <i_lp_mmshare_version>
43012

> <i_f3d_flags>
0

> <s_epik_input>
W0NIMl0xW0NIMl1bQ0BASF0oW0NIMl0yKVtDQEBIXShbQ0gyXVtPSF0pW0NAQEhdKFtDQEhdMTIpW05IXUMoPU8pW05IXWMzbm5bY0hdczM=

> <s_epik_cmdline>
J2VwaWtfcHl0aG9uJywgJy1waCcsICc3LjAnLCAnLXRuJywgJzgnLCAnLW1hJywgJzIwMCcsICctbWV0YWxfYmluZGluZycsICctaW1hZScsICc8aW5maWxlLm1hZT4nLCAnLW9tYWUnLCAnPG91dGZpbGUubWFlPic=

> <r_lp_tautomer_probability>
1

> <r_epik_Ionization_Penalty>
4.53732

> <r_epik_Ionization_Penalty_Charging>
4.48632

> <r_epik_Ionization_Penalty_Neutral>
0.0510007

> <r_epik_State_Penalty>
4.48602

> <r_epik_Charging_Adjusted_Penalty>
8.97234

> <i_epik_Tot_Q>
-1

> <i_epik_Tot_abs_Q>
1

> <r_epik_Metal_State_Penalty>
0.812492

> <b_epik_Metal_Only>
1

> <s_lp_Force_Field>
OPLS_2005

> <r_lp_Energy>
47.4454

> <b_lp_Chiralities_Consistent>
1

> <s_lp_Variant>
AV-unprocessed.smi:798-10

> <Gold.Version>
5.8.1

> <Gold.Id.Protein>
6NUR|6NUR_protein|mol2

> <Gold.PLP.Fitness>
36.8926

> <Gold.PLP.PLP>
-24.9321

> <Gold.PLP.part.hbond>
-5.0000

> <Gold.PLP.part.metal>
0.0000

> <Gold.PLP.part.buried>
-1.8941

> <Gold.PLP.part.nonpolar>
-18.9720

> <Gold.PLP.part.repulsive>
0.0494

> <Gold.PLP.ligand.clash>
0.0000

> <Gold.PLP.ligand.torsion>
0.6842

> <Gold.PLP.Chemscore.Hbond>
4.4353

> <Gold.PLP.Chemscore.CHOScore>
0.0000

> <Gold.PLP.Chemscore.Metal>
0.0000

> <Gold.Chemscore.Hbonds>
donor molecule, donor type, donor heavy atom, donor atom, acceptor molecule, acceptor atom, score
      L1  H    18    33       P1  7948  1.00
      P1  H  6896  6907       L1     3  1.76
      P1  H  6931  6943       L1     5  0.95
      P1  H  6934  6947       L1     5  0.40

> <Gold.PLP.Chemscore.Internal.Correction>
0.0230

> <Gold.Rescore>
     Score         DG    S(hbond)    S(metal)    S(lipo)     H(rot)  DE(clash)    DE(int)     intcor
     11.44     -14.14       2.13        0.00      55.30       1.92       0.57       2.13       ----

> <Gold.Chemscore.Fitness>
11.4410

> <Gold.Chemscore.DG>
-14.1404

> <Gold.Chemscore.ZeroCoef>
-5.4800

> <Gold.Chemscore.Hbond>
2.1280

> <Gold.Chemscore.Metal>
0.0000

> <Gold.Chemscore.Lipo>
55.2967

> <Gold.Chemscore.Internal_Hbond>
0.0000

> <Gold.Chemscore.DEClash>
0.5704

> <Gold.Chemscore.DEInternal>
2.1291

> <Gold.Chemscore.Rot>
1.9207

> <Gold.Chemscore.Internal.Correction>
   9.000000E+99

> <Gold.Chemscore.Hbonds>
donor molecule, donor type, donor heavy atom, donor atom, acceptor molecule, acceptor atom, score
      L1  H    18    33       P1  7948  0.97
      P1  H  6896  6907       L1     3  0.19
      P1  H  6931  6943       L1     5  0.19
      P1  H  6934  6947       L1     5  0.03

> <Gold.Chemscore.Hbond.Weighted>
-7.1076

> <Gold.Chemscore.Metal.Weighted>
-0.0000

> <Gold.Chemscore.Lipo.Weighted>
-6.4697

> <Gold.Chemscore.Internal_Hbond.Weighted>
0.0000

> <Gold.Chemscore.DEClash.Weighted>
0.5704

> <Gold.Chemscore.DEInternal.Weighted>
2.1291

> <Gold.Chemscore.Rot.Weighted>
4.9169

> <Gold.Chemscore.Internal.Correction.Weighted>
   9.000000E+99

> <Gold.Protein.RotatedTorsions>
[ 6907 6896 6895 6894 ] final  -65.68 input  -60.11 | X-H torsion
[ 7974 7965 7964 7962 ] final   27.38 input  175.53 | X-H torsion
[ 8008 7997 7996 7995 ] final  169.90 input   59.86 | X-H torsion
[ 10167 10162 10161 10158 ] final  -69.44 input  -65.29 | X-H torsion
[ 10718 10713 10712 10709 ] final    5.87 input   66.30 | X-H torsion
[ 10763 10752 10751 10750 ] final   19.83 input  -60.55 | X-H torsion
[ 11005 11000 10999 10996 ] final   99.87 input  -57.11 | X-H torsion

> <Gold.Protein.ActiveResidues>
 VAL166  LYS551  ARG553  GLY616  TRP617  ASP618  TYR619  PRO620  LYS621  CYS622 
 ASP623  PHE694  ASN695  SER759  ASP760  ASP761  ALA762  ILE779  LEU786  VAL792 
 PHE793  MET794  SER795  GLU796  ALA797  LYS798  CYS799  TRP800  GLU811  SER814 

> <Gold.Protein.RotatedAtoms>
  150.7509  134.6126  159.6093 H   0  0  0  0  0  0  0  0  0  0  0  0  # atno 6907 bound_to 6896
  152.3456  134.7073  160.0260 H   0  0  0  0  0  0  0  0  0  0  0  0  # atno 6908 bound_to 6896
  151.7511  133.3291  159.3428 H   0  0  0  0  0  0  0  0  0  0  0  0  # atno 6909 bound_to 6896
  146.1787  139.7199  142.8916 H   0  0  0  0  0  0  0  0  0  0  0  0  # atno 7974 bound_to 7965
  156.1415  140.1552  156.8914 H   0  0  0  0  0  0  0  0  0  0  0  0  # atno 8008 bound_to 7997
  154.4991  140.0830  156.7798 H   0  0  0  0  0  0  0  0  0  0  0  0  # atno 8009 bound_to 7997
  155.4070  140.3417  155.4263 H   0  0  0  0  0  0  0  0  0  0  0  0  # atno 8010 bound_to 7997
  140.5430  143.2314  151.7054 H   0  0  0  0  0  0  0  0  0  0  0  0  # atno 10167 bound_to 10162
  156.9138  130.5766  149.5647 H   0  0  0  0  0  0  0  0  0  0  0  0  # atno 10718 bound_to 10713
  153.1129  135.6701  153.9469 H   0  0  0  0  0  0  0  0  0  0  0  0  # atno 10763 bound_to 10752
  153.9007  135.3036  155.3450 H   0  0  0  0  0  0  0  0  0  0  0  0  # atno 10764 bound_to 10752
  154.7547  135.5017  153.9431 H   0  0  0  0  0  0  0  0  0  0  0  0  # atno 10765 bound_to 10752
  139.8770  134.9115  156.4671 H   0  0  0  0  0  0  0  0  0  0  0  0  # atno 11005 bound_to 11000
  145.4138  141.0399  143.3002 LP  0  0  0  0  0  0  0  0  0  0  0  0  # atno 17320 bound_to 7965
  144.8279  139.5678  143.6957 LP  0  0  0  0  0  0  0  0  0  0  0  0  # atno 17321 bound_to 7965
  139.4996  144.3939  152.0252 LP  0  0  0  0  0  0  0  0  0  0  0  0  # atno 17342 bound_to 10162
  140.3049  144.3604  150.6050 LP  0  0  0  0  0  0  0  0  0  0  0  0  # atno 17343 bound_to 10162
  156.0523  130.5591  150.9017 LP  0  0  0  0  0  0  0  0  0  0  0  0  # atno 17370 bound_to 10713
  157.5951  131.0943  150.9054 LP  0  0  0  0  0  0  0  0  0  0  0  0  # atno 17371 bound_to 10713
  140.8822  133.7909  155.9479 LP  0  0  0  0  0  0  0  0  0  0  0  0  # atno 17394 bound_to 11000
  140.8842  134.2574  157.5128 LP  0  0  0  0  0  0  0  0  0  0  0  0  # atno 17395 bound_to 11000

$$$$
