AV-unprocessed.smi:21|AV-procd|sdf|137|dock6
  -GOLD-   2262015333D 1   1.00000     0.00000
 Structure written by MMmdl.
 62 65  0  0  0  0  0  0  0  0  2 V2000
  152.9400  130.5805  156.4359 C   0  0  0  0  0  0  0  0  0  0  0  0
  152.6318  131.9604  156.5475 O   0  0  0  0  0  0  0  0  0  0  0  0
  151.2385  132.2343  156.5413 C   0  0  1  0  0  0  0  0  0  0  0  0
  150.9175  133.7207  156.4256 C   0  0  0  0  0  0  0  0  0  0  0  0
  149.4955  133.7436  155.8463 C   0  0  1  0  0  0  0  0  0  0  0  0
  149.1538  135.0489  155.0858 C   0  0  0  0  0  0  0  0  0  0  0  0
  149.0106  136.1990  155.9833 N   0  0  0  0  0  0  0  0  0  0  0  0
  148.4536  135.9632  157.3098 C   0  0  0  0  0  0  0  0  0  0  0  0
  149.6157  137.3887  155.6963 C   0  0  0  0  0  0  0  0  0  0  0  0
  149.9692  137.6349  154.4063 N   0  0  0  0  0  0  0  0  0  0  0  0
  150.5671  138.7774  154.0623 C   0  0  0  0  0  0  0  0  0  0  0  0
  150.9014  139.8060  154.8390 N   0  0  0  0  0  0  0  0  0  0  0  0
  150.5498  139.5826  156.1360 C   0  0  0  0  0  0  0  0  0  0  0  0
  149.9158  138.4122  156.6500 C   0  0  0  0  0  0  0  0  0  0  0  0
  149.7466  138.5504  158.0241 N   0  0  0  0  0  0  0  0  0  0  0  0
  150.2366  139.7266  158.3002 C   0  0  0  0  0  0  0  0  0  0  0  0
  150.7248  140.4257  157.2210 N   0  0  0  0  0  0  0  0  0  0  0  0
  151.3184  141.7557  157.2484 C   0  0  0  0  0  0  0  0  0  0  0  0
  151.5266  142.3377  158.6747 C   0  0  2  0  0  0  0  0  0  0  0  0
  151.2264  143.8541  158.7446 C   0  0  0  0  0  0  0  0  0  0  0  0
  149.9005  144.1293  158.3422 O   0  0  0  0  0  0  0  0  0  0  0  0
  152.9351  142.0167  159.2397 C   0  0  2  0  0  0  0  0  0  0  0  0
  153.2410  140.5336  159.3738 C   0  0  0  0  0  0  0  0  0  0  0  0
  154.4308  140.5341  160.3263 C   0  0  0  0  0  0  0  0  0  0  0  0
  154.2309  141.6504  161.1859 O   0  0  0  0  0  0  0  0  0  0  0  0
  153.1731  142.4624  160.6870 C   0  0  0  0  0  0  0  0  0  0  0  0
  149.3599  132.4782  155.0645 N   0  3  1  0  0  0  0  0  0  0  0  0
  148.9724  132.5837  153.6379 C   0  0  0  0  0  0  0  0  0  0  0  0
  150.5871  131.6774  155.2777 C   0  0  0  0  0  0  0  0  0  0  0  0
  150.7506  131.8065  157.4193 H   0  0  0  0  0  0  0  0  0  0  0  0
  148.7957  133.6382  156.6766 H   0  0  0  0  0  0  0  0  0  0  0  0
  154.0220  130.4515  156.4055 H   0  0  0  0  0  0  0  0  0  0  0  0
  152.5257  130.1554  155.5211 H   0  0  0  0  0  0  0  0  0  0  0  0
  152.5620  130.0147  157.2878 H   0  0  0  0  0  0  0  0  0  0  0  0
  150.9920  134.2485  157.3771 H   0  0  0  0  0  0  0  0  0  0  0  0
  151.6152  134.1863  155.7280 H   0  0  0  0  0  0  0  0  0  0  0  0
  149.8823  135.2376  154.2980 H   0  0  0  0  0  0  0  0  0  0  0  0
  148.1997  134.9320  154.5720 H   0  0  0  0  0  0  0  0  0  0  0  0
  149.2478  135.8638  158.0501 H   0  0  0  0  0  0  0  0  0  0  0  0
  147.8651  135.0459  157.3278 H   0  0  0  0  0  0  0  0  0  0  0  0
  147.7938  136.7798  157.6048 H   0  0  0  0  0  0  0  0  0  0  0  0
  150.8117  138.8827  153.0154 H   0  0  0  0  0  0  0  0  0  0  0  0
  150.2480  140.1221  159.3056 H   0  0  0  0  0  0  0  0  0  0  0  0
  152.2776  141.7010  156.7323 H   0  0  0  0  0  0  0  0  0  0  0  0
  150.7050  142.4217  156.6421 H   0  0  0  0  0  0  0  0  0  0  0  0
  150.8041  141.8418  159.3249 H   0  0  0  0  0  0  0  0  0  0  0  0
  151.3302  144.2243  159.7639 H   0  0  0  0  0  0  0  0  0  0  0  0
  151.9224  144.4276  158.1321 H   0  0  0  0  0  0  0  0  0  0  0  0
  149.8648  144.1179  157.3976 H   0  0  0  0  0  0  0  0  0  0  0  0
  153.6983  142.4819  158.6145 H   0  0  0  0  0  0  0  0  0  0  0  0
  152.3993  140.0114  159.8313 H   0  0  0  0  0  0  0  0  0  0  0  0
  153.4686  140.0404  158.4297 H   0  0  0  0  0  0  0  0  0  0  0  0
  154.5146  139.6044  160.8893 H   0  0  0  0  0  0  0  0  0  0  0  0
  155.3595  140.6822  159.7739 H   0  0  0  0  0  0  0  0  0  0  0  0
  153.4270  143.5196  160.7641 H   0  0  0  0  0  0  0  0  0  0  0  0
  152.2873  142.2818  161.2977 H   0  0  0  0  0  0  0  0  0  0  0  0
  149.7062  133.1506  153.0636 H   0  0  0  0  0  0  0  0  0  0  0  0
  147.9963  133.0561  153.5284 H   0  0  0  0  0  0  0  0  0  0  0  0
  148.8998  131.5887  153.1971 H   0  0  0  0  0  0  0  0  0  0  0  0
  151.2634  131.8173  154.4322 H   0  0  0  0  0  0  0  0  0  0  0  0
  150.3660  130.6125  155.3543 H   0  0  0  0  0  0  0  0  0  0  0  0
  148.6145  131.9685  155.5172 H   0  0  0  0  0  0  0  0  0  0  0  0
  1  2  1  0  0  0  0
  1 32  1  0  0  0  0
  1 33  1  0  0  0  0
  1 34  1  0  0  0  0
  2  3  1  0  0  0  0
  3 30  1  0  0  0  0
  3 29  1  0  0  0  0
  3  4  1  0  0  0  0
  4  5  1  0  0  0  0
  4 35  1  0  0  0  0
  4 36  1  0  0  0  0
  5 31  1  0  0  0  0
  5  6  1  0  0  0  0
  5 27  1  0  0  0  0
  6  7  1  0  0  0  0
  6 37  1  0  0  0  0
  6 38  1  0  0  0  0
  7  8  1  0  0  0  0
  7  9  1  0  0  0  0
  8 39  1  0  0  0  0
  8 40  1  0  0  0  0
  8 41  1  0  0  0  0
  9 14  1  0  0  0  0
  9 10  2  0  0  0  0
 10 11  1  0  0  0  0
 11 12  2  0  0  0  0
 11 42  1  0  0  0  0
 12 13  1  0  0  0  0
 13 17  1  0  0  0  0
 13 14  2  0  0  0  0
 14 15  1  0  0  0  0
 15 16  2  0  0  0  0
 16 17  1  0  0  0  0
 16 43  1  0  0  0  0
 17 18  1  0  0  0  0
 18 19  1  0  0  0  0
 18 44  1  0  0  0  0
 18 45  1  0  0  0  0
 19 20  1  0  0  0  0
 19 22  1  0  0  0  0
 19 46  1  0  0  0  0
 20 21  1  0  0  0  0
 20 47  1  0  0  0  0
 20 48  1  0  0  0  0
 21 49  1  0  0  0  0
 22 26  1  0  0  0  0
 22 23  1  0  0  0  0
 22 50  1  0  0  0  0
 23 24  1  0  0  0  0
 23 51  1  0  0  0  0
 23 52  1  0  0  0  0
 24 25  1  0  0  0  0
 24 53  1  0  0  0  0
 24 54  1  0  0  0  0
 25 26  1  0  0  0  0
 26 55  1  0  0  0  0
 26 56  1  0  0  0  0
 27 28  1  0  0  0  0
 27 29  1  0  0  0  0
 27 62  1  0  0  0  0
 28 57  1  0  0  0  0
 28 58  1  0  0  0  0
 28 59  1  0  0  0  0
 29 60  1  0  0  0  0
 29 61  1  0  0  0  0
M  CHG  1  27   1
M  END
> <s_m_source_file>
AV-unprocessed.smi

> <i_m_source_file_index>
21

> <i_lp_mmshare_version>
43012

> <i_f3d_flags>
0

> <s_epik_input>
W0NIM11PW0NASF0xW0NIMl1bQ0BIXShOKFtDSDNdKVtDSDJdMSlbQ0gyXU4oW0NIM10pYyhuW2NIXW4yKWMoYzIzKW5bY0hdbjNbQ0gyXVtDQEhdKFtDSDJdW09IXSlbQ0BASF00W0NIMl1bQ0gyXU9bQ0gyXTQ=

> <s_epik_cmdline>
J2VwaWtfcHl0aG9uJywgJy1waCcsICc3LjAnLCAnLXRuJywgJzgnLCAnLW1hJywgJzIwMCcsICctbWV0YWxfYmluZGluZycsICctaW1hZScsICc8aW5maWxlLm1hZT4nLCAnLW9tYWUnLCAnPG91dGZpbGUubWFlPic=

> <r_lp_tautomer_probability>
1

> <r_epik_Ionization_Penalty>
0.0157465

> <r_epik_Ionization_Penalty_Charging>
0.015354

> <r_epik_Ionization_Penalty_Neutral>
0.000392529

> <r_epik_State_Penalty>
0.0120612

> <r_epik_Charging_Adjusted_Penalty>
0.0274152

> <i_epik_Tot_Q>
1

> <i_epik_Tot_abs_Q>
1

> <r_epik_Metal_State_Penalty>
0.0121253

> <b_epik_Metal_Only>
0

> <s_lp_Force_Field>
OPLS_2005

> <r_lp_Energy>
60.1072

> <b_lp_Chiralities_Consistent>
1

> <s_lp_Variant>
AV-unprocessed.smi:21-17

> <Gold.Version>
5.8.1

> <Gold.Id.Protein>
6NUR|6NUR_protein|mol2

> <Gold.PLP.Fitness>
49.8682

> <Gold.PLP.PLP>
-43.1634

> <Gold.PLP.part.hbond>
-3.9237

> <Gold.PLP.part.metal>
0.0000

> <Gold.PLP.part.buried>
-6.3282

> <Gold.PLP.part.nonpolar>
-33.6230

> <Gold.PLP.part.repulsive>
0.5877

> <Gold.PLP.ligand.clash>
0.0000

> <Gold.PLP.ligand.torsion>
1.0241

> <Gold.PLP.Chemscore.Hbond>
1.7940

> <Gold.PLP.Chemscore.CHOScore>
0.9814

> <Gold.PLP.Chemscore.Metal>
0.0000

> <Gold.Chemscore.Hbonds>
donor molecule, donor type, donor heavy atom, donor atom, acceptor molecule, acceptor atom, score
      L1  H    21    49       P1  8028  0.87
      P1  H  7989  7998       L1    12  0.85
      L1  C    11    42       P1  7957  1.00

> <Gold.PLP.Chemscore.Internal.Correction>
0.4268

> <Gold.Rescore>
     Score         DG    S(hbond)    S(metal)    S(lipo)     H(rot)  DE(clash)    DE(int)     intcor
     10.06     -12.77       0.99        0.00     101.29       3.08       0.53       2.18       ----

> <Gold.Chemscore.Fitness>
10.0591

> <Gold.Chemscore.DG>
-12.7688

> <Gold.Chemscore.ZeroCoef>
-5.4800

> <Gold.Chemscore.Hbond>
0.9917

> <Gold.Chemscore.Metal>
0.0000

> <Gold.Chemscore.Lipo>
101.2880

> <Gold.Chemscore.Internal_Hbond>
0.0000

> <Gold.Chemscore.DEClash>
0.5289

> <Gold.Chemscore.DEInternal>
2.1807

> <Gold.Chemscore.Rot>
3.0758

> <Gold.Chemscore.Internal.Correction>
   9.000000E+99

> <Gold.Chemscore.Hbonds>
donor molecule, donor type, donor heavy atom, donor atom, acceptor molecule, acceptor atom, score
      L1  H    21    49       P1  8028  0.40
      P1  H  7989  7998       L1    12  0.15

> <Gold.Chemscore.Hbond.Weighted>
-3.3123

> <Gold.Chemscore.Metal.Weighted>
-0.0000

> <Gold.Chemscore.Lipo.Weighted>
-11.8507

> <Gold.Chemscore.Internal_Hbond.Weighted>
0.0000

> <Gold.Chemscore.DEClash.Weighted>
0.5289

> <Gold.Chemscore.DEInternal.Weighted>
2.1807

> <Gold.Chemscore.Rot.Weighted>
7.8741

> <Gold.Chemscore.Internal.Correction.Weighted>
   9.000000E+99

> <Gold.Protein.RotatedTorsions>
[ 6907 6896 6895 6894 ] final   17.07 input  -60.11 | X-H torsion
[ 7974 7965 7964 7962 ] final  108.85 input  175.53 | X-H torsion
[ 8008 7997 7996 7995 ] final  -49.10 input   59.86 | X-H torsion
[ 10167 10162 10161 10158 ] final   80.83 input  -65.29 | X-H torsion
[ 10718 10713 10712 10709 ] final  -74.15 input   66.30 | X-H torsion
[ 10763 10752 10751 10750 ] final   44.96 input  -60.55 | X-H torsion
[ 11005 11000 10999 10996 ] final  -97.94 input  -57.11 | X-H torsion

> <Gold.Protein.ActiveResidues>
 VAL166  LYS551  ARG553  GLY616  TRP617  ASP618  TYR619  PRO620  LYS621  CYS622 
 ASP623  PHE694  ASN695  SER759  ASP760  ASP761  ALA762  ILE779  LEU786  VAL792 
 PHE793  MET794  SER795  GLU796  ALA797  LYS798  CYS799  TRP800  GLU811  SER814 

> <Gold.Protein.RotatedAtoms>
  151.8439  135.0581  160.0450 H   0  0  0  0  0  0  0  0  0  0  0  0  # atno 6907 bound_to 6896
  152.2788  133.5446  159.5493 H   0  0  0  0  0  0  0  0  0  0  0  0  # atno 6908 bound_to 6896
  150.7181  134.0509  159.3840 H   0  0  0  0  0  0  0  0  0  0  0  0  # atno 6909 bound_to 6896
  145.2754  139.2651  143.3944 H   0  0  0  0  0  0  0  0  0  0  0  0  # atno 7974 bound_to 7965
  154.4039  140.1305  156.4447 H   0  0  0  0  0  0  0  0  0  0  0  0  # atno 8008 bound_to 7997
  155.7424  140.3489  155.5091 H   0  0  0  0  0  0  0  0  0  0  0  0  # atno 8009 bound_to 7997
  155.9026  140.1022  157.1329 H   0  0  0  0  0  0  0  0  0  0  0  0  # atno 8010 bound_to 7997
  139.9457  144.6060  150.8209 H   0  0  0  0  0  0  0  0  0  0  0  0  # atno 10167 bound_to 10162
  156.0253  130.4410  150.2849 H   0  0  0  0  0  0  0  0  0  0  0  0  # atno 10718 bound_to 10713
  152.9832  135.6054  154.3359 H   0  0  0  0  0  0  0  0  0  0  0  0  # atno 10763 bound_to 10752
  154.3059  135.2772  155.2591 H   0  0  0  0  0  0  0  0  0  0  0  0  # atno 10764 bound_to 10752
  154.4822  135.5914  153.6454 H   0  0  0  0  0  0  0  0  0  0  0  0  # atno 10765 bound_to 10752
  141.1362  133.8208  157.0773 H   0  0  0  0  0  0  0  0  0  0  0  0  # atno 11005 bound_to 11000
  146.3233  140.3207  142.8633 LP  0  0  0  0  0  0  0  0  0  0  0  0  # atno 17320 bound_to 7965
  144.9299  140.7963  143.5696 LP  0  0  0  0  0  0  0  0  0  0  0  0  # atno 17321 bound_to 7965
  140.7598  143.3137  151.2785 LP  0  0  0  0  0  0  0  0  0  0  0  0  # atno 17342 bound_to 10162
  139.6669  144.0089  152.2728 LP  0  0  0  0  0  0  0  0  0  0  0  0  # atno 17343 bound_to 10162
  157.0953  131.0181  151.3106 LP  0  0  0  0  0  0  0  0  0  0  0  0  # atno 17370 bound_to 10713
  157.4822  130.7772  149.7425 LP  0  0  0  0  0  0  0  0  0  0  0  0  # atno 17371 bound_to 10713
  140.0474  134.9823  157.1073 LP  0  0  0  0  0  0  0  0  0  0  0  0  # atno 17394 bound_to 11000
  140.4042  134.2050  155.7163 LP  0  0  0  0  0  0  0  0  0  0  0  0  # atno 17395 bound_to 11000

$$$$
