AV-unprocessed.smi:1911|AV-procd|sdf|7740|dock2
  -GOLD-   22720 9483D 1   1.00000     0.00000
 Structure written by MMmdl.
 52 54  0  0  0  0  0  0  0  0  2 V2000
  143.1511  132.3963  149.4129 N   0  0  0  0  0  0  0  0  0  0  0  0
  144.3536  132.6582  149.9297 C   0  0  0  0  0  0  0  0  0  0  0  0
  145.3677  132.0681  149.5622 O   0  0  0  0  0  0  0  0  0  0  0  0
  144.4247  133.7541  150.9979 C   0  0  0  0  0  0  0  0  0  0  0  0
  145.3271  133.4053  152.1256 N   0  3  2  0  0  0  0  0  0  0  0  0
  145.1919  134.3249  153.2866 C   0  0  0  0  0  0  0  0  0  0  0  0
  146.0325  133.8385  154.4802 C   0  0  0  0  0  0  0  0  0  0  0  0
  147.5151  133.6450  154.1047 C   0  0  2  0  0  0  0  0  0  0  0  0
  148.1964  134.9217  153.8903 N   0  0  0  0  0  0  0  0  0  0  0  0
  148.4963  135.8098  154.8495 C   0  0  0  0  0  0  0  0  0  0  0  0
  148.1854  135.6606  156.0305 O   0  0  0  0  0  0  0  0  0  0  0  0
  149.1511  136.8686  154.3429 N   0  0  0  0  0  0  0  0  0  0  0  0
  149.7027  137.9842  155.0298 C   0  0  0  0  0  0  0  0  0  0  0  0
  149.5275  138.0529  156.4256 C   0  0  0  0  0  0  0  0  0  0  0  0
  150.0380  139.1580  157.1323 C   0  0  0  0  0  0  0  0  0  0  0  0
  150.7109  140.1777  156.4189 C   0  0  0  0  0  0  0  0  0  0  0  0
  151.2279  141.3100  157.0786 N   0  0  0  0  0  0  0  0  0  0  0  0
  151.0094  142.6664  156.6056 C   0  0  0  0  0  0  0  0  0  0  0  0
  151.6926  143.5526  157.6471 C   0  0  0  0  0  0  0  0  0  0  0  0
  151.5378  142.7550  158.9424 C   0  0  0  0  0  0  0  0  0  0  0  0
  151.5960  141.2924  158.4880 C   0  0  0  0  0  0  0  0  0  0  0  0
  150.8694  140.1193  155.0756 N   0  0  0  0  0  0  0  0  0  0  0  0
  150.3794  139.0574  154.4022 C   0  0  0  0  0  0  0  0  0  0  0  0
  147.6252  132.7581  152.8524 C   0  0  0  0  0  0  0  0  0  0  0  0
  146.7429  133.2698  151.6991 C   0  0  0  0  0  0  0  0  0  0  0  0
  143.0560  131.6854  148.7013 H   0  0  0  0  0  0  0  0  0  0  0  0
  142.3394  132.9092  149.7264 H   0  0  0  0  0  0  0  0  0  0  0  0
  144.7917  134.6509  150.4969 H   0  0  0  0  0  0  0  0  0  0  0  0
  143.4282  133.9913  151.3740 H   0  0  0  0  0  0  0  0  0  0  0  0
  145.4977  135.3309  152.9950 H   0  0  0  0  0  0  0  0  0  0  0  0
  144.1474  134.3918  153.5918 H   0  0  0  0  0  0  0  0  0  0  0  0
  145.9339  134.5329  155.3154 H   0  0  0  0  0  0  0  0  0  0  0  0
  145.6286  132.8882  154.8322 H   0  0  0  0  0  0  0  0  0  0  0  0
  148.0194  133.1300  154.9246 H   0  0  0  0  0  0  0  0  0  0  0  0
  148.4898  135.1301  152.9472 H   0  0  0  0  0  0  0  0  0  0  0  0
  149.2541  136.8891  153.3392 H   0  0  0  0  0  0  0  0  0  0  0  0
  149.0066  137.2678  156.9540 H   0  0  0  0  0  0  0  0  0  0  0  0
  149.9030  139.2078  158.2023 H   0  0  0  0  0  0  0  0  0  0  0  0
  151.4290  142.8225  155.6116 H   0  0  0  0  0  0  0  0  0  0  0  0
  149.9383  142.8684  156.5684 H   0  0  0  0  0  0  0  0  0  0  0  0
  152.7513  143.6559  157.4054 H   0  0  0  0  0  0  0  0  0  0  0  0
  151.2604  144.5516  157.7044 H   0  0  0  0  0  0  0  0  0  0  0  0
  152.2974  142.9974  159.6859 H   0  0  0  0  0  0  0  0  0  0  0  0
  150.5613  142.9627  159.3813 H   0  0  0  0  0  0  0  0  0  0  0  0
  150.9268  140.6699  159.0827 H   0  0  0  0  0  0  0  0  0  0  0  0
  152.6074  140.8962  158.5830 H   0  0  0  0  0  0  0  0  0  0  0  0
  150.5231  139.1004  153.3342 H   0  0  0  0  0  0  0  0  0  0  0  0
  148.6643  132.6880  152.5281 H   0  0  0  0  0  0  0  0  0  0  0  0
  147.3197  131.7423  153.1076 H   0  0  0  0  0  0  0  0  0  0  0  0
  146.8103  132.5706  150.8647 H   0  0  0  0  0  0  0  0  0  0  0  0
  147.1087  134.2314  151.3357 H   0  0  0  0  0  0  0  0  0  0  0  0
  145.0370  132.4896  152.4397 H   0  0  0  0  0  0  0  0  0  0  0  0
  1  2  1  0  0  0  0
  1 26  1  0  0  0  0
  1 27  1  0  0  0  0
  2  3  2  0  0  0  0
  2  4  1  0  0  0  0
  4  5  1  0  0  0  0
  4 28  1  0  0  0  0
  4 29  1  0  0  0  0
  5 25  1  0  0  0  0
  5  6  1  0  0  0  0
  5 52  1  0  0  0  0
  6  7  1  0  0  0  0
  6 30  1  0  0  0  0
  6 31  1  0  0  0  0
  7  8  1  0  0  0  0
  7 32  1  0  0  0  0
  7 33  1  0  0  0  0
  8  9  1  0  0  0  0
  8 24  1  0  0  0  0
  8 34  1  0  0  0  0
  9 10  1  0  0  0  0
  9 35  1  0  0  0  0
 10 11  2  0  0  0  0
 10 12  1  0  0  0  0
 12 13  1  0  0  0  0
 12 36  1  0  0  0  0
 13 23  1  0  0  0  0
 13 14  2  0  0  0  0
 14 15  1  0  0  0  0
 14 37  1  0  0  0  0
 15 16  2  0  0  0  0
 15 38  1  0  0  0  0
 16 17  1  0  0  0  0
 16 22  1  0  0  0  0
 17 21  1  0  0  0  0
 17 18  1  0  0  0  0
 18 19  1  0  0  0  0
 18 39  1  0  0  0  0
 18 40  1  0  0  0  0
 19 20  1  0  0  0  0
 19 41  1  0  0  0  0
 19 42  1  0  0  0  0
 20 21  1  0  0  0  0
 20 43  1  0  0  0  0
 20 44  1  0  0  0  0
 21 45  1  0  0  0  0
 21 46  1  0  0  0  0
 22 23  2  0  0  0  0
 23 47  1  0  0  0  0
 24 25  1  0  0  0  0
 24 48  1  0  0  0  0
 24 49  1  0  0  0  0
 25 50  1  0  0  0  0
 25 51  1  0  0  0  0
M  CHG  1   5   1
M  END
> <s_m_source_file>
AV-unprocessed.smi

> <i_m_source_file_index>
1911

> <i_lp_mmshare_version>
43012

> <i_f3d_flags>
0

> <s_epik_input>
W05IMl1DKD1PKVtDSDJdTjFbQ0gyXVtDSDJdW0NIXShbQ0gyXVtDSDJdMSlbTkhdQyg9TylbTkhdYzJbY0hdW2NIXWMobltjSF0yKU4zW0NIMl1bQ0gyXVtDSDJdW0NIMl0z

> <s_epik_cmdline>
J2VwaWtfcHl0aG9uJywgJy1waCcsICc3LjAnLCAnLXRuJywgJzgnLCAnLW1hJywgJzIwMCcsICctbWV0YWxfYmluZGluZycsICctaW1hZScsICc8aW5maWxlLm1hZT4nLCAnLW9tYWUnLCAnPG91dGZpbGUubWFlPic=

> <r_lp_tautomer_probability>
1

> <r_epik_Ionization_Penalty>
0.91661

> <r_epik_Ionization_Penalty_Charging>
0.838844

> <r_epik_Ionization_Penalty_Neutral>
0.0777665

> <r_epik_State_Penalty>
0.927046

> <r_epik_Charging_Adjusted_Penalty>
1.76589

> <i_epik_Tot_Q>
1

> <i_epik_Tot_abs_Q>
1

> <r_epik_Metal_State_Penalty>
0.950553

> <b_epik_Metal_Only>
0

> <s_lp_Force_Field>
OPLS_2005

> <r_lp_Energy>
39.2928

> <b_lp_Chiralities_Consistent>
1

> <s_lp_Variant>
AV-unprocessed.smi:1911-3

> <Gold.Version>
5.8.1

> <Gold.Id.Protein>
6NUR|6NUR_protein|mol2

> <Gold.PLP.Fitness>
49.0968

> <Gold.PLP.PLP>
-36.8341

> <Gold.PLP.part.hbond>
-4.7236

> <Gold.PLP.part.metal>
0.0000

> <Gold.PLP.part.buried>
-5.7188

> <Gold.PLP.part.nonpolar>
-26.3611

> <Gold.PLP.part.repulsive>
0.3580

> <Gold.PLP.ligand.clash>
0.0000

> <Gold.PLP.ligand.torsion>
0.9477

> <Gold.PLP.Chemscore.Hbond>
3.6500

> <Gold.PLP.Chemscore.CHOScore>
1.0000

> <Gold.PLP.Chemscore.Metal>
0.0000

> <Gold.Chemscore.Hbonds>
donor molecule, donor type, donor heavy atom, donor atom, acceptor molecule, acceptor atom, score
      L1  H     1    27       P1 10186  1.00
      L1  H     9    35       P1  7948  1.00
      L1  H    12    36       P1  7948  1.00
      P1  H  7989  7998       L1    22  0.65
      L1  C    23    47       P1  7957  1.00

> <Gold.PLP.Chemscore.Internal.Correction>
0.2081

> <Gold.Rescore>
     Score         DG    S(hbond)    S(metal)    S(lipo)     H(rot)  DE(clash)    DE(int)     intcor
     15.50     -19.32       2.89        0.00      77.60       1.91       0.08       3.74       ----

> <Gold.Chemscore.Fitness>
15.5025

> <Gold.Chemscore.DG>
-19.3171

> <Gold.Chemscore.ZeroCoef>
-5.4800

> <Gold.Chemscore.Hbond>
2.8864

> <Gold.Chemscore.Metal>
0.0000

> <Gold.Chemscore.Lipo>
77.6033

> <Gold.Chemscore.Internal_Hbond>
0.0000

> <Gold.Chemscore.DEClash>
0.0780

> <Gold.Chemscore.DEInternal>
3.7367

> <Gold.Chemscore.Rot>
1.9074

> <Gold.Chemscore.Internal.Correction>
   9.000000E+99

> <Gold.Chemscore.Hbonds>
donor molecule, donor type, donor heavy atom, donor atom, acceptor molecule, acceptor atom, score
      L1  H     1    27       P1 10186  0.91
      L1  H     9    35       P1  7948  0.72
      L1  H    12    36       P1  7948  0.92
      P1  H  7989  7998       L1    22  0.06

> <Gold.Chemscore.Hbond.Weighted>
-9.6404

> <Gold.Chemscore.Metal.Weighted>
-0.0000

> <Gold.Chemscore.Lipo.Weighted>
-9.0796

> <Gold.Chemscore.Internal_Hbond.Weighted>
0.0000

> <Gold.Chemscore.DEClash.Weighted>
0.0780

> <Gold.Chemscore.DEInternal.Weighted>
3.7367

> <Gold.Chemscore.Rot.Weighted>
4.8829

> <Gold.Chemscore.Internal.Correction.Weighted>
   9.000000E+99

> <Gold.Protein.RotatedTorsions>
[ 6907 6896 6895 6894 ] final -148.82 input  -60.11 | X-H torsion
[ 7974 7965 7964 7962 ] final -115.24 input  175.53 | X-H torsion
[ 8008 7997 7996 7995 ] final -105.53 input   59.86 | X-H torsion
[ 10167 10162 10161 10158 ] final  120.88 input  -65.29 | X-H torsion
[ 10718 10713 10712 10709 ] final   10.59 input   66.30 | X-H torsion
[ 10763 10752 10751 10750 ] final  107.33 input  -60.55 | X-H torsion
[ 11005 11000 10999 10996 ] final  140.30 input  -57.11 | X-H torsion

> <Gold.Protein.ActiveResidues>
 VAL166  LYS551  ARG553  GLY616  TRP617  ASP618  TYR619  PRO620  LYS621  CYS622 
 ASP623  PHE694  ASN695  SER759  ASP760  ASP761  ALA762  ILE779  LEU786  VAL792 
 PHE793  MET794  SER795  GLU796  ALA797  LYS798  CYS799  TRP800  GLU811  SER814 

> <Gold.Protein.RotatedAtoms>
  151.1753  133.4759  159.2593 H   0  0  0  0  0  0  0  0  0  0  0  0  # atno 6907 bound_to 6896
  151.1314  135.0132  159.8594 H   0  0  0  0  0  0  0  0  0  0  0  0  # atno 6908 bound_to 6896
  152.5460  134.1655  159.8628 H   0  0  0  0  0  0  0  0  0  0  0  0  # atno 6909 bound_to 6896
  145.1107  140.8610  143.3871 H   0  0  0  0  0  0  0  0  0  0  0  0  # atno 7974 bound_to 7965
  154.9012  140.0413  157.1894 H   0  0  0  0  0  0  0  0  0  0  0  0  # atno 8008 bound_to 7997
  154.8442  140.2919  155.5619 H   0  0  0  0  0  0  0  0  0  0  0  0  # atno 8009 bound_to 7997
  156.2993  140.2477  156.3390 H   0  0  0  0  0  0  0  0  0  0  0  0  # atno 8010 bound_to 7997
  139.5954  144.7040  151.3188 H   0  0  0  0  0  0  0  0  0  0  0  0  # atno 10167 bound_to 10162
  156.9832  130.6013  149.5678 H   0  0  0  0  0  0  0  0  0  0  0  0  # atno 10718 bound_to 10713
  153.4053  135.3848  155.2014 H   0  0  0  0  0  0  0  0  0  0  0  0  # atno 10763 bound_to 10752
  154.8733  135.3781  154.4568 H   0  0  0  0  0  0  0  0  0  0  0  0  # atno 10764 bound_to 10752
  153.5070  135.7087  153.5863 H   0  0  0  0  0  0  0  0  0  0  0  0  # atno 10765 bound_to 10752
  140.0318  134.9348  157.0676 H   0  0  0  0  0  0  0  0  0  0  0  0  # atno 11005 bound_to 11000
  145.0850  139.2932  143.5764 LP  0  0  0  0  0  0  0  0  0  0  0  0  # atno 17320 bound_to 7965
  146.3526  140.0369  142.8646 LP  0  0  0  0  0  0  0  0  0  0  0  0  # atno 17321 bound_to 7965
  140.7208  143.7142  150.7746 LP  0  0  0  0  0  0  0  0  0  0  0  0  # atno 17342 bound_to 10162
  140.0707  143.5064  152.2581 LP  0  0  0  0  0  0  0  0  0  0  0  0  # atno 17343 bound_to 10162
  156.0236  130.5330  150.8345 LP  0  0  0  0  0  0  0  0  0  0  0  0  # atno 17370 bound_to 10713
  157.5511  131.0944  150.9693 LP  0  0  0  0  0  0  0  0  0  0  0  0  # atno 17371 bound_to 10713
  140.4214  134.1877  155.7164 LP  0  0  0  0  0  0  0  0  0  0  0  0  # atno 17394 bound_to 11000
  141.1835  133.8363  157.1173 LP  0  0  0  0  0  0  0  0  0  0  0  0  # atno 17395 bound_to 11000

$$$$
