AV-unprocessed.smi:1433|AV-procd|sdf|5845|dock2
  -GOLD-   22720 5513D 1   1.00000     0.00000
 Structure written by MMmdl.
 45 46  0  0  0  0  0  0  0  0  2 V2000
  146.3977  132.9370  154.1234 C   0  0  0  0  0  0  0  0  0  0  0  0
  146.5782  134.1820  153.2477 C   0  0  2  0  0  0  0  0  0  0  0  0
  146.7515  135.4627  154.0874 C   0  0  0  0  0  0  0  0  0  0  0  0
  146.8450  136.6659  153.2156 N   0  3  2  0  0  0  0  0  0  0  0  0
  147.0699  137.9722  153.9180 C   0  0  2  0  0  0  0  0  0  0  0  0
  147.0072  139.1320  152.8976 C   0  0  0  0  0  0  0  0  0  0  0  0
  148.3903  138.0263  154.7356 C   0  0  0  0  0  0  0  0  0  0  0  0
  148.6527  139.3529  155.2870 N   0  0  0  0  0  0  0  0  0  0  0  0
  149.7919  140.0485  155.1393 C   0  0  0  0  0  0  0  0  0  0  0  0
  150.7819  139.6132  154.5521 O   0  0  0  0  0  0  0  0  0  0  0  0
  149.8136  141.4592  155.7314 C   0  0  0  0  0  0  0  0  0  0  0  0
  150.7559  141.5565  156.8335 N   0  0  0  0  0  0  0  0  0  0  0  0
  151.0988  142.6695  157.5727 C   0  0  0  0  0  0  0  0  0  0  0  0
  152.0294  142.2770  158.4915 C   0  0  0  0  0  0  0  0  0  0  0  0
  152.1924  140.8870  158.2352 C   0  0  0  0  0  0  0  0  0  0  0  0
  151.4297  140.4589  157.2426 N   0  0  0  0  0  0  0  0  0  0  0  0
  145.6709  136.7052  152.3021 C   0  0  0  0  0  0  0  0  0  0  0  0
  145.5425  135.3931  151.5070 C   0  0  2  0  0  0  0  0  0  0  0  0
  144.3047  135.3831  150.6032 C   0  0  0  0  0  0  0  0  0  0  0  0
  145.4286  134.3117  152.4222 O   0  0  0  0  0  0  0  0  0  0  0  0
  147.2616  132.7830  154.7704 H   0  0  0  0  0  0  0  0  0  0  0  0
  146.2789  132.0430  153.5106 H   0  0  0  0  0  0  0  0  0  0  0  0
  145.5155  133.0247  154.7580 H   0  0  0  0  0  0  0  0  0  0  0  0
  147.4572  134.0352  152.6174 H   0  0  0  0  0  0  0  0  0  0  0  0
  145.9166  135.5783  154.7807 H   0  0  0  0  0  0  0  0  0  0  0  0
  147.6580  135.3435  154.6799 H   0  0  0  0  0  0  0  0  0  0  0  0
  146.2554  138.1051  154.6321 H   0  0  0  0  0  0  0  0  0  0  0  0
  147.0607  140.1046  153.3867 H   0  0  0  0  0  0  0  0  0  0  0  0
  146.0827  139.1395  152.3234 H   0  0  0  0  0  0  0  0  0  0  0  0
  147.8335  139.0742  152.1886 H   0  0  0  0  0  0  0  0  0  0  0  0
  148.3359  137.3594  155.5959 H   0  0  0  0  0  0  0  0  0  0  0  0
  149.2288  137.6834  154.1270 H   0  0  0  0  0  0  0  0  0  0  0  0
  147.8962  139.7935  155.7903 H   0  0  0  0  0  0  0  0  0  0  0  0
  150.0911  142.1787  154.9599 H   0  0  0  0  0  0  0  0  0  0  0  0
  148.8200  141.7354  156.0874 H   0  0  0  0  0  0  0  0  0  0  0  0
  150.6579  143.6374  157.3845 H   0  0  0  0  0  0  0  0  0  0  0  0
  152.5183  142.8885  159.2351 H   0  0  0  0  0  0  0  0  0  0  0  0
  152.8379  140.1814  158.7371 H   0  0  0  0  0  0  0  0  0  0  0  0
  144.7645  136.8755  152.8856 H   0  0  0  0  0  0  0  0  0  0  0  0
  145.7507  137.5327  151.5995 H   0  0  0  0  0  0  0  0  0  0  0  0
  146.4274  135.2499  150.8842 H   0  0  0  0  0  0  0  0  0  0  0  0
  144.3458  136.1905  149.8716 H   0  0  0  0  0  0  0  0  0  0  0  0
  143.3897  135.5035  151.1839 H   0  0  0  0  0  0  0  0  0  0  0  0
  144.2296  134.4431  150.0557 H   0  0  0  0  0  0  0  0  0  0  0  0
  147.6606  136.5182  152.6381 H   0  0  0  0  0  0  0  0  0  0  0  0
  1  2  1  0  0  0  0
  1 21  1  0  0  0  0
  1 22  1  0  0  0  0
  1 23  1  0  0  0  0
  2 20  1  0  0  0  0
  2  3  1  0  0  0  0
  2 24  1  0  0  0  0
  3  4  1  0  0  0  0
  3 25  1  0  0  0  0
  3 26  1  0  0  0  0
  4  5  1  0  0  0  0
  4 17  1  0  0  0  0
  4 45  1  0  0  0  0
  5  6  1  0  0  0  0
  5  7  1  0  0  0  0
  5 27  1  0  0  0  0
  6 28  1  0  0  0  0
  6 29  1  0  0  0  0
  6 30  1  0  0  0  0
  7  8  1  0  0  0  0
  7 31  1  0  0  0  0
  7 32  1  0  0  0  0
  8  9  1  0  0  0  0
  8 33  1  0  0  0  0
  9 10  2  0  0  0  0
  9 11  1  0  0  0  0
 11 12  1  0  0  0  0
 11 34  1  0  0  0  0
 11 35  1  0  0  0  0
 12 16  1  0  0  0  0
 12 13  1  0  0  0  0
 13 14  2  0  0  0  0
 13 36  1  0  0  0  0
 14 15  1  0  0  0  0
 14 37  1  0  0  0  0
 15 16  2  0  0  0  0
 15 38  1  0  0  0  0
 17 18  1  0  0  0  0
 17 39  1  0  0  0  0
 17 40  1  0  0  0  0
 18 19  1  0  0  0  0
 18 20  1  0  0  0  0
 18 41  1  0  0  0  0
 19 42  1  0  0  0  0
 19 43  1  0  0  0  0
 19 44  1  0  0  0  0
M  CHG  1   4   1
M  END
> <s_m_source_file>
AV-unprocessed.smi

> <i_m_source_file_index>
1433

> <i_lp_mmshare_version>
43012

> <i_f3d_flags>
0

> <s_epik_input>
W0NIM11bQ0BASF0xW0NIMl1OKFtDSDJdW0NASF0oTzEpW0NIM10pW0NASF0oW0NIM10pW0NIMl1bTkhdQyg9TylbQ0gyXW4yW2NIXVtjSF1bY0hdbjI=

> <s_epik_cmdline>
J2VwaWtfcHl0aG9uJywgJy1waCcsICc3LjAnLCAnLXRuJywgJzgnLCAnLW1hJywgJzIwMCcsICctbWV0YWxfYmluZGluZycsICctaW1hZScsICc8aW5maWxlLm1hZT4nLCAnLW9tYWUnLCAnPG91dGZpbGUubWFlPic=

> <r_lp_tautomer_probability>
1

> <r_epik_Ionization_Penalty>
0.748405

> <r_epik_Ionization_Penalty_Charging>
0.748396

> <r_epik_Ionization_Penalty_Neutral>
8.54426e-06

> <r_epik_State_Penalty>
0.775162

> <r_epik_Charging_Adjusted_Penalty>
1.52356

> <i_epik_Tot_Q>
1

> <i_epik_Tot_abs_Q>
1

> <r_epik_Metal_State_Penalty>
0.775167

> <b_epik_Metal_Only>
0

> <s_lp_Force_Field>
OPLS_2005

> <r_lp_Energy>
19.9081

> <b_lp_Chiralities_Consistent>
1

> <s_lp_Variant>
AV-unprocessed.smi:1433-11

> <Gold.Version>
5.8.1

> <Gold.Id.Protein>
6NUR|6NUR_protein|mol2

> <Gold.PLP.Fitness>
41.5075

> <Gold.PLP.PLP>
-29.8027

> <Gold.PLP.part.hbond>
-2.0000

> <Gold.PLP.part.metal>
0.0000

> <Gold.PLP.part.buried>
-2.9437

> <Gold.PLP.part.nonpolar>
-25.5415

> <Gold.PLP.part.repulsive>
0.2213

> <Gold.PLP.ligand.clash>
0.0000

> <Gold.PLP.ligand.torsion>
0.1791

> <Gold.PLP.Chemscore.Hbond>
3.0000

> <Gold.PLP.Chemscore.CHOScore>
1.0000

> <Gold.PLP.Chemscore.Metal>
0.0000

> <Gold.Chemscore.Hbonds>
donor molecule, donor type, donor heavy atom, donor atom, acceptor molecule, acceptor atom, score
      L1  H     4    45       P1  7948  2.00
      P1  H  7989  7998       L1    10  1.00
      L1  C    13    36       P1  8028  0.62

> <Gold.PLP.Chemscore.Internal.Correction>
0.0630

> <Gold.Rescore>
     Score         DG    S(hbond)    S(metal)    S(lipo)     H(rot)  DE(clash)    DE(int)     intcor
     14.08     -15.51       1.98        0.00      69.91       1.87       0.00       1.43       ----

> <Gold.Chemscore.Fitness>
14.0774

> <Gold.Chemscore.DG>
-15.5085

> <Gold.Chemscore.ZeroCoef>
-5.4800

> <Gold.Chemscore.Hbond>
1.9836

> <Gold.Chemscore.Metal>
0.0000

> <Gold.Chemscore.Lipo>
69.9109

> <Gold.Chemscore.Internal_Hbond>
0.0000

> <Gold.Chemscore.DEClash>
0.0000

> <Gold.Chemscore.DEInternal>
1.4311

> <Gold.Chemscore.Rot>
1.8657

> <Gold.Chemscore.Internal.Correction>
   9.000000E+99

> <Gold.Chemscore.Hbonds>
donor molecule, donor type, donor heavy atom, donor atom, acceptor molecule, acceptor atom, score
      L1  H     4    45       P1  7948  0.93
      P1  H  7989  7998       L1    10  0.88

> <Gold.Chemscore.Hbond.Weighted>
-6.6251

> <Gold.Chemscore.Metal.Weighted>
-0.0000

> <Gold.Chemscore.Lipo.Weighted>
-8.1796

> <Gold.Chemscore.Internal_Hbond.Weighted>
0.0000

> <Gold.Chemscore.DEClash.Weighted>
0.0000

> <Gold.Chemscore.DEInternal.Weighted>
1.4311

> <Gold.Chemscore.Rot.Weighted>
4.7761

> <Gold.Chemscore.Internal.Correction.Weighted>
   9.000000E+99

> <Gold.Protein.RotatedTorsions>
[ 6907 6896 6895 6894 ] final    9.60 input  -60.11 | X-H torsion
[ 7974 7965 7964 7962 ] final -126.51 input  175.53 | X-H torsion
[ 8008 7997 7996 7995 ] final   15.53 input   59.86 | X-H torsion
[ 10167 10162 10161 10158 ] final  178.25 input  -65.29 | X-H torsion
[ 10718 10713 10712 10709 ] final  107.11 input   66.30 | X-H torsion
[ 10763 10752 10751 10750 ] final  -54.92 input  -60.55 | X-H torsion
[ 11005 11000 10999 10996 ] final   23.05 input  -57.11 | X-H torsion

> <Gold.Protein.ActiveResidues>
 VAL166  LYS551  ARG553  GLY616  TRP617  ASP618  TYR619  PRO620  LYS621  CYS622 
 ASP623  PHE694  ASN695  SER759  ASP760  ASP761  ALA762  ILE779  LEU786  VAL792 
 PHE793  MET794  SER795  GLU796  ALA797  LYS798  CYS799  TRP800  GLU811  SER814 

> <Gold.Protein.RotatedAtoms>
  151.7247  135.0887  160.0289 H   0  0  0  0  0  0  0  0  0  0  0  0  # atno 6907 bound_to 6896
  152.3579  133.6256  159.6002 H   0  0  0  0  0  0  0  0  0  0  0  0  # atno 6908 bound_to 6896
  150.7584  133.9386  159.3490 H   0  0  0  0  0  0  0  0  0  0  0  0  # atno 6909 bound_to 6896
  144.9866  140.7691  143.4580 H   0  0  0  0  0  0  0  0  0  0  0  0  # atno 7974 bound_to 7965
  154.8640  140.2948  155.5521 H   0  0  0  0  0  0  0  0  0  0  0  0  # atno 8008 bound_to 7997
  156.3020  140.2472  156.3551 H   0  0  0  0  0  0  0  0  0  0  0  0  # atno 8009 bound_to 7997
  154.8888  140.0395  157.1815 H   0  0  0  0  0  0  0  0  0  0  0  0  # atno 8010 bound_to 7997
  139.5286  144.2702  152.0634 H   0  0  0  0  0  0  0  0  0  0  0  0  # atno 10167 bound_to 10162
  157.6641  131.0865  150.6107 H   0  0  0  0  0  0  0  0  0  0  0  0  # atno 10718 bound_to 10713
  154.1826  135.6441  153.5038 H   0  0  0  0  0  0  0  0  0  0  0  0  # atno 10763 bound_to 10752
  153.0055  135.5409  154.6499 H   0  0  0  0  0  0  0  0  0  0  0  0  # atno 10764 bound_to 10752
  154.5867  135.2930  155.0650 H   0  0  0  0  0  0  0  0  0  0  0  0  # atno 10765 bound_to 10752
  140.3738  134.1994  155.7666 H   0  0  0  0  0  0  0  0  0  0  0  0  # atno 11005 bound_to 11000
  145.2345  139.2100  143.5025 LP  0  0  0  0  0  0  0  0  0  0  0  0  # atno 17320 bound_to 7965
  146.3421  140.2229  142.8592 LP  0  0  0  0  0  0  0  0  0  0  0  0  # atno 17321 bound_to 7965
  140.2162  144.4512  150.6362 LP  0  0  0  0  0  0  0  0  0  0  0  0  # atno 17342 bound_to 10162
  140.6448  143.2211  151.6210 LP  0  0  0  0  0  0  0  0  0  0  0  0  # atno 17343 bound_to 10162
  156.6409  130.4458  149.5753 LP  0  0  0  0  0  0  0  0  0  0  0  0  # atno 17370 bound_to 10713
  156.2210  130.6737  151.1368 LP  0  0  0  0  0  0  0  0  0  0  0  0  # atno 17371 bound_to 10713
  141.1946  133.8125  157.0751 LP  0  0  0  0  0  0  0  0  0  0  0  0  # atno 17394 bound_to 11000
  140.0531  134.9795  157.1172 LP  0  0  0  0  0  0  0  0  0  0  0  0  # atno 17395 bound_to 11000

$$$$
