AV-unprocessed.smi:3186|AV-procd|sdf|12174|dock5
  -GOLD-   2272018 13D 1   1.00000     0.00000
 Structure written by MMmdl.
 37 38  0  0  0  0  0  0  0  0  2 V2000
  150.2657  139.3349  154.6071 C   0  0  0  0  0  0  0  0  0  0  0  0
  148.9770  140.0958  154.3496 C   0  0  0  0  0  0  0  0  0  0  0  0
  148.1853  139.7694  153.2265 C   0  0  0  0  0  0  0  0  0  0  0  0
  147.0288  140.3938  152.9209 N   0  0  0  0  0  0  0  0  0  0  0  0
  146.6124  141.3847  153.7355 C   0  0  0  0  0  0  0  0  0  0  0  0
  147.3228  141.7922  154.8814 C   0  0  0  0  0  0  0  0  0  0  0  0
  148.5317  141.1384  155.2000 C   0  0  0  0  0  0  0  0  0  0  0  0
  149.3051  141.5641  156.4379 C   0  0  0  0  0  0  0  0  0  0  0  0
  150.7460  141.9769  156.1066 C   0  0  0  0  0  0  0  0  0  0  0  0
  151.0719  143.2885  156.7048 N   0  3  0  0  0  0  0  0  0  0  0  0
  151.1825  143.2991  158.1808 C   0  0  1  0  0  0  0  0  0  0  0  0
  152.1824  142.2265  158.6686 C   0  0  0  0  0  0  0  0  0  0  0  0
  152.2919  142.1639  160.2010 C   0  0  0  0  0  0  0  0  0  0  0  0
  152.7766  143.4856  160.8118 C   0  0  0  0  0  0  0  0  0  0  0  0
  151.6152  144.8312  160.4581 S   0  0  0  0  0  0  0  0  0  0  0  0
  151.6010  144.7047  158.6492 C   0  0  0  0  0  0  0  0  0  0  0  0
  150.3773  138.5025  153.9113 H   0  0  0  0  0  0  0  0  0  0  0  0
  150.2825  138.9266  155.6173 H   0  0  0  0  0  0  0  0  0  0  0  0
  151.1260  139.9928  154.4830 H   0  0  0  0  0  0  0  0  0  0  0  0
  148.4872  138.9828  152.5505 H   0  0  0  0  0  0  0  0  0  0  0  0
  145.6841  141.8674  153.4677 H   0  0  0  0  0  0  0  0  0  0  0  0
  146.9422  142.5913  155.5006 H   0  0  0  0  0  0  0  0  0  0  0  0
  148.7822  142.3780  156.9408 H   0  0  0  0  0  0  0  0  0  0  0  0
  149.3137  140.7352  157.1471 H   0  0  0  0  0  0  0  0  0  0  0  0
  151.4433  141.2280  156.4850 H   0  0  0  0  0  0  0  0  0  0  0  0
  150.8776  142.0180  155.0261 H   0  0  0  0  0  0  0  0  0  0  0  0
  151.9370  143.6311  156.3122 H   0  0  0  0  0  0  0  0  0  0  0  0
  150.1951  143.0875  158.5949 H   0  0  0  0  0  0  0  0  0  0  0  0
  151.8839  141.2417  158.3107 H   0  0  0  0  0  0  0  0  0  0  0  0
  153.1677  142.4176  158.2412 H   0  0  0  0  0  0  0  0  0  0  0  0
  151.3267  141.8918  160.6302 H   0  0  0  0  0  0  0  0  0  0  0  0
  152.9831  141.3674  160.4786 H   0  0  0  0  0  0  0  0  0  0  0  0
  152.8795  143.3874  161.8927 H   0  0  0  0  0  0  0  0  0  0  0  0
  153.7593  143.7495  160.4192 H   0  0  0  0  0  0  0  0  0  0  0  0
  152.5917  144.9593  158.2701 H   0  0  0  0  0  0  0  0  0  0  0  0
  150.9100  145.4554  158.2643 H   0  0  0  0  0  0  0  0  0  0  0  0
  150.3304  143.9247  156.4482 H   0  0  0  0  0  0  0  0  0  0  0  0
  1  2  1  0  0  0  0
  1 17  1  0  0  0  0
  1 18  1  0  0  0  0
  1 19  1  0  0  0  0
  2  7  1  0  0  0  0
  2  3  2  0  0  0  0
  3  4  1  0  0  0  0
  3 20  1  0  0  0  0
  4  5  2  0  0  0  0
  5  6  1  0  0  0  0
  5 21  1  0  0  0  0
  6  7  2  0  0  0  0
  6 22  1  0  0  0  0
  7  8  1  0  0  0  0
  8  9  1  0  0  0  0
  8 23  1  0  0  0  0
  8 24  1  0  0  0  0
  9 10  1  0  0  0  0
  9 25  1  0  0  0  0
  9 26  1  0  0  0  0
 10 11  1  0  0  0  0
 10 27  1  0  0  0  0
 10 37  1  0  0  0  0
 11 16  1  0  0  0  0
 11 12  1  0  0  0  0
 11 28  1  0  0  0  0
 12 13  1  0  0  0  0
 12 29  1  0  0  0  0
 12 30  1  0  0  0  0
 13 14  1  0  0  0  0
 13 31  1  0  0  0  0
 13 32  1  0  0  0  0
 14 15  1  0  0  0  0
 14 33  1  0  0  0  0
 14 34  1  0  0  0  0
 15 16  1  0  0  0  0
 16 35  1  0  0  0  0
 16 36  1  0  0  0  0
M  CHG  1  10   1
M  END
> <s_m_source_file>
AV-unprocessed.smi

> <i_m_source_file_index>
3186

> <i_lp_mmshare_version>
43012

> <i_f3d_flags>
0

> <s_epik_input>
W0NIM11jMVtjSF1uW2NIXVtjSF1jMVtDSDJdW0NIMl1bTkhdW0NAQEhdMltDSDJdW0NIMl1bQ0gyXVNbQ0gyXTI=

> <s_epik_cmdline>
J2VwaWtfcHl0aG9uJywgJy1waCcsICc3LjAnLCAnLXRuJywgJzgnLCAnLW1hJywgJzIwMCcsICctbWV0YWxfYmluZGluZycsICctaW1hZScsICc8aW5maWxlLm1hZT4nLCAnLW9tYWUnLCAnPG91dGZpbGUubWFlPic=

> <r_epik_Ionization_Penalty>
0.00563987

> <r_epik_Ionization_Penalty_Charging>
0.00306352

> <r_epik_Ionization_Penalty_Neutral>
0.00257635

> <r_epik_State_Penalty>
0.00506628

> <r_epik_Charging_Adjusted_Penalty>
0.0081298

> <i_epik_Tot_Q>
1

> <i_epik_Tot_abs_Q>
1

> <r_epik_Metal_State_Penalty>
-0

> <b_epik_Metal_Only>
0

> <s_lp_Force_Field>
OPLS_2005

> <r_lp_Energy>
10.8164

> <b_lp_Chiralities_Consistent>
1

> <s_lp_Variant>
AV-unprocessed.smi:3186-2

> <Gold.Version>
5.8.1

> <Gold.Id.Protein>
6NUR|6NUR_protein|mol2

> <Gold.PLP.Fitness>
46.5435

> <Gold.PLP.PLP>
-34.4082

> <Gold.PLP.part.hbond>
-1.0000

> <Gold.PLP.part.metal>
0.0000

> <Gold.PLP.part.buried>
-2.1639

> <Gold.PLP.part.nonpolar>
-32.6286

> <Gold.PLP.part.repulsive>
1.0301

> <Gold.PLP.ligand.clash>
0.0000

> <Gold.PLP.ligand.torsion>
0.3958

> <Gold.PLP.Chemscore.Hbond>
2.0000

> <Gold.PLP.Chemscore.CHOScore>
2.3057

> <Gold.PLP.Chemscore.Metal>
0.0000

> <Gold.Chemscore.Hbonds>
donor molecule, donor type, donor heavy atom, donor atom, acceptor molecule, acceptor atom, score
      L1  H    10    37       P1  8028  2.00
      L1  C     3    20       P1  7948  0.23
      L1  C     3    20       P1  7957  0.45
      L1  C     5    21       P1 10175  0.36

> <Gold.PLP.Chemscore.Internal.Correction>
0.0098

> <Gold.Rescore>
     Score         DG    S(hbond)    S(metal)    S(lipo)     H(rot)  DE(clash)    DE(int)     intcor
     17.69     -18.45       1.00        0.00     110.79       1.30       0.36       0.40       ----

> <Gold.Chemscore.Fitness>
17.6893

> <Gold.Chemscore.DG>
-18.4464

> <Gold.Chemscore.ZeroCoef>
-5.4800

> <Gold.Chemscore.Hbond>
0.9998

> <Gold.Chemscore.Metal>
0.0000

> <Gold.Chemscore.Lipo>
110.7947

> <Gold.Chemscore.Internal_Hbond>
0.0000

> <Gold.Chemscore.DEClash>
0.3605

> <Gold.Chemscore.DEInternal>
0.3966

> <Gold.Chemscore.Rot>
1.3031

> <Gold.Chemscore.Internal.Correction>
   9.000000E+99

> <Gold.Chemscore.Hbonds>
donor molecule, donor type, donor heavy atom, donor atom, acceptor molecule, acceptor atom, score
      L1  H    10    37       P1  8028  1.00

> <Gold.Chemscore.Hbond.Weighted>
-3.3395

> <Gold.Chemscore.Metal.Weighted>
-0.0000

> <Gold.Chemscore.Lipo.Weighted>
-12.9630

> <Gold.Chemscore.Internal_Hbond.Weighted>
0.0000

> <Gold.Chemscore.DEClash.Weighted>
0.3605

> <Gold.Chemscore.DEInternal.Weighted>
0.3966

> <Gold.Chemscore.Rot.Weighted>
3.3361

> <Gold.Chemscore.Internal.Correction.Weighted>
   9.000000E+99

> <Gold.Protein.RotatedTorsions>
[ 6907 6896 6895 6894 ] final   10.70 input  -60.11 | X-H torsion
[ 7974 7965 7964 7962 ] final  -83.47 input  175.53 | X-H torsion
[ 8008 7997 7996 7995 ] final    5.29 input   59.86 | X-H torsion
[ 10167 10162 10161 10158 ] final  167.43 input  -65.29 | X-H torsion
[ 10718 10713 10712 10709 ] final   97.83 input   66.30 | X-H torsion
[ 10763 10752 10751 10750 ] final   95.66 input  -60.55 | X-H torsion
[ 11005 11000 10999 10996 ] final -133.21 input  -57.11 | X-H torsion

> <Gold.Protein.ActiveResidues>
 VAL166  LYS551  ARG553  GLY616  TRP617  ASP618  TYR619  PRO620  LYS621  CYS622 
 ASP623  PHE694  ASN695  SER759  ASP760  ASP761  ALA762  ILE779  LEU786  VAL792 
 PHE793  MET794  SER795  GLU796  ALA797  LYS798  CYS799  TRP800  GLU811  SER814 

> <Gold.Protein.RotatedAtoms>
  151.7424  135.0851  160.0317 H   0  0  0  0  0  0  0  0  0  0  0  0  # atno 6907 bound_to 6896
  152.3470  133.6130  159.5926 H   0  0  0  0  0  0  0  0  0  0  0  0  # atno 6908 bound_to 6896
  150.7515  133.9549  159.3539 H   0  0  0  0  0  0  0  0  0  0  0  0  # atno 6909 bound_to 6896
  145.5195  140.9532  143.1663 H   0  0  0  0  0  0  0  0  0  0  0  0  # atno 7974 bound_to 7965
  154.7265  140.2722  155.6494 H   0  0  0  0  0  0  0  0  0  0  0  0  # atno 8008 bound_to 7997
  156.2838  140.2724  156.1877 H   0  0  0  0  0  0  0  0  0  0  0  0  # atno 8009 bound_to 7997
  155.0438  140.0371  157.2509 H   0  0  0  0  0  0  0  0  0  0  0  0  # atno 8010 bound_to 7997
  139.4945  144.3922  151.9504 H   0  0  0  0  0  0  0  0  0  0  0  0  # atno 10167 bound_to 10162
  157.6906  131.0621  150.4704 H   0  0  0  0  0  0  0  0  0  0  0  0  # atno 10718 bound_to 10713
  153.2558  135.4246  155.0844 H   0  0  0  0  0  0  0  0  0  0  0  0  # atno 10763 bound_to 10752
  154.8400  135.3437  154.6448 H   0  0  0  0  0  0  0  0  0  0  0  0  # atno 10764 bound_to 10752
  153.6869  135.7036  153.5158 H   0  0  0  0  0  0  0  0  0  0  0  0  # atno 10765 bound_to 10752
  140.9101  134.1579  157.4396 H   0  0  0  0  0  0  0  0  0  0  0  0  # atno 11005 bound_to 11000
  144.7684  139.6792  143.7205 LP  0  0  0  0  0  0  0  0  0  0  0  0  # atno 17320 bound_to 7965
  146.2115  139.5475  142.9678 LP  0  0  0  0  0  0  0  0  0  0  0  0  # atno 17321 bound_to 7965
  140.3359  144.3260  150.5977 LP  0  0  0  0  0  0  0  0  0  0  0  0  # atno 17342 bound_to 10162
  140.5606  143.2193  151.7772 LP  0  0  0  0  0  0  0  0  0  0  0  0  # atno 17343 bound_to 10162
  156.5042  130.4124  149.6336 LP  0  0  0  0  0  0  0  0  0  0  0  0  # atno 17370 bound_to 10713
  156.3300  130.7326  151.2254 LP  0  0  0  0  0  0  0  0  0  0  0  0  # atno 17371 bound_to 10713
  139.8756  134.9932  156.5634 LP  0  0  0  0  0  0  0  0  0  0  0  0  # atno 17394 bound_to 11000
  140.8121  133.8421  155.8819 LP  0  0  0  0  0  0  0  0  0  0  0  0  # atno 17395 bound_to 11000

$$$$
