AV-unprocessed.smi:915|AV-procd|sdf|4157|dock5
  -GOLD-   22720 2 63D 1   1.00000     0.00000
 Structure written by MMmdl.
 33 34  0  0  0  0  0  0  0  0  2 V2000
  146.7095  139.2591  151.2650 C   0  0  0  0  0  0  0  0  0  0  0  0
  147.2035  138.8741  152.6639 C   0  0  0  0  0  0  0  0  0  0  0  0
  147.5667  140.0715  153.4885 C   0  0  0  0  0  0  0  0  0  0  0  0
  146.7345  141.0813  153.8911 C   0  0  0  0  0  0  0  0  0  0  0  0
  147.5840  142.2735  154.8309 S   0  0  0  0  0  0  0  0  0  0  0  0
  149.0814  141.3561  154.6504 C   0  0  0  0  0  0  0  0  0  0  0  0
  150.2479  141.7735  155.1911 N   0  5  0  0  0  0  0  0  0  0  0  0
  150.7190  141.4175  156.4135 C   0  0  0  0  0  0  0  0  0  0  0  0
  150.1603  140.7151  157.2587 O   0  0  0  0  0  0  0  0  0  0  0  0
  151.9347  141.9155  156.6750 N   0  0  0  0  0  0  0  0  0  0  0  0
  152.6883  141.6920  157.9027 C   0  0  0  0  0  0  0  0  0  0  0  0
  153.0298  143.0217  158.5941 C   0  0  1  0  0  0  0  0  0  0  0  0
  151.8081  143.9365  158.7558 C   0  0  0  0  0  0  0  0  0  0  0  0
  152.1262  144.9116  159.8898 C   0  0  0  0  0  0  0  0  0  0  0  0
  152.7236  144.0742  161.0205 C   0  0  0  0  0  0  0  0  0  0  0  0
  153.7315  142.7803  160.2543 S   0  0  0  0  0  0  0  0  0  0  0  0
  148.8813  140.2429  153.9266 N   0  0  0  0  0  0  0  0  0  0  0  0
  146.4531  138.3722  150.6857 H   0  0  0  0  0  0  0  0  0  0  0  0
  147.4756  139.8064  150.7146 H   0  0  0  0  0  0  0  0  0  0  0  0
  145.8217  139.8895  151.3213 H   0  0  0  0  0  0  0  0  0  0  0  0
  146.4313  138.2927  153.1684 H   0  0  0  0  0  0  0  0  0  0  0  0
  148.0645  138.2114  152.5715 H   0  0  0  0  0  0  0  0  0  0  0  0
  145.6799  141.1985  153.6935 H   0  0  0  0  0  0  0  0  0  0  0  0
  152.3718  142.4827  155.9636 H   0  0  0  0  0  0  0  0  0  0  0  0
  152.0926  141.0699  158.5723 H   0  0  0  0  0  0  0  0  0  0  0  0
  153.6008  141.1381  157.6761 H   0  0  0  0  0  0  0  0  0  0  0  0
  153.7792  143.5551  158.0075 H   0  0  0  0  0  0  0  0  0  0  0  0
  151.5703  144.4579  157.8279 H   0  0  0  0  0  0  0  0  0  0  0  0
  150.9321  143.3458  159.0275 H   0  0  0  0  0  0  0  0  0  0  0  0
  152.8588  145.6437  159.5479 H   0  0  0  0  0  0  0  0  0  0  0  0
  151.2430  145.4612  160.2159 H   0  0  0  0  0  0  0  0  0  0  0  0
  153.3139  144.6748  161.7129 H   0  0  0  0  0  0  0  0  0  0  0  0
  151.9279  143.5928  161.5898 H   0  0  0  0  0  0  0  0  0  0  0  0
  1  2  1  0  0  0  0
  1 18  1  0  0  0  0
  1 19  1  0  0  0  0
  1 20  1  0  0  0  0
  2  3  1  0  0  0  0
  2 21  1  0  0  0  0
  2 22  1  0  0  0  0
  3 17  1  0  0  0  0
  3  4  2  0  0  0  0
  4  5  1  0  0  0  0
  4 23  1  0  0  0  0
  5  6  1  0  0  0  0
  6  7  1  0  0  0  0
  6 17  2  0  0  0  0
  7  8  1  0  0  0  0
  8  9  2  0  0  0  0
  8 10  1  0  0  0  0
 10 11  1  0  0  0  0
 10 24  1  0  0  0  0
 11 12  1  0  0  0  0
 11 25  1  0  0  0  0
 11 26  1  0  0  0  0
 12 16  1  0  0  0  0
 12 13  1  0  0  0  0
 12 27  1  0  0  0  0
 13 14  1  0  0  0  0
 13 28  1  0  0  0  0
 13 29  1  0  0  0  0
 14 15  1  0  0  0  0
 14 30  1  0  0  0  0
 14 31  1  0  0  0  0
 15 16  1  0  0  0  0
 15 32  1  0  0  0  0
 15 33  1  0  0  0  0
M  CHG  1   7  -1
M  END
> <s_m_source_file>
AV-unprocessed.smi

> <i_m_source_file_index>
915

> <i_lp_mmshare_version>
43012

> <i_f3d_flags>
0

> <s_epik_input>
W0NIM11bQ0gyXWMxW2NIXXNjKG4xKVtOSF1DKD1PKVtOSF1bQ0gyXVtDQEBIXTJbQ0gyXVtDSDJdW0NIMl1TMg==

> <s_epik_cmdline>
J2VwaWtfcHl0aG9uJywgJy1waCcsICc3LjAnLCAnLXRuJywgJzgnLCAnLW1hJywgJzIwMCcsICctbWV0YWxfYmluZGluZycsICctaW1hZScsICc8aW5maWxlLm1hZT4nLCAnLW9tYWUnLCAnPG91dGZpbGUubWFlPic=

> <r_lp_tautomer_probability>
0.999

> <r_epik_Ionization_Penalty>
8.73043

> <r_epik_Ionization_Penalty_Charging>
6.79141

> <r_epik_Ionization_Penalty_Neutral>
1.93902

> <r_epik_State_Penalty>
6.79158

> <r_epik_Charging_Adjusted_Penalty>
13.583

> <i_epik_Tot_Q>
-1

> <i_epik_Tot_abs_Q>
1

> <r_epik_Metal_State_Penalty>
2.71141

> <b_epik_Metal_Only>
1

> <s_lp_Force_Field>
OPLS_2005

> <r_lp_Energy>
9.1846

> <b_lp_Chiralities_Consistent>
1

> <s_lp_Variant>
AV-unprocessed.smi:915-4

> <Gold.Version>
5.8.1

> <Gold.Id.Protein>
6NUR|6NUR_protein|mol2

> <Gold.PLP.Fitness>
38.6799

> <Gold.PLP.PLP>
-37.2716

> <Gold.PLP.part.hbond>
-0.2676

> <Gold.PLP.part.metal>
0.0000

> <Gold.PLP.part.buried>
1.5053

> <Gold.PLP.part.nonpolar>
-38.0117

> <Gold.PLP.part.repulsive>
0.3363

> <Gold.PLP.ligand.clash>
0.0000

> <Gold.PLP.ligand.torsion>
0.8064

> <Gold.PLP.Chemscore.Hbond>
0.0000

> <Gold.PLP.Chemscore.CHOScore>
1.0000

> <Gold.PLP.Chemscore.Metal>
0.0000

> <Gold.Chemscore.Hbonds>
donor molecule, donor type, donor heavy atom, donor atom, acceptor molecule, acceptor atom, score
      P1  H  7989  7998       L1     7  0.06
      L1  C     4    23       P1 10175  1.00

> <Gold.PLP.Chemscore.Internal.Correction>
0.0212

> <Gold.Rescore>
     Score         DG    S(hbond)    S(metal)    S(lipo)     H(rot)  DE(clash)    DE(int)     intcor
     13.25     -14.30       0.00        0.00     104.47       1.33       0.21       0.84       ----

> <Gold.Chemscore.Fitness>
13.2515

> <Gold.Chemscore.DG>
-14.2977

> <Gold.Chemscore.ZeroCoef>
-5.4800

> <Gold.Chemscore.Hbond>
0.0001

> <Gold.Chemscore.Metal>
0.0000

> <Gold.Chemscore.Lipo>
104.4747

> <Gold.Chemscore.Internal_Hbond>
0.0000

> <Gold.Chemscore.DEClash>
0.2067

> <Gold.Chemscore.DEInternal>
0.8395

> <Gold.Chemscore.Rot>
1.3305

> <Gold.Chemscore.Internal.Correction>
   9.000000E+99

> <Gold.Chemscore.Hbonds>
donor molecule, donor type, donor heavy atom, donor atom, acceptor molecule, acceptor atom, score
      P1  H  7989  7998       L1     7  0.01

> <Gold.Chemscore.Hbond.Weighted>
-0.0002

> <Gold.Chemscore.Metal.Weighted>
-0.0000

> <Gold.Chemscore.Lipo.Weighted>
-12.2235

> <Gold.Chemscore.Internal_Hbond.Weighted>
0.0000

> <Gold.Chemscore.DEClash.Weighted>
0.2067

> <Gold.Chemscore.DEInternal.Weighted>
0.8395

> <Gold.Chemscore.Rot.Weighted>
3.4060

> <Gold.Chemscore.Internal.Correction.Weighted>
   9.000000E+99

> <Gold.Protein.RotatedTorsions>
[ 6907 6896 6895 6894 ] final -151.82 input  -60.11 | X-H torsion
[ 7974 7965 7964 7962 ] final  -35.83 input  175.53 | X-H torsion
[ 8008 7997 7996 7995 ] final  -86.59 input   59.86 | X-H torsion
[ 10167 10162 10161 10158 ] final   29.45 input  -65.29 | X-H torsion
[ 10718 10713 10712 10709 ] final -107.33 input   66.30 | X-H torsion
[ 10763 10752 10751 10750 ] final  162.04 input  -60.55 | X-H torsion
[ 11005 11000 10999 10996 ] final   37.09 input  -57.11 | X-H torsion

> <Gold.Protein.ActiveResidues>
 VAL166  LYS551  ARG553  GLY616  TRP617  ASP618  TYR619  PRO620  LYS621  CYS622 
 ASP623  PHE694  ASN695  SER759  ASP760  ASP761  ALA762  ILE779  LEU786  VAL792 
 PHE793  MET794  SER795  GLU796  ALA797  LYS798  CYS799  TRP800  GLU811  SER814 

> <Gold.Protein.RotatedAtoms>
  151.2188  133.4514  159.2599 H   0  0  0  0  0  0  0  0  0  0  0  0  # atno 6907 bound_to 6896
  151.0905  134.9913  159.8410 H   0  0  0  0  0  0  0  0  0  0  0  0  # atno 6908 bound_to 6896
  152.5434  134.2121  159.8807 H   0  0  0  0  0  0  0  0  0  0  0  0  # atno 6909 bound_to 6896
  146.0713  140.6206  142.8951 H   0  0  0  0  0  0  0  0  0  0  0  0  # atno 7974 bound_to 7965
  154.6536  140.0576  156.9983 H   0  0  0  0  0  0  0  0  0  0  0  0  # atno 8008 bound_to 7997
  155.1334  140.3258  155.4450 H   0  0  0  0  0  0  0  0  0  0  0  0  # atno 8009 bound_to 7997
  156.2587  140.1977  156.6452 H   0  0  0  0  0  0  0  0  0  0  0  0  # atno 8010 bound_to 7997
  140.4764  144.0683  150.6252 H   0  0  0  0  0  0  0  0  0  0  0  0  # atno 10167 bound_to 10162
  156.0431  130.5657  150.7806 H   0  0  0  0  0  0  0  0  0  0  0  0  # atno 10718 bound_to 10713
  154.2722  135.2765  155.2733 H   0  0  0  0  0  0  0  0  0  0  0  0  # atno 10763 bound_to 10752
  154.5292  135.5734  153.6748 H   0  0  0  0  0  0  0  0  0  0  0  0  # atno 10764 bound_to 10752
  152.9943  135.6223  154.2877 H   0  0  0  0  0  0  0  0  0  0  0  0  # atno 10765 bound_to 10752
  140.2260  134.3584  155.7984 H   0  0  0  0  0  0  0  0  0  0  0  0  # atno 11005 bound_to 11000
  144.7233  140.4446  143.6991 LP  0  0  0  0  0  0  0  0  0  0  0  0  # atno 17320 bound_to 7965
  145.6386  139.1546  143.2928 LP  0  0  0  0  0  0  0  0  0  0  0  0  # atno 17321 bound_to 7965
  140.3913  143.2751  152.0057 LP  0  0  0  0  0  0  0  0  0  0  0  0  # atno 17342 bound_to 10162
  139.4826  144.6075  151.7494 LP  0  0  0  0  0  0  0  0  0  0  0  0  # atno 17343 bound_to 10162
  157.5274  131.0935  150.9999 LP  0  0  0  0  0  0  0  0  0  0  0  0  # atno 17370 bound_to 10713
  157.0314  130.5713  149.5343 LP  0  0  0  0  0  0  0  0  0  0  0  0  # atno 17371 bound_to 10713
  141.2220  133.7219  156.8654 LP  0  0  0  0  0  0  0  0  0  0  0  0  # atno 17394 bound_to 11000
  140.1799  134.9040  157.2936 LP  0  0  0  0  0  0  0  0  0  0  0  0  # atno 17395 bound_to 11000

$$$$
