AV-unprocessed.smi:243|AV-procd|sdf|1857|dock1
  -GOLD-   2262020483D 1   1.00000     0.00000
 Structure written by MMmdl.
 58 61  0  0  0  0  0  0  0  0  2 V2000
  146.1430  129.8579  152.2280 C   0  0  0  0  0  0  0  0  0  0  0  0
  145.4652  130.9919  151.4463 C   0  0  0  0  0  0  0  0  0  0  0  0
  146.4009  132.1013  151.1192 N   0  3  1  0  0  0  0  0  0  0  0  0
  145.8687  133.0408  150.1001 C   0  0  0  0  0  0  0  0  0  0  0  0
  144.7713  133.9472  150.6813 C   0  0  0  0  0  0  0  0  0  0  0  0
  145.2823  134.7165  151.9205 C   0  0  1  0  0  0  0  0  0  0  0  0
  144.2805  135.6452  152.4669 N   0  0  0  0  0  0  0  0  0  0  0  0
  142.9023  135.1794  152.5789 C   0  0  0  0  0  0  0  0  0  0  0  0
  144.6024  136.6443  153.3318 C   0  0  0  0  0  0  0  0  0  0  0  0
  143.9994  136.7213  154.5471 N   0  0  0  0  0  0  0  0  0  0  0  0
  144.3039  137.7080  155.3945 C   0  0  0  0  0  0  0  0  0  0  0  0
  145.1710  138.7080  155.2319 N   0  0  0  0  0  0  0  0  0  0  0  0
  145.7835  138.6384  154.0155 C   0  0  0  0  0  0  0  0  0  0  0  0
  145.5556  137.6532  153.0130 C   0  0  0  0  0  0  0  0  0  0  0  0
  146.3624  137.9077  151.9103 N   0  0  0  0  0  0  0  0  0  0  0  0
  147.0239  138.9832  152.2394 C   0  0  0  0  0  0  0  0  0  0  0  0
  146.7468  139.4831  153.4919 N   0  0  0  0  0  0  0  0  0  0  0  0
  147.3412  140.6585  154.1107 C   0  0  0  0  0  0  0  0  0  0  0  0
  148.8329  140.4755  154.4788 C   0  0  1  0  0  0  0  0  0  0  0  0
  149.6260  140.7691  153.3411 O   0  0  0  0  0  0  0  0  0  0  0  0
  149.2800  141.3808  155.6191 C   0  0  0  0  0  0  0  0  0  0  0  0
  150.4189  140.5890  156.2479 C   0  0  0  0  0  0  0  0  0  0  0  0
  149.9467  139.2534  156.1939 O   0  0  0  0  0  0  0  0  0  0  0  0
  149.2094  139.0684  154.9883 C   0  0  0  0  0  0  0  0  0  0  0  0
  145.9073  133.7542  152.9690 C   0  0  2  0  0  0  0  0  0  0  0  0
  146.5596  134.5178  154.1352 C   0  0  0  0  0  0  0  0  0  0  0  0
  146.9487  132.8321  152.2942 C   0  0  0  0  0  0  0  0  0  0  0  0
  145.4598  129.0169  152.3498 H   0  0  0  0  0  0  0  0  0  0  0  0
  146.4454  130.1723  153.2264 H   0  0  0  0  0  0  0  0  0  0  0  0
  147.0268  129.4907  151.7054 H   0  0  0  0  0  0  0  0  0  0  0  0
  145.0855  130.5689  150.5156 H   0  0  0  0  0  0  0  0  0  0  0  0
  144.5940  131.3585  151.9888 H   0  0  0  0  0  0  0  0  0  0  0  0
  146.6913  133.6551  149.7317 H   0  0  0  0  0  0  0  0  0  0  0  0
  145.4927  132.4897  149.2374 H   0  0  0  0  0  0  0  0  0  0  0  0
  144.4442  134.6483  149.9131 H   0  0  0  0  0  0  0  0  0  0  0  0
  143.8996  133.3414  150.9236 H   0  0  0  0  0  0  0  0  0  0  0  0
  146.0987  135.3511  151.5718 H   0  0  0  0  0  0  0  0  0  0  0  0
  142.5574  135.2081  153.6134 H   0  0  0  0  0  0  0  0  0  0  0  0
  142.8004  134.1539  152.2235 H   0  0  0  0  0  0  0  0  0  0  0  0
  142.2408  135.8030  151.9775 H   0  0  0  0  0  0  0  0  0  0  0  0
  143.7771  137.6949  156.3372 H   0  0  0  0  0  0  0  0  0  0  0  0
  147.7435  139.4407  151.5758 H   0  0  0  0  0  0  0  0  0  0  0  0
  147.2214  141.5015  153.4287 H   0  0  0  0  0  0  0  0  0  0  0  0
  146.7624  140.9040  155.0021 H   0  0  0  0  0  0  0  0  0  0  0  0
  149.3435  140.2151  152.6291 H   0  0  0  0  0  0  0  0  0  0  0  0
  149.5767  142.3801  155.2980 H   0  0  0  0  0  0  0  0  0  0  0  0
  148.4789  141.4912  156.3513 H   0  0  0  0  0  0  0  0  0  0  0  0
  151.3323  140.6787  155.6578 H   0  0  0  0  0  0  0  0  0  0  0  0
  150.6359  140.8987  157.2703 H   0  0  0  0  0  0  0  0  0  0  0  0
  148.3324  138.4675  155.2257 H   0  0  0  0  0  0  0  0  0  0  0  0
  149.8014  138.5085  154.2628 H   0  0  0  0  0  0  0  0  0  0  0  0
  145.1371  133.1162  153.3979 H   0  0  0  0  0  0  0  0  0  0  0  0
  147.3387  135.1936  153.7814 H   0  0  0  0  0  0  0  0  0  0  0  0
  147.0146  133.8302  154.8485 H   0  0  0  0  0  0  0  0  0  0  0  0
  145.8294  135.1127  154.6842 H   0  0  0  0  0  0  0  0  0  0  0  0
  147.3645  132.1320  153.0180 H   0  0  0  0  0  0  0  0  0  0  0  0
  147.7919  133.4328  151.9493 H   0  0  0  0  0  0  0  0  0  0  0  0
  147.1912  131.6513  150.6792 H   0  0  0  0  0  0  0  0  0  0  0  0
  1  2  1  0  0  0  0
  1 28  1  0  0  0  0
  1 29  1  0  0  0  0
  1 30  1  0  0  0  0
  2  3  1  0  0  0  0
  2 31  1  0  0  0  0
  2 32  1  0  0  0  0
  3 27  1  0  0  0  0
  3  4  1  0  0  0  0
  3 58  1  0  0  0  0
  4  5  1  0  0  0  0
  4 33  1  0  0  0  0
  4 34  1  0  0  0  0
  5  6  1  0  0  0  0
  5 35  1  0  0  0  0
  5 36  1  0  0  0  0
  6  7  1  0  0  0  0
  6 25  1  0  0  0  0
  6 37  1  0  0  0  0
  7  8  1  0  0  0  0
  7  9  1  0  0  0  0
  8 38  1  0  0  0  0
  8 39  1  0  0  0  0
  8 40  1  0  0  0  0
  9 14  1  0  0  0  0
  9 10  2  0  0  0  0
 10 11  1  0  0  0  0
 11 12  2  0  0  0  0
 11 41  1  0  0  0  0
 12 13  1  0  0  0  0
 13 17  1  0  0  0  0
 13 14  2  0  0  0  0
 14 15  1  0  0  0  0
 15 16  2  0  0  0  0
 16 17  1  0  0  0  0
 16 42  1  0  0  0  0
 17 18  1  0  0  0  0
 18 19  1  0  0  0  0
 18 43  1  0  0  0  0
 18 44  1  0  0  0  0
 19 24  1  0  0  0  0
 19 20  1  0  0  0  0
 19 21  1  0  0  0  0
 20 45  1  0  0  0  0
 21 22  1  0  0  0  0
 21 46  1  0  0  0  0
 21 47  1  0  0  0  0
 22 23  1  0  0  0  0
 22 48  1  0  0  0  0
 22 49  1  0  0  0  0
 23 24  1  0  0  0  0
 24 50  1  0  0  0  0
 24 51  1  0  0  0  0
 25 26  1  0  0  0  0
 25 27  1  0  0  0  0
 25 52  1  0  0  0  0
 26 53  1  0  0  0  0
 26 54  1  0  0  0  0
 26 55  1  0  0  0  0
 27 56  1  0  0  0  0
 27 57  1  0  0  0  0
M  CHG  1   3   1
M  END
> <s_m_source_file>
AV-unprocessed.smi

> <i_m_source_file_index>
243

> <i_lp_mmshare_version>
43012

> <i_f3d_flags>
0

> <s_epik_input>
W0NIM11bQ0gyXU4xW0NIMl1bQ0gyXVtDQEhdKFtDQEBIXShbQ0gzXSlbQ0gyXTEpTihbQ0gzXSljKG5bY0hdbjIpYyhjMjMpbltjSF1uM1tDSDJdW0NAQF00KFtPSF0pW0NIMl1bQ0gyXU9bQ0gyXTQ=

> <s_epik_cmdline>
J2VwaWtfcHl0aG9uJywgJy1waCcsICc3LjAnLCAnLXRuJywgJzgnLCAnLW1hJywgJzIwMCcsICctbWV0YWxfYmluZGluZycsICctaW1hZScsICc8aW5maWxlLm1hZT4nLCAnLW9tYWUnLCAnPG91dGZpbGUubWFlPic=

> <r_lp_tautomer_probability>
1

> <r_epik_Ionization_Penalty>
0.00253099

> <r_epik_Ionization_Penalty_Charging>
0.00137877

> <r_epik_Ionization_Penalty_Neutral>
0.00115221

> <r_epik_State_Penalty>
-0

> <r_epik_Charging_Adjusted_Penalty>
0.00137877

> <i_epik_Tot_Q>
1

> <i_epik_Tot_abs_Q>
1

> <r_epik_Metal_State_Penalty>
-0

> <b_epik_Metal_Only>
0

> <s_lp_Force_Field>
OPLS_2005

> <r_lp_Energy>
46.501

> <b_lp_Chiralities_Consistent>
1

> <s_lp_Variant>
AV-unprocessed.smi:243-10

> <Gold.Version>
5.8.1

> <Gold.Id.Protein>
6NUR|6NUR_protein|mol2

> <Gold.PLP.Fitness>
48.1555

> <Gold.PLP.PLP>
-39.3456

> <Gold.PLP.part.hbond>
-2.6890

> <Gold.PLP.part.metal>
0.0000

> <Gold.PLP.part.buried>
-6.2088

> <Gold.PLP.part.nonpolar>
-32.0982

> <Gold.PLP.part.repulsive>
0.5256

> <Gold.PLP.ligand.clash>
0.0128

> <Gold.PLP.ligand.torsion>
1.6827

> <Gold.PLP.Chemscore.Hbond>
2.7225

> <Gold.PLP.Chemscore.CHOScore>
1.0000

> <Gold.PLP.Chemscore.Metal>
0.0000

> <Gold.Chemscore.Hbonds>
donor molecule, donor type, donor heavy atom, donor atom, acceptor molecule, acceptor atom, score
      L1  H     3    58       P1 10747  1.00
      L1  H    20    45       P1  7957  0.71
      P1  H  7989  7998       L1    20  0.29
      P1  H  8011  8017       L1    20  0.85
      L1  C    16    42       P1  7957  0.83

> <Gold.PLP.Chemscore.Internal.Correction>
1.0205

> <Gold.Rescore>
     Score         DG    S(hbond)    S(metal)    S(lipo)     H(rot)  DE(clash)    DE(int)     intcor
     14.91     -17.32       2.09        0.00      90.51       2.24       0.14       2.27       ----

> <Gold.Chemscore.Fitness>
14.9051

> <Gold.Chemscore.DG>
-17.3165

> <Gold.Chemscore.ZeroCoef>
-5.4800

> <Gold.Chemscore.Hbond>
2.0888

> <Gold.Chemscore.Metal>
0.0000

> <Gold.Chemscore.Lipo>
90.5059

> <Gold.Chemscore.Internal_Hbond>
0.0000

> <Gold.Chemscore.DEClash>
0.1424

> <Gold.Chemscore.DEInternal>
2.2690

> <Gold.Chemscore.Rot>
2.2379

> <Gold.Chemscore.Internal.Correction>
   9.000000E+99

> <Gold.Chemscore.Hbonds>
donor molecule, donor type, donor heavy atom, donor atom, acceptor molecule, acceptor atom, score
      L1  H     3    58       P1 10747  0.97
      L1  H    20    45       P1  7957  0.67
      P1  H  7989  7998       L1    20  0.24
      P1  H  8011  8017       L1    20  0.15

> <Gold.Chemscore.Hbond.Weighted>
-6.9764

> <Gold.Chemscore.Metal.Weighted>
-0.0000

> <Gold.Chemscore.Lipo.Weighted>
-10.5892

> <Gold.Chemscore.Internal_Hbond.Weighted>
0.0000

> <Gold.Chemscore.DEClash.Weighted>
0.1424

> <Gold.Chemscore.DEInternal.Weighted>
2.2690

> <Gold.Chemscore.Rot.Weighted>
5.7291

> <Gold.Chemscore.Internal.Correction.Weighted>
   9.000000E+99

> <Gold.Protein.RotatedTorsions>
[ 6907 6896 6895 6894 ] final  -96.55 input  -60.11 | X-H torsion
[ 7974 7965 7964 7962 ] final    4.90 input  175.53 | X-H torsion
[ 8008 7997 7996 7995 ] final  -19.90 input   59.86 | X-H torsion
[ 10167 10162 10161 10158 ] final  -33.30 input  -65.29 | X-H torsion
[ 10718 10713 10712 10709 ] final    3.71 input   66.30 | X-H torsion
[ 10763 10752 10751 10750 ] final  152.09 input  -60.55 | X-H torsion
[ 11005 11000 10999 10996 ] final  178.80 input  -57.11 | X-H torsion

> <Gold.Protein.ActiveResidues>
 VAL166  LYS551  ARG553  GLY616  TRP617  ASP618  TYR619  PRO620  LYS621  CYS622 
 ASP623  PHE694  ASN695  SER759  ASP760  ASP761  ALA762  ILE779  LEU786  VAL792 
 PHE793  MET794  SER795  GLU796  ALA797  LYS798  CYS799  TRP800  GLU811  SER814 

> <Gold.Protein.RotatedAtoms>
  150.6992  134.1485  159.4131 H   0  0  0  0  0  0  0  0  0  0  0  0  # atno 6907 bound_to 6896
  151.9468  135.0185  160.0549 H   0  0  0  0  0  0  0  0  0  0  0  0  # atno 6908 bound_to 6896
  152.2045  133.4830  159.5113 H   0  0  0  0  0  0  0  0  0  0  0  0  # atno 6909 bound_to 6896
  146.2442  140.0464  142.8378 H   0  0  0  0  0  0  0  0  0  0  0  0  # atno 7974 bound_to 7965
  154.4806  140.2076  155.9774 H   0  0  0  0  0  0  0  0  0  0  0  0  # atno 8008 bound_to 7997
  156.1158  140.3221  155.8107 H   0  0  0  0  0  0  0  0  0  0  0  0  # atno 8009 bound_to 7997
  155.4555  140.0520  157.2987 H   0  0  0  0  0  0  0  0  0  0  0  0  # atno 8010 bound_to 7997
  140.7207  143.3631  151.1925 H   0  0  0  0  0  0  0  0  0  0  0  0  # atno 10167 bound_to 10162
  156.8819  130.5656  149.5653 H   0  0  0  0  0  0  0  0  0  0  0  0  # atno 10718 bound_to 10713
  154.1144  135.2837  155.3223 H   0  0  0  0  0  0  0  0  0  0  0  0  # atno 10763 bound_to 10752
  154.6467  135.5383  153.7857 H   0  0  0  0  0  0  0  0  0  0  0  0  # atno 10764 bound_to 10752
  153.0334  135.6500  154.1301 H   0  0  0  0  0  0  0  0  0  0  0  0  # atno 10765 bound_to 10752
  140.3991  134.6794  157.4551 H   0  0  0  0  0  0  0  0  0  0  0  0  # atno 11005 bound_to 11000
  145.1023  140.9353  143.4705 LP  0  0  0  0  0  0  0  0  0  0  0  0  # atno 17320 bound_to 7965
  145.0660  139.3068  143.5856 LP  0  0  0  0  0  0  0  0  0  0  0  0  # atno 17321 bound_to 7965
  139.7186  143.9259  152.2977 LP  0  0  0  0  0  0  0  0  0  0  0  0  # atno 17342 bound_to 10162
  139.9009  144.6912  150.8667 LP  0  0  0  0  0  0  0  0  0  0  0  0  # atno 17343 bound_to 10162
  156.0673  130.5713  150.9314 LP  0  0  0  0  0  0  0  0  0  0  0  0  # atno 17370 bound_to 10713
  157.6135  131.0935  150.8752 LP  0  0  0  0  0  0  0  0  0  0  0  0  # atno 17371 bound_to 10713
  140.0350  134.6351  155.9056 LP  0  0  0  0  0  0  0  0  0  0  0  0  # atno 17394 bound_to 11000
  141.1863  133.6557  156.5235 LP  0  0  0  0  0  0  0  0  0  0  0  0  # atno 17395 bound_to 11000

$$$$
