AV-unprocessed.smi:1616|AV-procd|sdf|6482|dock7
  -GOLD-   22720 7143D 1   1.00000     0.00000
 Structure written by MMmdl.
 38 39  0  0  0  0  0  0  0  0  1 V2000
  146.6887  137.3678  162.8274 C   0  0  0  0  0  0  0  0  0  0  0  0
  147.2555  136.5301  161.7131 C   0  0  0  0  0  0  0  0  0  0  0  0
  147.9813  137.1436  160.8374 N   0  0  0  0  0  0  0  0  0  0  0  0
  148.5444  136.4705  159.7705 N   0  0  0  0  0  0  0  0  0  0  0  0
  149.3185  137.3304  158.8628 C   0  0  0  0  0  0  0  0  0  0  0  0
  148.5727  137.6880  157.5683 C   0  0  0  0  0  0  0  0  0  0  0  0
  147.4119  137.3193  157.3814 O   0  0  0  0  0  0  0  0  0  0  0  0
  149.2614  138.4258  156.6838 N   0  0  0  0  0  0  0  0  0  0  0  0
  148.7603  138.8958  155.3960 C   0  0  2  0  0  0  0  0  0  0  0  0
  149.7775  138.5656  154.2923 C   0  0  0  0  0  0  0  0  0  0  0  0
  148.4354  140.3775  155.4071 C   0  0  0  0  0  0  0  0  0  0  0  0
  148.2575  141.1466  154.1199 C   0  0  0  0  0  0  0  0  0  0  0  0
  149.4638  141.4037  154.9953 C   0  0  0  0  0  0  0  0  0  0  0  0
  148.4069  135.1335  159.5357 C   0  0  0  0  0  0  0  0  0  0  0  0
  148.9269  134.5739  158.5692 O   0  0  0  0  0  0  0  0  0  0  0  0
  147.5866  134.4439  160.5343 C   0  0  0  0  0  0  0  0  0  0  0  0
  147.4152  133.0423  160.3262 C   0  0  0  0  0  0  0  0  0  0  0  0
  147.2915  131.9014  160.1725 N   0  0  0  0  0  0  0  0  0  0  0  0
  147.0260  135.0947  161.5845 C   0  0  0  0  0  0  0  0  0  0  0  0
  146.1636  134.4263  162.6467 C   0  0  0  0  0  0  0  0  0  0  0  0
  147.0625  137.0296  163.7942 H   0  0  0  0  0  0  0  0  0  0  0  0
  145.6004  137.3046  162.8436 H   0  0  0  0  0  0  0  0  0  0  0  0
  146.9549  138.4207  162.7211 H   0  0  0  0  0  0  0  0  0  0  0  0
  149.5855  138.2613  159.3666 H   0  0  0  0  0  0  0  0  0  0  0  0
  150.2678  136.8535  158.6113 H   0  0  0  0  0  0  0  0  0  0  0  0
  150.2078  138.6851  156.9220 H   0  0  0  0  0  0  0  0  0  0  0  0
  147.8338  138.3656  155.1671 H   0  0  0  0  0  0  0  0  0  0  0  0
  149.4096  138.8783  153.3145 H   0  0  0  0  0  0  0  0  0  0  0  0
  149.9727  137.4940  154.2399 H   0  0  0  0  0  0  0  0  0  0  0  0
  150.7291  139.0692  154.4660 H   0  0  0  0  0  0  0  0  0  0  0  0
  147.7840  140.6729  156.2278 H   0  0  0  0  0  0  0  0  0  0  0  0
  148.4201  140.6149  153.1845 H   0  0  0  0  0  0  0  0  0  0  0  0
  147.4825  141.9097  154.0938 H   0  0  0  0  0  0  0  0  0  0  0  0
  149.4917  142.3379  155.5521 H   0  0  0  0  0  0  0  0  0  0  0  0
  150.4269  141.0432  154.6395 H   0  0  0  0  0  0  0  0  0  0  0  0
  146.0808  133.3506  162.4945 H   0  0  0  0  0  0  0  0  0  0  0  0
  145.1542  134.8383  162.6331 H   0  0  0  0  0  0  0  0  0  0  0  0
  146.5862  134.5828  163.6397 H   0  0  0  0  0  0  0  0  0  0  0  0
  1  2  1  0  0  0  0
  1 21  1  0  0  0  0
  1 22  1  0  0  0  0
  1 23  1  0  0  0  0
  2 19  1  0  0  0  0
  2  3  2  0  0  0  0
  3  4  1  0  0  0  0
  4  5  1  0  0  0  0
  4 14  1  0  0  0  0
  5  6  1  0  0  0  0
  5 24  1  0  0  0  0
  5 25  1  0  0  0  0
  6  7  2  0  0  0  0
  6  8  1  0  0  0  0
  8  9  1  0  0  0  0
  8 26  1  0  0  0  0
  9 10  1  0  0  0  0
  9 11  1  0  0  0  0
  9 27  1  0  0  0  0
 10 28  1  0  0  0  0
 10 29  1  0  0  0  0
 10 30  1  0  0  0  0
 11 13  1  0  0  0  0
 11 12  1  0  0  0  0
 11 31  1  0  0  0  0
 12 13  1  0  0  0  0
 12 32  1  0  0  0  0
 12 33  1  0  0  0  0
 13 34  1  0  0  0  0
 13 35  1  0  0  0  0
 14 15  2  0  0  0  0
 14 16  1  0  0  0  0
 16 17  1  0  0  0  0
 16 19  2  0  0  0  0
 17 18  3  0  0  0  0
 19 20  1  0  0  0  0
 20 36  1  0  0  0  0
 20 37  1  0  0  0  0
 20 38  1  0  0  0  0
M  END
> <s_m_source_file>
AV-unprocessed.smi

> <i_m_source_file_index>
1616

> <i_lp_mmshare_version>
43012

> <i_f3d_flags>
0

> <s_epik_input>
TiNDYyhjMVtDSDNdKWMoPU8pbihuYzFbQ0gzXSlbQ0gyXUMoPU8pW05IXVtDQEhdKFtDSDNdKVtDSF0yW0NIMl1bQ0gyXTI=

> <s_epik_cmdline>
J2VwaWtfcHl0aG9uJywgJy1waCcsICc3LjAnLCAnLXRuJywgJzgnLCAnLW1hJywgJzIwMCcsICctbWV0YWxfYmluZGluZycsICctaW1hZScsICc8aW5maWxlLm1hZT4nLCAnLW9tYWUnLCAnPG91dGZpbGUubWFlPic=

> <r_lp_tautomer_probability>
1

> <r_epik_Ionization_Penalty>
1.93246e-08

> <r_epik_Ionization_Penalty_Charging>
2.27031e-11

> <r_epik_Ionization_Penalty_Neutral>
1.93019e-08

> <r_epik_State_Penalty>
-0

> <r_epik_Charging_Adjusted_Penalty>
2.27031e-11

> <i_epik_Tot_Q>
0

> <i_epik_Tot_abs_Q>
0

> <r_epik_Metal_State_Penalty>
-0

> <b_epik_Metal_Only>
0

> <s_lp_Force_Field>
OPLS_2005

> <r_lp_Energy>
28.018

> <b_lp_Chiralities_Consistent>
1

> <s_lp_Variant>
AV-unprocessed.smi:1616-1

> <Gold.Version>
5.8.1

> <Gold.Id.Protein>
6NUR|6NUR_protein|mol2

> <Gold.PLP.Fitness>
39.0869

> <Gold.PLP.PLP>
-31.8829

> <Gold.PLP.part.hbond>
-3.0000

> <Gold.PLP.part.metal>
0.0000

> <Gold.PLP.part.buried>
-3.0750

> <Gold.PLP.part.nonpolar>
-26.8698

> <Gold.PLP.part.repulsive>
0.0002

> <Gold.PLP.ligand.clash>
0.0000

> <Gold.PLP.ligand.torsion>
0.9257

> <Gold.PLP.Chemscore.Hbond>
2.6640

> <Gold.PLP.Chemscore.CHOScore>
0.0000

> <Gold.PLP.Chemscore.Metal>
0.0000

> <Gold.Chemscore.Hbonds>
donor molecule, donor type, donor heavy atom, donor atom, acceptor molecule, acceptor atom, score
      P1  H  6896  6908       L1    15  1.00
      P1  H  6931  6943       L1     3  0.90
      P1  H  6934  6947       L1     3  0.75

> <Gold.PLP.Chemscore.Internal.Correction>
1.0635

> <Gold.Rescore>
     Score         DG    S(hbond)    S(metal)    S(lipo)     H(rot)  DE(clash)    DE(int)     intcor
     14.94     -15.81       1.92        0.00      70.17       1.68       0.01       0.87       ----

> <Gold.Chemscore.Fitness>
14.9386

> <Gold.Chemscore.DG>
-15.8127

> <Gold.Chemscore.ZeroCoef>
-5.4800

> <Gold.Chemscore.Hbond>
1.9240

> <Gold.Chemscore.Metal>
0.0000

> <Gold.Chemscore.Lipo>
70.1677

> <Gold.Chemscore.Internal_Hbond>
0.0000

> <Gold.Chemscore.DEClash>
0.0073

> <Gold.Chemscore.DEInternal>
0.8668

> <Gold.Chemscore.Rot>
1.6809

> <Gold.Chemscore.Internal.Correction>
   9.000000E+99

> <Gold.Chemscore.Hbonds>
donor molecule, donor type, donor heavy atom, donor atom, acceptor molecule, acceptor atom, score
      P1  H  6896  6908       L1    15  0.28
      P1  H  6931  6943       L1     3  0.34
      P1  H  6934  6947       L1     3  0.22

> <Gold.Chemscore.Hbond.Weighted>
-6.4261

> <Gold.Chemscore.Metal.Weighted>
-0.0000

> <Gold.Chemscore.Lipo.Weighted>
-8.2096

> <Gold.Chemscore.Internal_Hbond.Weighted>
0.0000

> <Gold.Chemscore.DEClash.Weighted>
0.0073

> <Gold.Chemscore.DEInternal.Weighted>
0.8668

> <Gold.Chemscore.Rot.Weighted>
4.3030

> <Gold.Chemscore.Internal.Correction.Weighted>
   9.000000E+99

> <Gold.Protein.RotatedTorsions>
[ 6907 6896 6895 6894 ] final  133.04 input  -60.11 | X-H torsion
[ 7974 7965 7964 7962 ] final -147.46 input  175.53 | X-H torsion
[ 8008 7997 7996 7995 ] final   56.27 input   59.86 | X-H torsion
[ 10167 10162 10161 10158 ] final -138.74 input  -65.29 | X-H torsion
[ 10718 10713 10712 10709 ] final -110.57 input   66.30 | X-H torsion
[ 10763 10752 10751 10750 ] final  -42.80 input  -60.55 | X-H torsion
[ 11005 11000 10999 10996 ] final -125.38 input  -57.11 | X-H torsion

> <Gold.Protein.ActiveResidues>
 VAL166  LYS551  ARG553  GLY616  TRP617  ASP618  TYR619  PRO620  LYS621  CYS622 
 ASP623  PHE694  ASN695  SER759  ASP760  ASP761  ALA762  ILE779  LEU786  VAL792 
 PHE793  MET794  SER795  GLU796  ALA797  LYS798  CYS799  TRP800  GLU811  SER814 

> <Gold.Protein.RotatedAtoms>
  152.3261  133.5906  159.5777 H   0  0  0  0  0  0  0  0  0  0  0  0  # atno 6907 bound_to 6896
  150.7397  133.9938  159.3625 H   0  0  0  0  0  0  0  0  0  0  0  0  # atno 6908 bound_to 6896
  151.7818  135.0760  160.0426 H   0  0  0  0  0  0  0  0  0  0  0  0  # atno 6909 bound_to 6896
  144.8092  140.5324  143.5654 H   0  0  0  0  0  0  0  0  0  0  0  0  # atno 7974 bound_to 7965
  155.5148  140.3478  155.4395 H   0  0  0  0  0  0  0  0  0  0  0  0  # atno 8008 bound_to 7997
  156.0825  140.1390  156.9722 H   0  0  0  0  0  0  0  0  0  0  0  0  # atno 8009 bound_to 7997
  154.4588  140.0943  156.6810 H   0  0  0  0  0  0  0  0  0  0  0  0  # atno 8010 bound_to 7997
  139.8448  143.7275  152.2661 H   0  0  0  0  0  0  0  0  0  0  0  0  # atno 10167 bound_to 10162
  156.0598  130.5822  150.8256 H   0  0  0  0  0  0  0  0  0  0  0  0  # atno 10718 bound_to 10713
  153.9850  135.6712  153.4751 H   0  0  0  0  0  0  0  0  0  0  0  0  # atno 10763 bound_to 10752
  153.0731  135.4963  154.8343 H   0  0  0  0  0  0  0  0  0  0  0  0  # atno 10764 bound_to 10752
  154.7143  135.3103  154.9111 H   0  0  0  0  0  0  0  0  0  0  0  0  # atno 10765 bound_to 10752
  140.9767  134.0731  157.3811 H   0  0  0  0  0  0  0  0  0  0  0  0  # atno 11005 bound_to 11000
  145.5364  139.1475  143.3471 LP  0  0  0  0  0  0  0  0  0  0  0  0  # atno 17320 bound_to 7965
  146.2388  140.5504  142.8943 LP  0  0  0  0  0  0  0  0  0  0  0  0  # atno 17321 bound_to 7965
  139.7523  144.7530  151.0488 LP  0  0  0  0  0  0  0  0  0  0  0  0  # atno 17342 bound_to 10162
  140.7794  143.4846  150.9973 LP  0  0  0  0  0  0  0  0  0  0  0  0  # atno 17343 bound_to 10162
  157.5598  131.0945  150.9575 LP  0  0  0  0  0  0  0  0  0  0  0  0  # atno 17370 bound_to 10713
  156.9816  130.5529  149.5296 LP  0  0  0  0  0  0  0  0  0  0  0  0  # atno 17371 bound_to 10713
  139.8933  135.0130  156.6893 LP  0  0  0  0  0  0  0  0  0  0  0  0  # atno 17394 bound_to 11000
  140.7249  133.9109  155.8171 LP  0  0  0  0  0  0  0  0  0  0  0  0  # atno 17395 bound_to 11000

$$$$
