AV-unprocessed.smi:2032|AV-procd|sdf|8236|dock6
  -GOLD-   2272010503D 1   1.00000     0.00000
 Structure written by MMmdl.
 42 43  0  0  0  0  0  0  0  0  1 V2000
  148.8158  140.7982  154.1340 C   0  0  0  0  0  0  0  0  0  0  0  0
  149.7001  140.0457  155.1338 C   0  0  1  0  0  0  0  0  0  0  0  0
  149.6269  138.5216  154.9356 C   0  0  0  0  0  0  0  0  0  0  0  0
  150.5267  137.7948  155.8332 N   0  0  0  0  0  0  0  0  0  0  0  0
  150.4291  136.3273  155.6705 C   0  0  1  0  0  0  0  0  0  0  0  0
  151.3515  135.5382  156.6270 C   0  0  0  0  0  0  0  0  0  0  0  0
  148.9868  135.7721  155.8104 C   0  0  0  0  0  0  0  0  0  0  0  0
  148.3325  136.2241  157.0370 N   0  0  0  0  0  0  0  0  0  0  0  0
  148.4488  135.6510  158.2431 C   0  0  0  0  0  0  0  0  0  0  0  0
  149.1153  134.6373  158.4544 O   0  0  0  0  0  0  0  0  0  0  0  0
  147.7529  136.3314  159.1708 N   0  0  0  0  0  0  0  0  0  0  0  0
  147.6397  136.0577  160.5591 C   0  0  0  0  0  0  0  0  0  0  0  0
  147.7061  136.9872  161.5195 N   0  0  0  0  0  0  0  0  0  0  0  0
  147.5627  136.4347  162.7948 C   0  0  0  0  0  0  0  0  0  0  0  0
  147.3858  135.0735  162.7867 C   0  0  0  0  0  0  0  0  0  0  0  0
  147.3930  134.4271  161.1673 S   0  0  0  0  0  0  0  0  0  0  0  0
  151.8868  138.2961  155.6173 C   0  0  0  0  0  0  0  0  0  0  0  0
  152.0065  139.8255  155.7717 C   0  0  2  0  0  0  0  0  0  0  0  0
  151.9342  140.2974  157.2340 C   0  0  0  0  0  0  0  0  0  0  0  0
  151.0427  140.4852  154.9528 O   0  0  0  0  0  0  0  0  0  0  0  0
  147.7715  140.5010  154.2321 H   0  0  0  0  0  0  0  0  0  0  0  0
  149.1254  140.6010  153.1073 H   0  0  0  0  0  0  0  0  0  0  0  0
  148.8716  141.8745  154.2982 H   0  0  0  0  0  0  0  0  0  0  0  0
  149.3675  140.2974  156.1413 H   0  0  0  0  0  0  0  0  0  0  0  0
  148.5939  138.2228  155.1049 H   0  0  0  0  0  0  0  0  0  0  0  0
  149.8606  138.2738  153.8989 H   0  0  0  0  0  0  0  0  0  0  0  0
  150.7543  136.0800  154.6588 H   0  0  0  0  0  0  0  0  0  0  0  0
  151.1593  134.4665  156.5674 H   0  0  0  0  0  0  0  0  0  0  0  0
  151.2066  135.8407  157.6646 H   0  0  0  0  0  0  0  0  0  0  0  0
  152.4050  135.6699  156.3826 H   0  0  0  0  0  0  0  0  0  0  0  0
  148.3710  136.0790  154.9659 H   0  0  0  0  0  0  0  0  0  0  0  0
  148.9950  134.6822  155.7548 H   0  0  0  0  0  0  0  0  0  0  0  0
  147.7688  137.0582  156.9625 H   0  0  0  0  0  0  0  0  0  0  0  0
  147.2522  137.1460  158.8478 H   0  0  0  0  0  0  0  0  0  0  0  0
  147.5995  137.0859  163.6557 H   0  0  0  0  0  0  0  0  0  0  0  0
  147.2526  134.4149  163.6320 H   0  0  0  0  0  0  0  0  0  0  0  0
  152.5842  137.8366  156.3161 H   0  0  0  0  0  0  0  0  0  0  0  0
  152.2199  138.0149  154.6171 H   0  0  0  0  0  0  0  0  0  0  0  0
  152.9836  140.1238  155.3909 H   0  0  0  0  0  0  0  0  0  0  0  0
  152.7526  139.8751  157.8178 H   0  0  0  0  0  0  0  0  0  0  0  0
  151.0039  139.9989  157.7168 H   0  0  0  0  0  0  0  0  0  0  0  0
  152.0106  141.3830  157.2963 H   0  0  0  0  0  0  0  0  0  0  0  0
  1  2  1  0  0  0  0
  1 21  1  0  0  0  0
  1 22  1  0  0  0  0
  1 23  1  0  0  0  0
  2 20  1  0  0  0  0
  2  3  1  0  0  0  0
  2 24  1  0  0  0  0
  3  4  1  0  0  0  0
  3 25  1  0  0  0  0
  3 26  1  0  0  0  0
  4  5  1  0  0  0  0
  4 17  1  0  0  0  0
  5  6  1  0  0  0  0
  5  7  1  0  0  0  0
  5 27  1  0  0  0  0
  6 28  1  0  0  0  0
  6 29  1  0  0  0  0
  6 30  1  0  0  0  0
  7  8  1  0  0  0  0
  7 31  1  0  0  0  0
  7 32  1  0  0  0  0
  8  9  1  0  0  0  0
  8 33  1  0  0  0  0
  9 10  2  0  0  0  0
  9 11  1  0  0  0  0
 11 12  1  0  0  0  0
 11 34  1  0  0  0  0
 12 16  1  0  0  0  0
 12 13  2  0  0  0  0
 13 14  1  0  0  0  0
 14 15  2  0  0  0  0
 14 35  1  0  0  0  0
 15 16  1  0  0  0  0
 15 36  1  0  0  0  0
 17 18  1  0  0  0  0
 17 37  1  0  0  0  0
 17 38  1  0  0  0  0
 18 19  1  0  0  0  0
 18 20  1  0  0  0  0
 18 39  1  0  0  0  0
 19 40  1  0  0  0  0
 19 41  1  0  0  0  0
 19 42  1  0  0  0  0
M  END
> <s_m_source_file>
AV-unprocessed.smi

> <i_m_source_file_index>
2032

> <i_lp_mmshare_version>
43012

> <i_f3d_flags>
0

> <s_epik_input>
W0NIM11bQ0BASF0xW0NIMl1OKFtDSDJdW0NASF0oTzEpW0NIM10pW0NASF0oW0NIM10pW0NIMl1bTkhdQyg9TylbTkhdYzJuW2NIXVtjSF1zMg==

> <s_epik_cmdline>
J2VwaWtfcHl0aG9uJywgJy1waCcsICc3LjAnLCAnLXRuJywgJzgnLCAnLW1hJywgJzIwMCcsICctbWV0YWxfYmluZGluZycsICctaW1hZScsICc8aW5maWxlLm1hZT4nLCAnLW9tYWUnLCAnPG91dGZpbGUubWFlPic=

> <r_lp_tautomer_probability>
0.999

> <r_epik_Ionization_Penalty>
0.219202

> <r_epik_Ionization_Penalty_Charging>
0

> <r_epik_Ionization_Penalty_Neutral>
0.219202

> <r_epik_State_Penalty>
0.209349

> <r_epik_Charging_Adjusted_Penalty>
0.209349

> <i_epik_Tot_Q>
0

> <i_epik_Tot_abs_Q>
0

> <r_epik_Metal_State_Penalty>
0.247737

> <b_epik_Metal_Only>
0

> <s_lp_Force_Field>
OPLS_2005

> <r_lp_Energy>
32.3781

> <b_lp_Chiralities_Consistent>
1

> <s_lp_Variant>
AV-unprocessed.smi:2032-6

> <Gold.Version>
5.8.1

> <Gold.Id.Protein>
6NUR|6NUR_protein|mol2

> <Gold.PLP.Fitness>
44.2032

> <Gold.PLP.PLP>
-34.4869

> <Gold.PLP.part.hbond>
-3.9823

> <Gold.PLP.part.metal>
0.0000

> <Gold.PLP.part.buried>
-2.5839

> <Gold.PLP.part.nonpolar>
-27.5815

> <Gold.PLP.part.repulsive>
0.2275

> <Gold.PLP.ligand.clash>
0.0000

> <Gold.PLP.ligand.torsion>
0.6178

> <Gold.PLP.Chemscore.Hbond>
3.6363

> <Gold.PLP.Chemscore.CHOScore>
0.0000

> <Gold.PLP.Chemscore.Metal>
0.0000

> <Gold.Chemscore.Hbonds>
donor molecule, donor type, donor heavy atom, donor atom, acceptor molecule, acceptor atom, score
      P1  H  6896  6907       L1    10  1.00
      P1  H  6931  6943       L1    13  0.90
      P1  H  6934  6947       L1    13  0.51
      P1  H  7989  7998       L1    20  1.00

> <Gold.PLP.Chemscore.Internal.Correction>
0.0430

> <Gold.Rescore>
     Score         DG    S(hbond)    S(metal)    S(lipo)     H(rot)  DE(clash)    DE(int)     intcor
     19.03     -19.72       2.82        0.00      75.55       1.57       0.02       0.67       ----

> <Gold.Chemscore.Fitness>
19.0314

> <Gold.Chemscore.DG>
-19.7205

> <Gold.Chemscore.ZeroCoef>
-5.4800

> <Gold.Chemscore.Hbond>
2.8244

> <Gold.Chemscore.Metal>
0.0000

> <Gold.Chemscore.Lipo>
75.5470

> <Gold.Chemscore.Internal_Hbond>
0.0000

> <Gold.Chemscore.DEClash>
0.0215

> <Gold.Chemscore.DEInternal>
0.6676

> <Gold.Chemscore.Rot>
1.5750

> <Gold.Chemscore.Internal.Correction>
   9.000000E+99

> <Gold.Chemscore.Hbonds>
donor molecule, donor type, donor heavy atom, donor atom, acceptor molecule, acceptor atom, score
      P1  H  6896  6907       L1    10  1.00
      P1  H  6931  6943       L1    13  0.18
      P1  H  6934  6947       L1    13  0.47
      P1  H  7989  7998       L1    20  0.78

> <Gold.Chemscore.Hbond.Weighted>
-9.4335

> <Gold.Chemscore.Metal.Weighted>
-0.0000

> <Gold.Chemscore.Lipo.Weighted>
-8.8390

> <Gold.Chemscore.Internal_Hbond.Weighted>
0.0000

> <Gold.Chemscore.DEClash.Weighted>
0.0215

> <Gold.Chemscore.DEInternal.Weighted>
0.6676

> <Gold.Chemscore.Rot.Weighted>
4.0319

> <Gold.Chemscore.Internal.Correction.Weighted>
   9.000000E+99

> <Gold.Protein.RotatedTorsions>
[ 6907 6896 6895 6894 ] final  -83.27 input  -60.11 | X-H torsion
[ 7974 7965 7964 7962 ] final   94.23 input  175.53 | X-H torsion
[ 8008 7997 7996 7995 ] final   30.46 input   59.86 | X-H torsion
[ 10167 10162 10161 10158 ] final  104.54 input  -65.29 | X-H torsion
[ 10718 10713 10712 10709 ] final -108.37 input   66.30 | X-H torsion
[ 10763 10752 10751 10750 ] final -110.18 input  -60.55 | X-H torsion
[ 11005 11000 10999 10996 ] final  -78.06 input  -57.11 | X-H torsion

> <Gold.Protein.ActiveResidues>
 VAL166  LYS551  ARG553  GLY616  TRP617  ASP618  TYR619  PRO620  LYS621  CYS622 
 ASP623  PHE694  ASN695  SER759  ASP760  ASP761  ALA762  ILE779  LEU786  VAL792 
 PHE793  MET794  SER795  GLU796  ALA797  LYS798  CYS799  TRP800  GLU811  SER814 

> <Gold.Protein.RotatedAtoms>
  150.6887  134.3538  159.4920 H   0  0  0  0  0  0  0  0  0  0  0  0  # atno 6907 bound_to 6896
  152.1376  134.9085  160.0564 H   0  0  0  0  0  0  0  0  0  0  0  0  # atno 6908 bound_to 6896
  152.0231  133.3872  159.4303 H   0  0  0  0  0  0  0  0  0  0  0  0  # atno 6909 bound_to 6896
  145.4683  139.2283  143.2949 H   0  0  0  0  0  0  0  0  0  0  0  0  # atno 7974 bound_to 7965
  155.0908  140.3220  155.4574 H   0  0  0  0  0  0  0  0  0  0  0  0  # atno 8008 bound_to 7997
  156.2743  140.2078  156.5981 H   0  0  0  0  0  0  0  0  0  0  0  0  # atno 8009 bound_to 7997
  154.6905  140.0517  157.0346 H   0  0  0  0  0  0  0  0  0  0  0  0  # atno 8010 bound_to 7997
  139.7168  144.7066  151.0937 H   0  0  0  0  0  0  0  0  0  0  0  0  # atno 10167 bound_to 10162
  156.0482  130.5709  150.7951 H   0  0  0  0  0  0  0  0  0  0  0  0  # atno 10718 bound_to 10713
  154.8234  135.4573  154.0846 H   0  0  0  0  0  0  0  0  0  0  0  0  # atno 10763 bound_to 10752
  153.2180  135.6890  153.8040 H   0  0  0  0  0  0  0  0  0  0  0  0  # atno 10764 bound_to 10752
  153.7467  135.3304  155.3290 H   0  0  0  0  0  0  0  0  0  0  0  0  # atno 10765 bound_to 10752
  141.1663  133.7048  156.7915 H   0  0  0  0  0  0  0  0  0  0  0  0  # atno 11005 bound_to 11000
  146.2411  140.5459  142.8933 LP  0  0  0  0  0  0  0  0  0  0  0  0  # atno 17320 bound_to 7965
  144.7960  140.6124  143.6509 LP  0  0  0  0  0  0  0  0  0  0  0  0  # atno 17321 bound_to 7965
  140.7745  143.5219  150.9527 LP  0  0  0  0  0  0  0  0  0  0  0  0  # atno 17342 bound_to 10162
  139.8905  143.6959  152.3146 LP  0  0  0  0  0  0  0  0  0  0  0  0  # atno 17343 bound_to 10162
  157.5381  131.0939  150.9865 LP  0  0  0  0  0  0  0  0  0  0  0  0  # atno 17370 bound_to 10713
  157.0155  130.5653  149.5325 LP  0  0  0  0  0  0  0  0  0  0  0  0  # atno 17371 bound_to 10713
  140.2322  134.8677  157.3488 LP  0  0  0  0  0  0  0  0  0  0  0  0  # atno 17394 bound_to 11000
  140.1880  134.4407  155.7732 LP  0  0  0  0  0  0  0  0  0  0  0  0  # atno 17395 bound_to 11000

$$$$
