AV-unprocessed.smi:407|AV-procd|sdf|2501|dock5
  -GOLD-   2262022443D 1   1.00000     0.00000
 Structure written by MMmdl.
 45 47  0  0  0  0  0  0  0  0  1 V2000
  145.4412  143.2429  153.3190 C   0  0  0  0  0  0  0  0  0  0  0  0
  145.5052  142.5326  154.6702 C   0  0  0  0  0  0  0  0  0  0  0  0
  144.5297  142.5961  155.4178 O   0  0  0  0  0  0  0  0  0  0  0  0
  146.7572  141.7994  155.0119 C   0  0  0  0  0  0  0  0  0  0  0  0
  147.7514  141.6237  154.0239 C   0  0  0  0  0  0  0  0  0  0  0  0
  148.9424  140.9343  154.3206 C   0  0  0  0  0  0  0  0  0  0  0  0
  149.1704  140.4052  155.6057 C   0  0  0  0  0  0  0  0  0  0  0  0
  150.3615  139.7419  155.8078 O   0  0  0  0  0  0  0  0  0  0  0  0
  150.4336  138.7906  156.8619 C   0  0  0  0  0  0  0  0  0  0  0  0
  151.0305  139.4732  158.1038 C   0  0  2  0  0  0  0  0  0  0  0  0
  149.9496  139.8813  158.9190 O   0  0  0  0  0  0  0  0  0  0  0  0
  151.8411  140.7320  157.7334 C   0  0  0  0  0  0  0  0  0  0  0  0
  152.1208  141.5620  158.9047 N   0  0  0  0  0  0  0  0  0  0  0  0
  152.8399  141.2015  159.9944 C   0  0  0  0  0  0  0  0  0  0  0  0
  153.3807  140.1104  160.1728 O   0  0  0  0  0  0  0  0  0  0  0  0
  152.8568  142.2492  160.8510 N   0  0  0  0  0  0  0  0  0  0  0  0
  153.5131  142.3083  162.1514 C   0  0  0  0  0  0  0  0  0  0  0  0
  152.1328  143.3106  160.2939 C   0  0  0  0  0  0  0  0  0  0  0  0
  151.8624  144.5999  160.7835 C   0  0  0  0  0  0  0  0  0  0  0  0
  151.0816  145.4504  159.9661 C   0  0  0  0  0  0  0  0  0  0  0  0
  150.5984  145.0062  158.7078 C   0  0  0  0  0  0  0  0  0  0  0  0
  150.8869  143.7030  158.2390 C   0  0  0  0  0  0  0  0  0  0  0  0
  151.6667  142.8790  159.0697 C   0  0  0  0  0  0  0  0  0  0  0  0
  148.1771  140.5838  156.5998 C   0  0  0  0  0  0  0  0  0  0  0  0
  146.9849  141.2734  156.3049 C   0  0  0  0  0  0  0  0  0  0  0  0
  146.2433  143.9763  153.2343 H   0  0  0  0  0  0  0  0  0  0  0  0
  144.4904  143.7647  153.2073 H   0  0  0  0  0  0  0  0  0  0  0  0
  145.5329  142.5242  152.5044 H   0  0  0  0  0  0  0  0  0  0  0  0
  147.6116  142.0142  153.0261 H   0  0  0  0  0  0  0  0  0  0  0  0
  149.6895  140.8088  153.5505 H   0  0  0  0  0  0  0  0  0  0  0  0
  149.4198  138.4529  157.0831 H   0  0  0  0  0  0  0  0  0  0  0  0
  151.0223  137.9156  156.5798 H   0  0  0  0  0  0  0  0  0  0  0  0
  151.6593  138.7629  158.6428 H   0  0  0  0  0  0  0  0  0  0  0  0
  149.5766  139.1151  159.3271 H   0  0  0  0  0  0  0  0  0  0  0  0
  152.8004  140.4382  157.3047 H   0  0  0  0  0  0  0  0  0  0  0  0
  151.3393  141.3079  156.9551 H   0  0  0  0  0  0  0  0  0  0  0  0
  152.8284  142.6980  162.9052 H   0  0  0  0  0  0  0  0  0  0  0  0
  154.3809  142.9664  162.1039 H   0  0  0  0  0  0  0  0  0  0  0  0
  153.8494  141.3253  162.4840 H   0  0  0  0  0  0  0  0  0  0  0  0
  152.2326  144.9298  161.7429 H   0  0  0  0  0  0  0  0  0  0  0  0
  150.8495  146.4497  160.3039 H   0  0  0  0  0  0  0  0  0  0  0  0
  150.0027  145.6715  158.1003 H   0  0  0  0  0  0  0  0  0  0  0  0
  150.5193  143.3612  157.2829 H   0  0  0  0  0  0  0  0  0  0  0  0
  148.3051  140.2006  157.6006 H   0  0  0  0  0  0  0  0  0  0  0  0
  146.2551  141.3870  157.0925 H   0  0  0  0  0  0  0  0  0  0  0  0
  1  2  1  0  0  0  0
  1 26  1  0  0  0  0
  1 27  1  0  0  0  0
  1 28  1  0  0  0  0
  2  3  2  0  0  0  0
  2  4  1  0  0  0  0
  4 25  1  0  0  0  0
  4  5  2  0  0  0  0
  5  6  1  0  0  0  0
  5 29  1  0  0  0  0
  6  7  2  0  0  0  0
  6 30  1  0  0  0  0
  7  8  1  0  0  0  0
  7 24  1  0  0  0  0
  8  9  1  0  0  0  0
  9 10  1  0  0  0  0
  9 31  1  0  0  0  0
  9 32  1  0  0  0  0
 10 11  1  0  0  0  0
 10 12  1  0  0  0  0
 10 33  1  0  0  0  0
 11 34  1  0  0  0  0
 12 13  1  0  0  0  0
 12 35  1  0  0  0  0
 12 36  1  0  0  0  0
 13 23  1  0  0  0  0
 13 14  1  0  0  0  0
 14 15  2  0  0  0  0
 14 16  1  0  0  0  0
 16 17  1  0  0  0  0
 16 18  1  0  0  0  0
 17 37  1  0  0  0  0
 17 38  1  0  0  0  0
 17 39  1  0  0  0  0
 18 23  2  0  0  0  0
 18 19  1  0  0  0  0
 19 20  2  0  0  0  0
 19 40  1  0  0  0  0
 20 21  1  0  0  0  0
 20 41  1  0  0  0  0
 21 22  2  0  0  0  0
 21 42  1  0  0  0  0
 22 23  1  0  0  0  0
 22 43  1  0  0  0  0
 24 25  2  0  0  0  0
 24 44  1  0  0  0  0
 25 45  1  0  0  0  0
M  END
> <s_m_source_file>
AV-unprocessed.smi

> <i_m_source_file_index>
407

> <i_lp_mmshare_version>
43012

> <i_f3d_flags>
0

> <s_epik_input>
W0NIM11DKD1PKWMxW2NIXVtjSF1jKFtjSF1bY0hdMSlPW0NIMl1bQ0BIXShbT0hdKVtDSDJdbihjKD1PKW4yW0NIM10pYyhjMjMpW2NIXVtjSF1bY0hdW2NIXTM=

> <s_epik_cmdline>
J2VwaWtfcHl0aG9uJywgJy1waCcsICc3LjAnLCAnLXRuJywgJzgnLCAnLW1hJywgJzIwMCcsICctbWV0YWxfYmluZGluZycsICctaW1hZScsICc8aW5maWxlLm1hZT4nLCAnLW9tYWUnLCAnPG91dGZpbGUubWFlPic=

> <r_lp_tautomer_probability>
1

> <r_epik_Ionization_Penalty>
2.40123e-06

> <r_epik_Ionization_Penalty_Charging>
1.9356e-09

> <r_epik_Ionization_Penalty_Neutral>
2.3993e-06

> <r_epik_State_Penalty>
-0

> <r_epik_Charging_Adjusted_Penalty>
1.9356e-09

> <i_epik_Tot_Q>
0

> <i_epik_Tot_abs_Q>
0

> <r_epik_Metal_State_Penalty>
-0

> <b_epik_Metal_Only>
0

> <s_lp_Force_Field>
OPLS_2005

> <r_lp_Energy>
53.6429

> <b_lp_Chiralities_Consistent>
1

> <s_lp_Variant>
AV-unprocessed.smi:407-1

> <Gold.Version>
5.8.1

> <Gold.Id.Protein>
6NUR|6NUR_protein|mol2

> <Gold.PLP.Fitness>
51.7586

> <Gold.PLP.PLP>
-54.1382

> <Gold.PLP.part.hbond>
-1.2428

> <Gold.PLP.part.metal>
0.0000

> <Gold.PLP.part.buried>
-5.3896

> <Gold.PLP.part.nonpolar>
-47.7666

> <Gold.PLP.part.repulsive>
0.1571

> <Gold.PLP.ligand.clash>
0.0000

> <Gold.PLP.ligand.torsion>
1.2188

> <Gold.PLP.Chemscore.Hbond>
0.0000

> <Gold.PLP.Chemscore.CHOScore>
0.0000

> <Gold.PLP.Chemscore.Metal>
0.0000

> <Gold.PLP.Chemscore.Internal.Correction>
0.0580

> <Gold.Rescore>
     Score         DG    S(hbond)    S(metal)    S(lipo)     H(rot)  DE(clash)    DE(int)     intcor
     12.63     -14.83       0.00        0.00     130.17       2.30       0.07       2.13       ----

> <Gold.Chemscore.Fitness>
12.6271

> <Gold.Chemscore.DG>
-14.8262

> <Gold.Chemscore.ZeroCoef>
-5.4800

> <Gold.Chemscore.Hbond>
0.0000

> <Gold.Chemscore.Metal>
0.0000

> <Gold.Chemscore.Lipo>
130.1713

> <Gold.Chemscore.Internal_Hbond>
0.0000

> <Gold.Chemscore.DEClash>
0.0703

> <Gold.Chemscore.DEInternal>
2.1288

> <Gold.Chemscore.Rot>
2.2984

> <Gold.Chemscore.Internal.Correction>
   9.000000E+99

> <Gold.Chemscore.Hbond.Weighted>
-0.0000

> <Gold.Chemscore.Metal.Weighted>
-0.0000

> <Gold.Chemscore.Lipo.Weighted>
-15.2300

> <Gold.Chemscore.Internal_Hbond.Weighted>
0.0000

> <Gold.Chemscore.DEClash.Weighted>
0.0703

> <Gold.Chemscore.DEInternal.Weighted>
2.1288

> <Gold.Chemscore.Rot.Weighted>
5.8839

> <Gold.Chemscore.Internal.Correction.Weighted>
   9.000000E+99

> <Gold.Protein.RotatedTorsions>
[ 6907 6896 6895 6894 ] final  -55.63 input  -60.11 | X-H torsion
[ 7974 7965 7964 7962 ] final  150.08 input  175.53 | X-H torsion
[ 8008 7997 7996 7995 ] final  170.62 input   59.86 | X-H torsion
[ 10167 10162 10161 10158 ] final  174.31 input  -65.29 | X-H torsion
[ 10718 10713 10712 10709 ] final  123.10 input   66.30 | X-H torsion
[ 10763 10752 10751 10750 ] final -173.92 input  -60.55 | X-H torsion
[ 11005 11000 10999 10996 ] final   -7.49 input  -57.11 | X-H torsion

> <Gold.Protein.ActiveResidues>
 VAL166  LYS551  ARG553  GLY616  TRP617  ASP618  TYR619  PRO620  LYS621  CYS622 
 ASP623  PHE694  ASN695  SER759  ASP760  ASP761  ALA762  ILE779  LEU786  VAL792 
 PHE793  MET794  SER795  GLU796  ALA797  LYS798  CYS799  TRP800  GLU811  SER814 

> <Gold.Protein.RotatedAtoms>
  150.8235  134.7455  159.6792 H   0  0  0  0  0  0  0  0  0  0  0  0  # atno 6907 bound_to 6896
  152.4348  134.5704  159.9929 H   0  0  0  0  0  0  0  0  0  0  0  0  # atno 6908 bound_to 6896
  151.5882  133.3332  159.3058 H   0  0  0  0  0  0  0  0  0  0  0  0  # atno 6909 bound_to 6896
  144.8390  139.6362  143.6025 H   0  0  0  0  0  0  0  0  0  0  0  0  # atno 7974 bound_to 7965
  156.1348  140.1533  156.9011 H   0  0  0  0  0  0  0  0  0  0  0  0  # atno 8008 bound_to 7997
  154.4938  140.0844  156.7692 H   0  0  0  0  0  0  0  0  0  0  0  0  # atno 8009 bound_to 7997
  155.4189  140.3422  155.4272 H   0  0  0  0  0  0  0  0  0  0  0  0  # atno 8010 bound_to 7997
  139.5137  144.3161  152.0246 H   0  0  0  0  0  0  0  0  0  0  0  0  # atno 10167 bound_to 10162
  157.5691  131.1084  150.8400 H   0  0  0  0  0  0  0  0  0  0  0  0  # atno 10718 bound_to 10713
  154.6022  135.2855  155.0523 H   0  0  0  0  0  0  0  0  0  0  0  0  # atno 10763 bound_to 10752
  154.1783  135.6461  153.5031 H   0  0  0  0  0  0  0  0  0  0  0  0  # atno 10764 bound_to 10752
  153.0161  135.5417  154.6745 H   0  0  0  0  0  0  0  0  0  0  0  0  # atno 10765 bound_to 10752
  140.7133  133.8890  155.8767 H   0  0  0  0  0  0  0  0  0  0  0  0  # atno 11005 bound_to 11000
  146.2685  139.6578  142.9312 LP  0  0  0  0  0  0  0  0  0  0  0  0  # atno 17320 bound_to 7965
  145.4733  141.0436  143.2686 LP  0  0  0  0  0  0  0  0  0  0  0  0  # atno 17321 bound_to 7965
  140.2604  144.4073  150.6188 LP  0  0  0  0  0  0  0  0  0  0  0  0  # atno 17342 bound_to 10162
  140.6161  143.2172  151.6788 LP  0  0  0  0  0  0  0  0  0  0  0  0  # atno 17343 bound_to 10162
  156.8876  130.5201  149.5288 LP  0  0  0  0  0  0  0  0  0  0  0  0  # atno 17370 bound_to 10713
  156.0737  130.5764  150.9433 LP  0  0  0  0  0  0  0  0  0  0  0  0  # atno 17371 bound_to 10713
  141.0065  134.1078  157.4264 LP  0  0  0  0  0  0  0  0  0  0  0  0  # atno 17394 bound_to 11000
  139.8866  135.0083  156.6508 LP  0  0  0  0  0  0  0  0  0  0  0  0  # atno 17395 bound_to 11000

$$$$
