AV-unprocessed.smi:72|AV-procd|sdf|737|dock3
  -GOLD-   2262017 63D 1   1.00000     0.00000
 Structure written by MMmdl.
 28 29  0  0  0  0  0  0  0  0  2 V2000
  154.1471  137.9865  154.8606 N   0  0  0  0  0  0  0  0  0  0  0  0
  152.9239  138.2880  154.9113 C   0  0  0  0  0  0  0  0  0  0  0  0
  151.9430  137.4366  154.2746 N   0  0  0  0  0  0  0  0  0  0  0  0
  150.6964  137.7893  154.3476 C   0  0  0  0  0  0  0  0  0  0  0  0
  150.2788  138.9994  155.0446 N   0  0  0  0  0  0  0  0  0  0  0  0
  148.8222  139.4253  155.1287 C   0  0  2  0  0  0  0  0  0  0  0  0
  148.0026  138.4654  154.5226 O   0  0  0  0  0  0  0  0  0  0  0  0
  147.4706  138.9776  153.3057 C   0  0  1  0  0  0  0  0  0  0  0  0
  146.2073  138.2078  152.8818 C   0  0  0  0  0  0  0  0  0  0  0  0
  145.1734  138.4050  153.8231 O   0  0  0  0  0  0  0  0  0  0  0  0
  147.3144  140.4770  153.5876 C   0  0  1  0  0  0  0  0  0  0  0  0
  146.1315  140.7407  154.3199 O   0  0  0  0  0  0  0  0  0  0  0  0
  148.5414  140.7835  154.4366 C   0  0  2  0  0  0  0  0  0  0  0  0
  149.5966  141.2324  153.6039 O   0  0  0  0  0  0  0  0  0  0  0  0
  151.2647  139.8160  155.6601 C   0  0  0  0  0  0  0  0  0  0  0  0
  150.8921  140.8411  156.2315 O   0  0  0  0  0  0  0  0  0  0  0  0
  152.5709  139.4376  155.5831 N   0  5  0  0  0  0  0  0  0  0  0  0
  148.5793  139.4271  156.1927 H   0  0  0  0  0  0  0  0  0  0  0  0
  148.2344  138.8492  152.5370 H   0  0  0  0  0  0  0  0  0  0  0  0
  147.2795  141.0636  152.6682 H   0  0  0  0  0  0  0  0  0  0  0  0
  148.3509  141.5495  155.1897 H   0  0  0  0  0  0  0  0  0  0  0  0
  154.3183  137.1320  154.3512 H   0  0  0  0  0  0  0  0  0  0  0  0
  149.8964  137.2048  153.8944 H   0  0  0  0  0  0  0  0  0  0  0  0
  145.8605  138.5730  151.9149 H   0  0  0  0  0  0  0  0  0  0  0  0
  146.4025  137.1419  152.7650 H   0  0  0  0  0  0  0  0  0  0  0  0
  144.5227  138.9732  153.4400 H   0  0  0  0  0  0  0  0  0  0  0  0
  145.3916  140.4832  153.7917 H   0  0  0  0  0  0  0  0  0  0  0  0
  149.7358  140.5873  152.9265 H   0  0  0  0  0  0  0  0  0  0  0  0
  1  2  2  0  0  0  0
  1 22  1  0  0  0  0
  2 17  1  0  0  0  0
  2  3  1  0  0  0  0
  3  4  2  0  0  0  0
  4  5  1  0  0  0  0
  4 23  1  0  0  0  0
  5  6  1  0  0  0  0
  5 15  1  0  0  0  0
  6 18  1  0  0  0  0
  6 13  1  0  0  0  0
  6  7  1  0  0  0  0
  7  8  1  0  0  0  0
  8 19  1  0  0  0  0
  8  9  1  0  0  0  0
  8 11  1  0  0  0  0
  9 10  1  0  0  0  0
  9 24  1  0  0  0  0
  9 25  1  0  0  0  0
 10 26  1  0  0  0  0
 11 20  1  0  0  0  0
 11 12  1  0  0  0  0
 11 13  1  0  0  0  0
 12 27  1  0  0  0  0
 13 21  1  0  0  0  0
 13 14  1  0  0  0  0
 14 28  1  0  0  0  0
 15 16  2  0  0  0  0
 15 17  1  0  0  0  0
M  CHG  1  17  -1
M  END
> <s_m_source_file>
AV-unprocessed.smi

> <i_m_source_file_index>
72

> <i_lp_mmshare_version>
43012

> <i_f3d_flags>
0

> <s_epik_input>
W05IMl1jMW5bY0hdbihjKD1PKW4xKVtDQEBIXTJPW0NASF0oW0NIMl1bT0hdKVtDQEBIXShbT0hdKVtDQEhdMltPSF0=

> <s_epik_cmdline>
J2VwaWtfcHl0aG9uJywgJy1waCcsICc3LjAnLCAnLXRuJywgJzgnLCAnLW1hJywgJzIwMCcsICctbWV0YWxfYmluZGluZycsICctaW1hZScsICc8aW5maWxlLm1hZT4nLCAnLW9tYWUnLCAnPG91dGZpbGUubWFlPic=

> <r_lp_tautomer_probability>
7.17554e-07

> <r_epik_Ionization_Penalty>
12.8705

> <r_epik_Ionization_Penalty_Charging>
5.64144

> <r_epik_Ionization_Penalty_Neutral>
7.22905

> <r_epik_State_Penalty>
3.30104

> <r_epik_Charging_Adjusted_Penalty>
8.94249

> <i_epik_Tot_Q>
-1

> <i_epik_Tot_abs_Q>
1

> <r_epik_Metal_State_Penalty>
0.529074

> <b_epik_Metal_Only>
1

> <s_epik_Chemistry_Notes>
This compound contains an acetal/aminal-like group ( X-CH(R)-Y where X, Y are N, S, or O) that may be acid/base labile, releasing an aldehyde.

> <s_lp_Force_Field>
OPLS_2005

> <r_lp_Energy>
36.282

> <b_lp_Chiralities_Consistent>
1

> <s_lp_Variant>
AV-unprocessed.smi:72-75

> <Gold.Version>
5.8.1

> <Gold.Id.Protein>
6NUR|6NUR_protein|mol2

> <Gold.PLP.Fitness>
53.7323

> <Gold.PLP.PLP>
-30.4470

> <Gold.PLP.part.hbond>
-8.6648

> <Gold.PLP.part.metal>
0.0000

> <Gold.PLP.part.buried>
-1.6560

> <Gold.PLP.part.nonpolar>
-21.3588

> <Gold.PLP.part.repulsive>
0.3345

> <Gold.PLP.ligand.clash>
0.0000

> <Gold.PLP.ligand.torsion>
0.0321

> <Gold.PLP.Chemscore.Hbond>
6.7710

> <Gold.PLP.Chemscore.CHOScore>
1.0000

> <Gold.PLP.Chemscore.Metal>
0.0000

> <Gold.Chemscore.Hbonds>
donor molecule, donor type, donor heavy atom, donor atom, acceptor molecule, acceptor atom, score
      L1  H    10    26       P1 10175  1.00
      L1  H    12    27       P1 10175  0.70
      L1  H    14    28       P1  7957  1.00
      P1  H  7997  8010       L1    17  2.00
      P1  H  8011  8017       L1    14  0.28
      P1  H 10752 10765       L1     3  0.94
      L1  C     4    23       P1  7948  1.00

> <Gold.PLP.Chemscore.Internal.Correction>
0.0364

> <Gold.Rescore>
     Score         DG    S(hbond)    S(metal)    S(lipo)     H(rot)  DE(clash)    DE(int)     intcor
      9.34     -10.20       3.52        0.00      28.19       4.04       0.61       0.26       ----

> <Gold.Chemscore.Fitness>
9.3363

> <Gold.Chemscore.DG>
-10.2014

> <Gold.Chemscore.ZeroCoef>
-5.4800

> <Gold.Chemscore.Hbond>
3.5228

> <Gold.Chemscore.Metal>
0.0000

> <Gold.Chemscore.Lipo>
28.1920

> <Gold.Chemscore.Internal_Hbond>
0.0000

> <Gold.Chemscore.DEClash>
0.6062

> <Gold.Chemscore.DEInternal>
0.2589

> <Gold.Chemscore.Rot>
4.0403

> <Gold.Chemscore.Internal.Correction>
   9.000000E+99

> <Gold.Chemscore.Hbonds>
donor molecule, donor type, donor heavy atom, donor atom, acceptor molecule, acceptor atom, score
      L1  H    10    26       P1 10175  0.98
      L1  H    12    27       P1 10175  0.68
      L1  H    14    28       P1  7957  0.95
      P1  H  7997  8010       L1    17  0.33
      P1  H 10752 10765       L1     3  0.22

> <Gold.Chemscore.Hbond.Weighted>
-11.7660

> <Gold.Chemscore.Metal.Weighted>
-0.0000

> <Gold.Chemscore.Lipo.Weighted>
-3.2985

> <Gold.Chemscore.Internal_Hbond.Weighted>
0.0000

> <Gold.Chemscore.DEClash.Weighted>
0.6062

> <Gold.Chemscore.DEInternal.Weighted>
0.2589

> <Gold.Chemscore.Rot.Weighted>
10.3431

> <Gold.Chemscore.Internal.Correction.Weighted>
   9.000000E+99

> <Gold.Protein.RotatedTorsions>
[ 6907 6896 6895 6894 ] final  123.81 input  -60.11 | X-H torsion
[ 7974 7965 7964 7962 ] final  153.24 input  175.53 | X-H torsion
[ 8008 7997 7996 7995 ] final   88.59 input   59.86 | X-H torsion
[ 10167 10162 10161 10158 ] final   23.70 input  -65.29 | X-H torsion
[ 10718 10713 10712 10709 ] final   75.34 input   66.30 | X-H torsion
[ 10763 10752 10751 10750 ] final  155.69 input  -60.55 | X-H torsion
[ 11005 11000 10999 10996 ] final  -79.29 input  -57.11 | X-H torsion

> <Gold.Protein.ActiveResidues>
 VAL166  LYS551  ARG553  GLY616  TRP617  ASP618  TYR619  PRO620  LYS621  CYS622 
 ASP623  PHE694  ASN695  SER759  ASP760  ASP761  ALA762  ILE779  LEU786  VAL792 
 PHE793  MET794  SER795  GLU796  ALA797  LYS798  CYS799  TRP800  GLU811  SER814 

> <Gold.Protein.RotatedAtoms>
  152.4130  133.6994  159.6414 H   0  0  0  0  0  0  0  0  0  0  0  0  # atno 6907 bound_to 6896
  150.8009  133.8589  159.3235 H   0  0  0  0  0  0  0  0  0  0  0  0  # atno 6908 bound_to 6896
  151.6327  135.1023  160.0176 H   0  0  0  0  0  0  0  0  0  0  0  0  # atno 6909 bound_to 6896
  144.8167  139.6775  143.6118 H   0  0  0  0  0  0  0  0  0  0  0  0  # atno 7974 bound_to 7965
  155.9896  140.3370  155.6740 H   0  0  0  0  0  0  0  0  0  0  0  0  # atno 8008 bound_to 7997
  155.6438  140.0698  157.2627 H   0  0  0  0  0  0  0  0  0  0  0  0  # atno 8009 bound_to 7997
  154.4215  140.1738  156.1589 H   0  0  0  0  0  0  0  0  0  0  0  0  # atno 8010 bound_to 7997
  140.5248  143.9942  150.6434 H   0  0  0  0  0  0  0  0  0  0  0  0  # atno 10167 bound_to 10162
  157.6630  130.9721  150.1340 H   0  0  0  0  0  0  0  0  0  0  0  0  # atno 10718 bound_to 10713
  154.1724  135.2804  155.3077 H   0  0  0  0  0  0  0  0  0  0  0  0  # atno 10763 bound_to 10752
  154.6065  135.5512  153.7432 H   0  0  0  0  0  0  0  0  0  0  0  0  # atno 10764 bound_to 10752
  153.0161  135.6405  154.1864 H   0  0  0  0  0  0  0  0  0  0  0  0  # atno 10765 bound_to 10752
  141.1667  133.7099  156.8100 H   0  0  0  0  0  0  0  0  0  0  0  0  # atno 11005 bound_to 11000
  146.2471  139.6121  142.9452 LP  0  0  0  0  0  0  0  0  0  0  0  0  # atno 17320 bound_to 7965
  145.5197  141.0432  143.2442 LP  0  0  0  0  0  0  0  0  0  0  0  0  # atno 17321 bound_to 7965
  140.3301  143.3083  152.0696 LP  0  0  0  0  0  0  0  0  0  0  0  0  # atno 17342 bound_to 10162
  139.4934  144.6515  151.6665 LP  0  0  0  0  0  0  0  0  0  0  0  0  # atno 17343 bound_to 10162
  156.2179  130.3671  149.8591 LP  0  0  0  0  0  0  0  0  0  0  0  0  # atno 17370 bound_to 10713
  156.6452  130.8721  151.3521 LP  0  0  0  0  0  0  0  0  0  0  0  0  # atno 17371 bound_to 10713
  140.2195  134.8768  157.3361 LP  0  0  0  0  0  0  0  0  0  0  0  0  # atno 17394 bound_to 11000
  140.2003  134.4263  155.7666 LP  0  0  0  0  0  0  0  0  0  0  0  0  # atno 17395 bound_to 11000

$$$$
