AV-unprocessed.smi:2413|AV-procd|sdf|9535|dock1
  -GOLD-   2272013163D 1   1.00000     0.00000
 Structure written by MMmdl.
 45 46  0  0  0  0  0  0  0  0  1 V2000
  152.5304  138.2386  156.3578 C   0  0  0  0  0  0  0  0  0  0  0  0
  152.0571  139.6882  156.3492 C   0  0  0  0  0  0  0  0  0  0  0  0
  151.6724  140.2068  155.3016 O   0  0  0  0  0  0  0  0  0  0  0  0
  152.0912  140.3305  157.5262 N   0  0  0  0  0  0  0  0  0  0  0  0
  151.6980  141.7199  157.7341 C   0  0  0  0  0  0  0  0  0  0  0  0
  151.6906  142.0916  159.2267 C   0  0  1  0  0  0  0  0  0  0  0  0
  152.9833  141.6413  159.9338 C   0  0  0  0  0  0  0  0  0  0  0  0
  153.0089  142.1101  161.3172 N   0  0  0  0  0  0  0  0  0  0  0  0
  153.9606  141.5528  162.2019 C   0  0  0  0  0  0  0  0  0  0  0  0
  154.5159  140.2618  162.0195 C   0  0  0  0  0  0  0  0  0  0  0  0
  155.4357  139.8215  162.9902 C   0  0  0  0  0  0  0  0  0  0  0  0
  155.7819  140.5882  164.0439 N   0  0  0  0  0  0  0  0  0  0  0  0
  155.2410  141.8099  164.1195 C   0  0  0  0  0  0  0  0  0  0  0  0
  155.5167  142.6262  165.3940 C   0  0  0  0  0  0  0  0  0  0  0  0
  157.0274  142.9223  165.5486 C   0  0  0  0  0  0  0  0  0  0  0  0
  155.1028  141.8398  166.6599 C   0  0  0  0  0  0  0  0  0  0  0  0
  154.7353  143.9514  165.3321 C   0  0  0  0  0  0  0  0  0  0  0  0
  154.3286  142.2992  163.2707 N   0  0  0  0  0  0  0  0  0  0  0  0
  152.7202  143.5361  161.4719 C   0  0  0  0  0  0  0  0  0  0  0  0
  151.4496  143.9201  160.6967 C   0  0  0  0  0  0  0  0  0  0  0  0
  151.5711  143.5069  159.3409 O   0  0  0  0  0  0  0  0  0  0  0  0
  153.5066  138.1562  156.8368 H   0  0  0  0  0  0  0  0  0  0  0  0
  152.6158  137.8524  155.3415 H   0  0  0  0  0  0  0  0  0  0  0  0
  151.8234  137.6130  156.9031 H   0  0  0  0  0  0  0  0  0  0  0  0
  152.4292  139.8271  158.3333 H   0  0  0  0  0  0  0  0  0  0  0  0
  152.3705  142.3789  157.1822 H   0  0  0  0  0  0  0  0  0  0  0  0
  150.7052  141.8649  157.3070 H   0  0  0  0  0  0  0  0  0  0  0  0
  150.8350  141.6153  159.7100 H   0  0  0  0  0  0  0  0  0  0  0  0
  153.0282  140.5525  159.9033 H   0  0  0  0  0  0  0  0  0  0  0  0
  153.8593  142.0248  159.4090 H   0  0  0  0  0  0  0  0  0  0  0  0
  154.2676  139.6206  161.1879 H   0  0  0  0  0  0  0  0  0  0  0  0
  155.8917  138.8449  162.9235 H   0  0  0  0  0  0  0  0  0  0  0  0
  157.2342  143.4610  166.4741 H   0  0  0  0  0  0  0  0  0  0  0  0
  157.4081  143.5401  164.7343 H   0  0  0  0  0  0  0  0  0  0  0  0
  157.6130  142.0023  165.5669 H   0  0  0  0  0  0  0  0  0  0  0  0
  155.6208  140.8818  166.7194 H   0  0  0  0  0  0  0  0  0  0  0  0
  154.0312  141.6389  166.6842 H   0  0  0  0  0  0  0  0  0  0  0  0
  155.3383  142.3962  167.5679 H   0  0  0  0  0  0  0  0  0  0  0  0
  154.9076  144.5581  166.2216 H   0  0  0  0  0  0  0  0  0  0  0  0
  153.6619  143.7746  165.2572 H   0  0  0  0  0  0  0  0  0  0  0  0
  155.0311  144.5452  164.4665 H   0  0  0  0  0  0  0  0  0  0  0  0
  152.5813  143.8092  162.5179 H   0  0  0  0  0  0  0  0  0  0  0  0
  153.5716  144.1087  161.1021 H   0  0  0  0  0  0  0  0  0  0  0  0
  150.5652  143.4688  161.1498 H   0  0  0  0  0  0  0  0  0  0  0  0
  151.3051  145.0001  160.7267 H   0  0  0  0  0  0  0  0  0  0  0  0
  1  2  1  0  0  0  0
  1 22  1  0  0  0  0
  1 23  1  0  0  0  0
  1 24  1  0  0  0  0
  2  3  2  0  0  0  0
  2  4  1  0  0  0  0
  4  5  1  0  0  0  0
  4 25  1  0  0  0  0
  5  6  1  0  0  0  0
  5 26  1  0  0  0  0
  5 27  1  0  0  0  0
  6 21  1  0  0  0  0
  6  7  1  0  0  0  0
  6 28  1  0  0  0  0
  7  8  1  0  0  0  0
  7 29  1  0  0  0  0
  7 30  1  0  0  0  0
  8  9  1  0  0  0  0
  8 19  1  0  0  0  0
  9 18  1  0  0  0  0
  9 10  2  0  0  0  0
 10 11  1  0  0  0  0
 10 31  1  0  0  0  0
 11 12  2  0  0  0  0
 11 32  1  0  0  0  0
 12 13  1  0  0  0  0
 13 14  1  0  0  0  0
 13 18  2  0  0  0  0
 14 15  1  0  0  0  0
 14 16  1  0  0  0  0
 14 17  1  0  0  0  0
 15 33  1  0  0  0  0
 15 34  1  0  0  0  0
 15 35  1  0  0  0  0
 16 36  1  0  0  0  0
 16 37  1  0  0  0  0
 16 38  1  0  0  0  0
 17 39  1  0  0  0  0
 17 40  1  0  0  0  0
 17 41  1  0  0  0  0
 19 20  1  0  0  0  0
 19 42  1  0  0  0  0
 19 43  1  0  0  0  0
 20 21  1  0  0  0  0
 20 44  1  0  0  0  0
 20 45  1  0  0  0  0
M  END
> <s_m_source_file>
AV-unprocessed.smi

> <i_m_source_file_index>
2413

> <i_lp_mmshare_version>
43012

> <i_f3d_flags>
0

> <s_epik_input>
W0NIM11DKD1PKVtOSF1bQ0gyXVtDQEBIXTFbQ0gyXU4oW0NIMl1bQ0gyXU8xKWMyW2NIXVtjSF1uYyhuMilDKFtDSDNdKShbQ0gzXSlbQ0gzXQ==

> <s_epik_cmdline>
J2VwaWtfcHl0aG9uJywgJy1waCcsICc3LjAnLCAnLXRuJywgJzgnLCAnLW1hJywgJzIwMCcsICctbWV0YWxfYmluZGluZycsICctaW1hZScsICc8aW5maWxlLm1hZT4nLCAnLW9tYWUnLCAnPG91dGZpbGUubWFlPic=

> <r_lp_tautomer_probability>
1

> <r_epik_Ionization_Penalty>
0.0132021

> <r_epik_Ionization_Penalty_Charging>
0

> <r_epik_Ionization_Penalty_Neutral>
0.0132021

> <r_epik_State_Penalty>
0.0102452

> <r_epik_Charging_Adjusted_Penalty>
0.0102452

> <i_epik_Tot_Q>
0

> <i_epik_Tot_abs_Q>
0

> <r_epik_Metal_State_Penalty>
0.0100219

> <b_epik_Metal_Only>
0

> <s_lp_Force_Field>
OPLS_2005

> <r_lp_Energy>
8.35197

> <b_lp_Chiralities_Consistent>
1

> <s_lp_Variant>
AV-unprocessed.smi:2413-2

> <Gold.Version>
5.8.1

> <Gold.Id.Protein>
6NUR|6NUR_protein|mol2

> <Gold.PLP.Fitness>
40.2661

> <Gold.PLP.PLP>
-38.0819

> <Gold.PLP.part.hbond>
-2.4634

> <Gold.PLP.part.metal>
0.0000

> <Gold.PLP.part.buried>
-2.0449

> <Gold.PLP.part.nonpolar>
-32.7132

> <Gold.PLP.part.repulsive>
0.1757

> <Gold.PLP.ligand.clash>
0.0000

> <Gold.PLP.ligand.torsion>
0.6470

> <Gold.PLP.Chemscore.Hbond>
0.9440

> <Gold.PLP.Chemscore.CHOScore>
0.0000

> <Gold.PLP.Chemscore.Metal>
0.0000

> <Gold.Chemscore.Hbonds>
donor molecule, donor type, donor heavy atom, donor atom, acceptor molecule, acceptor atom, score
      P1  H  7989  7998       L1     3  0.91

> <Gold.PLP.Chemscore.Internal.Correction>
0.6462

> <Gold.Rescore>
     Score         DG    S(hbond)    S(metal)    S(lipo)     H(rot)  DE(clash)    DE(int)     intcor
     14.07     -15.65       0.95        0.00      97.84       1.73       0.99       0.60       ----

> <Gold.Chemscore.Fitness>
14.0665

> <Gold.Chemscore.DG>
-15.6479

> <Gold.Chemscore.ZeroCoef>
-5.4800

> <Gold.Chemscore.Hbond>
0.9454

> <Gold.Chemscore.Metal>
0.0000

> <Gold.Chemscore.Lipo>
97.8390

> <Gold.Chemscore.Internal_Hbond>
0.0000

> <Gold.Chemscore.DEClash>
0.9863

> <Gold.Chemscore.DEInternal>
0.5952

> <Gold.Chemscore.Rot>
1.7332

> <Gold.Chemscore.Internal.Correction>
   9.000000E+99

> <Gold.Chemscore.Hbonds>
donor molecule, donor type, donor heavy atom, donor atom, acceptor molecule, acceptor atom, score
      P1  H  7989  7998       L1     3  0.88

> <Gold.Chemscore.Hbond.Weighted>
-3.1578

> <Gold.Chemscore.Metal.Weighted>
-0.0000

> <Gold.Chemscore.Lipo.Weighted>
-11.4472

> <Gold.Chemscore.Internal_Hbond.Weighted>
0.0000

> <Gold.Chemscore.DEClash.Weighted>
0.9863

> <Gold.Chemscore.DEInternal.Weighted>
0.5952

> <Gold.Chemscore.Rot.Weighted>
4.4370

> <Gold.Chemscore.Internal.Correction.Weighted>
   9.000000E+99

> <Gold.Protein.RotatedTorsions>
[ 6907 6896 6895 6894 ] final -103.24 input  -60.11 | X-H torsion
[ 7974 7965 7964 7962 ] final  -67.94 input  175.53 | X-H torsion
[ 8008 7997 7996 7995 ] final   41.60 input   59.86 | X-H torsion
[ 10167 10162 10161 10158 ] final   59.26 input  -65.29 | X-H torsion
[ 10718 10713 10712 10709 ] final  122.03 input   66.30 | X-H torsion
[ 10763 10752 10751 10750 ] final -102.47 input  -60.55 | X-H torsion
[ 11005 11000 10999 10996 ] final  -92.25 input  -57.11 | X-H torsion

> <Gold.Protein.ActiveResidues>
 VAL166  LYS551  ARG553  GLY616  TRP617  ASP618  TYR619  PRO620  LYS621  CYS622 
 ASP623  PHE694  ASN695  SER759  ASP760  ASP761  ALA762  ILE779  LEU786  VAL792 
 PHE793  MET794  SER795  GLU796  ALA797  LYS798  CYS799  TRP800  GLU811  SER814 

> <Gold.Protein.RotatedAtoms>
  150.7231  134.0459  159.3781 H   0  0  0  0  0  0  0  0  0  0  0  0  # atno 6907 bound_to 6896
  151.8434  135.0580  160.0460 H   0  0  0  0  0  0  0  0  0  0  0  0  # atno 6908 bound_to 6896
  152.2845  133.5466  159.5555 H   0  0  0  0  0  0  0  0  0  0  0  0  # atno 6909 bound_to 6896
  145.7228  140.9031  143.0621 H   0  0  0  0  0  0  0  0  0  0  0  0  # atno 7974 bound_to 7965
  155.2723  140.3367  155.4264 H   0  0  0  0  0  0  0  0  0  0  0  0  # atno 8008 bound_to 7997
  156.2127  140.1776  156.7700 H   0  0  0  0  0  0  0  0  0  0  0  0  # atno 8009 bound_to 7997
  154.5709  140.0670  156.8948 H   0  0  0  0  0  0  0  0  0  0  0  0  # atno 8010 bound_to 7997
  140.1783  144.4207  150.6627 H   0  0  0  0  0  0  0  0  0  0  0  0  # atno 10167 bound_to 10162
  157.5773  131.1078  150.8255 H   0  0  0  0  0  0  0  0  0  0  0  0  # atno 10718 bound_to 10713
  154.7736  135.4859  153.9699 H   0  0  0  0  0  0  0  0  0  0  0  0  # atno 10763 bound_to 10752
  153.1400  135.6770  153.9050 H   0  0  0  0  0  0  0  0  0  0  0  0  # atno 10764 bound_to 10752
  153.8727  135.3141  155.3421 H   0  0  0  0  0  0  0  0  0  0  0  0  # atno 10765 bound_to 10752
  141.1526  133.7808  156.9993 H   0  0  0  0  0  0  0  0  0  0  0  0  # atno 11005 bound_to 11000
  144.6912  139.9225  143.7468 LP  0  0  0  0  0  0  0  0  0  0  0  0  # atno 17320 bound_to 7965
  146.0610  139.3603  143.0581 LP  0  0  0  0  0  0  0  0  0  0  0  0  # atno 17321 bound_to 7965
  140.6536  143.2231  151.6020 LP  0  0  0  0  0  0  0  0  0  0  0  0  # atno 17342 bound_to 10162
  139.5307  144.2924  152.1141 LP  0  0  0  0  0  0  0  0  0  0  0  0  # atno 17343 bound_to 10162
  156.8710  130.5146  149.5297 LP  0  0  0  0  0  0  0  0  0  0  0  0  # atno 17370 bound_to 10713
  156.0818  130.5826  150.9576 LP  0  0  0  0  0  0  0  0  0  0  0  0  # atno 17371 bound_to 10713
  140.0950  134.9569  157.1836 LP  0  0  0  0  0  0  0  0  0  0  0  0  # atno 17394 bound_to 11000
  140.3394  134.2721  155.7214 LP  0  0  0  0  0  0  0  0  0  0  0  0  # atno 17395 bound_to 11000

$$$$
