AV-unprocessed.smi:2004|AV-procd|sdf|8124|dock9
  -GOLD-   2272010363D 1   1.00000     0.00000
 Structure written by MMmdl.
 40 42  0  0  0  0  0  0  0  0  2 V2000
  149.1326  138.5272  157.0615 O   0  0  0  0  0  0  0  0  0  0  0  0
  149.9786  138.7038  158.1808 C   0  0  1  0  0  0  0  0  0  0  0  0
  150.2760  137.3256  158.7902 C   0  0  0  0  0  0  0  0  0  0  0  0
  149.1726  136.9292  159.5879 O   0  0  0  0  0  0  0  0  0  0  0  0
  148.4329  135.8642  159.0131 C   0  0  0  0  0  0  0  0  0  0  0  0
  147.2960  135.4201  159.9128 C   0  0  0  0  0  0  0  0  0  0  0  0
  146.3372  136.3560  160.3550 C   0  0  0  0  0  0  0  0  0  0  0  0
  145.2890  135.9493  161.2037 C   0  0  0  0  0  0  0  0  0  0  0  0
  145.1983  134.6063  161.6174 C   0  0  0  0  0  0  0  0  0  0  0  0
  146.1572  133.6705  161.1839 C   0  0  0  0  0  0  0  0  0  0  0  0
  147.2059  134.0768  160.3356 C   0  0  0  0  0  0  0  0  0  0  0  0
  151.2641  139.4216  157.7237 C   0  0  0  0  0  0  0  0  0  0  0  0
  151.0870  140.8729  157.5840 N   0  0  0  0  0  0  0  0  0  0  0  0
  150.2967  141.5803  156.7319 C   0  0  0  0  0  0  0  0  0  0  0  0
  150.4809  142.9024  157.0024 N   0  3  0  0  0  0  0  0  0  0  0  0
  151.4025  143.0413  158.0428 C   0  0  0  0  0  0  0  0  0  0  0  0
  151.9087  144.1765  158.6686 C   0  0  0  0  0  0  0  0  0  0  0  0
  152.8405  143.9651  159.7064 C   0  0  0  0  0  0  0  0  0  0  0  0
  153.2358  142.6656  160.0860 C   0  0  0  0  0  0  0  0  0  0  0  0
  152.7167  141.5218  159.4444 C   0  0  0  0  0  0  0  0  0  0  0  0
  151.7962  141.7402  158.4204 C   0  0  0  0  0  0  0  0  0  0  0  0
  148.8036  137.6410  157.0748 H   0  0  0  0  0  0  0  0  0  0  0  0
  149.4640  139.3226  158.9166 H   0  0  0  0  0  0  0  0  0  0  0  0
  150.4951  136.5895  158.0148 H   0  0  0  0  0  0  0  0  0  0  0  0
  151.1556  137.3900  159.4329 H   0  0  0  0  0  0  0  0  0  0  0  0
  148.0356  136.1742  158.0451 H   0  0  0  0  0  0  0  0  0  0  0  0
  149.0863  135.0085  158.8375 H   0  0  0  0  0  0  0  0  0  0  0  0
  146.4033  137.3884  160.0441 H   0  0  0  0  0  0  0  0  0  0  0  0
  144.5555  136.6680  161.5384 H   0  0  0  0  0  0  0  0  0  0  0  0
  144.3950  134.2945  162.2687 H   0  0  0  0  0  0  0  0  0  0  0  0
  146.0894  132.6410  161.5029 H   0  0  0  0  0  0  0  0  0  0  0  0
  147.9387  133.3526  160.0108 H   0  0  0  0  0  0  0  0  0  0  0  0
  152.0838  139.2416  158.4204 H   0  0  0  0  0  0  0  0  0  0  0  0
  151.5897  139.0368  156.7560 H   0  0  0  0  0  0  0  0  0  0  0  0
  149.6384  141.1665  155.9816 H   0  0  0  0  0  0  0  0  0  0  0  0
  151.6074  145.1730  158.3805 H   0  0  0  0  0  0  0  0  0  0  0  0
  153.2607  144.8166  160.2220 H   0  0  0  0  0  0  0  0  0  0  0  0
  153.9515  142.5434  160.8860 H   0  0  0  0  0  0  0  0  0  0  0  0
  153.0231  140.5301  159.7425 H   0  0  0  0  0  0  0  0  0  0  0  0
  150.0087  143.6517  156.5130 H   0  0  0  0  0  0  0  0  0  0  0  0
  1  2  1  0  0  0  0
  1 22  1  0  0  0  0
  2  3  1  0  0  0  0
  2 12  1  0  0  0  0
  2 23  1  0  0  0  0
  3  4  1  0  0  0  0
  3 24  1  0  0  0  0
  3 25  1  0  0  0  0
  4  5  1  0  0  0  0
  5  6  1  0  0  0  0
  5 26  1  0  0  0  0
  5 27  1  0  0  0  0
  6 11  1  0  0  0  0
  6  7  2  0  0  0  0
  7  8  1  0  0  0  0
  7 28  1  0  0  0  0
  8  9  2  0  0  0  0
  8 29  1  0  0  0  0
  9 10  1  0  0  0  0
  9 30  1  0  0  0  0
 10 11  2  0  0  0  0
 10 31  1  0  0  0  0
 11 32  1  0  0  0  0
 12 13  1  0  0  0  0
 12 33  1  0  0  0  0
 12 34  1  0  0  0  0
 13 21  1  0  0  0  0
 13 14  1  0  0  0  0
 14 15  2  0  0  0  0
 14 35  1  0  0  0  0
 15 16  1  0  0  0  0
 15 40  1  0  0  0  0
 16 21  2  0  0  0  0
 16 17  1  0  0  0  0
 17 18  2  0  0  0  0
 17 36  1  0  0  0  0
 18 19  1  0  0  0  0
 18 37  1  0  0  0  0
 19 20  2  0  0  0  0
 19 38  1  0  0  0  0
 20 21  1  0  0  0  0
 20 39  1  0  0  0  0
M  CHG  1  15   1
M  END
> <s_m_source_file>
AV-unprocessed.smi

> <i_m_source_file_index>
2004

> <i_lp_mmshare_version>
43012

> <i_f3d_flags>
0

> <s_epik_input>
W2NIXTFbY0hdW2NIXVtjSF1jKGMxMiluKFtjSF1uMilbQ0gyXVtDQEhdKFtPSF0pW0NIMl1PW0NIMl1jM1tjSF1bY0hdW2NIXVtjSF1bY0hdMw==

> <s_epik_cmdline>
J2VwaWtfcHl0aG9uJywgJy1waCcsICc3LjAnLCAnLXRuJywgJzgnLCAnLW1hJywgJzIwMCcsICctbWV0YWxfYmluZGluZycsICctaW1hZScsICc8aW5maWxlLm1hZT4nLCAnLW9tYWUnLCAnPG91dGZpbGUubWFlPic=

> <r_epik_Ionization_Penalty>
1.28975

> <r_epik_Ionization_Penalty_Charging>
1.28975

> <r_epik_Ionization_Penalty_Neutral>
1.07667e-06

> <r_epik_State_Penalty>
1.36276

> <r_epik_Charging_Adjusted_Penalty>
2.65251

> <i_epik_Tot_Q>
1

> <i_epik_Tot_abs_Q>
1

> <r_epik_Metal_State_Penalty>
5.39298

> <b_epik_Metal_Only>
0

> <s_lp_Force_Field>
OPLS_2005

> <r_lp_Energy>
18.9764

> <b_lp_Chiralities_Consistent>
1

> <s_lp_Variant>
AV-unprocessed.smi:2004-4

> <Gold.Version>
5.8.1

> <Gold.Id.Protein>
6NUR|6NUR_protein|mol2

> <Gold.PLP.Fitness>
52.8400

> <Gold.PLP.PLP>
-47.2274

> <Gold.PLP.part.hbond>
-2.0000

> <Gold.PLP.part.metal>
0.0000

> <Gold.PLP.part.buried>
-6.4395

> <Gold.PLP.part.nonpolar>
-40.1839

> <Gold.PLP.part.repulsive>
0.0774

> <Gold.PLP.ligand.clash>
0.0000

> <Gold.PLP.ligand.torsion>
0.7620

> <Gold.PLP.Chemscore.Hbond>
2.3494

> <Gold.PLP.Chemscore.CHOScore>
0.0000

> <Gold.PLP.Chemscore.Metal>
0.0000

> <Gold.Chemscore.Hbonds>
donor molecule, donor type, donor heavy atom, donor atom, acceptor molecule, acceptor atom, score
      L1  H    15    40       P1  8028  2.00

> <Gold.PLP.Chemscore.Internal.Correction>
0.0882

> <Gold.Rescore>
     Score         DG    S(hbond)    S(metal)    S(lipo)     H(rot)  DE(clash)    DE(int)     intcor
     18.55     -19.43       1.43        0.00     131.51       2.43       0.01       0.87       ----

> <Gold.Chemscore.Fitness>
18.5507

> <Gold.Chemscore.DG>
-19.4338

> <Gold.Chemscore.ZeroCoef>
-5.4800

> <Gold.Chemscore.Hbond>
1.4312

> <Gold.Chemscore.Metal>
0.0000

> <Gold.Chemscore.Lipo>
131.5083

> <Gold.Chemscore.Internal_Hbond>
0.0000

> <Gold.Chemscore.DEClash>
0.0082

> <Gold.Chemscore.DEInternal>
0.8749

> <Gold.Chemscore.Rot>
2.4269

> <Gold.Chemscore.Internal.Correction>
   9.000000E+99

> <Gold.Chemscore.Hbonds>
donor molecule, donor type, donor heavy atom, donor atom, acceptor molecule, acceptor atom, score
      L1  H    15    40       P1  8028  1.00

> <Gold.Chemscore.Hbond.Weighted>
-4.7801

> <Gold.Chemscore.Metal.Weighted>
-0.0000

> <Gold.Chemscore.Lipo.Weighted>
-15.3865

> <Gold.Chemscore.Internal_Hbond.Weighted>
0.0000

> <Gold.Chemscore.DEClash.Weighted>
0.0082

> <Gold.Chemscore.DEInternal.Weighted>
0.8749

> <Gold.Chemscore.Rot.Weighted>
6.2127

> <Gold.Chemscore.Internal.Correction.Weighted>
   9.000000E+99

> <Gold.Protein.RotatedTorsions>
[ 6907 6896 6895 6894 ] final  112.25 input  -60.11 | X-H torsion
[ 7974 7965 7964 7962 ] final  -19.12 input  175.53 | X-H torsion
[ 8008 7997 7996 7995 ] final  -17.14 input   59.86 | X-H torsion
[ 10167 10162 10161 10158 ] final -154.98 input  -65.29 | X-H torsion
[ 10718 10713 10712 10709 ] final -127.16 input   66.30 | X-H torsion
[ 10763 10752 10751 10750 ] final -104.60 input  -60.55 | X-H torsion
[ 11005 11000 10999 10996 ] final  102.38 input  -57.11 | X-H torsion

> <Gold.Protein.ActiveResidues>
 VAL166  LYS551  ARG553  GLY616  TRP617  ASP618  TYR619  PRO620  LYS621  CYS622 
 ASP623  PHE694  ASN695  SER759  ASP760  ASP761  ALA762  ILE779  LEU786  VAL792 
 PHE793  MET794  SER795  GLU796  ALA797  LYS798  CYS799  TRP800  GLU811  SER814 

> <Gold.Protein.RotatedAtoms>
  152.4927  133.8543  159.7217 H   0  0  0  0  0  0  0  0  0  0  0  0  # atno 6907 bound_to 6896
  150.9072  133.7034  159.2870 H   0  0  0  0  0  0  0  0  0  0  0  0  # atno 6908 bound_to 6896
  151.4456  135.1029  159.9735 H   0  0  0  0  0  0  0  0  0  0  0  0  # atno 6909 bound_to 6896
  146.1858  140.4017  142.8477 H   0  0  0  0  0  0  0  0  0  0  0  0  # atno 7974 bound_to 7965
  154.5000  140.2151  155.9366 H   0  0  0  0  0  0  0  0  0  0  0  0  # atno 8008 bound_to 7997
  156.1422  140.3177  155.8480 H   0  0  0  0  0  0  0  0  0  0  0  0  # atno 8009 bound_to 7997
  155.4099  140.0490  157.3023 H   0  0  0  0  0  0  0  0  0  0  0  0  # atno 8010 bound_to 7997
  139.6969  143.9328  152.2411 H   0  0  0  0  0  0  0  0  0  0  0  0  # atno 10167 bound_to 10162
  156.1831  130.6745  151.0330 H   0  0  0  0  0  0  0  0  0  0  0  0  # atno 10718 bound_to 10713
  154.7889  135.4780  154.0008 H   0  0  0  0  0  0  0  0  0  0  0  0  # atno 10763 bound_to 10752
  153.1601  135.6807  153.8761 H   0  0  0  0  0  0  0  0  0  0  0  0  # atno 10764 bound_to 10752
  153.8378  135.3183  155.3402 H   0  0  0  0  0  0  0  0  0  0  0  0  # atno 10765 bound_to 10752
  139.8777  134.9221  156.5049 H   0  0  0  0  0  0  0  0  0  0  0  0  # atno 11005 bound_to 11000
  144.8394  140.6833  143.6239 LP  0  0  0  0  0  0  0  0  0  0  0  0  # atno 17320 bound_to 7965
  145.3944  139.1610  143.4212 LP  0  0  0  0  0  0  0  0  0  0  0  0  # atno 17321 bound_to 7965
  139.9159  144.6829  150.8512 LP  0  0  0  0  0  0  0  0  0  0  0  0  # atno 17342 bound_to 10162
  140.7699  143.3409  151.2209 LP  0  0  0  0  0  0  0  0  0  0  0  0  # atno 17343 bound_to 10162
  157.6881  131.0818  150.7185 LP  0  0  0  0  0  0  0  0  0  0  0  0  # atno 17370 bound_to 10713
  156.7242  130.4690  149.5515 LP  0  0  0  0  0  0  0  0  0  0  0  0  # atno 17371 bound_to 10713
  140.8562  133.8094  155.9219 LP  0  0  0  0  0  0  0  0  0  0  0  0  # atno 17394 bound_to 11000
  140.9095  134.2278  157.4994 LP  0  0  0  0  0  0  0  0  0  0  0  0  # atno 17395 bound_to 11000

$$$$
