AV-unprocessed.smi:35|AV-procd|sdf|269|dock4
  -GOLD-   2262016 33D 1   1.00000     0.00000
 Structure written by MMmdl.
 28 29  0  0  0  0  0  0  0  0  2 V2000
  151.7585  136.9278  159.4745 O   0  0  0  0  0  0  0  0  0  0  0  0
  151.4724  137.4779  158.4127 C   0  0  0  0  0  0  0  0  0  0  0  0
  152.4048  138.0546  157.6016 N   0  5  0  0  0  0  0  0  0  0  0  0
  152.0846  138.6458  156.4132 C   0  0  0  0  0  0  0  0  0  0  0  0
  152.9165  139.2158  155.7076 O   0  0  0  0  0  0  0  0  0  0  0  0
  150.7321  138.6176  155.9670 N   0  0  0  0  0  0  0  0  0  0  0  0
  150.3659  139.2920  154.6530 C   0  0  2  0  0  0  0  0  0  0  0  0
  150.6544  140.6619  154.7350 O   0  0  0  0  0  0  0  0  0  0  0  0
  149.4688  141.4453  154.8706 C   0  0  2  0  0  0  0  0  0  0  0  0
  149.0880  141.6230  156.3593 C   0  0  0  0  0  0  0  0  0  0  0  0
  149.9502  142.5594  156.9699 O   0  0  0  0  0  0  0  0  0  0  0  0
  148.4729  140.6303  154.0387 C   0  0  2  0  0  0  0  0  0  0  0  0
  147.1223  140.8914  154.3674 O   0  0  0  0  0  0  0  0  0  0  0  0
  148.8562  139.1861  154.3323 C   0  0  1  0  0  0  0  0  0  0  0  0
  148.6148  138.3967  153.1850 O   0  0  0  0  0  0  0  0  0  0  0  0
  149.7569  138.1000  156.8070 C   0  0  0  0  0  0  0  0  0  0  0  0
  150.0776  137.5333  157.9873 C   0  0  0  0  0  0  0  0  0  0  0  0
  148.5779  136.8188  159.0672 Br  0  0  0  0  0  0  0  0  0  0  0  0
  151.0167  138.8225  153.9133 H   0  0  0  0  0  0  0  0  0  0  0  0
  149.6163  142.4261  154.4166 H   0  0  0  0  0  0  0  0  0  0  0  0
  148.0822  142.0320  156.4506 H   0  0  0  0  0  0  0  0  0  0  0  0
  149.0902  140.6827  156.9081 H   0  0  0  0  0  0  0  0  0  0  0  0
  149.7919  143.4078  156.5848 H   0  0  0  0  0  0  0  0  0  0  0  0
  148.6352  140.8573  152.9834 H   0  0  0  0  0  0  0  0  0  0  0  0
  146.6146  140.1206  154.1633 H   0  0  0  0  0  0  0  0  0  0  0  0
  148.3113  138.8053  155.1980 H   0  0  0  0  0  0  0  0  0  0  0  0
  148.8429  138.9113  152.4244 H   0  0  0  0  0  0  0  0  0  0  0  0
  148.7149  138.1407  156.5303 H   0  0  0  0  0  0  0  0  0  0  0  0
  1  2  2  0  0  0  0
  2 17  1  0  0  0  0
  2  3  1  0  0  0  0
  3  4  1  0  0  0  0
  4  5  2  0  0  0  0
  4  6  1  0  0  0  0
  6  7  1  0  0  0  0
  6 16  1  0  0  0  0
  7 14  1  0  0  0  0
  7  8  1  0  0  0  0
  7 19  1  0  0  0  0
  8  9  1  0  0  0  0
  9 10  1  0  0  0  0
  9 12  1  0  0  0  0
  9 20  1  0  0  0  0
 10 11  1  0  0  0  0
 10 21  1  0  0  0  0
 10 22  1  0  0  0  0
 11 23  1  0  0  0  0
 12 13  1  0  0  0  0
 12 14  1  0  0  0  0
 12 24  1  0  0  0  0
 13 25  1  0  0  0  0
 14 15  1  0  0  0  0
 14 26  1  0  0  0  0
 15 27  1  0  0  0  0
 16 17  2  0  0  0  0
 16 28  1  0  0  0  0
 17 18  1  0  0  0  0
M  CHG  1   3  -1
M  END
> <s_m_source_file>
AV-unprocessed.smi

> <i_m_source_file_index>
35

> <i_lp_mmshare_version>
43012

> <i_f3d_flags>
0

> <s_epik_input>
Tz1jMVtuSF1jKD1PKW4oW2NIXWMxQnIpW0NAQEhdMk9bQ0BASF0oW0NIMl1bT0hdKVtDQEBIXShbT0hdKVtDQEhdMltPSF0=

> <s_epik_cmdline>
J2VwaWtfcHl0aG9uJywgJy1waCcsICc3LjAnLCAnLXRuJywgJzgnLCAnLW1hJywgJzIwMCcsICctbWV0YWxfYmluZGluZycsICctaW1hZScsICc8aW5maWxlLm1hZT4nLCAnLW9tYWUnLCAnPG91dGZpbGUubWFlPic=

> <r_epik_Ionization_Penalty>
1.06112

> <r_epik_Ionization_Penalty_Charging>
2.1796e-09

> <r_epik_Ionization_Penalty_Neutral>
1.06112

> <r_epik_State_Penalty>
1.11484

> <r_epik_Charging_Adjusted_Penalty>
1.11484

> <i_epik_Tot_Q>
-1

> <i_epik_Tot_abs_Q>
1

> <r_epik_Metal_State_Penalty>
0.0032876

> <b_epik_Metal_Only>
0

> <s_epik_Chemistry_Notes>
This compound contains an acetal/aminal-like group ( X-CH(R)-Y where X, Y are N, S, or O) that may be acid/base labile, releasing an aldehyde.

> <s_lp_Force_Field>
OPLS_2005

> <r_lp_Energy>
39.1741

> <b_lp_Chiralities_Consistent>
1

> <s_lp_Variant>
AV-unprocessed.smi:35-23

> <Gold.Version>
5.8.1

> <Gold.Id.Protein>
6NUR|6NUR_protein|mol2

> <Gold.PLP.Fitness>
40.2112

> <Gold.PLP.PLP>
-25.5743

> <Gold.PLP.part.hbond>
-5.6700

> <Gold.PLP.part.metal>
0.0000

> <Gold.PLP.part.buried>
-3.1160

> <Gold.PLP.part.nonpolar>
-16.5028

> <Gold.PLP.part.repulsive>
0.1009

> <Gold.PLP.ligand.clash>
0.0000

> <Gold.PLP.ligand.torsion>
0.1282

> <Gold.PLP.Chemscore.Hbond>
4.9440

> <Gold.PLP.Chemscore.CHOScore>
0.0000

> <Gold.PLP.Chemscore.Metal>
0.0000

> <Gold.Chemscore.Hbonds>
donor molecule, donor type, donor heavy atom, donor atom, acceptor molecule, acceptor atom, score
      L1  H    11    23       P1  8028  1.00
      L1  H    15    27       P1  7957  1.00
      P1  H  6896  6907       L1     1  1.00
      P1  H  7989  7998       L1     8  0.94
      P1  H  7997  8008       L1     5  1.00

> <Gold.PLP.Chemscore.Internal.Correction>
0.0613

> <Gold.Rescore>
     Score         DG    S(hbond)    S(metal)    S(lipo)     H(rot)  DE(clash)    DE(int)     intcor
     13.51     -14.98       4.42        0.00      34.42       3.63       0.01       1.46       ----

> <Gold.Chemscore.Fitness>
13.5123

> <Gold.Chemscore.DG>
-14.9763

> <Gold.Chemscore.ZeroCoef>
-5.4800

> <Gold.Chemscore.Hbond>
4.4168

> <Gold.Chemscore.Metal>
0.0000

> <Gold.Chemscore.Lipo>
34.4169

> <Gold.Chemscore.Internal_Hbond>
0.0000

> <Gold.Chemscore.DEClash>
0.0069

> <Gold.Chemscore.DEInternal>
1.4570

> <Gold.Chemscore.Rot>
3.6261

> <Gold.Chemscore.Internal.Correction>
   9.000000E+99

> <Gold.Chemscore.Hbonds>
donor molecule, donor type, donor heavy atom, donor atom, acceptor molecule, acceptor atom, score
      L1  H    11    23       P1  8028  0.99
      L1  H    15    27       P1  7957  0.98
      P1  H  6896  6907       L1     1  0.98
      P1  H  7989  7998       L1     8  0.34
      P1  H  7997  8008       L1     5  0.99

> <Gold.Chemscore.Hbond.Weighted>
-14.7523

> <Gold.Chemscore.Metal.Weighted>
-0.0000

> <Gold.Chemscore.Lipo.Weighted>
-4.0268

> <Gold.Chemscore.Internal_Hbond.Weighted>
0.0000

> <Gold.Chemscore.DEClash.Weighted>
0.0069

> <Gold.Chemscore.DEInternal.Weighted>
1.4570

> <Gold.Chemscore.Rot.Weighted>
9.2828

> <Gold.Chemscore.Internal.Correction.Weighted>
   9.000000E+99

> <Gold.Protein.RotatedTorsions>
[ 6907 6896 6895 6894 ] final   12.36 input  -60.11 | X-H torsion
[ 7974 7965 7964 7962 ] final    3.96 input  175.53 | X-H torsion
[ 8008 7997 7996 7995 ] final  -44.51 input   59.86 | X-H torsion
[ 10167 10162 10161 10158 ] final  -20.28 input  -65.29 | X-H torsion
[ 10718 10713 10712 10709 ] final   39.75 input   66.30 | X-H torsion
[ 10763 10752 10751 10750 ] final  -13.19 input  -60.55 | X-H torsion
[ 11005 11000 10999 10996 ] final  140.99 input  -57.11 | X-H torsion

> <Gold.Protein.ActiveResidues>
 VAL166  LYS551  ARG553  GLY616  TRP617  ASP618  TYR619  PRO620  LYS621  CYS622 
 ASP623  PHE694  ASN695  SER759  ASP760  ASP761  ALA762  ILE779  LEU786  VAL792 
 PHE793  MET794  SER795  GLU796  ALA797  LYS798  CYS799  TRP800  GLU811  SER814 

> <Gold.Protein.RotatedAtoms>
  151.7690  135.0791  160.0356 H   0  0  0  0  0  0  0  0  0  0  0  0  # atno 6907 bound_to 6896
  152.3301  133.5945  159.5812 H   0  0  0  0  0  0  0  0  0  0  0  0  # atno 6908 bound_to 6896
  150.7418  133.9796  159.3614 H   0  0  0  0  0  0  0  0  0  0  0  0  # atno 6909 bound_to 6896
  146.2444  140.0606  142.8369 H   0  0  0  0  0  0  0  0  0  0  0  0  # atno 7974 bound_to 7965
  154.3997  140.1420  156.3694 H   0  0  0  0  0  0  0  0  0  0  0  0  # atno 8008 bound_to 7997
  155.8107  140.3473  155.5435 H   0  0  0  0  0  0  0  0  0  0  0  0  # atno 8009 bound_to 7997
  155.8390  140.0924  157.1737 H   0  0  0  0  0  0  0  0  0  0  0  0  # atno 8010 bound_to 7997
  140.7275  143.4737  151.0211 H   0  0  0  0  0  0  0  0  0  0  0  0  # atno 10167 bound_to 10162
  157.3742  130.7718  149.7142 H   0  0  0  0  0  0  0  0  0  0  0  0  # atno 10718 bound_to 10713
  153.5097  135.7016  153.5787 H   0  0  0  0  0  0  0  0  0  0  0  0  # atno 10763 bound_to 10752
  153.3883  135.3902  155.1905 H   0  0  0  0  0  0  0  0  0  0  0  0  # atno 10764 bound_to 10752
  154.8704  135.3852  154.4575 H   0  0  0  0  0  0  0  0  0  0  0  0  # atno 10765 bound_to 10752
  140.0368  134.9325  157.0768 H   0  0  0  0  0  0  0  0  0  0  0  0  # atno 11005 bound_to 11000
  145.0903  140.9280  143.4773 LP  0  0  0  0  0  0  0  0  0  0  0  0  # atno 17320 bound_to 7965
  145.0777  139.2983  143.5799 LP  0  0  0  0  0  0  0  0  0  0  0  0  # atno 17321 bound_to 7965
  139.8431  143.7537  152.3180 LP  0  0  0  0  0  0  0  0  0  0  0  0  # atno 17342 bound_to 10162
  139.7693  144.7482  151.0248 LP  0  0  0  0  0  0  0  0  0  0  0  0  # atno 17343 bound_to 10162
  155.9762  130.4079  150.3797 LP  0  0  0  0  0  0  0  0  0  0  0  0  # atno 17370 bound_to 10713
  157.1892  131.0411  151.2709 LP  0  0  0  0  0  0  0  0  0  0  0  0  # atno 17371 bound_to 10713
  140.4134  134.1957  155.7163 LP  0  0  0  0  0  0  0  0  0  0  0  0  # atno 17394 bound_to 11000
  141.1862  133.8308  157.1078 LP  0  0  0  0  0  0  0  0  0  0  0  0  # atno 17395 bound_to 11000

$$$$
