AV-unprocessed.smi:2467|AV-procd|sdf|9728|dock5
  -GOLD-   2272013373D 1   1.00000     0.00000
 Structure written by MMmdl.
 46 47  0  0  0  0  0  0  0  0  1 V2000
  153.0268  138.4875  154.7281 C   0  0  0  0  0  0  0  0  0  0  0  0
  151.5501  138.0923  154.5726 C   0  0  0  0  0  0  0  0  0  0  0  0
  150.5481  139.2774  154.5691 C   0  0  0  0  0  0  0  0  0  0  0  0
  150.6017  140.0291  155.9271 C   0  0  0  0  0  0  0  0  0  0  0  0
  150.0989  141.4788  155.9153 C   0  0  0  0  0  0  0  0  0  0  0  0
  149.1002  138.8173  154.2226 C   0  0  1  0  0  0  0  0  0  0  0  0
  148.4896  137.8760  155.2919 C   0  0  0  0  0  0  0  0  0  0  0  0
  147.0799  137.4109  154.8947 C   0  0  2  0  0  0  0  0  0  0  0  0
  147.1693  136.4971  153.7595 N   0  0  0  0  0  0  0  0  0  0  0  0
  146.1905  135.7145  153.2809 C   0  0  0  0  0  0  0  0  0  0  0  0
  145.0601  135.6915  153.7646 O   0  0  0  0  0  0  0  0  0  0  0  0
  146.5152  134.9426  152.2208 N   0  0  0  0  0  0  0  0  0  0  0  0
  145.7482  134.0059  151.4637 C   0  0  0  0  0  0  0  0  0  0  0  0
  146.5102  133.1852  150.6011 C   0  0  0  0  0  0  0  0  0  0  0  0
  145.8622  132.2239  149.8012 C   0  0  0  0  0  0  0  0  0  0  0  0
  144.4636  132.1052  149.8822 C   0  0  0  0  0  0  0  0  0  0  0  0
  143.7771  132.9585  150.7644 C   0  0  0  0  0  0  0  0  0  0  0  0
  144.3975  133.8795  151.5312 N   0  0  0  0  0  0  0  0  0  0  0  0
  146.2110  138.6380  154.5704 C   0  0  0  0  0  0  0  0  0  0  0  0
  146.9272  139.5847  153.5935 C   0  0  0  0  0  0  0  0  0  0  0  0
  148.2113  139.9293  154.1050 O   0  0  0  0  0  0  0  0  0  0  0  0
  153.6715  137.6224  154.5714 H   0  0  0  0  0  0  0  0  0  0  0  0
  153.2462  138.8707  155.7240 H   0  0  0  0  0  0  0  0  0  0  0  0
  153.3121  139.2466  153.9994 H   0  0  0  0  0  0  0  0  0  0  0  0
  151.4785  137.5535  153.6277 H   0  0  0  0  0  0  0  0  0  0  0  0
  151.2795  137.3778  155.3512 H   0  0  0  0  0  0  0  0  0  0  0  0
  150.8809  139.9613  153.7869 H   0  0  0  0  0  0  0  0  0  0  0  0
  150.0428  139.4685  156.6775 H   0  0  0  0  0  0  0  0  0  0  0  0
  151.6301  140.0613  156.2832 H   0  0  0  0  0  0  0  0  0  0  0  0
  150.2870  141.9557  156.8773 H   0  0  0  0  0  0  0  0  0  0  0  0
  149.0249  141.5316  155.7395 H   0  0  0  0  0  0  0  0  0  0  0  0
  150.6057  142.0683  155.1511 H   0  0  0  0  0  0  0  0  0  0  0  0
  149.1301  138.3199  153.2516 H   0  0  0  0  0  0  0  0  0  0  0  0
  149.1189  137.0078  155.4763 H   0  0  0  0  0  0  0  0  0  0  0  0
  148.4338  138.4072  156.2430 H   0  0  0  0  0  0  0  0  0  0  0  0
  146.6405  136.8713  155.7355 H   0  0  0  0  0  0  0  0  0  0  0  0
  148.0647  136.4487  153.2935 H   0  0  0  0  0  0  0  0  0  0  0  0
  147.4676  135.0521  151.9036 H   0  0  0  0  0  0  0  0  0  0  0  0
  147.5847  133.2879  150.5495 H   0  0  0  0  0  0  0  0  0  0  0  0
  146.4296  131.5887  149.1371 H   0  0  0  0  0  0  0  0  0  0  0  0
  143.9312  131.3799  149.2850 H   0  0  0  0  0  0  0  0  0  0  0  0
  142.7027  132.9020  150.8584 H   0  0  0  0  0  0  0  0  0  0  0  0
  145.2425  138.3374  154.1691 H   0  0  0  0  0  0  0  0  0  0  0  0
  146.0031  139.1790  155.4942 H   0  0  0  0  0  0  0  0  0  0  0  0
  147.0235  139.1308  152.6060 H   0  0  0  0  0  0  0  0  0  0  0  0
  146.3444  140.4967  153.4652 H   0  0  0  0  0  0  0  0  0  0  0  0
  1  2  1  0  0  0  0
  1 22  1  0  0  0  0
  1 23  1  0  0  0  0
  1 24  1  0  0  0  0
  2  3  1  0  0  0  0
  2 25  1  0  0  0  0
  2 26  1  0  0  0  0
  3  4  1  0  0  0  0
  3  6  1  0  0  0  0
  3 27  1  0  0  0  0
  4  5  1  0  0  0  0
  4 28  1  0  0  0  0
  4 29  1  0  0  0  0
  5 30  1  0  0  0  0
  5 31  1  0  0  0  0
  5 32  1  0  0  0  0
  6 21  1  0  0  0  0
  6  7  1  0  0  0  0
  6 33  1  0  0  0  0
  7  8  1  0  0  0  0
  7 34  1  0  0  0  0
  7 35  1  0  0  0  0
  8  9  1  0  0  0  0
  8 19  1  0  0  0  0
  8 36  1  0  0  0  0
  9 10  1  0  0  0  0
  9 37  1  0  0  0  0
 10 11  2  0  0  0  0
 10 12  1  0  0  0  0
 12 13  1  0  0  0  0
 12 38  1  0  0  0  0
 13 18  1  0  0  0  0
 13 14  2  0  0  0  0
 14 15  1  0  0  0  0
 14 39  1  0  0  0  0
 15 16  2  0  0  0  0
 15 40  1  0  0  0  0
 16 17  1  0  0  0  0
 16 41  1  0  0  0  0
 17 18  2  0  0  0  0
 17 42  1  0  0  0  0
 19 20  1  0  0  0  0
 19 43  1  0  0  0  0
 19 44  1  0  0  0  0
 20 21  1  0  0  0  0
 20 45  1  0  0  0  0
 20 46  1  0  0  0  0
M  END
> <s_m_source_file>
AV-unprocessed.smi

> <i_m_source_file_index>
2467

> <i_lp_mmshare_version>
43012

> <i_f3d_flags>
0

> <s_epik_input>
W0NIM11bQ0gyXVtDSF0oW0NIMl1bQ0gzXSlbQ0BASF0xW0NIMl1bQ0BIXShbQ0gyXVtDSDJdTzEpW05IXUMoPU8pW05IXWMyW2NIXVtjSF1bY0hdW2NIXW4y

> <s_epik_cmdline>
J2VwaWtfcHl0aG9uJywgJy1waCcsICc3LjAnLCAnLXRuJywgJzgnLCAnLW1hJywgJzIwMCcsICctbWV0YWxfYmluZGluZycsICctaW1hZScsICc8aW5maWxlLm1hZT4nLCAnLW9tYWUnLCAnPG91dGZpbGUubWFlPic=

> <r_lp_tautomer_probability>
1

> <r_epik_Ionization_Penalty>
4.80427e-05

> <r_epik_Ionization_Penalty_Charging>
0

> <r_epik_Ionization_Penalty_Neutral>
4.80427e-05

> <r_epik_State_Penalty>
-0

> <r_epik_Charging_Adjusted_Penalty>
0

> <i_epik_Tot_Q>
0

> <i_epik_Tot_abs_Q>
0

> <r_epik_Metal_State_Penalty>
-0

> <b_epik_Metal_Only>
0

> <s_lp_Force_Field>
OPLS_2005

> <r_lp_Energy>
20.8854

> <b_lp_Chiralities_Consistent>
1

> <s_lp_Variant>
AV-unprocessed.smi:2467-4

> <Gold.Version>
5.8.1

> <Gold.Id.Protein>
6NUR|6NUR_protein|mol2

> <Gold.PLP.Fitness>
45.8196

> <Gold.PLP.PLP>
-37.8476

> <Gold.PLP.part.hbond>
-2.0000

> <Gold.PLP.part.metal>
0.0000

> <Gold.PLP.part.buried>
-2.5783

> <Gold.PLP.part.nonpolar>
-33.3711

> <Gold.PLP.part.repulsive>
1.2213

> <Gold.PLP.ligand.clash>
0.0000

> <Gold.PLP.ligand.torsion>
0.3704

> <Gold.PLP.Chemscore.Hbond>
1.9040

> <Gold.PLP.Chemscore.CHOScore>
0.9857

> <Gold.PLP.Chemscore.Metal>
0.0000

> <Gold.Chemscore.Hbonds>
donor molecule, donor type, donor heavy atom, donor atom, acceptor molecule, acceptor atom, score
      L1  H     9    37       P1  7948  0.99
      L1  H    12    38       P1  7948  0.93
      L1  C    17    42       P1 10186  0.70

> <Gold.PLP.Chemscore.Internal.Correction>
0.0435

> <Gold.Rescore>
     Score         DG    S(hbond)    S(metal)    S(lipo)     H(rot)  DE(clash)    DE(int)     intcor
     16.61     -18.38       1.82        0.00      90.70       1.49       0.04       1.73       ----

> <Gold.Chemscore.Fitness>
16.6110

> <Gold.Chemscore.DG>
-18.3828

> <Gold.Chemscore.ZeroCoef>
-5.4800

> <Gold.Chemscore.Hbond>
1.8245

> <Gold.Chemscore.Metal>
0.0000

> <Gold.Chemscore.Lipo>
90.7017

> <Gold.Chemscore.Internal_Hbond>
0.0000

> <Gold.Chemscore.DEClash>
0.0411

> <Gold.Chemscore.DEInternal>
1.7307

> <Gold.Chemscore.Rot>
1.4856

> <Gold.Chemscore.Internal.Correction>
   9.000000E+99

> <Gold.Chemscore.Hbonds>
donor molecule, donor type, donor heavy atom, donor atom, acceptor molecule, acceptor atom, score
      L1  H     9    37       P1  7948  0.93
      L1  H    12    38       P1  7948  0.81

> <Gold.Chemscore.Hbond.Weighted>
-6.0937

> <Gold.Chemscore.Metal.Weighted>
-0.0000

> <Gold.Chemscore.Lipo.Weighted>
-10.6121

> <Gold.Chemscore.Internal_Hbond.Weighted>
0.0000

> <Gold.Chemscore.DEClash.Weighted>
0.0411

> <Gold.Chemscore.DEInternal.Weighted>
1.7307

> <Gold.Chemscore.Rot.Weighted>
3.8031

> <Gold.Chemscore.Internal.Correction.Weighted>
   9.000000E+99

> <Gold.Protein.RotatedTorsions>
[ 6907 6896 6895 6894 ] final  -83.42 input  -60.11 | X-H torsion
[ 7974 7965 7964 7962 ] final  -26.75 input  175.53 | X-H torsion
[ 8008 7997 7996 7995 ] final  -28.42 input   59.86 | X-H torsion
[ 10167 10162 10161 10158 ] final  129.59 input  -65.29 | X-H torsion
[ 10718 10713 10712 10709 ] final -144.71 input   66.30 | X-H torsion
[ 10763 10752 10751 10750 ] final  152.80 input  -60.55 | X-H torsion
[ 11005 11000 10999 10996 ] final -178.27 input  -57.11 | X-H torsion

> <Gold.Protein.ActiveResidues>
 VAL166  LYS551  ARG553  GLY616  TRP617  ASP618  TYR619  PRO620  LYS621  CYS622 
 ASP623  PHE694  ASN695  SER759  ASP760  ASP761  ALA762  ILE779  LEU786  VAL792 
 PHE793  MET794  SER795  GLU796  ALA797  LYS798  CYS799  TRP800  GLU811  SER814 

> <Gold.Protein.RotatedAtoms>
  150.6886  134.3514  159.4910 H   0  0  0  0  0  0  0  0  0  0  0  0  # atno 6907 bound_to 6896
  152.1355  134.9100  160.0566 H   0  0  0  0  0  0  0  0  0  0  0  0  # atno 6908 bound_to 6896
  152.0254  133.3880  159.4312 H   0  0  0  0  0  0  0  0  0  0  0  0  # atno 6909 bound_to 6896
  146.1405  140.5061  142.8654 H   0  0  0  0  0  0  0  0  0  0  0  0  # atno 7974 bound_to 7965
  154.4333  140.1846  156.1086 H   0  0  0  0  0  0  0  0  0  0  0  0  # atno 8008 bound_to 7997
  156.0236  140.3338  155.7039 H   0  0  0  0  0  0  0  0  0  0  0  0  # atno 8009 bound_to 7997
  155.5941  140.0634  157.2741 H   0  0  0  0  0  0  0  0  0  0  0  0  # atno 8010 bound_to 7997
  139.5470  144.6782  151.4441 H   0  0  0  0  0  0  0  0  0  0  0  0  # atno 10167 bound_to 10162
  156.3735  130.7800  151.1984 H   0  0  0  0  0  0  0  0  0  0  0  0  # atno 10718 bound_to 10713
  154.1258  135.2830  155.3197 H   0  0  0  0  0  0  0  0  0  0  0  0  # atno 10763 bound_to 10752
  154.6391  135.5409  153.7771 H   0  0  0  0  0  0  0  0  0  0  0  0  # atno 10764 bound_to 10752
  153.0297  135.6481  154.1410 H   0  0  0  0  0  0  0  0  0  0  0  0  # atno 10765 bound_to 10752
  140.4316  134.6513  157.4715 H   0  0  0  0  0  0  0  0  0  0  0  0  # atno 11005 bound_to 11000
  144.7787  140.5794  143.6620 LP  0  0  0  0  0  0  0  0  0  0  0  0  # atno 17320 bound_to 7965
  145.5059  139.1481  143.3632 LP  0  0  0  0  0  0  0  0  0  0  0  0  # atno 17321 bound_to 7965
  140.6722  143.8269  150.7013 LP  0  0  0  0  0  0  0  0  0  0  0  0  # atno 17342 bound_to 10162
  140.1697  143.4205  152.2010 LP  0  0  0  0  0  0  0  0  0  0  0  0  # atno 17343 bound_to 10162
  157.7486  131.0365  150.4413 LP  0  0  0  0  0  0  0  0  0  0  0  0  # atno 17370 bound_to 10713
  156.4644  130.4039  149.6556 LP  0  0  0  0  0  0  0  0  0  0  0  0  # atno 17371 bound_to 10713
  140.0130  134.6661  155.9352 LP  0  0  0  0  0  0  0  0  0  0  0  0  # atno 17394 bound_to 11000
  141.1743  133.6539  156.4768 LP  0  0  0  0  0  0  0  0  0  0  0  0  # atno 17395 bound_to 11000

$$$$
