AV-unprocessed.smi:2850|AV-procd|sdf|10970|dock8
  -GOLD-   2272015423D 1   1.00000     0.00000
 Structure written by MMmdl.
 44 45  0  0  0  0  0  0  0  0  1 V2000
  144.2183  135.5754  162.7338 C   0  0  0  0  0  0  0  0  0  0  0  0
  145.8231  134.7317  162.6529 S   0  0  0  0  0  0  0  0  0  0  0  0
  146.7658  135.5225  161.3840 C   0  0  0  0  0  0  0  0  0  0  0  0
  147.1326  134.8220  160.2208 C   0  0  0  0  0  0  0  0  0  0  0  0
  147.8817  135.5255  159.2614 C   0  0  0  0  0  0  0  0  0  0  0  0
  148.2054  136.8692  159.5391 C   0  0  0  0  0  0  0  0  0  0  0  0
  148.9480  137.5971  158.5999 N   0  0  0  0  0  0  0  0  0  0  0  0
  150.1691  138.2833  158.9986 C   0  0  0  0  0  0  0  0  0  0  0  0
  150.1242  139.7766  158.6483 C   0  0  1  0  0  0  0  0  0  0  0  0
  151.2923  140.5423  159.2997 C   0  0  0  0  0  0  0  0  0  0  0  0
  151.3124  141.9508  158.9196 N   0  0  0  0  0  0  0  0  0  0  0  0
  152.4281  142.6456  159.5644 C   0  0  0  0  0  0  0  0  0  0  0  0
  152.4560  144.1799  159.3959 C   0  0  0  0  0  0  0  0  0  0  0  0
  151.0744  144.7765  159.7025 C   0  0  0  0  0  0  0  0  0  0  0  0
  152.9183  144.5905  157.9884 C   0  0  0  0  0  0  0  0  0  0  0  0
  151.3533  142.0462  157.4622 C   0  0  0  0  0  0  0  0  0  0  0  0
  150.1985  141.2720  156.8043 C   0  0  0  0  0  0  0  0  0  0  0  0
  150.2282  139.9148  157.2331 O   0  0  0  0  0  0  0  0  0  0  0  0
  147.8141  137.4790  160.6873 N   0  0  0  0  0  0  0  0  0  0  0  0
  147.1012  136.8140  161.6029 N   0  0  0  0  0  0  0  0  0  0  0  0
  143.5975  135.1253  163.5082 H   0  0  0  0  0  0  0  0  0  0  0  0
  143.6945  135.4925  161.7813 H   0  0  0  0  0  0  0  0  0  0  0  0
  144.3521  136.6312  162.9698 H   0  0  0  0  0  0  0  0  0  0  0  0
  146.8518  133.7902  160.0691 H   0  0  0  0  0  0  0  0  0  0  0  0
  148.1957  135.0480  158.3446 H   0  0  0  0  0  0  0  0  0  0  0  0
  148.7412  137.5070  157.6157 H   0  0  0  0  0  0  0  0  0  0  0  0
  150.2930  138.1690  160.0763 H   0  0  0  0  0  0  0  0  0  0  0  0
  151.0296  137.8107  158.5231 H   0  0  0  0  0  0  0  0  0  0  0  0
  149.1782  140.2022  158.9889 H   0  0  0  0  0  0  0  0  0  0  0  0
  151.2153  140.4568  160.3842 H   0  0  0  0  0  0  0  0  0  0  0  0
  152.2357  140.0716  159.0176 H   0  0  0  0  0  0  0  0  0  0  0  0
  152.4071  142.4314  160.6340 H   0  0  0  0  0  0  0  0  0  0  0  0
  153.3674  142.2263  159.2000 H   0  0  0  0  0  0  0  0  0  0  0  0
  153.1483  144.6105  160.1185 H   0  0  0  0  0  0  0  0  0  0  0  0
  150.3179  144.3996  159.0133 H   0  0  0  0  0  0  0  0  0  0  0  0
  151.0875  145.8638  159.6202 H   0  0  0  0  0  0  0  0  0  0  0  0
  150.7549  144.5283  160.7150 H   0  0  0  0  0  0  0  0  0  0  0  0
  152.2567  144.1880  157.2208 H   0  0  0  0  0  0  0  0  0  0  0  0
  153.9262  144.2299  157.7813 H   0  0  0  0  0  0  0  0  0  0  0  0
  152.9327  145.6753  157.8801 H   0  0  0  0  0  0  0  0  0  0  0  0
  151.2946  143.0872  157.1469 H   0  0  0  0  0  0  0  0  0  0  0  0
  152.3038  141.6585  157.0920 H   0  0  0  0  0  0  0  0  0  0  0  0
  149.2371  141.7208  157.0592 H   0  0  0  0  0  0  0  0  0  0  0  0
  150.2899  141.3054  155.7187 H   0  0  0  0  0  0  0  0  0  0  0  0
  1  2  1  0  0  0  0
  1 21  1  0  0  0  0
  1 22  1  0  0  0  0
  1 23  1  0  0  0  0
  2  3  1  0  0  0  0
  3 20  1  0  0  0  0
  3  4  2  0  0  0  0
  4  5  1  0  0  0  0
  4 24  1  0  0  0  0
  5  6  2  0  0  0  0
  5 25  1  0  0  0  0
  6  7  1  0  0  0  0
  6 19  1  0  0  0  0
  7  8  1  0  0  0  0
  7 26  1  0  0  0  0
  8  9  1  0  0  0  0
  8 27  1  0  0  0  0
  8 28  1  0  0  0  0
  9 18  1  0  0  0  0
  9 10  1  0  0  0  0
  9 29  1  0  0  0  0
 10 11  1  0  0  0  0
 10 30  1  0  0  0  0
 10 31  1  0  0  0  0
 11 12  1  0  0  0  0
 11 16  1  0  0  0  0
 12 13  1  0  0  0  0
 12 32  1  0  0  0  0
 12 33  1  0  0  0  0
 13 14  1  0  0  0  0
 13 15  1  0  0  0  0
 13 34  1  0  0  0  0
 14 35  1  0  0  0  0
 14 36  1  0  0  0  0
 14 37  1  0  0  0  0
 15 38  1  0  0  0  0
 15 39  1  0  0  0  0
 15 40  1  0  0  0  0
 16 17  1  0  0  0  0
 16 41  1  0  0  0  0
 16 42  1  0  0  0  0
 17 18  1  0  0  0  0
 17 43  1  0  0  0  0
 17 44  1  0  0  0  0
 19 20  2  0  0  0  0
M  END
> <s_m_source_file>
AV-unprocessed.smi

> <i_m_source_file_index>
2850

> <i_lp_mmshare_version>
43012

> <i_f3d_flags>
0

> <s_epik_input>
W0NIM11TYzFbY0hdW2NIXWMobm4xKVtOSF1bQ0gyXVtDQEBIXTJbQ0gyXU4oW0NIMl1bQ0gyXU8yKVtDSDJdW0NIXShbQ0gzXSlbQ0gzXQ==

> <s_epik_cmdline>
J2VwaWtfcHl0aG9uJywgJy1waCcsICc3LjAnLCAnLXRuJywgJzgnLCAnLW1hJywgJzIwMCcsICctbWV0YWxfYmluZGluZycsICctaW1hZScsICc8aW5maWxlLm1hZT4nLCAnLW9tYWUnLCAnPG91dGZpbGUubWFlPic=

> <r_lp_tautomer_probability>
0.999978

> <r_epik_Ionization_Penalty>
1.20939

> <r_epik_Ionization_Penalty_Charging>
0

> <r_epik_Ionization_Penalty_Neutral>
1.20939

> <r_epik_State_Penalty>
1.27042

> <r_epik_Charging_Adjusted_Penalty>
1.27042

> <i_epik_Tot_Q>
0

> <i_epik_Tot_abs_Q>
0

> <r_epik_Metal_State_Penalty>
1.26998

> <b_epik_Metal_Only>
0

> <s_lp_Force_Field>
OPLS_2005

> <r_lp_Energy>
30.7386

> <b_lp_Chiralities_Consistent>
1

> <s_lp_Variant>
AV-unprocessed.smi:2850-6

> <Gold.Version>
5.8.1

> <Gold.Id.Protein>
6NUR|6NUR_protein|mol2

> <Gold.PLP.Fitness>
41.0415

> <Gold.PLP.PLP>
-39.6790

> <Gold.PLP.part.hbond>
-2.0000

> <Gold.PLP.part.metal>
0.0000

> <Gold.PLP.part.buried>
-6.4002

> <Gold.PLP.part.nonpolar>
-32.8925

> <Gold.PLP.part.repulsive>
0.1463

> <Gold.PLP.ligand.clash>
0.0000

> <Gold.PLP.ligand.torsion>
0.6974

> <Gold.PLP.Chemscore.Hbond>
0.8944

> <Gold.PLP.Chemscore.CHOScore>
0.0000

> <Gold.PLP.Chemscore.Metal>
0.0000

> <Gold.Chemscore.Hbonds>
donor molecule, donor type, donor heavy atom, donor atom, acceptor molecule, acceptor atom, score
      P1  H  6931  6943       L1    19  0.57
      P1  H  6934  6947       L1    19  0.80

> <Gold.PLP.Chemscore.Internal.Correction>
0.0742

> <Gold.Rescore>
     Score         DG    S(hbond)    S(metal)    S(lipo)     H(rot)  DE(clash)    DE(int)     intcor
     13.82     -15.52       0.53        0.00     104.38       1.55       0.05       1.64       ----

> <Gold.Chemscore.Fitness>
13.8195

> <Gold.Chemscore.DG>
-15.5162

> <Gold.Chemscore.ZeroCoef>
-5.4800

> <Gold.Chemscore.Hbond>
0.5344

> <Gold.Chemscore.Metal>
0.0000

> <Gold.Chemscore.Lipo>
104.3791

> <Gold.Chemscore.Internal_Hbond>
0.0000

> <Gold.Chemscore.DEClash>
0.0518

> <Gold.Chemscore.DEInternal>
1.6450

> <Gold.Chemscore.Rot>
1.5473

> <Gold.Chemscore.Internal.Correction>
   9.000000E+99

> <Gold.Chemscore.Hbonds>
donor molecule, donor type, donor heavy atom, donor atom, acceptor molecule, acceptor atom, score
      P1  H  6931  6943       L1    19  0.10
      P1  H  6934  6947       L1    19  0.20

> <Gold.Chemscore.Hbond.Weighted>
-1.7849

> <Gold.Chemscore.Metal.Weighted>
-0.0000

> <Gold.Chemscore.Lipo.Weighted>
-12.2124

> <Gold.Chemscore.Internal_Hbond.Weighted>
0.0000

> <Gold.Chemscore.DEClash.Weighted>
0.0518

> <Gold.Chemscore.DEInternal.Weighted>
1.6450

> <Gold.Chemscore.Rot.Weighted>
3.9610

> <Gold.Chemscore.Internal.Correction.Weighted>
   9.000000E+99

> <Gold.Protein.RotatedTorsions>
[ 6907 6896 6895 6894 ] final  149.17 input  -60.11 | X-H torsion
[ 7974 7965 7964 7962 ] final  -75.16 input  175.53 | X-H torsion
[ 8008 7997 7996 7995 ] final  -66.11 input   59.86 | X-H torsion
[ 10167 10162 10161 10158 ] final   87.89 input  -65.29 | X-H torsion
[ 10718 10713 10712 10709 ] final  126.77 input   66.30 | X-H torsion
[ 10763 10752 10751 10750 ] final  -98.40 input  -60.55 | X-H torsion
[ 11005 11000 10999 10996 ] final  -60.87 input  -57.11 | X-H torsion

> <Gold.Protein.ActiveResidues>
 VAL166  LYS551  ARG553  GLY616  TRP617  ASP618  TYR619  PRO620  LYS621  CYS622 
 ASP623  PHE694  ASN695  SER759  ASP760  ASP761  ALA762  ILE779  LEU786  VAL792 
 PHE793  MET794  SER795  GLU796  ALA797  LYS798  CYS799  TRP800  GLU811  SER814 

> <Gold.Protein.RotatedAtoms>
  152.1317  133.4411  159.4723 H   0  0  0  0  0  0  0  0  0  0  0  0  # atno 6907 bound_to 6896
  150.6878  134.2413  159.4483 H   0  0  0  0  0  0  0  0  0  0  0  0  # atno 6908 bound_to 6896
  152.0297  134.9774  160.0623 H   0  0  0  0  0  0  0  0  0  0  0  0  # atno 6909 bound_to 6896
  145.6296  140.9341  143.1094 H   0  0  0  0  0  0  0  0  0  0  0  0  # atno 7974 bound_to 7965
  154.4714  140.0919  156.7153 H   0  0  0  0  0  0  0  0  0  0  0  0  # atno 8008 bound_to 7997
  155.4714  140.3464  155.4308 H   0  0  0  0  0  0  0  0  0  0  0  0  # atno 8009 bound_to 7997
  156.1045  140.1431  156.9411 H   0  0  0  0  0  0  0  0  0  0  0  0  # atno 8010 bound_to 7997
  139.8728  144.6483  150.8931 H   0  0  0  0  0  0  0  0  0  0  0  0  # atno 10167 bound_to 10162
  157.5390  131.1097  150.8889 H   0  0  0  0  0  0  0  0  0  0  0  0  # atno 10718 bound_to 10713
  154.7411  135.5011  153.9124 H   0  0  0  0  0  0  0  0  0  0  0  0  # atno 10763 bound_to 10752
  153.1044  135.6693  153.9622 H   0  0  0  0  0  0  0  0  0  0  0  0  # atno 10764 bound_to 10752
  153.9399  135.3069  155.3422 H   0  0  0  0  0  0  0  0  0  0  0  0  # atno 10765 bound_to 10752
  141.1303  133.6625  156.5290 H   0  0  0  0  0  0  0  0  0  0  0  0  # atno 11005 bound_to 11000
  144.7199  139.8067  143.7386 LP  0  0  0  0  0  0  0  0  0  0  0  0  # atno 17320 bound_to 7965
  146.1367  139.4414  143.0135 LP  0  0  0  0  0  0  0  0  0  0  0  0  # atno 17321 bound_to 7965
  140.7758  143.3650  151.1756 LP  0  0  0  0  0  0  0  0  0  0  0  0  # atno 17342 bound_to 10162
  139.7268  143.9135  152.3005 LP  0  0  0  0  0  0  0  0  0  0  0  0  # atno 17343 bound_to 10162
  156.9447  130.5397  149.5281 LP  0  0  0  0  0  0  0  0  0  0  0  0  # atno 17370 bound_to 10713
  156.0482  130.5555  150.8928 LP  0  0  0  0  0  0  0  0  0  0  0  0  # atno 17371 bound_to 10713
  140.4231  134.7169  157.4901 LP  0  0  0  0  0  0  0  0  0  0  0  0  # atno 17394 bound_to 11000
  140.0346  134.6356  155.9061 LP  0  0  0  0  0  0  0  0  0  0  0  0  # atno 17395 bound_to 11000

$$$$
