AV-unprocessed.smi:550|AV-procd|sdf|2896|dock1
  -GOLD-   2262023393D 1   1.00000     0.00000
 Structure written by MMmdl.
 46 48  0  0  0  0  0  0  0  0  2 V2000
  151.3936  137.4320  156.5307 O   0  0  0  0  0  0  0  0  0  0  0  0
  150.7605  137.6711  155.5029 C   0  0  0  0  0  0  0  0  0  0  0  0
  150.4081  136.7279  154.6179 N   0  0  0  0  0  0  0  0  0  0  0  0
  150.6941  135.3027  154.7541 C   0  0  0  0  0  0  0  0  0  0  0  0
  149.4206  134.4280  154.6902 C   0  0  2  0  0  0  0  0  0  0  0  0
  148.3738  134.8185  155.7584 C   0  0  0  0  0  0  0  0  0  0  0  0
  148.7893  134.2331  157.1153 C   0  0  0  0  0  0  0  0  0  0  0  0
  149.7085  132.6928  156.7378 S   0  0  0  0  0  0  0  0  0  0  0  0
  151.0712  132.8080  157.2790 O   0  0  0  0  0  0  0  0  0  0  0  0
  148.8684  131.5248  157.0433 O   0  0  0  0  0  0  0  0  0  0  0  0
  149.7512  132.9449  154.9227 C   0  0  0  0  0  0  0  0  0  0  0  0
  150.3484  138.8887  155.1085 N   0  0  0  0  0  0  0  0  0  0  0  0
  150.4823  140.1345  155.7813 C   0  0  0  0  0  0  0  0  0  0  0  0
  151.2191  140.1538  156.9855 C   0  0  0  0  0  0  0  0  0  0  0  0
  151.3953  141.3675  157.6812 C   0  0  0  0  0  0  0  0  0  0  0  0
  150.8380  142.5559  157.1544 C   0  0  0  0  0  0  0  0  0  0  0  0
  150.9548  143.8126  157.7646 N   0  0  0  0  0  0  0  0  0  0  0  0
  150.2628  143.9293  159.0364 C   0  0  0  0  0  0  0  0  0  0  0  0
  150.8308  145.1887  159.6944 C   0  0  0  0  0  0  0  0  0  0  0  0
  152.2013  145.3916  159.0370 C   0  0  0  0  0  0  0  0  0  0  0  0
  152.3151  144.2675  158.0029 C   0  0  0  0  0  0  0  0  0  0  0  0
  150.1458  142.4983  155.9963 N   0  3  0  0  0  0  0  0  0  0  0  0
  149.9518  141.3571  155.3002 C   0  0  0  0  0  0  0  0  0  0  0  0
  149.8933  137.0105  153.7966 H   0  0  0  0  0  0  0  0  0  0  0  0
  151.3973  134.9996  153.9763 H   0  0  0  0  0  0  0  0  0  0  0  0
  151.2120  135.1540  155.7018 H   0  0  0  0  0  0  0  0  0  0  0  0
  148.9830  134.5385  153.6972 H   0  0  0  0  0  0  0  0  0  0  0  0
  148.2098  135.8944  155.8180 H   0  0  0  0  0  0  0  0  0  0  0  0
  147.4165  134.3797  155.4746 H   0  0  0  0  0  0  0  0  0  0  0  0
  149.4629  134.9079  157.6436 H   0  0  0  0  0  0  0  0  0  0  0  0
  147.9386  134.0150  157.7612 H   0  0  0  0  0  0  0  0  0  0  0  0
  148.9819  132.3101  154.4821 H   0  0  0  0  0  0  0  0  0  0  0  0
  150.7175  132.6400  154.5199 H   0  0  0  0  0  0  0  0  0  0  0  0
  149.9045  138.9323  154.2028 H   0  0  0  0  0  0  0  0  0  0  0  0
  151.6461  139.2432  157.3802 H   0  0  0  0  0  0  0  0  0  0  0  0
  151.9521  141.3785  158.6067 H   0  0  0  0  0  0  0  0  0  0  0  0
  149.1846  144.0037  158.8923 H   0  0  0  0  0  0  0  0  0  0  0  0
  150.4611  143.0561  159.6596 H   0  0  0  0  0  0  0  0  0  0  0  0
  150.1895  146.0454  159.4838 H   0  0  0  0  0  0  0  0  0  0  0  0
  150.8989  145.0833  160.7778 H   0  0  0  0  0  0  0  0  0  0  0  0
  152.2409  146.3664  158.5493 H   0  0  0  0  0  0  0  0  0  0  0  0
  153.0161  145.3492  159.7605 H   0  0  0  0  0  0  0  0  0  0  0  0
  152.9327  143.4600  158.3972 H   0  0  0  0  0  0  0  0  0  0  0  0
  152.7749  144.6200  157.0790 H   0  0  0  0  0  0  0  0  0  0  0  0
  149.3926  141.4785  154.3850 H   0  0  0  0  0  0  0  0  0  0  0  0
  149.7527  143.3635  155.6247 H   0  0  0  0  0  0  0  0  0  0  0  0
  1  2  2  0  0  0  0
  2  3  1  0  0  0  0
  2 12  1  0  0  0  0
  3  4  1  0  0  0  0
  3 24  1  0  0  0  0
  4  5  1  0  0  0  0
  4 25  1  0  0  0  0
  4 26  1  0  0  0  0
  5 11  1  0  0  0  0
  5  6  1  0  0  0  0
  5 27  1  0  0  0  0
  6  7  1  0  0  0  0
  6 28  1  0  0  0  0
  6 29  1  0  0  0  0
  7  8  1  0  0  0  0
  7 30  1  0  0  0  0
  7 31  1  0  0  0  0
  8  9  2  0  0  0  0
  8 10  2  0  0  0  0
  8 11  1  0  0  0  0
 11 32  1  0  0  0  0
 11 33  1  0  0  0  0
 12 13  1  0  0  0  0
 12 34  1  0  0  0  0
 13 23  1  0  0  0  0
 13 14  2  0  0  0  0
 14 15  1  0  0  0  0
 14 35  1  0  0  0  0
 15 16  2  0  0  0  0
 15 36  1  0  0  0  0
 16 17  1  0  0  0  0
 16 22  1  0  0  0  0
 17 21  1  0  0  0  0
 17 18  1  0  0  0  0
 18 19  1  0  0  0  0
 18 37  1  0  0  0  0
 18 38  1  0  0  0  0
 19 20  1  0  0  0  0
 19 39  1  0  0  0  0
 19 40  1  0  0  0  0
 20 21  1  0  0  0  0
 20 41  1  0  0  0  0
 20 42  1  0  0  0  0
 21 43  1  0  0  0  0
 21 44  1  0  0  0  0
 22 23  2  0  0  0  0
 22 46  1  0  0  0  0
 23 45  1  0  0  0  0
M  CHG  1  22   1
M  END
> <s_m_source_file>
AV-unprocessed.smi

> <i_m_source_file_index>
550

> <i_lp_mmshare_version>
43012

> <i_f3d_flags>
0

> <s_epik_input>
Tz1TMSg9TylbQ0gyXVtDSDJdW0NASF0oW0NIMl0xKVtDSDJdW05IXUMoPU8pW05IXWMyW2NIXVtjSF1jKG5bY0hdMilOM1tDSDJdW0NIMl1bQ0gyXVtDSDJdMw==

> <s_epik_cmdline>
J2VwaWtfcHl0aG9uJywgJy1waCcsICc3LjAnLCAnLXRuJywgJzgnLCAnLW1hJywgJzIwMCcsICctbWV0YWxfYmluZGluZycsICctaW1hZScsICc8aW5maWxlLm1hZT4nLCAnLW9tYWUnLCAnPG91dGZpbGUubWFlPic=

> <r_lp_tautomer_probability>
0.999994

> <r_epik_Ionization_Penalty>
1.12573

> <r_epik_Ionization_Penalty_Charging>
1.12571

> <r_epik_Ionization_Penalty_Neutral>
1.93198e-05

> <r_epik_State_Penalty>
1.18495

> <r_epik_Charging_Adjusted_Penalty>
2.31065

> <i_epik_Tot_Q>
1

> <i_epik_Tot_abs_Q>
1

> <r_epik_Metal_State_Penalty>
1.26884

> <b_epik_Metal_Only>
0

> <s_lp_Force_Field>
OPLS_2005

> <r_lp_Energy>
42.4783

> <b_lp_Chiralities_Consistent>
1

> <s_lp_Variant>
AV-unprocessed.smi:550-3

> <Gold.Version>
5.8.1

> <Gold.Id.Protein>
6NUR|6NUR_protein|mol2

> <Gold.PLP.Fitness>
48.1009

> <Gold.PLP.PLP>
-38.0327

> <Gold.PLP.part.hbond>
-2.8259

> <Gold.PLP.part.metal>
0.0000

> <Gold.PLP.part.buried>
-5.7838

> <Gold.PLP.part.nonpolar>
-30.5157

> <Gold.PLP.part.repulsive>
0.8272

> <Gold.PLP.ligand.clash>
0.0000

> <Gold.PLP.ligand.torsion>
0.0668

> <Gold.PLP.Chemscore.Hbond>
3.3931

> <Gold.PLP.Chemscore.CHOScore>
0.0000

> <Gold.PLP.Chemscore.Metal>
0.0000

> <Gold.Chemscore.Hbonds>
donor molecule, donor type, donor heavy atom, donor atom, acceptor molecule, acceptor atom, score
      L1  H     3    24       P1  7948  0.39
      L1  H    22    46       P1  8028  2.00
      P1  H  6896  6907       L1     9  1.00

> <Gold.PLP.Chemscore.Internal.Correction>
0.0226

> <Gold.Rescore>
     Score         DG    S(hbond)    S(metal)    S(lipo)     H(rot)  DE(clash)    DE(int)     intcor
     18.23     -19.87       2.29        0.00      90.25       1.50       0.14       1.50       ----

> <Gold.Chemscore.Fitness>
18.2314

> <Gold.Chemscore.DG>
-19.8655

> <Gold.Chemscore.ZeroCoef>
-5.4800

> <Gold.Chemscore.Hbond>
2.2923

> <Gold.Chemscore.Metal>
0.0000

> <Gold.Chemscore.Lipo>
90.2526

> <Gold.Chemscore.Internal_Hbond>
0.0000

> <Gold.Chemscore.DEClash>
0.1369

> <Gold.Chemscore.DEInternal>
1.4973

> <Gold.Chemscore.Rot>
1.4962

> <Gold.Chemscore.Internal.Correction>
   9.000000E+99

> <Gold.Chemscore.Hbonds>
donor molecule, donor type, donor heavy atom, donor atom, acceptor molecule, acceptor atom, score
      L1  H     3    24       P1  7948  0.21
      L1  H    22    46       P1  8028  0.98
      P1  H  6896  6907       L1     9  0.87

> <Gold.Chemscore.Hbond.Weighted>
-7.6563

> <Gold.Chemscore.Metal.Weighted>
-0.0000

> <Gold.Chemscore.Lipo.Weighted>
-10.5596

> <Gold.Chemscore.Internal_Hbond.Weighted>
0.0000

> <Gold.Chemscore.DEClash.Weighted>
0.1369

> <Gold.Chemscore.DEInternal.Weighted>
1.4973

> <Gold.Chemscore.Rot.Weighted>
3.8303

> <Gold.Chemscore.Internal.Correction.Weighted>
   9.000000E+99

> <Gold.Protein.RotatedTorsions>
[ 6907 6896 6895 6894 ] final -163.43 input  -60.11 | X-H torsion
[ 7974 7965 7964 7962 ] final  -12.49 input  175.53 | X-H torsion
[ 8008 7997 7996 7995 ] final -100.42 input   59.86 | X-H torsion
[ 10167 10162 10161 10158 ] final   47.88 input  -65.29 | X-H torsion
[ 10718 10713 10712 10709 ] final   44.18 input   66.30 | X-H torsion
[ 10763 10752 10751 10750 ] final  133.95 input  -60.55 | X-H torsion
[ 11005 11000 10999 10996 ] final  136.67 input  -57.11 | X-H torsion

> <Gold.Protein.ActiveResidues>
 VAL166  LYS551  ARG553  GLY616  TRP617  ASP618  TYR619  PRO620  LYS621  CYS622 
 ASP623  PHE694  ASN695  SER759  ASP760  ASP761  ALA762  ILE779  LEU786  VAL792 
 PHE793  MET794  SER795  GLU796  ALA797  LYS798  CYS799  TRP800  GLU811  SER814 

> <Gold.Protein.RotatedAtoms>
  151.3959  133.3773  159.2726 H   0  0  0  0  0  0  0  0  0  0  0  0  # atno 6907 bound_to 6896
  150.9470  134.8875  159.7659 H   0  0  0  0  0  0  0  0  0  0  0  0  # atno 6908 bound_to 6896
  152.5096  134.3912  159.9437 H   0  0  0  0  0  0  0  0  0  0  0  0  # atno 6909 bound_to 6896
  146.2150  140.3065  142.8379 H   0  0  0  0  0  0  0  0  0  0  0  0  # atno 7974 bound_to 7965
  154.8283  140.0441  157.1459 H   0  0  0  0  0  0  0  0  0  0  0  0  # atno 8008 bound_to 7997
  154.9181  140.3023  155.5210 H   0  0  0  0  0  0  0  0  0  0  0  0  # atno 8009 bound_to 7997
  156.2985  140.2345  156.4228 H   0  0  0  0  0  0  0  0  0  0  0  0  # atno 8010 bound_to 7997
  140.2991  144.2956  150.6223 H   0  0  0  0  0  0  0  0  0  0  0  0  # atno 10167 bound_to 10162
  157.4241  130.7986  149.7542 H   0  0  0  0  0  0  0  0  0  0  0  0  # atno 10718 bound_to 10713
  153.8156  135.3123  155.3405 H   0  0  0  0  0  0  0  0  0  0  0  0  # atno 10763 bound_to 10752
  154.8033  135.4713  154.0333 H   0  0  0  0  0  0  0  0  0  0  0  0  # atno 10764 bound_to 10752
  153.1726  135.6880  153.8676 H   0  0  0  0  0  0  0  0  0  0  0  0  # atno 10765 bound_to 10752
  140.0062  134.9458  157.0179 H   0  0  0  0  0  0  0  0  0  0  0  0  # atno 11005 bound_to 11000
  144.9019  140.7653  143.5862 LP  0  0  0  0  0  0  0  0  0  0  0  0  # atno 17320 bound_to 7965
  145.2992  139.1856  143.4699 LP  0  0  0  0  0  0  0  0  0  0  0  0  # atno 17321 bound_to 7965
  140.5667  143.2185  151.7671 LP  0  0  0  0  0  0  0  0  0  0  0  0  # atno 17342 bound_to 10162
  139.4919  144.4274  151.9910 LP  0  0  0  0  0  0  0  0  0  0  0  0  # atno 17343 bound_to 10162
  155.9890  130.3955  150.3091 LP  0  0  0  0  0  0  0  0  0  0  0  0  # atno 17370 bound_to 10713
  157.1242  131.0255  151.2996 LP  0  0  0  0  0  0  0  0  0  0  0  0  # atno 17371 bound_to 10713
  140.4638  134.1457  155.7194 LP  0  0  0  0  0  0  0  0  0  0  0  0  # atno 17394 bound_to 11000
  141.1678  133.8668  157.1662 LP  0  0  0  0  0  0  0  0  0  0  0  0  # atno 17395 bound_to 11000

$$$$
