AV-unprocessed.smi:2535|AV-procd|sdf|9976|dock2
  -GOLD-   2272014 23D 1   1.00000     0.00000
 Structure written by MMmdl.
 26 27  0  0  0  0  0  0  0  0  2 V2000
  149.3752  141.4000  154.9582 C   0  0  0  0  0  0  0  0  0  0  0  0
  150.4960  140.9955  155.7842 N   0  0  0  0  0  0  0  0  0  0  0  0
  151.4401  140.1484  155.3073 N   0  0  0  0  0  0  0  0  0  0  0  0
  152.3070  139.9767  156.2632 N   0  0  0  0  0  0  0  0  0  0  0  0
  151.9624  140.6993  157.3895 N   0  0  0  0  0  0  0  0  0  0  0  0
  150.8358  141.3079  157.0427 C   0  0  0  0  0  0  0  0  0  0  0  0
  150.0443  142.2148  157.9333 C   0  0  0  0  0  0  0  0  0  0  0  0
  150.7155  143.5831  158.1436 C   0  0  2  0  0  0  0  0  0  0  0  0
  152.0706  143.5336  158.8555 C   0  0  0  0  0  0  0  0  0  0  0  0
  152.2045  144.9426  159.4195 C   0  0  0  0  0  0  0  0  0  0  0  0
  150.7702  145.3047  159.8130 C   0  0  0  0  0  0  0  0  0  0  0  0
  149.8823  144.4898  158.9585 N   0  3  0  0  0  0  0  0  0  0  0  0
  149.3243  142.4881  154.9126 H   0  0  0  0  0  0  0  0  0  0  0  0
  148.4477  141.0140  155.3802 H   0  0  0  0  0  0  0  0  0  0  0  0
  149.4883  141.0127  153.9447 H   0  0  0  0  0  0  0  0  0  0  0  0
  149.0601  142.3529  157.4844 H   0  0  0  0  0  0  0  0  0  0  0  0
  149.8738  141.7275  158.8935 H   0  0  0  0  0  0  0  0  0  0  0  0
  150.8539  144.0699  157.1765 H   0  0  0  0  0  0  0  0  0  0  0  0
  152.0465  142.8138  159.6745 H   0  0  0  0  0  0  0  0  0  0  0  0
  152.8909  143.2628  158.1898 H   0  0  0  0  0  0  0  0  0  0  0  0
  152.9012  145.0017  160.2563 H   0  0  0  0  0  0  0  0  0  0  0  0
  152.5582  145.6187  158.6398 H   0  0  0  0  0  0  0  0  0  0  0  0
  150.5831  145.0400  160.8542 H   0  0  0  0  0  0  0  0  0  0  0  0
  150.5680  146.3696  159.6950 H   0  0  0  0  0  0  0  0  0  0  0  0
  149.3243  145.0791  158.3571 H   0  0  0  0  0  0  0  0  0  0  0  0
  149.2765  143.9445  159.5548 H   0  0  0  0  0  0  0  0  0  0  0  0
  1  2  1  0  0  0  0
  1 13  1  0  0  0  0
  1 14  1  0  0  0  0
  1 15  1  0  0  0  0
  2  6  1  0  0  0  0
  2  3  1  0  0  0  0
  3  4  2  0  0  0  0
  4  5  1  0  0  0  0
  5  6  2  0  0  0  0
  6  7  1  0  0  0  0
  7  8  1  0  0  0  0
  7 16  1  0  0  0  0
  7 17  1  0  0  0  0
  8 12  1  0  0  0  0
  8  9  1  0  0  0  0
  8 18  1  0  0  0  0
  9 10  1  0  0  0  0
  9 19  1  0  0  0  0
  9 20  1  0  0  0  0
 10 11  1  0  0  0  0
 10 21  1  0  0  0  0
 10 22  1  0  0  0  0
 11 12  1  0  0  0  0
 11 23  1  0  0  0  0
 11 24  1  0  0  0  0
 12 25  1  0  0  0  0
 12 26  1  0  0  0  0
M  CHG  1  12   1
M  END
> <s_m_source_file>
AV-unprocessed.smi

> <i_m_source_file_index>
2535

> <i_lp_mmshare_version>
43012

> <i_f3d_flags>
0

> <s_epik_input>
W0NIM11uMW5ubmMxW0NIMl1bQ0BASF0yW0NIMl1bQ0gyXVtDSDJdW05IXTI=

> <s_epik_cmdline>
J2VwaWtfcHl0aG9uJywgJy1waCcsICc3LjAnLCAnLXRuJywgJzgnLCAnLW1hJywgJzIwMCcsICctbWV0YWxfYmluZGluZycsICctaW1hZScsICc8aW5maWxlLm1hZT4nLCAnLW9tYWUnLCAnPG91dGZpbGUubWFlPic=

> <r_lp_tautomer_probability>
1

> <r_epik_Ionization_Penalty>
0.000863359

> <r_epik_Ionization_Penalty_Charging>
0.000863359

> <r_epik_Ionization_Penalty_Neutral>
1.80841e-10

> <r_epik_State_Penalty>
0.000557253

> <r_epik_Charging_Adjusted_Penalty>
0.00142061

> <i_epik_Tot_Q>
1

> <i_epik_Tot_abs_Q>
1

> <r_epik_Metal_State_Penalty>
-0

> <b_epik_Metal_Only>
0

> <s_lp_Force_Field>
OPLS_2005

> <r_lp_Energy>
24.3513

> <b_lp_Chiralities_Consistent>
1

> <s_lp_Variant>
AV-unprocessed.smi:2535-1

> <Gold.Version>
5.8.1

> <Gold.Id.Protein>
6NUR|6NUR_protein|mol2

> <Gold.PLP.Fitness>
38.7511

> <Gold.PLP.PLP>
-27.0550

> <Gold.PLP.part.hbond>
-3.0000

> <Gold.PLP.part.metal>
0.0000

> <Gold.PLP.part.buried>
-4.2523

> <Gold.PLP.part.nonpolar>
-21.5768

> <Gold.PLP.part.repulsive>
0.1814

> <Gold.PLP.ligand.clash>
0.0000

> <Gold.PLP.ligand.torsion>
0.1521

> <Gold.PLP.Chemscore.Hbond>
4.0000

> <Gold.PLP.Chemscore.CHOScore>
0.0000

> <Gold.PLP.Chemscore.Metal>
0.0000

> <Gold.Chemscore.Hbonds>
donor molecule, donor type, donor heavy atom, donor atom, acceptor molecule, acceptor atom, score
      L1  H    12    25       P1  8029  2.00
      P1  H  7989  7998       L1     3  1.00
      P1  H  7997  8009       L1     4  0.99

> <Gold.PLP.Chemscore.Internal.Correction>
0.0003

> <Gold.Rescore>
     Score         DG    S(hbond)    S(metal)    S(lipo)     H(rot)  DE(clash)    DE(int)     intcor
     14.22     -14.43       1.78        0.00      54.88       1.34       0.11       0.10       ----

> <Gold.Chemscore.Fitness>
14.2190

> <Gold.Chemscore.DG>
-14.4278

> <Gold.Chemscore.ZeroCoef>
-5.4800

> <Gold.Chemscore.Hbond>
1.7842

> <Gold.Chemscore.Metal>
0.0000

> <Gold.Chemscore.Lipo>
54.8799

> <Gold.Chemscore.Internal_Hbond>
0.0000

> <Gold.Chemscore.DEClash>
0.1103

> <Gold.Chemscore.DEInternal>
0.0985

> <Gold.Chemscore.Rot>
1.3407

> <Gold.Chemscore.Internal.Correction>
   9.000000E+99

> <Gold.Chemscore.Hbonds>
donor molecule, donor type, donor heavy atom, donor atom, acceptor molecule, acceptor atom, score
      L1  H    12    25       P1  8029  0.64
      P1  H  7989  7998       L1     3  0.24
      P1  H  7997  8009       L1     4  0.28

> <Gold.Chemscore.Hbond.Weighted>
-5.9592

> <Gold.Chemscore.Metal.Weighted>
-0.0000

> <Gold.Chemscore.Lipo.Weighted>
-6.4209

> <Gold.Chemscore.Internal_Hbond.Weighted>
0.0000

> <Gold.Chemscore.DEClash.Weighted>
0.1103

> <Gold.Chemscore.DEInternal.Weighted>
0.0985

> <Gold.Chemscore.Rot.Weighted>
3.4323

> <Gold.Chemscore.Internal.Correction.Weighted>
   9.000000E+99

> <Gold.Protein.RotatedTorsions>
[ 6907 6896 6895 6894 ] final  -35.87 input  -60.11 | X-H torsion
[ 7974 7965 7964 7962 ] final  152.19 input  175.53 | X-H torsion
[ 8008 7997 7996 7995 ] final -158.95 input   59.86 | X-H torsion
[ 10167 10162 10161 10158 ] final  -88.83 input  -65.29 | X-H torsion
[ 10718 10713 10712 10709 ] final -139.70 input   66.30 | X-H torsion
[ 10763 10752 10751 10750 ] final -137.01 input  -60.55 | X-H torsion
[ 11005 11000 10999 10996 ] final   12.00 input  -57.11 | X-H torsion

> <Gold.Protein.ActiveResidues>
 VAL166  LYS551  ARG553  GLY616  TRP617  ASP618  TYR619  PRO620  LYS621  CYS622 
 ASP623  PHE694  ASN695  SER759  ASP760  ASP761  ALA762  ILE779  LEU786  VAL792 
 PHE793  MET794  SER795  GLU796  ALA797  LYS798  CYS799  TRP800  GLU811  SER814 

> <Gold.Protein.RotatedAtoms>
  151.0343  134.9562  159.8127 H   0  0  0  0  0  0  0  0  0  0  0  0  # atno 6907 bound_to 6896
  152.5352  134.2739  159.8992 H   0  0  0  0  0  0  0  0  0  0  0  0  # atno 6908 bound_to 6896
  151.2750  133.4194  159.2657 H   0  0  0  0  0  0  0  0  0  0  0  0  # atno 6909 bound_to 6896
  144.8239  139.6636  143.6088 H   0  0  0  0  0  0  0  0  0  0  0  0  # atno 7974 bound_to 7965
  155.7552  140.0832  157.2182 H   0  0  0  0  0  0  0  0  0  0  0  0  # atno 8008 bound_to 7997
  154.4008  140.1553  156.2826 H   0  0  0  0  0  0  0  0  0  0  0  0  # atno 8009 bound_to 7997
  155.8892  140.3416  155.5946 H   0  0  0  0  0  0  0  0  0  0  0  0  # atno 8010 bound_to 7997
  140.3708  143.2795  151.9502 H   0  0  0  0  0  0  0  0  0  0  0  0  # atno 10167 bound_to 10162
  156.3137  130.7496  151.1578 H   0  0  0  0  0  0  0  0  0  0  0  0  # atno 10718 bound_to 10713
  154.8671  135.3655  154.5154 H   0  0  0  0  0  0  0  0  0  0  0  0  # atno 10763 bound_to 10752
  153.5787  135.7019  153.5477 H   0  0  0  0  0  0  0  0  0  0  0  0  # atno 10764 bound_to 10752
  153.3476  135.4081  155.1584 H   0  0  0  0  0  0  0  0  0  0  0  0  # atno 10765 bound_to 10752
  140.4969  134.0784  155.7784 H   0  0  0  0  0  0  0  0  0  0  0  0  # atno 11005 bound_to 11000
  146.2545  139.6271  142.9404 LP  0  0  0  0  0  0  0  0  0  0  0  0  # atno 17320 bound_to 7965
  145.5043  141.0437  143.2523 LP  0  0  0  0  0  0  0  0  0  0  0  0  # atno 17321 bound_to 7965
  139.4804  144.5908  151.7774 LP  0  0  0  0  0  0  0  0  0  0  0  0  # atno 17342 bound_to 10162
  140.5035  144.1133  150.5977 LP  0  0  0  0  0  0  0  0  0  0  0  0  # atno 17343 bound_to 10162
  157.7397  131.0526  150.5216 LP  0  0  0  0  0  0  0  0  0  0  0  0  # atno 17370 bound_to 10713
  156.5359  130.4196  149.6178 LP  0  0  0  0  0  0  0  0  0  0  0  0  # atno 17371 bound_to 10713
  141.1455  133.9062  157.2225 LP  0  0  0  0  0  0  0  0  0  0  0  0  # atno 17394 bound_to 11000
  139.9736  135.0121  156.9574 LP  0  0  0  0  0  0  0  0  0  0  0  0  # atno 17395 bound_to 11000

$$$$
