AV-unprocessed.smi:622|AV-procd|sdf|3090|dock1
  -GOLD-   22720 0 13D 1   1.00000     0.00000
 Structure written by MMmdl.
 36 37  0  0  0  0  0  0  0  0  1 V2000
  145.0504  137.7531  153.2628 O   0  0  0  0  0  0  0  0  0  0  0  0
  146.1900  137.4053  152.9542 C   0  0  0  0  0  0  0  0  0  0  0  0
  147.2947  138.1575  153.0969 N   0  0  0  0  0  0  0  0  0  0  0  0
  147.4132  139.4529  153.6686 C   0  0  0  0  0  0  0  0  0  0  0  0
  148.6470  140.0821  153.9619 C   0  0  0  0  0  0  0  0  0  0  0  0
  148.6350  141.3798  154.5088 C   0  0  0  0  0  0  0  0  0  0  0  0
  147.3924  142.0025  154.7357 C   0  0  0  0  0  0  0  0  0  0  0  0
  146.2093  141.4205  154.4473 N   0  0  0  0  0  0  0  0  0  0  0  0
  146.2288  140.1769  153.9216 C   0  0  0  0  0  0  0  0  0  0  0  0
  146.4846  136.2173  152.4058 N   0  0  0  0  0  0  0  0  0  0  0  0
  145.5345  135.1490  152.1001 C   0  0  0  0  0  0  0  0  0  0  0  0
  146.1353  133.8155  152.5837 C   0  0  0  0  0  0  0  0  0  0  0  0
  145.2826  132.5675  152.2962 C   0  0  0  0  0  0  0  0  0  0  0  0
  145.3177  132.1520  150.8167 C   0  0  0  0  0  0  0  0  0  0  0  0
  144.2883  132.8485  149.9097 C   0  0  0  0  0  0  0  0  0  0  0  0
  143.9858  134.3253  150.2185 C   0  0  0  0  0  0  0  0  0  0  0  0
  145.2023  135.1879  150.5935 C   0  0  0  0  0  0  0  0  0  0  0  0
  148.1452  137.7767  152.7084 H   0  0  0  0  0  0  0  0  0  0  0  0
  149.5950  139.6057  153.7655 H   0  0  0  0  0  0  0  0  0  0  0  0
  149.5581  141.8882  154.7447 H   0  0  0  0  0  0  0  0  0  0  0  0
  147.3477  142.9971  155.1544 H   0  0  0  0  0  0  0  0  0  0  0  0
  145.2641  139.7442  153.6999 H   0  0  0  0  0  0  0  0  0  0  0  0
  147.4514  136.0314  152.1828 H   0  0  0  0  0  0  0  0  0  0  0  0
  144.6093  135.3152  152.6548 H   0  0  0  0  0  0  0  0  0  0  0  0
  147.1309  133.6797  152.1586 H   0  0  0  0  0  0  0  0  0  0  0  0
  146.2847  133.8819  153.6624 H   0  0  0  0  0  0  0  0  0  0  0  0
  145.6951  131.7461  152.8832 H   0  0  0  0  0  0  0  0  0  0  0  0
  144.2581  132.6972  152.6467 H   0  0  0  0  0  0  0  0  0  0  0  0
  146.3206  132.3133  150.4196 H   0  0  0  0  0  0  0  0  0  0  0  0
  145.1529  131.0762  150.7459 H   0  0  0  0  0  0  0  0  0  0  0  0
  144.6324  132.7619  148.8783 H   0  0  0  0  0  0  0  0  0  0  0  0
  143.3483  132.2970  149.9498 H   0  0  0  0  0  0  0  0  0  0  0  0
  143.5067  134.7559  149.3385 H   0  0  0  0  0  0  0  0  0  0  0  0
  143.2370  134.3897  151.0088 H   0  0  0  0  0  0  0  0  0  0  0  0
  144.9649  136.2189  150.3261 H   0  0  0  0  0  0  0  0  0  0  0  0
  146.0704  134.9172  149.9911 H   0  0  0  0  0  0  0  0  0  0  0  0
  1  2  2  0  0  0  0
  2  3  1  0  0  0  0
  2 10  1  0  0  0  0
  3  4  1  0  0  0  0
  3 18  1  0  0  0  0
  4  9  1  0  0  0  0
  4  5  2  0  0  0  0
  5  6  1  0  0  0  0
  5 19  1  0  0  0  0
  6  7  2  0  0  0  0
  6 20  1  0  0  0  0
  7  8  1  0  0  0  0
  7 21  1  0  0  0  0
  8  9  2  0  0  0  0
  9 22  1  0  0  0  0
 10 11  1  0  0  0  0
 10 23  1  0  0  0  0
 11 17  1  0  0  0  0
 11 12  1  0  0  0  0
 11 24  1  0  0  0  0
 12 13  1  0  0  0  0
 12 25  1  0  0  0  0
 12 26  1  0  0  0  0
 13 14  1  0  0  0  0
 13 27  1  0  0  0  0
 13 28  1  0  0  0  0
 14 15  1  0  0  0  0
 14 29  1  0  0  0  0
 14 30  1  0  0  0  0
 15 16  1  0  0  0  0
 15 31  1  0  0  0  0
 15 32  1  0  0  0  0
 16 17  1  0  0  0  0
 16 33  1  0  0  0  0
 16 34  1  0  0  0  0
 17 35  1  0  0  0  0
 17 36  1  0  0  0  0
M  END
> <s_m_source_file>
AV-unprocessed.smi

> <i_m_source_file_index>
622

> <i_lp_mmshare_version>
43012

> <i_f3d_flags>
0

> <s_epik_input>
W2NIXTFuW2NIXVtjSF1bY0hdYzFbTkhdQyg9TylbTkhdW0NIXTJbQ0gyXVtDSDJdW0NIMl1bQ0gyXVtDSDJdW0NIMl0y

> <s_epik_cmdline>
J2VwaWtfcHl0aG9uJywgJy1waCcsICc3LjAnLCAnLXRuJywgJzgnLCAnLW1hJywgJzIwMCcsICctbWV0YWxfYmluZGluZycsICctaW1hZScsICc8aW5maWxlLm1hZT4nLCAnLW9tYWUnLCAnPG91dGZpbGUubWFlPic=

> <r_epik_Ionization_Penalty>
0.00494148

> <r_epik_Ionization_Penalty_Charging>
0

> <r_epik_Ionization_Penalty_Neutral>
0.00494148

> <r_epik_State_Penalty>
0.00355757

> <r_epik_Charging_Adjusted_Penalty>
0.00355757

> <i_epik_Tot_Q>
0

> <i_epik_Tot_abs_Q>
0

> <r_epik_Metal_State_Penalty>
-0

> <b_epik_Metal_Only>
0

> <s_lp_Force_Field>
OPLS_2005

> <r_lp_Energy>
17.9389

> <b_lp_Chiralities_Consistent>
1

> <s_lp_Variant>
AV-unprocessed.smi:622-1

> <Gold.Version>
5.8.1

> <Gold.Id.Protein>
6NUR|6NUR_protein|mol2

> <Gold.PLP.Fitness>
36.0788

> <Gold.PLP.PLP>
-24.7923

> <Gold.PLP.part.hbond>
-1.9385

> <Gold.PLP.part.metal>
0.0000

> <Gold.PLP.part.buried>
1.8364

> <Gold.PLP.part.nonpolar>
-25.6823

> <Gold.PLP.part.repulsive>
0.4155

> <Gold.PLP.ligand.clash>
0.0000

> <Gold.PLP.ligand.torsion>
0.2553

> <Gold.PLP.Chemscore.Hbond>
1.9280

> <Gold.PLP.Chemscore.CHOScore>
2.0000

> <Gold.PLP.Chemscore.Metal>
0.0000

> <Gold.Chemscore.Hbonds>
donor molecule, donor type, donor heavy atom, donor atom, acceptor molecule, acceptor atom, score
      L1  H     3    18       P1  7948  0.91
      L1  H    10    23       P1  7948  1.00
      L1  C     7    21       P1  8028  1.00
      L1  C     9    22       P1 10175  1.00

> <Gold.PLP.Chemscore.Internal.Correction>
0.0131

> <Gold.Rescore>
     Score         DG    S(hbond)    S(metal)    S(lipo)     H(rot)  DE(clash)    DE(int)     intcor
     15.76     -17.84       1.85        0.00      74.72       1.00       0.43       1.66       ----

> <Gold.Chemscore.Fitness>
15.7620

> <Gold.Chemscore.DG>
-17.8436

> <Gold.Chemscore.ZeroCoef>
-5.4800

> <Gold.Chemscore.Hbond>
1.8507

> <Gold.Chemscore.Metal>
0.0000

> <Gold.Chemscore.Lipo>
74.7197

> <Gold.Chemscore.Internal_Hbond>
0.0000

> <Gold.Chemscore.DEClash>
0.4252

> <Gold.Chemscore.DEInternal>
1.6563

> <Gold.Chemscore.Rot>
1.0000

> <Gold.Chemscore.Internal.Correction>
   9.000000E+99

> <Gold.Chemscore.Hbonds>
donor molecule, donor type, donor heavy atom, donor atom, acceptor molecule, acceptor atom, score
      L1  H     3    18       P1  7948  0.89
      L1  H    10    23       P1  7948  0.93

> <Gold.Chemscore.Hbond.Weighted>
-6.1814

> <Gold.Chemscore.Metal.Weighted>
-0.0000

> <Gold.Chemscore.Lipo.Weighted>
-8.7422

> <Gold.Chemscore.Internal_Hbond.Weighted>
0.0000

> <Gold.Chemscore.DEClash.Weighted>
0.4252

> <Gold.Chemscore.DEInternal.Weighted>
1.6563

> <Gold.Chemscore.Rot.Weighted>
2.5600

> <Gold.Chemscore.Internal.Correction.Weighted>
   9.000000E+99

> <Gold.Protein.RotatedTorsions>
[ 6907 6896 6895 6894 ] final   97.61 input  -60.11 | X-H torsion
[ 7974 7965 7964 7962 ] final  -94.77 input  175.53 | X-H torsion
[ 8008 7997 7996 7995 ] final  -33.09 input   59.86 | X-H torsion
[ 10167 10162 10161 10158 ] final  127.65 input  -65.29 | X-H torsion
[ 10718 10713 10712 10709 ] final   44.68 input   66.30 | X-H torsion
[ 10763 10752 10751 10750 ] final -101.29 input  -60.55 | X-H torsion
[ 11005 11000 10999 10996 ] final   34.66 input  -57.11 | X-H torsion

> <Gold.Protein.ActiveResidues>
 VAL166  LYS551  ARG553  GLY616  TRP617  ASP618  TYR619  PRO620  LYS621  CYS622 
 ASP623  PHE694  ASN695  SER759  ASP760  ASP761  ALA762  ILE779  LEU786  VAL792 
 PHE793  MET794  SER795  GLU796  ALA797  LYS798  CYS799  TRP800  GLU811  SER814 

> <Gold.Protein.RotatedAtoms>
  152.5421  134.0707  159.8192 H   0  0  0  0  0  0  0  0  0  0  0  0  # atno 6907 bound_to 6896
  151.0822  133.5374  159.2627 H   0  0  0  0  0  0  0  0  0  0  0  0  # atno 6908 bound_to 6896
  151.2197  135.0522  159.8999 H   0  0  0  0  0  0  0  0  0  0  0  0  # atno 6909 bound_to 6896
  145.3688  140.9502  143.2459 H   0  0  0  0  0  0  0  0  0  0  0  0  # atno 7974 bound_to 7965
  154.4159  140.1720  156.1832 H   0  0  0  0  0  0  0  0  0  0  0  0  # atno 8008 bound_to 7997
  155.9665  140.3389  155.6513 H   0  0  0  0  0  0  0  0  0  0  0  0  # atno 8009 bound_to 7997
  155.6681  140.0708  157.2521 H   0  0  0  0  0  0  0  0  0  0  0  0  # atno 8010 bound_to 7997
  139.5567  144.6854  151.4161 H   0  0  0  0  0  0  0  0  0  0  0  0  # atno 10167 bound_to 10162
  157.4294  130.8016  149.7589 H   0  0  0  0  0  0  0  0  0  0  0  0  # atno 10718 bound_to 10713
  154.7646  135.4903  153.9530 H   0  0  0  0  0  0  0  0  0  0  0  0  # atno 10763 bound_to 10752
  153.1293  135.6749  153.9213 H   0  0  0  0  0  0  0  0  0  0  0  0  # atno 10764 bound_to 10752
  153.8921  135.3119  155.3426 H   0  0  0  0  0  0  0  0  0  0  0  0  # atno 10765 bound_to 10752
  140.2506  134.3308  155.7892 H   0  0  0  0  0  0  0  0  0  0  0  0  # atno 11005 bound_to 11000
  144.8591  139.5204  143.6820 LP  0  0  0  0  0  0  0  0  0  0  0  0  # atno 17320 bound_to 7965
  146.2894  139.7097  142.9171 LP  0  0  0  0  0  0  0  0  0  0  0  0  # atno 17321 bound_to 7965
  140.6841  143.8014  150.7162 LP  0  0  0  0  0  0  0  0  0  0  0  0  # atno 17342 bound_to 10162
  140.1476  143.4386  152.2152 LP  0  0  0  0  0  0  0  0  0  0  0  0  # atno 17343 bound_to 10162
  155.9908  130.3942  150.3013 LP  0  0  0  0  0  0  0  0  0  0  0  0  # atno 17370 bound_to 10713
  157.1168  131.0236  151.3025 LP  0  0  0  0  0  0  0  0  0  0  0  0  # atno 17371 bound_to 10713
  141.2202  133.7351  156.9030 LP  0  0  0  0  0  0  0  0  0  0  0  0  # atno 17394 bound_to 11000
  140.1562  134.9197  157.2656 LP  0  0  0  0  0  0  0  0  0  0  0  0  # atno 17395 bound_to 11000

$$$$
