AV-unprocessed.smi:1056|AV-procd|sdf|4645|dock4
  -GOLD-   22720 3153D 1   1.00000     0.00000
 Structure written by MMmdl.
 44 46  0  0  0  0  0  0  0  0  3 V2000
  150.8643  145.3234  160.6249 C   0  0  0  0  0  0  0  0  0  0  0  0
  151.7133  144.0705  160.4965 C   0  0  0  0  0  0  0  0  0  0  0  0
  152.4356  143.6122  161.6211 C   0  0  0  0  0  0  0  0  0  0  0  0
  153.2332  142.4496  161.5451 C   0  0  0  0  0  0  0  0  0  0  0  0
  154.0146  141.8315  162.5061 N   0  0  0  0  0  0  0  0  0  0  0  0
  154.5044  140.7973  161.8293 C   0  0  0  0  0  0  0  0  0  0  0  0
  154.1362  140.6739  160.5398 N   0  0  0  0  0  0  0  0  0  0  0  0
  154.5441  139.6331  159.6139 C   0  0  0  0  0  0  0  0  0  0  0  0
  153.5744  138.4355  159.6032 C   0  0  1  0  0  0  0  0  0  0  0  0
  153.6973  137.7812  160.8505 O   0  0  0  0  0  0  0  0  0  0  0  0
  152.1000  138.8466  159.3899 C   0  0  0  0  0  0  0  0  0  0  0  0
  151.8248  139.3249  158.0112 N   0  3  1  0  0  0  0  0  0  0  0  0
  151.9901  138.2555  156.9937 C   0  0  0  0  0  0  0  0  0  0  0  0
  152.0081  138.8625  155.5778 C   0  0  0  0  0  0  0  0  0  0  0  0
  150.8977  139.8079  155.4137 N   0  5  0  0  0  0  0  0  0  0  0  0
  150.2305  140.4609  156.4153 C   0  0  0  0  0  0  0  0  0  0  0  0
  149.3946  141.3473  156.2546 O   0  0  0  0  0  0  0  0  0  0  0  0
  150.5106  140.0172  157.8766 C   0  0  0  0  0  0  0  0  0  0  0  0
  153.2877  141.7507  160.3037 C   0  0  0  0  0  0  0  0  0  0  0  0
  152.5756  142.1982  159.1768 C   0  0  0  0  0  0  0  0  0  0  0  0
  151.7853  143.3630  159.2696 C   0  0  0  0  0  0  0  0  0  0  0  0
  151.0202  143.8383  158.0474 C   0  0  0  0  0  0  0  0  0  0  0  0
  150.8770  145.7107  161.6440 H   0  0  0  0  0  0  0  0  0  0  0  0
  149.8275  145.1127  160.3624 H   0  0  0  0  0  0  0  0  0  0  0  0
  151.2368  146.1067  159.9644 H   0  0  0  0  0  0  0  0  0  0  0  0
  152.3815  144.1512  162.5556 H   0  0  0  0  0  0  0  0  0  0  0  0
  155.1722  140.0883  162.2969 H   0  0  0  0  0  0  0  0  0  0  0  0
  154.6100  140.0738  158.6179 H   0  0  0  0  0  0  0  0  0  0  0  0
  155.5520  139.3081  159.8755 H   0  0  0  0  0  0  0  0  0  0  0  0
  153.8980  137.7437  158.8263 H   0  0  0  0  0  0  0  0  0  0  0  0
  154.6117  137.7348  161.0842 H   0  0  0  0  0  0  0  0  0  0  0  0
  151.4695  137.9854  159.6160 H   0  0  0  0  0  0  0  0  0  0  0  0
  151.8044  139.6292  160.0890 H   0  0  0  0  0  0  0  0  0  0  0  0
  152.9226  137.7137  157.1556 H   0  0  0  0  0  0  0  0  0  0  0  0
  151.1804  137.5305  157.0922 H   0  0  0  0  0  0  0  0  0  0  0  0
  152.9648  139.3633  155.4277 H   0  0  0  0  0  0  0  0  0  0  0  0
  151.9741  138.0604  154.8409 H   0  0  0  0  0  0  0  0  0  0  0  0
  149.7056  139.3547  158.1978 H   0  0  0  0  0  0  0  0  0  0  0  0
  150.4787  140.8986  158.5160 H   0  0  0  0  0  0  0  0  0  0  0  0
  152.6371  141.6499  158.2485 H   0  0  0  0  0  0  0  0  0  0  0  0
  151.2282  143.2123  157.1793 H   0  0  0  0  0  0  0  0  0  0  0  0
  151.2980  144.8619  157.7951 H   0  0  0  0  0  0  0  0  0  0  0  0
  149.9467  143.8063  158.2346 H   0  0  0  0  0  0  0  0  0  0  0  0
  152.5349  140.0081  157.7916 H   0  0  0  0  0  0  0  0  0  0  0  0
  1  2  1  0  0  0  0
  1 23  1  0  0  0  0
  1 24  1  0  0  0  0
  1 25  1  0  0  0  0
  2 21  1  0  0  0  0
  2  3  2  0  0  0  0
  3  4  1  0  0  0  0
  3 26  1  0  0  0  0
  4 19  2  0  0  0  0
  4  5  1  0  0  0  0
  5  6  2  0  0  0  0
  6  7  1  0  0  0  0
  6 27  1  0  0  0  0
  7  8  1  0  0  0  0
  7 19  1  0  0  0  0
  8  9  1  0  0  0  0
  8 28  1  0  0  0  0
  8 29  1  0  0  0  0
  9 10  1  0  0  0  0
  9 11  1  0  0  0  0
  9 30  1  0  0  0  0
 10 31  1  0  0  0  0
 11 12  1  0  0  0  0
 11 32  1  0  0  0  0
 11 33  1  0  0  0  0
 12 18  1  0  0  0  0
 12 13  1  0  0  0  0
 12 44  1  0  0  0  0
 13 14  1  0  0  0  0
 13 34  1  0  0  0  0
 13 35  1  0  0  0  0
 14 15  1  0  0  0  0
 14 36  1  0  0  0  0
 14 37  1  0  0  0  0
 15 16  1  0  0  0  0
 16 17  2  0  0  0  0
 16 18  1  0  0  0  0
 18 38  1  0  0  0  0
 18 39  1  0  0  0  0
 19 20  1  0  0  0  0
 20 21  2  0  0  0  0
 20 40  1  0  0  0  0
 21 22  1  0  0  0  0
 22 41  1  0  0  0  0
 22 42  1  0  0  0  0
 22 43  1  0  0  0  0
M  CHG  1  12   1
M  CHG  1  15  -1
M  END
> <s_m_source_file>
AV-unprocessed.smi

> <i_m_source_file_index>
1056

> <i_lp_mmshare_version>
43012

> <i_f3d_flags>
0

> <s_epik_input>
W0NIM11jKFtjSF0xKWMoW0NIM10pW2NIXWMoYzEyKW4oW2NIXW4yKVtDSDJdW0NASF0oW09IXSlbQ0gyXU4zW0NIMl1bQ0gyXVtOSF1DKD1PKVtDSDJdMw==

> <s_epik_cmdline>
J2VwaWtfcHl0aG9uJywgJy1waCcsICc3LjAnLCAnLXRuJywgJzgnLCAnLW1hJywgJzIwMCcsICctbWV0YWxfYmluZGluZycsICctaW1hZScsICc8aW5maWxlLm1hZT4nLCAnLW9tYWUnLCAnPG91dGZpbGUubWFlPic=

> <r_epik_Ionization_Penalty>
5.13411

> <r_epik_Ionization_Penalty_Charging>
5.04792

> <r_epik_Ionization_Penalty_Neutral>
0.0861879

> <r_epik_State_Penalty>
5.18224

> <r_epik_Charging_Adjusted_Penalty>
10.2302

> <i_epik_Tot_Q>
0

> <i_epik_Tot_abs_Q>
2

> <r_epik_Metal_State_Penalty>
1.33873

> <b_epik_Metal_Only>
1

> <s_lp_Force_Field>
OPLS_2005

> <r_lp_Energy>
19.55

> <b_lp_Chiralities_Consistent>
1

> <s_lp_Variant>
AV-unprocessed.smi:1056-16

> <Gold.Version>
5.8.1

> <Gold.Id.Protein>
6NUR|6NUR_protein|mol2

> <Gold.PLP.Fitness>
53.1124

> <Gold.PLP.PLP>
-51.0899

> <Gold.PLP.part.hbond>
-1.3988

> <Gold.PLP.part.metal>
0.0000

> <Gold.PLP.part.buried>
-7.7239

> <Gold.PLP.part.nonpolar>
-42.8593

> <Gold.PLP.part.repulsive>
0.2543

> <Gold.PLP.ligand.clash>
0.0000

> <Gold.PLP.ligand.torsion>
0.5117

> <Gold.PLP.Chemscore.Hbond>
1.0000

> <Gold.PLP.Chemscore.CHOScore>
0.0000

> <Gold.PLP.Chemscore.Metal>
0.0000

> <Gold.Chemscore.Hbonds>
donor molecule, donor type, donor heavy atom, donor atom, acceptor molecule, acceptor atom, score
      P1  H  7989  7998       L1    15  0.28

> <Gold.PLP.Chemscore.Internal.Correction>
0.0460

> <Gold.Rescore>
     Score         DG    S(hbond)    S(metal)    S(lipo)     H(rot)  DE(clash)    DE(int)     intcor
     16.49     -16.98       0.81        0.00     125.94       2.31       0.04       0.45       ----

> <Gold.Chemscore.Fitness>
16.4920

> <Gold.Chemscore.DG>
-16.9811

> <Gold.Chemscore.ZeroCoef>
-5.4800

> <Gold.Chemscore.Hbond>
0.8058

> <Gold.Chemscore.Metal>
0.0000

> <Gold.Chemscore.Lipo>
125.9430

> <Gold.Chemscore.Internal_Hbond>
0.0000

> <Gold.Chemscore.DEClash>
0.0377

> <Gold.Chemscore.DEInternal>
0.4514

> <Gold.Chemscore.Rot>
2.3147

> <Gold.Chemscore.Internal.Correction>
   9.000000E+99

> <Gold.Chemscore.Hbonds>
donor molecule, donor type, donor heavy atom, donor atom, acceptor molecule, acceptor atom, score
      P1  H  7989  7998       L1    15  0.05

> <Gold.Chemscore.Hbond.Weighted>
-2.6914

> <Gold.Chemscore.Metal.Weighted>
-0.0000

> <Gold.Chemscore.Lipo.Weighted>
-14.7353

> <Gold.Chemscore.Internal_Hbond.Weighted>
0.0000

> <Gold.Chemscore.DEClash.Weighted>
0.0377

> <Gold.Chemscore.DEInternal.Weighted>
0.4514

> <Gold.Chemscore.Rot.Weighted>
5.9256

> <Gold.Chemscore.Internal.Correction.Weighted>
   9.000000E+99

> <Gold.Protein.RotatedTorsions>
[ 6907 6896 6895 6894 ] final    0.36 input  -60.11 | X-H torsion
[ 7974 7965 7964 7962 ] final  103.51 input  175.53 | X-H torsion
[ 8008 7997 7996 7995 ] final -108.97 input   59.86 | X-H torsion
[ 10167 10162 10161 10158 ] final -153.35 input  -65.29 | X-H torsion
[ 10718 10713 10712 10709 ] final   85.42 input   66.30 | X-H torsion
[ 10763 10752 10751 10750 ] final  -39.02 input  -60.55 | X-H torsion
[ 11005 11000 10999 10996 ] final  -41.32 input  -57.11 | X-H torsion

> <Gold.Protein.ActiveResidues>
 VAL166  LYS551  ARG553  GLY616  TRP617  ASP618  TYR619  PRO620  LYS621  CYS622 
 ASP623  PHE694  ASN695  SER759  ASP760  ASP761  ALA762  ILE779  LEU786  VAL792 
 PHE793  MET794  SER795  GLU796  ALA797  LYS798  CYS799  TRP800  GLU811  SER814 

> <Gold.Protein.RotatedAtoms>
  151.5751  135.1061  160.0003 H   0  0  0  0  0  0  0  0  0  0  0  0  # atno 6907 bound_to 6896
  152.4382  133.7394  159.6643 H   0  0  0  0  0  0  0  0  0  0  0  0  # atno 6908 bound_to 6896
  150.8282  133.8065  159.3133 H   0  0  0  0  0  0  0  0  0  0  0  0  # atno 6909 bound_to 6896
  145.3450  139.2453  143.3589 H   0  0  0  0  0  0  0  0  0  0  0  0  # atno 7974 bound_to 7965
  154.9523  140.0400  157.2150 H   0  0  0  0  0  0  0  0  0  0  0  0  # atno 8008 bound_to 7997
  154.7966  140.2844  155.5930 H   0  0  0  0  0  0  0  0  0  0  0  0  # atno 8009 bound_to 7997
  156.2956  140.2563  156.2826 H   0  0  0  0  0  0  0  0  0  0  0  0  # atno 8010 bound_to 7997
  139.7104  143.9117  152.2466 H   0  0  0  0  0  0  0  0  0  0  0  0  # atno 10167 bound_to 10162
  157.6914  131.0174  150.2820 H   0  0  0  0  0  0  0  0  0  0  0  0  # atno 10718 bound_to 10713
  153.9225  135.6781  153.4747 H   0  0  0  0  0  0  0  0  0  0  0  0  # atno 10763 bound_to 10752
  153.1021  135.4823  154.8883 H   0  0  0  0  0  0  0  0  0  0  0  0  # atno 10764 bound_to 10752
  154.7470  135.3175  154.8582 H   0  0  0  0  0  0  0  0  0  0  0  0  # atno 10765 bound_to 10752
  141.0237  133.6851  156.2441 H   0  0  0  0  0  0  0  0  0  0  0  0  # atno 11005 bound_to 11000
  146.2992  140.4054  142.8710 LP  0  0  0  0  0  0  0  0  0  0  0  0  # atno 17320 bound_to 7965
  144.8761  140.7338  143.6016 LP  0  0  0  0  0  0  0  0  0  0  0  0  # atno 17321 bound_to 7965
  139.8985  144.6925  150.8691 LP  0  0  0  0  0  0  0  0  0  0  0  0  # atno 17342 bound_to 10162
  140.7732  143.3532  151.1973 LP  0  0  0  0  0  0  0  0  0  0  0  0  # atno 17343 bound_to 10162
  156.3365  130.3808  149.7446 LP  0  0  0  0  0  0  0  0  0  0  0  0  # atno 17370 bound_to 10713
  156.4968  130.8110  151.3117 LP  0  0  0  0  0  0  0  0  0  0  0  0  # atno 17371 bound_to 10713
  140.6528  134.5049  157.5578 LP  0  0  0  0  0  0  0  0  0  0  0  0  # atno 17394 bound_to 11000
  139.9162  134.8241  156.1358 LP  0  0  0  0  0  0  0  0  0  0  0  0  # atno 17395 bound_to 11000

$$$$
