AV-unprocessed.smi:2928|AV-procd|sdf|11233|dock3
  -GOLD-   2272016123D 1   1.00000     0.00000
 Structure written by MMmdl.
 55 58  0  0  0  0  0  0  0  0  2 V2000
  144.4113  135.0743  162.4639 C   0  0  0  0  0  0  0  0  0  0  0  0
  145.4909  135.4362  161.5145 N   0  3  2  0  0  0  0  0  0  0  0  0
  145.7506  134.4325  160.4538 C   0  0  2  0  0  0  0  0  0  0  0  0
  146.4076  133.1548  161.0353 C   0  0  0  0  0  0  0  0  0  0  0  0
  147.6545  133.4278  161.8982 C   0  0  0  0  0  0  0  0  0  0  0  0
  147.4767  134.6484  162.8212 C   0  0  0  0  0  0  0  0  0  0  0  0
  146.7665  135.8503  162.1480 C   0  0  1  0  0  0  0  0  0  0  0  0
  147.6211  136.6059  161.1040 C   0  0  0  0  0  0  0  0  0  0  0  0
  147.8271  135.8437  159.7694 C   0  0  2  0  0  0  0  0  0  0  0  0
  148.2470  136.7661  158.7166 N   0  0  0  0  0  0  0  0  0  0  0  0
  149.4984  136.8925  158.2514 C   0  0  0  0  0  0  0  0  0  0  0  0
  150.4548  136.2567  158.6938 O   0  0  0  0  0  0  0  0  0  0  0  0
  149.5594  137.8055  157.2678 N   0  0  0  0  0  0  0  0  0  0  0  0
  150.6971  138.2378  156.5281 C   0  0  0  0  0  0  0  0  0  0  0  0
  151.9826  137.6806  156.7397 C   0  0  0  0  0  0  0  0  0  0  0  0
  153.0561  138.0960  155.9332 C   0  0  0  0  0  0  0  0  0  0  0  0
  152.8045  139.0448  154.9286 C   0  0  0  0  0  0  0  0  0  0  0  0
  151.5854  139.5743  154.7046 N   0  0  0  0  0  0  0  0  0  0  0  0
  150.5430  139.1940  155.4837 C   0  0  0  0  0  0  0  0  0  0  0  0
  149.2911  139.7926  155.2149 N   0  0  0  0  0  0  0  0  0  0  0  0
  149.2023  141.2473  155.3058 C   0  0  0  0  0  0  0  0  0  0  0  0
  148.2215  141.6924  154.2148 C   0  0  0  0  0  0  0  0  0  0  0  0
  147.4333  140.4260  153.8940 C   0  0  0  0  0  0  0  0  0  0  0  0
  148.4804  139.3343  154.0921 C   0  0  0  0  0  0  0  0  0  0  0  0
  146.5449  135.1077  159.3116 C   0  0  0  0  0  0  0  0  0  0  0  0
  144.6552  134.1907  163.0526 H   0  0  0  0  0  0  0  0  0  0  0  0
  143.4842  134.8752  161.9256 H   0  0  0  0  0  0  0  0  0  0  0  0
  144.2209  135.8969  163.1537 H   0  0  0  0  0  0  0  0  0  0  0  0
  144.7891  134.1385  160.0304 H   0  0  0  0  0  0  0  0  0  0  0  0
  145.6740  132.6303  161.6479 H   0  0  0  0  0  0  0  0  0  0  0  0
  146.6594  132.4624  160.2312 H   0  0  0  0  0  0  0  0  0  0  0  0
  147.8792  132.5469  162.5003 H   0  0  0  0  0  0  0  0  0  0  0  0
  148.5310  133.5542  161.2685 H   0  0  0  0  0  0  0  0  0  0  0  0
  146.8963  134.3401  163.6912 H   0  0  0  0  0  0  0  0  0  0  0  0
  148.4455  134.9566  163.2156 H   0  0  0  0  0  0  0  0  0  0  0  0
  146.5310  136.5696  162.9339 H   0  0  0  0  0  0  0  0  0  0  0  0
  147.1176  137.5504  160.8899 H   0  0  0  0  0  0  0  0  0  0  0  0
  148.5851  136.8779  161.5356 H   0  0  0  0  0  0  0  0  0  0  0  0
  148.6237  135.1130  159.8872 H   0  0  0  0  0  0  0  0  0  0  0  0
  147.5272  137.3350  158.2953 H   0  0  0  0  0  0  0  0  0  0  0  0
  148.7077  138.3131  157.0777 H   0  0  0  0  0  0  0  0  0  0  0  0
  152.1607  136.9249  157.4891 H   0  0  0  0  0  0  0  0  0  0  0  0
  154.0456  137.6865  156.0728 H   0  0  0  0  0  0  0  0  0  0  0  0
  153.6013  139.3836  154.2832 H   0  0  0  0  0  0  0  0  0  0  0  0
  148.8129  141.5174  156.2875 H   0  0  0  0  0  0  0  0  0  0  0  0
  150.1755  141.7256  155.1847 H   0  0  0  0  0  0  0  0  0  0  0  0
  147.5861  142.5210  154.5282 H   0  0  0  0  0  0  0  0  0  0  0  0
  148.7762  142.0101  153.3309 H   0  0  0  0  0  0  0  0  0  0  0  0
  146.6210  140.3001  154.6110 H   0  0  0  0  0  0  0  0  0  0  0  0
  147.0056  140.4290  152.8911 H   0  0  0  0  0  0  0  0  0  0  0  0
  149.0846  139.2449  153.1884 H   0  0  0  0  0  0  0  0  0  0  0  0
  148.0244  138.3657  154.2982 H   0  0  0  0  0  0  0  0  0  0  0  0
  146.7883  134.3786  158.5379 H   0  0  0  0  0  0  0  0  0  0  0  0
  145.8797  135.8310  158.8365 H   0  0  0  0  0  0  0  0  0  0  0  0
  145.1449  136.2560  161.0364 H   0  0  0  0  0  0  0  0  0  0  0  0
  1  2  1  0  0  0  0
  1 26  1  0  0  0  0
  1 27  1  0  0  0  0
  1 28  1  0  0  0  0
  2  7  1  0  0  0  0
  2  3  1  0  0  0  0
  2 55  1  0  0  0  0
  3 25  1  0  0  0  0
  3  4  1  0  0  0  0
  3 29  1  0  0  0  0
  4  5  1  0  0  0  0
  4 30  1  0  0  0  0
  4 31  1  0  0  0  0
  5  6  1  0  0  0  0
  5 32  1  0  0  0  0
  5 33  1  0  0  0  0
  6  7  1  0  0  0  0
  6 34  1  0  0  0  0
  6 35  1  0  0  0  0
  7  8  1  0  0  0  0
  7 36  1  0  0  0  0
  8  9  1  0  0  0  0
  8 37  1  0  0  0  0
  8 38  1  0  0  0  0
  9 10  1  0  0  0  0
  9 25  1  0  0  0  0
  9 39  1  0  0  0  0
 10 11  1  0  0  0  0
 10 40  1  0  0  0  0
 11 12  2  0  0  0  0
 11 13  1  0  0  0  0
 13 14  1  0  0  0  0
 13 41  1  0  0  0  0
 14 19  1  0  0  0  0
 14 15  2  0  0  0  0
 15 16  1  0  0  0  0
 15 42  1  0  0  0  0
 16 17  2  0  0  0  0
 16 43  1  0  0  0  0
 17 18  1  0  0  0  0
 17 44  1  0  0  0  0
 18 19  2  0  0  0  0
 19 20  1  0  0  0  0
 20 24  1  0  0  0  0
 20 21  1  0  0  0  0
 21 22  1  0  0  0  0
 21 45  1  0  0  0  0
 21 46  1  0  0  0  0
 22 23  1  0  0  0  0
 22 47  1  0  0  0  0
 22 48  1  0  0  0  0
 23 24  1  0  0  0  0
 23 49  1  0  0  0  0
 23 50  1  0  0  0  0
 24 51  1  0  0  0  0
 24 52  1  0  0  0  0
 25 53  1  0  0  0  0
 25 54  1  0  0  0  0
M  CHG  1   2   1
M  END
> <s_m_source_file>
AV-unprocessed.smi

> <i_m_source_file_index>
2928

> <i_lp_mmshare_version>
43012

> <i_f3d_flags>
0

> <s_epik_input>
W0NIMl0xW0NIMl1bQ0gyXVtDQEhdKE4oW0NIM10pW0NIXTEyKVtDSDJdW0NASF0oW0NIMl0yKVtOSF1DKD1PKVtOSF1jM1tjSF1bY0hdW2NIXW5jM040W0NIMl1bQ0gyXVtDSDJdW0NIMl00

> <s_epik_cmdline>
J2VwaWtfcHl0aG9uJywgJy1waCcsICc3LjAnLCAnLXRuJywgJzgnLCAnLW1hJywgJzIwMCcsICctbWV0YWxfYmluZGluZycsICctaW1hZScsICc8aW5maWxlLm1hZT4nLCAnLW9tYWUnLCAnPG91dGZpbGUubWFlPic=

> <r_lp_tautomer_probability>
1

> <r_epik_Ionization_Penalty>
0.07954

> <r_epik_Ionization_Penalty_Charging>
0.00089841

> <r_epik_Ionization_Penalty_Neutral>
0.0786416

> <r_epik_State_Penalty>
0.0689917

> <r_epik_Charging_Adjusted_Penalty>
0.0698901

> <i_epik_Tot_Q>
1

> <i_epik_Tot_abs_Q>
1

> <r_epik_Metal_State_Penalty>
0.0608947

> <b_epik_Metal_Only>
0

> <s_lp_Force_Field>
OPLS_2005

> <r_lp_Energy>
63.7088

> <b_lp_Chiralities_Consistent>
1

> <s_lp_Variant>
AV-unprocessed.smi:2928-3

> <Gold.Version>
5.8.1

> <Gold.Id.Protein>
6NUR|6NUR_protein|mol2

> <Gold.PLP.Fitness>
43.7002

> <Gold.PLP.PLP>
-38.2969

> <Gold.PLP.part.hbond>
-2.0000

> <Gold.PLP.part.metal>
0.0000

> <Gold.PLP.part.buried>
-4.4251

> <Gold.PLP.part.nonpolar>
-31.9392

> <Gold.PLP.part.repulsive>
0.2519

> <Gold.PLP.ligand.clash>
0.0000

> <Gold.PLP.ligand.torsion>
0.4363

> <Gold.PLP.Chemscore.Hbond>
1.9920

> <Gold.PLP.Chemscore.CHOScore>
0.0000

> <Gold.PLP.Chemscore.Metal>
0.0000

> <Gold.Chemscore.Hbonds>
donor molecule, donor type, donor heavy atom, donor atom, acceptor molecule, acceptor atom, score
      P1  H  6896  6907       L1    12  0.99
      P1  H  7989  7998       L1    18  1.00

> <Gold.PLP.Chemscore.Internal.Correction>
0.3000

> <Gold.Rescore>
     Score         DG    S(hbond)    S(metal)    S(lipo)     H(rot)  DE(clash)    DE(int)     intcor
     19.33     -21.15       1.85        0.00     106.85       1.18       0.07       1.75       ----

> <Gold.Chemscore.Fitness>
19.3299

> <Gold.Chemscore.DG>
-21.1454

> <Gold.Chemscore.ZeroCoef>
-5.4800

> <Gold.Chemscore.Hbond>
1.8498

> <Gold.Chemscore.Metal>
0.0000

> <Gold.Chemscore.Lipo>
106.8526

> <Gold.Chemscore.Internal_Hbond>
0.0000

> <Gold.Chemscore.DEClash>
0.0657

> <Gold.Chemscore.DEInternal>
1.7497

> <Gold.Chemscore.Rot>
1.1776

> <Gold.Chemscore.Internal.Correction>
   9.000000E+99

> <Gold.Chemscore.Hbonds>
donor molecule, donor type, donor heavy atom, donor atom, acceptor molecule, acceptor atom, score
      P1  H  6896  6907       L1    12  0.94
      P1  H  7989  7998       L1    18  0.78

> <Gold.Chemscore.Hbond.Weighted>
-6.1783

> <Gold.Chemscore.Metal.Weighted>
-0.0000

> <Gold.Chemscore.Lipo.Weighted>
-12.5017

> <Gold.Chemscore.Internal_Hbond.Weighted>
0.0000

> <Gold.Chemscore.DEClash.Weighted>
0.0657

> <Gold.Chemscore.DEInternal.Weighted>
1.7497

> <Gold.Chemscore.Rot.Weighted>
3.0147

> <Gold.Chemscore.Internal.Correction.Weighted>
   9.000000E+99

> <Gold.Protein.RotatedTorsions>
[ 6907 6896 6895 6894 ] final  -47.18 input  -60.11 | X-H torsion
[ 7974 7965 7964 7962 ] final  129.83 input  175.53 | X-H torsion
[ 8008 7997 7996 7995 ] final -138.40 input   59.86 | X-H torsion
[ 10167 10162 10161 10158 ] final  129.00 input  -65.29 | X-H torsion
[ 10718 10713 10712 10709 ] final   41.70 input   66.30 | X-H torsion
[ 10763 10752 10751 10750 ] final  140.75 input  -60.55 | X-H torsion
[ 11005 11000 10999 10996 ] final   78.41 input  -57.11 | X-H torsion

> <Gold.Protein.ActiveResidues>
 VAL166  LYS551  ARG553  GLY616  TRP617  ASP618  TYR619  PRO620  LYS621  CYS622 
 ASP623  PHE694  ASN695  SER759  ASP760  ASP761  ALA762  ILE779  LEU786  VAL792 
 PHE793  MET794  SER795  GLU796  ALA797  LYS798  CYS799  TRP800  GLU811  SER814 

> <Gold.Protein.RotatedAtoms>
  150.9035  134.8448  159.7375 H   0  0  0  0  0  0  0  0  0  0  0  0  # atno 6907 bound_to 6896
  152.4905  134.4467  159.9571 H   0  0  0  0  0  0  0  0  0  0  0  0  # atno 6908 bound_to 6896
  151.4517  133.3577  159.2831 H   0  0  0  0  0  0  0  0  0  0  0  0  # atno 6909 bound_to 6896
  145.0245  139.4102  143.5181 H   0  0  0  0  0  0  0  0  0  0  0  0  # atno 7974 bound_to 7965
  155.4277  140.0523  157.3021 H   0  0  0  0  0  0  0  0  0  0  0  0  # atno 8008 bound_to 7997
  154.4874  140.2106  155.9583 H   0  0  0  0  0  0  0  0  0  0  0  0  # atno 8009 bound_to 7997
  156.1294  140.3174  155.8331 H   0  0  0  0  0  0  0  0  0  0  0  0  # atno 8010 bound_to 7997
  139.5499  144.6804  151.4356 H   0  0  0  0  0  0  0  0  0  0  0  0  # atno 10167 bound_to 10162
  157.3966  130.7836  149.7313 H   0  0  0  0  0  0  0  0  0  0  0  0  # atno 10718 bound_to 10713
  153.9279  135.2993  155.3446 H   0  0  0  0  0  0  0  0  0  0  0  0  # atno 10763 bound_to 10752
  154.7542  135.4966  153.9347 H   0  0  0  0  0  0  0  0  0  0  0  0  # atno 10764 bound_to 10752
  153.1107  135.6758  153.9610 H   0  0  0  0  0  0  0  0  0  0  0  0  # atno 10765 bound_to 10752
  139.9214  134.7761  156.1646 H   0  0  0  0  0  0  0  0  0  0  0  0  # atno 11005 bound_to 11000
  146.3490  139.9761  142.8701 LP  0  0  0  0  0  0  0  0  0  0  0  0  # atno 17320 bound_to 7965
  145.1852  140.9786  143.4243 LP  0  0  0  0  0  0  0  0  0  0  0  0  # atno 17321 bound_to 7965
  140.6758  143.8192  150.7057 LP  0  0  0  0  0  0  0  0  0  0  0  0  # atno 17342 bound_to 10162
  140.1630  143.4259  152.2053 LP  0  0  0  0  0  0  0  0  0  0  0  0  # atno 17343 bound_to 10162
  155.9812  130.4022  150.3485 LP  0  0  0  0  0  0  0  0  0  0  0  0  # atno 17370 bound_to 10713
  157.1608  131.0344  151.2842 LP  0  0  0  0  0  0  0  0  0  0  0  0  # atno 17371 bound_to 10713
  141.0737  133.6785  156.2192 LP  0  0  0  0  0  0  0  0  0  0  0  0  # atno 17394 bound_to 11000
  140.6464  134.5112  157.5574 LP  0  0  0  0  0  0  0  0  0  0  0  0  # atno 17395 bound_to 11000

$$$$
