AV-unprocessed.smi:1254|AV-procd|sdf|5276|dock10
  -GOLD-   22720 4393D 1   1.00000     0.00000
 Structure written by MMmdl.
 45 46  0  0  0  0  0  0  0  0  3 V2000
  151.2304  140.9154  156.5684 C   0  0  0  0  0  0  0  0  0  0  0  0
  151.1391  139.7040  155.7045 C   0  0  0  0  0  0  0  0  0  0  0  0
  151.4643  138.3928  155.9079 C   0  0  0  0  0  0  0  0  0  0  0  0
  151.1311  137.7797  154.6691 C   0  0  0  0  0  0  0  0  0  0  0  0
  151.2607  136.4772  154.3724 N   0  5  0  0  0  0  0  0  0  0  0  0
  150.6867  135.5395  155.1602 C   0  0  0  0  0  0  0  0  0  0  0  0
  150.6011  135.5664  156.3901 O   0  0  0  0  0  0  0  0  0  0  0  0
  150.1821  134.5021  154.4807 N   0  0  0  0  0  0  0  0  0  0  0  0
  149.5299  133.3463  155.0807 C   0  0  0  0  0  0  0  0  0  0  0  0
  148.3055  132.9271  154.2560 C   0  0  1  0  0  0  0  0  0  0  0  0
  148.6614  132.7191  152.7693 C   0  0  0  0  0  0  0  0  0  0  0  0
  147.4894  132.2443  151.9940 N   0  3  2  0  0  0  0  0  0  0  0  0
  146.5103  133.3175  151.6710 C   0  0  0  0  0  0  0  0  0  0  0  0
  145.3424  132.8169  150.7940 C   0  0  0  0  0  0  0  0  0  0  0  0
  145.8422  132.1447  149.5041 C   0  0  0  0  0  0  0  0  0  0  0  0
  144.3843  133.9699  150.4600 C   0  0  0  0  0  0  0  0  0  0  0  0
  146.9008  131.0376  152.6288 C   0  0  0  0  0  0  0  0  0  0  0  0
  146.6235  131.2654  154.1273 C   0  0  0  0  0  0  0  0  0  0  0  0
  147.8130  131.6958  154.7762 O   0  0  0  0  0  0  0  0  0  0  0  0
  150.6309  138.6398  153.7977 N   0  0  0  0  0  0  0  0  0  0  0  0
  150.6400  139.8777  154.4514 O   0  0  0  0  0  0  0  0  0  0  0  0
  150.7697  140.7326  157.5391 H   0  0  0  0  0  0  0  0  0  0  0  0
  150.7239  141.7649  156.1096 H   0  0  0  0  0  0  0  0  0  0  0  0
  152.2715  141.1923  156.7340 H   0  0  0  0  0  0  0  0  0  0  0  0
  151.8785  137.9439  156.7982 H   0  0  0  0  0  0  0  0  0  0  0  0
  150.2654  134.5172  153.4748 H   0  0  0  0  0  0  0  0  0  0  0  0
  150.2427  132.5213  155.1266 H   0  0  0  0  0  0  0  0  0  0  0  0
  149.2397  133.5801  156.1061 H   0  0  0  0  0  0  0  0  0  0  0  0
  147.5383  133.6985  154.3484 H   0  0  0  0  0  0  0  0  0  0  0  0
  149.0620  133.6345  152.3318 H   0  0  0  0  0  0  0  0  0  0  0  0
  149.4514  131.9711  152.6857 H   0  0  0  0  0  0  0  0  0  0  0  0
  146.1319  133.7646  152.5903 H   0  0  0  0  0  0  0  0  0  0  0  0
  147.0148  134.1224  151.1347 H   0  0  0  0  0  0  0  0  0  0  0  0
  144.7649  132.0809  151.3525 H   0  0  0  0  0  0  0  0  0  0  0  0
  146.4279  132.8361  148.8973 H   0  0  0  0  0  0  0  0  0  0  0  0
  145.0075  131.7957  148.8956 H   0  0  0  0  0  0  0  0  0  0  0  0
  146.4681  131.2789  149.7204 H   0  0  0  0  0  0  0  0  0  0  0  0
  144.8860  134.7505  149.8869 H   0  0  0  0  0  0  0  0  0  0  0  0
  143.9855  134.4266  151.3663 H   0  0  0  0  0  0  0  0  0  0  0  0
  143.5364  133.6188  149.8711 H   0  0  0  0  0  0  0  0  0  0  0  0
  145.9941  130.7214  152.1149 H   0  0  0  0  0  0  0  0  0  0  0  0
  147.6128  130.2185  152.5193 H   0  0  0  0  0  0  0  0  0  0  0  0
  145.8260  131.9932  154.2824 H   0  0  0  0  0  0  0  0  0  0  0  0
  146.2904  130.3355  154.5886 H   0  0  0  0  0  0  0  0  0  0  0  0
  147.8562  131.9510  151.0998 H   0  0  0  0  0  0  0  0  0  0  0  0
  1  2  1  0  0  0  0
  1 22  1  0  0  0  0
  1 23  1  0  0  0  0
  1 24  1  0  0  0  0
  2 21  1  0  0  0  0
  2  3  2  0  0  0  0
  3  4  1  0  0  0  0
  3 25  1  0  0  0  0
  4  5  1  0  0  0  0
  4 20  2  0  0  0  0
  5  6  1  0  0  0  0
  6  7  2  0  0  0  0
  6  8  1  0  0  0  0
  8  9  1  0  0  0  0
  8 26  1  0  0  0  0
  9 10  1  0  0  0  0
  9 27  1  0  0  0  0
  9 28  1  0  0  0  0
 10 19  1  0  0  0  0
 10 11  1  0  0  0  0
 10 29  1  0  0  0  0
 11 12  1  0  0  0  0
 11 30  1  0  0  0  0
 11 31  1  0  0  0  0
 12 13  1  0  0  0  0
 12 17  1  0  0  0  0
 12 45  1  0  0  0  0
 13 14  1  0  0  0  0
 13 32  1  0  0  0  0
 13 33  1  0  0  0  0
 14 15  1  0  0  0  0
 14 16  1  0  0  0  0
 14 34  1  0  0  0  0
 15 35  1  0  0  0  0
 15 36  1  0  0  0  0
 15 37  1  0  0  0  0
 16 38  1  0  0  0  0
 16 39  1  0  0  0  0
 16 40  1  0  0  0  0
 17 18  1  0  0  0  0
 17 41  1  0  0  0  0
 17 42  1  0  0  0  0
 18 19  1  0  0  0  0
 18 43  1  0  0  0  0
 18 44  1  0  0  0  0
 20 21  1  0  0  0  0
M  CHG  1   5  -1
M  CHG  1  12   1
M  END
> <s_m_source_file>
AV-unprocessed.smi

> <i_m_source_file_index>
1254

> <i_lp_mmshare_version>
43012

> <i_f3d_flags>
0

> <s_epik_input>
W0NIM11jMVtjSF1jKG5vMSlbTkhdQyg9TylbTkhdW0NIMl1bQ0BASF0yW0NIMl1OKFtDSDJdW0NIMl1PMilbQ0gyXVtDSF0oW0NIM10pW0NIM10=

> <s_epik_cmdline>
J2VwaWtfcHl0aG9uJywgJy1waCcsICc3LjAnLCAnLXRuJywgJzgnLCAnLW1hJywgJzIwMCcsICctbWV0YWxfYmluZGluZycsICctaW1hZScsICc8aW5maWxlLm1hZT4nLCAnLW9tYWUnLCAnPG91dGZpbGUubWFlPic=

> <r_epik_Ionization_Penalty>
6.33139

> <r_epik_Ionization_Penalty_Charging>
6.33128

> <r_epik_Ionization_Penalty_Neutral>
0.000104968

> <r_epik_State_Penalty>
6.32522

> <r_epik_Charging_Adjusted_Penalty>
12.6565

> <i_epik_Tot_Q>
0

> <i_epik_Tot_abs_Q>
2

> <r_epik_Metal_State_Penalty>
2.26285

> <b_epik_Metal_Only>
1

> <s_lp_Force_Field>
OPLS_2005

> <r_lp_Energy>
8.57964

> <b_lp_Chiralities_Consistent>
1

> <s_lp_Variant>
AV-unprocessed.smi:1254-8

> <Gold.Version>
5.8.1

> <Gold.Id.Protein>
6NUR|6NUR_protein|mol2

> <Gold.PLP.Fitness>
44.1901

> <Gold.PLP.PLP>
-33.9515

> <Gold.PLP.part.hbond>
-3.0000

> <Gold.PLP.part.metal>
0.0000

> <Gold.PLP.part.buried>
-4.7421

> <Gold.PLP.part.nonpolar>
-26.9257

> <Gold.PLP.part.repulsive>
1.3166

> <Gold.PLP.ligand.clash>
0.0000

> <Gold.PLP.ligand.torsion>
0.9708

> <Gold.PLP.Chemscore.Hbond>
4.0000

> <Gold.PLP.Chemscore.CHOScore>
0.0000

> <Gold.PLP.Chemscore.Metal>
0.0000

> <Gold.Chemscore.Hbonds>
donor molecule, donor type, donor heavy atom, donor atom, acceptor molecule, acceptor atom, score
      L1  H    12    45       P1 10747  0.91
      P1  H  7989  7998       L1    21  1.00
      P1  H 10752 10765       L1     5  1.30

> <Gold.PLP.Chemscore.Internal.Correction>
0.1803

> <Gold.Rescore>
     Score         DG    S(hbond)    S(metal)    S(lipo)     H(rot)  DE(clash)    DE(int)     intcor
     16.69     -18.53       2.67        0.00      72.27       1.69       0.00       1.83       ----

> <Gold.Chemscore.Fitness>
16.6922

> <Gold.Chemscore.DG>
-18.5291

> <Gold.Chemscore.ZeroCoef>
-5.4800

> <Gold.Chemscore.Hbond>
2.6726

> <Gold.Chemscore.Metal>
0.0000

> <Gold.Chemscore.Lipo>
72.2696

> <Gold.Chemscore.Internal_Hbond>
0.0000

> <Gold.Chemscore.DEClash>
0.0021

> <Gold.Chemscore.DEInternal>
1.8348

> <Gold.Chemscore.Rot>
1.6926

> <Gold.Chemscore.Internal.Correction>
   9.000000E+99

> <Gold.Chemscore.Hbonds>
donor molecule, donor type, donor heavy atom, donor atom, acceptor molecule, acceptor atom, score
      L1  H    12    45       P1 10747  0.88
      P1  H  7989  7998       L1    21  0.43
      P1  H 10752 10765       L1     5  0.06

> <Gold.Chemscore.Hbond.Weighted>
-8.9266

> <Gold.Chemscore.Metal.Weighted>
-0.0000

> <Gold.Chemscore.Lipo.Weighted>
-8.4555

> <Gold.Chemscore.Internal_Hbond.Weighted>
0.0000

> <Gold.Chemscore.DEClash.Weighted>
0.0021

> <Gold.Chemscore.DEInternal.Weighted>
1.8348

> <Gold.Chemscore.Rot.Weighted>
4.3330

> <Gold.Chemscore.Internal.Correction.Weighted>
   9.000000E+99

> <Gold.Protein.RotatedTorsions>
[ 6907 6896 6895 6894 ] final   20.97 input  -60.11 | X-H torsion
[ 7974 7965 7964 7962 ] final  176.07 input  175.53 | X-H torsion
[ 8008 7997 7996 7995 ] final  -41.00 input   59.86 | X-H torsion
[ 10167 10162 10161 10158 ] final  -53.99 input  -65.29 | X-H torsion
[ 10718 10713 10712 10709 ] final  -51.74 input   66.30 | X-H torsion
[ 10763 10752 10751 10750 ] final  169.96 input  -60.55 | X-H torsion
[ 11005 11000 10999 10996 ] final -132.27 input  -57.11 | X-H torsion

> <Gold.Protein.ActiveResidues>
 VAL166  LYS551  ARG553  GLY616  TRP617  ASP618  TYR619  PRO620  LYS621  CYS622 
 ASP623  PHE694  ASN695  SER759  ASP760  ASP761  ALA762  ILE779  LEU786  VAL792 
 PHE793  MET794  SER795  GLU796  ALA797  LYS798  CYS799  TRP800  GLU811  SER814 

> <Gold.Protein.RotatedAtoms>
  151.9046  135.0364  160.0508 H   0  0  0  0  0  0  0  0  0  0  0  0  # atno 6907 bound_to 6896
  152.2330  133.5069  159.5235 H   0  0  0  0  0  0  0  0  0  0  0  0  # atno 6908 bound_to 6896
  150.7031  134.1107  159.4042 H   0  0  0  0  0  0  0  0  0  0  0  0  # atno 6909 bound_to 6896
  144.7190  140.0041  143.6440 H   0  0  0  0  0  0  0  0  0  0  0  0  # atno 7974 bound_to 7965
  154.4007  140.1510  156.3120 H   0  0  0  0  0  0  0  0  0  0  0  0  # atno 8008 bound_to 7997
  155.8607  140.3453  155.5733 H   0  0  0  0  0  0  0  0  0  0  0  0  # atno 8009 bound_to 7997
  155.7883  140.0853  157.2013 H   0  0  0  0  0  0  0  0  0  0  0  0  # atno 8010 bound_to 7997
  140.6455  143.2533  151.4871 H   0  0  0  0  0  0  0  0  0  0  0  0  # atno 10167 bound_to 10162
  156.1683  130.4149  149.9686 H   0  0  0  0  0  0  0  0  0  0  0  0  # atno 10718 bound_to 10713
  154.3907  135.2754  155.2157 H   0  0  0  0  0  0  0  0  0  0  0  0  # atno 10763 bound_to 10752
  154.4224  135.5997  153.6021 H   0  0  0  0  0  0  0  0  0  0  0  0  # atno 10764 bound_to 10752
  152.9832  135.5976  154.4161 H   0  0  0  0  0  0  0  0  0  0  0  0  # atno 10765 bound_to 10752
  140.9185  134.1475  157.4333 H   0  0  0  0  0  0  0  0  0  0  0  0  # atno 11005 bound_to 11000
  146.0311  139.3336  143.0754 LP  0  0  0  0  0  0  0  0  0  0  0  0  # atno 17320 bound_to 7965
  145.8451  140.9560  143.0779 LP  0  0  0  0  0  0  0  0  0  0  0  0  # atno 17321 bound_to 7965
  139.5665  144.2029  152.1773 LP  0  0  0  0  0  0  0  0  0  0  0  0  # atno 17342 bound_to 10162
  140.1312  144.5286  150.6801 LP  0  0  0  0  0  0  0  0  0  0  0  0  # atno 17343 bound_to 10162
  156.7495  130.9110  151.3636 LP  0  0  0  0  0  0  0  0  0  0  0  0  # atno 17370 bound_to 10713
  157.6784  130.9116  150.0206 LP  0  0  0  0  0  0  0  0  0  0  0  0  # atno 17371 bound_to 10713
  139.8771  134.9963  156.5786 LP  0  0  0  0  0  0  0  0  0  0  0  0  # atno 17394 bound_to 11000
  140.8018  133.8499  155.8733 LP  0  0  0  0  0  0  0  0  0  0  0  0  # atno 17395 bound_to 11000

$$$$
