AV-unprocessed.smi:2955|AV-procd|sdf|11301|dock7
  -GOLD-   2272016193D 1   1.00000     0.00000
 Structure written by MMmdl.
 45 47  0  0  0  0  0  0  0  0  1 V2000
  155.3787  133.2888  163.5876 C   0  0  0  0  0  0  0  0  0  0  0  0
  154.7356  134.6203  163.2594 C   0  0  0  0  0  0  0  0  0  0  0  0
  154.4146  135.5299  164.2862 C   0  0  0  0  0  0  0  0  0  0  0  0
  153.8164  136.7633  163.9692 C   0  0  0  0  0  0  0  0  0  0  0  0
  153.5393  137.0930  162.6284 C   0  0  0  0  0  0  0  0  0  0  0  0
  153.8620  136.1883  161.5857 C   0  0  0  0  0  0  0  0  0  0  0  0
  153.6333  136.4329  160.2486 O   0  0  0  0  0  0  0  0  0  0  0  0
  153.0330  137.6684  159.8835 C   0  0  0  0  0  0  0  0  0  0  0  0
  153.6180  138.1592  158.5518 C   0  0  0  0  0  0  0  0  0  0  0  0
  152.9384  139.3498  158.0576 N   0  0  0  0  0  0  0  0  0  0  0  0
  152.3381  139.5655  156.8561 C   0  0  0  0  0  0  0  0  0  0  0  0
  152.2798  138.5263  155.7637 C   0  0  2  0  0  0  0  0  0  0  0  0
  153.2215  138.8576  154.5970 C   0  0  0  0  0  0  0  0  0  0  0  0
  150.9030  138.4286  155.2907 N   0  0  0  0  0  0  0  0  0  0  0  0
  150.3077  139.3406  154.5122 C   0  0  0  0  0  0  0  0  0  0  0  0
  150.8701  140.3594  154.1193 O   0  0  0  0  0  0  0  0  0  0  0  0
  151.7678  140.7644  156.7075 N   0  0  0  0  0  0  0  0  0  0  0  0
  152.0490  141.3921  157.9033 C   0  0  0  0  0  0  0  0  0  0  0  0
  151.7270  142.6915  158.3564 C   0  0  0  0  0  0  0  0  0  0  0  0
  152.1299  143.1203  159.6381 C   0  0  0  0  0  0  0  0  0  0  0  0
  152.8572  142.2575  160.4831 C   0  0  0  0  0  0  0  0  0  0  0  0
  153.1860  140.9582  160.0509 C   0  0  0  0  0  0  0  0  0  0  0  0
  152.7825  140.5353  158.7699 C   0  0  0  0  0  0  0  0  0  0  0  0
  154.4587  134.9545  161.9183 C   0  0  0  0  0  0  0  0  0  0  0  0
  155.3887  133.1063  164.6625 H   0  0  0  0  0  0  0  0  0  0  0  0
  156.4075  133.2687  163.2277 H   0  0  0  0  0  0  0  0  0  0  0  0
  154.8312  132.4756  163.1107 H   0  0  0  0  0  0  0  0  0  0  0  0
  154.6247  135.2866  165.3175 H   0  0  0  0  0  0  0  0  0  0  0  0
  153.5701  137.4599  164.7567 H   0  0  0  0  0  0  0  0  0  0  0  0
  153.0808  138.0489  162.4269 H   0  0  0  0  0  0  0  0  0  0  0  0
  151.9545  137.5401  159.7804 H   0  0  0  0  0  0  0  0  0  0  0  0
  153.2103  138.4212  160.6533 H   0  0  0  0  0  0  0  0  0  0  0  0
  154.6882  138.3434  158.6335 H   0  0  0  0  0  0  0  0  0  0  0  0
  153.5161  137.3741  157.8021 H   0  0  0  0  0  0  0  0  0  0  0  0
  152.5824  137.5528  156.1450 H   0  0  0  0  0  0  0  0  0  0  0  0
  154.2500  138.9573  154.9429 H   0  0  0  0  0  0  0  0  0  0  0  0
  152.9455  139.7946  154.1122 H   0  0  0  0  0  0  0  0  0  0  0  0
  153.2005  138.0733  153.8399 H   0  0  0  0  0  0  0  0  0  0  0  0
  150.3749  137.6140  155.5678 H   0  0  0  0  0  0  0  0  0  0  0  0
  149.2679  139.0644  154.2768 H   0  0  0  0  0  0  0  0  0  0  0  0
  151.1707  143.3597  157.7161 H   0  0  0  0  0  0  0  0  0  0  0  0
  151.8800  144.1158  159.9743 H   0  0  0  0  0  0  0  0  0  0  0  0
  153.1624  142.5933  161.4634 H   0  0  0  0  0  0  0  0  0  0  0  0
  153.7435  140.2960  160.6962 H   0  0  0  0  0  0  0  0  0  0  0  0
  154.7054  134.2544  161.1338 H   0  0  0  0  0  0  0  0  0  0  0  0
  1  2  1  0  0  0  0
  1 25  1  0  0  0  0
  1 26  1  0  0  0  0
  1 27  1  0  0  0  0
  2 24  1  0  0  0  0
  2  3  2  0  0  0  0
  3  4  1  0  0  0  0
  3 28  1  0  0  0  0
  4  5  2  0  0  0  0
  4 29  1  0  0  0  0
  5  6  1  0  0  0  0
  5 30  1  0  0  0  0
  6  7  1  0  0  0  0
  6 24  2  0  0  0  0
  7  8  1  0  0  0  0
  8  9  1  0  0  0  0
  8 31  1  0  0  0  0
  8 32  1  0  0  0  0
  9 10  1  0  0  0  0
  9 33  1  0  0  0  0
  9 34  1  0  0  0  0
 10 23  1  0  0  0  0
 10 11  1  0  0  0  0
 11 12  1  0  0  0  0
 11 17  2  0  0  0  0
 12 13  1  0  0  0  0
 12 14  1  0  0  0  0
 12 35  1  0  0  0  0
 13 36  1  0  0  0  0
 13 37  1  0  0  0  0
 13 38  1  0  0  0  0
 14 15  1  0  0  0  0
 14 39  1  0  0  0  0
 15 16  2  0  0  0  0
 15 40  1  0  0  0  0
 17 18  1  0  0  0  0
 18 23  2  0  0  0  0
 18 19  1  0  0  0  0
 19 20  2  0  0  0  0
 19 41  1  0  0  0  0
 20 21  1  0  0  0  0
 20 42  1  0  0  0  0
 21 22  2  0  0  0  0
 21 43  1  0  0  0  0
 22 23  1  0  0  0  0
 22 44  1  0  0  0  0
 24 45  1  0  0  0  0
M  END
> <s_m_source_file>
AV-unprocessed.smi

> <i_m_source_file_index>
2955

> <i_lp_mmshare_version>
43012

> <i_f3d_flags>
0

> <s_epik_input>
W0NIM11jMVtjSF1bY0hdW2NIXWMoW2NIXTEpT1tDSDJdW0NIMl1uKGMobjIpW0NASF0oW0NIM10pW05IXVtDSF09TyljKGMyMylbY0hdW2NIXVtjSF1bY0hdMw==

> <s_epik_cmdline>
J2VwaWtfcHl0aG9uJywgJy1waCcsICc3LjAnLCAnLXRuJywgJzgnLCAnLW1hJywgJzIwMCcsICctbWV0YWxfYmluZGluZycsICctaW1hZScsICc8aW5maWxlLm1hZT4nLCAnLW9tYWUnLCAnPG91dGZpbGUubWFlPic=

> <r_lp_tautomer_probability>
1

> <r_epik_Ionization_Penalty>
0.0917757

> <r_epik_Ionization_Penalty_Charging>
0

> <r_epik_Ionization_Penalty_Neutral>
0.0917757

> <r_epik_State_Penalty>
0.0820948

> <r_epik_Charging_Adjusted_Penalty>
0.0820948

> <i_epik_Tot_Q>
0

> <i_epik_Tot_abs_Q>
0

> <r_epik_Metal_State_Penalty>
0.0709956

> <b_epik_Metal_Only>
0

> <s_lp_Force_Field>
OPLS_2005

> <r_lp_Energy>
12.8811

> <b_lp_Chiralities_Consistent>
1

> <s_lp_Variant>
AV-unprocessed.smi:2955-1

> <Gold.Version>
5.8.1

> <Gold.Id.Protein>
6NUR|6NUR_protein|mol2

> <Gold.PLP.Fitness>
51.1221

> <Gold.PLP.PLP>
-46.9865

> <Gold.PLP.part.hbond>
-1.7108

> <Gold.PLP.part.metal>
0.0000

> <Gold.PLP.part.buried>
-5.7775

> <Gold.PLP.part.nonpolar>
-40.5428

> <Gold.PLP.part.repulsive>
0.1515

> <Gold.PLP.ligand.clash>
0.0000

> <Gold.PLP.ligand.torsion>
0.6988

> <Gold.PLP.Chemscore.Hbond>
1.8125

> <Gold.PLP.Chemscore.CHOScore>
0.0000

> <Gold.PLP.Chemscore.Metal>
0.0000

> <Gold.Chemscore.Hbonds>
donor molecule, donor type, donor heavy atom, donor atom, acceptor molecule, acceptor atom, score
      P1  H  6896  6909       L1     7  0.64

> <Gold.PLP.Chemscore.Internal.Correction>
0.0957

> <Gold.Rescore>
     Score         DG    S(hbond)    S(metal)    S(lipo)     H(rot)  DE(clash)    DE(int)     intcor
     18.19     -21.18       1.83        0.00     131.42       2.26       0.19       2.80       ----

> <Gold.Chemscore.Fitness>
18.1887

> <Gold.Chemscore.DG>
-21.1807

> <Gold.Chemscore.ZeroCoef>
-5.4800

> <Gold.Chemscore.Hbond>
1.8308

> <Gold.Chemscore.Metal>
0.0000

> <Gold.Chemscore.Lipo>
131.4205

> <Gold.Chemscore.Internal_Hbond>
0.0000

> <Gold.Chemscore.DEClash>
0.1921

> <Gold.Chemscore.DEInternal>
2.7999

> <Gold.Chemscore.Rot>
2.2619

> <Gold.Chemscore.Internal.Correction>
   9.000000E+99

> <Gold.Chemscore.Hbonds>
donor molecule, donor type, donor heavy atom, donor atom, acceptor molecule, acceptor atom, score
      P1  H  6896  6909       L1     7  0.05
      P1  H  7989  7998       L1    16  0.05

> <Gold.Chemscore.Hbond.Weighted>
-6.1150

> <Gold.Chemscore.Metal.Weighted>
-0.0000

> <Gold.Chemscore.Lipo.Weighted>
-15.3762

> <Gold.Chemscore.Internal_Hbond.Weighted>
0.0000

> <Gold.Chemscore.DEClash.Weighted>
0.1921

> <Gold.Chemscore.DEInternal.Weighted>
2.7999

> <Gold.Chemscore.Rot.Weighted>
5.7906

> <Gold.Chemscore.Internal.Correction.Weighted>
   9.000000E+99

> <Gold.Protein.RotatedTorsions>
[ 6907 6896 6895 6894 ] final  163.44 input  -60.11 | X-H torsion
[ 7974 7965 7964 7962 ] final -175.85 input  175.53 | X-H torsion
[ 8008 7997 7996 7995 ] final  -19.83 input   59.86 | X-H torsion
[ 10167 10162 10161 10158 ] final   99.88 input  -65.29 | X-H torsion
[ 10718 10713 10712 10709 ] final  -15.02 input   66.30 | X-H torsion
[ 10763 10752 10751 10750 ] final  -62.85 input  -60.55 | X-H torsion
[ 11005 11000 10999 10996 ] final -103.79 input  -57.11 | X-H torsion

> <Gold.Protein.ActiveResidues>
 VAL166  LYS551  ARG553  GLY616  TRP617  ASP618  TYR619  PRO620  LYS621  CYS622 
 ASP623  PHE694  ASN695  SER759  ASP760  ASP761  ALA762  ILE779  LEU786  VAL792 
 PHE793  MET794  SER795  GLU796  ALA797  LYS798  CYS799  TRP800  GLU811  SER814 

> <Gold.Protein.RotatedAtoms>
  151.9252  133.3596  159.3910 H   0  0  0  0  0  0  0  0  0  0  0  0  # atno 6907 bound_to 6896
  150.7028  134.4594  159.5383 H   0  0  0  0  0  0  0  0  0  0  0  0  # atno 6908 bound_to 6896
  152.2225  134.8400  160.0535 H   0  0  0  0  0  0  0  0  0  0  0  0  # atno 6909 bound_to 6896
  144.7127  140.1259  143.6402 H   0  0  0  0  0  0  0  0  0  0  0  0  # atno 7974 bound_to 7965
  154.4810  140.2078  155.9763 H   0  0  0  0  0  0  0  0  0  0  0  0  # atno 8008 bound_to 7997
  156.1165  140.3220  155.8116 H   0  0  0  0  0  0  0  0  0  0  0  0  # atno 8009 bound_to 7997
  155.4543  140.0519  157.2988 H   0  0  0  0  0  0  0  0  0  0  0  0  # atno 8010 bound_to 7997
  139.7577  144.6964  151.0338 H   0  0  0  0  0  0  0  0  0  0  0  0  # atno 10167 bound_to 10162
  156.6076  130.4841  149.6214 H   0  0  0  0  0  0  0  0  0  0  0  0  # atno 10718 bound_to 10713
  154.3061  135.6225  153.5445 H   0  0  0  0  0  0  0  0  0  0  0  0  # atno 10763 bound_to 10752
  152.9835  135.5690  154.5229 H   0  0  0  0  0  0  0  0  0  0  0  0  # atno 10764 bound_to 10752
  154.4870  135.2865  155.1503 H   0  0  0  0  0  0  0  0  0  0  0  0  # atno 10765 bound_to 10752
  141.1130  133.8669  157.1530 H   0  0  0  0  0  0  0  0  0  0  0  0  # atno 11005 bound_to 11000
  145.9330  139.2618  143.1314 LP  0  0  0  0  0  0  0  0  0  0  0  0  # atno 17320 bound_to 7965
  145.9503  140.8913  143.0262 LP  0  0  0  0  0  0  0  0  0  0  0  0  # atno 17321 bound_to 7965
  140.7804  143.4734  151.0116 LP  0  0  0  0  0  0  0  0  0  0  0  0  # atno 17342 bound_to 10162
  139.8420  143.7551  152.3180 LP  0  0  0  0  0  0  0  0  0  0  0  0  # atno 17343 bound_to 10162
  156.2416  130.6855  151.1561 LP  0  0  0  0  0  0  0  0  0  0  0  0  # atno 17370 bound_to 10713
  157.7263  131.0647  150.5916 LP  0  0  0  0  0  0  0  0  0  0  0  0  # atno 17371 bound_to 10713
  140.0034  135.0018  157.0240 LP  0  0  0  0  0  0  0  0  0  0  0  0  # atno 17394 bound_to 11000
  140.4724  134.1373  155.7205 LP  0  0  0  0  0  0  0  0  0  0  0  0  # atno 17395 bound_to 11000

$$$$
