AV-unprocessed.smi:3270|AV-procd|sdf|12515|dock10
  -GOLD-   2272018423D 1   1.00000     0.00000
 Structure written by MMmdl.
 39 40  0  0  0  0  0  0  0  0  2 V2000
  152.6992  138.4571  154.6907 C   0  0  0  0  0  0  0  0  0  0  0  0
  151.2219  138.0703  154.4745 C   0  0  1  0  0  0  0  0  0  0  0  0
  150.7718  136.9063  155.3732 C   0  0  0  0  0  0  0  0  0  0  0  0
  151.0827  136.8716  156.5645 O   0  0  0  0  0  0  0  0  0  0  0  0
  150.0364  135.9494  154.7845 N   0  0  0  0  0  0  0  0  0  0  0  0
  149.4958  134.7773  155.4626 C   0  0  0  0  0  0  0  0  0  0  0  0
  148.8891  133.7738  154.4627 C   0  0  0  0  0  0  0  0  0  0  0  0
  147.8430  134.3875  153.6072 N   0  3  0  0  0  0  0  0  0  0  0  0
  147.2799  133.4264  152.6288 C   0  0  0  0  0  0  0  0  0  0  0  0
  146.2346  134.1145  151.7346 C   0  0  0  0  0  0  0  0  0  0  0  0
  145.2129  134.6810  152.5451 O   0  0  0  0  0  0  0  0  0  0  0  0
  145.7239  135.6721  153.4275 C   0  0  0  0  0  0  0  0  0  0  0  0
  146.7534  135.0377  154.3783 C   0  0  0  0  0  0  0  0  0  0  0  0
  150.3287  139.2123  154.6329 N   0  0  0  0  0  0  0  0  0  0  0  0
  148.9643  139.2576  154.4279 C   0  0  0  0  0  0  0  0  0  0  0  0
  148.5451  140.5217  154.7284 C   0  0  0  0  0  0  0  0  0  0  0  0
  149.7380  141.1881  155.1234 C   0  0  0  0  0  0  0  0  0  0  0  0
  150.8008  140.4022  155.0726 N   0  0  0  0  0  0  0  0  0  0  0  0
  153.3583  137.6065  154.5125 H   0  0  0  0  0  0  0  0  0  0  0  0
  152.8867  138.8134  155.7045 H   0  0  0  0  0  0  0  0  0  0  0  0
  152.9969  139.2493  154.0032 H   0  0  0  0  0  0  0  0  0  0  0  0
  151.1288  137.7312  153.4414 H   0  0  0  0  0  0  0  0  0  0  0  0
  149.8216  136.0519  153.8031 H   0  0  0  0  0  0  0  0  0  0  0  0
  150.2833  134.3195  156.0621 H   0  0  0  0  0  0  0  0  0  0  0  0
  148.7299  135.1141  156.1616 H   0  0  0  0  0  0  0  0  0  0  0  0
  149.6948  133.4001  153.8287 H   0  0  0  0  0  0  0  0  0  0  0  0
  148.4747  132.9051  154.9770 H   0  0  0  0  0  0  0  0  0  0  0  0
  148.0784  133.0181  152.0079 H   0  0  0  0  0  0  0  0  0  0  0  0
  146.8245  132.5882  153.1589 H   0  0  0  0  0  0  0  0  0  0  0  0
  146.6967  134.8862  151.1166 H   0  0  0  0  0  0  0  0  0  0  0  0
  145.7855  133.3895  151.0556 H   0  0  0  0  0  0  0  0  0  0  0  0
  146.1700  136.4893  152.8580 H   0  0  0  0  0  0  0  0  0  0  0  0
  144.8973  136.0965  153.9982 H   0  0  0  0  0  0  0  0  0  0  0  0
  146.2638  134.2991  155.0153 H   0  0  0  0  0  0  0  0  0  0  0  0
  147.1552  135.8082  155.0353 H   0  0  0  0  0  0  0  0  0  0  0  0
  148.4102  138.3949  154.0880 H   0  0  0  0  0  0  0  0  0  0  0  0
  147.5390  140.9108  154.6772 H   0  0  0  0  0  0  0  0  0  0  0  0
  149.8620  142.2110  155.4473 H   0  0  0  0  0  0  0  0  0  0  0  0
  148.2966  135.1097  153.0658 H   0  0  0  0  0  0  0  0  0  0  0  0
  1  2  1  0  0  0  0
  1 19  1  0  0  0  0
  1 20  1  0  0  0  0
  1 21  1  0  0  0  0
  2  3  1  0  0  0  0
  2 14  1  0  0  0  0
  2 22  1  0  0  0  0
  3  4  2  0  0  0  0
  3  5  1  0  0  0  0
  5  6  1  0  0  0  0
  5 23  1  0  0  0  0
  6  7  1  0  0  0  0
  6 24  1  0  0  0  0
  6 25  1  0  0  0  0
  7  8  1  0  0  0  0
  7 26  1  0  0  0  0
  7 27  1  0  0  0  0
  8 13  1  0  0  0  0
  8  9  1  0  0  0  0
  8 39  1  0  0  0  0
  9 10  1  0  0  0  0
  9 28  1  0  0  0  0
  9 29  1  0  0  0  0
 10 11  1  0  0  0  0
 10 30  1  0  0  0  0
 10 31  1  0  0  0  0
 11 12  1  0  0  0  0
 12 13  1  0  0  0  0
 12 32  1  0  0  0  0
 12 33  1  0  0  0  0
 13 34  1  0  0  0  0
 13 35  1  0  0  0  0
 14 18  1  0  0  0  0
 14 15  1  0  0  0  0
 15 16  2  0  0  0  0
 15 36  1  0  0  0  0
 16 17  1  0  0  0  0
 16 37  1  0  0  0  0
 17 18  2  0  0  0  0
 17 38  1  0  0  0  0
M  CHG  1   8   1
M  END
> <s_m_source_file>
AV-unprocessed.smi

> <i_m_source_file_index>
3270

> <i_lp_mmshare_version>
43012

> <i_f3d_flags>
0

> <s_epik_input>
bjFbY0hdW2NIXVtjSF1uMVtDQEhdKFtDSDNdKUMoPU8pW05IXVtDSDJdW0NIMl1OMltDSDJdW0NIMl1PW0NIMl1bQ0gyXTI=

> <s_epik_cmdline>
J2VwaWtfcHl0aG9uJywgJy1waCcsICc3LjAnLCAnLXRuJywgJzgnLCAnLW1hJywgJzIwMCcsICctbWV0YWxfYmluZGluZycsICctaW1hZScsICc8aW5maWxlLm1hZT4nLCAnLW9tYWUnLCAnPG91dGZpbGUubWFlPic=

> <r_lp_tautomer_probability>
1

> <r_epik_Ionization_Penalty>
0.73255

> <r_epik_Ionization_Penalty_Charging>
0.732531

> <r_epik_Ionization_Penalty_Neutral>
1.96965e-05

> <r_epik_State_Penalty>
0.757939

> <r_epik_Charging_Adjusted_Penalty>
1.49047

> <i_epik_Tot_Q>
1

> <i_epik_Tot_abs_Q>
1

> <r_epik_Metal_State_Penalty>
0.757952

> <b_epik_Metal_Only>
0

> <s_lp_Force_Field>
OPLS_2005

> <r_lp_Energy>
19.4088

> <b_lp_Chiralities_Consistent>
1

> <s_lp_Variant>
AV-unprocessed.smi:3270-4

> <Gold.Version>
5.8.1

> <Gold.Id.Protein>
6NUR|6NUR_protein|mol2

> <Gold.PLP.Fitness>
47.1357

> <Gold.PLP.PLP>
-33.1386

> <Gold.PLP.part.hbond>
-3.0000

> <Gold.PLP.part.metal>
0.0000

> <Gold.PLP.part.buried>
-2.9191

> <Gold.PLP.part.nonpolar>
-27.7197

> <Gold.PLP.part.repulsive>
0.2473

> <Gold.PLP.ligand.clash>
0.0000

> <Gold.PLP.ligand.torsion>
0.6043

> <Gold.PLP.Chemscore.Hbond>
3.7920

> <Gold.PLP.Chemscore.CHOScore>
1.2390

> <Gold.PLP.Chemscore.Metal>
0.0000

> <Gold.Chemscore.Hbonds>
donor molecule, donor type, donor heavy atom, donor atom, acceptor molecule, acceptor atom, score
      L1  H     5    23       P1  7948  0.80
      L1  H     8    39       P1  7948  2.00
      P1  H  7989  7998       L1    18  0.80
      L1  C    17    38       P1  8028  0.58

> <Gold.PLP.Chemscore.Internal.Correction>
0.1127

> <Gold.Rescore>
     Score         DG    S(hbond)    S(metal)    S(lipo)     H(rot)  DE(clash)    DE(int)     intcor
     15.29     -16.11       2.72        0.00      54.99       1.91       0.00       0.82       ----

> <Gold.Chemscore.Fitness>
15.2900

> <Gold.Chemscore.DG>
-16.1094

> <Gold.Chemscore.ZeroCoef>
-5.4800

> <Gold.Chemscore.Hbond>
2.7207

> <Gold.Chemscore.Metal>
0.0000

> <Gold.Chemscore.Lipo>
54.9942

> <Gold.Chemscore.Internal_Hbond>
0.0000

> <Gold.Chemscore.DEClash>
0.0009

> <Gold.Chemscore.DEInternal>
0.8186

> <Gold.Chemscore.Rot>
1.9109

> <Gold.Chemscore.Internal.Correction>
   9.000000E+99

> <Gold.Chemscore.Hbonds>
donor molecule, donor type, donor heavy atom, donor atom, acceptor molecule, acceptor atom, score
      L1  H     5    23       P1  7948  0.18
      L1  H     8    39       P1  7948  0.93
      P1  H  7989  7998       L1    18  0.05

> <Gold.Chemscore.Hbond.Weighted>
-9.0870

> <Gold.Chemscore.Metal.Weighted>
-0.0000

> <Gold.Chemscore.Lipo.Weighted>
-6.4343

> <Gold.Chemscore.Internal_Hbond.Weighted>
0.0000

> <Gold.Chemscore.DEClash.Weighted>
0.0009

> <Gold.Chemscore.DEInternal.Weighted>
0.8186

> <Gold.Chemscore.Rot.Weighted>
4.8919

> <Gold.Chemscore.Internal.Correction.Weighted>
   9.000000E+99

> <Gold.Protein.RotatedTorsions>
[ 6907 6896 6895 6894 ] final -101.70 input  -60.11 | X-H torsion
[ 7974 7965 7964 7962 ] final -105.70 input  175.53 | X-H torsion
[ 8008 7997 7996 7995 ] final   28.70 input   59.86 | X-H torsion
[ 10167 10162 10161 10158 ] final  -16.96 input  -65.29 | X-H torsion
[ 10718 10713 10712 10709 ] final  -40.39 input   66.30 | X-H torsion
[ 10763 10752 10751 10750 ] final  -23.62 input  -60.55 | X-H torsion
[ 11005 11000 10999 10996 ] final  111.22 input  -57.11 | X-H torsion

> <Gold.Protein.ActiveResidues>
 VAL166  LYS551  ARG553  GLY616  TRP617  ASP618  TYR619  PRO620  LYS621  CYS622 
 ASP623  PHE694  ASN695  SER759  ASP760  ASP761  ALA762  ILE779  LEU786  VAL792 
 PHE793  MET794  SER795  GLU796  ALA797  LYS798  CYS799  TRP800  GLU811  SER814 

> <Gold.Protein.RotatedAtoms>
  150.7165  134.0694  159.3858 H   0  0  0  0  0  0  0  0  0  0  0  0  # atno 6907 bound_to 6896
  151.8675  135.0499  160.0485 H   0  0  0  0  0  0  0  0  0  0  0  0  # atno 6908 bound_to 6896
  152.2669  133.5311  159.5452 H   0  0  0  0  0  0  0  0  0  0  0  0  # atno 6909 bound_to 6896
  145.2271  140.9156  143.3226 H   0  0  0  0  0  0  0  0  0  0  0  0  # atno 7974 bound_to 7965
  155.0628  140.3192  155.4655 H   0  0  0  0  0  0  0  0  0  0  0  0  # atno 8008 bound_to 7997
  156.2809  140.2126  156.5700 H   0  0  0  0  0  0  0  0  0  0  0  0  # atno 8009 bound_to 7997
  154.7118  140.0497  157.0545 H   0  0  0  0  0  0  0  0  0  0  0  0  # atno 8010 bound_to 7997
  140.7241  143.5063  150.9806 H   0  0  0  0  0  0  0  0  0  0  0  0  # atno 10167 bound_to 10162
  156.2818  130.4218  149.8329 H   0  0  0  0  0  0  0  0  0  0  0  0  # atno 10718 bound_to 10713
  153.6708  135.6972  153.5148 H   0  0  0  0  0  0  0  0  0  0  0  0  # atno 10763 bound_to 10752
  153.2559  135.4260  155.0845 H   0  0  0  0  0  0  0  0  0  0  0  0  # atno 10764 bound_to 10752
  154.8427  135.3543  154.6252 H   0  0  0  0  0  0  0  0  0  0  0  0  # atno 10765 bound_to 10752
  139.8899  134.9503  156.6399 H   0  0  0  0  0  0  0  0  0  0  0  0  # atno 11005 bound_to 11000
  144.9711  139.3879  143.6308 LP  0  0  0  0  0  0  0  0  0  0  0  0  # atno 17320 bound_to 7965
  146.3362  139.8809  142.8824 LP  0  0  0  0  0  0  0  0  0  0  0  0  # atno 17321 bound_to 7965
  139.8775  143.7114  152.3160 LP  0  0  0  0  0  0  0  0  0  0  0  0  # atno 17342 bound_to 10162
  139.7385  144.7565  151.0690 LP  0  0  0  0  0  0  0  0  0  0  0  0  # atno 17343 bound_to 10162
  156.5773  130.8450  151.3373 LP  0  0  0  0  0  0  0  0  0  0  0  0  # atno 17370 bound_to 10713
  157.7317  130.9703  150.1891 LP  0  0  0  0  0  0  0  0  0  0  0  0  # atno 17371 bound_to 10713
  140.7601  133.8824  155.8412 LP  0  0  0  0  0  0  0  0  0  0  0  0  # atno 17394 bound_to 11000
  140.9929  134.1254  157.4391 LP  0  0  0  0  0  0  0  0  0  0  0  0  # atno 17395 bound_to 11000

$$$$
