AV-unprocessed.smi:686|AV-procd|sdf|3349|dock3
  -GOLD-   22720 0323D 1   1.00000     0.00000
 Structure written by MMmdl.
 40 41  0  0  0  0  0  0  0  0  3 V2000
  151.9052  140.4924  157.0811 C   0  0  0  0  0  0  0  0  0  0  0  0
  151.7560  140.5611  158.6206 C   0  0  2  0  0  0  0  0  0  0  0  0
  151.3606  141.9744  159.0667 C   0  0  0  0  0  0  0  0  0  0  0  0
  152.6358  142.7163  159.2154 N   0  3  1  0  0  0  0  0  0  0  0  0
  152.5962  143.9007  160.1201 C   0  0  0  0  0  0  0  0  0  0  0  0
  152.2125  143.5084  161.5602 C   0  0  0  0  0  0  0  0  0  0  0  0
  151.6078  144.9614  159.5996 C   0  0  0  0  0  0  0  0  0  0  0  0
  153.6971  141.7192  159.5131 C   0  0  0  0  0  0  0  0  0  0  0  0
  153.0417  140.3328  159.4427 C   0  0  2  0  0  0  0  0  0  0  0  0
  153.9381  139.3276  158.8808 N   0  5  0  0  0  0  0  0  0  0  0  0
  154.7349  138.2681  159.8261 S   0  0  0  0  0  0  0  0  0  0  0  0
  155.2680  137.1047  159.0974 O   0  0  0  0  0  0  0  0  0  0  0  0
  155.6701  138.9659  160.7212 O   0  0  0  0  0  0  0  0  0  0  0  0
  153.3889  137.6290  160.9244 C   0  0  0  0  0  0  0  0  0  0  0  0
  153.9791  136.7861  162.0194 C   0  0  0  0  0  0  0  0  0  0  0  0
  153.7939  136.9032  163.4250 C   0  0  0  0  0  0  0  0  0  0  0  0
  154.5529  135.8889  163.9326 C   0  0  0  0  0  0  0  0  0  0  0  0
  155.1502  135.1952  162.9313 O   0  0  0  0  0  0  0  0  0  0  0  0
  154.7753  135.7733  161.7132 N   0  0  0  0  0  0  0  0  0  0  0  0
  152.6627  141.1798  156.7002 H   0  0  0  0  0  0  0  0  0  0  0  0
  150.9638  140.7510  156.5956 H   0  0  0  0  0  0  0  0  0  0  0  0
  152.1631  139.4882  156.7403 H   0  0  0  0  0  0  0  0  0  0  0  0
  150.9856  139.8484  158.9174 H   0  0  0  0  0  0  0  0  0  0  0  0
  150.6980  142.4644  158.3521 H   0  0  0  0  0  0  0  0  0  0  0  0
  150.8310  141.9420  160.0233 H   0  0  0  0  0  0  0  0  0  0  0  0
  153.5942  144.3412  160.1445 H   0  0  0  0  0  0  0  0  0  0  0  0
  152.1382  144.3899  162.1982 H   0  0  0  0  0  0  0  0  0  0  0  0
  152.9524  142.8523  162.0186 H   0  0  0  0  0  0  0  0  0  0  0  0
  151.2486  142.9993  161.5890 H   0  0  0  0  0  0  0  0  0  0  0  0
  151.5665  145.8185  160.2724 H   0  0  0  0  0  0  0  0  0  0  0  0
  150.5984  144.5559  159.5214 H   0  0  0  0  0  0  0  0  0  0  0  0
  151.8888  145.3436  158.6186 H   0  0  0  0  0  0  0  0  0  0  0  0
  154.4876  141.8369  158.7703 H   0  0  0  0  0  0  0  0  0  0  0  0
  154.1445  141.8661  160.4970 H   0  0  0  0  0  0  0  0  0  0  0  0
  152.7383  140.0722  160.4577 H   0  0  0  0  0  0  0  0  0  0  0  0
  152.8520  138.4819  161.3389 H   0  0  0  0  0  0  0  0  0  0  0  0
  152.6855  137.0518  160.3250 H   0  0  0  0  0  0  0  0  0  0  0  0
  153.2038  137.6234  163.9719 H   0  0  0  0  0  0  0  0  0  0  0  0
  154.7586  135.5466  164.9361 H   0  0  0  0  0  0  0  0  0  0  0  0
  152.8502  143.0640  158.2919 H   0  0  0  0  0  0  0  0  0  0  0  0
  1  2  1  0  0  0  0
  1 20  1  0  0  0  0
  1 21  1  0  0  0  0
  1 22  1  0  0  0  0
  2  9  1  0  0  0  0
  2  3  1  0  0  0  0
  2 23  1  0  0  0  0
  3  4  1  0  0  0  0
  3 24  1  0  0  0  0
  3 25  1  0  0  0  0
  4  5  1  0  0  0  0
  4  8  1  0  0  0  0
  4 40  1  0  0  0  0
  5  6  1  0  0  0  0
  5  7  1  0  0  0  0
  5 26  1  0  0  0  0
  6 27  1  0  0  0  0
  6 28  1  0  0  0  0
  6 29  1  0  0  0  0
  7 30  1  0  0  0  0
  7 31  1  0  0  0  0
  7 32  1  0  0  0  0
  8  9  1  0  0  0  0
  8 33  1  0  0  0  0
  8 34  1  0  0  0  0
  9 10  1  0  0  0  0
  9 35  1  0  0  0  0
 10 11  1  0  0  0  0
 11 12  2  0  0  0  0
 11 13  2  0  0  0  0
 11 14  1  0  0  0  0
 14 15  1  0  0  0  0
 14 36  1  0  0  0  0
 14 37  1  0  0  0  0
 15 19  2  0  0  0  0
 15 16  1  0  0  0  0
 16 17  2  0  0  0  0
 16 38  1  0  0  0  0
 17 18  1  0  0  0  0
 17 39  1  0  0  0  0
 18 19  1  0  0  0  0
M  CHG  1   4   1
M  CHG  1  10  -1
M  END
> <s_m_source_file>
AV-unprocessed.smi

> <i_m_source_file_index>
686

> <i_lp_mmshare_version>
43012

> <i_f3d_flags>
0

> <s_epik_input>
W0NIM11bQ0BASF0xW0NIMl1OKFtDSF0oW0NIM10pW0NIM10pW0NIMl1bQ0BIXTFbTkhdUyg9TykoPU8pW0NIMl1jMltjSF1bY0hdb24y

> <s_epik_cmdline>
J2VwaWtfcHl0aG9uJywgJy1waCcsICc3LjAnLCAnLXRuJywgJzgnLCAnLW1hJywgJzIwMCcsICctbWV0YWxfYmluZGluZycsICctaW1hZScsICc8aW5maWxlLm1hZT4nLCAnLW9tYWUnLCAnPG91dGZpbGUubWFlPic=

> <r_epik_Ionization_Penalty>
3.62478

> <r_epik_Ionization_Penalty_Charging>
3.62478

> <r_epik_Ionization_Penalty_Neutral>
2.03645e-10

> <r_epik_State_Penalty>
3.6247

> <r_epik_Charging_Adjusted_Penalty>
7.24949

> <i_epik_Tot_Q>
0

> <i_epik_Tot_abs_Q>
2

> <r_epik_Metal_State_Penalty>
0.530836

> <b_epik_Metal_Only>
1

> <s_lp_Force_Field>
OPLS_2005

> <r_lp_Energy>
21.5589

> <b_lp_Chiralities_Consistent>
1

> <s_lp_Variant>
AV-unprocessed.smi:686-13

> <Gold.Version>
5.8.1

> <Gold.Id.Protein>
6NUR|6NUR_protein|mol2

> <Gold.PLP.Fitness>
41.9878

> <Gold.PLP.PLP>
-36.9065

> <Gold.PLP.part.hbond>
-1.0000

> <Gold.PLP.part.metal>
0.0000

> <Gold.PLP.part.buried>
-5.8413

> <Gold.PLP.part.nonpolar>
-30.1787

> <Gold.PLP.part.repulsive>
0.0605

> <Gold.PLP.ligand.clash>
0.0000

> <Gold.PLP.ligand.torsion>
0.9730

> <Gold.PLP.Chemscore.Hbond>
2.0000

> <Gold.PLP.Chemscore.CHOScore>
0.0000

> <Gold.PLP.Chemscore.Metal>
0.0000

> <Gold.Chemscore.Hbonds>
donor molecule, donor type, donor heavy atom, donor atom, acceptor molecule, acceptor atom, score
      P1  H  7997  8010       L1    10  2.00

> <Gold.PLP.Chemscore.Internal.Correction>
1.0274

> <Gold.Rescore>
     Score         DG    S(hbond)    S(metal)    S(lipo)     H(rot)  DE(clash)    DE(int)     intcor
     15.79     -16.84       0.89        0.00     106.88       1.61       0.06       0.99       ----

> <Gold.Chemscore.Fitness>
15.7881

> <Gold.Chemscore.DG>
-16.8371

> <Gold.Chemscore.ZeroCoef>
-5.4800

> <Gold.Chemscore.Hbond>
0.8940

> <Gold.Chemscore.Metal>
0.0000

> <Gold.Chemscore.Lipo>
106.8807

> <Gold.Chemscore.Internal_Hbond>
0.0000

> <Gold.Chemscore.DEClash>
0.0575

> <Gold.Chemscore.DEInternal>
0.9915

> <Gold.Chemscore.Rot>
1.6149

> <Gold.Chemscore.Internal.Correction>
   9.000000E+99

> <Gold.Chemscore.Hbonds>
donor molecule, donor type, donor heavy atom, donor atom, acceptor molecule, acceptor atom, score
      P1  H  7997  8010       L1    10  0.72

> <Gold.Chemscore.Hbond.Weighted>
-2.9861

> <Gold.Chemscore.Metal.Weighted>
-0.0000

> <Gold.Chemscore.Lipo.Weighted>
-12.5050

> <Gold.Chemscore.Internal_Hbond.Weighted>
0.0000

> <Gold.Chemscore.DEClash.Weighted>
0.0575

> <Gold.Chemscore.DEInternal.Weighted>
0.9915

> <Gold.Chemscore.Rot.Weighted>
4.1341

> <Gold.Chemscore.Internal.Correction.Weighted>
   9.000000E+99

> <Gold.Protein.RotatedTorsions>
[ 6907 6896 6895 6894 ] final -130.28 input  -60.11 | X-H torsion
[ 7974 7965 7964 7962 ] final   63.36 input  175.53 | X-H torsion
[ 8008 7997 7996 7995 ] final   13.60 input   59.86 | X-H torsion
[ 10167 10162 10161 10158 ] final   10.52 input  -65.29 | X-H torsion
[ 10718 10713 10712 10709 ] final   30.92 input   66.30 | X-H torsion
[ 10763 10752 10751 10750 ] final   38.53 input  -60.55 | X-H torsion
[ 11005 11000 10999 10996 ] final -123.96 input  -57.11 | X-H torsion

> <Gold.Protein.ActiveResidues>
 VAL166  LYS551  ARG553  GLY616  TRP617  ASP618  TYR619  PRO620  LYS621  CYS622 
 ASP623  PHE694  ASN695  SER759  ASP760  ASP761  ALA762  ILE779  LEU786  VAL792 
 PHE793  MET794  SER795  GLU796  ALA797  LYS798  CYS799  TRP800  GLU811  SER814 

> <Gold.Protein.RotatedAtoms>
  150.9380  133.6689  159.2796 H   0  0  0  0  0  0  0  0  0  0  0  0  # atno 6907 bound_to 6896
  151.4088  135.0981  159.9588 H   0  0  0  0  0  0  0  0  0  0  0  0  # atno 6908 bound_to 6896
  152.5056  133.8858  159.7424 H   0  0  0  0  0  0  0  0  0  0  0  0  # atno 6909 bound_to 6896
  145.8627  139.3325  143.0809 H   0  0  0  0  0  0  0  0  0  0  0  0  # atno 7974 bound_to 7965
  154.8367  140.2908  155.5686 H   0  0  0  0  0  0  0  0  0  0  0  0  # atno 8008 bound_to 7997
  156.3009  140.2522  156.3233 H   0  0  0  0  0  0  0  0  0  0  0  0  # atno 8009 bound_to 7997
  154.9171  140.0387  157.1967 H   0  0  0  0  0  0  0  0  0  0  0  0  # atno 8010 bound_to 7997
  140.6189  143.8248  150.7151 H   0  0  0  0  0  0  0  0  0  0  0  0  # atno 10167 bound_to 10162
  157.2659  130.7184  149.6478 H   0  0  0  0  0  0  0  0  0  0  0  0  # atno 10718 bound_to 10713
  152.9998  135.6246  154.2320 H   0  0  0  0  0  0  0  0  0  0  0  0  # atno 10763 bound_to 10752
  154.2062  135.2802  155.2976 H   0  0  0  0  0  0  0  0  0  0  0  0  # atno 10764 bound_to 10752
  154.5644  135.5695  153.7095 H   0  0  0  0  0  0  0  0  0  0  0  0  # atno 10765 bound_to 10752
  140.9878  134.0582  157.3690 H   0  0  0  0  0  0  0  0  0  0  0  0  # atno 11005 bound_to 11000
  145.9229  140.9102  143.0395 LP  0  0  0  0  0  0  0  0  0  0  0  0  # atno 17320 bound_to 7965
  144.6726  140.1314  143.7443 LP  0  0  0  0  0  0  0  0  0  0  0  0  # atno 17321 bound_to 7965
  140.1833  143.4096  152.1917 LP  0  0  0  0  0  0  0  0  0  0  0  0  # atno 17342 bound_to 10162
  139.5422  144.7266  151.4698 LP  0  0  0  0  0  0  0  0  0  0  0  0  # atno 17343 bound_to 10162
  155.9663  130.4383  150.5211 LP  0  0  0  0  0  0  0  0  0  0  0  0  # atno 17370 bound_to 10713
  157.3125  131.0666  151.1991 LP  0  0  0  0  0  0  0  0  0  0  0  0  # atno 17371 bound_to 10713
  139.8978  135.0152  156.7120 LP  0  0  0  0  0  0  0  0  0  0  0  0  # atno 17394 bound_to 11000
  140.7087  133.9242  155.8070 LP  0  0  0  0  0  0  0  0  0  0  0  0  # atno 17395 bound_to 11000

$$$$
