AV-unprocessed.smi:1475|AV-procd|sdf|5976|dock4
  -GOLD-   22720 6 63D 1   1.00000     0.00000
 Structure written by MMmdl.
 50 51  0  0  0  0  0  0  0  0  2 V2000
  153.7553  139.5045  160.5138 C   0  0  0  0  0  0  0  0  0  0  0  0
  153.1787  140.6650  159.7583 C   0  0  0  0  0  0  0  0  0  0  0  0
  153.3186  142.0533  160.0367 C   0  0  0  0  0  0  0  0  0  0  0  0
  152.6016  142.6696  159.0505 C   0  0  0  0  0  0  0  0  0  0  0  0
  152.3665  144.1224  158.7978 C   0  0  0  0  0  0  0  0  0  0  0  0
  152.0794  141.6696  158.2492 N   0  0  0  0  0  0  0  0  0  0  0  0
  151.2532  141.7850  157.0581 C   0  0  0  0  0  0  0  0  0  0  0  0
  151.4048  140.5532  156.1647 C   0  0  0  0  0  0  0  0  0  0  0  0
  152.4924  139.9836  156.0784 O   0  0  0  0  0  0  0  0  0  0  0  0
  150.3055  140.1489  155.5089 N   0  0  0  0  0  0  0  0  0  0  0  0
  150.2277  138.9751  154.6475 C   0  0  0  0  0  0  0  0  0  0  0  0
  148.7730  138.5025  154.4525 C   0  0  0  0  0  0  0  0  0  0  0  0
  148.6519  137.0231  154.3998 N   0  3  1  0  0  0  0  0  0  0  0  0
  149.6261  136.3541  155.3008 C   0  0  0  0  0  0  0  0  0  0  0  0
  149.5925  134.8226  155.1334 C   0  0  1  0  0  0  0  0  0  0  0  0
  150.6050  134.1337  156.0595 C   0  0  0  0  0  0  0  0  0  0  0  0
  148.1680  134.2931  155.3676 C   0  0  0  0  0  0  0  0  0  0  0  0
  147.1650  135.0113  154.4502 C   0  0  1  0  0  0  0  0  0  0  0  0
  145.7327  134.5101  154.6838 C   0  0  0  0  0  0  0  0  0  0  0  0
  147.2666  136.5371  154.6405 C   0  0  0  0  0  0  0  0  0  0  0  0
  152.4362  140.4416  158.6863 N   0  0  0  0  0  0  0  0  0  0  0  0
  154.3080  139.8420  161.3907 H   0  0  0  0  0  0  0  0  0  0  0  0
  154.4415  138.9317  159.8898 H   0  0  0  0  0  0  0  0  0  0  0  0
  152.9706  138.8294  160.8566 H   0  0  0  0  0  0  0  0  0  0  0  0
  153.8639  142.5260  160.8402 H   0  0  0  0  0  0  0  0  0  0  0  0
  152.8934  144.7343  159.5300 H   0  0  0  0  0  0  0  0  0  0  0  0
  151.3051  144.3615  158.8634 H   0  0  0  0  0  0  0  0  0  0  0  0
  152.7199  144.4086  157.8072 H   0  0  0  0  0  0  0  0  0  0  0  0
  150.2102  141.9149  157.3517 H   0  0  0  0  0  0  0  0  0  0  0  0
  151.5389  142.6818  156.5074 H   0  0  0  0  0  0  0  0  0  0  0  0
  149.4538  140.6746  155.6472 H   0  0  0  0  0  0  0  0  0  0  0  0
  150.7062  139.2107  153.6967 H   0  0  0  0  0  0  0  0  0  0  0  0
  150.8183  138.1809  155.1049 H   0  0  0  0  0  0  0  0  0  0  0  0
  148.1833  138.8815  155.2885 H   0  0  0  0  0  0  0  0  0  0  0  0
  148.3357  138.9312  153.5497 H   0  0  0  0  0  0  0  0  0  0  0  0
  150.6317  136.7148  155.0798 H   0  0  0  0  0  0  0  0  0  0  0  0
  149.4119  136.6289  156.3352 H   0  0  0  0  0  0  0  0  0  0  0  0
  149.8761  134.5889  154.1059 H   0  0  0  0  0  0  0  0  0  0  0  0
  150.3752  134.3208  157.1089 H   0  0  0  0  0  0  0  0  0  0  0  0
  151.6175  134.4922  155.8716 H   0  0  0  0  0  0  0  0  0  0  0  0
  150.6055  133.0540  155.9069 H   0  0  0  0  0  0  0  0  0  0  0  0
  148.1359  133.2183  155.1847 H   0  0  0  0  0  0  0  0  0  0  0  0
  147.8854  134.4393  156.4113 H   0  0  0  0  0  0  0  0  0  0  0  0
  147.4272  134.7824  153.4160 H   0  0  0  0  0  0  0  0  0  0  0  0
  145.4044  134.7063  155.7050 H   0  0  0  0  0  0  0  0  0  0  0  0
  145.6600  133.4359  154.5118 H   0  0  0  0  0  0  0  0  0  0  0  0
  145.0299  134.9991  154.0086 H   0  0  0  0  0  0  0  0  0  0  0  0
  146.9542  136.8151  155.6486 H   0  0  0  0  0  0  0  0  0  0  0  0
  146.5732  137.0200  153.9535 H   0  0  0  0  0  0  0  0  0  0  0  0
  148.9025  136.7485  153.4606 H   0  0  0  0  0  0  0  0  0  0  0  0
  1  2  1  0  0  0  0
  1 22  1  0  0  0  0
  1 23  1  0  0  0  0
  1 24  1  0  0  0  0
  2 21  2  0  0  0  0
  2  3  1  0  0  0  0
  3  4  2  0  0  0  0
  3 25  1  0  0  0  0
  4  5  1  0  0  0  0
  4  6  1  0  0  0  0
  5 26  1  0  0  0  0
  5 27  1  0  0  0  0
  5 28  1  0  0  0  0
  6  7  1  0  0  0  0
  6 21  1  0  0  0  0
  7  8  1  0  0  0  0
  7 29  1  0  0  0  0
  7 30  1  0  0  0  0
  8  9  2  0  0  0  0
  8 10  1  0  0  0  0
 10 11  1  0  0  0  0
 10 31  1  0  0  0  0
 11 12  1  0  0  0  0
 11 32  1  0  0  0  0
 11 33  1  0  0  0  0
 12 13  1  0  0  0  0
 12 34  1  0  0  0  0
 12 35  1  0  0  0  0
 13 20  1  0  0  0  0
 13 14  1  0  0  0  0
 13 50  1  0  0  0  0
 14 15  1  0  0  0  0
 14 36  1  0  0  0  0
 14 37  1  0  0  0  0
 15 16  1  0  0  0  0
 15 17  1  0  0  0  0
 15 38  1  0  0  0  0
 16 39  1  0  0  0  0
 16 40  1  0  0  0  0
 16 41  1  0  0  0  0
 17 18  1  0  0  0  0
 17 42  1  0  0  0  0
 17 43  1  0  0  0  0
 18 19  1  0  0  0  0
 18 20  1  0  0  0  0
 18 44  1  0  0  0  0
 19 45  1  0  0  0  0
 19 46  1  0  0  0  0
 19 47  1  0  0  0  0
 20 48  1  0  0  0  0
 20 49  1  0  0  0  0
M  CHG  1  13   1
M  END
> <s_m_source_file>
AV-unprocessed.smi

> <i_m_source_file_index>
1475

> <i_lp_mmshare_version>
43012

> <i_f3d_flags>
0

> <s_epik_input>
W0NIM11jMVtjSF1jKFtDSDNdKW4objEpW0NIMl1DKD1PKVtOSF1bQ0gyXVtDSDJdTjJbQ0gyXVtDQEBIXShbQ0gzXSlbQ0gyXVtDQEBIXShbQ0gzXSlbQ0gyXTI=

> <s_epik_cmdline>
J2VwaWtfcHl0aG9uJywgJy1waCcsICc3LjAnLCAnLXRuJywgJzgnLCAnLW1hJywgJzIwMCcsICctbWV0YWxfYmluZGluZycsICctaW1hZScsICc8aW5maWxlLm1hZT4nLCAnLW9tYWUnLCAnPG91dGZpbGUubWFlPic=

> <r_lp_tautomer_probability>
1

> <r_epik_Ionization_Penalty>
0.00206431

> <r_epik_Ionization_Penalty_Charging>
0.00187095

> <r_epik_Ionization_Penalty_Neutral>
0.000193364

> <r_epik_State_Penalty>
-0

> <r_epik_Charging_Adjusted_Penalty>
0.00187095

> <i_epik_Tot_Q>
1

> <i_epik_Tot_abs_Q>
1

> <r_epik_Metal_State_Penalty>
-0

> <b_epik_Metal_Only>
0

> <s_lp_Force_Field>
OPLS_2005

> <r_lp_Energy>
13.7816

> <b_lp_Chiralities_Consistent>
1

> <s_lp_Variant>
AV-unprocessed.smi:1475-1

> <Gold.Version>
5.8.1

> <Gold.Id.Protein>
6NUR|6NUR_protein|mol2

> <Gold.PLP.Fitness>
42.4461

> <Gold.PLP.PLP>
-36.0226

> <Gold.PLP.part.hbond>
-2.0000

> <Gold.PLP.part.metal>
0.0000

> <Gold.PLP.part.buried>
-3.9212

> <Gold.PLP.part.nonpolar>
-29.9754

> <Gold.PLP.part.repulsive>
0.0871

> <Gold.PLP.ligand.clash>
0.0000

> <Gold.PLP.ligand.torsion>
1.3077

> <Gold.PLP.Chemscore.Hbond>
3.0000

> <Gold.PLP.Chemscore.CHOScore>
0.0000

> <Gold.PLP.Chemscore.Metal>
0.0000

> <Gold.Chemscore.Hbonds>
donor molecule, donor type, donor heavy atom, donor atom, acceptor molecule, acceptor atom, score
      L1  H    13    50       P1  7948  2.00
      P1  H  7997  8009       L1     9  0.99

> <Gold.PLP.Chemscore.Internal.Correction>
0.0388

> <Gold.Rescore>
     Score         DG    S(hbond)    S(metal)    S(lipo)     H(rot)  DE(clash)    DE(int)     intcor
     16.30     -18.82       1.98        0.00      93.38       1.64       0.06       2.47       ----

> <Gold.Chemscore.Fitness>
16.2985

> <Gold.Chemscore.DG>
-18.8225

> <Gold.Chemscore.ZeroCoef>
-5.4800

> <Gold.Chemscore.Hbond>
1.9807

> <Gold.Chemscore.Metal>
0.0000

> <Gold.Chemscore.Lipo>
93.3782

> <Gold.Chemscore.Internal_Hbond>
0.0000

> <Gold.Chemscore.DEClash>
0.0562

> <Gold.Chemscore.DEInternal>
2.4678

> <Gold.Chemscore.Rot>
1.6399

> <Gold.Chemscore.Internal.Correction>
   9.000000E+99

> <Gold.Chemscore.Hbonds>
donor molecule, donor type, donor heavy atom, donor atom, acceptor molecule, acceptor atom, score
      L1  H    13    50       P1  7948  1.00
      P1  H  7997  8009       L1     9  0.94

> <Gold.Chemscore.Hbond.Weighted>
-6.6154

> <Gold.Chemscore.Metal.Weighted>
-0.0000

> <Gold.Chemscore.Lipo.Weighted>
-10.9252

> <Gold.Chemscore.Internal_Hbond.Weighted>
0.0000

> <Gold.Chemscore.DEClash.Weighted>
0.0562

> <Gold.Chemscore.DEInternal.Weighted>
2.4678

> <Gold.Chemscore.Rot.Weighted>
4.1982

> <Gold.Chemscore.Internal.Correction.Weighted>
   9.000000E+99

> <Gold.Protein.RotatedTorsions>
[ 6907 6896 6895 6894 ] final   13.66 input  -60.11 | X-H torsion
[ 7974 7965 7964 7962 ] final -100.31 input  175.53 | X-H torsion
[ 8008 7997 7996 7995 ] final -140.99 input   59.86 | X-H torsion
[ 10167 10162 10161 10158 ] final  -33.98 input  -65.29 | X-H torsion
[ 10718 10713 10712 10709 ] final  -46.96 input   66.30 | X-H torsion
[ 10763 10752 10751 10750 ] final  141.96 input  -60.55 | X-H torsion
[ 11005 11000 10999 10996 ] final  -50.24 input  -57.11 | X-H torsion

> <Gold.Protein.ActiveResidues>
 VAL166  LYS551  ARG553  GLY616  TRP617  ASP618  TYR619  PRO620  LYS621  CYS622 
 ASP623  PHE694  ASN695  SER759  ASP760  ASP761  ALA762  ILE779  LEU786  VAL792 
 PHE793  MET794  SER795  GLU796  ALA797  LYS798  CYS799  TRP800  GLU811  SER814 

> <Gold.Protein.RotatedAtoms>
  151.7898  135.0739  160.0385 H   0  0  0  0  0  0  0  0  0  0  0  0  # atno 6907 bound_to 6896
  152.3164  133.5803  159.5723 H   0  0  0  0  0  0  0  0  0  0  0  0  # atno 6908 bound_to 6896
  150.7346  133.9992  159.3674 H   0  0  0  0  0  0  0  0  0  0  0  0  # atno 6909 bound_to 6896
  145.2962  140.9365  143.2849 H   0  0  0  0  0  0  0  0  0  0  0  0  # atno 7974 bound_to 7965
  155.4705  140.0552  157.2980 H   0  0  0  0  0  0  0  0  0  0  0  0  # atno 8008 bound_to 7997
  154.4700  140.2036  155.9972 H   0  0  0  0  0  0  0  0  0  0  0  0  # atno 8009 bound_to 7997
  156.1040  140.3214  155.7985 H   0  0  0  0  0  0  0  0  0  0  0  0  # atno 8010 bound_to 7997
  140.7194  143.3581  151.2018 H   0  0  0  0  0  0  0  0  0  0  0  0  # atno 10167 bound_to 10162
  156.2131  130.4162  149.9089 H   0  0  0  0  0  0  0  0  0  0  0  0  # atno 10718 bound_to 10713
  153.9480  135.2973  155.3440 H   0  0  0  0  0  0  0  0  0  0  0  0  # atno 10763 bound_to 10752
  154.7442  135.5011  153.9178 H   0  0  0  0  0  0  0  0  0  0  0  0  # atno 10764 bound_to 10752
  153.1008  135.6734  153.9783 H   0  0  0  0  0  0  0  0  0  0  0  0  # atno 10765 bound_to 10752
  141.0805  133.6654  156.3702 H   0  0  0  0  0  0  0  0  0  0  0  0  # atno 11005 bound_to 11000
  144.9131  139.4503  143.6577 LP  0  0  0  0  0  0  0  0  0  0  0  0  # atno 17320 bound_to 7965
  146.3168  139.7950  142.8977 LP  0  0  0  0  0  0  0  0  0  0  0  0  # atno 17321 bound_to 7965
  139.7127  143.9350  152.2954 LP  0  0  0  0  0  0  0  0  0  0  0  0  # atno 17342 bound_to 10162
  139.9081  144.6873  150.8592 LP  0  0  0  0  0  0  0  0  0  0  0  0  # atno 17343 bound_to 10162
  156.6760  130.8839  151.3569 LP  0  0  0  0  0  0  0  0  0  0  0  0  # atno 17370 bound_to 10713
  157.7049  130.9374  150.0899 LP  0  0  0  0  0  0  0  0  0  0  0  0  # atno 17371 bound_to 10713
  140.5479  134.6056  157.5399 LP  0  0  0  0  0  0  0  0  0  0  0  0  # atno 17394 bound_to 11000
  139.9618  134.7439  156.0220 LP  0  0  0  0  0  0  0  0  0  0  0  0  # atno 17395 bound_to 11000

$$$$
