AV-unprocessed.smi:91|AV-procd|sdf|835|dock5
  -GOLD-   2262017263D 1   1.00000     0.00000
 Structure written by MMmdl.
 60 63  0  0  0  0  0  0  0  0  1 V2000
  147.2198  134.1137  160.9023 C   0  0  0  0  0  0  0  0  0  0  0  0
  148.1846  134.4284  159.9140 O   0  0  0  0  0  0  0  0  0  0  0  0
  147.7098  134.1975  158.5968 C   0  0  0  0  0  0  0  0  0  0  0  0
  148.8742  134.2569  157.5983 C   0  0  2  0  0  0  0  0  0  0  0  0
  149.5272  135.6481  157.5219 C   0  0  0  0  0  0  0  0  0  0  0  0
  150.5472  135.6642  156.4812 N   0  0  0  0  0  0  0  0  0  0  0  0
  151.3885  136.7284  156.5258 C   0  0  0  0  0  0  0  0  0  0  0  0
  151.8454  137.2845  155.3713 N   0  0  0  0  0  0  0  0  0  0  0  0
  152.6629  138.3409  155.4060 C   0  0  0  0  0  0  0  0  0  0  0  0
  153.1435  138.9893  156.4684 N   0  0  0  0  0  0  0  0  0  0  0  0
  152.6980  138.4304  157.6294 C   0  0  0  0  0  0  0  0  0  0  0  0
  151.8288  137.3094  157.7489 C   0  0  0  0  0  0  0  0  0  0  0  0
  151.6106  137.0232  159.0921 N   0  0  0  0  0  0  0  0  0  0  0  0
  152.3028  137.9282  159.7288 C   0  0  0  0  0  0  0  0  0  0  0  0
  152.9800  138.8180  158.9266 N   0  0  0  0  0  0  0  0  0  0  0  0
  153.8168  139.9224  159.3600 C   0  0  0  0  0  0  0  0  0  0  0  0
  153.2022  140.7267  160.5322 C   0  0  1  0  0  0  0  0  0  0  0  0
  154.2485  141.1064  161.6082 C   0  0  0  0  0  0  0  0  0  0  0  0
  154.9253  139.9663  162.0968 O   0  0  0  0  0  0  0  0  0  0  0  0
  152.4053  141.9534  160.0214 C   0  0  2  0  0  0  0  0  0  0  0  0
  153.1940  142.9140  159.1489 C   0  0  0  0  0  0  0  0  0  0  0  0
  152.3450  144.1788  159.2110 C   0  0  0  0  0  0  0  0  0  0  0  0
  151.7415  144.1746  160.4998 O   0  0  0  0  0  0  0  0  0  0  0  0
  151.9325  142.9084  161.1227 C   0  0  0  0  0  0  0  0  0  0  0  0
  150.0307  135.2513  155.1786 C   0  0  0  0  0  0  0  0  0  0  0  0
  149.3582  133.8621  155.2583 C   0  0  0  0  0  0  0  0  0  0  0  0
  148.5593  133.6009  153.9720 C   0  0  0  0  0  0  0  0  0  0  0  0
  150.3911  132.7312  155.4511 C   0  0  0  0  0  0  0  0  0  0  0  0
  148.3910  133.8606  156.3142 O   0  0  0  0  0  0  0  0  0  0  0  0
  147.6318  134.3096  161.8921 H   0  0  0  0  0  0  0  0  0  0  0  0
  146.9383  133.0608  160.8574 H   0  0  0  0  0  0  0  0  0  0  0  0
  146.3218  134.7218  160.7849 H   0  0  0  0  0  0  0  0  0  0  0  0
  147.2351  133.2161  158.5471 H   0  0  0  0  0  0  0  0  0  0  0  0
  146.9535  134.9378  158.3313 H   0  0  0  0  0  0  0  0  0  0  0  0
  149.6188  133.5345  157.9323 H   0  0  0  0  0  0  0  0  0  0  0  0
  148.7800  136.4065  157.2842 H   0  0  0  0  0  0  0  0  0  0  0  0
  149.9414  135.9081  158.4955 H   0  0  0  0  0  0  0  0  0  0  0  0
  152.9756  138.7219  154.4448 H   0  0  0  0  0  0  0  0  0  0  0  0
  152.3328  137.9774  160.8079 H   0  0  0  0  0  0  0  0  0  0  0  0
  154.7933  139.5268  159.6421 H   0  0  0  0  0  0  0  0  0  0  0  0
  153.9846  140.5666  158.4967 H   0  0  0  0  0  0  0  0  0  0  0  0
  152.4874  140.0665  161.0262 H   0  0  0  0  0  0  0  0  0  0  0  0
  154.9833  141.8043  161.2077 H   0  0  0  0  0  0  0  0  0  0  0  0
  153.7782  141.6205  162.4463 H   0  0  0  0  0  0  0  0  0  0  0  0
  154.7199  139.2327  161.5375 H   0  0  0  0  0  0  0  0  0  0  0  0
  151.5325  141.6151  159.4603 H   0  0  0  0  0  0  0  0  0  0  0  0
  154.1779  143.1024  159.5809 H   0  0  0  0  0  0  0  0  0  0  0  0
  153.3310  142.5575  158.1276 H   0  0  0  0  0  0  0  0  0  0  0  0
  152.9316  145.0828  159.0463 H   0  0  0  0  0  0  0  0  0  0  0  0
  151.5563  144.1446  158.4585 H   0  0  0  0  0  0  0  0  0  0  0  0
  151.0160  142.5685  161.6056 H   0  0  0  0  0  0  0  0  0  0  0  0
  152.6971  143.0201  161.8933 H   0  0  0  0  0  0  0  0  0  0  0  0
  149.3062  135.9947  154.8421 H   0  0  0  0  0  0  0  0  0  0  0  0
  150.8347  135.2306  154.4413 H   0  0  0  0  0  0  0  0  0  0  0  0
  149.2068  133.6052  153.0945 H   0  0  0  0  0  0  0  0  0  0  0  0
  147.7939  134.3631  153.8214 H   0  0  0  0  0  0  0  0  0  0  0  0
  148.0559  132.6344  154.0086 H   0  0  0  0  0  0  0  0  0  0  0  0
  151.0515  132.6555  154.5870 H   0  0  0  0  0  0  0  0  0  0  0  0
  149.8983  131.7663  155.5737 H   0  0  0  0  0  0  0  0  0  0  0  0
  151.0276  132.8905  156.3209 H   0  0  0  0  0  0  0  0  0  0  0  0
  1  2  1  0  0  0  0
  1 30  1  0  0  0  0
  1 31  1  0  0  0  0
  1 32  1  0  0  0  0
  2  3  1  0  0  0  0
  3  4  1  0  0  0  0
  3 33  1  0  0  0  0
  3 34  1  0  0  0  0
  4 29  1  0  0  0  0
  4  5  1  0  0  0  0
  4 35  1  0  0  0  0
  5  6  1  0  0  0  0
  5 36  1  0  0  0  0
  5 37  1  0  0  0  0
  6  7  1  0  0  0  0
  6 25  1  0  0  0  0
  7 12  1  0  0  0  0
  7  8  2  0  0  0  0
  8  9  1  0  0  0  0
  9 10  2  0  0  0  0
  9 38  1  0  0  0  0
 10 11  1  0  0  0  0
 11 15  1  0  0  0  0
 11 12  2  0  0  0  0
 12 13  1  0  0  0  0
 13 14  2  0  0  0  0
 14 15  1  0  0  0  0
 14 39  1  0  0  0  0
 15 16  1  0  0  0  0
 16 17  1  0  0  0  0
 16 40  1  0  0  0  0
 16 41  1  0  0  0  0
 17 18  1  0  0  0  0
 17 20  1  0  0  0  0
 17 42  1  0  0  0  0
 18 19  1  0  0  0  0
 18 43  1  0  0  0  0
 18 44  1  0  0  0  0
 19 45  1  0  0  0  0
 20 24  1  0  0  0  0
 20 21  1  0  0  0  0
 20 46  1  0  0  0  0
 21 22  1  0  0  0  0
 21 47  1  0  0  0  0
 21 48  1  0  0  0  0
 22 23  1  0  0  0  0
 22 49  1  0  0  0  0
 22 50  1  0  0  0  0
 23 24  1  0  0  0  0
 24 51  1  0  0  0  0
 24 52  1  0  0  0  0
 25 26  1  0  0  0  0
 25 53  1  0  0  0  0
 25 54  1  0  0  0  0
 26 27  1  0  0  0  0
 26 28  1  0  0  0  0
 26 29  1  0  0  0  0
 27 55  1  0  0  0  0
 27 56  1  0  0  0  0
 27 57  1  0  0  0  0
 28 58  1  0  0  0  0
 28 59  1  0  0  0  0
 28 60  1  0  0  0  0
M  END
> <s_m_source_file>
AV-unprocessed.smi

> <i_m_source_file_index>
91

> <i_lp_mmshare_version>
43012

> <i_f3d_flags>
0

> <s_epik_input>
W0NIM11PW0NIMl1bQ0BASF0oTzEpW0NIMl1OKFtDSDJdQzEoW0NIM10pW0NIM10pYyhuW2NIXW4yKWMoYzIzKW5bY0hdbjNbQ0gyXVtDQEhdKFtDSDJdW09IXSlbQ0BASF00W0NIMl1bQ0gyXU9bQ0gyXTQ=

> <s_epik_cmdline>
J2VwaWtfcHl0aG9uJywgJy1waCcsICc3LjAnLCAnLXRuJywgJzgnLCAnLW1hJywgJzIwMCcsICctbWV0YWxfYmluZGluZycsICctaW1hZScsICc8aW5maWxlLm1hZT4nLCAnLW9tYWUnLCAnPG91dGZpbGUubWFlPic=

> <r_lp_tautomer_probability>
1

> <r_epik_Ionization_Penalty>
8.63591e-05

> <r_epik_Ionization_Penalty_Charging>
0

> <r_epik_Ionization_Penalty_Neutral>
8.63591e-05

> <r_epik_State_Penalty>
-0

> <r_epik_Charging_Adjusted_Penalty>
0

> <i_epik_Tot_Q>
0

> <i_epik_Tot_abs_Q>
0

> <r_epik_Metal_State_Penalty>
-0

> <b_epik_Metal_Only>
0

> <s_lp_Force_Field>
OPLS_2005

> <r_lp_Energy>
46.4326

> <b_lp_Chiralities_Consistent>
1

> <s_lp_Variant>
AV-unprocessed.smi:91-3

> <Gold.Version>
5.8.1

> <Gold.Id.Protein>
6NUR|6NUR_protein|mol2

> <Gold.PLP.Fitness>
50.3474

> <Gold.PLP.PLP>
-43.6990

> <Gold.PLP.part.hbond>
-2.9743

> <Gold.PLP.part.metal>
0.0000

> <Gold.PLP.part.buried>
-6.1727

> <Gold.PLP.part.nonpolar>
-37.2537

> <Gold.PLP.part.repulsive>
0.1336

> <Gold.PLP.ligand.clash>
0.0000

> <Gold.PLP.ligand.torsion>
1.3162

> <Gold.PLP.Chemscore.Hbond>
2.9111

> <Gold.PLP.Chemscore.CHOScore>
0.0000

> <Gold.PLP.Chemscore.Metal>
0.0000

> <Gold.Chemscore.Hbonds>
donor molecule, donor type, donor heavy atom, donor atom, acceptor molecule, acceptor atom, score
      P1  H  6896  6909       L1    13  0.91
      P1  H  7997  8009       L1    10  1.00
      P1  H 10752 10763       L1     8  0.50

> <Gold.PLP.Chemscore.Internal.Correction>
0.5474

> <Gold.Rescore>
     Score         DG    S(hbond)    S(metal)    S(lipo)     H(rot)  DE(clash)    DE(int)     intcor
     15.53     -18.15       2.23        0.00     111.04       3.03       0.19       2.43       ----

> <Gold.Chemscore.Fitness>
15.5315

> <Gold.Chemscore.DG>
-18.1507

> <Gold.Chemscore.ZeroCoef>
-5.4800

> <Gold.Chemscore.Hbond>
2.2252

> <Gold.Chemscore.Metal>
0.0000

> <Gold.Chemscore.Lipo>
111.0364

> <Gold.Chemscore.Internal_Hbond>
0.0000

> <Gold.Chemscore.DEClash>
0.1883

> <Gold.Chemscore.DEInternal>
2.4308

> <Gold.Chemscore.Rot>
3.0284

> <Gold.Chemscore.Internal.Correction>
   9.000000E+99

> <Gold.Chemscore.Hbonds>
donor molecule, donor type, donor heavy atom, donor atom, acceptor molecule, acceptor atom, score
      P1  H  6896  6909       L1    13  0.81
      P1  H  7997  8009       L1    10  0.98
      P1  H 10752 10763       L1     8  0.04

> <Gold.Chemscore.Hbond.Weighted>
-7.4322

> <Gold.Chemscore.Metal.Weighted>
-0.0000

> <Gold.Chemscore.Lipo.Weighted>
-12.9913

> <Gold.Chemscore.Internal_Hbond.Weighted>
0.0000

> <Gold.Chemscore.DEClash.Weighted>
0.1883

> <Gold.Chemscore.DEInternal.Weighted>
2.4308

> <Gold.Chemscore.Rot.Weighted>
7.7528

> <Gold.Chemscore.Internal.Correction.Weighted>
   9.000000E+99

> <Gold.Protein.RotatedTorsions>
[ 6907 6896 6895 6894 ] final  103.95 input  -60.11 | X-H torsion
[ 7974 7965 7964 7962 ] final   52.25 input  175.53 | X-H torsion
[ 8008 7997 7996 7995 ] final -165.85 input   59.86 | X-H torsion
[ 10167 10162 10161 10158 ] final  -84.20 input  -65.29 | X-H torsion
[ 10718 10713 10712 10709 ] final   17.97 input   66.30 | X-H torsion
[ 10763 10752 10751 10750 ] final   70.46 input  -60.55 | X-H torsion
[ 11005 11000 10999 10996 ] final  172.88 input  -57.11 | X-H torsion

> <Gold.Protein.ActiveResidues>
 VAL166  LYS551  ARG553  GLY616  TRP617  ASP618  TYR619  PRO620  LYS621  CYS622 
 ASP623  PHE694  ASN695  SER759  ASP760  ASP761  ALA762  ILE779  LEU786  VAL792 
 PHE793  MET794  SER795  GLU796  ALA797  LYS798  CYS799  TRP800  GLU811  SER814 

> <Gold.Protein.RotatedAtoms>
  152.5279  133.9749  159.7778 H   0  0  0  0  0  0  0  0  0  0  0  0  # atno 6907 bound_to 6896
  151.0013  133.6045  159.2701 H   0  0  0  0  0  0  0  0  0  0  0  0  # atno 6908 bound_to 6896
  151.3153  135.0811  159.9340 H   0  0  0  0  0  0  0  0  0  0  0  0  # atno 6909 bound_to 6896
  145.9832  139.4263  143.0119 H   0  0  0  0  0  0  0  0  0  0  0  0  # atno 7974 bound_to 7965
  155.8555  140.0970  157.1647 H   0  0  0  0  0  0  0  0  0  0  0  0  # atno 8008 bound_to 7997
  154.3987  140.1375  156.3959 H   0  0  0  0  0  0  0  0  0  0  0  0  # atno 8009 bound_to 7997
  155.7914  140.3455  155.5354 H   0  0  0  0  0  0  0  0  0  0  0  0  # atno 8010 bound_to 7997
  140.4155  143.2605  151.8960 H   0  0  0  0  0  0  0  0  0  0  0  0  # atno 10167 bound_to 10162
  157.0897  130.6422  149.5846 H   0  0  0  0  0  0  0  0  0  0  0  0  # atno 10718 bound_to 10713
  153.0343  135.5173  154.7444 H   0  0  0  0  0  0  0  0  0  0  0  0  # atno 10763 bound_to 10752
  154.6434  135.2915  155.0078 H   0  0  0  0  0  0  0  0  0  0  0  0  # atno 10764 bound_to 10752
  154.0988  135.6639  153.4917 H   0  0  0  0  0  0  0  0  0  0  0  0  # atno 10765 bound_to 10752
  140.3345  134.7329  157.4158 H   0  0  0  0  0  0  0  0  0  0  0  0  # atno 11005 bound_to 11000
  145.7739  140.9885  143.1135 LP  0  0  0  0  0  0  0  0  0  0  0  0  # atno 17320 bound_to 7965
  144.6867  139.9481  143.7477 LP  0  0  0  0  0  0  0  0  0  0  0  0  # atno 17321 bound_to 7965
  139.4782  144.5492  151.8411 LP  0  0  0  0  0  0  0  0  0  0  0  0  # atno 17342 bound_to 10162
  140.4591  144.1747  150.5904 LP  0  0  0  0  0  0  0  0  0  0  0  0  # atno 17343 bound_to 10162
  155.9901  130.4951  150.7244 LP  0  0  0  0  0  0  0  0  0  0  0  0  # atno 17370 bound_to 10713
  157.4732  131.0895  151.0620 LP  0  0  0  0  0  0  0  0  0  0  0  0  # atno 17371 bound_to 10713
  140.0832  134.5702  155.8518 LP  0  0  0  0  0  0  0  0  0  0  0  0  # atno 17394 bound_to 11000
  141.2055  133.6647  156.6183 LP  0  0  0  0  0  0  0  0  0  0  0  0  # atno 17395 bound_to 11000

$$$$
