AV-unprocessed.smi:1944|AV-procd|sdf|7853|dock4
  -GOLD-   2272010 03D 1   1.00000     0.00000
 Structure written by MMmdl.
 46 47  0  0  0  0  0  0  0  0  2 V2000
  151.8305  138.2508  154.1506 C   0  0  0  0  0  0  0  0  0  0  0  0
  150.4476  138.2037  153.8164 O   0  0  0  0  0  0  0  0  0  0  0  0
  149.6537  139.2885  154.1369 C   0  0  0  0  0  0  0  0  0  0  0  0
  150.2373  140.3649  154.7213 N   0  0  0  0  0  0  0  0  0  0  0  0
  149.4648  141.4268  155.0293 C   0  0  0  0  0  0  0  0  0  0  0  0
  148.0834  141.4755  154.7685 C   0  0  0  0  0  0  0  0  0  0  0  0
  147.4754  140.3604  154.1628 C   0  0  0  0  0  0  0  0  0  0  0  0
  148.2702  139.2315  153.8466 C   0  0  0  0  0  0  0  0  0  0  0  0
  147.7656  138.0605  153.2158 N   0  0  0  0  0  0  0  0  0  0  0  0
  146.5075  137.5885  153.2008 C   0  0  0  0  0  0  0  0  0  0  0  0
  145.5456  138.0985  153.7752 O   0  0  0  0  0  0  0  0  0  0  0  0
  146.4223  136.4567  152.4876 N   0  0  0  0  0  0  0  0  0  0  0  0
  145.1960  135.6968  152.2758 C   0  0  0  0  0  0  0  0  0  0  0  0
  145.3601  134.6676  151.1353 C   0  0  0  0  0  0  0  0  0  0  0  0
  145.4198  133.2507  151.5917 N   0  3  2  0  0  0  0  0  0  0  0  0
  146.7550  132.8856  152.1377 C   0  0  0  0  0  0  0  0  0  0  0  0
  146.7153  131.5193  152.8377 C   0  0  0  0  0  0  0  0  0  0  0  0
  146.2148  130.4371  151.8763 C   0  0  0  0  0  0  0  0  0  0  0  0
  144.8509  130.8410  151.3032 C   0  0  0  0  0  0  0  0  0  0  0  0
  144.8985  132.2294  150.6290 C   0  0  1  0  0  0  0  0  0  0  0  0
  143.5031  132.5834  150.0782 C   0  0  0  0  0  0  0  0  0  0  0  0
  152.3110  137.3286  153.8246 H   0  0  0  0  0  0  0  0  0  0  0  0
  151.9785  138.3378  155.2278 H   0  0  0  0  0  0  0  0  0  0  0  0
  152.3339  139.0799  153.6516 H   0  0  0  0  0  0  0  0  0  0  0  0
  149.9642  142.2655  155.4917 H   0  0  0  0  0  0  0  0  0  0  0  0
  147.5040  142.3506  155.0226 H   0  0  0  0  0  0  0  0  0  0  0  0
  146.4206  140.4012  153.9412 H   0  0  0  0  0  0  0  0  0  0  0  0
  148.4623  137.4833  152.7674 H   0  0  0  0  0  0  0  0  0  0  0  0
  147.2618  136.1035  152.0515 H   0  0  0  0  0  0  0  0  0  0  0  0
  144.9102  135.2148  153.2115 H   0  0  0  0  0  0  0  0  0  0  0  0
  144.4059  136.4089  152.0393 H   0  0  0  0  0  0  0  0  0  0  0  0
  144.5310  134.7708  150.4338 H   0  0  0  0  0  0  0  0  0  0  0  0
  146.2507  134.8892  150.5478 H   0  0  0  0  0  0  0  0  0  0  0  0
  147.4928  132.8646  151.3347 H   0  0  0  0  0  0  0  0  0  0  0  0
  147.0830  133.6430  152.8505 H   0  0  0  0  0  0  0  0  0  0  0  0
  147.7078  131.2601  153.2076 H   0  0  0  0  0  0  0  0  0  0  0  0
  146.0620  131.5695  153.7099 H   0  0  0  0  0  0  0  0  0  0  0  0
  146.9317  130.2999  151.0658 H   0  0  0  0  0  0  0  0  0  0  0  0
  146.1386  129.4797  152.3925 H   0  0  0  0  0  0  0  0  0  0  0  0
  144.5233  130.0876  150.5860 H   0  0  0  0  0  0  0  0  0  0  0  0
  144.1093  130.8450  152.1037 H   0  0  0  0  0  0  0  0  0  0  0  0
  145.5891  132.1662  149.7870 H   0  0  0  0  0  0  0  0  0  0  0  0
  143.1182  131.7790  149.4509 H   0  0  0  0  0  0  0  0  0  0  0  0
  143.5205  133.4784  149.4565 H   0  0  0  0  0  0  0  0  0  0  0  0
  142.7859  132.7448  150.8834 H   0  0  0  0  0  0  0  0  0  0  0  0
  144.7927  133.2109  152.3826 H   0  0  0  0  0  0  0  0  0  0  0  0
  1  2  1  0  0  0  0
  1 22  1  0  0  0  0
  1 23  1  0  0  0  0
  1 24  1  0  0  0  0
  2  3  1  0  0  0  0
  3  8  1  0  0  0  0
  3  4  2  0  0  0  0
  4  5  1  0  0  0  0
  5  6  2  0  0  0  0
  5 25  1  0  0  0  0
  6  7  1  0  0  0  0
  6 26  1  0  0  0  0
  7  8  2  0  0  0  0
  7 27  1  0  0  0  0
  8  9  1  0  0  0  0
  9 10  1  0  0  0  0
  9 28  1  0  0  0  0
 10 11  2  0  0  0  0
 10 12  1  0  0  0  0
 12 13  1  0  0  0  0
 12 29  1  0  0  0  0
 13 14  1  0  0  0  0
 13 30  1  0  0  0  0
 13 31  1  0  0  0  0
 14 15  1  0  0  0  0
 14 32  1  0  0  0  0
 14 33  1  0  0  0  0
 15 20  1  0  0  0  0
 15 16  1  0  0  0  0
 15 46  1  0  0  0  0
 16 17  1  0  0  0  0
 16 34  1  0  0  0  0
 16 35  1  0  0  0  0
 17 18  1  0  0  0  0
 17 36  1  0  0  0  0
 17 37  1  0  0  0  0
 18 19  1  0  0  0  0
 18 38  1  0  0  0  0
 18 39  1  0  0  0  0
 19 20  1  0  0  0  0
 19 40  1  0  0  0  0
 19 41  1  0  0  0  0
 20 21  1  0  0  0  0
 20 42  1  0  0  0  0
 21 43  1  0  0  0  0
 21 44  1  0  0  0  0
 21 45  1  0  0  0  0
M  CHG  1  15   1
M  END
> <s_m_source_file>
AV-unprocessed.smi

> <i_m_source_file_index>
1944

> <i_lp_mmshare_version>
43012

> <i_f3d_flags>
0

> <s_epik_input>
W0NIM11PYzFuW2NIXVtjSF1bY0hdYzFbTkhdQyg9TylbTkhdW0NIMl1bQ0gyXU4yW0NIMl1bQ0gyXVtDSDJdW0NIMl1bQ0BIXTJbQ0gzXQ==

> <s_epik_cmdline>
J2VwaWtfcHl0aG9uJywgJy1waCcsICc3LjAnLCAnLXRuJywgJzgnLCAnLW1hJywgJzIwMCcsICctbWV0YWxfYmluZGluZycsICctaW1hZScsICc8aW5maWxlLm1hZT4nLCAnLW9tYWUnLCAnPG91dGZpbGUubWFlPic=

> <r_lp_tautomer_probability>
1

> <r_epik_Ionization_Penalty>
0.00219525

> <r_epik_Ionization_Penalty_Charging>
0.00211816

> <r_epik_Ionization_Penalty_Neutral>
7.7088e-05

> <r_epik_State_Penalty>
0.00145254

> <r_epik_Charging_Adjusted_Penalty>
0.0035707

> <i_epik_Tot_Q>
1

> <i_epik_Tot_abs_Q>
1

> <r_epik_Metal_State_Penalty>
-0

> <b_epik_Metal_Only>
0

> <s_lp_Force_Field>
OPLS_2005

> <r_lp_Energy>
22.1071

> <b_lp_Chiralities_Consistent>
1

> <s_lp_Variant>
AV-unprocessed.smi:1944-1

> <Gold.Version>
5.8.1

> <Gold.Id.Protein>
6NUR|6NUR_protein|mol2

> <Gold.PLP.Fitness>
48.2263

> <Gold.PLP.PLP>
-38.0226

> <Gold.PLP.part.hbond>
-3.1016

> <Gold.PLP.part.metal>
0.0000

> <Gold.PLP.part.buried>
-2.9746

> <Gold.PLP.part.nonpolar>
-33.7741

> <Gold.PLP.part.repulsive>
1.2055

> <Gold.PLP.ligand.clash>
0.0000

> <Gold.PLP.ligand.torsion>
0.8157

> <Gold.PLP.Chemscore.Hbond>
2.9200

> <Gold.PLP.Chemscore.CHOScore>
0.9996

> <Gold.PLP.Chemscore.Metal>
0.0000

> <Gold.Chemscore.Hbonds>
donor molecule, donor type, donor heavy atom, donor atom, acceptor molecule, acceptor atom, score
      L1  H     9    28       P1  7948  1.00
      L1  H    12    29       P1  7948  0.98
      P1  H  7989  7998       L1     4  1.00
      L1  C     5    25       P1  8028  0.53

> <Gold.PLP.Chemscore.Internal.Correction>
0.0762

> <Gold.Rescore>
     Score         DG    S(hbond)    S(metal)    S(lipo)     H(rot)  DE(clash)    DE(int)     intcor
     16.64     -18.62       2.06        0.00      90.89       1.71       0.06       1.92       ----

> <Gold.Chemscore.Fitness>
16.6415

> <Gold.Chemscore.DG>
-18.6175

> <Gold.Chemscore.ZeroCoef>
-5.4800

> <Gold.Chemscore.Hbond>
2.0608

> <Gold.Chemscore.Metal>
0.0000

> <Gold.Chemscore.Lipo>
90.8886

> <Gold.Chemscore.Internal_Hbond>
0.0000

> <Gold.Chemscore.DEClash>
0.0586

> <Gold.Chemscore.DEInternal>
1.9173

> <Gold.Chemscore.Rot>
1.7107

> <Gold.Chemscore.Internal.Correction>
   9.000000E+99

> <Gold.Chemscore.Hbonds>
donor molecule, donor type, donor heavy atom, donor atom, acceptor molecule, acceptor atom, score
      L1  H     9    28       P1  7948  0.97
      L1  H    12    29       P1  7948  0.93
      P1  H  7989  7998       L1     4  0.32

> <Gold.Chemscore.Hbond.Weighted>
-6.8829

> <Gold.Chemscore.Metal.Weighted>
-0.0000

> <Gold.Chemscore.Lipo.Weighted>
-10.6340

> <Gold.Chemscore.Internal_Hbond.Weighted>
0.0000

> <Gold.Chemscore.DEClash.Weighted>
0.0586

> <Gold.Chemscore.DEInternal.Weighted>
1.9173

> <Gold.Chemscore.Rot.Weighted>
4.3794

> <Gold.Chemscore.Internal.Correction.Weighted>
   9.000000E+99

> <Gold.Protein.RotatedTorsions>
[ 6907 6896 6895 6894 ] final   37.18 input  -60.11 | X-H torsion
[ 7974 7965 7964 7962 ] final -158.70 input  175.53 | X-H torsion
[ 8008 7997 7996 7995 ] final  -35.82 input   59.86 | X-H torsion
[ 10167 10162 10161 10158 ] final  127.60 input  -65.29 | X-H torsion
[ 10718 10713 10712 10709 ] final  108.31 input   66.30 | X-H torsion
[ 10763 10752 10751 10750 ] final   41.21 input  -60.55 | X-H torsion
[ 11005 11000 10999 10996 ] final  101.87 input  -57.11 | X-H torsion

> <Gold.Protein.ActiveResidues>
 VAL166  LYS551  ARG553  GLY616  TRP617  ASP618  TYR619  PRO620  LYS621  CYS622 
 ASP623  PHE694  ASN695  SER759  ASP760  ASP761  ALA762  ILE779  LEU786  VAL792 
 PHE793  MET794  SER795  GLU796  ALA797  LYS798  CYS799  TRP800  GLU811  SER814 

> <Gold.Protein.RotatedAtoms>
  152.1397  134.9072  160.0554 H   0  0  0  0  0  0  0  0  0  0  0  0  # atno 6907 bound_to 6896
  152.0145  133.3869  159.4241 H   0  0  0  0  0  0  0  0  0  0  0  0  # atno 6908 bound_to 6896
  150.6864  134.3616  159.4996 H   0  0  0  0  0  0  0  0  0  0  0  0  # atno 6909 bound_to 6896
  144.7495  140.3790  143.6059 H   0  0  0  0  0  0  0  0  0  0  0  0  # atno 7974 bound_to 7965
  154.4087  140.1647  156.2273 H   0  0  0  0  0  0  0  0  0  0  0  0  # atno 8008 bound_to 7997
  155.9312  140.3414  155.6228 H   0  0  0  0  0  0  0  0  0  0  0  0  # atno 8009 bound_to 7997
  155.7104  140.0756  157.2364 H   0  0  0  0  0  0  0  0  0  0  0  0  # atno 8010 bound_to 7997
  139.5570  144.6855  151.4153 H   0  0  0  0  0  0  0  0  0  0  0  0  # atno 10167 bound_to 10162
  157.6591  131.0891  150.6286 H   0  0  0  0  0  0  0  0  0  0  0  0  # atno 10718 bound_to 10713
  152.9914  135.6168  154.2750 H   0  0  0  0  0  0  0  0  0  0  0  0  # atno 10763 bound_to 10752
  154.2482  135.2786  155.2829 H   0  0  0  0  0  0  0  0  0  0  0  0  # atno 10764 bound_to 10752
  154.5311  135.5788  153.6817 H   0  0  0  0  0  0  0  0  0  0  0  0  # atno 10765 bound_to 10752
  139.8775  134.9201  156.4972 H   0  0  0  0  0  0  0  0  0  0  0  0  # atno 11005 bound_to 11000
  145.6997  139.1658  143.2600 LP  0  0  0  0  0  0  0  0  0  0  0  0  # atno 17320 bound_to 7965
  146.1424  140.7039  142.9361 LP  0  0  0  0  0  0  0  0  0  0  0  0  # atno 17321 bound_to 7965
  140.6844  143.8007  150.7166 LP  0  0  0  0  0  0  0  0  0  0  0  0  # atno 17342 bound_to 10162
  140.1470  143.4391  152.2156 LP  0  0  0  0  0  0  0  0  0  0  0  0  # atno 17343 bound_to 10162
  156.6590  130.4507  149.5694 LP  0  0  0  0  0  0  0  0  0  0  0  0  # atno 17370 bound_to 10713
  156.2081  130.6661  151.1240 LP  0  0  0  0  0  0  0  0  0  0  0  0  # atno 17371 bound_to 10713
  140.8616  133.8056  155.9270 LP  0  0  0  0  0  0  0  0  0  0  0  0  # atno 17394 bound_to 11000
  140.9044  134.2338  157.5023 LP  0  0  0  0  0  0  0  0  0  0  0  0  # atno 17395 bound_to 11000

$$$$
