AV-unprocessed.smi:3|AV-procd|sdf|30|dock5
  -GOLD-   2262015143D 1   1.00000     0.00000
 Structure written by MMmdl.
 34 36  0  0  0  0  0  0  0  0  2 V2000
  152.0218  140.5220  157.8704 C   0  0  0  0  0  0  0  0  0  0  0  0
  151.1720  141.4153  157.0956 N   0  0  0  0  0  0  0  0  0  0  0  0
  151.2892  142.8536  157.3477 C   0  0  0  0  0  0  0  0  0  0  0  0
  151.0527  143.2086  158.8154 C   0  0  1  0  0  0  0  0  0  0  0  0
  152.1147  142.8773  159.8754 C   0  0  0  0  0  0  0  0  0  0  0  0
  151.8103  144.2094  160.5669 C   0  0  2  0  0  0  0  0  0  0  0  0
  150.9813  144.1659  161.7082 O   0  0  0  0  0  0  0  0  0  0  0  0
  151.1660  144.6745  159.2572 C   0  0  0  0  0  0  0  0  0  0  0  0
  150.4891  140.9275  155.9533 C   0  0  0  0  0  0  0  0  0  0  0  0
  149.5395  141.7322  155.3989 N   0  0  0  0  0  0  0  0  0  0  0  0
  148.8259  141.3893  154.3189 C   0  0  0  0  0  0  0  0  0  0  0  0
  148.9838  140.2207  153.6942 N   0  3  0  0  0  0  0  0  0  0  0  0
  149.9121  139.3765  154.2082 C   0  0  0  0  0  0  0  0  0  0  0  0
  150.2612  138.1215  153.7565 N   0  0  0  0  0  0  0  0  0  0  0  0
  151.2498  137.5883  154.5620 C   0  0  0  0  0  0  0  0  0  0  0  0
  151.5560  138.4912  155.5485 C   0  0  0  0  0  0  0  0  0  0  0  0
  150.7169  139.6510  155.3476 C   0  0  0  0  0  0  0  0  0  0  0  0
  150.0868  142.8334  159.1595 H   0  0  0  0  0  0  0  0  0  0  0  0
  152.7143  144.7723  160.8023 H   0  0  0  0  0  0  0  0  0  0  0  0
  149.8723  137.6351  152.9609 H   0  0  0  0  0  0  0  0  0  0  0  0
  151.4214  139.7644  158.3737 H   0  0  0  0  0  0  0  0  0  0  0  0
  152.5666  141.0707  158.6396 H   0  0  0  0  0  0  0  0  0  0  0  0
  152.7588  140.0355  157.2309 H   0  0  0  0  0  0  0  0  0  0  0  0
  152.2450  143.2467  157.0016 H   0  0  0  0  0  0  0  0  0  0  0  0
  150.5455  143.3579  156.7298 H   0  0  0  0  0  0  0  0  0  0  0  0
  151.8918  141.9884  160.4666 H   0  0  0  0  0  0  0  0  0  0  0  0
  153.1287  142.8452  159.4744 H   0  0  0  0  0  0  0  0  0  0  0  0
  150.5296  144.9947  161.7545 H   0  0  0  0  0  0  0  0  0  0  0  0
  151.8515  145.2553  158.6379 H   0  0  0  0  0  0  0  0  0  0  0  0
  150.2074  145.1819  159.3722 H   0  0  0  0  0  0  0  0  0  0  0  0
  148.0855  142.0641  153.9148 H   0  0  0  0  0  0  0  0  0  0  0  0
  151.6568  136.6060  154.3687 H   0  0  0  0  0  0  0  0  0  0  0  0
  152.2917  138.3488  156.3249 H   0  0  0  0  0  0  0  0  0  0  0  0
  148.4356  139.9669  152.8725 H   0  0  0  0  0  0  0  0  0  0  0  0
  1  2  1  0  0  0  0
  1 21  1  0  0  0  0
  1 22  1  0  0  0  0
  1 23  1  0  0  0  0
  2  3  1  0  0  0  0
  2  9  1  0  0  0  0
  3  4  1  0  0  0  0
  3 24  1  0  0  0  0
  3 25  1  0  0  0  0
  4 18  1  0  0  0  0
  4  8  1  0  0  0  0
  4  5  1  0  0  0  0
  5  6  1  0  0  0  0
  5 26  1  0  0  0  0
  5 27  1  0  0  0  0
  6 19  1  0  0  0  0
  6  7  1  0  0  0  0
  6  8  1  0  0  0  0
  7 28  1  0  0  0  0
  8 29  1  0  0  0  0
  8 30  1  0  0  0  0
  9 17  1  0  0  0  0
  9 10  2  0  0  0  0
 10 11  1  0  0  0  0
 11 12  2  0  0  0  0
 11 31  1  0  0  0  0
 12 13  1  0  0  0  0
 12 34  1  0  0  0  0
 13 17  2  0  0  0  0
 13 14  1  0  0  0  0
 14 20  1  0  0  0  0
 14 15  1  0  0  0  0
 15 16  2  0  0  0  0
 15 32  1  0  0  0  0
 16 17  1  0  0  0  0
 16 33  1  0  0  0  0
M  CHG  1  12   1
M  END
> <s_m_source_file>
AV-unprocessed.smi

> <i_m_source_file_index>
3

> <i_lp_mmshare_version>
43012

> <i_f3d_flags>
0

> <s_epik_input>
W25IXTFbY0hdW2NIXWMoYzEyKWMobltjSF1uMilOKFtDSDNdKVtDSDJdW0NASF0zW0NIMl1bQ0BASF0oW09IXSlbQ0gyXTM=

> <s_epik_cmdline>
J2VwaWtfcHl0aG9uJywgJy1waCcsICc3LjAnLCAnLXRuJywgJzgnLCAnLW1hJywgJzIwMCcsICctbWV0YWxfYmluZGluZycsICctaW1hZScsICc8aW5maWxlLm1hZT4nLCAnLW9tYWUnLCAnPG91dGZpbGUubWFlPic=

> <r_lp_tautomer_probability>
1.75997e-05

> <r_epik_Ionization_Penalty>
2.28439

> <r_epik_Ionization_Penalty_Charging>
2.28438

> <r_epik_Ionization_Penalty_Neutral>
1.03791e-05

> <r_epik_State_Penalty>
2.43392

> <r_epik_Charging_Adjusted_Penalty>
4.7183

> <i_epik_Tot_Q>
1

> <i_epik_Tot_abs_Q>
1

> <r_epik_Metal_State_Penalty>
2.4464

> <b_epik_Metal_Only>
0

> <s_lp_Force_Field>
OPLS_2005

> <r_lp_Energy>
18.3307

> <b_lp_Chiralities_Consistent>
1

> <s_lp_Variant>
AV-unprocessed.smi:3-4

> <Gold.Version>
5.8.1

> <Gold.Id.Protein>
6NUR|6NUR_protein|mol2

> <Gold.PLP.Fitness>
48.8254

> <Gold.PLP.PLP>
-42.9143

> <Gold.PLP.part.hbond>
-5.3544

> <Gold.PLP.part.metal>
0.0000

> <Gold.PLP.part.buried>
-4.9509

> <Gold.PLP.part.nonpolar>
-33.3125

> <Gold.PLP.part.repulsive>
0.6879

> <Gold.PLP.ligand.clash>
0.0000

> <Gold.PLP.ligand.torsion>
0.3210

> <Gold.PLP.Chemscore.Hbond>
2.1201

> <Gold.PLP.Chemscore.CHOScore>
0.0000

> <Gold.PLP.Chemscore.Metal>
0.0000

> <Gold.Chemscore.Hbonds>
donor molecule, donor type, donor heavy atom, donor atom, acceptor molecule, acceptor atom, score
      L1  H    12    34       P1  7957  0.20
      L1  H    14    20       P1  7948  2.00

> <Gold.PLP.Chemscore.Internal.Correction>
0.1928

> <Gold.Rescore>
     Score         DG    S(hbond)    S(metal)    S(lipo)     H(rot)  DE(clash)    DE(int)     intcor
     13.41     -13.74       0.98        0.00      83.45       1.86       0.11       0.22       ----

> <Gold.Chemscore.Fitness>
13.4065

> <Gold.Chemscore.DG>
-13.7371

> <Gold.Chemscore.ZeroCoef>
-5.4800

> <Gold.Chemscore.Hbond>
0.9779

> <Gold.Chemscore.Metal>
0.0000

> <Gold.Chemscore.Lipo>
83.4537

> <Gold.Chemscore.Internal_Hbond>
0.0000

> <Gold.Chemscore.DEClash>
0.1084

> <Gold.Chemscore.DEInternal>
0.2223

> <Gold.Chemscore.Rot>
1.8645

> <Gold.Chemscore.Internal.Correction>
   9.000000E+99

> <Gold.Chemscore.Hbonds>
donor molecule, donor type, donor heavy atom, donor atom, acceptor molecule, acceptor atom, score
      L1  H    12    34       P1  7957  0.19
      L1  H    14    20       P1  7948  0.34

> <Gold.Chemscore.Hbond.Weighted>
-3.2660

> <Gold.Chemscore.Metal.Weighted>
-0.0000

> <Gold.Chemscore.Lipo.Weighted>
-9.7641

> <Gold.Chemscore.Internal_Hbond.Weighted>
0.0000

> <Gold.Chemscore.DEClash.Weighted>
0.1084

> <Gold.Chemscore.DEInternal.Weighted>
0.2223

> <Gold.Chemscore.Rot.Weighted>
4.7730

> <Gold.Chemscore.Internal.Correction.Weighted>
   9.000000E+99

> <Gold.Protein.RotatedTorsions>
[ 6907 6896 6895 6894 ] final  -78.62 input  -60.11 | X-H torsion
[ 7974 7965 7964 7962 ] final -120.09 input  175.53 | X-H torsion
[ 8008 7997 7996 7995 ] final -113.99 input   59.86 | X-H torsion
[ 10167 10162 10161 10158 ] final -154.86 input  -65.29 | X-H torsion
[ 10718 10713 10712 10709 ] final   11.81 input   66.30 | X-H torsion
[ 10763 10752 10751 10750 ] final -114.11 input  -60.55 | X-H torsion
[ 11005 11000 10999 10996 ] final   85.92 input  -57.11 | X-H torsion

> <Gold.Protein.ActiveResidues>
 VAL166  LYS551  ARG553  GLY616  TRP617  ASP618  TYR619  PRO620  LYS621  CYS622 
 ASP623  PHE694  ASN695  SER759  ASP760  ASP761  ALA762  ILE779  LEU786  VAL792 
 PHE793  MET794  SER795  GLU796  ALA797  LYS798  CYS799  TRP800  GLU811  SER814 

> <Gold.Protein.RotatedAtoms>
  150.6968  134.4244  159.5219 H   0  0  0  0  0  0  0  0  0  0  0  0  # atno 6907 bound_to 6896
  152.1981  134.8609  160.0520 H   0  0  0  0  0  0  0  0  0  0  0  0  # atno 6908 bound_to 6896
  151.9539  133.3639  159.4047 H   0  0  0  0  0  0  0  0  0  0  0  0  # atno 6909 bound_to 6896
  145.0552  140.8249  143.4185 H   0  0  0  0  0  0  0  0  0  0  0  0  # atno 7974 bound_to 7965
  155.0293  140.0393  157.2468 H   0  0  0  0  0  0  0  0  0  0  0  0  # atno 8008 bound_to 7997
  154.7310  140.2730  155.6432 H   0  0  0  0  0  0  0  0  0  0  0  0  # atno 8009 bound_to 7997
  156.2841  140.2684  156.2010 H   0  0  0  0  0  0  0  0  0  0  0  0  # atno 8010 bound_to 7997
  139.6979  143.9312  152.2415 H   0  0  0  0  0  0  0  0  0  0  0  0  # atno 10167 bound_to 10162
  157.0010  130.6079  149.5696 H   0  0  0  0  0  0  0  0  0  0  0  0  # atno 10718 bound_to 10713
  154.8426  135.4430  154.1454 H   0  0  0  0  0  0  0  0  0  0  0  0  # atno 10763 bound_to 10752
  153.2628  135.6938  153.7566 H   0  0  0  0  0  0  0  0  0  0  0  0  # atno 10764 bound_to 10752
  153.6836  135.3399  155.3160 H   0  0  0  0  0  0  0  0  0  0  0  0  # atno 10765 bound_to 10752
  139.8958  134.8320  156.2649 H   0  0  0  0  0  0  0  0  0  0  0  0  # atno 11005 bound_to 11000
  145.1477  139.2533  143.5457 LP  0  0  0  0  0  0  0  0  0  0  0  0  # atno 17320 bound_to 7965
  146.3521  140.1171  142.8601 LP  0  0  0  0  0  0  0  0  0  0  0  0  # atno 17321 bound_to 7965
  139.9146  144.6836  150.8526 LP  0  0  0  0  0  0  0  0  0  0  0  0  # atno 17342 bound_to 10162
  140.7701  143.3418  151.2191 LP  0  0  0  0  0  0  0  0  0  0  0  0  # atno 17343 bound_to 10162
  156.0171  130.5265  150.8167 LP  0  0  0  0  0  0  0  0  0  0  0  0  # atno 17370 bound_to 10713
  157.5390  131.0940  150.9853 LP  0  0  0  0  0  0  0  0  0  0  0  0  # atno 17371 bound_to 10713
  141.0138  133.7080  156.1156 LP  0  0  0  0  0  0  0  0  0  0  0  0  # atno 17394 bound_to 11000
  140.7329  134.4234  157.5564 LP  0  0  0  0  0  0  0  0  0  0  0  0  # atno 17395 bound_to 11000

$$$$
