AV-unprocessed.smi:496|AV-procd|sdf|2722|dock4
  -GOLD-   2262023163D 1   1.00000     0.00000
 Structure written by MMmdl.
 42 44  0  0  0  0  0  0  0  0  3 V2000
  152.3732  138.7041  155.0781 C   0  0  0  0  0  0  0  0  0  0  0  0
  152.9208  139.4057  156.1834 O   0  0  0  0  0  0  0  0  0  0  0  0
  152.5492  138.8725  157.4461 C   0  0  0  0  0  0  0  0  0  0  0  0
  151.1272  139.3000  157.8479 C   0  0  0  0  0  0  0  0  0  0  0  0
  150.9285  140.7528  157.6807 N   0  0  0  0  0  0  0  0  0  0  0  0
  150.0916  141.4697  156.8626 C   0  0  0  0  0  0  0  0  0  0  0  0
  149.0908  140.9547  155.8586 C   0  0  2  0  0  0  0  0  0  0  0  0
  149.8131  140.2836  154.6827 C   0  0  0  0  0  0  0  0  0  0  0  0
  148.2312  142.0239  155.3480 N   0  5  0  0  0  0  0  0  0  0  0  0
  147.2984  141.8504  154.3684 C   0  0  0  0  0  0  0  0  0  0  0  0
  147.2485  141.0016  153.4714 O   0  0  0  0  0  0  0  0  0  0  0  0
  146.2047  142.8472  154.4484 C   0  0  0  0  0  0  0  0  0  0  0  0
  145.6203  143.5938  153.4597 C   0  0  0  0  0  0  0  0  0  0  0  0
  144.6193  144.3904  154.0814 C   0  0  0  0  0  0  0  0  0  0  0  0
  144.6606  144.0756  155.4089 C   0  0  0  0  0  0  0  0  0  0  0  0
  145.6176  143.1395  155.6501 O   0  0  0  0  0  0  0  0  0  0  0  0
  150.3235  142.7897  157.1191 N   0  3  0  0  0  0  0  0  0  0  0  0
  151.2885  142.9245  158.1151 C   0  0  0  0  0  0  0  0  0  0  0  0
  151.8322  144.0596  158.7079 C   0  0  0  0  0  0  0  0  0  0  0  0
  152.7991  143.8471  159.7121 C   0  0  0  0  0  0  0  0  0  0  0  0
  153.1886  142.5462  160.0915 C   0  0  0  0  0  0  0  0  0  0  0  0
  152.6308  141.4036  159.4811 C   0  0  0  0  0  0  0  0  0  0  0  0
  151.6774  141.6218  158.4859 C   0  0  0  0  0  0  0  0  0  0  0  0
  152.7492  139.1387  154.1521 H   0  0  0  0  0  0  0  0  0  0  0  0
  151.2857  138.7674  155.0536 H   0  0  0  0  0  0  0  0  0  0  0  0
  152.6621  137.6526  155.0948 H   0  0  0  0  0  0  0  0  0  0  0  0
  152.6534  137.7862  157.4554 H   0  0  0  0  0  0  0  0  0  0  0  0
  153.2587  139.2552  158.1802 H   0  0  0  0  0  0  0  0  0  0  0  0
  150.3799  138.7677  157.2600 H   0  0  0  0  0  0  0  0  0  0  0  0
  150.9182  139.0483  158.8869 H   0  0  0  0  0  0  0  0  0  0  0  0
  148.4962  140.1853  156.3531 H   0  0  0  0  0  0  0  0  0  0  0  0
  150.4323  139.4555  155.0288 H   0  0  0  0  0  0  0  0  0  0  0  0
  150.4600  140.9856  154.1552 H   0  0  0  0  0  0  0  0  0  0  0  0
  149.1013  139.8801  153.9616 H   0  0  0  0  0  0  0  0  0  0  0  0
  145.8833  143.5686  152.4124 H   0  0  0  0  0  0  0  0  0  0  0  0
  143.9538  145.1024  153.6160 H   0  0  0  0  0  0  0  0  0  0  0  0
  144.1088  144.4054  156.2768 H   0  0  0  0  0  0  0  0  0  0  0  0
  151.5300  145.0562  158.4211 H   0  0  0  0  0  0  0  0  0  0  0  0
  153.2474  144.6983  160.2035 H   0  0  0  0  0  0  0  0  0  0  0  0
  153.9294  142.4216  160.8679 H   0  0  0  0  0  0  0  0  0  0  0  0
  152.9337  140.4125  159.7845 H   0  0  0  0  0  0  0  0  0  0  0  0
  149.8271  143.5370  156.6507 H   0  0  0  0  0  0  0  0  0  0  0  0
  1  2  1  0  0  0  0
  1 24  1  0  0  0  0
  1 25  1  0  0  0  0
  1 26  1  0  0  0  0
  2  3  1  0  0  0  0
  3  4  1  0  0  0  0
  3 27  1  0  0  0  0
  3 28  1  0  0  0  0
  4  5  1  0  0  0  0
  4 29  1  0  0  0  0
  4 30  1  0  0  0  0
  5 23  1  0  0  0  0
  5  6  1  0  0  0  0
  6  7  1  0  0  0  0
  6 17  2  0  0  0  0
  7  8  1  0  0  0  0
  7  9  1  0  0  0  0
  7 31  1  0  0  0  0
  8 32  1  0  0  0  0
  8 33  1  0  0  0  0
  8 34  1  0  0  0  0
  9 10  1  0  0  0  0
 10 11  2  0  0  0  0
 10 12  1  0  0  0  0
 12 16  1  0  0  0  0
 12 13  2  0  0  0  0
 13 14  1  0  0  0  0
 13 35  1  0  0  0  0
 14 15  2  0  0  0  0
 14 36  1  0  0  0  0
 15 16  1  0  0  0  0
 15 37  1  0  0  0  0
 17 18  1  0  0  0  0
 17 42  1  0  0  0  0
 18 23  2  0  0  0  0
 18 19  1  0  0  0  0
 19 20  2  0  0  0  0
 19 38  1  0  0  0  0
 20 21  1  0  0  0  0
 20 39  1  0  0  0  0
 21 22  2  0  0  0  0
 21 40  1  0  0  0  0
 22 23  1  0  0  0  0
 22 41  1  0  0  0  0
M  CHG  1   9  -1
M  CHG  1  17   1
M  END
> <s_m_source_file>
AV-unprocessed.smi

> <i_m_source_file_index>
496

> <i_lp_mmshare_version>
43012

> <i_f3d_flags>
0

> <s_epik_input>
W2NIXTFbY0hdW2NIXVtjSF1jKGMxMiluKFtDSDJdW0NIMl1PW0NIM10pYyhuMilbQ0BIXShbQ0gzXSlbTkhdQyg9TyljM1tjSF1bY0hdW2NIXW8z

> <s_epik_cmdline>
J2VwaWtfcHl0aG9uJywgJy1waCcsICc3LjAnLCAnLXRuJywgJzgnLCAnLW1hJywgJzIwMCcsICctbWV0YWxfYmluZGluZycsICctaW1hZScsICc8aW5maWxlLm1hZT4nLCAnLW9tYWUnLCAnPG91dGZpbGUubWFlPic=

> <r_epik_Ionization_Penalty>
6.2189

> <r_epik_Ionization_Penalty_Charging>
6.2189

> <r_epik_Ionization_Penalty_Neutral>
2.56052e-12

> <r_epik_State_Penalty>
7.14475

> <r_epik_Charging_Adjusted_Penalty>
13.3636

> <i_epik_Tot_Q>
0

> <i_epik_Tot_abs_Q>
2

> <r_epik_Metal_State_Penalty>
3.17915

> <b_epik_Metal_Only>
1

> <s_lp_Force_Field>
OPLS_2005

> <r_lp_Energy>
11.1611

> <b_lp_Chiralities_Consistent>
1

> <s_lp_Variant>
AV-unprocessed.smi:496-7

> <Gold.Version>
5.8.1

> <Gold.Id.Protein>
6NUR|6NUR_protein|mol2

> <Gold.PLP.Fitness>
54.9172

> <Gold.PLP.PLP>
-48.2967

> <Gold.PLP.part.hbond>
-2.0000

> <Gold.PLP.part.metal>
0.0000

> <Gold.PLP.part.buried>
-8.4921

> <Gold.PLP.part.nonpolar>
-41.5358

> <Gold.PLP.part.repulsive>
2.7780

> <Gold.PLP.ligand.clash>
0.0000

> <Gold.PLP.ligand.torsion>
1.2245

> <Gold.PLP.Chemscore.Hbond>
3.0000

> <Gold.PLP.Chemscore.CHOScore>
0.0000

> <Gold.PLP.Chemscore.Metal>
0.0000

> <Gold.Chemscore.Hbonds>
donor molecule, donor type, donor heavy atom, donor atom, acceptor molecule, acceptor atom, score
      L1  H    17    42       P1  8028  2.00
      P1  H  7997  8008       L1     2  1.00

> <Gold.PLP.Chemscore.Internal.Correction>
0.0695

> <Gold.Rescore>
     Score         DG    S(hbond)    S(metal)    S(lipo)     H(rot)  DE(clash)    DE(int)     intcor
     18.40     -21.21       1.95        0.00     118.92       1.83       0.84       1.96       ----

> <Gold.Chemscore.Fitness>
18.4026

> <Gold.Chemscore.DG>
-21.2054

> <Gold.Chemscore.ZeroCoef>
-5.4800

> <Gold.Chemscore.Hbond>
1.9482

> <Gold.Chemscore.Metal>
0.0000

> <Gold.Chemscore.Lipo>
118.9232

> <Gold.Chemscore.Internal_Hbond>
0.0000

> <Gold.Chemscore.DEClash>
0.8418

> <Gold.Chemscore.DEInternal>
1.9610

> <Gold.Chemscore.Rot>
1.8343

> <Gold.Chemscore.Internal.Correction>
   9.000000E+99

> <Gold.Chemscore.Hbonds>
donor molecule, donor type, donor heavy atom, donor atom, acceptor molecule, acceptor atom, score
      L1  H    17    42       P1  8028  1.00
      P1  H  7997  8008       L1     2  0.81

> <Gold.Chemscore.Hbond.Weighted>
-6.5071

> <Gold.Chemscore.Metal.Weighted>
-0.0000

> <Gold.Chemscore.Lipo.Weighted>
-13.9140

> <Gold.Chemscore.Internal_Hbond.Weighted>
0.0000

> <Gold.Chemscore.DEClash.Weighted>
0.8418

> <Gold.Chemscore.DEInternal.Weighted>
1.9610

> <Gold.Chemscore.Rot.Weighted>
4.6958

> <Gold.Chemscore.Internal.Correction.Weighted>
   9.000000E+99

> <Gold.Protein.RotatedTorsions>
[ 6907 6896 6895 6894 ] final    2.90 input  -60.11 | X-H torsion
[ 7974 7965 7964 7962 ] final  -10.87 input  175.53 | X-H torsion
[ 8008 7997 7996 7995 ] final  -36.86 input   59.86 | X-H torsion
[ 10167 10162 10161 10158 ] final -169.46 input  -65.29 | X-H torsion
[ 10718 10713 10712 10709 ] final -142.43 input   66.30 | X-H torsion
[ 10763 10752 10751 10750 ] final  153.43 input  -60.55 | X-H torsion
[ 11005 11000 10999 10996 ] final  102.11 input  -57.11 | X-H torsion

> <Gold.Protein.ActiveResidues>
 VAL166  LYS551  ARG553  GLY616  TRP617  ASP618  TYR619  PRO620  LYS621  CYS622 
 ASP623  PHE694  ASN695  SER759  ASP760  ASP761  ALA762  ILE779  LEU786  VAL792 
 PHE793  MET794  SER795  GLU796  ALA797  LYS798  CYS799  TRP800  GLU811  SER814 

> <Gold.Protein.RotatedAtoms>
  151.6164  135.1036  160.0092 H   0  0  0  0  0  0  0  0  0  0  0  0  # atno 6907 bound_to 6896
  152.4181  133.7067  159.6466 H   0  0  0  0  0  0  0  0  0  0  0  0  # atno 6908 bound_to 6896
  150.8069  133.8420  159.3223 H   0  0  0  0  0  0  0  0  0  0  0  0  # atno 6909 bound_to 6896
  146.2206  140.2828  142.8363 H   0  0  0  0  0  0  0  0  0  0  0  0  # atno 7974 bound_to 7965
  154.4064  140.1619  156.2443 H   0  0  0  0  0  0  0  0  0  0  0  0  # atno 8008 bound_to 7997
  155.9174  140.3423  155.6123 H   0  0  0  0  0  0  0  0  0  0  0  0  # atno 8009 bound_to 7997
  155.7263  140.0774  157.2299 H   0  0  0  0  0  0  0  0  0  0  0  0  # atno 8010 bound_to 7997
  139.5922  144.1190  152.1647 H   0  0  0  0  0  0  0  0  0  0  0  0  # atno 10167 bound_to 10162
  156.3459  130.7662  151.1806 H   0  0  0  0  0  0  0  0  0  0  0  0  # atno 10718 bound_to 10713
  154.1361  135.2823  155.3173 H   0  0  0  0  0  0  0  0  0  0  0  0  # atno 10763 bound_to 10752
  154.6321  135.5431  153.7695 H   0  0  0  0  0  0  0  0  0  0  0  0  # atno 10764 bound_to 10752
  153.0266  135.6465  154.1509 H   0  0  0  0  0  0  0  0  0  0  0  0  # atno 10765 bound_to 10752
  139.8776  134.9210  156.5008 H   0  0  0  0  0  0  0  0  0  0  0  0  # atno 11005 bound_to 11000
  144.9184  140.7840  143.5763 LP  0  0  0  0  0  0  0  0  0  0  0  0  # atno 17320 bound_to 7965
  145.2763  139.1935  143.4815 LP  0  0  0  0  0  0  0  0  0  0  0  0  # atno 17321 bound_to 7965
  140.0766  144.5735  150.7152 LP  0  0  0  0  0  0  0  0  0  0  0  0  # atno 17342 bound_to 10162
  140.7182  143.2564  151.4365 LP  0  0  0  0  0  0  0  0  0  0  0  0  # atno 17343 bound_to 10162
  157.7454  131.0441  150.4778 LP  0  0  0  0  0  0  0  0  0  0  0  0  # atno 17370 bound_to 10713
  156.4965  130.4107  149.6377 LP  0  0  0  0  0  0  0  0  0  0  0  0  # atno 17371 bound_to 10713
  140.8591  133.8073  155.9246 LP  0  0  0  0  0  0  0  0  0  0  0  0  # atno 17394 bound_to 11000
  140.9067  134.2311  157.5010 LP  0  0  0  0  0  0  0  0  0  0  0  0  # atno 17395 bound_to 11000

$$$$
