AV-unprocessed.smi:481|AV-procd|sdf|2680|dock9
  -GOLD-   2262023103D 1   1.00000     0.00000
 Structure written by MMmdl.
 43 45  0  0  0  0  0  0  0  0  1 V2000
  154.0552  136.6485  163.1880 C   0  0  0  0  0  0  0  0  0  0  0  0
  154.3604  137.2289  164.4440 O   0  0  0  0  0  0  0  0  0  0  0  0
  155.7546  137.3857  164.6443 C   0  0  0  0  0  0  0  0  0  0  0  0
  156.2375  138.5993  163.8413 C   0  0  0  0  0  0  0  0  0  0  0  0
  155.6379  139.8374  164.3264 N   0  0  0  0  0  0  0  0  0  0  0  0
  155.0368  140.8117  163.5974 C   0  0  0  0  0  0  0  0  0  0  0  0
  154.9512  140.6878  162.2111 N   0  0  0  0  0  0  0  0  0  0  0  0
  154.3702  141.6248  161.4827 N   0  0  0  0  0  0  0  0  0  0  0  0
  153.9802  141.2691  160.3114 C   0  0  0  0  0  0  0  0  0  0  0  0
  153.3194  142.2009  159.3849 C   0  0  0  0  0  0  0  0  0  0  0  0
  152.6459  141.7501  158.2244 C   0  0  0  0  0  0  0  0  0  0  0  0
  152.0239  142.6711  157.3590 C   0  0  0  0  0  0  0  0  0  0  0  0
  152.0686  144.0487  157.6442 C   0  0  0  0  0  0  0  0  0  0  0  0
  152.7362  144.5052  158.7961 C   0  0  0  0  0  0  0  0  0  0  0  0
  153.3586  143.5851  159.6624 C   0  0  0  0  0  0  0  0  0  0  0  0
  154.5719  141.8409  164.3161 N   0  0  0  0  0  0  0  0  0  0  0  0
  154.9165  141.4905  165.6135 C   0  0  0  0  0  0  0  0  0  0  0  0
  155.5631  140.2980  165.6400 C   0  0  0  0  0  0  0  0  0  0  0  0
  156.0575  139.6965  166.8838 C   0  0  0  0  0  0  0  0  0  0  0  0
  156.6624  138.6272  166.9251 O   0  0  0  0  0  0  0  0  0  0  0  0
  155.7819  140.4451  167.9797 N   0  0  0  0  0  0  0  0  0  0  0  0
  155.1294  141.6477  168.0248 C   0  0  0  0  0  0  0  0  0  0  0  0
  154.9530  142.2047  169.1080 O   0  0  0  0  0  0  0  0  0  0  0  0
  154.6966  142.1828  166.8364 N   0  0  0  0  0  0  0  0  0  0  0  0
  153.9980  143.4681  166.7727 C   0  0  0  0  0  0  0  0  0  0  0  0
  156.0963  140.0746  168.8647 H   0  0  0  0  0  0  0  0  0  0  0  0
  152.9749  136.5481  163.0832 H   0  0  0  0  0  0  0  0  0  0  0  0
  154.4960  135.6552  163.0940 H   0  0  0  0  0  0  0  0  0  0  0  0
  154.4159  137.2708  162.3681 H   0  0  0  0  0  0  0  0  0  0  0  0
  155.9670  137.5261  165.7053 H   0  0  0  0  0  0  0  0  0  0  0  0
  156.2818  136.4875  164.3175 H   0  0  0  0  0  0  0  0  0  0  0  0
  157.3237  138.6780  163.8964 H   0  0  0  0  0  0  0  0  0  0  0  0
  156.0057  138.4783  162.7838 H   0  0  0  0  0  0  0  0  0  0  0  0
  155.3512  139.8694  161.7752 H   0  0  0  0  0  0  0  0  0  0  0  0
  154.1348  140.2430  159.9709 H   0  0  0  0  0  0  0  0  0  0  0  0
  152.5984  140.6976  157.9847 H   0  0  0  0  0  0  0  0  0  0  0  0
  151.5123  142.3194  156.4752 H   0  0  0  0  0  0  0  0  0  0  0  0
  151.5916  144.7545  156.9800 H   0  0  0  0  0  0  0  0  0  0  0  0
  152.7718  145.5621  159.0159 H   0  0  0  0  0  0  0  0  0  0  0  0
  153.8671  143.9524  160.5426 H   0  0  0  0  0  0  0  0  0  0  0  0
  153.8488  143.9418  167.7434 H   0  0  0  0  0  0  0  0  0  0  0  0
  153.0149  143.3348  166.3202 H   0  0  0  0  0  0  0  0  0  0  0  0
  154.5605  144.1659  166.1516 H   0  0  0  0  0  0  0  0  0  0  0  0
  1  2  1  0  0  0  0
  1 27  1  0  0  0  0
  1 28  1  0  0  0  0
  1 29  1  0  0  0  0
  2  3  1  0  0  0  0
  3  4  1  0  0  0  0
  3 30  1  0  0  0  0
  3 31  1  0  0  0  0
  4  5  1  0  0  0  0
  4 32  1  0  0  0  0
  4 33  1  0  0  0  0
  5 18  1  0  0  0  0
  5  6  1  0  0  0  0
  6  7  1  0  0  0  0
  6 16  2  0  0  0  0
  7  8  1  0  0  0  0
  7 34  1  0  0  0  0
  8  9  2  0  0  0  0
  9 10  1  0  0  0  0
  9 35  1  0  0  0  0
 10 15  1  0  0  0  0
 10 11  2  0  0  0  0
 11 12  1  0  0  0  0
 11 36  1  0  0  0  0
 12 13  2  0  0  0  0
 12 37  1  0  0  0  0
 13 14  1  0  0  0  0
 13 38  1  0  0  0  0
 14 15  2  0  0  0  0
 14 39  1  0  0  0  0
 15 40  1  0  0  0  0
 16 17  1  0  0  0  0
 17 24  1  0  0  0  0
 17 18  2  0  0  0  0
 18 19  1  0  0  0  0
 19 20  2  0  0  0  0
 19 21  1  0  0  0  0
 21 26  1  0  0  0  0
 21 22  1  0  0  0  0
 22 23  2  0  0  0  0
 22 24  1  0  0  0  0
 24 25  1  0  0  0  0
 25 41  1  0  0  0  0
 25 42  1  0  0  0  0
 25 43  1  0  0  0  0
M  END
> <s_m_source_file>
AV-unprocessed.smi

> <i_m_source_file_index>
481

> <i_lp_mmshare_version>
43012

> <i_f3d_flags>
0

> <s_epik_input>
W0NIM11uMWMoPU8pW25IXWMoPU8pYyhjMTIpbihbQ0gyXVtDSDJdT1tDSDNdKWMobjIpW05IXS9OPVtDSF0vYzNbY0hdW2NIXVtjSF1bY0hdW2NIXTM=

> <s_epik_cmdline>
J2VwaWtfcHl0aG9uJywgJy1waCcsICc3LjAnLCAnLXRuJywgJzgnLCAnLW1hJywgJzIwMCcsICctbWV0YWxfYmluZGluZycsICctaW1hZScsICc8aW5maWxlLm1hZT4nLCAnLW9tYWUnLCAnPG91dGZpbGUubWFlPic=

> <r_epik_Ionization_Penalty>
0.000595515

> <r_epik_Ionization_Penalty_Charging>
0.000305988

> <r_epik_Ionization_Penalty_Neutral>
0.000289528

> <r_epik_State_Penalty>
0.000184189

> <r_epik_Charging_Adjusted_Penalty>
0.000490177

> <i_epik_Tot_Q>
0

> <i_epik_Tot_abs_Q>
0

> <r_epik_Metal_State_Penalty>
0.173754

> <b_epik_Metal_Only>
0

> <s_epik_Chemistry_Notes>
This compound has an imine and may undergo hydrolysis.

> <s_lp_Force_Field>
OPLS_2005

> <r_lp_Energy>
32.4826

> <b_lp_Chiralities_Consistent>
1

> <s_lp_Variant>
AV-unprocessed.smi:481-1

> <Gold.Version>
5.8.1

> <Gold.Id.Protein>
6NUR|6NUR_protein|mol2

> <Gold.PLP.Fitness>
48.5851

> <Gold.PLP.PLP>
-49.1137

> <Gold.PLP.part.hbond>
-3.2292

> <Gold.PLP.part.metal>
0.0000

> <Gold.PLP.part.buried>
-4.7470

> <Gold.PLP.part.nonpolar>
-40.5896

> <Gold.PLP.part.repulsive>
0.2616

> <Gold.PLP.ligand.clash>
0.0000

> <Gold.PLP.ligand.torsion>
0.2684

> <Gold.PLP.Chemscore.Hbond>
0.0000

> <Gold.PLP.Chemscore.CHOScore>
0.0000

> <Gold.PLP.Chemscore.Metal>
0.0000

> <Gold.PLP.Chemscore.Internal.Correction>
0.0082

> <Gold.Rescore>
     Score         DG    S(hbond)    S(metal)    S(lipo)     H(rot)  DE(clash)    DE(int)     intcor
     12.90     -14.71       0.00        0.00     112.58       1.54       0.13       1.68       ----

> <Gold.Chemscore.Fitness>
12.8995

> <Gold.Chemscore.DG>
-14.7081

> <Gold.Chemscore.ZeroCoef>
-5.4800

> <Gold.Chemscore.Hbond>
0.0000

> <Gold.Chemscore.Metal>
0.0000

> <Gold.Chemscore.Lipo>
112.5815

> <Gold.Chemscore.Internal_Hbond>
0.0000

> <Gold.Chemscore.DEClash>
0.1326

> <Gold.Chemscore.DEInternal>
1.6760

> <Gold.Chemscore.Rot>
1.5406

> <Gold.Chemscore.Internal.Correction>
   9.000000E+99

> <Gold.Chemscore.Hbond.Weighted>
-0.0000

> <Gold.Chemscore.Metal.Weighted>
-0.0000

> <Gold.Chemscore.Lipo.Weighted>
-13.1720

> <Gold.Chemscore.Internal_Hbond.Weighted>
0.0000

> <Gold.Chemscore.DEClash.Weighted>
0.1326

> <Gold.Chemscore.DEInternal.Weighted>
1.6760

> <Gold.Chemscore.Rot.Weighted>
3.9440

> <Gold.Chemscore.Internal.Correction.Weighted>
   9.000000E+99

> <Gold.Protein.RotatedTorsions>
[ 6907 6896 6895 6894 ] final   45.56 input  -60.11 | X-H torsion
[ 7974 7965 7964 7962 ] final  -55.66 input  175.53 | X-H torsion
[ 8008 7997 7996 7995 ] final    2.49 input   59.86 | X-H torsion
[ 10167 10162 10161 10158 ] final   99.53 input  -65.29 | X-H torsion
[ 10718 10713 10712 10709 ] final   14.60 input   66.30 | X-H torsion
[ 10763 10752 10751 10750 ] final -143.72 input  -60.55 | X-H torsion
[ 11005 11000 10999 10996 ] final -123.86 input  -57.11 | X-H torsion

> <Gold.Protein.ActiveResidues>
 VAL166  LYS551  ARG553  GLY616  TRP617  ASP618  TYR619  PRO620  LYS621  CYS622 
 ASP623  PHE694  ASN695  SER759  ASP760  ASP761  ALA762  ILE779  LEU786  VAL792 
 PHE793  MET794  SER795  GLU796  ALA797  LYS798  CYS799  TRP800  GLU811  SER814 

> <Gold.Protein.RotatedAtoms>
  152.2460  134.8181  160.0453 H   0  0  0  0  0  0  0  0  0  0  0  0  # atno 6907 bound_to 6896
  151.8878  133.3504  159.3796 H   0  0  0  0  0  0  0  0  0  0  0  0  # atno 6908 bound_to 6896
  150.7068  134.4880  159.5546 H   0  0  0  0  0  0  0  0  0  0  0  0  # atno 6909 bound_to 6896
  145.8716  140.8212  142.9885 H   0  0  0  0  0  0  0  0  0  0  0  0  # atno 7974 bound_to 7965
  154.6922  140.2655  155.6801 H   0  0  0  0  0  0  0  0  0  0  0  0  # atno 8008 bound_to 7997
  156.2736  140.2789  156.1428 H   0  0  0  0  0  0  0  0  0  0  0  0  # atno 8009 bound_to 7997
  155.0880  140.0373  157.2650 H   0  0  0  0  0  0  0  0  0  0  0  0  # atno 8010 bound_to 7997
  139.7609  144.6955  151.0294 H   0  0  0  0  0  0  0  0  0  0  0  0  # atno 10167 bound_to 10162
  157.0414  130.6233  149.5751 H   0  0  0  0  0  0  0  0  0  0  0  0  # atno 10718 bound_to 10713
  154.8458  135.3460  154.6232 H   0  0  0  0  0  0  0  0  0  0  0  0  # atno 10763 bound_to 10752
  153.6841  135.6978  153.5114 H   0  0  0  0  0  0  0  0  0  0  0  0  # atno 10764 bound_to 10752
  153.2645  135.4312  155.0883 H   0  0  0  0  0  0  0  0  0  0  0  0  # atno 10765 bound_to 10752
  140.9886  134.0571  157.3681 H   0  0  0  0  0  0  0  0  0  0  0  0  # atno 11005 bound_to 11000
  144.6726  140.1247  143.7447 LP  0  0  0  0  0  0  0  0  0  0  0  0  # atno 17320 bound_to 7965
  145.9130  139.2499  143.1426 LP  0  0  0  0  0  0  0  0  0  0  0  0  # atno 17321 bound_to 7965
  140.7807  143.4699  151.0161 LP  0  0  0  0  0  0  0  0  0  0  0  0  # atno 17342 bound_to 10162
  139.8385  143.7596  152.3180 LP  0  0  0  0  0  0  0  0  0  0  0  0  # atno 17343 bound_to 10162
  156.0037  130.5120  150.7754 LP  0  0  0  0  0  0  0  0  0  0  0  0  # atno 17370 bound_to 10713
  157.5101  131.0925  151.0208 LP  0  0  0  0  0  0  0  0  0  0  0  0  # atno 17371 bound_to 10713
  139.8982  135.0153  156.7136 LP  0  0  0  0  0  0  0  0  0  0  0  0  # atno 17394 bound_to 11000
  140.7075  133.9252  155.8063 LP  0  0  0  0  0  0  0  0  0  0  0  0  # atno 17395 bound_to 11000

$$$$
