AV-unprocessed.smi:3047|AV-procd|sdf|11623|dock3
  -GOLD-   2272017 13D 1   1.00000     0.00000
 Structure written by MMmdl.
 37 38  0  0  0  0  0  0  0  0  1 V2000
  153.0854  131.1615  155.8143 C   0  0  0  0  0  0  0  0  0  0  0  0
  151.4303  131.6970  156.4091 S   0  0  0  0  0  0  0  0  0  0  0  0
  151.3356  131.3874  157.8440 O   0  0  0  0  0  0  0  0  0  0  0  0
  151.1636  133.0633  155.9341 O   0  0  0  0  0  0  0  0  0  0  0  0
  150.3582  130.6268  155.5729 N   0  0  0  0  0  0  0  0  0  0  0  0
  150.4711  129.1808  155.8095 C   0  0  0  0  0  0  0  0  0  0  0  0
  149.8967  128.5124  154.5628 C   0  0  0  0  0  0  0  0  0  0  0  0
  150.1985  129.5198  153.4615 C   0  0  0  0  0  0  0  0  0  0  0  0
  150.0630  130.8864  154.1549 C   0  0  1  0  0  0  0  0  0  0  0  0
  148.6876  131.5375  153.9521 C   0  0  0  0  0  0  0  0  0  0  0  0
  147.9214  131.6970  154.9032 O   0  0  0  0  0  0  0  0  0  0  0  0
  148.3941  131.9262  152.7017 N   0  0  0  0  0  0  0  0  0  0  0  0
  147.1620  132.5934  152.3001 C   0  0  0  0  0  0  0  0  0  0  0  0
  146.0624  131.5848  151.9286 C   0  0  0  0  0  0  0  0  0  0  0  0
  145.3572  131.9890  150.7294 N   0  0  0  0  0  0  0  0  0  0  0  0
  144.0774  132.5222  150.6526 C   0  0  0  0  0  0  0  0  0  0  0  0
  143.8286  132.7551  149.3189 C   0  0  0  0  0  0  0  0  0  0  0  0
  144.9348  132.3745  148.5621 N   0  0  0  0  0  0  0  0  0  0  0  0
  145.7992  131.9309  149.4656 C   0  0  0  0  0  0  0  0  0  0  0  0
  153.8554  131.7560  156.3052 H   0  0  0  0  0  0  0  0  0  0  0  0
  153.1536  131.3035  154.7361 H   0  0  0  0  0  0  0  0  0  0  0  0
  153.2342  130.1085  156.0529 H   0  0  0  0  0  0  0  0  0  0  0  0
  151.5216  128.9120  155.9270 H   0  0  0  0  0  0  0  0  0  0  0  0
  149.9406  128.8929  156.7173 H   0  0  0  0  0  0  0  0  0  0  0  0
  150.3319  127.5316  154.3701 H   0  0  0  0  0  0  0  0  0  0  0  0
  148.8184  128.3873  154.6703 H   0  0  0  0  0  0  0  0  0  0  0  0
  151.2235  129.3880  153.1122 H   0  0  0  0  0  0  0  0  0  0  0  0
  149.5440  129.3966  152.5973 H   0  0  0  0  0  0  0  0  0  0  0  0
  150.8221  131.5544  153.7436 H   0  0  0  0  0  0  0  0  0  0  0  0
  149.0855  131.7701  151.9821 H   0  0  0  0  0  0  0  0  0  0  0  0
  146.8227  133.2560  153.0984 H   0  0  0  0  0  0  0  0  0  0  0  0
  147.3871  133.2304  151.4443 H   0  0  0  0  0  0  0  0  0  0  0  0
  146.4900  130.5943  151.7672 H   0  0  0  0  0  0  0  0  0  0  0  0
  145.3346  131.4895  152.7356 H   0  0  0  0  0  0  0  0  0  0  0  0
  143.4676  132.6882  151.5287 H   0  0  0  0  0  0  0  0  0  0  0  0
  142.9462  133.1643  148.8492 H   0  0  0  0  0  0  0  0  0  0  0  0
  146.7771  131.5557  149.2012 H   0  0  0  0  0  0  0  0  0  0  0  0
  1  2  1  0  0  0  0
  1 20  1  0  0  0  0
  1 21  1  0  0  0  0
  1 22  1  0  0  0  0
  2  3  2  0  0  0  0
  2  4  2  0  0  0  0
  2  5  1  0  0  0  0
  5  9  1  0  0  0  0
  5  6  1  0  0  0  0
  6  7  1  0  0  0  0
  6 23  1  0  0  0  0
  6 24  1  0  0  0  0
  7  8  1  0  0  0  0
  7 25  1  0  0  0  0
  7 26  1  0  0  0  0
  8  9  1  0  0  0  0
  8 27  1  0  0  0  0
  8 28  1  0  0  0  0
  9 10  1  0  0  0  0
  9 29  1  0  0  0  0
 10 11  2  0  0  0  0
 10 12  1  0  0  0  0
 12 13  1  0  0  0  0
 12 30  1  0  0  0  0
 13 14  1  0  0  0  0
 13 31  1  0  0  0  0
 13 32  1  0  0  0  0
 14 15  1  0  0  0  0
 14 33  1  0  0  0  0
 14 34  1  0  0  0  0
 15 19  1  0  0  0  0
 15 16  1  0  0  0  0
 16 17  2  0  0  0  0
 16 35  1  0  0  0  0
 17 18  1  0  0  0  0
 17 36  1  0  0  0  0
 18 19  2  0  0  0  0
 19 37  1  0  0  0  0
M  END
> <s_m_source_file>
AV-unprocessed.smi

> <i_m_source_file_index>
3047

> <i_lp_mmshare_version>
43012

> <i_f3d_flags>
0

> <s_epik_input>
W0NIM11TKD1PKSg9TylOMVtDSDJdW0NIMl1bQ0gyXVtDQEhdMUMoPU8pW05IXVtDSDJdW0NIMl1uMltjSF1bY0hdbltjSF0y

> <s_epik_cmdline>
J2VwaWtfcHl0aG9uJywgJy1waCcsICc3LjAnLCAnLXRuJywgJzgnLCAnLW1hJywgJzIwMCcsICctbWV0YWxfYmluZGluZycsICctaW1hZScsICc8aW5maWxlLm1hZT4nLCAnLW9tYWUnLCAnPG91dGZpbGUubWFlPic=

> <r_lp_tautomer_probability>
1

> <r_epik_Ionization_Penalty>
0.575721

> <r_epik_Ionization_Penalty_Charging>
0.575721

> <r_epik_Ionization_Penalty_Neutral>
1.33078e-07

> <r_epik_State_Penalty>
0.588056

> <r_epik_Charging_Adjusted_Penalty>
1.16378

> <i_epik_Tot_Q>
0

> <i_epik_Tot_abs_Q>
0

> <r_epik_Metal_State_Penalty>
0.294357

> <b_epik_Metal_Only>
0

> <s_lp_Force_Field>
OPLS_2005

> <r_lp_Energy>
8.50144

> <b_lp_Chiralities_Consistent>
1

> <s_lp_Variant>
AV-unprocessed.smi:3047-3

> <Gold.Version>
5.8.1

> <Gold.Id.Protein>
6NUR|6NUR_protein|mol2

> <Gold.PLP.Fitness>
42.1083

> <Gold.PLP.PLP>
-32.4080

> <Gold.PLP.part.hbond>
-3.5354

> <Gold.PLP.part.metal>
0.0000

> <Gold.PLP.part.buried>
-5.9817

> <Gold.PLP.part.nonpolar>
-24.1463

> <Gold.PLP.part.repulsive>
0.9548

> <Gold.PLP.ligand.clash>
0.0000

> <Gold.PLP.ligand.torsion>
1.1078

> <Gold.PLP.Chemscore.Hbond>
1.7840

> <Gold.PLP.Chemscore.CHOScore>
1.9946

> <Gold.PLP.Chemscore.Metal>
0.0000

> <Gold.Chemscore.Hbonds>
donor molecule, donor type, donor heavy atom, donor atom, acceptor molecule, acceptor atom, score
      L1  H    12    30       P1 10747  0.66
      L1  C    17    36       P1 10186  1.00
      L1  C    19    37       P1 10747  1.00

> <Gold.PLP.Chemscore.Internal.Correction>
0.5800

> <Gold.Rescore>
     Score         DG    S(hbond)    S(metal)    S(lipo)     H(rot)  DE(clash)    DE(int)     intcor
     11.22     -12.39       1.87        0.00      57.93       2.39       0.02       1.16       ----

> <Gold.Chemscore.Fitness>
11.2175

> <Gold.Chemscore.DG>
-12.3921

> <Gold.Chemscore.ZeroCoef>
-5.4800

> <Gold.Chemscore.Hbond>
1.8689

> <Gold.Chemscore.Metal>
0.0000

> <Gold.Chemscore.Lipo>
57.9269

> <Gold.Chemscore.Internal_Hbond>
0.0000

> <Gold.Chemscore.DEClash>
0.0165

> <Gold.Chemscore.DEInternal>
1.1582

> <Gold.Chemscore.Rot>
2.3857

> <Gold.Chemscore.Internal.Correction>
   9.000000E+99

> <Gold.Chemscore.Hbonds>
donor molecule, donor type, donor heavy atom, donor atom, acceptor molecule, acceptor atom, score
      L1  H    12    30       P1 10747  0.46
      P1  H  6896  6909       L1     3  0.04

> <Gold.Chemscore.Hbond.Weighted>
-6.2421

> <Gold.Chemscore.Metal.Weighted>
-0.0000

> <Gold.Chemscore.Lipo.Weighted>
-6.7774

> <Gold.Chemscore.Internal_Hbond.Weighted>
0.0000

> <Gold.Chemscore.DEClash.Weighted>
0.0165

> <Gold.Chemscore.DEInternal.Weighted>
1.1582

> <Gold.Chemscore.Rot.Weighted>
6.1074

> <Gold.Chemscore.Internal.Correction.Weighted>
   9.000000E+99

> <Gold.Protein.RotatedTorsions>
[ 6907 6896 6895 6894 ] final  -30.87 input  -60.11 | X-H torsion
[ 7974 7965 7964 7962 ] final   79.82 input  175.53 | X-H torsion
[ 8008 7997 7996 7995 ] final  -40.71 input   59.86 | X-H torsion
[ 10167 10162 10161 10158 ] final   94.04 input  -65.29 | X-H torsion
[ 10718 10713 10712 10709 ] final -102.48 input   66.30 | X-H torsion
[ 10763 10752 10751 10750 ] final   88.05 input  -60.55 | X-H torsion
[ 11005 11000 10999 10996 ] final -130.71 input  -57.11 | X-H torsion

> <Gold.Protein.ActiveResidues>
 VAL166  LYS551  ARG553  GLY616  TRP617  ASP618  TYR619  PRO620  LYS621  CYS622 
 ASP623  PHE694  ASN695  SER759  ASP760  ASP761  ALA762  ILE779  LEU786  VAL792 
 PHE793  MET794  SER795  GLU796  ALA797  LYS798  CYS799  TRP800  GLU811  SER814 

> <Gold.Protein.RotatedAtoms>
  151.0997  134.9965  159.8442 H   0  0  0  0  0  0  0  0  0  0  0  0  # atno 6907 bound_to 6896
  152.5436  134.1966  159.8705 H   0  0  0  0  0  0  0  0  0  0  0  0  # atno 6908 bound_to 6896
  151.2008  133.4568  159.2629 H   0  0  0  0  0  0  0  0  0  0  0  0  # atno 6909 bound_to 6896
  145.6592  139.2467  143.1932 H   0  0  0  0  0  0  0  0  0  0  0  0  # atno 7974 bound_to 7965
  154.4010  140.1518  156.3071 H   0  0  0  0  0  0  0  0  0  0  0  0  # atno 8008 bound_to 7997
  155.8649  140.3451  155.5760 H   0  0  0  0  0  0  0  0  0  0  0  0  # atno 8009 bound_to 7997
  155.7839  140.0847  157.2035 H   0  0  0  0  0  0  0  0  0  0  0  0  # atno 8010 bound_to 7997
  139.8121  144.6768  150.9626 H   0  0  0  0  0  0  0  0  0  0  0  0  # atno 10167 bound_to 10162
  156.0230  130.5422  150.7114 H   0  0  0  0  0  0  0  0  0  0  0  0  # atno 10718 bound_to 10713
  153.1730  135.4521  154.9927 H   0  0  0  0  0  0  0  0  0  0  0  0  # atno 10763 bound_to 10752
  154.7979  135.3244  154.7625 H   0  0  0  0  0  0  0  0  0  0  0  0  # atno 10764 bound_to 10752
  153.8099  135.6955  153.4897 H   0  0  0  0  0  0  0  0  0  0  0  0  # atno 10765 bound_to 10752
  140.9322  134.1304  157.4224 H   0  0  0  0  0  0  0  0  0  0  0  0  # atno 11005 bound_to 11000
  146.1140  140.7393  142.9490 LP  0  0  0  0  0  0  0  0  0  0  0  0  # atno 17320 bound_to 7965
  144.7095  140.3984  143.7092 LP  0  0  0  0  0  0  0  0  0  0  0  0  # atno 17321 bound_to 7965
  140.7817  143.4174  151.0895 LP  0  0  0  0  0  0  0  0  0  0  0  0  # atno 17342 bound_to 10162
  139.7840  143.8314  152.3142 LP  0  0  0  0  0  0  0  0  0  0  0  0  # atno 17343 bound_to 10162
  157.4751  131.0897  151.0599 LP  0  0  0  0  0  0  0  0  0  0  0  0  # atno 17370 bound_to 10713
  157.1048  130.5997  149.5468 LP  0  0  0  0  0  0  0  0  0  0  0  0  # atno 17371 bound_to 10713
  139.8799  135.0009  156.6036 LP  0  0  0  0  0  0  0  0  0  0  0  0  # atno 17394 bound_to 11000
  140.7847  133.8631  155.8596 LP  0  0  0  0  0  0  0  0  0  0  0  0  # atno 17395 bound_to 11000

$$$$
