AV-unprocessed.smi:1586|AV-procd|sdf|6378|dock5
  -GOLD-   22720 7 13D 1   1.00000     0.00000
 Structure written by MMmdl.
 46 47  0  0  0  0  0  0  0  0  1 V2000
  152.5355  143.8468  159.1227 C   0  0  0  0  0  0  0  0  0  0  0  0
  152.4600  142.3204  158.9759 C   0  0  0  0  0  0  0  0  0  0  0  0
  152.0282  141.8486  157.6616 N   0  0  0  0  0  0  0  0  0  0  0  0
  152.1373  140.3961  157.5681 C   0  0  0  0  0  0  0  0  0  0  0  0
  151.7099  139.8810  156.1824 C   0  0  0  0  0  0  0  0  0  0  0  0
  150.3199  140.2354  155.8562 N   0  0  0  0  0  0  0  0  0  0  0  0
  149.9012  139.7341  154.5261 C   0  0  1  0  0  0  0  0  0  0  0  0
  150.1866  138.2212  154.3436 C   0  0  0  0  0  0  0  0  0  0  0  0
  148.4036  140.0139  154.2119 C   0  0  0  0  0  0  0  0  0  0  0  0
  147.8622  139.1410  153.1723 N   0  0  0  0  0  0  0  0  0  0  0  0
  146.8526  138.2716  153.3297 C   0  0  0  0  0  0  0  0  0  0  0  0
  146.2497  138.1093  154.3909 O   0  0  0  0  0  0  0  0  0  0  0  0
  146.6022  137.6065  152.1891 N   0  0  0  0  0  0  0  0  0  0  0  0
  145.6420  136.5846  151.9774 C   0  0  0  0  0  0  0  0  0  0  0  0
  145.8596  135.5707  151.0071 C   0  0  0  0  0  0  0  0  0  0  0  0
  144.7375  134.7978  151.1131 C   0  0  0  0  0  0  0  0  0  0  0  0
  144.2843  133.5657  150.4080 C   0  0  0  0  0  0  0  0  0  0  0  0
  143.9047  135.2994  152.0651 O   0  0  0  0  0  0  0  0  0  0  0  0
  144.4906  136.4449  152.6165 N   0  0  0  0  0  0  0  0  0  0  0  0
  150.2042  141.6971  155.9796 C   0  0  0  0  0  0  0  0  0  0  0  0
  150.6428  142.2099  157.3642 C   0  0  0  0  0  0  0  0  0  0  0  0
  152.9583  144.1172  160.0902 H   0  0  0  0  0  0  0  0  0  0  0  0
  151.5523  144.3121  159.0590 H   0  0  0  0  0  0  0  0  0  0  0  0
  153.1689  144.2852  158.3510 H   0  0  0  0  0  0  0  0  0  0  0  0
  153.4551  141.9239  159.1816 H   0  0  0  0  0  0  0  0  0  0  0  0
  151.8091  141.9114  159.7500 H   0  0  0  0  0  0  0  0  0  0  0  0
  153.1670  140.0909  157.7581 H   0  0  0  0  0  0  0  0  0  0  0  0
  151.5256  139.9229  158.3383 H   0  0  0  0  0  0  0  0  0  0  0  0
  152.3856  140.2695  155.4187 H   0  0  0  0  0  0  0  0  0  0  0  0
  151.8380  138.8006  156.1983 H   0  0  0  0  0  0  0  0  0  0  0  0
  150.4872  140.2600  153.7707 H   0  0  0  0  0  0  0  0  0  0  0  0
  149.8567  137.8485  153.3752 H   0  0  0  0  0  0  0  0  0  0  0  0
  149.6848  137.6303  155.1105 H   0  0  0  0  0  0  0  0  0  0  0  0
  151.2498  137.9900  154.3799 H   0  0  0  0  0  0  0  0  0  0  0  0
  147.8114  139.9601  155.1271 H   0  0  0  0  0  0  0  0  0  0  0  0
  148.2656  141.0192  153.8187 H   0  0  0  0  0  0  0  0  0  0  0  0
  148.2968  139.2016  152.2631 H   0  0  0  0  0  0  0  0  0  0  0  0
  147.1714  137.8447  151.3905 H   0  0  0  0  0  0  0  0  0  0  0  0
  146.6996  135.4296  150.3432 H   0  0  0  0  0  0  0  0  0  0  0  0
  145.1009  133.1185  149.8411 H   0  0  0  0  0  0  0  0  0  0  0  0
  143.4753  133.7941  149.7141 H   0  0  0  0  0  0  0  0  0  0  0  0
  143.9214  132.8232  151.1191 H   0  0  0  0  0  0  0  0  0  0  0  0
  150.7919  142.1867  155.2016 H   0  0  0  0  0  0  0  0  0  0  0  0
  149.1723  142.0141  155.8442 H   0  0  0  0  0  0  0  0  0  0  0  0
  149.9774  141.8089  158.1307 H   0  0  0  0  0  0  0  0  0  0  0  0
  150.5240  143.2928  157.3838 H   0  0  0  0  0  0  0  0  0  0  0  0
  1  2  1  0  0  0  0
  1 22  1  0  0  0  0
  1 23  1  0  0  0  0
  1 24  1  0  0  0  0
  2  3  1  0  0  0  0
  2 25  1  0  0  0  0
  2 26  1  0  0  0  0
  3 21  1  0  0  0  0
  3  4  1  0  0  0  0
  4  5  1  0  0  0  0
  4 27  1  0  0  0  0
  4 28  1  0  0  0  0
  5  6  1  0  0  0  0
  5 29  1  0  0  0  0
  5 30  1  0  0  0  0
  6  7  1  0  0  0  0
  6 20  1  0  0  0  0
  7  8  1  0  0  0  0
  7  9  1  0  0  0  0
  7 31  1  0  0  0  0
  8 32  1  0  0  0  0
  8 33  1  0  0  0  0
  8 34  1  0  0  0  0
  9 10  1  0  0  0  0
  9 35  1  0  0  0  0
  9 36  1  0  0  0  0
 10 11  1  0  0  0  0
 10 37  1  0  0  0  0
 11 12  2  0  0  0  0
 11 13  1  0  0  0  0
 13 14  1  0  0  0  0
 13 38  1  0  0  0  0
 14 19  2  0  0  0  0
 14 15  1  0  0  0  0
 15 16  2  0  0  0  0
 15 39  1  0  0  0  0
 16 17  1  0  0  0  0
 16 18  1  0  0  0  0
 17 40  1  0  0  0  0
 17 41  1  0  0  0  0
 17 42  1  0  0  0  0
 18 19  1  0  0  0  0
 20 21  1  0  0  0  0
 20 43  1  0  0  0  0
 20 44  1  0  0  0  0
 21 45  1  0  0  0  0
 21 46  1  0  0  0  0
M  END
> <s_m_source_file>
AV-unprocessed.smi

> <i_m_source_file_index>
1586

> <i_lp_mmshare_version>
43012

> <i_f3d_flags>
0

> <s_epik_input>
W0NIM11bQ0gyXU4xW0NIMl1bQ0gyXU4oW0NIMl1bQ0gyXTEpW0NASF0oW0NIM10pW0NIMl1bTkhdQyg9TylbTkhdYzJbY0hdYyhbQ0gzXSlvbjI=

> <s_epik_cmdline>
J2VwaWtfcHl0aG9uJywgJy1waCcsICc3LjAnLCAnLXRuJywgJzgnLCAnLW1hJywgJzIwMCcsICctbWV0YWxfYmluZGluZycsICctaW1hZScsICc8aW5maWxlLm1hZT4nLCAnLW9tYWUnLCAnPG91dGZpbGUubWFlPic=

> <r_epik_Ionization_Penalty>
2.42597

> <r_epik_Ionization_Penalty_Charging>
0

> <r_epik_Ionization_Penalty_Neutral>
2.42597

> <r_epik_State_Penalty>
1.76326

> <r_epik_Charging_Adjusted_Penalty>
1.76326

> <i_epik_Tot_Q>
0

> <i_epik_Tot_abs_Q>
0

> <r_epik_Metal_State_Penalty>
1.7742

> <b_epik_Metal_Only>
0

> <s_lp_Force_Field>
OPLS_2005

> <r_lp_Energy>
39.6445

> <b_lp_Chiralities_Consistent>
1

> <s_lp_Variant>
AV-unprocessed.smi:1586-6

> <Gold.Version>
5.8.1

> <Gold.Id.Protein>
6NUR|6NUR_protein|mol2

> <Gold.PLP.Fitness>
38.6806

> <Gold.PLP.PLP>
-36.6446

> <Gold.PLP.part.hbond>
-2.0000

> <Gold.PLP.part.metal>
0.0000

> <Gold.PLP.part.buried>
-4.1288

> <Gold.PLP.part.nonpolar>
-31.8812

> <Gold.PLP.part.repulsive>
0.6053

> <Gold.PLP.ligand.clash>
0.0000

> <Gold.PLP.ligand.torsion>
0.4931

> <Gold.PLP.Chemscore.Hbond>
0.9920

> <Gold.PLP.Chemscore.CHOScore>
0.0000

> <Gold.PLP.Chemscore.Metal>
0.0000

> <Gold.Chemscore.Hbonds>
donor molecule, donor type, donor heavy atom, donor atom, acceptor molecule, acceptor atom, score
      L1  H    10    37       P1  7957  0.98

> <Gold.PLP.Chemscore.Internal.Correction>
0.0463

> <Gold.Rescore>
     Score         DG    S(hbond)    S(metal)    S(lipo)     H(rot)  DE(clash)    DE(int)     intcor
     13.32     -15.00       0.98        0.00      90.92       1.72       0.06       1.62       ----

> <Gold.Chemscore.Fitness>
13.3184

> <Gold.Chemscore.DG>
-14.9955

> <Gold.Chemscore.ZeroCoef>
-5.4800

> <Gold.Chemscore.Hbond>
0.9807

> <Gold.Chemscore.Metal>
0.0000

> <Gold.Chemscore.Lipo>
90.9205

> <Gold.Chemscore.Internal_Hbond>
0.0000

> <Gold.Chemscore.DEClash>
0.0576

> <Gold.Chemscore.DEInternal>
1.6196

> <Gold.Chemscore.Rot>
1.7178

> <Gold.Chemscore.Internal.Correction>
   9.000000E+99

> <Gold.Chemscore.Hbonds>
donor molecule, donor type, donor heavy atom, donor atom, acceptor molecule, acceptor atom, score
      L1  H    10    37       P1  7957  0.93

> <Gold.Chemscore.Hbond.Weighted>
-3.2755

> <Gold.Chemscore.Metal.Weighted>
-0.0000

> <Gold.Chemscore.Lipo.Weighted>
-10.6377

> <Gold.Chemscore.Internal_Hbond.Weighted>
0.0000

> <Gold.Chemscore.DEClash.Weighted>
0.0576

> <Gold.Chemscore.DEInternal.Weighted>
1.6196

> <Gold.Chemscore.Rot.Weighted>
4.3976

> <Gold.Chemscore.Internal.Correction.Weighted>
   9.000000E+99

> <Gold.Protein.RotatedTorsions>
[ 6907 6896 6895 6894 ] final -167.52 input  -60.11 | X-H torsion
[ 7974 7965 7964 7962 ] final   -4.32 input  175.53 | X-H torsion
[ 8008 7997 7996 7995 ] final   28.25 input   59.86 | X-H torsion
[ 10167 10162 10161 10158 ] final  -57.96 input  -65.29 | X-H torsion
[ 10718 10713 10712 10709 ] final   57.87 input   66.30 | X-H torsion
[ 10763 10752 10751 10750 ] final  -55.12 input  -60.55 | X-H torsion
[ 11005 11000 10999 10996 ] final -101.23 input  -57.11 | X-H torsion

> <Gold.Protein.ActiveResidues>
 VAL166  LYS551  ARG553  GLY616  TRP617  ASP618  TYR619  PRO620  LYS621  CYS622 
 ASP623  PHE694  ASN695  SER759  ASP760  ASP761  ALA762  ILE779  LEU786  VAL792 
 PHE793  MET794  SER795  GLU796  ALA797  LYS798  CYS799  TRP800  GLU811  SER814 

> <Gold.Protein.RotatedAtoms>
  151.4609  133.3593  159.2808 H   0  0  0  0  0  0  0  0  0  0  0  0  # atno 6907 bound_to 6896
  150.9026  134.8441  159.7381 H   0  0  0  0  0  0  0  0  0  0  0  0  # atno 6908 bound_to 6896
  152.4888  134.4531  159.9633 H   0  0  0  0  0  0  0  0  0  0  0  0  # atno 6909 bound_to 6896
  146.2374  140.1853  142.8332 H   0  0  0  0  0  0  0  0  0  0  0  0  # atno 7974 bound_to 7965
  155.0557  140.3184  155.4677 H   0  0  0  0  0  0  0  0  0  0  0  0  # atno 8008 bound_to 7997
  156.2824  140.2138  156.5627 H   0  0  0  0  0  0  0  0  0  0  0  0  # atno 8009 bound_to 7997
  154.7174  140.0492  157.0595 H   0  0  0  0  0  0  0  0  0  0  0  0  # atno 8010 bound_to 7997
  140.6226  143.2425  151.5443 H   0  0  0  0  0  0  0  0  0  0  0  0  # atno 10167 bound_to 10162
  157.5550  130.8793  149.9022 H   0  0  0  0  0  0  0  0  0  0  0  0  # atno 10718 bound_to 10713
  154.1857  135.6436  153.5046 H   0  0  0  0  0  0  0  0  0  0  0  0  # atno 10763 bound_to 10752
  153.0047  135.5416  154.6467 H   0  0  0  0  0  0  0  0  0  0  0  0  # atno 10764 bound_to 10752
  154.5843  135.2928  155.0673 H   0  0  0  0  0  0  0  0  0  0  0  0  # atno 10765 bound_to 10752
  141.1239  133.8461  157.1205 H   0  0  0  0  0  0  0  0  0  0  0  0  # atno 11005 bound_to 11000
  144.9901  140.8539  143.5344 LP  0  0  0  0  0  0  0  0  0  0  0  0  # atno 17320 bound_to 7965
  145.1858  139.2327  143.5268 LP  0  0  0  0  0  0  0  0  0  0  0  0  # atno 17321 bound_to 7965
  139.5452  144.2541  152.1428 LP  0  0  0  0  0  0  0  0  0  0  0  0  # atno 17342 bound_to 10162
  140.1764  144.4886  150.6551 LP  0  0  0  0  0  0  0  0  0  0  0  0  # atno 17343 bound_to 10162
  156.0610  130.3700  150.0981 LP  0  0  0  0  0  0  0  0  0  0  0  0  # atno 17370 bound_to 10713
  156.9151  130.9664  151.3557 LP  0  0  0  0  0  0  0  0  0  0  0  0  # atno 17371 bound_to 10713
  140.0220  134.9941  157.0610 LP  0  0  0  0  0  0  0  0  0  0  0  0  # atno 17394 bound_to 11000
  140.4424  134.1667  155.7175 LP  0  0  0  0  0  0  0  0  0  0  0  0  # atno 17395 bound_to 11000

$$$$
