AV-unprocessed.smi:2470|AV-procd|sdf|9736|dock3
  -GOLD-   2272013373D 1   1.00000     0.00000
 Structure written by MMmdl.
 33 34  0  0  0  0  0  0  0  0  1 V2000
  154.4056  139.4883  159.6254 C   0  0  0  0  0  0  0  0  0  0  0  0
  153.4690  139.7757  158.5933 O   0  0  0  0  0  0  0  0  0  0  0  0
  152.8028  140.9827  158.6360 C   0  0  0  0  0  0  0  0  0  0  0  0
  151.7360  141.2143  157.7440 C   0  0  0  0  0  0  0  0  0  0  0  0
  151.0788  142.4627  157.8221 C   0  0  0  0  0  0  0  0  0  0  0  0
  150.0059  142.6523  156.9112 N   0  0  0  0  0  0  0  0  0  0  0  0
  149.2250  141.7165  156.3435 C   0  0  0  0  0  0  0  0  0  0  0  0
  149.2996  140.5053  156.5522 O   0  0  0  0  0  0  0  0  0  0  0  0
  148.3339  142.2717  155.5086 N   0  0  0  0  0  0  0  0  0  0  0  0
  147.3398  141.5468  154.7228 C   0  0  1  0  0  0  0  0  0  0  0  0
  146.3784  142.5437  154.0568 C   0  0  0  0  0  0  0  0  0  0  0  0
  147.9725  140.6327  153.6908 C   0  0  0  0  0  0  0  0  0  0  0  0
  147.2293  139.4346  153.1507 C   0  0  0  0  0  0  0  0  0  0  0  0
  148.4252  139.2395  154.0557 C   0  0  0  0  0  0  0  0  0  0  0  0
  151.4835  143.3847  158.7303 N   0  0  0  0  0  0  0  0  0  0  0  0
  152.5045  143.0691  159.5292 C   0  0  0  0  0  0  0  0  0  0  0  0
  153.1852  141.9226  159.5341 N   0  0  0  0  0  0  0  0  0  0  0  0
  154.8501  138.5094  159.4466 H   0  0  0  0  0  0  0  0  0  0  0  0
  153.9235  139.4594  160.6035 H   0  0  0  0  0  0  0  0  0  0  0  0
  155.2148  140.2197  159.6465 H   0  0  0  0  0  0  0  0  0  0  0  0
  151.4369  140.4594  157.0314 H   0  0  0  0  0  0  0  0  0  0  0  0
  149.8175  143.6100  156.6550 H   0  0  0  0  0  0  0  0  0  0  0  0
  148.3472  143.2753  155.4016 H   0  0  0  0  0  0  0  0  0  0  0  0
  146.7555  140.9158  155.3959 H   0  0  0  0  0  0  0  0  0  0  0  0
  145.6109  142.0243  153.4820 H   0  0  0  0  0  0  0  0  0  0  0  0
  146.9075  143.2116  153.3763 H   0  0  0  0  0  0  0  0  0  0  0  0
  145.8686  143.1590  154.7987 H   0  0  0  0  0  0  0  0  0  0  0  0
  148.5955  141.1587  152.9693 H   0  0  0  0  0  0  0  0  0  0  0  0
  146.2464  139.2174  153.5645 H   0  0  0  0  0  0  0  0  0  0  0  0
  147.3532  139.2014  152.0951 H   0  0  0  0  0  0  0  0  0  0  0  0
  149.3457  138.8762  153.6032 H   0  0  0  0  0  0  0  0  0  0  0  0
  148.2360  138.8930  155.0699 H   0  0  0  0  0  0  0  0  0  0  0  0
  152.8106  143.8178  160.2449 H   0  0  0  0  0  0  0  0  0  0  0  0
  1  2  1  0  0  0  0
  1 18  1  0  0  0  0
  1 19  1  0  0  0  0
  1 20  1  0  0  0  0
  2  3  1  0  0  0  0
  3 17  1  0  0  0  0
  3  4  2  0  0  0  0
  4  5  1  0  0  0  0
  4 21  1  0  0  0  0
  5  6  1  0  0  0  0
  5 15  2  0  0  0  0
  6  7  1  0  0  0  0
  6 22  1  0  0  0  0
  7  8  2  0  0  0  0
  7  9  1  0  0  0  0
  9 10  1  0  0  0  0
  9 23  1  0  0  0  0
 10 11  1  0  0  0  0
 10 12  1  0  0  0  0
 10 24  1  0  0  0  0
 11 25  1  0  0  0  0
 11 26  1  0  0  0  0
 11 27  1  0  0  0  0
 12 14  1  0  0  0  0
 12 13  1  0  0  0  0
 12 28  1  0  0  0  0
 13 14  1  0  0  0  0
 13 29  1  0  0  0  0
 13 30  1  0  0  0  0
 14 31  1  0  0  0  0
 14 32  1  0  0  0  0
 15 16  1  0  0  0  0
 16 17  2  0  0  0  0
 16 33  1  0  0  0  0
M  END
> <s_m_source_file>
AV-unprocessed.smi

> <i_m_source_file_index>
2470

> <i_lp_mmshare_version>
43012

> <i_f3d_flags>
0

> <s_epik_input>
W0NIM11PYzFbY0hdYyhuW2NIXW4xKVtOSF1DKD1PKVtOSF1bQ0BIXShbQ0gzXSlbQ0hdMltDSDJdW0NIMl0y

> <s_epik_cmdline>
J2VwaWtfcHl0aG9uJywgJy1waCcsICc3LjAnLCAnLXRuJywgJzgnLCAnLW1hJywgJzIwMCcsICctbWV0YWxfYmluZGluZycsICctaW1hZScsICc8aW5maWxlLm1hZT4nLCAnLW9tYWUnLCAnPG91dGZpbGUubWFlPic=

> <r_lp_tautomer_probability>
1

> <r_epik_Ionization_Penalty>
2.81207e-05

> <r_epik_Ionization_Penalty_Charging>
0

> <r_epik_Ionization_Penalty_Neutral>
2.81207e-05

> <r_epik_State_Penalty>
-0

> <r_epik_Charging_Adjusted_Penalty>
0

> <i_epik_Tot_Q>
0

> <i_epik_Tot_abs_Q>
0

> <r_epik_Metal_State_Penalty>
-0

> <b_epik_Metal_Only>
0

> <s_lp_Force_Field>
OPLS_2005

> <r_lp_Energy>
11.1381

> <b_lp_Chiralities_Consistent>
1

> <s_lp_Variant>
AV-unprocessed.smi:2470-2

> <Gold.Version>
5.8.1

> <Gold.Id.Protein>
6NUR|6NUR_protein|mol2

> <Gold.PLP.Fitness>
36.9756

> <Gold.PLP.PLP>
-28.5739

> <Gold.PLP.part.hbond>
-2.9176

> <Gold.PLP.part.metal>
0.0000

> <Gold.PLP.part.buried>
-2.9734

> <Gold.PLP.part.nonpolar>
-22.2469

> <Gold.PLP.part.repulsive>
0.2223

> <Gold.PLP.ligand.clash>
0.0000

> <Gold.PLP.ligand.torsion>
0.7992

> <Gold.PLP.Chemscore.Hbond>
2.9760

> <Gold.PLP.Chemscore.CHOScore>
0.0000

> <Gold.PLP.Chemscore.Metal>
0.0000

> <Gold.Chemscore.Hbonds>
donor molecule, donor type, donor heavy atom, donor atom, acceptor molecule, acceptor atom, score
      L1  H     6    22       P1  8028  0.96
      L1  H     9    23       P1  8028  1.00
      P1  H  7997  8008       L1     2  1.00

> <Gold.PLP.Chemscore.Internal.Correction>
1.0721

> <Gold.Rescore>
     Score         DG    S(hbond)    S(metal)    S(lipo)     H(rot)  DE(clash)    DE(int)     intcor
     11.32     -14.55       2.37        0.00      45.12       1.61       0.27       2.96       ----

> <Gold.Chemscore.Fitness>
11.3201

> <Gold.Chemscore.DG>
-14.5482

> <Gold.Chemscore.ZeroCoef>
-5.4800

> <Gold.Chemscore.Hbond>
2.3693

> <Gold.Chemscore.Metal>
0.0000

> <Gold.Chemscore.Lipo>
45.1179

> <Gold.Chemscore.Internal_Hbond>
0.0000

> <Gold.Chemscore.DEClash>
0.2677

> <Gold.Chemscore.DEInternal>
2.9604

> <Gold.Chemscore.Rot>
1.6109

> <Gold.Chemscore.Internal.Correction>
   9.000000E+99

> <Gold.Chemscore.Hbonds>
donor molecule, donor type, donor heavy atom, donor atom, acceptor molecule, acceptor atom, score
      L1  H     6    22       P1  8028  0.92
      L1  H     9    23       P1  8028  0.91
      P1  H  7997  8008       L1     2  0.10

> <Gold.Chemscore.Hbond.Weighted>
-7.9134

> <Gold.Chemscore.Metal.Weighted>
-0.0000

> <Gold.Chemscore.Lipo.Weighted>
-5.2788

> <Gold.Chemscore.Internal_Hbond.Weighted>
0.0000

> <Gold.Chemscore.DEClash.Weighted>
0.2677

> <Gold.Chemscore.DEInternal.Weighted>
2.9604

> <Gold.Chemscore.Rot.Weighted>
4.1240

> <Gold.Chemscore.Internal.Correction.Weighted>
   9.000000E+99

> <Gold.Protein.RotatedTorsions>
[ 6907 6896 6895 6894 ] final  117.03 input  -60.11 | X-H torsion
[ 7974 7965 7964 7962 ] final  -78.43 input  175.53 | X-H torsion
[ 8008 7997 7996 7995 ] final  -90.34 input   59.86 | X-H torsion
[ 10167 10162 10161 10158 ] final  159.87 input  -65.29 | X-H torsion
[ 10718 10713 10712 10709 ] final -114.26 input   66.30 | X-H torsion
[ 10763 10752 10751 10750 ] final  -63.82 input  -60.55 | X-H torsion
[ 11005 11000 10999 10996 ] final  177.05 input  -57.11 | X-H torsion

> <Gold.Protein.ActiveResidues>
 VAL166  LYS551  ARG553  GLY616  TRP617  ASP618  TYR619  PRO620  LYS621  CYS622 
 ASP623  PHE694  ASN695  SER759  ASP760  ASP761  ALA762  ILE779  LEU786  VAL792 
 PHE793  MET794  SER795  GLU796  ALA797  LYS798  CYS799  TRP800  GLU811  SER814 

> <Gold.Protein.RotatedAtoms>
  152.4639  133.7880  159.6886 H   0  0  0  0  0  0  0  0  0  0  0  0  # atno 6907 bound_to 6896
  150.8594  133.7656  159.3004 H   0  0  0  0  0  0  0  0  0  0  0  0  # atno 6908 bound_to 6896
  151.5226  135.1070  159.9934 H   0  0  0  0  0  0  0  0  0  0  0  0  # atno 6909 bound_to 6896
  145.5866  140.9438  143.1315 H   0  0  0  0  0  0  0  0  0  0  0  0  # atno 7974 bound_to 7965
  154.6973  140.0531  157.0424 H   0  0  0  0  0  0  0  0  0  0  0  0  # atno 8008 bound_to 7997
  155.0733  140.3202  155.4605 H   0  0  0  0  0  0  0  0  0  0  0  0  # atno 8009 bound_to 7997
  156.2748  140.2078  156.5860 H   0  0  0  0  0  0  0  0  0  0  0  0  # atno 8010 bound_to 7997
  139.4835  144.4688  151.8604 H   0  0  0  0  0  0  0  0  0  0  0  0  # atno 10167 bound_to 10162
  156.0818  130.6017  150.8751 H   0  0  0  0  0  0  0  0  0  0  0  0  # atno 10718 bound_to 10713
  154.3208  135.6196  153.5507 H   0  0  0  0  0  0  0  0  0  0  0  0  # atno 10763 bound_to 10752
  152.9820  135.5723  154.5072 H   0  0  0  0  0  0  0  0  0  0  0  0  # atno 10764 bound_to 10752
  154.4740  135.2860  155.1598 H   0  0  0  0  0  0  0  0  0  0  0  0  # atno 10765 bound_to 10752
  140.3798  134.6956  157.4444 H   0  0  0  0  0  0  0  0  0  0  0  0  # atno 11005 bound_to 11000
  144.7370  139.7558  143.7325 LP  0  0  0  0  0  0  0  0  0  0  0  0  # atno 17320 bound_to 7965
  146.1677  139.4815  142.9947 LP  0  0  0  0  0  0  0  0  0  0  0  0  # atno 17321 bound_to 7965
  140.4156  144.2311  150.5888 LP  0  0  0  0  0  0  0  0  0  0  0  0  # atno 17342 bound_to 10162
  140.4924  143.2343  151.8799 LP  0  0  0  0  0  0  0  0  0  0  0  0  # atno 17343 bound_to 10162
  157.5938  131.0943  150.9074 LP  0  0  0  0  0  0  0  0  0  0  0  0  # atno 17370 bound_to 10713
  156.9245  130.5327  149.5279 LP  0  0  0  0  0  0  0  0  0  0  0  0  # atno 17371 bound_to 10713
  140.0487  134.6162  155.8888 LP  0  0  0  0  0  0  0  0  0  0  0  0  # atno 17394 bound_to 11000
  141.1927  133.6576  156.5515 LP  0  0  0  0  0  0  0  0  0  0  0  0  # atno 17395 bound_to 11000

$$$$
