AV-unprocessed.smi:1307|AV-procd|sdf|5437|dock1
  -GOLD-   22720 5 03D 1   1.00000     0.00000
 Structure written by MMmdl.
 41 41  0  0  0  0  0  0  0  0  1 V2000
  148.0986  141.7103  154.5707 C   0  0  0  0  0  0  0  0  0  0  0  0
  148.8100  140.4930  153.9460 C   0  0  0  0  0  0  0  0  0  0  0  0
  147.7638  139.5564  153.3152 C   0  0  0  0  0  0  0  0  0  0  0  0
  149.7252  139.7564  154.9604 C   0  0  1  0  0  0  0  0  0  0  0  0
  150.5038  138.5826  154.3362 C   0  0  0  0  0  0  0  0  0  0  0  0
  150.6778  140.6965  155.5458 N   0  0  0  0  0  0  0  0  0  0  0  0
  150.6101  141.2290  156.7783 C   0  0  0  0  0  0  0  0  0  0  0  0
  149.7243  140.9420  157.5821 O   0  0  0  0  0  0  0  0  0  0  0  0
  151.6945  142.2439  157.1892 C   0  0  0  0  0  0  0  0  0  0  0  0
  152.3062  142.0083  158.5240 N   0  0  0  0  0  0  0  0  0  0  0  0
  152.3640  143.0679  159.4832 C   0  0  0  0  0  0  0  0  0  0  0  0
  151.7626  144.4367  159.1329 C   0  0  0  0  0  0  0  0  0  0  0  0
  151.9178  145.3020  160.1361 F   0  0  0  0  0  0  0  0  0  0  0  0
  152.3708  144.9639  158.0700 F   0  0  0  0  0  0  0  0  0  0  0  0
  150.4528  144.3604  158.8979 F   0  0  0  0  0  0  0  0  0  0  0  0
  152.9153  142.8478  160.6909 C   0  0  0  0  0  0  0  0  0  0  0  0
  153.4477  141.5541  161.0182 C   0  0  0  0  0  0  0  0  0  0  0  0
  153.4003  140.5410  160.1237 C   0  0  0  0  0  0  0  0  0  0  0  0
  153.9229  139.1872  160.4199 C   0  0  0  0  0  0  0  0  0  0  0  0
  154.4903  139.0680  161.6269 N   0  0  0  0  0  0  0  0  0  0  0  0
  153.8821  138.2002  159.6858 O   0  0  0  0  0  0  0  0  0  0  0  0
  152.8023  140.7486  158.7798 C   0  0  0  0  0  0  0  0  0  0  0  0
  152.7256  139.8676  157.9181 O   0  0  0  0  0  0  0  0  0  0  0  0
  147.4955  141.4168  155.4305 H   0  0  0  0  0  0  0  0  0  0  0  0
  147.4356  142.1902  153.8503 H   0  0  0  0  0  0  0  0  0  0  0  0
  148.8046  142.4714  154.9030 H   0  0  0  0  0  0  0  0  0  0  0  0
  149.4380  140.8701  153.1372 H   0  0  0  0  0  0  0  0  0  0  0  0
  147.1332  139.0967  154.0771 H   0  0  0  0  0  0  0  0  0  0  0  0
  148.2277  138.7582  152.7366 H   0  0  0  0  0  0  0  0  0  0  0  0
  147.1116  140.1011  152.6319 H   0  0  0  0  0  0  0  0  0  0  0  0
  149.0920  139.3627  155.7580 H   0  0  0  0  0  0  0  0  0  0  0  0
  149.8370  137.7939  153.9894 H   0  0  0  0  0  0  0  0  0  0  0  0
  151.1780  138.1259  155.0616 H   0  0  0  0  0  0  0  0  0  0  0  0
  151.1054  138.9116  153.4884 H   0  0  0  0  0  0  0  0  0  0  0  0
  151.4410  140.9870  154.9525 H   0  0  0  0  0  0  0  0  0  0  0  0
  152.4644  142.2372  156.4154 H   0  0  0  0  0  0  0  0  0  0  0  0
  151.2742  143.2396  157.0878 H   0  0  0  0  0  0  0  0  0  0  0  0
  152.9621  143.6307  161.4333 H   0  0  0  0  0  0  0  0  0  0  0  0
  153.8745  141.4323  162.0028 H   0  0  0  0  0  0  0  0  0  0  0  0
  154.8759  138.1826  161.9203 H   0  0  0  0  0  0  0  0  0  0  0  0
  154.5297  139.8689  162.2409 H   0  0  0  0  0  0  0  0  0  0  0  0
  1  2  1  0  0  0  0
  1 24  1  0  0  0  0
  1 25  1  0  0  0  0
  1 26  1  0  0  0  0
  2  3  1  0  0  0  0
  2  4  1  0  0  0  0
  2 27  1  0  0  0  0
  3 28  1  0  0  0  0
  3 29  1  0  0  0  0
  3 30  1  0  0  0  0
  4  5  1  0  0  0  0
  4  6  1  0  0  0  0
  4 31  1  0  0  0  0
  5 32  1  0  0  0  0
  5 33  1  0  0  0  0
  5 34  1  0  0  0  0
  6  7  1  0  0  0  0
  6 35  1  0  0  0  0
  7  8  2  0  0  0  0
  7  9  1  0  0  0  0
  9 10  1  0  0  0  0
  9 36  1  0  0  0  0
  9 37  1  0  0  0  0
 10 22  1  0  0  0  0
 10 11  1  0  0  0  0
 11 12  1  0  0  0  0
 11 16  2  0  0  0  0
 12 13  1  0  0  0  0
 12 14  1  0  0  0  0
 12 15  1  0  0  0  0
 16 17  1  0  0  0  0
 16 38  1  0  0  0  0
 17 18  2  0  0  0  0
 17 39  1  0  0  0  0
 18 19  1  0  0  0  0
 18 22  1  0  0  0  0
 19 20  1  0  0  0  0
 19 21  2  0  0  0  0
 20 40  1  0  0  0  0
 20 41  1  0  0  0  0
 22 23  2  0  0  0  0
M  END
> <s_m_source_file>
AV-unprocessed.smi

> <i_m_source_file_index>
1307

> <i_lp_mmshare_version>
43012

> <i_f3d_flags>
0

> <s_epik_input>
W0NIM11bQ0hdKFtDSDNdKVtDQEhdKFtDSDNdKVtOSF1DKD1PKVtDSDJdbjFjKEMoRikoRilGKVtjSF1bY0hdYyhjMT1PKUMoPU8pW05IMl0=

> <s_epik_cmdline>
J2VwaWtfcHl0aG9uJywgJy1waCcsICc3LjAnLCAnLXRuJywgJzgnLCAnLW1hJywgJzIwMCcsICctbWV0YWxfYmluZGluZycsICctaW1hZScsICc8aW5maWxlLm1hZT4nLCAnLW9tYWUnLCAnPG91dGZpbGUubWFlPic=

> <r_lp_tautomer_probability>
1

> <r_epik_Ionization_Penalty>
2.05992e-06

> <r_epik_Ionization_Penalty_Charging>
8.21357e-10

> <r_epik_Ionization_Penalty_Neutral>
2.0591e-06

> <r_epik_State_Penalty>
-0

> <r_epik_Charging_Adjusted_Penalty>
8.21357e-10

> <i_epik_Tot_Q>
0

> <i_epik_Tot_abs_Q>
0

> <r_epik_Metal_State_Penalty>
-0

> <b_epik_Metal_Only>
0

> <s_lp_Force_Field>
OPLS_2005

> <r_lp_Energy>
26.9387

> <b_lp_Chiralities_Consistent>
1

> <s_lp_Variant>
AV-unprocessed.smi:1307-2

> <Gold.Version>
5.8.1

> <Gold.Id.Protein>
6NUR|6NUR_protein|mol2

> <Gold.PLP.Fitness>
52.7039

> <Gold.PLP.PLP>
-50.2769

> <Gold.PLP.part.hbond>
-1.0000

> <Gold.PLP.part.metal>
0.0000

> <Gold.PLP.part.buried>
-6.1725

> <Gold.PLP.part.nonpolar>
-42.9875

> <Gold.PLP.part.repulsive>
0.1563

> <Gold.PLP.ligand.clash>
3.9359

> <Gold.PLP.ligand.torsion>
0.3870

> <Gold.PLP.Chemscore.Hbond>
1.0000

> <Gold.PLP.Chemscore.CHOScore>
0.0000

> <Gold.PLP.Chemscore.Metal>
0.0000

> <Gold.Chemscore.Hbonds>
donor molecule, donor type, donor heavy atom, donor atom, acceptor molecule, acceptor atom, score
      P1  H  7997  8009       L1    23  0.88

> <Gold.PLP.Chemscore.Internal.Correction>
4.1369

> <Gold.Rescore>
     Score         DG    S(hbond)    S(metal)    S(lipo)     H(rot)  DE(clash)    DE(int)     intcor
      8.83     -14.10       0.78        0.00      94.47       1.97       0.08       5.19       ----

> <Gold.Chemscore.Fitness>
8.8315

> <Gold.Chemscore.DG>
-14.0997

> <Gold.Chemscore.ZeroCoef>
-5.4800

> <Gold.Chemscore.Hbond>
0.7833

> <Gold.Chemscore.Metal>
0.0000

> <Gold.Chemscore.Lipo>
94.4654

> <Gold.Chemscore.Internal_Hbond>
0.0000

> <Gold.Chemscore.DEClash>
0.0778

> <Gold.Chemscore.DEInternal>
5.1904

> <Gold.Chemscore.Rot>
1.9723

> <Gold.Chemscore.Internal.Correction>
   9.000000E+99

> <Gold.Chemscore.Hbonds>
donor molecule, donor type, donor heavy atom, donor atom, acceptor molecule, acceptor atom, score
      P1  H  7997  8009       L1    23  0.21

> <Gold.Chemscore.Hbond.Weighted>
-2.6162

> <Gold.Chemscore.Metal.Weighted>
-0.0000

> <Gold.Chemscore.Lipo.Weighted>
-11.0525

> <Gold.Chemscore.Internal_Hbond.Weighted>
0.0000

> <Gold.Chemscore.DEClash.Weighted>
0.0778

> <Gold.Chemscore.DEInternal.Weighted>
5.1904

> <Gold.Chemscore.Rot.Weighted>
5.0490

> <Gold.Chemscore.Internal.Correction.Weighted>
   9.000000E+99

> <Gold.Protein.RotatedTorsions>
[ 6907 6896 6895 6894 ] final   44.75 input  -60.11 | X-H torsion
[ 7974 7965 7964 7962 ] final  101.45 input  175.53 | X-H torsion
[ 8008 7997 7996 7995 ] final  152.78 input   59.86 | X-H torsion
[ 10167 10162 10161 10158 ] final  -87.18 input  -65.29 | X-H torsion
[ 10718 10713 10712 10709 ] final   37.80 input   66.30 | X-H torsion
[ 10763 10752 10751 10750 ] final -102.33 input  -60.55 | X-H torsion
[ 11005 11000 10999 10996 ] final -102.88 input  -57.11 | X-H torsion

> <Gold.Protein.ActiveResidues>
 VAL166  LYS551  ARG553  GLY616  TRP617  ASP618  TYR619  PRO620  LYS621  CYS622 
 ASP623  PHE694  ASN695  SER759  ASP760  ASP761  ALA762  ILE779  LEU786  VAL792 
 PHE793  MET794  SER795  GLU796  ALA797  LYS798  CYS799  TRP800  GLU811  SER814 

> <Gold.Protein.RotatedAtoms>
  152.2363  134.8272  160.0466 H   0  0  0  0  0  0  0  0  0  0  0  0  # atno 6907 bound_to 6896
  151.9003  133.3531  159.3836 H   0  0  0  0  0  0  0  0  0  0  0  0  # atno 6908 bound_to 6896
  150.7040  134.4761  159.5492 H   0  0  0  0  0  0  0  0  0  0  0  0  # atno 6909 bound_to 6896
  145.3722  139.2396  143.3449 H   0  0  0  0  0  0  0  0  0  0  0  0  # atno 7974 bound_to 7965
  156.2613  140.2011  156.6386 H   0  0  0  0  0  0  0  0  0  0  0  0  # atno 8008 bound_to 7997
  154.6627  140.0559  157.0104 H   0  0  0  0  0  0  0  0  0  0  0  0  # atno 8009 bound_to 7997
  155.1253  140.3228  155.4490 H   0  0  0  0  0  0  0  0  0  0  0  0  # atno 8010 bound_to 7997
  140.3869  143.2722  151.9313 H   0  0  0  0  0  0  0  0  0  0  0  0  # atno 10167 bound_to 10162
  157.3512  130.7599  149.6980 H   0  0  0  0  0  0  0  0  0  0  0  0  # atno 10718 bound_to 10713
  154.7725  135.4864  153.9678 H   0  0  0  0  0  0  0  0  0  0  0  0  # atno 10763 bound_to 10752
  153.1386  135.6768  153.9070 H   0  0  0  0  0  0  0  0  0  0  0  0  # atno 10764 bound_to 10752
  153.8751  135.3139  155.3422 H   0  0  0  0  0  0  0  0  0  0  0  0  # atno 10765 bound_to 10752
  141.1170  133.8594  157.1416 H   0  0  0  0  0  0  0  0  0  0  0  0  # atno 11005 bound_to 11000
  146.2880  140.4375  142.8750 LP  0  0  0  0  0  0  0  0  0  0  0  0  # atno 17320 bound_to 7965
  144.8568  140.7082  143.6133 LP  0  0  0  0  0  0  0  0  0  0  0  0  # atno 17321 bound_to 7965
  139.4791  144.5765  151.8003 LP  0  0  0  0  0  0  0  0  0  0  0  0  # atno 17342 bound_to 10162
  140.4880  144.1353  150.5944 LP  0  0  0  0  0  0  0  0  0  0  0  0  # atno 17343 bound_to 10162
  155.9722  130.4140  150.4110 LP  0  0  0  0  0  0  0  0  0  0  0  0  # atno 17370 bound_to 10713
  157.2173  131.0474  151.2566 LP  0  0  0  0  0  0  0  0  0  0  0  0  # atno 17371 bound_to 10713
  140.0099  134.9992  157.0373 LP  0  0  0  0  0  0  0  0  0  0  0  0  # atno 17394 bound_to 11000
  140.4617  134.1477  155.7192 LP  0  0  0  0  0  0  0  0  0  0  0  0  # atno 17395 bound_to 11000

$$$$
