AV-unprocessed.smi:3347|AV-procd|sdf|12912|dock3
  -GOLD-   2272019323D 1   1.00000     0.00000
 Structure written by MMmdl.
 40 42  0  0  0  0  0  0  0  0  2 V2000
  146.2670  139.3186  153.2389 O   0  0  0  0  0  0  0  0  0  0  0  0
  147.1175  138.5416  152.8067 C   0  0  0  0  0  0  0  0  0  0  0  0
  146.8419  137.5560  151.9407 N   0  0  0  0  0  0  0  0  0  0  0  0
  145.5282  137.2888  151.3632 C   0  0  0  0  0  0  0  0  0  0  0  0
  145.0004  135.8854  151.7208 C   0  0  1  0  0  0  0  0  0  0  0  0
  143.7302  135.8977  152.5659 C   0  0  0  0  0  0  0  0  0  0  0  0
  143.1869  134.4853  152.3661 C   0  0  0  0  0  0  0  0  0  0  0  0
  143.5088  134.1315  150.9665 N   0  3  2  0  0  0  0  0  0  0  0  0
  143.7672  132.6906  150.7594 C   0  0  0  0  0  0  0  0  0  0  0  0
  145.2349  132.3355  150.7543 C   0  0  0  0  0  0  0  0  0  0  0  0
  144.4615  132.3831  149.4543 C   0  0  0  0  0  0  0  0  0  0  0  0
  144.6109  135.0148  150.5169 C   0  0  0  0  0  0  0  0  0  0  0  0
  148.4201  138.5450  153.1394 N   0  0  0  0  0  0  0  0  0  0  0  0
  149.1178  139.4323  154.0040 C   0  0  0  0  0  0  0  0  0  0  0  0
  148.6010  140.6628  154.4791 C   0  0  0  0  0  0  0  0  0  0  0  0
  149.4043  141.4591  155.3178 C   0  0  0  0  0  0  0  0  0  0  0  0
  150.6954  141.0023  155.6456 C   0  0  0  0  0  0  0  0  0  0  0  0
  151.2054  139.8383  155.1913 N   0  0  0  0  0  0  0  0  0  0  0  0
  150.4297  139.0805  154.3873 C   0  0  0  0  0  0  0  0  0  0  0  0
  147.6016  136.9634  151.6385 H   0  0  0  0  0  0  0  0  0  0  0  0
  144.8211  138.0524  151.6917 H   0  0  0  0  0  0  0  0  0  0  0  0
  145.6107  137.3928  150.2810 H   0  0  0  0  0  0  0  0  0  0  0  0
  145.7634  135.3503  152.2893 H   0  0  0  0  0  0  0  0  0  0  0  0
  143.9196  136.1331  153.6137 H   0  0  0  0  0  0  0  0  0  0  0  0
  143.0198  136.6291  152.1772 H   0  0  0  0  0  0  0  0  0  0  0  0
  143.6962  133.8023  153.0483 H   0  0  0  0  0  0  0  0  0  0  0  0
  142.1162  134.4153  152.5599 H   0  0  0  0  0  0  0  0  0  0  0  0
  143.0333  132.0009  151.1731 H   0  0  0  0  0  0  0  0  0  0  0  0
  145.9578  133.1283  150.9387 H   0  0  0  0  0  0  0  0  0  0  0  0
  145.5154  131.3542  151.1313 H   0  0  0  0  0  0  0  0  0  0  0  0
  144.2323  131.4331  148.9757 H   0  0  0  0  0  0  0  0  0  0  0  0
  144.6705  133.2075  148.7749 H   0  0  0  0  0  0  0  0  0  0  0  0
  144.2323  135.6290  149.6991 H   0  0  0  0  0  0  0  0  0  0  0  0
  145.4682  134.4566  150.1367 H   0  0  0  0  0  0  0  0  0  0  0  0
  148.9775  137.7970  152.7535 H   0  0  0  0  0  0  0  0  0  0  0  0
  147.6190  141.0194  154.2107 H   0  0  0  0  0  0  0  0  0  0  0  0
  149.0400  142.4022  155.6972 H   0  0  0  0  0  0  0  0  0  0  0  0
  151.3372  141.5897  156.2852 H   0  0  0  0  0  0  0  0  0  0  0  0
  150.8726  138.1578  154.0407 H   0  0  0  0  0  0  0  0  0  0  0  0
  142.7027  134.3768  150.4093 H   0  0  0  0  0  0  0  0  0  0  0  0
  1  2  2  0  0  0  0
  2  3  1  0  0  0  0
  2 13  1  0  0  0  0
  3  4  1  0  0  0  0
  3 20  1  0  0  0  0
  4  5  1  0  0  0  0
  4 21  1  0  0  0  0
  4 22  1  0  0  0  0
  5 12  1  0  0  0  0
  5  6  1  0  0  0  0
  5 23  1  0  0  0  0
  6  7  1  0  0  0  0
  6 24  1  0  0  0  0
  6 25  1  0  0  0  0
  7  8  1  0  0  0  0
  7 26  1  0  0  0  0
  7 27  1  0  0  0  0
  8  9  1  0  0  0  0
  8 12  1  0  0  0  0
  8 40  1  0  0  0  0
  9 11  1  0  0  0  0
  9 10  1  0  0  0  0
  9 28  1  0  0  0  0
 10 11  1  0  0  0  0
 10 29  1  0  0  0  0
 10 30  1  0  0  0  0
 11 31  1  0  0  0  0
 11 32  1  0  0  0  0
 12 33  1  0  0  0  0
 12 34  1  0  0  0  0
 13 14  1  0  0  0  0
 13 35  1  0  0  0  0
 14 19  1  0  0  0  0
 14 15  2  0  0  0  0
 15 16  1  0  0  0  0
 15 36  1  0  0  0  0
 16 17  2  0  0  0  0
 16 37  1  0  0  0  0
 17 18  1  0  0  0  0
 17 38  1  0  0  0  0
 18 19  2  0  0  0  0
 19 39  1  0  0  0  0
M  CHG  1   8   1
M  END
> <s_m_source_file>
AV-unprocessed.smi

> <i_m_source_file_index>
3347

> <i_lp_mmshare_version>
43012

> <i_f3d_flags>
0

> <s_epik_input>
W2NIXTFuW2NIXVtjSF1bY0hdYzFbTkhdQyg9TylbTkhdW0NIMl1bQ0BASF0yW0NIMl1bQ0gyXU4oW0NIMl0yKVtDSF0zW0NIMl1bQ0gyXTM=

> <s_epik_cmdline>
J2VwaWtfcHl0aG9uJywgJy1waCcsICc3LjAnLCAnLXRuJywgJzgnLCAnLW1hJywgJzIwMCcsICctbWV0YWxfYmluZGluZycsICctaW1hZScsICc8aW5maWxlLm1hZT4nLCAnLW9tYWUnLCAnPG91dGZpbGUubWFlPic=

> <r_epik_Ionization_Penalty>
0.00442629

> <r_epik_Ionization_Penalty_Charging>
0.000203384

> <r_epik_Ionization_Penalty_Neutral>
0.00422291

> <r_epik_State_Penalty>
0.00301008

> <r_epik_Charging_Adjusted_Penalty>
0.00321347

> <i_epik_Tot_Q>
1

> <i_epik_Tot_abs_Q>
1

> <r_epik_Metal_State_Penalty>
-0

> <b_epik_Metal_Only>
0

> <s_lp_Force_Field>
OPLS_2005

> <r_lp_Energy>
41.3797

> <b_lp_Chiralities_Consistent>
1

> <s_lp_Variant>
AV-unprocessed.smi:3347-2

> <Gold.Version>
5.8.1

> <Gold.Id.Protein>
6NUR|6NUR_protein|mol2

> <Gold.PLP.Fitness>
48.2361

> <Gold.PLP.PLP>
-37.7116

> <Gold.PLP.part.hbond>
-4.8522

> <Gold.PLP.part.metal>
0.0000

> <Gold.PLP.part.buried>
-0.4164

> <Gold.PLP.part.nonpolar>
-34.9280

> <Gold.PLP.part.repulsive>
1.4934

> <Gold.PLP.ligand.clash>
0.0000

> <Gold.PLP.ligand.torsion>
1.4151

> <Gold.PLP.Chemscore.Hbond>
4.0315

> <Gold.PLP.Chemscore.CHOScore>
0.0000

> <Gold.PLP.Chemscore.Metal>
0.0000

> <Gold.Chemscore.Hbonds>
donor molecule, donor type, donor heavy atom, donor atom, acceptor molecule, acceptor atom, score
      L1  H     3    20       P1  7948  0.98
      L1  H     8    40       P1 10186  2.00
      L1  H    13    35       P1  7948  0.94
      P1  H  7989  7998       L1    18  0.08

> <Gold.PLP.Chemscore.Internal.Correction>
1.2603

> <Gold.Rescore>
     Score         DG    S(hbond)    S(metal)    S(lipo)     H(rot)  DE(clash)    DE(int)     intcor
     16.65     -21.70       2.76        0.00      90.86       1.42       2.49       2.56       ----

> <Gold.Chemscore.Fitness>
16.6512

> <Gold.Chemscore.DG>
-21.7005

> <Gold.Chemscore.ZeroCoef>
-5.4800

> <Gold.Chemscore.Hbond>
2.7635

> <Gold.Chemscore.Metal>
0.0000

> <Gold.Chemscore.Lipo>
90.8577

> <Gold.Chemscore.Internal_Hbond>
0.0000

> <Gold.Chemscore.DEClash>
2.4853

> <Gold.Chemscore.DEInternal>
2.5639

> <Gold.Chemscore.Rot>
1.4219

> <Gold.Chemscore.Internal.Correction>
   9.000000E+99

> <Gold.Chemscore.Hbonds>
donor molecule, donor type, donor heavy atom, donor atom, acceptor molecule, acceptor atom, score
      L1  H     3    20       P1  7948  0.91
      L1  H     8    40       P1 10186  0.65
      L1  H    13    35       P1  7948  0.91

> <Gold.Chemscore.Hbond.Weighted>
-9.2302

> <Gold.Chemscore.Metal.Weighted>
-0.0000

> <Gold.Chemscore.Lipo.Weighted>
-10.6303

> <Gold.Chemscore.Internal_Hbond.Weighted>
0.0000

> <Gold.Chemscore.DEClash.Weighted>
2.4853

> <Gold.Chemscore.DEInternal.Weighted>
2.5639

> <Gold.Chemscore.Rot.Weighted>
3.6401

> <Gold.Chemscore.Internal.Correction.Weighted>
   9.000000E+99

> <Gold.Protein.RotatedTorsions>
[ 6907 6896 6895 6894 ] final  172.85 input  -60.11 | X-H torsion
[ 7974 7965 7964 7962 ] final  164.00 input  175.53 | X-H torsion
[ 8008 7997 7996 7995 ] final -131.24 input   59.86 | X-H torsion
[ 10167 10162 10161 10158 ] final   67.16 input  -65.29 | X-H torsion
[ 10718 10713 10712 10709 ] final   19.78 input   66.30 | X-H torsion
[ 10763 10752 10751 10750 ] final   81.54 input  -60.55 | X-H torsion
[ 11005 11000 10999 10996 ] final -139.46 input  -57.11 | X-H torsion

> <Gold.Protein.ActiveResidues>
 VAL166  LYS551  ARG553  GLY616  TRP617  ASP618  TYR619  PRO620  LYS621  CYS622 
 ASP623  PHE694  ASN695  SER759  ASP760  ASP761  ALA762  ILE779  LEU786  VAL792 
 PHE793  MET794  SER795  GLU796  ALA797  LYS798  CYS799  TRP800  GLU811  SER814 

> <Gold.Protein.RotatedAtoms>
  151.7777  133.3347  159.3462 H   0  0  0  0  0  0  0  0  0  0  0  0  # atno 6907 bound_to 6896
  150.7438  134.5959  159.6021 H   0  0  0  0  0  0  0  0  0  0  0  0  # atno 6908 bound_to 6896
  152.3297  134.7276  160.0344 H   0  0  0  0  0  0  0  0  0  0  0  0  # atno 6909 bound_to 6896
  144.7564  139.8263  143.6348 H   0  0  0  0  0  0  0  0  0  0  0  0  # atno 7974 bound_to 7965
  155.3090  140.0456  157.3034 H   0  0  0  0  0  0  0  0  0  0  0  0  # atno 8008 bound_to 7997
  154.5443  140.2298  155.8555 H   0  0  0  0  0  0  0  0  0  0  0  0  # atno 8009 bound_to 7997
  156.1910  140.3050  155.9339 H   0  0  0  0  0  0  0  0  0  0  0  0  # atno 8010 bound_to 7997
  140.0926  144.4975  150.7089 H   0  0  0  0  0  0  0  0  0  0  0  0  # atno 10167 bound_to 10162
  157.1152  130.6526  149.5908 H   0  0  0  0  0  0  0  0  0  0  0  0  # atno 10718 bound_to 10713
  153.1125  135.4761  154.9060 H   0  0  0  0  0  0  0  0  0  0  0  0  # atno 10763 bound_to 10752
  154.7495  135.3102  154.8585 H   0  0  0  0  0  0  0  0  0  0  0  0  # atno 10764 bound_to 10752
  153.9170  135.6859  153.4802 H   0  0  0  0  0  0  0  0  0  0  0  0  # atno 10765 bound_to 10752
  140.8517  134.2277  157.4756 H   0  0  0  0  0  0  0  0  0  0  0  0  # atno 11005 bound_to 11000
  146.1579  139.4684  143.0007 LP  0  0  0  0  0  0  0  0  0  0  0  0  # atno 17320 bound_to 7965
  145.6764  141.0203  143.1630 LP  0  0  0  0  0  0  0  0  0  0  0  0  # atno 17321 bound_to 7965
  140.7020  143.2442  151.4835 LP  0  0  0  0  0  0  0  0  0  0  0  0  # atno 17342 bound_to 10162
  139.5716  144.1915  152.1844 LP  0  0  0  0  0  0  0  0  0  0  0  0  # atno 17343 bound_to 10162
  155.9841  130.4864  150.6966 LP  0  0  0  0  0  0  0  0  0  0  0  0  # atno 17370 bound_to 10713
  157.4524  131.0874  151.0832 LP  0  0  0  0  0  0  0  0  0  0  0  0  # atno 17371 bound_to 10713
  139.8704  134.9686  156.4639 LP  0  0  0  0  0  0  0  0  0  0  0  0  # atno 17394 bound_to 11000
  140.8782  133.7937  155.9438 LP  0  0  0  0  0  0  0  0  0  0  0  0  # atno 17395 bound_to 11000

$$$$
