AV-unprocessed.smi:1250|AV-procd|sdf|5254|dock4
  -GOLD-   22720 4363D 1   1.00000     0.00000
 Structure written by MMmdl.
 41 42  0  0  0  0  0  0  0  0  1 V2000
  148.1310  133.4578  153.2201 C   0  0  0  0  0  0  0  0  0  0  0  0
  149.4647  133.4736  153.9880 C   0  0  0  0  0  0  0  0  0  0  0  0
  149.7389  132.0723  154.5723 C   0  0  0  0  0  0  0  0  0  0  0  0
  149.5073  134.5851  155.0708 C   0  0  2  0  0  0  0  0  0  0  0  0
  148.1817  134.7473  155.8366 C   0  0  0  0  0  0  0  0  0  0  0  0
  149.8546  135.8645  154.4570 N   0  0  0  0  0  0  0  0  0  0  0  0
  150.6283  136.8175  155.0035 C   0  0  0  0  0  0  0  0  0  0  0  0
  151.0626  136.7608  156.1537 O   0  0  0  0  0  0  0  0  0  0  0  0
  150.9721  138.0203  154.1169 C   0  0  0  0  0  0  0  0  0  0  0  0
  150.5596  139.3117  154.7693 C   0  0  0  0  0  0  0  0  0  0  0  0
  149.5513  140.1507  154.3619 C   0  0  0  0  0  0  0  0  0  0  0  0
  149.4327  141.5676  155.3688 S   0  0  0  0  0  0  0  0  0  0  0  0
  150.7806  140.9554  156.3319 C   0  0  0  0  0  0  0  0  0  0  0  0
  151.3814  141.5979  157.4552 N   0  0  0  0  0  0  0  0  0  0  0  0
  150.9411  142.9122  157.9130 C   0  0  0  0  0  0  0  0  0  0  0  0
  151.9397  143.3396  158.9941 C   0  0  0  0  0  0  0  0  0  0  0  0
  152.7065  142.0710  159.3612 C   0  0  0  0  0  0  0  0  0  0  0  0
  152.3501  141.1024  158.2456 C   0  0  0  0  0  0  0  0  0  0  0  0
  152.9143  140.0149  158.1351 O   0  0  0  0  0  0  0  0  0  0  0  0
  151.2386  139.7754  155.9019 N   0  0  0  0  0  0  0  0  0  0  0  0
  147.2867  133.3175  153.8959 H   0  0  0  0  0  0  0  0  0  0  0  0
  148.1084  132.6477  152.4905 H   0  0  0  0  0  0  0  0  0  0  0  0
  147.9693  134.3827  152.6675 H   0  0  0  0  0  0  0  0  0  0  0  0
  150.2543  133.6778  153.2633 H   0  0  0  0  0  0  0  0  0  0  0  0
  149.0234  131.8242  155.3568 H   0  0  0  0  0  0  0  0  0  0  0  0
  150.7394  131.9952  154.9981 H   0  0  0  0  0  0  0  0  0  0  0  0
  149.6656  131.3038  153.8023 H   0  0  0  0  0  0  0  0  0  0  0  0
  150.2833  134.3165  155.7903 H   0  0  0  0  0  0  0  0  0  0  0  0
  147.9364  133.8563  156.4137 H   0  0  0  0  0  0  0  0  0  0  0  0
  147.3523  134.9468  155.1574 H   0  0  0  0  0  0  0  0  0  0  0  0
  148.2367  135.5749  156.5445 H   0  0  0  0  0  0  0  0  0  0  0  0
  149.5372  136.0080  153.5092 H   0  0  0  0  0  0  0  0  0  0  0  0
  152.0446  138.0107  153.9198 H   0  0  0  0  0  0  0  0  0  0  0  0
  150.4787  137.9102  153.1504 H   0  0  0  0  0  0  0  0  0  0  0  0
  148.8803  140.0272  153.5247 H   0  0  0  0  0  0  0  0  0  0  0  0
  150.9126  143.6338  157.0955 H   0  0  0  0  0  0  0  0  0  0  0  0
  149.9351  142.8283  158.3266 H   0  0  0  0  0  0  0  0  0  0  0  0
  152.6277  144.0866  158.5957 H   0  0  0  0  0  0  0  0  0  0  0  0
  151.4384  143.7803  159.8566 H   0  0  0  0  0  0  0  0  0  0  0  0
  153.7824  142.2403  159.4146 H   0  0  0  0  0  0  0  0  0  0  0  0
  152.3682  141.6643  160.3148 H   0  0  0  0  0  0  0  0  0  0  0  0
  1  2  1  0  0  0  0
  1 21  1  0  0  0  0
  1 22  1  0  0  0  0
  1 23  1  0  0  0  0
  2  3  1  0  0  0  0
  2  4  1  0  0  0  0
  2 24  1  0  0  0  0
  3 25  1  0  0  0  0
  3 26  1  0  0  0  0
  3 27  1  0  0  0  0
  4  5  1  0  0  0  0
  4  6  1  0  0  0  0
  4 28  1  0  0  0  0
  5 29  1  0  0  0  0
  5 30  1  0  0  0  0
  5 31  1  0  0  0  0
  6  7  1  0  0  0  0
  6 32  1  0  0  0  0
  7  8  2  0  0  0  0
  7  9  1  0  0  0  0
  9 10  1  0  0  0  0
  9 33  1  0  0  0  0
  9 34  1  0  0  0  0
 10 20  1  0  0  0  0
 10 11  2  0  0  0  0
 11 12  1  0  0  0  0
 11 35  1  0  0  0  0
 12 13  1  0  0  0  0
 13 14  1  0  0  0  0
 13 20  2  0  0  0  0
 14 18  1  0  0  0  0
 14 15  1  0  0  0  0
 15 16  1  0  0  0  0
 15 36  1  0  0  0  0
 15 37  1  0  0  0  0
 16 17  1  0  0  0  0
 16 38  1  0  0  0  0
 16 39  1  0  0  0  0
 17 18  1  0  0  0  0
 17 40  1  0  0  0  0
 17 41  1  0  0  0  0
 18 19  2  0  0  0  0
M  END
> <s_m_source_file>
AV-unprocessed.smi

> <i_m_source_file_index>
1250

> <i_lp_mmshare_version>
43012

> <i_f3d_flags>
0

> <s_epik_input>
W0NIM11bQ0hdKFtDSDNdKVtDQEhdKFtDSDNdKVtOSF1DKD1PKVtDSDJdYzFbY0hdc2MobjEpTjJbQ0gyXVtDSDJdW0NIMl1DMj1P

> <s_epik_cmdline>
J2VwaWtfcHl0aG9uJywgJy1waCcsICc3LjAnLCAnLXRuJywgJzgnLCAnLW1hJywgJzIwMCcsICctbWV0YWxfYmluZGluZycsICctaW1hZScsICc8aW5maWxlLm1hZT4nLCAnLW9tYWUnLCAnPG91dGZpbGUubWFlPic=

> <r_lp_tautomer_probability>
1

> <r_epik_Ionization_Penalty>
3.03552e-05

> <r_epik_Ionization_Penalty_Charging>
0

> <r_epik_Ionization_Penalty_Neutral>
3.03552e-05

> <r_epik_State_Penalty>
-0

> <r_epik_Charging_Adjusted_Penalty>
0

> <i_epik_Tot_Q>
0

> <i_epik_Tot_abs_Q>
0

> <r_epik_Metal_State_Penalty>
-0

> <b_epik_Metal_Only>
0

> <s_lp_Force_Field>
OPLS_2005

> <r_lp_Energy>
18.568

> <b_lp_Chiralities_Consistent>
1

> <s_lp_Variant>
AV-unprocessed.smi:1250-1

> <Gold.Version>
5.8.1

> <Gold.Id.Protein>
6NUR|6NUR_protein|mol2

> <Gold.PLP.Fitness>
47.3980

> <Gold.PLP.PLP>
-40.2238

> <Gold.PLP.part.hbond>
-2.1726

> <Gold.PLP.part.metal>
0.0000

> <Gold.PLP.part.buried>
-2.0231

> <Gold.PLP.part.nonpolar>
-35.2988

> <Gold.PLP.part.repulsive>
0.0630

> <Gold.PLP.ligand.clash>
0.0000

> <Gold.PLP.ligand.torsion>
0.9233

> <Gold.PLP.Chemscore.Hbond>
2.0000

> <Gold.PLP.Chemscore.CHOScore>
0.9951

> <Gold.PLP.Chemscore.Metal>
0.0000

> <Gold.Chemscore.Hbonds>
donor molecule, donor type, donor heavy atom, donor atom, acceptor molecule, acceptor atom, score
      L1  H     6    32       P1  7948  1.00
      P1  H  7997  8009       L1    19  1.00
      L1  C    11    35       P1  7957  0.88

> <Gold.PLP.Chemscore.Internal.Correction>
0.0355

> <Gold.Rescore>
     Score         DG    S(hbond)    S(metal)    S(lipo)     H(rot)  DE(clash)    DE(int)     intcor
     15.00     -17.38       1.79        0.00      85.17       1.58       0.05       2.33       ----

> <Gold.Chemscore.Fitness>
15.0006

> <Gold.Chemscore.DG>
-17.3775

> <Gold.Chemscore.ZeroCoef>
-5.4800

> <Gold.Chemscore.Hbond>
1.7879

> <Gold.Chemscore.Metal>
0.0000

> <Gold.Chemscore.Lipo>
85.1658

> <Gold.Chemscore.Internal_Hbond>
0.0000

> <Gold.Chemscore.DEClash>
0.0461

> <Gold.Chemscore.DEInternal>
2.3308

> <Gold.Chemscore.Rot>
1.5775

> <Gold.Chemscore.Internal.Correction>
   9.000000E+99

> <Gold.Chemscore.Hbonds>
donor molecule, donor type, donor heavy atom, donor atom, acceptor molecule, acceptor atom, score
      L1  H     6    32       P1  7948  0.35
      P1  H  7997  8009       L1    19  0.81

> <Gold.Chemscore.Hbond.Weighted>
-5.9716

> <Gold.Chemscore.Metal.Weighted>
-0.0000

> <Gold.Chemscore.Lipo.Weighted>
-9.9644

> <Gold.Chemscore.Internal_Hbond.Weighted>
0.0000

> <Gold.Chemscore.DEClash.Weighted>
0.0461

> <Gold.Chemscore.DEInternal.Weighted>
2.3308

> <Gold.Chemscore.Rot.Weighted>
4.0385

> <Gold.Chemscore.Internal.Correction.Weighted>
   9.000000E+99

> <Gold.Protein.RotatedTorsions>
[ 6907 6896 6895 6894 ] final  -32.75 input  -60.11 | X-H torsion
[ 7974 7965 7964 7962 ] final  110.59 input  175.53 | X-H torsion
[ 8008 7997 7996 7995 ] final  149.66 input   59.86 | X-H torsion
[ 10167 10162 10161 10158 ] final  -18.24 input  -65.29 | X-H torsion
[ 10718 10713 10712 10709 ] final -177.78 input   66.30 | X-H torsion
[ 10763 10752 10751 10750 ] final  133.46 input  -60.55 | X-H torsion
[ 11005 11000 10999 10996 ] final  143.88 input  -57.11 | X-H torsion

> <Gold.Protein.ActiveResidues>
 VAL166  LYS551  ARG553  GLY616  TRP617  ASP618  TYR619  PRO620  LYS621  CYS622 
 ASP623  PHE694  ASN695  SER759  ASP760  ASP761  ALA762  ILE779  LEU786  VAL792 
 PHE793  MET794  SER795  GLU796  ALA797  LYS798  CYS799  TRP800  GLU811  SER814 

> <Gold.Protein.RotatedAtoms>
  151.0746  134.9820  159.8325 H   0  0  0  0  0  0  0  0  0  0  0  0  # atno 6907 bound_to 6896
  152.5412  134.2257  159.8815 H   0  0  0  0  0  0  0  0  0  0  0  0  # atno 6908 bound_to 6896
  151.2283  133.4420  159.2636 H   0  0  0  0  0  0  0  0  0  0  0  0  # atno 6909 bound_to 6896
  145.2530  139.2732  143.4057 H   0  0  0  0  0  0  0  0  0  0  0  0  # atno 7974 bound_to 7965
  156.2746  140.2096  156.5894 H   0  0  0  0  0  0  0  0  0  0  0  0  # atno 8008 bound_to 7997
  154.6995  140.0522  157.0467 H   0  0  0  0  0  0  0  0  0  0  0  0  # atno 8009 bound_to 7997
  155.0755  140.3181  155.4620 H   0  0  0  0  0  0  0  0  0  0  0  0  # atno 8010 bound_to 7997
  140.7256  143.4935  150.9960 H   0  0  0  0  0  0  0  0  0  0  0  0  # atno 10167 bound_to 10162
  156.8346  130.9665  151.3104 H   0  0  0  0  0  0  0  0  0  0  0  0  # atno 10718 bound_to 10713
  153.8074  135.3133  155.3397 H   0  0  0  0  0  0  0  0  0  0  0  0  # atno 10763 bound_to 10752
  154.8065  135.4694  154.0408 H   0  0  0  0  0  0  0  0  0  0  0  0  # atno 10764 bound_to 10752
  153.1775  135.6888  153.8611 H   0  0  0  0  0  0  0  0  0  0  0  0  # atno 10765 bound_to 10752
  140.0588  134.9216  157.1148 H   0  0  0  0  0  0  0  0  0  0  0  0  # atno 11005 bound_to 11000
  146.3297  140.2926  142.8616 LP  0  0  0  0  0  0  0  0  0  0  0  0  # atno 17320 bound_to 7965
  144.9486  140.8154  143.5586 LP  0  0  0  0  0  0  0  0  0  0  0  0  # atno 17321 bound_to 7965
  139.8641  143.7276  152.3171 LP  0  0  0  0  0  0  0  0  0  0  0  0  # atno 17342 bound_to 10162
  139.7502  144.7536  151.0518 LP  0  0  0  0  0  0  0  0  0  0  0  0  # atno 17343 bound_to 10162
  157.6388  130.8789  149.9410 LP  0  0  0  0  0  0  0  0  0  0  0  0  # atno 17370 bound_to 10713
  156.0915  130.3663  150.0386 LP  0  0  0  0  0  0  0  0  0  0  0  0  # atno 17371 bound_to 10713
  140.3802  134.2295  155.7171 LP  0  0  0  0  0  0  0  0  0  0  0  0  # atno 17394 bound_to 11000
  141.1964  133.8083  157.0674 LP  0  0  0  0  0  0  0  0  0  0  0  0  # atno 17395 bound_to 11000

$$$$
