AV-unprocessed.smi:2710|AV-procd|sdf|10468|dock10
  -GOLD-   2272014503D 1   1.00000     0.00000
 Structure written by MMmdl.
 53 54  0  0  0  0  0  0  0  0  2 V2000
  149.6137  133.2218  153.0488 C   0  0  0  0  0  0  0  0  0  0  0  0
  148.3646  132.9442  152.1991 C   0  0  0  0  0  0  0  0  0  0  0  0
  147.3323  134.0104  152.3057 N   0  3  2  0  0  0  0  0  0  0  0  0
  146.7450  134.0856  153.6703 C   0  0  0  0  0  0  0  0  0  0  0  0
  145.8459  135.3225  153.8287 C   0  0  0  0  0  0  0  0  0  0  0  0
  144.7409  135.3465  152.7634 C   0  0  1  0  0  0  0  0  0  0  0  0
  143.9491  136.5666  152.8936 N   0  0  0  0  0  0  0  0  0  0  0  0
  142.7389  136.6409  153.4668 C   0  0  0  0  0  0  0  0  0  0  0  0
  142.1591  135.6684  153.9484 O   0  0  0  0  0  0  0  0  0  0  0  0
  142.2695  137.9001  153.4469 N   0  0  0  0  0  0  0  0  0  0  0  0
  141.0368  138.4012  153.9473 C   0  0  0  0  0  0  0  0  0  0  0  0
  140.9780  139.7394  154.3853 C   0  0  0  0  0  0  0  0  0  0  0  0
  139.8418  140.2880  154.8634 N   0  0  0  0  0  0  0  0  0  0  0  0
  138.7576  139.5052  154.9391 C   0  0  0  0  0  0  0  0  0  0  0  0
  137.4345  140.1748  155.3504 C   0  0  0  0  0  0  0  0  0  0  0  0
  136.2942  139.1351  155.4562 C   0  0  0  0  0  0  0  0  0  0  0  0
  137.0581  141.2499  154.3142 C   0  0  0  0  0  0  0  0  0  0  0  0
  137.5506  140.8243  156.7494 C   0  0  0  0  0  0  0  0  0  0  0  0
  138.6919  138.2401  154.5040 N   0  0  0  0  0  0  0  0  0  0  0  0
  139.8218  137.6780  154.0241 C   0  0  0  0  0  0  0  0  0  0  0  0
  145.3799  135.2508  151.3649 C   0  0  0  0  0  0  0  0  0  0  0  0
  146.2983  134.0186  151.2235 C   0  0  2  0  0  0  0  0  0  0  0  0
  145.4953  132.7036  151.1212 C   0  0  0  0  0  0  0  0  0  0  0  0
  150.2797  132.3583  153.0416 H   0  0  0  0  0  0  0  0  0  0  0  0
  149.3490  133.4248  154.0870 H   0  0  0  0  0  0  0  0  0  0  0  0
  150.1860  134.0687  152.6708 H   0  0  0  0  0  0  0  0  0  0  0  0
  148.6376  132.7718  151.1580 H   0  0  0  0  0  0  0  0  0  0  0  0
  147.9291  132.0083  152.5514 H   0  0  0  0  0  0  0  0  0  0  0  0
  146.1836  133.1763  153.8877 H   0  0  0  0  0  0  0  0  0  0  0  0
  147.5450  134.1378  154.4097 H   0  0  0  0  0  0  0  0  0  0  0  0
  145.4044  135.3311  154.8261 H   0  0  0  0  0  0  0  0  0  0  0  0
  146.4552  136.2244  153.7527 H   0  0  0  0  0  0  0  0  0  0  0  0
  144.0881  134.4871  152.9266 H   0  0  0  0  0  0  0  0  0  0  0  0
  144.3550  137.4166  152.5301 H   0  0  0  0  0  0  0  0  0  0  0  0
  142.8860  138.5951  153.0519 H   0  0  0  0  0  0  0  0  0  0  0  0
  141.8474  140.3795  154.3478 H   0  0  0  0  0  0  0  0  0  0  0  0
  135.3660  139.5971  155.7946 H   0  0  0  0  0  0  0  0  0  0  0  0
  136.5429  138.3434  156.1643 H   0  0  0  0  0  0  0  0  0  0  0  0
  136.0787  138.6645  154.4963 H   0  0  0  0  0  0  0  0  0  0  0  0
  136.9312  140.8162  153.3216 H   0  0  0  0  0  0  0  0  0  0  0  0
  137.8300  142.0171  154.2415 H   0  0  0  0  0  0  0  0  0  0  0  0
  136.1242  141.7473  154.5783 H   0  0  0  0  0  0  0  0  0  0  0  0
  136.6014  141.2581  157.0659 H   0  0  0  0  0  0  0  0  0  0  0  0
  138.2850  141.6304  156.7663 H   0  0  0  0  0  0  0  0  0  0  0  0
  137.8438  140.0930  157.5035 H   0  0  0  0  0  0  0  0  0  0  0  0
  139.7215  136.6576  153.6905 H   0  0  0  0  0  0  0  0  0  0  0  0
  144.6075  135.2282  150.5949 H   0  0  0  0  0  0  0  0  0  0  0  0
  145.9652  136.1522  151.1752 H   0  0  0  0  0  0  0  0  0  0  0  0
  146.8165  134.1456  150.2736 H   0  0  0  0  0  0  0  0  0  0  0  0
  144.7419  132.7744  150.3363 H   0  0  0  0  0  0  0  0  0  0  0  0
  144.9741  132.4605  152.0465 H   0  0  0  0  0  0  0  0  0  0  0  0
  146.1329  131.8579  150.8654 H   0  0  0  0  0  0  0  0  0  0  0  0
  147.8393  134.8767  152.1929 H   0  0  0  0  0  0  0  0  0  0  0  0
  1  2  1  0  0  0  0
  1 24  1  0  0  0  0
  1 25  1  0  0  0  0
  1 26  1  0  0  0  0
  2  3  1  0  0  0  0
  2 27  1  0  0  0  0
  2 28  1  0  0  0  0
  3 22  1  0  0  0  0
  3  4  1  0  0  0  0
  3 53  1  0  0  0  0
  4  5  1  0  0  0  0
  4 29  1  0  0  0  0
  4 30  1  0  0  0  0
  5  6  1  0  0  0  0
  5 31  1  0  0  0  0
  5 32  1  0  0  0  0
  6  7  1  0  0  0  0
  6 21  1  0  0  0  0
  6 33  1  0  0  0  0
  7  8  1  0  0  0  0
  7 34  1  0  0  0  0
  8  9  2  0  0  0  0
  8 10  1  0  0  0  0
 10 11  1  0  0  0  0
 10 35  1  0  0  0  0
 11 20  1  0  0  0  0
 11 12  2  0  0  0  0
 12 13  1  0  0  0  0
 12 36  1  0  0  0  0
 13 14  2  0  0  0  0
 14 15  1  0  0  0  0
 14 19  1  0  0  0  0
 15 16  1  0  0  0  0
 15 17  1  0  0  0  0
 15 18  1  0  0  0  0
 16 37  1  0  0  0  0
 16 38  1  0  0  0  0
 16 39  1  0  0  0  0
 17 40  1  0  0  0  0
 17 41  1  0  0  0  0
 17 42  1  0  0  0  0
 18 43  1  0  0  0  0
 18 44  1  0  0  0  0
 18 45  1  0  0  0  0
 19 20  2  0  0  0  0
 20 46  1  0  0  0  0
 21 22  1  0  0  0  0
 21 47  1  0  0  0  0
 21 48  1  0  0  0  0
 22 23  1  0  0  0  0
 22 49  1  0  0  0  0
 23 50  1  0  0  0  0
 23 51  1  0  0  0  0
 23 52  1  0  0  0  0
M  CHG  1   3   1
M  END
> <s_m_source_file>
AV-unprocessed.smi

> <i_m_source_file_index>
2710

> <i_lp_mmshare_version>
43012

> <i_f3d_flags>
0

> <s_epik_input>
W0NIM11bQ0gyXU4xW0NIMl1bQ0gyXVtDQEhdKFtDSDJdW0NASF0xW0NIM10pW05IXUMoPU8pW05IXWMyW2NIXW5jKEMoW0NIM10pKFtDSDNdKVtDSDNdKW5bY0hdMg==

> <s_epik_cmdline>
J2VwaWtfcHl0aG9uJywgJy1waCcsICc3LjAnLCAnLXRuJywgJzgnLCAnLW1hJywgJzIwMCcsICctbWV0YWxfYmluZGluZycsICctaW1hZScsICc8aW5maWxlLm1hZT4nLCAnLW9tYWUnLCAnPG91dGZpbGUubWFlPic=

> <r_lp_tautomer_probability>
1

> <r_epik_Ionization_Penalty>
0.00396003

> <r_epik_Ionization_Penalty_Charging>
0.0039379

> <r_epik_Ionization_Penalty_Neutral>
2.21316e-05

> <r_epik_State_Penalty>
0.00281651

> <r_epik_Charging_Adjusted_Penalty>
0.00675441

> <i_epik_Tot_Q>
1

> <i_epik_Tot_abs_Q>
1

> <r_epik_Metal_State_Penalty>
-0

> <b_epik_Metal_Only>
0

> <s_lp_Force_Field>
OPLS_2005

> <r_lp_Energy>
21.0502

> <b_lp_Chiralities_Consistent>
1

> <s_lp_Variant>
AV-unprocessed.smi:2710-5

> <Gold.Version>
5.8.1

> <Gold.Id.Protein>
6NUR|6NUR_protein|mol2

> <Gold.PLP.Fitness>
46.4506

> <Gold.PLP.PLP>
-32.8555

> <Gold.PLP.part.hbond>
-2.0000

> <Gold.PLP.part.metal>
0.0000

> <Gold.PLP.part.buried>
-4.3268

> <Gold.PLP.part.nonpolar>
-26.4742

> <Gold.PLP.part.repulsive>
0.4294

> <Gold.PLP.ligand.clash>
0.0000

> <Gold.PLP.ligand.torsion>
0.6707

> <Gold.PLP.Chemscore.Hbond>
3.0000

> <Gold.PLP.Chemscore.CHOScore>
1.9212

> <Gold.PLP.Chemscore.Metal>
0.0000

> <Gold.Chemscore.Hbonds>
donor molecule, donor type, donor heavy atom, donor atom, acceptor molecule, acceptor atom, score
      L1  H     3    53       P1  7948  2.00
      L1  H    10    35       P1 10175  0.91
      L1  C    12    36       P1 10175  0.92

> <Gold.PLP.Chemscore.Internal.Correction>
0.1730

> <Gold.Rescore>
     Score         DG    S(hbond)    S(metal)    S(lipo)     H(rot)  DE(clash)    DE(int)     intcor
     17.50     -18.02       1.96        0.00      79.80       1.31       0.10       0.42       ----

> <Gold.Chemscore.Fitness>
17.5027

> <Gold.Chemscore.DG>
-18.0248

> <Gold.Chemscore.ZeroCoef>
-5.4800

> <Gold.Chemscore.Hbond>
1.9633

> <Gold.Chemscore.Metal>
0.0000

> <Gold.Chemscore.Lipo>
79.7960

> <Gold.Chemscore.Internal_Hbond>
0.0000

> <Gold.Chemscore.DEClash>
0.1024

> <Gold.Chemscore.DEInternal>
0.4197

> <Gold.Chemscore.Rot>
1.3081

> <Gold.Chemscore.Internal.Correction>
   9.000000E+99

> <Gold.Chemscore.Hbonds>
donor molecule, donor type, donor heavy atom, donor atom, acceptor molecule, acceptor atom, score
      L1  H     3    53       P1  7948  0.74
      L1  H    10    35       P1 10175  0.88

> <Gold.Chemscore.Hbond.Weighted>
-6.5575

> <Gold.Chemscore.Metal.Weighted>
-0.0000

> <Gold.Chemscore.Lipo.Weighted>
-9.3361

> <Gold.Chemscore.Internal_Hbond.Weighted>
0.0000

> <Gold.Chemscore.DEClash.Weighted>
0.1024

> <Gold.Chemscore.DEInternal.Weighted>
0.4197

> <Gold.Chemscore.Rot.Weighted>
3.3488

> <Gold.Chemscore.Internal.Correction.Weighted>
   9.000000E+99

> <Gold.Protein.RotatedTorsions>
[ 6907 6896 6895 6894 ] final  -64.45 input  -60.11 | X-H torsion
[ 7974 7965 7964 7962 ] final  143.63 input  175.53 | X-H torsion
[ 8008 7997 7996 7995 ] final   -6.42 input   59.86 | X-H torsion
[ 10167 10162 10161 10158 ] final  130.65 input  -65.29 | X-H torsion
[ 10718 10713 10712 10709 ] final  -62.38 input   66.30 | X-H torsion
[ 10763 10752 10751 10750 ] final  164.35 input  -60.55 | X-H torsion
[ 11005 11000 10999 10996 ] final   84.50 input  -57.11 | X-H torsion

> <Gold.Protein.ActiveResidues>
 VAL166  LYS551  ARG553  GLY616  TRP617  ASP618  TYR619  PRO620  LYS621  CYS622 
 ASP623  PHE694  ASN695  SER759  ASP760  ASP761  ALA762  ILE779  LEU786  VAL792 
 PHE793  MET794  SER795  GLU796  ALA797  LYS798  CYS799  TRP800  GLU811  SER814 

> <Gold.Protein.RotatedAtoms>
  150.7584  134.6296  159.6178 H   0  0  0  0  0  0  0  0  0  0  0  0  # atno 6907 bound_to 6896
  152.3577  134.6913  160.0226 H   0  0  0  0  0  0  0  0  0  0  0  0  # atno 6908 bound_to 6896
  151.7313  133.3282  159.3377 H   0  0  0  0  0  0  0  0  0  0  0  0  # atno 6909 bound_to 6896
  144.8904  139.5567  143.5801 H   0  0  0  0  0  0  0  0  0  0  0  0  # atno 7974 bound_to 7965
  154.5939  140.2433  155.7883 H   0  0  0  0  0  0  0  0  0  0  0  0  # atno 8008 bound_to 7997
  156.2266  140.2980  156.0035 H   0  0  0  0  0  0  0  0  0  0  0  0  # atno 8009 bound_to 7997
  155.2327  140.0404  157.2955 H   0  0  0  0  0  0  0  0  0  0  0  0  # atno 8010 bound_to 7997
  139.5420  144.6739  151.4594 H   0  0  0  0  0  0  0  0  0  0  0  0  # atno 10167 bound_to 10162
  156.0859  130.4208  150.1126 H   0  0  0  0  0  0  0  0  0  0  0  0  # atno 10718 bound_to 10713
  154.3075  135.2758  155.2582 H   0  0  0  0  0  0  0  0  0  0  0  0  # atno 10763 bound_to 10752
  154.4991  135.5813  153.6521 H   0  0  0  0  0  0  0  0  0  0  0  0  # atno 10764 bound_to 10752
  152.9892  135.6153  154.3250 H   0  0  0  0  0  0  0  0  0  0  0  0  # atno 10765 bound_to 10752
  139.8998  134.8221  156.2454 H   0  0  0  0  0  0  0  0  0  0  0  0  # atno 11005 bound_to 11000
  146.3050  139.7550  142.9063 LP  0  0  0  0  0  0  0  0  0  0  0  0  # atno 17320 bound_to 7965
  145.3793  141.0355  143.3186 LP  0  0  0  0  0  0  0  0  0  0  0  0  # atno 17321 bound_to 7965
  140.6654  143.8410  150.6935 LP  0  0  0  0  0  0  0  0  0  0  0  0  # atno 17342 bound_to 10162
  140.1817  143.4109  152.1928 LP  0  0  0  0  0  0  0  0  0  0  0  0  # atno 17343 bound_to 10162
  156.9147  130.9663  151.3558 LP  0  0  0  0  0  0  0  0  0  0  0  0  # atno 17370 bound_to 10713
  157.5993  130.8501  149.8778 LP  0  0  0  0  0  0  0  0  0  0  0  0  # atno 17371 bound_to 10713
  141.0258  133.7016  156.1345 LP  0  0  0  0  0  0  0  0  0  0  0  0  # atno 17394 bound_to 11000
  140.7168  134.4402  157.5578 LP  0  0  0  0  0  0  0  0  0  0  0  0  # atno 17395 bound_to 11000

$$$$
