AV-unprocessed.smi:809|AV-procd|sdf|3808|dock8
  -GOLD-   22720 1243D 1   1.00000     0.00000
 Structure written by MMmdl.
 39 40  0  0  0  0  0  0  0  0  3 V2000
  145.3649  137.4025  162.2627 C   0  0  0  0  0  0  0  0  0  0  0  0
  146.2539  136.3843  161.6210 C   0  0  0  0  0  0  0  0  0  0  0  0
  146.1015  135.0224  161.6451 C   0  0  0  0  0  0  0  0  0  0  0  0
  147.3720  134.2181  160.7685 S   0  0  0  0  0  0  0  0  0  0  0  0
  148.0826  135.7869  160.3820 C   0  0  0  0  0  0  0  0  0  0  0  0
  149.2018  135.9670  159.6618 N   0  5  0  0  0  0  0  0  0  0  0  0
  149.3149  137.0396  158.8476 C   0  0  0  0  0  0  0  0  0  0  0  0
  148.6087  138.0502  158.8725 O   0  0  0  0  0  0  0  0  0  0  0  0
  150.2959  136.9233  157.9404 N   0  0  0  0  0  0  0  0  0  0  0  0
  150.6226  137.8750  156.8797 C   0  0  0  0  0  0  0  0  0  0  0  0
  150.6718  137.2162  155.4737 C   0  0  1  0  0  0  0  0  0  0  0  0
  151.8705  136.4651  155.4264 O   0  0  0  0  0  0  0  0  0  0  0  0
  149.4928  136.2721  155.1391 C   0  0  0  0  0  0  0  0  0  0  0  0
  148.1847  137.0476  154.9071 C   0  0  0  0  0  0  0  0  0  0  0  0
  148.3474  138.0500  153.8259 N   0  3  1  0  0  0  0  0  0  0  0  0
  147.0769  138.7321  153.4986 C   0  0  0  0  0  0  0  0  0  0  0  0
  149.4456  139.0077  154.1083 C   0  0  0  0  0  0  0  0  0  0  0  0
  150.7796  138.2754  154.3545 C   0  0  0  0  0  0  0  0  0  0  0  0
  147.3818  136.7975  160.9080 N   0  0  0  0  0  0  0  0  0  0  0  0
  144.4130  136.9658  162.5656 H   0  0  0  0  0  0  0  0  0  0  0  0
  145.1467  138.2233  161.5789 H   0  0  0  0  0  0  0  0  0  0  0  0
  145.8323  137.8261  163.1518 H   0  0  0  0  0  0  0  0  0  0  0  0
  145.3247  134.4452  162.1232 H   0  0  0  0  0  0  0  0  0  0  0  0
  150.8463  136.0770  157.9687 H   0  0  0  0  0  0  0  0  0  0  0  0
  149.9073  138.6965  156.8889 H   0  0  0  0  0  0  0  0  0  0  0  0
  151.5829  138.3350  157.1167 H   0  0  0  0  0  0  0  0  0  0  0  0
  152.5185  136.8910  155.9659 H   0  0  0  0  0  0  0  0  0  0  0  0
  149.7242  135.7131  154.2308 H   0  0  0  0  0  0  0  0  0  0  0  0
  149.3513  135.5183  155.9138 H   0  0  0  0  0  0  0  0  0  0  0  0
  147.3935  136.3472  154.6370 H   0  0  0  0  0  0  0  0  0  0  0  0
  147.8631  137.5462  155.8210 H   0  0  0  0  0  0  0  0  0  0  0  0
  146.7126  139.3085  154.3500 H   0  0  0  0  0  0  0  0  0  0  0  0
  146.3103  138.0071  153.2229 H   0  0  0  0  0  0  0  0  0  0  0  0
  147.2104  139.4116  152.6563 H   0  0  0  0  0  0  0  0  0  0  0  0
  149.5591  139.6841  153.2603 H   0  0  0  0  0  0  0  0  0  0  0  0
  149.1793  139.6286  154.9642 H   0  0  0  0  0  0  0  0  0  0  0  0
  151.5626  138.9978  154.5890 H   0  0  0  0  0  0  0  0  0  0  0  0
  151.0820  137.7940  153.4226 H   0  0  0  0  0  0  0  0  0  0  0  0
  148.6183  137.5368  152.9995 H   0  0  0  0  0  0  0  0  0  0  0  0
  1  2  1  0  0  0  0
  1 20  1  0  0  0  0
  1 21  1  0  0  0  0
  1 22  1  0  0  0  0
  2 19  1  0  0  0  0
  2  3  2  0  0  0  0
  3  4  1  0  0  0  0
  3 23  1  0  0  0  0
  4  5  1  0  0  0  0
  5  6  1  0  0  0  0
  5 19  2  0  0  0  0
  6  7  1  0  0  0  0
  7  8  2  0  0  0  0
  7  9  1  0  0  0  0
  9 10  1  0  0  0  0
  9 24  1  0  0  0  0
 10 11  1  0  0  0  0
 10 25  1  0  0  0  0
 10 26  1  0  0  0  0
 11 18  1  0  0  0  0
 11 12  1  0  0  0  0
 11 13  1  0  0  0  0
 12 27  1  0  0  0  0
 13 14  1  0  0  0  0
 13 28  1  0  0  0  0
 13 29  1  0  0  0  0
 14 15  1  0  0  0  0
 14 30  1  0  0  0  0
 14 31  1  0  0  0  0
 15 16  1  0  0  0  0
 15 17  1  0  0  0  0
 15 39  1  0  0  0  0
 16 32  1  0  0  0  0
 16 33  1  0  0  0  0
 16 34  1  0  0  0  0
 17 18  1  0  0  0  0
 17 35  1  0  0  0  0
 17 36  1  0  0  0  0
 18 37  1  0  0  0  0
 18 38  1  0  0  0  0
M  CHG  1   6  -1
M  CHG  1  15   1
M  END
> <s_m_source_file>
AV-unprocessed.smi

> <i_m_source_file_index>
809

> <i_lp_mmshare_version>
43012

> <i_f3d_flags>
0

> <s_epik_input>
W0NIM11jMVtjSF1zYyhuMSlbTkhdQyg9TylbTkhdW0NIMl1DMihbT0hdKVtDSDJdW0NIMl1OKFtDSDNdKVtDSDJdW0NIMl0y

> <s_epik_cmdline>
J2VwaWtfcHl0aG9uJywgJy1waCcsICc3LjAnLCAnLXRuJywgJzgnLCAnLW1hJywgJzIwMCcsICctbWV0YWxfYmluZGluZycsICctaW1hZScsICc8aW5maWxlLm1hZT4nLCAnLW9tYWUnLCAnPG91dGZpbGUubWFlPic=

> <r_lp_tautomer_probability>
0.999

> <r_epik_Ionization_Penalty>
8.50704

> <r_epik_Ionization_Penalty_Charging>
6.65046

> <r_epik_Ionization_Penalty_Neutral>
1.85657

> <r_epik_State_Penalty>
6.64992

> <r_epik_Charging_Adjusted_Penalty>
13.3004

> <i_epik_Tot_Q>
0

> <i_epik_Tot_abs_Q>
2

> <r_epik_Metal_State_Penalty>
2.57297

> <b_epik_Metal_Only>
1

> <s_lp_Force_Field>
OPLS_2005

> <r_lp_Energy>
8.4344

> <b_lp_Chiralities_Consistent>
1

> <s_lp_Variant>
AV-unprocessed.smi:809-4

> <Gold.Version>
5.8.1

> <Gold.Id.Protein>
6NUR|6NUR_protein|mol2

> <Gold.PLP.Fitness>
48.1655

> <Gold.PLP.PLP>
-28.6159

> <Gold.PLP.part.hbond>
-6.3675

> <Gold.PLP.part.metal>
0.0000

> <Gold.PLP.part.buried>
-3.1408

> <Gold.PLP.part.nonpolar>
-19.4645

> <Gold.PLP.part.repulsive>
0.0920

> <Gold.PLP.ligand.clash>
0.0000

> <Gold.PLP.ligand.torsion>
0.4464

> <Gold.PLP.Chemscore.Hbond>
6.8096

> <Gold.PLP.Chemscore.CHOScore>
0.0000

> <Gold.PLP.Chemscore.Metal>
0.0000

> <Gold.Chemscore.Hbonds>
donor molecule, donor type, donor heavy atom, donor atom, acceptor molecule, acceptor atom, score
      L1  H    15    39       P1  7948  2.00
      P1  H  6896  6909       L1     6  2.00
      P1  H  6931  6943       L1    19  0.05
      P1  H  6934  6947       L1    19  0.49
      P1  H 10752 10765       L1    12  0.70

> <Gold.PLP.Chemscore.Internal.Correction>
0.0137

> <Gold.Rescore>
     Score         DG    S(hbond)    S(metal)    S(lipo)     H(rot)  DE(clash)    DE(int)     intcor
     18.32     -20.35       3.58        0.00      64.72       1.82       0.05       1.98       ----

> <Gold.Chemscore.Fitness>
18.3247

> <Gold.Chemscore.DG>
-20.3516

> <Gold.Chemscore.ZeroCoef>
-5.4800

> <Gold.Chemscore.Hbond>
3.5794

> <Gold.Chemscore.Metal>
0.0000

> <Gold.Chemscore.Lipo>
64.7192

> <Gold.Chemscore.Internal_Hbond>
0.0000

> <Gold.Chemscore.DEClash>
0.0462

> <Gold.Chemscore.DEInternal>
1.9808

> <Gold.Chemscore.Rot>
1.8186

> <Gold.Chemscore.Internal.Correction>
   9.000000E+99

> <Gold.Chemscore.Hbonds>
donor molecule, donor type, donor heavy atom, donor atom, acceptor molecule, acceptor atom, score
      L1  H    15    39       P1  7948  1.00
      P1  H  6896  6909       L1     6  0.89
      P1  H  6931  6943       L1    19  0.05
      P1  H  6934  6947       L1    19  0.19
      P1  H 10752 10765       L1    12  0.07

> <Gold.Chemscore.Hbond.Weighted>
-11.9552

> <Gold.Chemscore.Metal.Weighted>
-0.0000

> <Gold.Chemscore.Lipo.Weighted>
-7.5721

> <Gold.Chemscore.Internal_Hbond.Weighted>
0.0000

> <Gold.Chemscore.DEClash.Weighted>
0.0462

> <Gold.Chemscore.DEInternal.Weighted>
1.9808

> <Gold.Chemscore.Rot.Weighted>
4.6557

> <Gold.Chemscore.Internal.Correction.Weighted>
   9.000000E+99

> <Gold.Protein.RotatedTorsions>
[ 6907 6896 6895 6894 ] final   64.07 input  -60.11 | X-H torsion
[ 7974 7965 7964 7962 ] final    5.94 input  175.53 | X-H torsion
[ 8008 7997 7996 7995 ] final  101.93 input   59.86 | X-H torsion
[ 10167 10162 10161 10158 ] final   65.34 input  -65.29 | X-H torsion
[ 10718 10713 10712 10709 ] final   31.36 input   66.30 | X-H torsion
[ 10763 10752 10751 10750 ] final  179.42 input  -60.55 | X-H torsion
[ 11005 11000 10999 10996 ] final   66.25 input  -57.11 | X-H torsion

> <Gold.Protein.ActiveResidues>
 VAL166  LYS551  ARG553  GLY616  TRP617  ASP618  TYR619  PRO620  LYS621  CYS622 
 ASP623  PHE694  ASN695  SER759  ASP760  ASP761  ALA762  ILE779  LEU786  VAL792 
 PHE793  MET794  SER795  GLU796  ALA797  LYS798  CYS799  TRP800  GLU811  SER814 

> <Gold.Protein.RotatedAtoms>
  152.4303  134.5790  159.9942 H   0  0  0  0  0  0  0  0  0  0  0  0  # atno 6907 bound_to 6896
  151.5915  133.3360  159.3036 H   0  0  0  0  0  0  0  0  0  0  0  0  # atno 6908 bound_to 6896
  150.8195  134.7432  159.6825 H   0  0  0  0  0  0  0  0  0  0  0  0  # atno 6909 bound_to 6896
  146.2438  140.0308  142.8390 H   0  0  0  0  0  0  0  0  0  0  0  0  # atno 7974 bound_to 7965
  156.1345  140.3189  155.8400 H   0  0  0  0  0  0  0  0  0  0  0  0  # atno 8008 bound_to 7997
  155.4270  140.0516  157.3038 H   0  0  0  0  0  0  0  0  0  0  0  0  # atno 8009 bound_to 7997
  154.4926  140.2098  155.9528 H   0  0  0  0  0  0  0  0  0  0  0  0  # atno 8010 bound_to 7997
  140.1124  144.4806  150.6970 H   0  0  0  0  0  0  0  0  0  0  0  0  # atno 10167 bound_to 10162
  157.2714  130.7210  149.6506 H   0  0  0  0  0  0  0  0  0  0  0  0  # atno 10718 bound_to 10713
  154.5205  135.2793  155.1267 H   0  0  0  0  0  0  0  0  0  0  0  0  # atno 10763 bound_to 10752
  154.2826  135.6282  153.5357 H   0  0  0  0  0  0  0  0  0  0  0  0  # atno 10764 bound_to 10752
  152.9936  135.5655  154.5692 H   0  0  0  0  0  0  0  0  0  0  0  0  # atno 10765 bound_to 10752
  139.9843  134.6693  156.0204 H   0  0  0  0  0  0  0  0  0  0  0  0  # atno 11005 bound_to 11000
  145.1156  140.9432  143.4630 LP  0  0  0  0  0  0  0  0  0  0  0  0  # atno 17320 bound_to 7965
  145.0532  139.3165  143.5918 LP  0  0  0  0  0  0  0  0  0  0  0  0  # atno 17321 bound_to 7965
  140.6918  143.2380  151.5110 LP  0  0  0  0  0  0  0  0  0  0  0  0  # atno 17342 bound_to 10162
  139.5612  144.2152  152.1694 LP  0  0  0  0  0  0  0  0  0  0  0  0  # atno 17343 bound_to 10162
  155.9663  130.4366  150.5141 LP  0  0  0  0  0  0  0  0  0  0  0  0  # atno 17370 bound_to 10713
  157.3067  131.0656  151.2030 LP  0  0  0  0  0  0  0  0  0  0  0  0  # atno 17371 bound_to 10713
  141.1511  133.6548  156.4015 LP  0  0  0  0  0  0  0  0  0  0  0  0  # atno 17394 bound_to 11000
  140.5033  134.6464  157.5257 LP  0  0  0  0  0  0  0  0  0  0  0  0  # atno 17395 bound_to 11000

$$$$
