AV-unprocessed.smi:922|AV-procd|sdf|4176|dock9
  -GOLD-   22720 2 83D 1   1.00000     0.00000
 Structure written by MMmdl.
 33 34  0  0  0  0  0  0  0  0  1 V2000
  151.9499  142.0922  158.1442 C   0  0  0  0  0  0  0  0  0  0  0  0
  151.3119  141.0092  157.2685 C   0  0  1  0  0  0  0  0  0  0  0  0
  150.7157  141.5957  155.9753 C   0  0  0  0  0  0  0  0  0  0  0  0
  150.2220  140.5294  155.1137 N   0  0  0  0  0  0  0  0  0  0  0  0
  148.9353  140.4578  154.5776 C   0  0  0  0  0  0  0  0  0  0  0  0
  148.1973  141.6862  154.3015 C   0  0  0  0  0  0  0  0  0  0  0  0
  147.0066  141.7007  153.8092 N   0  0  0  0  0  0  0  0  0  0  0  0
  146.4026  140.5010  153.5327 N   0  0  0  0  0  0  0  0  0  0  0  0
  146.9328  139.2700  153.7178 C   0  0  0  0  0  0  0  0  0  0  0  0
  146.3028  138.2538  153.4305 O   0  0  0  0  0  0  0  0  0  0  0  0
  148.2931  139.2878  154.2768 C   0  0  0  0  0  0  0  0  0  0  0  0
  149.0545  137.7452  154.4785 Cl  0  0  0  0  0  0  0  0  0  0  0  0
  151.2892  139.5892  154.7895 C   0  0  0  0  0  0  0  0  0  0  0  0
  151.9114  138.9904  156.0719 C   0  0  0  0  0  0  0  0  0  0  0  0
  150.9395  138.0334  156.7948 C   0  0  0  0  0  0  0  0  0  0  0  0
  153.1987  138.2301  155.7178 C   0  0  0  0  0  0  0  0  0  0  0  0
  152.3232  140.0572  156.9348 O   0  0  0  0  0  0  0  0  0  0  0  0
  145.4706  140.5845  153.1527 H   0  0  0  0  0  0  0  0  0  0  0  0
  151.2142  142.8405  158.4401 H   0  0  0  0  0  0  0  0  0  0  0  0
  152.7552  142.6037  157.6162 H   0  0  0  0  0  0  0  0  0  0  0  0
  152.3688  141.6607  159.0535 H   0  0  0  0  0  0  0  0  0  0  0  0
  150.5336  140.5221  157.8544 H   0  0  0  0  0  0  0  0  0  0  0  0
  149.9239  142.3096  156.2015 H   0  0  0  0  0  0  0  0  0  0  0  0
  151.4802  142.1524  155.4319 H   0  0  0  0  0  0  0  0  0  0  0  0
  148.7174  142.6130  154.5446 H   0  0  0  0  0  0  0  0  0  0  0  0
  150.9164  138.7852  154.1540 H   0  0  0  0  0  0  0  0  0  0  0  0
  152.0482  140.1178  154.2113 H   0  0  0  0  0  0  0  0  0  0  0  0
  150.7165  137.1646  156.1751 H   0  0  0  0  0  0  0  0  0  0  0  0
  149.9859  138.5047  157.0306 H   0  0  0  0  0  0  0  0  0  0  0  0
  151.3683  137.6706  157.7292 H   0  0  0  0  0  0  0  0  0  0  0  0
  152.9958  137.3979  155.0427 H   0  0  0  0  0  0  0  0  0  0  0  0
  153.6758  137.8241  156.6106 H   0  0  0  0  0  0  0  0  0  0  0  0
  153.9219  138.8839  155.2292 H   0  0  0  0  0  0  0  0  0  0  0  0
  1  2  1  0  0  0  0
  1 19  1  0  0  0  0
  1 20  1  0  0  0  0
  1 21  1  0  0  0  0
  2 17  1  0  0  0  0
  2  3  1  0  0  0  0
  2 22  1  0  0  0  0
  3  4  1  0  0  0  0
  3 23  1  0  0  0  0
  3 24  1  0  0  0  0
  4  5  1  0  0  0  0
  4 13  1  0  0  0  0
  5 11  2  0  0  0  0
  5  6  1  0  0  0  0
  6  7  2  0  0  0  0
  6 25  1  0  0  0  0
  7  8  1  0  0  0  0
  8 18  1  0  0  0  0
  8  9  1  0  0  0  0
  9 10  2  0  0  0  0
  9 11  1  0  0  0  0
 11 12  1  0  0  0  0
 13 14  1  0  0  0  0
 13 26  1  0  0  0  0
 13 27  1  0  0  0  0
 14 15  1  0  0  0  0
 14 16  1  0  0  0  0
 14 17  1  0  0  0  0
 15 28  1  0  0  0  0
 15 29  1  0  0  0  0
 15 30  1  0  0  0  0
 16 31  1  0  0  0  0
 16 32  1  0  0  0  0
 16 33  1  0  0  0  0
M  END
> <s_m_source_file>
AV-unprocessed.smi

> <i_m_source_file_index>
922

> <i_lp_mmshare_version>
43012

> <i_f3d_flags>
0

> <s_epik_input>
W0NIM11bQ0BASF0oTzEpW0NIMl1OKFtDSDJdQzEoW0NIM10pW0NIM10pYzJbY0hdbltuSF1jKD1PKWMyQ2w=

> <s_epik_cmdline>
J2VwaWtfcHl0aG9uJywgJy1waCcsICc3LjAnLCAnLXRuJywgJzgnLCAnLW1hJywgJzIwMCcsICctbWV0YWxfYmluZGluZycsICctaW1hZScsICc8aW5maWxlLm1hZT4nLCAnLW9tYWUnLCAnPG91dGZpbGUubWFlPic=

> <r_lp_tautomer_probability>
0.986175

> <r_epik_Ionization_Penalty>
0.00909695

> <r_epik_Ionization_Penalty_Charging>
0.00909694

> <r_epik_Ionization_Penalty_Neutral>
4.87729e-09

> <r_epik_State_Penalty>
1.54226

> <r_epik_Charging_Adjusted_Penalty>
1.55136

> <i_epik_Tot_Q>
0

> <i_epik_Tot_abs_Q>
0

> <r_epik_Metal_State_Penalty>
3.93934

> <b_epik_Metal_Only>
0

> <s_lp_Force_Field>
OPLS_2005

> <r_lp_Energy>
35.5656

> <b_lp_Chiralities_Consistent>
1

> <s_lp_Variant>
AV-unprocessed.smi:922-4

> <Gold.Version>
5.8.1

> <Gold.Id.Protein>
6NUR|6NUR_protein|mol2

> <Gold.PLP.Fitness>
30.3236

> <Gold.PLP.PLP>
-24.1248

> <Gold.PLP.part.hbond>
-2.0000

> <Gold.PLP.part.metal>
0.0000

> <Gold.PLP.part.buried>
3.1841

> <Gold.PLP.part.nonpolar>
-24.9396

> <Gold.PLP.part.repulsive>
0.4025

> <Gold.PLP.ligand.clash>
2.8282

> <Gold.PLP.ligand.torsion>
0.4162

> <Gold.PLP.Chemscore.Hbond>
1.9750

> <Gold.PLP.Chemscore.CHOScore>
1.0000

> <Gold.PLP.Chemscore.Metal>
0.0000

> <Gold.Chemscore.Hbonds>
donor molecule, donor type, donor heavy atom, donor atom, acceptor molecule, acceptor atom, score
      L1  H     8    18       P1 10175  1.00
      P1  H  7997  8009       L1    17  0.93
      L1  C     6    25       P1  8028  1.00

> <Gold.PLP.Chemscore.Internal.Correction>
0.9344

> <Gold.Rescore>
     Score         DG    S(hbond)    S(metal)    S(lipo)     H(rot)  DE(clash)    DE(int)     intcor
     15.54     -18.77       1.60        0.00      67.80       0.00       0.41       2.82       ----

> <Gold.Chemscore.Fitness>
15.5356

> <Gold.Chemscore.DG>
-18.7666

> <Gold.Chemscore.ZeroCoef>
-5.4800

> <Gold.Chemscore.Hbond>
1.6031

> <Gold.Chemscore.Metal>
0.0000

> <Gold.Chemscore.Lipo>
67.7961

> <Gold.Chemscore.Internal_Hbond>
0.0000

> <Gold.Chemscore.DEClash>
0.4070

> <Gold.Chemscore.DEInternal>
2.8239

> <Gold.Chemscore.Rot>
0.0000

> <Gold.Chemscore.Internal.Correction>
   9.000000E+99

> <Gold.Chemscore.Hbonds>
donor molecule, donor type, donor heavy atom, donor atom, acceptor molecule, acceptor atom, score
      L1  H     8    18       P1 10175  0.88
      P1  H  7997  8009       L1    17  0.26

> <Gold.Chemscore.Hbond.Weighted>
-5.3544

> <Gold.Chemscore.Metal.Weighted>
-0.0000

> <Gold.Chemscore.Lipo.Weighted>
-7.9321

> <Gold.Chemscore.Internal_Hbond.Weighted>
0.0000

> <Gold.Chemscore.DEClash.Weighted>
0.4070

> <Gold.Chemscore.DEInternal.Weighted>
2.8239

> <Gold.Chemscore.Rot.Weighted>
0.0000

> <Gold.Chemscore.Internal.Correction.Weighted>
   9.000000E+99

> <Gold.Protein.RotatedTorsions>
[ 6907 6896 6895 6894 ] final    4.93 input  -60.11 | X-H torsion
[ 7974 7965 7964 7962 ] final   76.98 input  175.53 | X-H torsion
[ 8008 7997 7996 7995 ] final -172.66 input   59.86 | X-H torsion
[ 10167 10162 10161 10158 ] final  -20.42 input  -65.29 | X-H torsion
[ 10718 10713 10712 10709 ] final  163.50 input   66.30 | X-H torsion
[ 10763 10752 10751 10750 ] final  -23.10 input  -60.55 | X-H torsion
[ 11005 11000 10999 10996 ] final  -92.28 input  -57.11 | X-H torsion

> <Gold.Protein.ActiveResidues>
 VAL166  LYS551  ARG553  GLY616  TRP617  ASP618  TYR619  PRO620  LYS621  CYS622 
 ASP623  PHE694  ASN695  SER759  ASP760  ASP761  ALA762  ILE779  LEU786  VAL792 
 PHE793  MET794  SER795  GLU796  ALA797  LYS798  CYS799  TRP800  GLU811  SER814 

> <Gold.Protein.RotatedAtoms>
  151.6492  135.1003  160.0156 H   0  0  0  0  0  0  0  0  0  0  0  0  # atno 6907 bound_to 6896
  152.4010  133.6814  159.6325 H   0  0  0  0  0  0  0  0  0  0  0  0  # atno 6908 bound_to 6896
  150.7910  133.8708  159.3299 H   0  0  0  0  0  0  0  0  0  0  0  0  # atno 6909 bound_to 6896
  145.6959  139.2567  143.1733 H   0  0  0  0  0  0  0  0  0  0  0  0  # atno 7974 bound_to 7965
  155.9475  140.1120  157.1005 H   0  0  0  0  0  0  0  0  0  0  0  0  # atno 8008 bound_to 7997
  154.4102  140.1207  156.5074 H   0  0  0  0  0  0  0  0  0  0  0  0  # atno 8009 bound_to 7997
  155.6884  140.3473  155.4886 H   0  0  0  0  0  0  0  0  0  0  0  0  # atno 8010 bound_to 7997
  140.7276  143.4724  151.0229 H   0  0  0  0  0  0  0  0  0  0  0  0  # atno 10167 bound_to 10162
  157.1076  131.0459  151.2471 H   0  0  0  0  0  0  0  0  0  0  0  0  # atno 10718 bound_to 10713
  153.6625  135.6976  153.5173 H   0  0  0  0  0  0  0  0  0  0  0  0  # atno 10763 bound_to 10752
  153.2621  135.4241  155.0903 H   0  0  0  0  0  0  0  0  0  0  0  0  # atno 10764 bound_to 10752
  154.8448  135.3557  154.6169 H   0  0  0  0  0  0  0  0  0  0  0  0  # atno 10765 bound_to 10752
  141.1525  133.7811  156.9998 H   0  0  0  0  0  0  0  0  0  0  0  0  # atno 11005 bound_to 11000
  146.0841  140.7731  142.9627 LP  0  0  0  0  0  0  0  0  0  0  0  0  # atno 17320 bound_to 7965
  144.6983  140.3535  143.7177 LP  0  0  0  0  0  0  0  0  0  0  0  0  # atno 17321 bound_to 7965
  139.8417  143.7555  152.3180 LP  0  0  0  0  0  0  0  0  0  0  0  0  # atno 17342 bound_to 10162
  139.7706  144.7478  151.0230 LP  0  0  0  0  0  0  0  0  0  0  0  0  # atno 17343 bound_to 10162
  157.4587  130.7640  149.7216 LP  0  0  0  0  0  0  0  0  0  0  0  0  # atno 17370 bound_to 10713
  155.9858  130.3980  150.3243 LP  0  0  0  0  0  0  0  0  0  0  0  0  # atno 17371 bound_to 10713
  140.0947  134.9571  157.1831 LP  0  0  0  0  0  0  0  0  0  0  0  0  # atno 17394 bound_to 11000
  140.3398  134.2716  155.7214 LP  0  0  0  0  0  0  0  0  0  0  0  0  # atno 17395 bound_to 11000

$$$$
