AV-unprocessed.smi:1734|AV-procd|sdf|6987|dock10
  -GOLD-   22720 8203D 1   1.00000     0.00000
 Structure written by MMmdl.
 51 53  0  0  0  0  0  0  0  0  2 V2000
  147.5864  132.9819  152.4266 C   0  0  0  0  0  0  0  0  0  0  0  0
  146.3557  133.0216  151.5351 C   0  0  0  0  0  0  0  0  0  0  0  0
  145.7674  131.8093  151.1161 C   0  0  0  0  0  0  0  0  0  0  0  0
  144.6307  131.8480  150.2909 C   0  0  0  0  0  0  0  0  0  0  0  0
  144.1261  133.1056  149.9182 C   0  0  0  0  0  0  0  0  0  0  0  0
  144.6815  134.2691  150.3145 N   0  0  0  0  0  0  0  0  0  0  0  0
  145.7805  134.2492  151.1101 C   0  0  0  0  0  0  0  0  0  0  0  0
  146.4211  135.4365  151.5638 N   0  0  0  0  0  0  0  0  0  0  0  0
  145.8597  136.5468  152.0732 C   0  0  0  0  0  0  0  0  0  0  0  0
  144.6528  136.7301  152.2348 O   0  0  0  0  0  0  0  0  0  0  0  0
  146.7907  137.4512  152.4092 N   0  0  0  0  0  0  0  0  0  0  0  0
  146.5074  138.7444  153.0209 C   0  0  0  0  0  0  0  0  0  0  0  0
  146.7675  138.7784  154.5546 C   0  0  1  0  0  0  0  0  0  0  0  0
  146.5341  137.4121  155.2602 C   0  0  1  0  0  0  0  0  0  0  0  0
  146.6047  137.4746  156.7779 C   0  0  0  0  0  0  0  0  0  0  0  0
  145.9261  136.1736  157.1876 C   0  0  0  0  0  0  0  0  0  0  0  0
  144.9195  135.9512  156.2087 O   0  0  0  0  0  0  0  0  0  0  0  0
  145.1393  136.7962  155.0838 C   0  0  0  0  0  0  0  0  0  0  0  0
  148.1339  139.2916  154.8736 N   0  3  0  0  0  0  0  0  0  0  0  0
  149.2674  138.4033  154.5107 C   0  0  0  0  0  0  0  0  0  0  0  0
  150.5805  138.9814  155.0639 C   0  0  0  0  0  0  0  0  0  0  0  0
  150.7724  140.2966  154.5562 O   0  0  0  0  0  0  0  0  0  0  0  0
  149.7313  141.1825  154.9520 C   0  0  0  0  0  0  0  0  0  0  0  0
  148.3845  140.6775  154.4073 C   0  0  0  0  0  0  0  0  0  0  0  0
  147.8721  131.9565  152.6632 H   0  0  0  0  0  0  0  0  0  0  0  0
  147.3954  133.5014  153.3662 H   0  0  0  0  0  0  0  0  0  0  0  0
  148.4315  133.4598  151.9304 H   0  0  0  0  0  0  0  0  0  0  0  0
  146.1801  130.8589  151.4213 H   0  0  0  0  0  0  0  0  0  0  0  0
  144.1581  130.9378  149.9527 H   0  0  0  0  0  0  0  0  0  0  0  0
  143.2542  133.1801  149.2853 H   0  0  0  0  0  0  0  0  0  0  0  0
  147.4283  135.4328  151.4997 H   0  0  0  0  0  0  0  0  0  0  0  0
  147.7604  137.2259  152.2405 H   0  0  0  0  0  0  0  0  0  0  0  0
  147.1323  139.4807  152.5154 H   0  0  0  0  0  0  0  0  0  0  0  0
  145.4758  139.0124  152.7906 H   0  0  0  0  0  0  0  0  0  0  0  0
  146.0671  139.4833  155.0049 H   0  0  0  0  0  0  0  0  0  0  0  0
  147.2699  136.6855  154.9127 H   0  0  0  0  0  0  0  0  0  0  0  0
  147.6230  137.5493  157.1607 H   0  0  0  0  0  0  0  0  0  0  0  0
  146.0356  138.3267  157.1529 H   0  0  0  0  0  0  0  0  0  0  0  0
  146.6359  135.3463  157.1515 H   0  0  0  0  0  0  0  0  0  0  0  0
  145.5056  136.2178  158.1926 H   0  0  0  0  0  0  0  0  0  0  0  0
  144.3689  137.5685  155.0868 H   0  0  0  0  0  0  0  0  0  0  0  0
  145.0464  136.2284  154.1580 H   0  0  0  0  0  0  0  0  0  0  0  0
  149.1143  137.4022  154.9123 H   0  0  0  0  0  0  0  0  0  0  0  0
  149.3441  138.3096  153.4269 H   0  0  0  0  0  0  0  0  0  0  0  0
  150.5710  138.9960  156.1552 H   0  0  0  0  0  0  0  0  0  0  0  0
  151.4230  138.3593  154.7609 H   0  0  0  0  0  0  0  0  0  0  0  0
  149.7047  141.2684  156.0396 H   0  0  0  0  0  0  0  0  0  0  0  0
  149.9459  142.1769  154.5599 H   0  0  0  0  0  0  0  0  0  0  0  0
  148.3928  140.7140  153.3176 H   0  0  0  0  0  0  0  0  0  0  0  0
  147.5847  141.3378  154.7444 H   0  0  0  0  0  0  0  0  0  0  0  0
  148.1518  139.3537  155.8815 H   0  0  0  0  0  0  0  0  0  0  0  0
  1  2  1  0  0  0  0
  1 25  1  0  0  0  0
  1 26  1  0  0  0  0
  1 27  1  0  0  0  0
  2  7  1  0  0  0  0
  2  3  2  0  0  0  0
  3  4  1  0  0  0  0
  3 28  1  0  0  0  0
  4  5  2  0  0  0  0
  4 29  1  0  0  0  0
  5  6  1  0  0  0  0
  5 30  1  0  0  0  0
  6  7  2  0  0  0  0
  7  8  1  0  0  0  0
  8  9  1  0  0  0  0
  8 31  1  0  0  0  0
  9 10  2  0  0  0  0
  9 11  1  0  0  0  0
 11 12  1  0  0  0  0
 11 32  1  0  0  0  0
 12 13  1  0  0  0  0
 12 33  1  0  0  0  0
 12 34  1  0  0  0  0
 13 14  1  0  0  0  0
 13 19  1  0  0  0  0
 13 35  1  0  0  0  0
 14 18  1  0  0  0  0
 14 15  1  0  0  0  0
 14 36  1  0  0  0  0
 15 16  1  0  0  0  0
 15 37  1  0  0  0  0
 15 38  1  0  0  0  0
 16 17  1  0  0  0  0
 16 39  1  0  0  0  0
 16 40  1  0  0  0  0
 17 18  1  0  0  0  0
 18 41  1  0  0  0  0
 18 42  1  0  0  0  0
 19 24  1  0  0  0  0
 19 20  1  0  0  0  0
 19 51  1  0  0  0  0
 20 21  1  0  0  0  0
 20 43  1  0  0  0  0
 20 44  1  0  0  0  0
 21 22  1  0  0  0  0
 21 45  1  0  0  0  0
 21 46  1  0  0  0  0
 22 23  1  0  0  0  0
 23 24  1  0  0  0  0
 23 47  1  0  0  0  0
 23 48  1  0  0  0  0
 24 49  1  0  0  0  0
 24 50  1  0  0  0  0
M  CHG  1  19   1
M  END
> <s_m_source_file>
AV-unprocessed.smi

> <i_m_source_file_index>
1734

> <i_lp_mmshare_version>
43012

> <i_f3d_flags>
0

> <s_epik_input>
W0NIM11jMVtjSF1bY0hdW2NIXW5jMVtOSF1DKD1PKVtOSF1bQ0gyXVtDQEhdKFtDQEBIXTJbQ0gyXVtDSDJdT1tDSDJdMilOM1tDSDJdW0NIMl1PW0NIMl1bQ0gyXTM=

> <s_epik_cmdline>
J2VwaWtfcHl0aG9uJywgJy1waCcsICc3LjAnLCAnLXRuJywgJzgnLCAnLW1hJywgJzIwMCcsICctbWV0YWxfYmluZGluZycsICctaW1hZScsICc8aW5maWxlLm1hZT4nLCAnLW9tYWUnLCAnPG91dGZpbGUubWFlPic=

> <r_epik_Ionization_Penalty>
0.983302

> <r_epik_Ionization_Penalty_Charging>
0.98326

> <r_epik_Ionization_Penalty_Neutral>
4.21967e-05

> <r_epik_State_Penalty>
1.0303

> <r_epik_Charging_Adjusted_Penalty>
2.01356

> <i_epik_Tot_Q>
1

> <i_epik_Tot_abs_Q>
1

> <r_epik_Metal_State_Penalty>
1.03031

> <b_epik_Metal_Only>
0

> <s_lp_Force_Field>
OPLS_2005

> <r_lp_Energy>
38.82

> <b_lp_Chiralities_Consistent>
1

> <s_lp_Variant>
AV-unprocessed.smi:1734-8

> <Gold.Version>
5.8.1

> <Gold.Id.Protein>
6NUR|6NUR_protein|mol2

> <Gold.PLP.Fitness>
42.9968

> <Gold.PLP.PLP>
-32.7067

> <Gold.PLP.part.hbond>
-2.9173

> <Gold.PLP.part.metal>
0.0000

> <Gold.PLP.part.buried>
-5.7678

> <Gold.PLP.part.nonpolar>
-26.3006

> <Gold.PLP.part.repulsive>
1.5380

> <Gold.PLP.ligand.clash>
0.0000

> <Gold.PLP.ligand.torsion>
0.9835

> <Gold.PLP.Chemscore.Hbond>
2.9913

> <Gold.PLP.Chemscore.CHOScore>
1.0000

> <Gold.PLP.Chemscore.Metal>
0.0000

> <Gold.Chemscore.Hbonds>
donor molecule, donor type, donor heavy atom, donor atom, acceptor molecule, acceptor atom, score
      L1  H     8    31       P1  7948  1.00
      L1  H    11    32       P1  7948  1.00
      P1  H  7989  7998       L1    22  0.86
      L1  C     5    30       P1 10186  0.88

> <Gold.PLP.Chemscore.Internal.Correction>
0.2834

> <Gold.Rescore>
     Score         DG    S(hbond)    S(metal)    S(lipo)     H(rot)  DE(clash)    DE(int)     intcor
     18.42     -19.39       2.90        0.00      73.21       1.70       0.03       0.94       ----

> <Gold.Chemscore.Fitness>
18.4214

> <Gold.Chemscore.DG>
-19.3895

> <Gold.Chemscore.ZeroCoef>
-5.4800

> <Gold.Chemscore.Hbond>
2.9019

> <Gold.Chemscore.Metal>
0.0000

> <Gold.Chemscore.Lipo>
73.2095

> <Gold.Chemscore.Internal_Hbond>
0.0000

> <Gold.Chemscore.DEClash>
0.0255

> <Gold.Chemscore.DEInternal>
0.9426

> <Gold.Chemscore.Rot>
1.6986

> <Gold.Chemscore.Internal.Correction>
   9.000000E+99

> <Gold.Chemscore.Hbonds>
donor molecule, donor type, donor heavy atom, donor atom, acceptor molecule, acceptor atom, score
      L1  H     8    31       P1  7948  0.88
      L1  H    11    32       P1  7948  0.95
      P1  H  7989  7998       L1    22  0.69

> <Gold.Chemscore.Hbond.Weighted>
-9.6925

> <Gold.Chemscore.Metal.Weighted>
-0.0000

> <Gold.Chemscore.Lipo.Weighted>
-8.5655

> <Gold.Chemscore.Internal_Hbond.Weighted>
0.0000

> <Gold.Chemscore.DEClash.Weighted>
0.0255

> <Gold.Chemscore.DEInternal.Weighted>
0.9426

> <Gold.Chemscore.Rot.Weighted>
4.3485

> <Gold.Chemscore.Internal.Correction.Weighted>
   9.000000E+99

> <Gold.Protein.RotatedTorsions>
[ 6907 6896 6895 6894 ] final -179.03 input  -60.11 | X-H torsion
[ 7974 7965 7964 7962 ] final  -91.70 input  175.53 | X-H torsion
[ 8008 7997 7996 7995 ] final   50.53 input   59.86 | X-H torsion
[ 10167 10162 10161 10158 ] final    4.95 input  -65.29 | X-H torsion
[ 10718 10713 10712 10709 ] final -176.10 input   66.30 | X-H torsion
[ 10763 10752 10751 10750 ] final  134.61 input  -60.55 | X-H torsion
[ 11005 11000 10999 10996 ] final  -84.13 input  -57.11 | X-H torsion

> <Gold.Protein.ActiveResidues>
 VAL166  LYS551  ARG553  GLY616  TRP617  ASP618  TYR619  PRO620  LYS621  CYS622 
 ASP623  PHE694  ASN695  SER759  ASP760  ASP761  ALA762  ILE779  LEU786  VAL792 
 PHE793  MET794  SER795  GLU796  ALA797  LYS798  CYS799  TRP800  GLU811  SER814 

> <Gold.Protein.RotatedAtoms>
  151.6468  133.3323  159.3142 H   0  0  0  0  0  0  0  0  0  0  0  0  # atno 6907 bound_to 6896
  150.7980  134.7058  159.6585 H   0  0  0  0  0  0  0  0  0  0  0  0  # atno 6908 bound_to 6896
  152.4069  134.6195  160.0098 H   0  0  0  0  0  0  0  0  0  0  0  0  # atno 6909 bound_to 6896
  145.4096  140.9544  143.2241 H   0  0  0  0  0  0  0  0  0  0  0  0  # atno 7974 bound_to 7965
  155.4203  140.3446  155.4271 H   0  0  0  0  0  0  0  0  0  0  0  0  # atno 8008 bound_to 7997
  156.1397  140.1538  156.8971 H   0  0  0  0  0  0  0  0  0  0  0  0  # atno 8009 bound_to 7997
  154.4960  140.0827  156.7679 H   0  0  0  0  0  0  0  0  0  0  0  0  # atno 8010 bound_to 7997
  140.6508  143.7550  150.7571 H   0  0  0  0  0  0  0  0  0  0  0  0  # atno 10167 bound_to 10162
  156.8097  130.9582  151.3116 H   0  0  0  0  0  0  0  0  0  0  0  0  # atno 10718 bound_to 10713
  153.8265  135.3109  155.3415 H   0  0  0  0  0  0  0  0  0  0  0  0  # atno 10763 bound_to 10752
  154.7991  135.4737  154.0235 H   0  0  0  0  0  0  0  0  0  0  0  0  # atno 10764 bound_to 10752
  153.1661  135.6869  153.8764 H   0  0  0  0  0  0  0  0  0  0  0  0  # atno 10765 bound_to 10752
  141.1653  133.7330  156.8822 H   0  0  0  0  0  0  0  0  0  0  0  0  # atno 11005 bound_to 11000
  144.8318  139.5616  143.6940 LP  0  0  0  0  0  0  0  0  0  0  0  0  # atno 17320 bound_to 7965
  146.2711  139.6639  142.9295 LP  0  0  0  0  0  0  0  0  0  0  0  0  # atno 17321 bound_to 7965
  140.1201  143.4620  152.2318 LP  0  0  0  0  0  0  0  0  0  0  0  0  # atno 17342 bound_to 10162
  139.5722  144.7469  151.3859 LP  0  0  0  0  0  0  0  0  0  0  0  0  # atno 17343 bound_to 10162
  157.6512  130.8886  149.9637 LP  0  0  0  0  0  0  0  0  0  0  0  0  # atno 17370 bound_to 10713
  156.1052  130.3653  150.0147 LP  0  0  0  0  0  0  0  0  0  0  0  0  # atno 17371 bound_to 10713
  140.1707  134.9102  157.2829 LP  0  0  0  0  0  0  0  0  0  0  0  0  # atno 17394 bound_to 11000
  140.2506  134.3688  155.7444 LP  0  0  0  0  0  0  0  0  0  0  0  0  # atno 17395 bound_to 11000

$$$$
