AV-unprocessed.smi:2822|AV-procd|sdf|10860|dock4
  -GOLD-   2272015303D 1   1.00000     0.00000
 Structure written by MMmdl.
 41 43  0  0  0  0  0  0  0  0  3 V2000
  146.5813  131.3447  148.6865 Cl  0  0  0  0  0  0  0  0  0  0  0  0
  145.5274  132.1630  149.7861 C   0  0  0  0  0  0  0  0  0  0  0  0
  144.3146  132.6998  149.3071 C   0  0  0  0  0  0  0  0  0  0  0  0
  143.4800  133.3418  150.1516 N   0  3  0  0  0  0  0  0  0  0  0  0
  143.7521  133.5022  151.4638 C   0  0  0  0  0  0  0  0  0  0  0  0
  144.9494  132.9880  152.0020 C   0  0  0  0  0  0  0  0  0  0  0  0
  145.8589  132.3043  151.1564 C   0  0  0  0  0  0  0  0  0  0  0  0
  147.0651  131.7643  151.6295 N   0  0  0  0  0  0  0  0  0  0  0  0
  147.5111  131.9916  152.9960 C   0  0  0  0  0  0  0  0  0  0  0  0
  147.8796  133.4638  153.2312 C   0  0  2  0  0  0  0  0  0  0  0  0
  149.1412  133.6038  154.1030 C   0  0  0  0  0  0  0  0  0  0  0  0
  149.4334  135.0310  154.3732 N   0  3  2  0  0  0  0  0  0  0  0  0
  150.6669  135.2146  155.1795 C   0  0  0  0  0  0  0  0  0  0  0  0
  150.9926  136.7060  155.3613 C   0  0  0  0  0  0  0  0  0  0  0  0
  149.8073  137.4518  155.9874 C   0  0  0  0  0  0  0  0  0  0  0  0
  148.5409  137.2226  155.1514 C   0  0  0  0  0  0  0  0  0  0  0  0
  148.2555  135.7185  154.9688 C   0  0  1  0  0  0  0  0  0  0  0  0
  147.0105  135.4865  154.0904 C   0  0  0  0  0  0  0  0  0  0  0  0
  146.7974  134.0921  153.9100 O   0  0  0  0  0  0  0  0  0  0  0  0
  143.9891  132.6348  148.2792 H   0  0  0  0  0  0  0  0  0  0  0  0
  143.0088  134.0331  152.0408 H   0  0  0  0  0  0  0  0  0  0  0  0
  145.1475  133.1251  153.0546 H   0  0  0  0  0  0  0  0  0  0  0  0
  147.7249  131.3841  150.9649 H   0  0  0  0  0  0  0  0  0  0  0  0
  146.7337  131.6816  153.6955 H   0  0  0  0  0  0  0  0  0  0  0  0
  148.3857  131.3672  153.1824 H   0  0  0  0  0  0  0  0  0  0  0  0
  148.0469  133.9505  152.2679 H   0  0  0  0  0  0  0  0  0  0  0  0
  149.0076  133.0737  155.0475 H   0  0  0  0  0  0  0  0  0  0  0  0
  149.9942  133.1485  153.5980 H   0  0  0  0  0  0  0  0  0  0  0  0
  150.5416  134.7381  156.1530 H   0  0  0  0  0  0  0  0  0  0  0  0
  151.5030  134.7162  154.6875 H   0  0  0  0  0  0  0  0  0  0  0  0
  151.8779  136.8209  155.9876 H   0  0  0  0  0  0  0  0  0  0  0  0
  151.2368  137.1493  154.3949 H   0  0  0  0  0  0  0  0  0  0  0  0
  149.6461  137.0992  157.0070 H   0  0  0  0  0  0  0  0  0  0  0  0
  150.0259  138.5179  156.0563 H   0  0  0  0  0  0  0  0  0  0  0  0
  147.6913  137.7097  155.6315 H   0  0  0  0  0  0  0  0  0  0  0  0
  148.6588  137.6984  154.1767 H   0  0  0  0  0  0  0  0  0  0  0  0
  148.0682  135.2777  155.9498 H   0  0  0  0  0  0  0  0  0  0  0  0
  146.1285  135.9141  154.5680 H   0  0  0  0  0  0  0  0  0  0  0  0
  147.1145  135.9766  153.1206 H   0  0  0  0  0  0  0  0  0  0  0  0
  149.6030  135.4682  153.4785 H   0  0  0  0  0  0  0  0  0  0  0  0
  142.6077  133.7214  149.7825 H   0  0  0  0  0  0  0  0  0  0  0  0
  1  2  1  0  0  0  0
  2  7  1  0  0  0  0
  2  3  2  0  0  0  0
  3  4  1  0  0  0  0
  3 20  1  0  0  0  0
  4  5  2  0  0  0  0
  4 41  1  0  0  0  0
  5  6  1  0  0  0  0
  5 21  1  0  0  0  0
  6  7  2  0  0  0  0
  6 22  1  0  0  0  0
  7  8  1  0  0  0  0
  8  9  1  0  0  0  0
  8 23  1  0  0  0  0
  9 10  1  0  0  0  0
  9 24  1  0  0  0  0
  9 25  1  0  0  0  0
 10 19  1  0  0  0  0
 10 11  1  0  0  0  0
 10 26  1  0  0  0  0
 11 12  1  0  0  0  0
 11 27  1  0  0  0  0
 11 28  1  0  0  0  0
 12 17  1  0  0  0  0
 12 13  1  0  0  0  0
 12 40  1  0  0  0  0
 13 14  1  0  0  0  0
 13 29  1  0  0  0  0
 13 30  1  0  0  0  0
 14 15  1  0  0  0  0
 14 31  1  0  0  0  0
 14 32  1  0  0  0  0
 15 16  1  0  0  0  0
 15 33  1  0  0  0  0
 15 34  1  0  0  0  0
 16 17  1  0  0  0  0
 16 35  1  0  0  0  0
 16 36  1  0  0  0  0
 17 18  1  0  0  0  0
 17 37  1  0  0  0  0
 18 19  1  0  0  0  0
 18 38  1  0  0  0  0
 18 39  1  0  0  0  0
M  CHG  1   4   1
M  CHG  1  12   1
M  END
> <s_m_source_file>
AV-unprocessed.smi

> <i_m_source_file_index>
2822

> <i_lp_mmshare_version>
43012

> <i_f3d_flags>
0

> <s_epik_input>
Q2xjMVtjSF1uW2NIXVtjSF1jMVtOSF1bQ0gyXVtDQEhdKFtDSDJdMilPW0NIMl1bQ0BASF0oTjIzKVtDSDJdW0NIMl1bQ0gyXVtDSDJdMw==

> <s_epik_cmdline>
J2VwaWtfcHl0aG9uJywgJy1waCcsICc3LjAnLCAnLXRuJywgJzgnLCAnLW1hJywgJzIwMCcsICctbWV0YWxfYmluZGluZycsICctaW1hZScsICc8aW5maWxlLm1hZT4nLCAnLW9tYWUnLCAnPG91dGZpbGUubWFlPic=

> <r_lp_tautomer_probability>
1

> <r_epik_Ionization_Penalty>
0.254999

> <r_epik_Ionization_Penalty_Charging>
0.254956

> <r_epik_Ionization_Penalty_Neutral>
4.33524e-05

> <r_epik_State_Penalty>
0.230978

> <r_epik_Charging_Adjusted_Penalty>
0.485934

> <i_epik_Tot_Q>
2

> <i_epik_Tot_abs_Q>
2

> <r_epik_Metal_State_Penalty>
3.47007

> <b_epik_Metal_Only>
0

> <s_lp_Force_Field>
OPLS_2005

> <r_lp_Energy>
36.8988

> <b_lp_Chiralities_Consistent>
1

> <s_lp_Variant>
AV-unprocessed.smi:2822-1

> <Gold.Version>
5.8.1

> <Gold.Id.Protein>
6NUR|6NUR_protein|mol2

> <Gold.PLP.Fitness>
45.7624

> <Gold.PLP.PLP>
-31.9798

> <Gold.PLP.part.hbond>
-3.0000

> <Gold.PLP.part.metal>
0.0000

> <Gold.PLP.part.buried>
-2.2350

> <Gold.PLP.part.nonpolar>
-26.2773

> <Gold.PLP.part.repulsive>
0.1523

> <Gold.PLP.ligand.clash>
0.0000

> <Gold.PLP.ligand.torsion>
0.6091

> <Gold.PLP.Chemscore.Hbond>
5.0000

> <Gold.PLP.Chemscore.CHOScore>
0.0000

> <Gold.PLP.Chemscore.Metal>
0.0000

> <Gold.Chemscore.Hbonds>
donor molecule, donor type, donor heavy atom, donor atom, acceptor molecule, acceptor atom, score
      L1  H     4    41       P1 10186  2.00
      L1  H     8    23       P1 10747  0.99
      L1  H    12    40       P1  7948  1.40

> <Gold.PLP.Chemscore.Internal.Correction>
0.0008

> <Gold.Rescore>
     Score         DG    S(hbond)    S(metal)    S(lipo)     H(rot)  DE(clash)    DE(int)     intcor
     20.00     -21.97       2.88        0.00      84.99       1.20       0.06       1.91       ----

> <Gold.Chemscore.Fitness>
20.0024

> <Gold.Chemscore.DG>
-21.9732

> <Gold.Chemscore.ZeroCoef>
-5.4800

> <Gold.Chemscore.Hbond>
2.8777

> <Gold.Chemscore.Metal>
0.0000

> <Gold.Chemscore.Lipo>
84.9901

> <Gold.Chemscore.Internal_Hbond>
0.0000

> <Gold.Chemscore.DEClash>
0.0595

> <Gold.Chemscore.DEInternal>
1.9112

> <Gold.Chemscore.Rot>
1.1962

> <Gold.Chemscore.Internal.Correction>
   9.000000E+99

> <Gold.Chemscore.Hbonds>
donor molecule, donor type, donor heavy atom, donor atom, acceptor molecule, acceptor atom, score
      L1  H     4    41       P1 10186  1.00
      L1  H     8    23       P1 10747  0.92
      L1  H    12    40       P1  7948  0.07

> <Gold.Chemscore.Hbond.Weighted>
-9.6116

> <Gold.Chemscore.Metal.Weighted>
-0.0000

> <Gold.Chemscore.Lipo.Weighted>
-9.9438

> <Gold.Chemscore.Internal_Hbond.Weighted>
0.0000

> <Gold.Chemscore.DEClash.Weighted>
0.0595

> <Gold.Chemscore.DEInternal.Weighted>
1.9112

> <Gold.Chemscore.Rot.Weighted>
3.0623

> <Gold.Chemscore.Internal.Correction.Weighted>
   9.000000E+99

> <Gold.Protein.RotatedTorsions>
[ 6907 6896 6895 6894 ] final  100.72 input  -60.11 | X-H torsion
[ 7974 7965 7964 7962 ] final  -79.58 input  175.53 | X-H torsion
[ 8008 7997 7996 7995 ] final  -12.82 input   59.86 | X-H torsion
[ 10167 10162 10161 10158 ] final   74.23 input  -65.29 | X-H torsion
[ 10718 10713 10712 10709 ] final  -96.18 input   66.30 | X-H torsion
[ 10763 10752 10751 10750 ] final   68.22 input  -60.55 | X-H torsion
[ 11005 11000 10999 10996 ] final  170.05 input  -57.11 | X-H torsion

> <Gold.Protein.ActiveResidues>
 VAL166  LYS551  ARG553  GLY616  TRP617  ASP618  TYR619  PRO620  LYS621  CYS622 
 ASP623  PHE694  ASN695  SER759  ASP760  ASP761  ALA762  ILE779  LEU786  VAL792 
 PHE793  MET794  SER795  GLU796  ALA797  LYS798  CYS799  TRP800  GLU811  SER814 

> <Gold.Protein.RotatedAtoms>
  152.5366  134.0235  159.7992 H   0  0  0  0  0  0  0  0  0  0  0  0  # atno 6907 bound_to 6896
  151.0417  133.5693  159.2657 H   0  0  0  0  0  0  0  0  0  0  0  0  # atno 6908 bound_to 6896
  151.2660  135.0676  159.9169 H   0  0  0  0  0  0  0  0  0  0  0  0  # atno 6909 bound_to 6896
  145.5713  140.9465  143.1394 H   0  0  0  0  0  0  0  0  0  0  0  0  # atno 7974 bound_to 7965
  154.5345  140.2266  155.8747 H   0  0  0  0  0  0  0  0  0  0  0  0  # atno 8008 bound_to 7997
  156.1797  140.3103  155.9089 H   0  0  0  0  0  0  0  0  0  0  0  0  # atno 8009 bound_to 7997
  155.3383  140.0449  157.3035 H   0  0  0  0  0  0  0  0  0  0  0  0  # atno 8010 bound_to 7997
  140.0160  144.5577  150.7620 H   0  0  0  0  0  0  0  0  0  0  0  0  # atno 10167 bound_to 10162
  156.0057  130.5140  150.6188 H   0  0  0  0  0  0  0  0  0  0  0  0  # atno 10718 bound_to 10713
  153.0224  135.5255  154.7101 H   0  0  0  0  0  0  0  0  0  0  0  0  # atno 10763 bound_to 10752
  154.6185  135.2886  155.0354 H   0  0  0  0  0  0  0  0  0  0  0  0  # atno 10764 bound_to 10752
  154.1350  135.6587  153.4982 H   0  0  0  0  0  0  0  0  0  0  0  0  # atno 10765 bound_to 10752
  140.3043  134.7569  157.3941 H   0  0  0  0  0  0  0  0  0  0  0  0  # atno 11005 bound_to 11000
  144.7436  139.7380  143.7301 LP  0  0  0  0  0  0  0  0  0  0  0  0  # atno 17320 bound_to 7965
  146.1782  139.4963  142.9883 LP  0  0  0  0  0  0  0  0  0  0  0  0  # atno 17321 bound_to 7965
  140.7362  143.2750  151.3770 LP  0  0  0  0  0  0  0  0  0  0  0  0  # atno 17342 bound_to 10162
  139.6172  144.0979  152.2357 LP  0  0  0  0  0  0  0  0  0  0  0  0  # atno 17343 bound_to 10162
  157.4007  131.0809  151.1311 LP  0  0  0  0  0  0  0  0  0  0  0  0  # atno 17370 bound_to 10713
  157.1973  130.6379  149.5726 LP  0  0  0  0  0  0  0  0  0  0  0  0  # atno 17371 bound_to 10713
  140.1081  134.5382  155.8291 LP  0  0  0  0  0  0  0  0  0  0  0  0  # atno 17394 bound_to 11000
  141.2121  133.6716  156.6638 LP  0  0  0  0  0  0  0  0  0  0  0  0  # atno 17395 bound_to 11000

$$$$
