AV-unprocessed.smi:2551|AV-procd|sdf|10013|dock4
  -GOLD-   2272014 53D 1   1.00000     0.00000
 Structure written by MMmdl.
 26 27  0  0  0  0  0  0  0  0  1 V2000
  151.4407  141.3110  156.9099 O   0  0  0  0  0  0  0  0  0  0  0  0
  150.7731  142.3221  156.6991 C   0  0  0  0  0  0  0  0  0  0  0  0
  149.7116  142.2917  155.8647 N   0  0  0  0  0  0  0  0  0  0  0  0
  149.1312  141.2354  155.1030 C   0  0  0  0  0  0  0  0  0  0  0  0
  149.5813  139.9700  155.0846 N   0  0  0  0  0  0  0  0  0  0  0  0
  148.8281  139.1579  154.2478 N   0  0  0  0  0  0  0  0  0  0  0  0
  147.8412  139.8409  153.6616 C   0  0  0  0  0  0  0  0  0  0  0  0
  147.7375  141.5429  154.0754 S   0  0  0  0  0  0  0  0  0  0  0  0
  151.0545  143.5067  157.2660 N   0  0  0  0  0  0  0  0  0  0  0  0
  152.1533  143.7656  158.1919 C   0  0  0  0  0  0  0  0  0  0  0  0
  151.9958  142.9206  159.4714 C   0  0  0  0  0  0  0  0  0  0  0  0
  152.1539  143.8894  160.6450 C   0  0  0  0  0  0  0  0  0  0  0  0
  151.6757  145.2300  160.0972 C   0  0  0  0  0  0  0  0  0  0  0  0
  152.1703  145.2372  158.6510 C   0  0  0  0  0  0  0  0  0  0  0  0
  149.2474  143.1817  155.7561 H   0  0  0  0  0  0  0  0  0  0  0  0
  147.1712  139.3394  152.9792 H   0  0  0  0  0  0  0  0  0  0  0  0
  150.4581  144.2898  157.0389 H   0  0  0  0  0  0  0  0  0  0  0  0
  153.1011  143.5224  157.7082 H   0  0  0  0  0  0  0  0  0  0  0  0
  151.0033  142.4686  159.5158 H   0  0  0  0  0  0  0  0  0  0  0  0
  152.7201  142.1069  159.5173 H   0  0  0  0  0  0  0  0  0  0  0  0
  151.5980  143.5733  161.5281 H   0  0  0  0  0  0  0  0  0  0  0  0
  153.2065  143.9625  160.9220 H   0  0  0  0  0  0  0  0  0  0  0  0
  150.5855  145.2665  160.1139 H   0  0  0  0  0  0  0  0  0  0  0  0
  152.0478  146.0778  160.6734 H   0  0  0  0  0  0  0  0  0  0  0  0
  153.1962  145.6069  158.6258 H   0  0  0  0  0  0  0  0  0  0  0  0
  151.5774  145.8995  158.0188 H   0  0  0  0  0  0  0  0  0  0  0  0
  1  2  2  0  0  0  0
  2  3  1  0  0  0  0
  2  9  1  0  0  0  0
  3  4  1  0  0  0  0
  3 15  1  0  0  0  0
  4  8  1  0  0  0  0
  4  5  2  0  0  0  0
  5  6  1  0  0  0  0
  6  7  2  0  0  0  0
  7  8  1  0  0  0  0
  7 16  1  0  0  0  0
  9 10  1  0  0  0  0
  9 17  1  0  0  0  0
 10 14  1  0  0  0  0
 10 11  1  0  0  0  0
 10 18  1  0  0  0  0
 11 12  1  0  0  0  0
 11 19  1  0  0  0  0
 11 20  1  0  0  0  0
 12 13  1  0  0  0  0
 12 21  1  0  0  0  0
 12 22  1  0  0  0  0
 13 14  1  0  0  0  0
 13 23  1  0  0  0  0
 13 24  1  0  0  0  0
 14 25  1  0  0  0  0
 14 26  1  0  0  0  0
M  END
> <s_m_source_file>
AV-unprocessed.smi

> <i_m_source_file_index>
2551

> <i_lp_mmshare_version>
43012

> <i_f3d_flags>
0

> <s_epik_input>
W0NIMl0xW0NIMl1bQ0gyXVtDSDJdW0NIXTFbTkhdQyg9TylbTkhdYzJubltjSF1zMg==

> <s_epik_cmdline>
J2VwaWtfcHl0aG9uJywgJy1waCcsICc3LjAnLCAnLXRuJywgJzgnLCAnLW1hJywgJzIwMCcsICctbWV0YWxfYmluZGluZycsICctaW1hZScsICc8aW5maWxlLm1hZT4nLCAnLW9tYWUnLCAnPG91dGZpbGUubWFlPic=

> <r_lp_tautomer_probability>
1

> <r_epik_Ionization_Penalty>
0.000339189

> <r_epik_Ionization_Penalty_Charging>
0

> <r_epik_Ionization_Penalty_Neutral>
0.000339189

> <r_epik_State_Penalty>
-0

> <r_epik_Charging_Adjusted_Penalty>
0

> <i_epik_Tot_Q>
0

> <i_epik_Tot_abs_Q>
0

> <r_epik_Metal_State_Penalty>
0.176475

> <b_epik_Metal_Only>
0

> <s_lp_Force_Field>
OPLS_2005

> <r_lp_Energy>
20.1327

> <b_lp_Chiralities_Consistent>
1

> <s_lp_Variant>
AV-unprocessed.smi:2551-1

> <Gold.Version>
5.8.1

> <Gold.Id.Protein>
6NUR|6NUR_protein|mol2

> <Gold.PLP.Fitness>
37.8601

> <Gold.PLP.PLP>
-32.8357

> <Gold.PLP.part.hbond>
-2.0000

> <Gold.PLP.part.metal>
0.0000

> <Gold.PLP.part.buried>
-4.1911

> <Gold.PLP.part.nonpolar>
-27.4847

> <Gold.PLP.part.repulsive>
0.3790

> <Gold.PLP.ligand.clash>
0.0000

> <Gold.PLP.ligand.torsion>
0.0019

> <Gold.PLP.Chemscore.Hbond>
1.6752

> <Gold.PLP.Chemscore.CHOScore>
0.0000

> <Gold.PLP.Chemscore.Metal>
0.0000

> <Gold.Chemscore.Hbonds>
donor molecule, donor type, donor heavy atom, donor atom, acceptor molecule, acceptor atom, score
      L1  H     3    15       P1  8028  1.00
      L1  H     9    17       P1  8028  0.64

> <Gold.PLP.Chemscore.Internal.Correction>
0.0025

> <Gold.Rescore>
     Score         DG    S(hbond)    S(metal)    S(lipo)     H(rot)  DE(clash)    DE(int)     intcor
     16.29     -17.99       1.87        0.00      75.35       1.00       0.48       1.22       ----

> <Gold.Chemscore.Fitness>
16.2856

> <Gold.Chemscore.DG>
-17.9890

> <Gold.Chemscore.ZeroCoef>
-5.4800

> <Gold.Chemscore.Hbond>
1.8723

> <Gold.Chemscore.Metal>
0.0000

> <Gold.Chemscore.Lipo>
75.3470

> <Gold.Chemscore.Internal_Hbond>
0.0000

> <Gold.Chemscore.DEClash>
0.4838

> <Gold.Chemscore.DEInternal>
1.2196

> <Gold.Chemscore.Rot>
1.0000

> <Gold.Chemscore.Internal.Correction>
   9.000000E+99

> <Gold.Chemscore.Hbonds>
donor molecule, donor type, donor heavy atom, donor atom, acceptor molecule, acceptor atom, score
      L1  H     3    15       P1  8028  0.98
      L1  H     9    17       P1  8028  0.58

> <Gold.Chemscore.Hbond.Weighted>
-6.2534

> <Gold.Chemscore.Metal.Weighted>
-0.0000

> <Gold.Chemscore.Lipo.Weighted>
-8.8156

> <Gold.Chemscore.Internal_Hbond.Weighted>
0.0000

> <Gold.Chemscore.DEClash.Weighted>
0.4838

> <Gold.Chemscore.DEInternal.Weighted>
1.2196

> <Gold.Chemscore.Rot.Weighted>
2.5600

> <Gold.Chemscore.Internal.Correction.Weighted>
   9.000000E+99

> <Gold.Protein.RotatedTorsions>
[ 6907 6896 6895 6894 ] final  -93.15 input  -60.11 | X-H torsion
[ 7974 7965 7964 7962 ] final  113.56 input  175.53 | X-H torsion
[ 8008 7997 7996 7995 ] final   44.59 input   59.86 | X-H torsion
[ 10167 10162 10161 10158 ] final    4.93 input  -65.29 | X-H torsion
[ 10718 10713 10712 10709 ] final   63.28 input   66.30 | X-H torsion
[ 10763 10752 10751 10750 ] final -174.06 input  -60.55 | X-H torsion
[ 11005 11000 10999 10996 ] final  -42.01 input  -57.11 | X-H torsion

> <Gold.Protein.ActiveResidues>
 VAL166  LYS551  ARG553  GLY616  TRP617  ASP618  TYR619  PRO620  LYS621  CYS622 
 ASP623  PHE694  ASN695  SER759  ASP760  ASP761  ALA762  ILE779  LEU786  VAL792 
 PHE793  MET794  SER795  GLU796  ALA797  LYS798  CYS799  TRP800  GLU811  SER814 

> <Gold.Protein.RotatedAtoms>
  150.6918  134.2011  159.4322 H   0  0  0  0  0  0  0  0  0  0  0  0  # atno 6907 bound_to 6896
  151.9977  134.9942  160.0573 H   0  0  0  0  0  0  0  0  0  0  0  0  # atno 6908 bound_to 6896
  152.1608  133.4545  159.4896 H   0  0  0  0  0  0  0  0  0  0  0  0  # atno 6909 bound_to 6896
  145.2154  139.2887  143.4246 H   0  0  0  0  0  0  0  0  0  0  0  0  # atno 7974 bound_to 7965
  155.3218  140.3397  155.4241 H   0  0  0  0  0  0  0  0  0  0  0  0  # atno 8008 bound_to 7997
  156.1905  140.1696  156.8138 H   0  0  0  0  0  0  0  0  0  0  0  0  # atno 8009 bound_to 7997
  154.5437  140.0719  156.8536 H   0  0  0  0  0  0  0  0  0  0  0  0  # atno 8010 bound_to 7997
  140.6509  143.7548  150.7573 H   0  0  0  0  0  0  0  0  0  0  0  0  # atno 10167 bound_to 10162
  157.5960  130.9097  149.9696 H   0  0  0  0  0  0  0  0  0  0  0  0  # atno 10718 bound_to 10713
  154.6006  135.2854  155.0539 H   0  0  0  0  0  0  0  0  0  0  0  0  # atno 10763 bound_to 10752
  154.1806  135.6457  153.5037 H   0  0  0  0  0  0  0  0  0  0  0  0  # atno 10764 bound_to 10752
  153.0155  135.5422  154.6723 H   0  0  0  0  0  0  0  0  0  0  0  0  # atno 10765 bound_to 10752
  141.0286  133.6830  156.2535 H   0  0  0  0  0  0  0  0  0  0  0  0  # atno 11005 bound_to 11000
  146.3388  140.2443  142.8596 LP  0  0  0  0  0  0  0  0  0  0  0  0  # atno 17320 bound_to 7965
  144.9816  140.8464  143.5394 LP  0  0  0  0  0  0  0  0  0  0  0  0  # atno 17321 bound_to 7965
  140.1198  143.4622  152.2320 LP  0  0  0  0  0  0  0  0  0  0  0  0  # atno 17342 bound_to 10162
  139.5724  144.7470  151.3856 LP  0  0  0  0  0  0  0  0  0  0  0  0  # atno 17343 bound_to 10162
  156.1023  130.3655  150.0196 LP  0  0  0  0  0  0  0  0  0  0  0  0  # atno 17370 bound_to 10713
  156.8309  130.9392  151.3637 LP  0  0  0  0  0  0  0  0  0  0  0  0  # atno 17371 bound_to 10713
  140.6448  134.5129  157.5572 LP  0  0  0  0  0  0  0  0  0  0  0  0  # atno 17394 bound_to 11000
  139.9192  134.8183  156.1265 LP  0  0  0  0  0  0  0  0  0  0  0  0  # atno 17395 bound_to 11000

$$$$
