AV-unprocessed.smi:3265|AV-procd|sdf|12496|dock2
  -GOLD-   2272018393D 1   1.00000     0.00000
 Structure written by MMmdl.
 41 42  0  0  0  0  0  0  0  0  2 V2000
  142.3095  135.7555  153.6165 C   0  0  0  0  0  0  0  0  0  0  0  0
  143.1639  135.9431  152.3549 C   0  0  2  0  0  0  0  0  0  0  0  0
  143.7076  134.6000  151.8399 C   0  0  0  0  0  0  0  0  0  0  0  0
  144.5748  134.8216  150.5948 C   0  0  0  0  0  0  0  0  0  0  0  0
  145.6957  135.8338  150.8787 C   0  0  0  0  0  0  0  0  0  0  0  0
  145.1445  137.1221  151.3732 N   0  3  2  0  0  0  0  0  0  0  0  0
  146.1981  138.1572  151.5271 C   0  0  0  0  0  0  0  0  0  0  0  0
  146.7057  138.2716  152.9777 C   0  0  0  0  0  0  0  0  0  0  0  0
  147.5545  139.4431  153.1583 N   0  0  0  0  0  0  0  0  0  0  0  0
  147.6232  140.1764  154.2815 C   0  0  0  0  0  0  0  0  0  0  0  0
  146.9385  139.9475  155.2784 O   0  0  0  0  0  0  0  0  0  0  0  0
  148.6025  141.3533  154.2802 C   0  0  0  0  0  0  0  0  0  0  0  0
  149.6895  141.1494  155.2225 N   0  0  0  0  0  0  0  0  0  0  0  0
  149.9660  141.8515  156.3775 C   0  0  0  0  0  0  0  0  0  0  0  0
  151.0907  141.3053  156.9261 C   0  0  0  0  0  0  0  0  0  0  0  0
  151.4313  140.2572  156.0260 C   0  0  0  0  0  0  0  0  0  0  0  0
  150.5913  140.1660  155.0079 N   0  0  0  0  0  0  0  0  0  0  0  0
  144.3231  136.9306  152.5992 C   0  0  0  0  0  0  0  0  0  0  0  0
  142.8973  135.3416  154.4364 H   0  0  0  0  0  0  0  0  0  0  0  0
  141.4762  135.0773  153.4299 H   0  0  0  0  0  0  0  0  0  0  0  0
  141.8911  136.7047  153.9524 H   0  0  0  0  0  0  0  0  0  0  0  0
  142.5187  136.3653  151.5827 H   0  0  0  0  0  0  0  0  0  0  0  0
  144.2988  134.1137  152.6172 H   0  0  0  0  0  0  0  0  0  0  0  0
  142.8857  133.9234  151.6036 H   0  0  0  0  0  0  0  0  0  0  0  0
  145.0029  133.8740  150.2663 H   0  0  0  0  0  0  0  0  0  0  0  0
  143.9538  135.1815  149.7733 H   0  0  0  0  0  0  0  0  0  0  0  0
  146.3935  135.4286  151.6135 H   0  0  0  0  0  0  0  0  0  0  0  0
  146.2623  136.0015  149.9618 H   0  0  0  0  0  0  0  0  0  0  0  0
  147.0223  137.9528  150.8420 H   0  0  0  0  0  0  0  0  0  0  0  0
  145.7869  139.1234  151.2316 H   0  0  0  0  0  0  0  0  0  0  0  0
  145.8670  138.3092  153.6754 H   0  0  0  0  0  0  0  0  0  0  0  0
  147.2989  137.4005  153.2531 H   0  0  0  0  0  0  0  0  0  0  0  0
  148.1522  139.7010  152.3859 H   0  0  0  0  0  0  0  0  0  0  0  0
  149.0186  141.4826  153.2804 H   0  0  0  0  0  0  0  0  0  0  0  0
  148.0813  142.2781  154.5337 H   0  0  0  0  0  0  0  0  0  0  0  0
  149.3481  142.6737  156.7076 H   0  0  0  0  0  0  0  0  0  0  0  0
  151.5931  141.6073  157.8330 H   0  0  0  0  0  0  0  0  0  0  0  0
  152.2590  139.5653  156.0812 H   0  0  0  0  0  0  0  0  0  0  0  0
  143.9081  137.8839  152.9241 H   0  0  0  0  0  0  0  0  0  0  0  0
  144.9600  136.5723  153.4097 H   0  0  0  0  0  0  0  0  0  0  0  0
  144.5230  137.4553  150.6501 H   0  0  0  0  0  0  0  0  0  0  0  0
  1  2  1  0  0  0  0
  1 19  1  0  0  0  0
  1 20  1  0  0  0  0
  1 21  1  0  0  0  0
  2 18  1  0  0  0  0
  2  3  1  0  0  0  0
  2 22  1  0  0  0  0
  3  4  1  0  0  0  0
  3 23  1  0  0  0  0
  3 24  1  0  0  0  0
  4  5  1  0  0  0  0
  4 25  1  0  0  0  0
  4 26  1  0  0  0  0
  5  6  1  0  0  0  0
  5 27  1  0  0  0  0
  5 28  1  0  0  0  0
  6  7  1  0  0  0  0
  6 18  1  0  0  0  0
  6 41  1  0  0  0  0
  7  8  1  0  0  0  0
  7 29  1  0  0  0  0
  7 30  1  0  0  0  0
  8  9  1  0  0  0  0
  8 31  1  0  0  0  0
  8 32  1  0  0  0  0
  9 10  1  0  0  0  0
  9 33  1  0  0  0  0
 10 11  2  0  0  0  0
 10 12  1  0  0  0  0
 12 13  1  0  0  0  0
 12 34  1  0  0  0  0
 12 35  1  0  0  0  0
 13 17  1  0  0  0  0
 13 14  1  0  0  0  0
 14 15  2  0  0  0  0
 14 36  1  0  0  0  0
 15 16  1  0  0  0  0
 15 37  1  0  0  0  0
 16 17  2  0  0  0  0
 16 38  1  0  0  0  0
 18 39  1  0  0  0  0
 18 40  1  0  0  0  0
M  CHG  1   6   1
M  END
> <s_m_source_file>
AV-unprocessed.smi

> <i_m_source_file_index>
3265

> <i_lp_mmshare_version>
43012

> <i_f3d_flags>
0

> <s_epik_input>
W0NIM11bQ0BASF0xW0NIMl1bQ0gyXVtDSDJdTihbQ0gyXTEpW0NIMl1bQ0gyXVtOSF1DKD1PKVtDSDJdbjJbY0hdW2NIXVtjSF1uMg==

> <s_epik_cmdline>
J2VwaWtfcHl0aG9uJywgJy1waCcsICc3LjAnLCAnLXRuJywgJzgnLCAnLW1hJywgJzIwMCcsICctbWV0YWxfYmluZGluZycsICctaW1hZScsICc8aW5maWxlLm1hZT4nLCAnLW9tYWUnLCAnPG91dGZpbGUubWFlPic=

> <r_lp_tautomer_probability>
1

> <r_epik_Ionization_Penalty>
0.00231455

> <r_epik_Ionization_Penalty_Charging>
0.00230623

> <r_epik_Ionization_Penalty_Neutral>
8.31727e-06

> <r_epik_State_Penalty>
0.00159065

> <r_epik_Charging_Adjusted_Penalty>
0.00389688

> <i_epik_Tot_Q>
1

> <i_epik_Tot_abs_Q>
1

> <r_epik_Metal_State_Penalty>
-0

> <b_epik_Metal_Only>
0

> <s_lp_Force_Field>
OPLS_2005

> <r_lp_Energy>
16.3652

> <b_lp_Chiralities_Consistent>
1

> <s_lp_Variant>
AV-unprocessed.smi:3265-1

> <Gold.Version>
5.8.1

> <Gold.Id.Protein>
6NUR|6NUR_protein|mol2

> <Gold.PLP.Fitness>
46.3989

> <Gold.PLP.PLP>
-35.8310

> <Gold.PLP.part.hbond>
-2.8265

> <Gold.PLP.part.metal>
0.0000

> <Gold.PLP.part.buried>
-2.3054

> <Gold.PLP.part.nonpolar>
-31.4695

> <Gold.PLP.part.repulsive>
0.1956

> <Gold.PLP.ligand.clash>
0.0000

> <Gold.PLP.ligand.torsion>
0.7367

> <Gold.PLP.Chemscore.Hbond>
3.0000

> <Gold.PLP.Chemscore.CHOScore>
1.0000

> <Gold.PLP.Chemscore.Metal>
0.0000

> <Gold.Chemscore.Hbonds>
donor molecule, donor type, donor heavy atom, donor atom, acceptor molecule, acceptor atom, score
      L1  H     6    41       P1 10171  1.00
      L1  H     9    33       P1  7957  1.00
      P1  H  7989  7998       L1    17  1.00
      L1  C    14    36       P1  8028  1.00

> <Gold.PLP.Chemscore.Internal.Correction>
0.0413

> <Gold.Rescore>
     Score         DG    S(hbond)    S(metal)    S(lipo)     H(rot)  DE(clash)    DE(int)     intcor
     17.16     -18.23       2.61        0.00      74.56       1.84       0.29       0.78       ----

> <Gold.Chemscore.Fitness>
17.1620

> <Gold.Chemscore.DG>
-18.2310

> <Gold.Chemscore.ZeroCoef>
-5.4800

> <Gold.Chemscore.Hbond>
2.6149

> <Gold.Chemscore.Metal>
0.0000

> <Gold.Chemscore.Lipo>
74.5637

> <Gold.Chemscore.Internal_Hbond>
0.0000

> <Gold.Chemscore.DEClash>
0.2902

> <Gold.Chemscore.DEInternal>
0.7788

> <Gold.Chemscore.Rot>
1.8386

> <Gold.Chemscore.Internal.Correction>
   9.000000E+99

> <Gold.Chemscore.Hbonds>
donor molecule, donor type, donor heavy atom, donor atom, acceptor molecule, acceptor atom, score
      L1  H     6    41       P1 10171  0.92
      L1  H     9    33       P1  7957  1.00
      P1  H  7989  7998       L1    17  0.14

> <Gold.Chemscore.Hbond.Weighted>
-8.7339

> <Gold.Chemscore.Metal.Weighted>
-0.0000

> <Gold.Chemscore.Lipo.Weighted>
-8.7240

> <Gold.Chemscore.Internal_Hbond.Weighted>
0.0000

> <Gold.Chemscore.DEClash.Weighted>
0.2902

> <Gold.Chemscore.DEInternal.Weighted>
0.7788

> <Gold.Chemscore.Rot.Weighted>
4.7069

> <Gold.Chemscore.Internal.Correction.Weighted>
   9.000000E+99

> <Gold.Protein.RotatedTorsions>
[ 6907 6896 6895 6894 ] final   97.06 input  -60.11 | X-H torsion
[ 7974 7965 7964 7962 ] final -159.59 input  175.53 | X-H torsion
[ 8008 7997 7996 7995 ] final  161.70 input   59.86 | X-H torsion
[ 10167 10162 10161 10158 ] final  -68.47 input  -65.29 | X-H torsion
[ 10718 10713 10712 10709 ] final   70.44 input   66.30 | X-H torsion
[ 10763 10752 10751 10750 ] final  102.58 input  -60.55 | X-H torsion
[ 11005 11000 10999 10996 ] final  173.42 input  -57.11 | X-H torsion

> <Gold.Protein.ActiveResidues>
 VAL166  LYS551  ARG553  GLY616  TRP617  ASP618  TYR619  PRO620  LYS621  CYS622 
 ASP623  PHE694  ASN695  SER759  ASP760  ASP761  ALA762  ILE779  LEU786  VAL792 
 PHE793  MET794  SER795  GLU796  ALA797  LYS798  CYS799  TRP800  GLU811  SER814 

> <Gold.Protein.RotatedAtoms>
  152.5428  134.0791  159.8227 H   0  0  0  0  0  0  0  0  0  0  0  0  # atno 6907 bound_to 6896
  151.0895  133.5319  159.2623 H   0  0  0  0  0  0  0  0  0  0  0  0  # atno 6908 bound_to 6896
  151.2116  135.0492  159.8967 H   0  0  0  0  0  0  0  0  0  0  0  0  # atno 6909 bound_to 6896
  144.7459  140.3663  143.6085 H   0  0  0  0  0  0  0  0  0  0  0  0  # atno 7974 bound_to 7965
  156.2085  140.1770  156.7748 H   0  0  0  0  0  0  0  0  0  0  0  0  # atno 8008 bound_to 7997
  154.5688  140.0686  156.8963 H   0  0  0  0  0  0  0  0  0  0  0  0  # atno 8009 bound_to 7997
  155.2711  140.3342  155.4267 H   0  0  0  0  0  0  0  0  0  0  0  0  # atno 8010 bound_to 7997
  140.5505  143.2312  151.6920 H   0  0  0  0  0  0  0  0  0  0  0  0  # atno 10167 bound_to 10162
  157.6400  130.9477  150.0651 H   0  0  0  0  0  0  0  0  0  0  0  0  # atno 10718 bound_to 10713
  153.3414  135.4006  155.1575 H   0  0  0  0  0  0  0  0  0  0  0  0  # atno 10763 bound_to 10752
  154.8644  135.3634  154.5341 H   0  0  0  0  0  0  0  0  0  0  0  0  # atno 10764 bound_to 10752
  153.5786  135.7077  153.5533 H   0  0  0  0  0  0  0  0  0  0  0  0  # atno 10765 bound_to 10752
  140.3403  134.7282  157.4197 H   0  0  0  0  0  0  0  0  0  0  0  0  # atno 11005 bound_to 11000
  145.7124  139.1688  143.2531 LP  0  0  0  0  0  0  0  0  0  0  0  0  # atno 17320 bound_to 7965
  146.1337  140.7151  142.9400 LP  0  0  0  0  0  0  0  0  0  0  0  0  # atno 17321 bound_to 7965
  139.5025  144.3825  152.0361 LP  0  0  0  0  0  0  0  0  0  0  0  0  # atno 17342 bound_to 10162
  140.2942  144.3720  150.6079 LP  0  0  0  0  0  0  0  0  0  0  0  0  # atno 17343 bound_to 10162
  156.1672  130.3645  149.9215 LP  0  0  0  0  0  0  0  0  0  0  0  0  # atno 17370 bound_to 10713
  156.7199  130.9003  151.3617 LP  0  0  0  0  0  0  0  0  0  0  0  0  # atno 17371 bound_to 10713
  140.0787  134.5761  155.8564 LP  0  0  0  0  0  0  0  0  0  0  0  0  # atno 17394 bound_to 11000
  141.2040  133.6636  156.6097 LP  0  0  0  0  0  0  0  0  0  0  0  0  # atno 17395 bound_to 11000

$$$$
