AV-unprocessed.smi:2921|AV-procd|sdf|11197|dock8
  -GOLD-   2272016 93D 1   1.00000     0.00000
 Structure written by MMmdl.
 41 42  0  0  0  0  0  0  0  0  1 V2000
  149.9534  136.9644  155.4504 C   0  0  0  0  0  0  0  0  0  0  0  0
  150.7330  138.0521  154.6956 C   0  0  0  0  0  0  0  0  0  0  0  0
  152.0834  138.3584  155.3642 C   0  0  0  0  0  0  0  0  0  0  0  0
  149.9284  139.2607  154.5438 N   0  0  0  0  0  0  0  0  0  0  0  0
  150.3140  140.4122  155.1423 N   0  0  0  0  0  0  0  0  0  0  0  0
  149.3810  141.2999  154.8263 C   0  0  0  0  0  0  0  0  0  0  0  0
  148.3467  140.7548  154.0147 C   0  0  0  0  0  0  0  0  0  0  0  0
  148.7415  139.4532  153.8640 C   0  0  0  0  0  0  0  0  0  0  0  0
  148.1183  138.4525  153.1865 N   0  0  0  0  0  0  0  0  0  0  0  0
  146.8008  138.2434  153.0186 C   0  0  0  0  0  0  0  0  0  0  0  0
  145.9009  138.9514  153.4708 O   0  0  0  0  0  0  0  0  0  0  0  0
  146.5777  137.1539  152.2703 N   0  0  0  0  0  0  0  0  0  0  0  0
  145.2641  136.6734  151.8552 C   0  0  0  0  0  0  0  0  0  0  0  0
  145.2460  136.1450  150.4071 C   0  0  0  0  0  0  0  0  0  0  0  0
  145.1874  134.6303  150.2964 C   0  0  0  0  0  0  0  0  0  0  0  0
  144.2029  133.9189  149.7483 C   0  0  0  0  0  0  0  0  0  0  0  0
  144.4716  132.4392  149.7694 C   0  0  0  0  0  0  0  0  0  0  0  0
  145.8891  132.3270  150.3719 C   0  0  0  0  0  0  0  0  0  0  0  0
  146.3153  133.7539  150.7823 C   0  0  0  0  0  0  0  0  0  0  0  0
  150.5286  136.0400  155.5089 H   0  0  0  0  0  0  0  0  0  0  0  0
  149.0131  136.7360  154.9475 H   0  0  0  0  0  0  0  0  0  0  0  0
  149.7195  137.2738  156.4696 H   0  0  0  0  0  0  0  0  0  0  0  0
  150.9484  137.6675  153.6986 H   0  0  0  0  0  0  0  0  0  0  0  0
  152.7119  137.4682  155.4000 H   0  0  0  0  0  0  0  0  0  0  0  0
  151.9555  138.7119  156.3880 H   0  0  0  0  0  0  0  0  0  0  0  0
  152.6288  139.1243  154.8123 H   0  0  0  0  0  0  0  0  0  0  0  0
  149.4795  142.3093  155.1977 H   0  0  0  0  0  0  0  0  0  0  0  0
  147.4708  141.2509  153.6251 H   0  0  0  0  0  0  0  0  0  0  0  0
  148.7330  137.7956  152.7295 H   0  0  0  0  0  0  0  0  0  0  0  0
  147.3758  136.6295  151.9429 H   0  0  0  0  0  0  0  0  0  0  0  0
  144.9493  135.8872  152.5419 H   0  0  0  0  0  0  0  0  0  0  0  0
  144.5364  137.4794  151.9626 H   0  0  0  0  0  0  0  0  0  0  0  0
  144.3698  136.5535  149.9025 H   0  0  0  0  0  0  0  0  0  0  0  0
  146.1099  136.5083  149.8495 H   0  0  0  0  0  0  0  0  0  0  0  0
  143.2986  134.3303  149.3245 H   0  0  0  0  0  0  0  0  0  0  0  0
  143.7282  131.9356  150.3879 H   0  0  0  0  0  0  0  0  0  0  0  0
  144.4257  132.0256  148.7615 H   0  0  0  0  0  0  0  0  0  0  0  0
  145.9031  131.6491  151.2260 H   0  0  0  0  0  0  0  0  0  0  0  0
  146.5823  131.9272  149.6308 H   0  0  0  0  0  0  0  0  0  0  0  0
  147.2576  134.0444  150.3170 H   0  0  0  0  0  0  0  0  0  0  0  0
  146.4232  133.8294  151.8636 H   0  0  0  0  0  0  0  0  0  0  0  0
  1  2  1  0  0  0  0
  1 20  1  0  0  0  0
  1 21  1  0  0  0  0
  1 22  1  0  0  0  0
  2  3  1  0  0  0  0
  2  4  1  0  0  0  0
  2 23  1  0  0  0  0
  3 24  1  0  0  0  0
  3 25  1  0  0  0  0
  3 26  1  0  0  0  0
  4  8  1  0  0  0  0
  4  5  1  0  0  0  0
  5  6  2  0  0  0  0
  6  7  1  0  0  0  0
  6 27  1  0  0  0  0
  7  8  2  0  0  0  0
  7 28  1  0  0  0  0
  8  9  1  0  0  0  0
  9 10  1  0  0  0  0
  9 29  1  0  0  0  0
 10 11  2  0  0  0  0
 10 12  1  0  0  0  0
 12 13  1  0  0  0  0
 12 30  1  0  0  0  0
 13 14  1  0  0  0  0
 13 31  1  0  0  0  0
 13 32  1  0  0  0  0
 14 15  1  0  0  0  0
 14 33  1  0  0  0  0
 14 34  1  0  0  0  0
 15 19  1  0  0  0  0
 15 16  2  0  0  0  0
 16 17  1  0  0  0  0
 16 35  1  0  0  0  0
 17 18  1  0  0  0  0
 17 36  1  0  0  0  0
 17 37  1  0  0  0  0
 18 19  1  0  0  0  0
 18 38  1  0  0  0  0
 18 39  1  0  0  0  0
 19 40  1  0  0  0  0
 19 41  1  0  0  0  0
M  END
> <s_m_source_file>
AV-unprocessed.smi

> <i_m_source_file_index>
2921

> <i_lp_mmshare_version>
43012

> <i_f3d_flags>
0

> <s_epik_input>
W0NIM11bQ0hdKFtDSDNdKW4xbltjSF1bY0hdYzFbTkhdQyg9TylbTkhdW0NIMl1bQ0gyXUMyPVtDSF1bQ0gyXVtDSDJdW0NIMl0y

> <s_epik_cmdline>
J2VwaWtfcHl0aG9uJywgJy1waCcsICc3LjAnLCAnLXRuJywgJzgnLCAnLW1hJywgJzIwMCcsICctbWV0YWxfYmluZGluZycsICctaW1hZScsICc8aW5maWxlLm1hZT4nLCAnLW9tYWUnLCAnPG91dGZpbGUubWFlPic=

> <r_lp_tautomer_probability>
1

> <r_epik_Ionization_Penalty>
4.14613e-05

> <r_epik_Ionization_Penalty_Charging>
0

> <r_epik_Ionization_Penalty_Neutral>
4.14613e-05

> <r_epik_State_Penalty>
-0

> <r_epik_Charging_Adjusted_Penalty>
0

> <i_epik_Tot_Q>
0

> <i_epik_Tot_abs_Q>
0

> <r_epik_Metal_State_Penalty>
-0

> <b_epik_Metal_Only>
0

> <s_lp_Force_Field>
OPLS_2005

> <r_lp_Energy>
26.255

> <b_lp_Chiralities_Consistent>
1

> <s_lp_Variant>
AV-unprocessed.smi:2921-1

> <Gold.Version>
5.8.1

> <Gold.Id.Protein>
6NUR|6NUR_protein|mol2

> <Gold.PLP.Fitness>
49.5480

> <Gold.PLP.PLP>
-40.0008

> <Gold.PLP.part.hbond>
-3.9135

> <Gold.PLP.part.metal>
0.0000

> <Gold.PLP.part.buried>
-2.0478

> <Gold.PLP.part.nonpolar>
-34.5775

> <Gold.PLP.part.repulsive>
0.3041

> <Gold.PLP.ligand.clash>
0.0000

> <Gold.PLP.ligand.torsion>
0.8048

> <Gold.PLP.Chemscore.Hbond>
2.7000

> <Gold.PLP.Chemscore.CHOScore>
1.0000

> <Gold.PLP.Chemscore.Metal>
0.0000

> <Gold.Chemscore.Hbonds>
donor molecule, donor type, donor heavy atom, donor atom, acceptor molecule, acceptor atom, score
      L1  H     9    29       P1  7948  1.00
      L1  H    12    30       P1  7948  1.00
      P1  H  7989  7998       L1     5  0.31
      L1  C     6    27       P1  8028  1.00

> <Gold.PLP.Chemscore.Internal.Correction>
0.0567

> <Gold.Rescore>
     Score         DG    S(hbond)    S(metal)    S(lipo)     H(rot)  DE(clash)    DE(int)     intcor
     16.89     -17.75       1.92        0.00      82.82       1.50       0.08       0.78       ----

> <Gold.Chemscore.Fitness>
16.8916

> <Gold.Chemscore.DG>
-17.7500

> <Gold.Chemscore.ZeroCoef>
-5.4800

> <Gold.Chemscore.Hbond>
1.9236

> <Gold.Chemscore.Metal>
0.0000

> <Gold.Chemscore.Lipo>
82.8186

> <Gold.Chemscore.Internal_Hbond>
0.0000

> <Gold.Chemscore.DEClash>
0.0786

> <Gold.Chemscore.DEInternal>
0.7798

> <Gold.Chemscore.Rot>
1.5018

> <Gold.Chemscore.Internal.Correction>
   9.000000E+99

> <Gold.Chemscore.Hbonds>
donor molecule, donor type, donor heavy atom, donor atom, acceptor molecule, acceptor atom, score
      L1  H     9    29       P1  7948  0.94
      L1  H    12    30       P1  7948  0.98

> <Gold.Chemscore.Hbond.Weighted>
-6.4248

> <Gold.Chemscore.Metal.Weighted>
-0.0000

> <Gold.Chemscore.Lipo.Weighted>
-9.6898

> <Gold.Chemscore.Internal_Hbond.Weighted>
0.0000

> <Gold.Chemscore.DEClash.Weighted>
0.0786

> <Gold.Chemscore.DEInternal.Weighted>
0.7798

> <Gold.Chemscore.Rot.Weighted>
3.8446

> <Gold.Chemscore.Internal.Correction.Weighted>
   9.000000E+99

> <Gold.Protein.RotatedTorsions>
[ 6907 6896 6895 6894 ] final   84.12 input  -60.11 | X-H torsion
[ 7974 7965 7964 7962 ] final  -77.54 input  175.53 | X-H torsion
[ 8008 7997 7996 7995 ] final -161.31 input   59.86 | X-H torsion
[ 10167 10162 10161 10158 ] final  164.65 input  -65.29 | X-H torsion
[ 10718 10713 10712 10709 ] final   85.52 input   66.30 | X-H torsion
[ 10763 10752 10751 10750 ] final   14.36 input  -60.55 | X-H torsion
[ 11005 11000 10999 10996 ] final  171.12 input  -57.11 | X-H torsion

> <Gold.Protein.ActiveResidues>
 VAL166  LYS551  ARG553  GLY616  TRP617  ASP618  TYR619  PRO620  LYS621  CYS622 
 ASP623  PHE694  ASN695  SER759  ASP760  ASP761  ALA762  ILE779  LEU786  VAL792 
 PHE793  MET794  SER795  GLU796  ALA797  LYS798  CYS799  TRP800  GLU811  SER814 

> <Gold.Protein.RotatedAtoms>
  152.5344  134.2789  159.8999 H   0  0  0  0  0  0  0  0  0  0  0  0  # atno 6907 bound_to 6896
  151.2744  133.4233  159.2631 H   0  0  0  0  0  0  0  0  0  0  0  0  # atno 6908 bound_to 6896
  151.0339  134.9574  159.8182 H   0  0  0  0  0  0  0  0  0  0  0  0  # atno 6909 bound_to 6896
  145.5983  140.9414  143.1254 H   0  0  0  0  0  0  0  0  0  0  0  0  # atno 7974 bound_to 7965
  155.7903  140.0877  157.2012 H   0  0  0  0  0  0  0  0  0  0  0  0  # atno 8008 bound_to 7997
  154.3986  140.1491  156.3213 H   0  0  0  0  0  0  0  0  0  0  0  0  # atno 8009 bound_to 7997
  155.8565  140.3432  155.5730 H   0  0  0  0  0  0  0  0  0  0  0  0  # atno 8010 bound_to 7997
  139.4892  144.4213  151.9182 H   0  0  0  0  0  0  0  0  0  0  0  0  # atno 10167 bound_to 10162
  157.6916  131.0178  150.2834 H   0  0  0  0  0  0  0  0  0  0  0  0  # atno 10718 bound_to 10713
  153.1630  135.6799  153.8716 H   0  0  0  0  0  0  0  0  0  0  0  0  # atno 10763 bound_to 10752
  153.8105  135.3143  155.3401 H   0  0  0  0  0  0  0  0  0  0  0  0  # atno 10764 bound_to 10752
  154.7945  135.4815  154.0219 H   0  0  0  0  0  0  0  0  0  0  0  0  # atno 10765 bound_to 10752
  140.3156  134.7480  157.4025 H   0  0  0  0  0  0  0  0  0  0  0  0  # atno 11005 bound_to 11000
  144.7321  139.7695  143.7343 LP  0  0  0  0  0  0  0  0  0  0  0  0  # atno 17320 bound_to 7965
  146.1595  139.4704  142.9997 LP  0  0  0  0  0  0  0  0  0  0  0  0  # atno 17321 bound_to 7965
  140.3658  144.2917  150.5927 LP  0  0  0  0  0  0  0  0  0  0  0  0  # atno 17342 bound_to 10162
  140.5363  143.2232  151.8158 LP  0  0  0  0  0  0  0  0  0  0  0  0  # atno 17343 bound_to 10162
  156.3377  130.3810  149.7436 LP  0  0  0  0  0  0  0  0  0  0  0  0  # atno 17370 bound_to 10713
  156.4955  130.8104  151.3111 LP  0  0  0  0  0  0  0  0  0  0  0  0  # atno 17371 bound_to 10713
  140.0987  134.5503  155.8374 LP  0  0  0  0  0  0  0  0  0  0  0  0  # atno 17394 bound_to 11000
  141.2098  133.6688  156.6467 LP  0  0  0  0  0  0  0  0  0  0  0  0  # atno 17395 bound_to 11000

$$$$
