AV-unprocessed.smi:285|AV-procd|sdf|2171|dock1
  -GOLD-   2262021533D 1   1.00000     0.00000
 Structure written by MMmdl.
 31 33  0  0  0  0  0  0  0  0  1 V2000
  154.3729  135.6616  160.9669 N   0  0  0  0  0  0  0  0  0  0  0  0
  154.4610  136.8579  160.3686 C   0  0  0  0  0  0  0  0  0  0  0  0
  155.6499  137.5042  160.3953 N   0  0  0  0  0  0  0  0  0  0  0  0
  155.7652  138.6980  159.8044 C   0  0  0  0  0  0  0  0  0  0  0  0
  154.8361  139.4000  159.1499 N   0  0  0  0  0  0  0  0  0  0  0  0
  153.6360  138.7487  159.1240 C   0  0  0  0  0  0  0  0  0  0  0  0
  153.3685  137.4760  159.7092 C   0  0  0  0  0  0  0  0  0  0  0  0
  152.0450  137.1153  159.4901 N   0  0  0  0  0  0  0  0  0  0  0  0
  151.5799  138.1280  158.8134 C   0  0  0  0  0  0  0  0  0  0  0  0
  149.7683  138.1421  158.2253 Br  0  0  0  0  0  0  0  0  0  0  0  0
  152.4522  139.1582  158.5427 N   0  0  0  0  0  0  0  0  0  0  0  0
  152.2044  140.4299  157.7977 C   0  0  2  0  0  0  0  0  0  0  0  0
  150.9577  141.1370  158.3067 C   0  0  0  0  0  0  0  0  0  0  0  0
  150.6310  141.9803  157.0940 C   0  0  2  0  0  0  0  0  0  0  0  0
  149.2857  142.4146  157.1128 O   0  0  0  0  0  0  0  0  0  0  0  0
  151.0073  141.0487  155.9208 C   0  0  2  0  0  0  0  0  0  0  0  0
  149.8581  140.2048  155.3340 C   0  0  0  0  0  0  0  0  0  0  0  0
  150.2466  139.6076  154.1139 O   0  0  0  0  0  0  0  0  0  0  0  0
  151.9672  140.1339  156.4580 O   0  0  0  0  0  0  0  0  0  0  0  0
  153.4969  135.1588  160.9602 H   0  0  0  0  0  0  0  0  0  0  0  0
  155.1819  135.2650  161.4228 H   0  0  0  0  0  0  0  0  0  0  0  0
  156.7411  139.1567  159.8642 H   0  0  0  0  0  0  0  0  0  0  0  0
  153.1111  141.0270  157.8935 H   0  0  0  0  0  0  0  0  0  0  0  0
  150.1701  140.4088  158.5076 H   0  0  0  0  0  0  0  0  0  0  0  0
  151.1641  141.7117  159.2099 H   0  0  0  0  0  0  0  0  0  0  0  0
  151.2821  142.8556  157.0813 H   0  0  0  0  0  0  0  0  0  0  0  0
  149.2533  143.3028  156.7905 H   0  0  0  0  0  0  0  0  0  0  0  0
  151.4863  141.6194  155.1240 H   0  0  0  0  0  0  0  0  0  0  0  0
  149.6004  139.4003  156.0233 H   0  0  0  0  0  0  0  0  0  0  0  0
  148.9570  140.8021  155.1915 H   0  0  0  0  0  0  0  0  0  0  0  0
  149.4767  139.2545  153.6950 H   0  0  0  0  0  0  0  0  0  0  0  0
  1  2  1  0  0  0  0
  1 20  1  0  0  0  0
  1 21  1  0  0  0  0
  2  7  1  0  0  0  0
  2  3  2  0  0  0  0
  3  4  1  0  0  0  0
  4  5  2  0  0  0  0
  4 22  1  0  0  0  0
  5  6  1  0  0  0  0
  6 11  1  0  0  0  0
  6  7  2  0  0  0  0
  7  8  1  0  0  0  0
  8  9  2  0  0  0  0
  9 10  1  0  0  0  0
  9 11  1  0  0  0  0
 11 12  1  0  0  0  0
 12 19  1  0  0  0  0
 12 13  1  0  0  0  0
 12 23  1  0  0  0  0
 13 14  1  0  0  0  0
 13 24  1  0  0  0  0
 13 25  1  0  0  0  0
 14 15  1  0  0  0  0
 14 16  1  0  0  0  0
 14 26  1  0  0  0  0
 15 27  1  0  0  0  0
 16 17  1  0  0  0  0
 16 19  1  0  0  0  0
 16 28  1  0  0  0  0
 17 18  1  0  0  0  0
 17 29  1  0  0  0  0
 17 30  1  0  0  0  0
 18 31  1  0  0  0  0
M  END
> <s_m_source_file>
AV-unprocessed.smi

> <i_m_source_file_index>
285

> <i_lp_mmshare_version>
43012

> <i_f3d_flags>
0

> <s_epik_input>
bjFbY0hdbmMoW05IMl0pYyhjMTIpbmMoQnIpbjJbQ0BASF0zW0NIMl1bQ0BASF0oW09IXSlbQ0BIXShPMylbQ0gyXVtPSF0=

> <s_epik_cmdline>
J2VwaWtfcHl0aG9uJywgJy1waCcsICc3LjAnLCAnLXRuJywgJzgnLCAnLW1hJywgJzIwMCcsICctbWV0YWxfYmluZGluZycsICctaW1hZScsICc8aW5maWxlLm1hZT4nLCAnLW9tYWUnLCAnPG91dGZpbGUubWFlPic=

> <r_lp_tautomer_probability>
1

> <r_epik_Ionization_Penalty>
0.000103242

> <r_epik_Ionization_Penalty_Charging>
0

> <r_epik_Ionization_Penalty_Neutral>
0.000103242

> <r_epik_State_Penalty>
-0

> <r_epik_Charging_Adjusted_Penalty>
0

> <i_epik_Tot_Q>
0

> <i_epik_Tot_abs_Q>
0

> <r_epik_Metal_State_Penalty>
-0

> <b_epik_Metal_Only>
0

> <s_epik_Chemistry_Notes>
This compound contains an acetal/aminal-like group ( X-CH(R)-Y where X, Y are N, S, or O) that may be acid/base labile, releasing an aldehyde.

> <s_lp_Force_Field>
OPLS_2005

> <r_lp_Energy>
36.2712

> <b_lp_Chiralities_Consistent>
1

> <s_lp_Variant>
AV-unprocessed.smi:285-7

> <Gold.Version>
5.8.1

> <Gold.Id.Protein>
6NUR|6NUR_protein|mol2

> <Gold.PLP.Fitness>
37.1449

> <Gold.PLP.PLP>
-25.8312

> <Gold.PLP.part.hbond>
-5.0288

> <Gold.PLP.part.metal>
0.0000

> <Gold.PLP.part.buried>
-5.1402

> <Gold.PLP.part.nonpolar>
-16.1980

> <Gold.PLP.part.repulsive>
0.0904

> <Gold.PLP.ligand.clash>
0.0000

> <Gold.PLP.ligand.torsion>
0.2381

> <Gold.PLP.Chemscore.Hbond>
3.9263

> <Gold.PLP.Chemscore.CHOScore>
0.0000

> <Gold.PLP.Chemscore.Metal>
0.0000

> <Gold.Chemscore.Hbonds>
donor molecule, donor type, donor heavy atom, donor atom, acceptor molecule, acceptor atom, score
      L1  H    15    27       P1  8028  1.00
      P1  H  6896  6909       L1     8  0.93
      P1  H  7989  7998       L1    18  1.00
      P1  H  7997  8010       L1     5  1.00

> <Gold.PLP.Chemscore.Internal.Correction>
0.0112

> <Gold.Rescore>
     Score         DG    S(hbond)    S(metal)    S(lipo)     H(rot)  DE(clash)    DE(int)     intcor
     12.25     -12.70       3.38        0.00      32.30       3.06       0.01       0.44       ----

> <Gold.Chemscore.Fitness>
12.2455

> <Gold.Chemscore.DG>
-12.6976

> <Gold.Chemscore.ZeroCoef>
-5.4800

> <Gold.Chemscore.Hbond>
3.3754

> <Gold.Chemscore.Metal>
0.0000

> <Gold.Chemscore.Lipo>
32.2989

> <Gold.Chemscore.Internal_Hbond>
0.0000

> <Gold.Chemscore.DEClash>
0.0149

> <Gold.Chemscore.DEInternal>
0.4372

> <Gold.Chemscore.Rot>
3.0607

> <Gold.Chemscore.Internal.Correction>
   9.000000E+99

> <Gold.Chemscore.Hbonds>
donor molecule, donor type, donor heavy atom, donor atom, acceptor molecule, acceptor atom, score
      L1  H    15    27       P1  8028  0.96
      P1  H  6896  6909       L1     8  0.80
      P1  H  7989  7998       L1    18  0.34
      P1  H  7997  8010       L1     5  0.72

> <Gold.Chemscore.Hbond.Weighted>
-11.2740

> <Gold.Chemscore.Metal.Weighted>
-0.0000

> <Gold.Chemscore.Lipo.Weighted>
-3.7790

> <Gold.Chemscore.Internal_Hbond.Weighted>
0.0000

> <Gold.Chemscore.DEClash.Weighted>
0.0149

> <Gold.Chemscore.DEInternal.Weighted>
0.4372

> <Gold.Chemscore.Rot.Weighted>
7.8354

> <Gold.Chemscore.Internal.Correction.Weighted>
   9.000000E+99

> <Gold.Protein.RotatedTorsions>
[ 6907 6896 6895 6894 ] final  119.25 input  -60.11 | X-H torsion
[ 7974 7965 7964 7962 ] final -138.17 input  175.53 | X-H torsion
[ 8008 7997 7996 7995 ] final  -13.33 input   59.86 | X-H torsion
[ 10167 10162 10161 10158 ] final   99.29 input  -65.29 | X-H torsion
[ 10718 10713 10712 10709 ] final  -25.21 input   66.30 | X-H torsion
[ 10763 10752 10751 10750 ] final  -53.16 input  -60.55 | X-H torsion
[ 11005 11000 10999 10996 ] final   48.43 input  -57.11 | X-H torsion

> <Gold.Protein.ActiveResidues>
 VAL166  LYS551  ARG553  GLY616  TRP617  ASP618  TYR619  PRO620  LYS621  CYS622 
 ASP623  PHE694  ASN695  SER759  ASP760  ASP761  ALA762  ILE779  LEU786  VAL792 
 PHE793  MET794  SER795  GLU796  ALA797  LYS798  CYS799  TRP800  GLU811  SER814 

> <Gold.Protein.RotatedAtoms>
  152.4485  133.7583  159.6732 H   0  0  0  0  0  0  0  0  0  0  0  0  # atno 6907 bound_to 6896
  150.8391  133.7955  159.3074 H   0  0  0  0  0  0  0  0  0  0  0  0  # atno 6908 bound_to 6896
  151.5586  135.1068  160.0019 H   0  0  0  0  0  0  0  0  0  0  0  0  # atno 6909 bound_to 6896
  144.8780  140.6466  143.5224 H   0  0  0  0  0  0  0  0  0  0  0  0  # atno 7974 bound_to 7965
  154.5301  140.2252  155.8819 H   0  0  0  0  0  0  0  0  0  0  0  0  # atno 8008 bound_to 7997
  156.1755  140.3112  155.9015 H   0  0  0  0  0  0  0  0  0  0  0  0  # atno 8009 bound_to 7997
  155.3468  140.0453  157.3036 H   0  0  0  0  0  0  0  0  0  0  0  0  # atno 8010 bound_to 7997
  139.7631  144.6948  151.0263 H   0  0  0  0  0  0  0  0  0  0  0  0  # atno 10167 bound_to 10162
  156.4674  130.4517  149.6890 H   0  0  0  0  0  0  0  0  0  0  0  0  # atno 10718 bound_to 10713
  154.1544  135.6485  153.4971 H   0  0  0  0  0  0  0  0  0  0  0  0  # atno 10763 bound_to 10752
  153.0128  135.5346  154.6775 H   0  0  0  0  0  0  0  0  0  0  0  0  # atno 10764 bound_to 10752
  154.6071  135.2950  155.0444 H   0  0  0  0  0  0  0  0  0  0  0  0  # atno 10765 bound_to 10752
  140.1191  134.4853  155.8612 H   0  0  0  0  0  0  0  0  0  0  0  0  # atno 11005 bound_to 11000
  145.4006  139.1598  143.4179 LP  0  0  0  0  0  0  0  0  0  0  0  0  # atno 17320 bound_to 7965
  146.2976  140.4103  142.8716 LP  0  0  0  0  0  0  0  0  0  0  0  0  # atno 17321 bound_to 7965
  140.7809  143.4674  151.0193 LP  0  0  0  0  0  0  0  0  0  0  0  0  # atno 17342 bound_to 10162
  139.8359  143.7628  152.3180 LP  0  0  0  0  0  0  0  0  0  0  0  0  # atno 17343 bound_to 10162
  156.3654  130.7503  151.2480 LP  0  0  0  0  0  0  0  0  0  0  0  0  # atno 17370 bound_to 10713
  157.7494  131.0338  150.4290 LP  0  0  0  0  0  0  0  0  0  0  0  0  # atno 17371 bound_to 10713
  141.2148  133.6754  156.6854 LP  0  0  0  0  0  0  0  0  0  0  0  0  # atno 17394 bound_to 11000
  140.2988  134.8180  157.4080 LP  0  0  0  0  0  0  0  0  0  0  0  0  # atno 17395 bound_to 11000

$$$$
