AV-unprocessed.smi:1817|AV-procd|sdf|7370|dock4
  -GOLD-   22720 9 33D 1   1.00000     0.00000
 Structure written by MMmdl.
 43 44  0  0  0  0  0  0  0  0  2 V2000
  143.4057  132.7240  150.0394 C   0  0  0  0  0  0  0  0  0  0  0  0
  143.8857  133.2175  151.4119 C   0  0  0  0  0  0  0  0  0  0  0  0
  144.7733  134.3773  151.2981 N   0  0  0  0  0  0  0  0  0  0  0  0
  145.4058  134.7986  152.5507 C   0  0  0  0  0  0  0  0  0  0  0  0
  146.4617  133.7889  153.0480 C   0  0  0  0  0  0  0  0  0  0  0  0
  147.5141  133.5684  152.0190 N   0  3  0  0  0  0  0  0  0  0  0  0
  148.6372  132.6606  152.4210 C   0  0  2  0  0  0  0  0  0  0  0  0
  148.2726  131.1591  152.3842 C   0  0  0  0  0  0  0  0  0  0  0  0
  149.1992  133.0232  153.8206 C   0  0  0  0  0  0  0  0  0  0  0  0
  149.5309  134.4405  153.9605 N   0  0  0  0  0  0  0  0  0  0  0  0
  150.1480  135.0009  155.0104 C   0  0  0  0  0  0  0  0  0  0  0  0
  150.5332  134.3616  155.9889 O   0  0  0  0  0  0  0  0  0  0  0  0
  150.2903  136.3251  154.8416 N   0  0  0  0  0  0  0  0  0  0  0  0
  150.9072  137.2537  155.7170 C   0  0  0  0  0  0  0  0  0  0  0  0
  152.1640  137.6275  155.4508 N   0  0  0  0  0  0  0  0  0  0  0  0
  152.6459  138.5349  156.3861 N   0  0  0  0  0  0  0  0  0  0  0  0
  151.7324  138.8105  157.3218 C   0  0  0  0  0  0  0  0  0  0  0  0
  150.1920  137.9859  157.1563 S   0  0  0  0  0  0  0  0  0  0  0  0
  146.8725  133.1546  150.7421 C   0  0  0  0  0  0  0  0  0  0  0  0
  145.8194  134.1877  150.2925 C   0  0  0  0  0  0  0  0  0  0  0  0
  142.8572  131.7878  150.1433 H   0  0  0  0  0  0  0  0  0  0  0  0
  144.2455  132.5405  149.3687 H   0  0  0  0  0  0  0  0  0  0  0  0
  142.7356  133.4362  149.5586 H   0  0  0  0  0  0  0  0  0  0  0  0
  143.0321  133.4235  152.0566 H   0  0  0  0  0  0  0  0  0  0  0  0
  144.4403  132.4060  151.8845 H   0  0  0  0  0  0  0  0  0  0  0  0
  145.8841  135.7646  152.3833 H   0  0  0  0  0  0  0  0  0  0  0  0
  144.6535  134.9706  153.3195 H   0  0  0  0  0  0  0  0  0  0  0  0
  146.8984  134.2108  153.9522 H   0  0  0  0  0  0  0  0  0  0  0  0
  146.0040  132.8400  153.3297 H   0  0  0  0  0  0  0  0  0  0  0  0
  149.4406  132.7976  151.6954 H   0  0  0  0  0  0  0  0  0  0  0  0
  149.0966  130.5503  152.7580 H   0  0  0  0  0  0  0  0  0  0  0  0
  148.0713  130.8134  151.3700 H   0  0  0  0  0  0  0  0  0  0  0  0
  147.3991  130.9384  152.9990 H   0  0  0  0  0  0  0  0  0  0  0  0
  148.4483  132.7934  154.5769 H   0  0  0  0  0  0  0  0  0  0  0  0
  150.0588  132.4076  154.0850 H   0  0  0  0  0  0  0  0  0  0  0  0
  149.2496  135.0452  153.2019 H   0  0  0  0  0  0  0  0  0  0  0  0
  149.9180  136.7169  153.9891 H   0  0  0  0  0  0  0  0  0  0  0  0
  151.9680  139.5033  158.1160 H   0  0  0  0  0  0  0  0  0  0  0  0
  147.6163  133.0692  149.9522 H   0  0  0  0  0  0  0  0  0  0  0  0
  146.4280  132.1645  150.8492 H   0  0  0  0  0  0  0  0  0  0  0  0
  145.3691  133.8832  149.3468 H   0  0  0  0  0  0  0  0  0  0  0  0
  146.3053  135.1464  150.1051 H   0  0  0  0  0  0  0  0  0  0  0  0
  147.9295  134.4742  151.8526 H   0  0  0  0  0  0  0  0  0  0  0  0
  1  2  1  0  0  0  0
  1 21  1  0  0  0  0
  1 22  1  0  0  0  0
  1 23  1  0  0  0  0
  2  3  1  0  0  0  0
  2 24  1  0  0  0  0
  2 25  1  0  0  0  0
  3 20  1  0  0  0  0
  3  4  1  0  0  0  0
  4  5  1  0  0  0  0
  4 26  1  0  0  0  0
  4 27  1  0  0  0  0
  5  6  1  0  0  0  0
  5 28  1  0  0  0  0
  5 29  1  0  0  0  0
  6  7  1  0  0  0  0
  6 19  1  0  0  0  0
  6 43  1  0  0  0  0
  7  8  1  0  0  0  0
  7  9  1  0  0  0  0
  7 30  1  0  0  0  0
  8 31  1  0  0  0  0
  8 32  1  0  0  0  0
  8 33  1  0  0  0  0
  9 10  1  0  0  0  0
  9 34  1  0  0  0  0
  9 35  1  0  0  0  0
 10 11  1  0  0  0  0
 10 36  1  0  0  0  0
 11 12  2  0  0  0  0
 11 13  1  0  0  0  0
 13 14  1  0  0  0  0
 13 37  1  0  0  0  0
 14 18  1  0  0  0  0
 14 15  2  0  0  0  0
 15 16  1  0  0  0  0
 16 17  2  0  0  0  0
 17 18  1  0  0  0  0
 17 38  1  0  0  0  0
 19 20  1  0  0  0  0
 19 39  1  0  0  0  0
 19 40  1  0  0  0  0
 20 41  1  0  0  0  0
 20 42  1  0  0  0  0
M  CHG  1   6   1
M  END
> <s_m_source_file>
AV-unprocessed.smi

> <i_m_source_file_index>
1817

> <i_lp_mmshare_version>
43012

> <i_f3d_flags>
0

> <s_epik_input>
W0NIM11bQ0gyXU4xW0NIMl1bQ0gyXU4oW0NIMl1bQ0gyXTEpW0NASF0oW0NIM10pW0NIMl1bTkhdQyg9TylbTkhdYzJubltjSF1zMg==

> <s_epik_cmdline>
J2VwaWtfcHl0aG9uJywgJy1waCcsICc3LjAnLCAnLXRuJywgJzgnLCAnLW1hJywgJzIwMCcsICctbWV0YWxfYmluZGluZycsICctaW1hZScsICc8aW5maWxlLm1hZT4nLCAnLW9tYWUnLCAnPG91dGZpbGUubWFlPic=

> <r_epik_Ionization_Penalty>
0.153808

> <r_epik_Ionization_Penalty_Charging>
0.148467

> <r_epik_Ionization_Penalty_Neutral>
0.00534086

> <r_epik_State_Penalty>
0.974087

> <r_epik_Charging_Adjusted_Penalty>
1.12255

> <i_epik_Tot_Q>
1

> <i_epik_Tot_abs_Q>
1

> <r_epik_Metal_State_Penalty>
1.30894

> <b_epik_Metal_Only>
0

> <s_lp_Force_Field>
OPLS_2005

> <r_lp_Energy>
26.4186

> <b_lp_Chiralities_Consistent>
1

> <s_lp_Variant>
AV-unprocessed.smi:1817-3

> <Gold.Version>
5.8.1

> <Gold.Id.Protein>
6NUR|6NUR_protein|mol2

> <Gold.PLP.Fitness>
44.3842

> <Gold.PLP.PLP>
-32.0733

> <Gold.PLP.part.hbond>
-5.0000

> <Gold.PLP.part.metal>
0.0000

> <Gold.PLP.part.buried>
-2.3921

> <Gold.PLP.part.nonpolar>
-24.7286

> <Gold.PLP.part.repulsive>
0.3207

> <Gold.PLP.ligand.clash>
0.0000

> <Gold.PLP.ligand.torsion>
0.9736

> <Gold.PLP.Chemscore.Hbond>
4.7271

> <Gold.PLP.Chemscore.CHOScore>
0.0000

> <Gold.PLP.Chemscore.Metal>
0.0000

> <Gold.Chemscore.Hbonds>
donor molecule, donor type, donor heavy atom, donor atom, acceptor molecule, acceptor atom, score
      L1  H     6    43       P1  7948  1.60
      L1  H    10    36       P1  7948  0.65
      L1  H    13    37       P1  7948  0.18
      P1  H  7997  8008       L1    16  0.11

> <Gold.PLP.Chemscore.Internal.Correction>
0.0769

> <Gold.Rescore>
     Score         DG    S(hbond)    S(metal)    S(lipo)     H(rot)  DE(clash)    DE(int)     intcor
     16.50     -17.51       2.88        0.00      62.66       1.92       0.16       0.86       ----

> <Gold.Chemscore.Fitness>
16.4977

> <Gold.Chemscore.DG>
-17.5139

> <Gold.Chemscore.ZeroCoef>
-5.4800

> <Gold.Chemscore.Hbond>
2.8793

> <Gold.Chemscore.Metal>
0.0000

> <Gold.Chemscore.Lipo>
62.6597

> <Gold.Chemscore.Internal_Hbond>
0.0000

> <Gold.Chemscore.DEClash>
0.1565

> <Gold.Chemscore.DEInternal>
0.8596

> <Gold.Chemscore.Rot>
1.9196

> <Gold.Chemscore.Internal.Correction>
   9.000000E+99

> <Gold.Chemscore.Hbonds>
donor molecule, donor type, donor heavy atom, donor atom, acceptor molecule, acceptor atom, score
      L1  H     6    43       P1  7948  0.12
      L1  H    10    36       P1  7948  0.06
      L1  H    13    37       P1  7948  0.08
      P1  H  7997  8008       L1    16  0.12

> <Gold.Chemscore.Hbond.Weighted>
-9.6168

> <Gold.Chemscore.Metal.Weighted>
-0.0000

> <Gold.Chemscore.Lipo.Weighted>
-7.3312

> <Gold.Chemscore.Internal_Hbond.Weighted>
0.0000

> <Gold.Chemscore.DEClash.Weighted>
0.1565

> <Gold.Chemscore.DEInternal.Weighted>
0.8596

> <Gold.Chemscore.Rot.Weighted>
4.9141

> <Gold.Chemscore.Internal.Correction.Weighted>
   9.000000E+99

> <Gold.Protein.RotatedTorsions>
[ 6907 6896 6895 6894 ] final  179.58 input  -60.11 | X-H torsion
[ 7974 7965 7964 7962 ] final   41.47 input  175.53 | X-H torsion
[ 8008 7997 7996 7995 ] final  -27.35 input   59.86 | X-H torsion
[ 10167 10162 10161 10158 ] final  170.11 input  -65.29 | X-H torsion
[ 10718 10713 10712 10709 ] final  100.13 input   66.30 | X-H torsion
[ 10763 10752 10751 10750 ] final -114.73 input  -60.55 | X-H torsion
[ 11005 11000 10999 10996 ] final    1.46 input  -57.11 | X-H torsion

> <Gold.Protein.ActiveResidues>
 VAL166  LYS551  ARG553  GLY616  TRP617  ASP618  TYR619  PRO620  LYS621  CYS622 
 ASP623  PHE694  ASN695  SER759  ASP760  ASP761  ALA762  ILE779  LEU786  VAL792 
 PHE793  MET794  SER795  GLU796  ALA797  LYS798  CYS799  TRP800  GLU811  SER814 

> <Gold.Protein.RotatedAtoms>
  151.6693  133.3314  159.3192 H   0  0  0  0  0  0  0  0  0  0  0  0  # atno 6907 bound_to 6896
  150.7875  134.6876  159.6488 H   0  0  0  0  0  0  0  0  0  0  0  0  # atno 6908 bound_to 6896
  152.3948  134.6386  160.0145 H   0  0  0  0  0  0  0  0  0  0  0  0  # atno 6909 bound_to 6896
  146.0820  139.5412  142.9530 H   0  0  0  0  0  0  0  0  0  0  0  0  # atno 7974 bound_to 7965
  154.4381  140.1874  156.0918 H   0  0  0  0  0  0  0  0  0  0  0  0  # atno 8008 bound_to 7997
  156.0360  140.3325  155.7165 H   0  0  0  0  0  0  0  0  0  0  0  0  # atno 8009 bound_to 7997
  155.5770  140.0618  157.2783 H   0  0  0  0  0  0  0  0  0  0  0  0  # atno 8010 bound_to 7997
  139.5010  144.3632  151.9803 H   0  0  0  0  0  0  0  0  0  0  0  0  # atno 10167 bound_to 10162
  157.6861  131.0689  150.5053 H   0  0  0  0  0  0  0  0  0  0  0  0  # atno 10718 bound_to 10713
  154.8452  135.4407  154.1552 H   0  0  0  0  0  0  0  0  0  0  0  0  # atno 10763 bound_to 10752
  153.2702  135.6944  153.7494 H   0  0  0  0  0  0  0  0  0  0  0  0  # atno 10764 bound_to 10752
  153.6737  135.3414  155.3135 H   0  0  0  0  0  0  0  0  0  0  0  0  # atno 10765 bound_to 10752
  140.6152  133.9712  155.8197 H   0  0  0  0  0  0  0  0  0  0  0  0  # atno 11005 bound_to 11000
  145.6199  141.0324  143.1920 LP  0  0  0  0  0  0  0  0  0  0  0  0  # atno 17320 bound_to 7965
  144.7300  139.7755  143.7351 LP  0  0  0  0  0  0  0  0  0  0  0  0  # atno 17321 bound_to 7965
  140.3068  144.3583  150.6044 LP  0  0  0  0  0  0  0  0  0  0  0  0  # atno 17342 bound_to 10162
  140.5830  143.2171  151.7394 LP  0  0  0  0  0  0  0  0  0  0  0  0  # atno 17343 bound_to 10162
  156.5373  130.4199  149.6171 LP  0  0  0  0  0  0  0  0  0  0  0  0  # atno 17370 bound_to 10713
  156.3016  130.7180  151.2053 LP  0  0  0  0  0  0  0  0  0  0  0  0  # atno 17371 bound_to 10713
  141.0781  134.0104  157.3428 LP  0  0  0  0  0  0  0  0  0  0  0  0  # atno 17394 bound_to 11000
  139.9176  135.0198  156.7941 LP  0  0  0  0  0  0  0  0  0  0  0  0  # atno 17395 bound_to 11000

$$$$
