AV-unprocessed.smi:1076|AV-procd|sdf|4699|dock8
  -GOLD-   22720 3223D 1   1.00000     0.00000
 Structure written by MMmdl.
 44 45  0  0  0  0  0  0  0  0  1 V2000
  147.5928  138.6138  153.8970 C   0  0  0  0  0  0  0  0  0  0  0  0
  149.0155  138.9325  154.2542 C   0  0  0  0  0  0  0  0  0  0  0  0
  149.5470  140.1699  154.7171 C   0  0  0  0  0  0  0  0  0  0  0  0
  150.8472  140.1152  154.9563 N   0  0  0  0  0  0  0  0  0  0  0  0
  151.1904  138.8443  154.6580 N   0  0  0  0  0  0  0  0  0  0  0  0
  152.5632  138.4034  154.8383 C   0  0  0  0  0  0  0  0  0  0  0  0
  152.8242  137.8961  156.2706 C   0  0  2  0  0  0  0  0  0  0  0  0
  151.8134  136.8138  156.6826 C   0  0  0  0  0  0  0  0  0  0  0  0
  152.7378  139.0277  157.1864 N   0  0  0  0  0  0  0  0  0  0  0  0
  152.6147  138.6175  158.5791 C   0  0  0  0  0  0  0  0  0  0  0  0
  153.0048  139.7702  159.5277 C   0  0  0  0  0  0  0  0  0  0  0  0
  152.5331  141.1707  159.0826 C   0  0  0  0  0  0  0  0  0  0  0  0
  151.8967  141.2836  158.0333 O   0  0  0  0  0  0  0  0  0  0  0  0
  152.8321  142.2421  159.8564 N   0  0  0  0  0  0  0  0  0  0  0  0
  153.6009  142.1396  161.1007 C   0  0  0  0  0  0  0  0  0  0  0  0
  152.6816  142.5189  162.2753 C   0  0  0  0  0  0  0  0  0  0  0  0
  152.1740  143.8359  162.0776 O   0  0  0  0  0  0  0  0  0  0  0  0
  151.4411  143.9746  160.8630 C   0  0  0  0  0  0  0  0  0  0  0  0
  152.3391  143.6106  159.6663 C   0  0  0  0  0  0  0  0  0  0  0  0
  150.1063  138.1110  154.2243 C   0  0  0  0  0  0  0  0  0  0  0  0
  146.8956  139.3280  154.3357 H   0  0  0  0  0  0  0  0  0  0  0  0
  147.3017  137.6241  154.2502 H   0  0  0  0  0  0  0  0  0  0  0  0
  147.4363  138.6312  152.8185 H   0  0  0  0  0  0  0  0  0  0  0  0
  149.0276  141.1009  154.8899 H   0  0  0  0  0  0  0  0  0  0  0  0
  152.7809  137.6260  154.1042 H   0  0  0  0  0  0  0  0  0  0  0  0
  153.2233  139.2415  154.6091 H   0  0  0  0  0  0  0  0  0  0  0  0
  153.8310  137.4764  156.3004 H   0  0  0  0  0  0  0  0  0  0  0  0
  151.8471  135.9701  155.9929 H   0  0  0  0  0  0  0  0  0  0  0  0
  150.7936  137.2001  156.6822 H   0  0  0  0  0  0  0  0  0  0  0  0
  152.0235  136.4243  157.6789 H   0  0  0  0  0  0  0  0  0  0  0  0
  151.9853  139.6473  156.9223 H   0  0  0  0  0  0  0  0  0  0  0  0
  151.5902  138.3025  158.7772 H   0  0  0  0  0  0  0  0  0  0  0  0
  153.2560  137.7562  158.7725 H   0  0  0  0  0  0  0  0  0  0  0  0
  152.5977  139.5503  160.5154 H   0  0  0  0  0  0  0  0  0  0  0  0
  154.0904  139.7942  159.6283 H   0  0  0  0  0  0  0  0  0  0  0  0
  154.0191  141.1454  161.2643 H   0  0  0  0  0  0  0  0  0  0  0  0
  154.4528  142.8197  161.0554 H   0  0  0  0  0  0  0  0  0  0  0  0
  151.8566  141.8107  162.3688 H   0  0  0  0  0  0  0  0  0  0  0  0
  153.2355  142.4910  163.2136 H   0  0  0  0  0  0  0  0  0  0  0  0
  150.5530  143.3408  160.8889 H   0  0  0  0  0  0  0  0  0  0  0  0
  151.0959  145.0048  160.7754 H   0  0  0  0  0  0  0  0  0  0  0  0
  153.1882  144.2932  159.6129 H   0  0  0  0  0  0  0  0  0  0  0  0
  151.7795  143.7567  158.7445 H   0  0  0  0  0  0  0  0  0  0  0  0
  150.1975  137.0707  153.9487 H   0  0  0  0  0  0  0  0  0  0  0  0
  1  2  1  0  0  0  0
  1 21  1  0  0  0  0
  1 22  1  0  0  0  0
  1 23  1  0  0  0  0
  2 20  2  0  0  0  0
  2  3  1  0  0  0  0
  3  4  2  0  0  0  0
  3 24  1  0  0  0  0
  4  5  1  0  0  0  0
  5  6  1  0  0  0  0
  5 20  1  0  0  0  0
  6  7  1  0  0  0  0
  6 25  1  0  0  0  0
  6 26  1  0  0  0  0
  7  8  1  0  0  0  0
  7  9  1  0  0  0  0
  7 27  1  0  0  0  0
  8 28  1  0  0  0  0
  8 29  1  0  0  0  0
  8 30  1  0  0  0  0
  9 10  1  0  0  0  0
  9 31  1  0  0  0  0
 10 11  1  0  0  0  0
 10 32  1  0  0  0  0
 10 33  1  0  0  0  0
 11 12  1  0  0  0  0
 11 34  1  0  0  0  0
 11 35  1  0  0  0  0
 12 13  2  0  0  0  0
 12 14  1  0  0  0  0
 14 19  1  0  0  0  0
 14 15  1  0  0  0  0
 15 16  1  0  0  0  0
 15 36  1  0  0  0  0
 15 37  1  0  0  0  0
 16 17  1  0  0  0  0
 16 38  1  0  0  0  0
 16 39  1  0  0  0  0
 17 18  1  0  0  0  0
 18 19  1  0  0  0  0
 18 40  1  0  0  0  0
 18 41  1  0  0  0  0
 19 42  1  0  0  0  0
 19 43  1  0  0  0  0
 20 44  1  0  0  0  0
M  END
> <s_m_source_file>
AV-unprocessed.smi

> <i_m_source_file_index>
1076

> <i_lp_mmshare_version>
43012

> <i_f3d_flags>
0

> <s_epik_input>
W0NIM11jMVtjSF1ubihbY0hdMSlbQ0gyXVtDQEhdKFtDSDNdKVtOSF1bQ0gyXVtDSDJdQyg9TylOMltDSDJdW0NIMl1PW0NIMl1bQ0gyXTI=

> <s_epik_cmdline>
J2VwaWtfcHl0aG9uJywgJy1waCcsICc3LjAnLCAnLXRuJywgJzgnLCAnLW1hJywgJzIwMCcsICctbWV0YWxfYmluZGluZycsICctaW1hZScsICc8aW5maWxlLm1hZT4nLCAnLW9tYWUnLCAnPG91dGZpbGUubWFlPic=

> <r_lp_tautomer_probability>
1

> <r_epik_Ionization_Penalty>
2.55707

> <r_epik_Ionization_Penalty_Charging>
0

> <r_epik_Ionization_Penalty_Neutral>
2.55707

> <r_epik_State_Penalty>
2.726

> <r_epik_Charging_Adjusted_Penalty>
2.726

> <i_epik_Tot_Q>
0

> <i_epik_Tot_abs_Q>
0

> <r_epik_Metal_State_Penalty>
2.72594

> <b_epik_Metal_Only>
0

> <s_lp_Force_Field>
OPLS_2005

> <r_lp_Energy>
21.3245

> <b_lp_Chiralities_Consistent>
1

> <s_lp_Variant>
AV-unprocessed.smi:1076-3

> <Gold.Version>
5.8.1

> <Gold.Id.Protein>
6NUR|6NUR_protein|mol2

> <Gold.PLP.Fitness>
50.5433

> <Gold.PLP.PLP>
-44.0116

> <Gold.PLP.part.hbond>
-2.0000

> <Gold.PLP.part.metal>
0.0000

> <Gold.PLP.part.buried>
-2.3758

> <Gold.PLP.part.nonpolar>
-38.9938

> <Gold.PLP.part.repulsive>
0.2378

> <Gold.PLP.ligand.clash>
0.4670

> <Gold.PLP.ligand.torsion>
0.7274

> <Gold.PLP.Chemscore.Hbond>
1.8000

> <Gold.PLP.Chemscore.CHOScore>
0.9847

> <Gold.PLP.Chemscore.Metal>
0.0000

> <Gold.Chemscore.Hbonds>
donor molecule, donor type, donor heavy atom, donor atom, acceptor molecule, acceptor atom, score
      P1  H  7989  7998       L1     4  0.80
      P1  H  7997  8010       L1     9  1.00
      L1  C    20    44       P1  7948  0.78
      L1  C    20    44       P1  7949  0.05

> <Gold.PLP.Chemscore.Internal.Correction>
0.0994

> <Gold.Rescore>
     Score         DG    S(hbond)    S(metal)    S(lipo)     H(rot)  DE(clash)    DE(int)     intcor
     13.04     -15.27       1.00        0.00      96.77       1.91       0.00       2.23       ----

> <Gold.Chemscore.Fitness>
13.0364

> <Gold.Chemscore.DG>
-15.2679

> <Gold.Chemscore.ZeroCoef>
-5.4800

> <Gold.Chemscore.Hbond>
1.0044

> <Gold.Chemscore.Metal>
0.0000

> <Gold.Chemscore.Lipo>
96.7707

> <Gold.Chemscore.Internal_Hbond>
0.0000

> <Gold.Chemscore.DEClash>
0.0000

> <Gold.Chemscore.DEInternal>
2.2315

> <Gold.Chemscore.Rot>
1.9098

> <Gold.Chemscore.Internal.Correction>
   9.000000E+99

> <Gold.Chemscore.Hbonds>
donor molecule, donor type, donor heavy atom, donor atom, acceptor molecule, acceptor atom, score
      P1  H  7989  7998       L1     4  0.06
      P1  H  7997  8010       L1     9  0.08

> <Gold.Chemscore.Hbond.Weighted>
-3.3548

> <Gold.Chemscore.Metal.Weighted>
-0.0000

> <Gold.Chemscore.Lipo.Weighted>
-11.3222

> <Gold.Chemscore.Internal_Hbond.Weighted>
0.0000

> <Gold.Chemscore.DEClash.Weighted>
0.0000

> <Gold.Chemscore.DEInternal.Weighted>
2.2315

> <Gold.Chemscore.Rot.Weighted>
4.8891

> <Gold.Chemscore.Internal.Correction.Weighted>
   9.000000E+99

> <Gold.Protein.RotatedTorsions>
[ 6907 6896 6895 6894 ] final  159.37 input  -60.11 | X-H torsion
[ 7974 7965 7964 7962 ] final   43.37 input  175.53 | X-H torsion
[ 8008 7997 7996 7995 ] final   62.47 input   59.86 | X-H torsion
[ 10167 10162 10161 10158 ] final    3.39 input  -65.29 | X-H torsion
[ 10718 10713 10712 10709 ] final   -1.34 input   66.30 | X-H torsion
[ 10763 10752 10751 10750 ] final   64.60 input  -60.55 | X-H torsion
[ 11005 11000 10999 10996 ] final  -97.18 input  -57.11 | X-H torsion

> <Gold.Protein.ActiveResidues>
 VAL166  LYS551  ARG553  GLY616  TRP617  ASP618  TYR619  PRO620  LYS621  CYS622 
 ASP623  PHE694  ASN695  SER759  ASP760  ASP761  ALA762  ILE779  LEU786  VAL792 
 PHE793  MET794  SER795  GLU796  ALA797  LYS798  CYS799  TRP800  GLU811  SER814 

> <Gold.Protein.RotatedAtoms>
  151.9866  133.3776  159.4127 H   0  0  0  0  0  0  0  0  0  0  0  0  # atno 6907 bound_to 6896
  150.6927  134.3981  159.5116 H   0  0  0  0  0  0  0  0  0  0  0  0  # atno 6908 bound_to 6896
  152.1708  134.8835  160.0585 H   0  0  0  0  0  0  0  0  0  0  0  0  # atno 6909 bound_to 6896
  146.0661  139.5194  142.9628 H   0  0  0  0  0  0  0  0  0  0  0  0  # atno 7974 bound_to 7965
  155.6148  140.3495  155.4633 H   0  0  0  0  0  0  0  0  0  0  0  0  # atno 8008 bound_to 7997
  156.0126  140.1236  157.0463 H   0  0  0  0  0  0  0  0  0  0  0  0  # atno 8009 bound_to 7997
  154.4286  140.1078  156.5836 H   0  0  0  0  0  0  0  0  0  0  0  0  # atno 8010 bound_to 7997
  140.6588  143.7358  150.7701 H   0  0  0  0  0  0  0  0  0  0  0  0  # atno 10167 bound_to 10162
  156.8071  130.5412  149.5714 H   0  0  0  0  0  0  0  0  0  0  0  0  # atno 10718 bound_to 10713
  153.0062  135.5387  154.6535 H   0  0  0  0  0  0  0  0  0  0  0  0  # atno 10763 bound_to 10752
  154.5762  135.2846  155.0781 H   0  0  0  0  0  0  0  0  0  0  0  0  # atno 10764 bound_to 10752
  154.1928  135.6497  153.5117 H   0  0  0  0  0  0  0  0  0  0  0  0  # atno 10765 bound_to 10752
  141.1387  133.8152  157.0672 H   0  0  0  0  0  0  0  0  0  0  0  0  # atno 11005 bound_to 11000
  145.6475  141.0270  143.1778 LP  0  0  0  0  0  0  0  0  0  0  0  0  # atno 17320 bound_to 7965
  144.7203  139.8053  143.7384 LP  0  0  0  0  0  0  0  0  0  0  0  0  # atno 17321 bound_to 7965
  140.1022  143.4777  152.2418 LP  0  0  0  0  0  0  0  0  0  0  0  0  # atno 17342 bound_to 10162
  139.5817  144.7513  151.3624 LP  0  0  0  0  0  0  0  0  0  0  0  0  # atno 17343 bound_to 10162
  156.1066  130.6009  150.9981 LP  0  0  0  0  0  0  0  0  0  0  0  0  # atno 17370 bound_to 10713
  157.6524  131.0895  150.8021 LP  0  0  0  0  0  0  0  0  0  0  0  0  # atno 17371 bound_to 10713
  140.0534  134.9793  157.1177 LP  0  0  0  0  0  0  0  0  0  0  0  0  # atno 17394 bound_to 11000
  140.3955  134.2138  155.7165 LP  0  0  0  0  0  0  0  0  0  0  0  0  # atno 17395 bound_to 11000

$$$$
