AV-unprocessed.smi:2999|AV-procd|sdf|11420|dock7
  -GOLD-   2272016343D 1   1.00000     0.00000
 Structure written by MMmdl.
 38 40  0  0  0  0  0  0  0  0  2 V2000
  150.5547  134.6470  155.9167 O   0  0  0  0  0  0  0  0  0  0  0  0
  150.0714  135.0754  154.8687 C   0  0  0  0  0  0  0  0  0  0  0  0
  149.2387  134.3652  154.0946 N   0  0  0  0  0  0  0  0  0  0  0  0
  148.7903  133.0025  154.3693 C   0  0  0  0  0  0  0  0  0  0  0  0
  147.8166  132.4550  153.3053 C   0  0  1  0  0  0  0  0  0  0  0  0
  146.7738  131.4621  153.8700 C   0  0  0  0  0  0  0  0  0  0  0  0
  145.8338  131.0068  152.8185 N   0  3  2  0  0  0  0  0  0  0  0  0
  146.4123  129.9903  151.9092 C   0  0  0  0  0  0  0  0  0  0  0  0
  145.5193  128.7896  151.7024 C   0  0  0  0  0  0  0  0  0  0  0  0
  146.7381  128.6823  152.5917 C   0  0  0  0  0  0  0  0  0  0  0  0
  145.2353  132.1609  152.1068 C   0  0  0  0  0  0  0  0  0  0  0  0
  146.3194  133.1280  151.5968 C   0  0  0  0  0  0  0  0  0  0  0  0
  147.1413  133.5422  152.6807 O   0  0  0  0  0  0  0  0  0  0  0  0
  150.3005  136.2930  154.3467 N   0  0  0  0  0  0  0  0  0  0  0  0
  151.1275  137.3262  154.8606 C   0  0  0  0  0  0  0  0  0  0  0  0
  152.2637  137.1176  155.5359 N   0  0  0  0  0  0  0  0  0  0  0  0
  152.8716  138.3152  155.9210 C   0  0  0  0  0  0  0  0  0  0  0  0
  152.1804  139.4334  155.5261 C   0  0  0  0  0  0  0  0  0  0  0  0
  150.7293  139.0249  154.6504 S   0  0  0  0  0  0  0  0  0  0  0  0
  148.8851  134.7996  153.2548 H   0  0  0  0  0  0  0  0  0  0  0  0
  149.6458  132.3345  154.4816 H   0  0  0  0  0  0  0  0  0  0  0  0
  148.2901  133.0167  155.3379 H   0  0  0  0  0  0  0  0  0  0  0  0
  148.4213  131.9535  152.5482 H   0  0  0  0  0  0  0  0  0  0  0  0
  147.2653  130.6058  154.3329 H   0  0  0  0  0  0  0  0  0  0  0  0
  146.1839  131.9411  154.6522 H   0  0  0  0  0  0  0  0  0  0  0  0
  147.0372  130.3541  151.0961 H   0  0  0  0  0  0  0  0  0  0  0  0
  144.5433  128.7843  152.1848 H   0  0  0  0  0  0  0  0  0  0  0  0
  145.5626  128.2922  150.7356 H   0  0  0  0  0  0  0  0  0  0  0  0
  147.5846  128.1148  152.2104 H   0  0  0  0  0  0  0  0  0  0  0  0
  146.5712  128.6035  153.6645 H   0  0  0  0  0  0  0  0  0  0  0  0
  144.6075  131.8148  151.2850 H   0  0  0  0  0  0  0  0  0  0  0  0
  144.5778  132.6881  152.7992 H   0  0  0  0  0  0  0  0  0  0  0  0
  146.9278  132.6684  150.8169 H   0  0  0  0  0  0  0  0  0  0  0  0
  145.8546  134.0090  151.1535 H   0  0  0  0  0  0  0  0  0  0  0  0
  149.8289  136.5073  153.4807 H   0  0  0  0  0  0  0  0  0  0  0  0
  153.7979  138.2794  156.4749 H   0  0  0  0  0  0  0  0  0  0  0  0
  152.4365  140.4685  155.6967 H   0  0  0  0  0  0  0  0  0  0  0  0
  145.0756  130.5392  153.2944 H   0  0  0  0  0  0  0  0  0  0  0  0
  1  2  2  0  0  0  0
  2  3  1  0  0  0  0
  2 14  1  0  0  0  0
  3  4  1  0  0  0  0
  3 20  1  0  0  0  0
  4  5  1  0  0  0  0
  4 21  1  0  0  0  0
  4 22  1  0  0  0  0
  5 13  1  0  0  0  0
  5  6  1  0  0  0  0
  5 23  1  0  0  0  0
  6  7  1  0  0  0  0
  6 24  1  0  0  0  0
  6 25  1  0  0  0  0
  7  8  1  0  0  0  0
  7 11  1  0  0  0  0
  7 38  1  0  0  0  0
  8 10  1  0  0  0  0
  8  9  1  0  0  0  0
  8 26  1  0  0  0  0
  9 10  1  0  0  0  0
  9 27  1  0  0  0  0
  9 28  1  0  0  0  0
 10 29  1  0  0  0  0
 10 30  1  0  0  0  0
 11 12  1  0  0  0  0
 11 31  1  0  0  0  0
 11 32  1  0  0  0  0
 12 13  1  0  0  0  0
 12 33  1  0  0  0  0
 12 34  1  0  0  0  0
 14 15  1  0  0  0  0
 14 35  1  0  0  0  0
 15 19  1  0  0  0  0
 15 16  2  0  0  0  0
 16 17  1  0  0  0  0
 17 18  2  0  0  0  0
 17 36  1  0  0  0  0
 18 19  1  0  0  0  0
 18 37  1  0  0  0  0
M  CHG  1   7   1
M  END
> <s_m_source_file>
AV-unprocessed.smi

> <i_m_source_file_index>
2999

> <i_lp_mmshare_version>
43012

> <i_f3d_flags>
0

> <s_epik_input>
czFbY0hdW2NIXW5jMVtOSF1DKD1PKVtOSF1bQ0gyXVtDQEBIXTJbQ0gyXU4oW0NIMl1bQ0gyXU8yKVtDSF0zW0NIMl1bQ0gyXTM=

> <s_epik_cmdline>
J2VwaWtfcHl0aG9uJywgJy1waCcsICc3LjAnLCAnLXRuJywgJzgnLCAnLW1hJywgJzIwMCcsICctbWV0YWxfYmluZGluZycsICctaW1hZScsICc8aW5maWxlLm1hZT4nLCAnLW9tYWUnLCAnPG91dGZpbGUubWFlPic=

> <r_lp_tautomer_probability>
0.999

> <r_epik_Ionization_Penalty>
1.55235

> <r_epik_Ionization_Penalty_Charging>
1.55221

> <r_epik_Ionization_Penalty_Neutral>
0.000139685

> <r_epik_State_Penalty>
1.64652

> <r_epik_Charging_Adjusted_Penalty>
3.19873

> <i_epik_Tot_Q>
1

> <i_epik_Tot_abs_Q>
1

> <r_epik_Metal_State_Penalty>
1.68612

> <b_epik_Metal_Only>
0

> <s_lp_Force_Field>
OPLS_2005

> <r_lp_Energy>
24.3861

> <b_lp_Chiralities_Consistent>
1

> <s_lp_Variant>
AV-unprocessed.smi:2999-4

> <Gold.Version>
5.8.1

> <Gold.Id.Protein>
6NUR|6NUR_protein|mol2

> <Gold.PLP.Fitness>
41.9749

> <Gold.PLP.PLP>
-34.8341

> <Gold.PLP.part.hbond>
-4.0000

> <Gold.PLP.part.metal>
0.0000

> <Gold.PLP.part.buried>
-3.5189

> <Gold.PLP.part.nonpolar>
-27.9159

> <Gold.PLP.part.repulsive>
0.2998

> <Gold.PLP.ligand.clash>
0.0000

> <Gold.PLP.ligand.torsion>
1.3400

> <Gold.PLP.Chemscore.Hbond>
2.8480

> <Gold.PLP.Chemscore.CHOScore>
0.0000

> <Gold.PLP.Chemscore.Metal>
0.0000

> <Gold.Chemscore.Hbonds>
donor molecule, donor type, donor heavy atom, donor atom, acceptor molecule, acceptor atom, score
      L1  H     3    20       P1  7948  0.95
      L1  H    14    35       P1  7948  1.00
      P1  H 10752 10765       L1    16  0.85

> <Gold.PLP.Chemscore.Internal.Correction>
1.2768

> <Gold.Rescore>
     Score         DG    S(hbond)    S(metal)    S(lipo)     H(rot)  DE(clash)    DE(int)     intcor
     14.94     -16.98       1.93        0.00      77.75       1.58       0.50       1.53       ----

> <Gold.Chemscore.Fitness>
14.9449

> <Gold.Chemscore.DG>
-16.9765

> <Gold.Chemscore.ZeroCoef>
-5.4800

> <Gold.Chemscore.Hbond>
1.9290

> <Gold.Chemscore.Metal>
0.0000

> <Gold.Chemscore.Lipo>
77.7538

> <Gold.Chemscore.Internal_Hbond>
0.0000

> <Gold.Chemscore.DEClash>
0.5012

> <Gold.Chemscore.DEInternal>
1.5304

> <Gold.Chemscore.Rot>
1.5795

> <Gold.Chemscore.Internal.Correction>
   9.000000E+99

> <Gold.Chemscore.Hbonds>
donor molecule, donor type, donor heavy atom, donor atom, acceptor molecule, acceptor atom, score
      L1  H     3    20       P1  7948  0.20
      L1  H    14    35       P1  7948  0.25
      P1  H 10752 10765       L1    16  0.37

> <Gold.Chemscore.Hbond.Weighted>
-6.4427

> <Gold.Chemscore.Metal.Weighted>
-0.0000

> <Gold.Chemscore.Lipo.Weighted>
-9.0972

> <Gold.Chemscore.Internal_Hbond.Weighted>
0.0000

> <Gold.Chemscore.DEClash.Weighted>
0.5012

> <Gold.Chemscore.DEInternal.Weighted>
1.5304

> <Gold.Chemscore.Rot.Weighted>
4.0434

> <Gold.Chemscore.Internal.Correction.Weighted>
   9.000000E+99

> <Gold.Protein.RotatedTorsions>
[ 6907 6896 6895 6894 ] final  -24.98 input  -60.11 | X-H torsion
[ 7974 7965 7964 7962 ] final   99.68 input  175.53 | X-H torsion
[ 8008 7997 7996 7995 ] final  -55.30 input   59.86 | X-H torsion
[ 10167 10162 10161 10158 ] final  162.50 input  -65.29 | X-H torsion
[ 10718 10713 10712 10709 ] final   80.14 input   66.30 | X-H torsion
[ 10763 10752 10751 10750 ] final -171.73 input  -60.55 | X-H torsion
[ 11005 11000 10999 10996 ] final   36.91 input  -57.11 | X-H torsion

> <Gold.Protein.ActiveResidues>
 VAL166  LYS551  ARG553  GLY616  TRP617  ASP618  TYR619  PRO620  LYS621  CYS622 
 ASP623  PHE694  ASN695  SER759  ASP760  ASP761  ALA762  ILE779  LEU786  VAL792 
 PHE793  MET794  SER795  GLU796  ALA797  LYS798  CYS799  TRP800  GLU811  SER814 

> <Gold.Protein.RotatedAtoms>
  151.1818  135.0364  159.8795 H   0  0  0  0  0  0  0  0  0  0  0  0  # atno 6907 bound_to 6896
  152.5444  134.1055  159.8346 H   0  0  0  0  0  0  0  0  0  0  0  0  # atno 6908 bound_to 6896
  151.1172  133.5083  159.2635 H   0  0  0  0  0  0  0  0  0  0  0  0  # atno 6909 bound_to 6896
  145.3957  139.2355  143.3327 H   0  0  0  0  0  0  0  0  0  0  0  0  # atno 7974 bound_to 7965
  154.4190  140.1156  156.5454 H   0  0  0  0  0  0  0  0  0  0  0  0  # atno 8008 bound_to 7997
  155.6465  140.3496  155.4714 H   0  0  0  0  0  0  0  0  0  0  0  0  # atno 8009 bound_to 7997
  155.9828  140.1163  157.0701 H   0  0  0  0  0  0  0  0  0  0  0  0  # atno 8010 bound_to 7997
  139.4861  144.4431  151.8926 H   0  0  0  0  0  0  0  0  0  0  0  0  # atno 10167 bound_to 10162
  157.6797  130.9946  150.2036 H   0  0  0  0  0  0  0  0  0  0  0  0  # atno 10718 bound_to 10713
  154.6273  135.2882  155.0257 H   0  0  0  0  0  0  0  0  0  0  0  0  # atno 10763 bound_to 10752
  154.1431  135.6515  153.4950 H   0  0  0  0  0  0  0  0  0  0  0  0  # atno 10764 bound_to 10752
  153.0263  135.5337  154.7086 H   0  0  0  0  0  0  0  0  0  0  0  0  # atno 10765 bound_to 10752
  140.2278  134.3563  155.7977 H   0  0  0  0  0  0  0  0  0  0  0  0  # atno 11005 bound_to 11000
  146.2776  140.4647  142.8789 LP  0  0  0  0  0  0  0  0  0  0  0  0  # atno 17320 bound_to 7965
  144.8409  140.6855  143.6230 LP  0  0  0  0  0  0  0  0  0  0  0  0  # atno 17321 bound_to 7965
  140.3884  144.2647  150.5902 LP  0  0  0  0  0  0  0  0  0  0  0  0  # atno 17342 bound_to 10162
  140.5169  143.2276  151.8449 LP  0  0  0  0  0  0  0  0  0  0  0  0  # atno 17343 bound_to 10162
  156.2721  130.3723  149.8020 LP  0  0  0  0  0  0  0  0  0  0  0  0  # atno 17370 bound_to 10713
  156.5734  130.8434  151.3363 LP  0  0  0  0  0  0  0  0  0  0  0  0  # atno 17371 bound_to 10713
  141.2219  133.7229  156.8682 LP  0  0  0  0  0  0  0  0  0  0  0  0  # atno 17394 bound_to 11000
  140.1782  134.9052  157.2916 LP  0  0  0  0  0  0  0  0  0  0  0  0  # atno 17395 bound_to 11000

$$$$
