AV-unprocessed.smi:561|AV-procd|sdf|2940|dock7
  -GOLD-   2262023433D 1   1.00000     0.00000
 Structure written by MMmdl.
 36 37  0  0  0  0  0  0  0  0  3 V2000
  153.0765  142.4335  162.1499 C   0  0  0  0  0  0  0  0  0  0  0  0
  153.7368  142.3230  160.7689 C   0  0  2  0  0  0  0  0  0  0  0  0
  152.6882  142.0130  159.6697 C   0  0  0  0  0  0  0  0  0  0  0  0
  152.1200  143.2055  159.0144 N   0  0  0  0  0  0  0  0  0  0  0  0
  152.3540  144.5195  159.3381 C   0  0  0  0  0  0  0  0  0  0  0  0
  151.6162  145.2770  158.4660 C   0  0  0  0  0  0  0  0  0  0  0  0
  150.9719  144.3977  157.6378 N   0  3  0  0  0  0  0  0  0  0  0  0
  151.2844  143.1402  157.9667 C   0  0  0  0  0  0  0  0  0  0  0  0
  154.7515  141.2643  160.8174 N   0  5  0  0  0  0  0  0  0  0  0  0
  154.7478  140.1960  161.6726 C   0  0  0  0  0  0  0  0  0  0  0  0
  154.4510  139.0312  161.3797 O   0  0  0  0  0  0  0  0  0  0  0  0
  155.1069  140.4200  163.1045 C   0  0  0  0  0  0  0  0  0  0  0  0
  155.3165  141.6264  163.5314 N   0  0  0  0  0  0  0  0  0  0  0  0
  155.6321  141.8985  164.8465 N   0  0  0  0  0  0  0  0  0  0  0  0
  155.5783  143.3133  165.2087 C   0  0  0  0  0  0  0  0  0  0  0  0
  156.0069  140.9674  165.7579 C   0  0  0  0  0  0  0  0  0  0  0  0
  156.2718  141.2262  166.9321 O   0  0  0  0  0  0  0  0  0  0  0  0
  156.1285  139.5278  165.2517 C   0  0  0  0  0  0  0  0  0  0  0  0
  155.1895  139.2445  164.0627 C   0  0  0  0  0  0  0  0  0  0  0  0
  152.3240  143.2221  162.1614 H   0  0  0  0  0  0  0  0  0  0  0  0
  153.8107  142.6716  162.9204 H   0  0  0  0  0  0  0  0  0  0  0  0
  152.5848  141.5021  162.4336 H   0  0  0  0  0  0  0  0  0  0  0  0
  154.1766  143.2966  160.5466 H   0  0  0  0  0  0  0  0  0  0  0  0
  153.1213  141.3804  158.8931 H   0  0  0  0  0  0  0  0  0  0  0  0
  151.8555  141.4516  160.0958 H   0  0  0  0  0  0  0  0  0  0  0  0
  153.0009  144.8049  160.1550 H   0  0  0  0  0  0  0  0  0  0  0  0
  151.5038  146.3475  158.3764 H   0  0  0  0  0  0  0  0  0  0  0  0
  150.9220  142.2461  157.4914 H   0  0  0  0  0  0  0  0  0  0  0  0
  156.5679  143.6718  165.4950 H   0  0  0  0  0  0  0  0  0  0  0  0
  154.8999  143.4722  166.0481 H   0  0  0  0  0  0  0  0  0  0  0  0
  155.2286  143.9340  164.3822 H   0  0  0  0  0  0  0  0  0  0  0  0
  157.1639  139.3768  164.9442 H   0  0  0  0  0  0  0  0  0  0  0  0
  155.9361  138.8257  166.0636 H   0  0  0  0  0  0  0  0  0  0  0  0
  154.1890  139.0060  164.4255 H   0  0  0  0  0  0  0  0  0  0  0  0
  155.5532  138.3526  163.5517 H   0  0  0  0  0  0  0  0  0  0  0  0
  150.3451  144.6578  156.8871 H   0  0  0  0  0  0  0  0  0  0  0  0
  1  2  1  0  0  0  0
  1 20  1  0  0  0  0
  1 21  1  0  0  0  0
  1 22  1  0  0  0  0
  2  3  1  0  0  0  0
  2  9  1  0  0  0  0
  2 23  1  0  0  0  0
  3  4  1  0  0  0  0
  3 24  1  0  0  0  0
  3 25  1  0  0  0  0
  4  8  1  0  0  0  0
  4  5  1  0  0  0  0
  5  6  2  0  0  0  0
  5 26  1  0  0  0  0
  6  7  1  0  0  0  0
  6 27  1  0  0  0  0
  7  8  2  0  0  0  0
  7 36  1  0  0  0  0
  8 28  1  0  0  0  0
  9 10  1  0  0  0  0
 10 11  2  0  0  0  0
 10 12  1  0  0  0  0
 12 19  1  0  0  0  0
 12 13  2  0  0  0  0
 13 14  1  0  0  0  0
 14 15  1  0  0  0  0
 14 16  1  0  0  0  0
 15 29  1  0  0  0  0
 15 30  1  0  0  0  0
 15 31  1  0  0  0  0
 16 17  2  0  0  0  0
 16 18  1  0  0  0  0
 18 19  1  0  0  0  0
 18 32  1  0  0  0  0
 18 33  1  0  0  0  0
 19 34  1  0  0  0  0
 19 35  1  0  0  0  0
M  CHG  1   7   1
M  CHG  1   9  -1
M  END
> <s_m_source_file>
AV-unprocessed.smi

> <i_m_source_file_index>
561

> <i_lp_mmshare_version>
43012

> <i_f3d_flags>
0

> <s_epik_input>
W2NIXTFuW2NIXVtjSF1uMVtDSDJdW0NAQEhdKFtDSDNdKVtOSF1DKD1PKUMyPU5OKFtDSDNdKUMoPU8pW0NIMl1bQ0gyXTI=

> <s_epik_cmdline>
J2VwaWtfcHl0aG9uJywgJy1waCcsICc3LjAnLCAnLXRuJywgJzgnLCAnLW1hJywgJzIwMCcsICctbWV0YWxfYmluZGluZycsICctaW1hZScsICc8aW5maWxlLm1hZT4nLCAnLW9tYWUnLCAnPG91dGZpbGUubWFlPic=

> <r_lp_tautomer_probability>
1

> <r_epik_Ionization_Penalty>
5.37239

> <r_epik_Ionization_Penalty_Charging>
5.18263

> <r_epik_Ionization_Penalty_Neutral>
0.189756

> <r_epik_State_Penalty>
5.53772

> <r_epik_Charging_Adjusted_Penalty>
10.7204

> <i_epik_Tot_Q>
0

> <i_epik_Tot_abs_Q>
2

> <r_epik_Metal_State_Penalty>
1.80836

> <b_epik_Metal_Only>
1

> <s_epik_Chemistry_Notes>
This compound has an imine and may undergo hydrolysis.

> <s_lp_Force_Field>
OPLS_2005

> <r_lp_Energy>
20.2917

> <b_lp_Chiralities_Consistent>
1

> <s_lp_Variant>
AV-unprocessed.smi:561-5

> <Gold.Version>
5.8.1

> <Gold.Id.Protein>
6NUR|6NUR_protein|mol2

> <Gold.PLP.Fitness>
46.6260

> <Gold.PLP.PLP>
-43.5889

> <Gold.PLP.part.hbond>
-3.0000

> <Gold.PLP.part.metal>
0.0000

> <Gold.PLP.part.buried>
-4.7757

> <Gold.PLP.part.nonpolar>
-34.4566

> <Gold.PLP.part.repulsive>
0.0869

> <Gold.PLP.ligand.clash>
0.0000

> <Gold.PLP.ligand.torsion>
1.5012

> <Gold.PLP.Chemscore.Hbond>
2.0000

> <Gold.PLP.Chemscore.CHOScore>
0.0000

> <Gold.PLP.Chemscore.Metal>
0.0000

> <Gold.Chemscore.Hbonds>
donor molecule, donor type, donor heavy atom, donor atom, acceptor molecule, acceptor atom, score
      L1  H     7    36       P1  8028  2.00

> <Gold.PLP.Chemscore.Internal.Correction>
0.0395

> <Gold.Rescore>
     Score         DG    S(hbond)    S(metal)    S(lipo)     H(rot)  DE(clash)    DE(int)     intcor
     11.54     -14.30       0.98        0.00      85.09       1.73       1.31       1.45       ----

> <Gold.Chemscore.Fitness>
11.5368

> <Gold.Chemscore.DG>
-14.2963

> <Gold.Chemscore.ZeroCoef>
-5.4800

> <Gold.Chemscore.Hbond>
0.9849

> <Gold.Chemscore.Metal>
0.0000

> <Gold.Chemscore.Lipo>
85.0884

> <Gold.Chemscore.Internal_Hbond>
0.0000

> <Gold.Chemscore.DEClash>
1.3077

> <Gold.Chemscore.DEInternal>
1.4518

> <Gold.Chemscore.Rot>
1.7299

> <Gold.Chemscore.Internal.Correction>
   9.000000E+99

> <Gold.Chemscore.Hbonds>
donor molecule, donor type, donor heavy atom, donor atom, acceptor molecule, acceptor atom, score
      L1  H     7    36       P1  8028  0.74

> <Gold.Chemscore.Hbond.Weighted>
-3.2896

> <Gold.Chemscore.Metal.Weighted>
-0.0000

> <Gold.Chemscore.Lipo.Weighted>
-9.9553

> <Gold.Chemscore.Internal_Hbond.Weighted>
0.0000

> <Gold.Chemscore.DEClash.Weighted>
1.3077

> <Gold.Chemscore.DEInternal.Weighted>
1.4518

> <Gold.Chemscore.Rot.Weighted>
4.4286

> <Gold.Chemscore.Internal.Correction.Weighted>
   9.000000E+99

> <Gold.Protein.RotatedTorsions>
[ 6907 6896 6895 6894 ] final -154.51 input  -60.11 | X-H torsion
[ 7974 7965 7964 7962 ] final -140.47 input  175.53 | X-H torsion
[ 8008 7997 7996 7995 ] final -122.75 input   59.86 | X-H torsion
[ 10167 10162 10161 10158 ] final -121.59 input  -65.29 | X-H torsion
[ 10718 10713 10712 10709 ] final  -16.22 input   66.30 | X-H torsion
[ 10763 10752 10751 10750 ] final  -92.45 input  -60.55 | X-H torsion
[ 11005 11000 10999 10996 ] final -173.99 input  -57.11 | X-H torsion

> <Gold.Protein.ActiveResidues>
 VAL166  LYS551  ARG553  GLY616  TRP617  ASP618  TYR619  PRO620  LYS621  CYS622 
 ASP623  PHE694  ASN695  SER759  ASP760  ASP761  ALA762  ILE779  LEU786  VAL792 
 PHE793  MET794  SER795  GLU796  ALA797  LYS798  CYS799  TRP800  GLU811  SER814 

> <Gold.Protein.RotatedAtoms>
  151.2585  133.4314  159.2614 H   0  0  0  0  0  0  0  0  0  0  0  0  # atno 6907 bound_to 6896
  151.0552  134.9700  159.8242 H   0  0  0  0  0  0  0  0  0  0  0  0  # atno 6908 bound_to 6896
  152.5389  134.2538  159.8961 H   0  0  0  0  0  0  0  0  0  0  0  0  # atno 6909 bound_to 6896
  144.8595  140.6196  143.5338 H   0  0  0  0  0  0  0  0  0  0  0  0  # atno 7974 bound_to 7965
  155.1694  140.0408  157.2859 H   0  0  0  0  0  0  0  0  0  0  0  0  # atno 8008 bound_to 7997
  154.6280  140.2517  155.7441 H   0  0  0  0  0  0  0  0  0  0  0  0  # atno 8009 bound_to 7997
  156.2469  140.2881  156.0619 H   0  0  0  0  0  0  0  0  0  0  0  0  # atno 8010 bound_to 7997
  140.0234  143.5321  152.2210 H   0  0  0  0  0  0  0  0  0  0  0  0  # atno 10167 bound_to 10162
  156.5907  130.4798  149.6281 H   0  0  0  0  0  0  0  0  0  0  0  0  # atno 10718 bound_to 10713
  154.6862  135.5231  153.8330 H   0  0  0  0  0  0  0  0  0  0  0  0  # atno 10763 bound_to 10752
  153.0599  135.6564  154.0497 H   0  0  0  0  0  0  0  0  0  0  0  0  # atno 10764 bound_to 10752
  154.0377  135.2980  155.3339 H   0  0  0  0  0  0  0  0  0  0  0  0  # atno 10765 bound_to 10752
  140.4795  134.6089  157.4914 H   0  0  0  0  0  0  0  0  0  0  0  0  # atno 11005 bound_to 11000
  145.4341  139.1545  143.4006 LP  0  0  0  0  0  0  0  0  0  0  0  0  # atno 17320 bound_to 7965
  146.2849  140.4459  142.8762 LP  0  0  0  0  0  0  0  0  0  0  0  0  # atno 17321 bound_to 7965
  139.6125  144.7612  151.2921 LP  0  0  0  0  0  0  0  0  0  0  0  0  # atno 17342 bound_to 10162
  140.7333  143.6799  150.8010 LP  0  0  0  0  0  0  0  0  0  0  0  0  # atno 17343 bound_to 10162
  156.2552  130.6930  151.1681 LP  0  0  0  0  0  0  0  0  0  0  0  0  # atno 17370 bound_to 10713
  157.7304  131.0616  150.5727 LP  0  0  0  0  0  0  0  0  0  0  0  0  # atno 17371 bound_to 10713
  139.9835  134.7099  155.9816 LP  0  0  0  0  0  0  0  0  0  0  0  0  # atno 17394 bound_to 11000
  141.1538  133.6545  156.4096 LP  0  0  0  0  0  0  0  0  0  0  0  0  # atno 17395 bound_to 11000

$$$$
