AV-unprocessed.smi:72|AV-procd|sdf|685|dock7
  -GOLD-   2262016593D 1   1.00000     0.00000
 Structure written by MMmdl.
 29 30  0  0  0  0  0  0  0  0  1 V2000
  152.7114  139.3952  156.4618 N   0  0  0  0  0  0  0  0  0  0  0  0
  151.5154  139.4110  155.9932 C   0  0  0  0  0  0  0  0  0  0  0  0
  151.1476  139.8706  154.7202 N   0  0  0  0  0  0  0  0  0  0  0  0
  149.8934  139.8469  154.3883 C   0  0  0  0  0  0  0  0  0  0  0  0
  148.8546  139.3839  155.3008 N   0  0  0  0  0  0  0  0  0  0  0  0
  147.3837  139.3346  154.9169 C   0  0  2  0  0  0  0  0  0  0  0  0
  146.9366  138.0125  154.8667 O   0  0  0  0  0  0  0  0  0  0  0  0
  147.0263  137.5285  153.5325 C   0  0  1  0  0  0  0  0  0  0  0  0
  146.1193  136.3014  153.3585 C   0  0  0  0  0  0  0  0  0  0  0  0
  146.1985  135.8287  152.0309 O   0  0  0  0  0  0  0  0  0  0  0  0
  146.5777  138.7461  152.7230 C   0  0  2  0  0  0  0  0  0  0  0  0
  147.1258  138.6998  151.4209 O   0  0  0  0  0  0  0  0  0  0  0  0
  147.1507  139.9249  153.5073 C   0  0  1  0  0  0  0  0  0  0  0  0
  146.2229  140.9898  153.5368 O   0  0  0  0  0  0  0  0  0  0  0  0
  149.2223  138.8621  156.5668 C   0  0  0  0  0  0  0  0  0  0  0  0
  148.3967  138.3946  157.3513 O   0  0  0  0  0  0  0  0  0  0  0  0
  150.5385  138.9128  156.8632 N   0  0  0  0  0  0  0  0  0  0  0  0
  146.8713  139.8663  155.7209 H   0  0  0  0  0  0  0  0  0  0  0  0
  148.0633  137.2865  153.2912 H   0  0  0  0  0  0  0  0  0  0  0  0
  145.4879  138.7916  152.6809 H   0  0  0  0  0  0  0  0  0  0  0  0
  148.0953  140.2641  153.0786 H   0  0  0  0  0  0  0  0  0  0  0  0
  152.7119  139.0138  157.3971 H   0  0  0  0  0  0  0  0  0  0  0  0
  149.5502  140.1705  153.4057 H   0  0  0  0  0  0  0  0  0  0  0  0
  146.3809  135.5097  154.0612 H   0  0  0  0  0  0  0  0  0  0  0  0
  145.0803  136.5732  153.5473 H   0  0  0  0  0  0  0  0  0  0  0  0
  147.1098  135.7293  151.8014 H   0  0  0  0  0  0  0  0  0  0  0  0
  147.7396  139.4131  151.3311 H   0  0  0  0  0  0  0  0  0  0  0  0
  145.3634  140.6400  153.3558 H   0  0  0  0  0  0  0  0  0  0  0  0
  150.8303  138.5628  157.7641 H   0  0  0  0  0  0  0  0  0  0  0  0
  1  2  2  0  0  0  0
  1 22  1  0  0  0  0
  2 17  1  0  0  0  0
  2  3  1  0  0  0  0
  3  4  2  0  0  0  0
  4  5  1  0  0  0  0
  4 23  1  0  0  0  0
  5  6  1  0  0  0  0
  5 15  1  0  0  0  0
  6 18  1  0  0  0  0
  6 13  1  0  0  0  0
  6  7  1  0  0  0  0
  7  8  1  0  0  0  0
  8 19  1  0  0  0  0
  8  9  1  0  0  0  0
  8 11  1  0  0  0  0
  9 10  1  0  0  0  0
  9 24  1  0  0  0  0
  9 25  1  0  0  0  0
 10 26  1  0  0  0  0
 11 20  1  0  0  0  0
 11 12  1  0  0  0  0
 11 13  1  0  0  0  0
 12 27  1  0  0  0  0
 13 21  1  0  0  0  0
 13 14  1  0  0  0  0
 14 28  1  0  0  0  0
 15 16  2  0  0  0  0
 15 17  1  0  0  0  0
 17 29  1  0  0  0  0
M  END
> <s_m_source_file>
AV-unprocessed.smi

> <i_m_source_file_index>
72

> <i_lp_mmshare_version>
43012

> <i_f3d_flags>
0

> <s_epik_input>
W05IMl1jMW5bY0hdbihjKD1PKW4xKVtDQEBIXTJPW0NASF0oW0NIMl1bT0hdKVtDQEBIXShbT0hdKVtDQEhdMltPSF0=

> <s_epik_cmdline>
J2VwaWtfcHl0aG9uJywgJy1waCcsICc3LjAnLCAnLXRuJywgJzgnLCAnLW1hJywgJzIwMCcsICctbWV0YWxfYmluZGluZycsICctaW1hZScsICc8aW5maWxlLm1hZT4nLCAnLW9tYWUnLCAnPG91dGZpbGUubWFlPic=

> <r_lp_tautomer_probability>
7.17554e-07

> <r_epik_Ionization_Penalty>
0.0066451

> <r_epik_Ionization_Penalty_Charging>
0.00663793

> <r_epik_Ionization_Penalty_Neutral>
7.17052e-06

> <r_epik_State_Penalty>
0.419231

> <r_epik_Charging_Adjusted_Penalty>
0.425868

> <i_epik_Tot_Q>
0

> <i_epik_Tot_abs_Q>
0

> <r_epik_Metal_State_Penalty>
1.44144

> <b_epik_Metal_Only>
0

> <s_epik_Chemistry_Notes>
This compound contains an acetal/aminal-like group ( X-CH(R)-Y where X, Y are N, S, or O) that may be acid/base labile, releasing an aldehyde.

> <s_lp_Force_Field>
OPLS_2005

> <r_lp_Energy>
35.407

> <b_lp_Chiralities_Consistent>
1

> <s_lp_Variant>
AV-unprocessed.smi:72-23

> <Gold.Version>
5.8.1

> <Gold.Id.Protein>
6NUR|6NUR_protein|mol2

> <Gold.PLP.Fitness>
37.2006

> <Gold.PLP.PLP>
-19.0099

> <Gold.PLP.part.hbond>
-6.9240

> <Gold.PLP.part.metal>
0.0000

> <Gold.PLP.part.buried>
-0.5580

> <Gold.PLP.part.nonpolar>
-11.4359

> <Gold.PLP.part.repulsive>
0.1311

> <Gold.PLP.ligand.clash>
0.0000

> <Gold.PLP.ligand.torsion>
0.0377

> <Gold.PLP.Chemscore.Hbond>
5.0760

> <Gold.PLP.Chemscore.CHOScore>
1.0000

> <Gold.PLP.Chemscore.Metal>
0.0000

> <Gold.Chemscore.Hbonds>
donor molecule, donor type, donor heavy atom, donor atom, acceptor molecule, acceptor atom, score
      L1  H    10    26       P1  7948  1.00
      L1  H    12    27       P1  7957  0.99
      L1  H    14    28       P1 10175  1.00
      P1  H  7954  7966       L1    12  0.20
      P1  H  7989  7998       L1     3  0.80
      P1  H  7997  8010       L1     1  1.00
      L1  C     4    23       P1  7957  1.00

> <Gold.PLP.Chemscore.Internal.Correction>
0.0382

> <Gold.Rescore>
     Score         DG    S(hbond)    S(metal)    S(lipo)     H(rot)  DE(clash)    DE(int)     intcor
      8.50      -9.93       3.80        0.00      18.33       4.06       0.28       1.16       ----

> <Gold.Chemscore.Fitness>
8.4971

> <Gold.Chemscore.DG>
-9.9300

> <Gold.Chemscore.ZeroCoef>
-5.4800

> <Gold.Chemscore.Hbond>
3.8019

> <Gold.Chemscore.Metal>
0.0000

> <Gold.Chemscore.Lipo>
18.3350

> <Gold.Chemscore.Internal_Hbond>
0.0000

> <Gold.Chemscore.DEClash>
0.2753

> <Gold.Chemscore.DEInternal>
1.1577

> <Gold.Chemscore.Rot>
4.0600

> <Gold.Chemscore.Internal.Correction>
   9.000000E+99

> <Gold.Chemscore.Hbonds>
donor molecule, donor type, donor heavy atom, donor atom, acceptor molecule, acceptor atom, score
      L1  H    10    26       P1  7948  0.98
      L1  H    12    27       P1  7957  0.86
      L1  H    14    28       P1 10175  0.89
      P1  H  7989  7998       L1     3  0.12
      P1  H  7997  8010       L1     1  0.30

> <Gold.Chemscore.Hbond.Weighted>
-12.6984

> <Gold.Chemscore.Metal.Weighted>
-0.0000

> <Gold.Chemscore.Lipo.Weighted>
-2.1452

> <Gold.Chemscore.Internal_Hbond.Weighted>
0.0000

> <Gold.Chemscore.DEClash.Weighted>
0.2753

> <Gold.Chemscore.DEInternal.Weighted>
1.1577

> <Gold.Chemscore.Rot.Weighted>
10.3936

> <Gold.Chemscore.Internal.Correction.Weighted>
   9.000000E+99

> <Gold.Protein.RotatedTorsions>
[ 6907 6896 6895 6894 ] final -147.68 input  -60.11 | X-H torsion
[ 7974 7965 7964 7962 ] final -179.16 input  175.53 | X-H torsion
[ 8008 7997 7996 7995 ] final   75.66 input   59.86 | X-H torsion
[ 10167 10162 10161 10158 ] final   91.77 input  -65.29 | X-H torsion
[ 10718 10713 10712 10709 ] final   20.27 input   66.30 | X-H torsion
[ 10763 10752 10751 10750 ] final  139.36 input  -60.55 | X-H torsion
[ 11005 11000 10999 10996 ] final  135.12 input  -57.11 | X-H torsion

> <Gold.Protein.ActiveResidues>
 VAL166  LYS551  ARG553  GLY616  TRP617  ASP618  TYR619  PRO620  LYS621  CYS622 
 ASP623  PHE694  ASN695  SER759  ASP760  ASP761  ALA762  ILE779  LEU786  VAL792 
 PHE793  MET794  SER795  GLU796  ALA797  LYS798  CYS799  TRP800  GLU811  SER814 

> <Gold.Protein.RotatedAtoms>
  151.1591  133.4857  159.2594 H   0  0  0  0  0  0  0  0  0  0  0  0  # atno 6907 bound_to 6896
  151.1473  135.0209  159.8662 H   0  0  0  0  0  0  0  0  0  0  0  0  # atno 6908 bound_to 6896
  152.5463  134.1479  159.8559 H   0  0  0  0  0  0  0  0  0  0  0  0  # atno 6909 bound_to 6896
  144.7135  140.0759  143.6427 H   0  0  0  0  0  0  0  0  0  0  0  0  # atno 7974 bound_to 7965
  155.8161  140.3471  155.5486 H   0  0  0  0  0  0  0  0  0  0  0  0  # atno 8008 bound_to 7997
  155.8391  140.0939  157.1766 H   0  0  0  0  0  0  0  0  0  0  0  0  # atno 8009 bound_to 7997
  154.4005  140.1398  156.3694 H   0  0  0  0  0  0  0  0  0  0  0  0  # atno 8010 bound_to 7997
  139.8342  144.6673  150.9363 H   0  0  0  0  0  0  0  0  0  0  0  0  # atno 10167 bound_to 10162
  157.1222  130.6554  149.5927 H   0  0  0  0  0  0  0  0  0  0  0  0  # atno 10718 bound_to 10713
  153.9049  135.3018  155.3448 H   0  0  0  0  0  0  0  0  0  0  0  0  # atno 10763 bound_to 10752
  154.7652  135.4914  153.9543 H   0  0  0  0  0  0  0  0  0  0  0  0  # atno 10764 bound_to 10752
  153.1224  135.6785  153.9413 H   0  0  0  0  0  0  0  0  0  0  0  0  # atno 10765 bound_to 10752
  139.9959  134.9497  156.9963 H   0  0  0  0  0  0  0  0  0  0  0  0  # atno 11005 bound_to 11000
  145.9743  139.2893  143.1080 LP  0  0  0  0  0  0  0  0  0  0  0  0  # atno 17320 bound_to 7965
  145.9081  140.9198  143.0468 LP  0  0  0  0  0  0  0  0  0  0  0  0  # atno 17321 bound_to 7965
  140.7804  143.3973  151.1209 LP  0  0  0  0  0  0  0  0  0  0  0  0  # atno 17342 bound_to 10162
  139.7624  143.8615  152.3103 LP  0  0  0  0  0  0  0  0  0  0  0  0  # atno 17343 bound_to 10162
  155.9826  130.4841  150.6890 LP  0  0  0  0  0  0  0  0  0  0  0  0  # atno 17370 bound_to 10713
  157.4467  131.0867  151.0888 LP  0  0  0  0  0  0  0  0  0  0  0  0  # atno 17371 bound_to 10713
  140.4819  134.1281  155.7218 LP  0  0  0  0  0  0  0  0  0  0  0  0  # atno 17394 bound_to 11000
  141.1604  133.8804  157.1864 LP  0  0  0  0  0  0  0  0  0  0  0  0  # atno 17395 bound_to 11000

$$$$
