AV-unprocessed.smi:648|AV-procd|sdf|3176|dock8
  -GOLD-   22720 0103D 1   1.00000     0.00000
 Structure written by MMmdl.
 45 46  0  0  0  0  0  0  0  0  1 V2000
  153.2069  138.6892  154.5569 C   0  0  0  0  0  0  0  0  0  0  0  0
  151.7886  139.0218  155.0431 C   0  0  2  0  0  0  0  0  0  0  0  0
  151.7975  140.2491  155.9742 C   0  0  0  0  0  0  0  0  0  0  0  0
  150.3944  140.6529  156.4848 C   0  0  0  0  0  0  0  0  0  0  0  0
  150.5706  141.6613  157.6416 C   0  0  0  0  0  0  0  0  0  0  0  0
  149.6019  141.3932  155.3824 C   0  0  0  0  0  0  0  0  0  0  0  0
  149.6426  139.4084  157.0501 C   0  0  0  0  0  0  0  0  0  0  0  0
  149.6939  138.0790  156.2315 C   0  0  2  0  0  0  0  0  0  0  0  0
  148.7173  138.1338  155.0244 C   0  0  0  0  0  0  0  0  0  0  0  0
  148.5710  136.8730  154.3975 O   0  0  0  0  0  0  0  0  0  0  0  0
  149.1956  136.9642  157.0694 N   0  0  0  0  0  0  0  0  0  0  0  0
  149.2934  137.0415  158.5339 C   0  0  0  0  0  0  0  0  0  0  0  0
  147.9020  137.1913  159.1682 C   0  0  0  0  0  0  0  0  0  0  0  0
  147.8044  136.5122  160.4470 N   0  0  0  0  0  0  0  0  0  0  0  0
  147.8496  135.2128  160.7457 C   0  0  0  0  0  0  0  0  0  0  0  0
  147.7313  134.9571  162.0412 N   0  0  0  0  0  0  0  0  0  0  0  0
  147.6068  136.2328  162.5149 C   0  0  0  0  0  0  0  0  0  0  0  0
  147.6428  137.2021  161.6003 N   0  0  0  0  0  0  0  0  0  0  0  0
  151.1559  137.8210  155.7698 C   0  0  0  0  0  0  0  0  0  0  0  0
  153.8659  138.4422  155.3899 H   0  0  0  0  0  0  0  0  0  0  0  0
  153.6467  139.5322  154.0233 H   0  0  0  0  0  0  0  0  0  0  0  0
  153.1983  137.8382  153.8755 H   0  0  0  0  0  0  0  0  0  0  0  0
  151.2011  139.2501  154.1551 H   0  0  0  0  0  0  0  0  0  0  0  0
  152.4406  140.0256  156.8270 H   0  0  0  0  0  0  0  0  0  0  0  0
  152.2629  141.0958  155.4674 H   0  0  0  0  0  0  0  0  0  0  0  0
  149.6063  141.9805  158.0393 H   0  0  0  0  0  0  0  0  0  0  0  0
  151.1034  142.5557  157.3163 H   0  0  0  0  0  0  0  0  0  0  0  0
  151.1391  141.2345  158.4690 H   0  0  0  0  0  0  0  0  0  0  0  0
  148.5542  141.5171  155.6579 H   0  0  0  0  0  0  0  0  0  0  0  0
  149.6409  140.9011  154.4153 H   0  0  0  0  0  0  0  0  0  0  0  0
  150.0085  142.3910  155.2133 H   0  0  0  0  0  0  0  0  0  0  0  0
  150.0887  139.2191  158.0241 H   0  0  0  0  0  0  0  0  0  0  0  0
  148.6055  139.6687  157.2670 H   0  0  0  0  0  0  0  0  0  0  0  0
  147.7326  138.4804  155.3412 H   0  0  0  0  0  0  0  0  0  0  0  0
  149.0474  138.8162  154.2508 H   0  0  0  0  0  0  0  0  0  0  0  0
  148.8983  136.9377  153.5134 H   0  0  0  0  0  0  0  0  0  0  0  0
  149.6213  136.0995  156.7498 H   0  0  0  0  0  0  0  0  0  0  0  0
  149.7621  136.1490  158.9456 H   0  0  0  0  0  0  0  0  0  0  0  0
  149.9005  137.8904  158.8423 H   0  0  0  0  0  0  0  0  0  0  0  0
  147.6768  138.2472  159.3237 H   0  0  0  0  0  0  0  0  0  0  0  0
  147.1316  136.8018  158.5012 H   0  0  0  0  0  0  0  0  0  0  0  0
  147.9758  134.4398  160.0018 H   0  0  0  0  0  0  0  0  0  0  0  0
  147.4848  136.4539  163.5650 H   0  0  0  0  0  0  0  0  0  0  0  0
  151.2065  136.9326  155.1394 H   0  0  0  0  0  0  0  0  0  0  0  0
  151.7920  137.6075  156.6276 H   0  0  0  0  0  0  0  0  0  0  0  0
  1  2  1  0  0  0  0
  1 20  1  0  0  0  0
  1 21  1  0  0  0  0
  1 22  1  0  0  0  0
  2 19  1  0  0  0  0
  2  3  1  0  0  0  0
  2 23  1  0  0  0  0
  3  4  1  0  0  0  0
  3 24  1  0  0  0  0
  3 25  1  0  0  0  0
  4  5  1  0  0  0  0
  4  6  1  0  0  0  0
  4  7  1  0  0  0  0
  5 26  1  0  0  0  0
  5 27  1  0  0  0  0
  5 28  1  0  0  0  0
  6 29  1  0  0  0  0
  6 30  1  0  0  0  0
  6 31  1  0  0  0  0
  7  8  1  0  0  0  0
  7 32  1  0  0  0  0
  7 33  1  0  0  0  0
  8  9  1  0  0  0  0
  8 11  1  0  0  0  0
  8 19  1  0  0  0  0
  9 10  1  0  0  0  0
  9 34  1  0  0  0  0
  9 35  1  0  0  0  0
 10 36  1  0  0  0  0
 11 12  1  0  0  0  0
 11 37  1  0  0  0  0
 12 13  1  0  0  0  0
 12 38  1  0  0  0  0
 12 39  1  0  0  0  0
 13 14  1  0  0  0  0
 13 40  1  0  0  0  0
 13 41  1  0  0  0  0
 14 18  1  0  0  0  0
 14 15  1  0  0  0  0
 15 16  2  0  0  0  0
 15 42  1  0  0  0  0
 16 17  1  0  0  0  0
 17 18  2  0  0  0  0
 17 43  1  0  0  0  0
 19 44  1  0  0  0  0
 19 45  1  0  0  0  0
M  END
> <s_m_source_file>
AV-unprocessed.smi

> <i_m_source_file_index>
648

> <i_lp_mmshare_version>
43012

> <i_f3d_flags>
0

> <s_epik_input>
W0NIM11DMShbQ0gzXSlbQ0gyXVtDQEBIXShbQ0gzXSlbQ0gyXVtDQF0oW0NIMl0xKShbQ0gyXVtPSF0pW05IXVtDSDJdW0NIMl1uMltjSF1uW2NIXW4y

> <s_epik_cmdline>
J2VwaWtfcHl0aG9uJywgJy1waCcsICc3LjAnLCAnLXRuJywgJzgnLCAnLW1hJywgJzIwMCcsICctbWV0YWxfYmluZGluZycsICctaW1hZScsICc8aW5maWxlLm1hZT4nLCAnLW9tYWUnLCAnPG91dGZpbGUubWFlPic=

> <r_lp_tautomer_probability>
1

> <r_epik_Ionization_Penalty>
2.45849

> <r_epik_Ionization_Penalty_Charging>
0

> <r_epik_Ionization_Penalty_Neutral>
2.45849

> <r_epik_State_Penalty>
2.62037

> <r_epik_Charging_Adjusted_Penalty>
2.62037

> <i_epik_Tot_Q>
0

> <i_epik_Tot_abs_Q>
0

> <r_epik_Metal_State_Penalty>
2.62024

> <b_epik_Metal_Only>
0

> <s_lp_Force_Field>
OPLS_2005

> <r_lp_Energy>
36.1132

> <b_lp_Chiralities_Consistent>
1

> <s_lp_Variant>
AV-unprocessed.smi:648-7

> <Gold.Version>
5.8.1

> <Gold.Id.Protein>
6NUR|6NUR_protein|mol2

> <Gold.PLP.Fitness>
38.0160

> <Gold.PLP.PLP>
-32.4666

> <Gold.PLP.part.hbond>
-3.0000

> <Gold.PLP.part.metal>
0.0000

> <Gold.PLP.part.buried>
-4.8629

> <Gold.PLP.part.nonpolar>
-24.5710

> <Gold.PLP.part.repulsive>
0.0000

> <Gold.PLP.ligand.clash>
0.0000

> <Gold.PLP.ligand.torsion>
1.3719

> <Gold.PLP.Chemscore.Hbond>
2.7600

> <Gold.PLP.Chemscore.CHOScore>
0.0000

> <Gold.PLP.Chemscore.Metal>
0.0000

> <Gold.Chemscore.Hbonds>
donor molecule, donor type, donor heavy atom, donor atom, acceptor molecule, acceptor atom, score
      L1  H    10    36       P1  7948  0.98
      P1  H  6931  6943       L1    18  0.99
      P1  H  6934  6947       L1    18  0.77

> <Gold.PLP.Chemscore.Internal.Correction>
0.0133

> <Gold.Rescore>
     Score         DG    S(hbond)    S(metal)    S(lipo)     H(rot)  DE(clash)    DE(int)     intcor
     10.61     -12.19       2.19        0.00      63.09       3.12       0.02       1.56       ----

> <Gold.Chemscore.Fitness>
10.6129

> <Gold.Chemscore.DG>
-12.1883

> <Gold.Chemscore.ZeroCoef>
-5.4800

> <Gold.Chemscore.Hbond>
2.1887

> <Gold.Chemscore.Metal>
0.0000

> <Gold.Chemscore.Lipo>
63.0855

> <Gold.Chemscore.Internal_Hbond>
0.0000

> <Gold.Chemscore.DEClash>
0.0170

> <Gold.Chemscore.DEInternal>
1.5585

> <Gold.Chemscore.Rot>
3.1183

> <Gold.Chemscore.Internal.Correction>
   9.000000E+99

> <Gold.Chemscore.Hbonds>
donor molecule, donor type, donor heavy atom, donor atom, acceptor molecule, acceptor atom, score
      L1  H    10    36       P1  7948  0.92
      P1  H  6931  6943       L1    18  0.52
      P1  H  6934  6947       L1    18  0.29

> <Gold.Chemscore.Hbond.Weighted>
-7.3102

> <Gold.Chemscore.Metal.Weighted>
-0.0000

> <Gold.Chemscore.Lipo.Weighted>
-7.3810

> <Gold.Chemscore.Internal_Hbond.Weighted>
0.0000

> <Gold.Chemscore.DEClash.Weighted>
0.0170

> <Gold.Chemscore.DEInternal.Weighted>
1.5585

> <Gold.Chemscore.Rot.Weighted>
7.9829

> <Gold.Chemscore.Internal.Correction.Weighted>
   9.000000E+99

> <Gold.Protein.RotatedTorsions>
[ 6907 6896 6895 6894 ] final   81.31 input  -60.11 | X-H torsion
[ 7974 7965 7964 7962 ] final -145.57 input  175.53 | X-H torsion
[ 8008 7997 7996 7995 ] final  -89.66 input   59.86 | X-H torsion
[ 10167 10162 10161 10158 ] final  140.25 input  -65.29 | X-H torsion
[ 10718 10713 10712 10709 ] final   78.59 input   66.30 | X-H torsion
[ 10763 10752 10751 10750 ] final -101.36 input  -60.55 | X-H torsion
[ 11005 11000 10999 10996 ] final    5.02 input  -57.11 | X-H torsion

> <Gold.Protein.ActiveResidues>
 VAL166  LYS551  ARG553  GLY616  TRP617  ASP618  TYR619  PRO620  LYS621  CYS622 
 ASP623  PHE694  ASN695  SER759  ASP760  ASP761  ALA762  ILE779  LEU786  VAL792 
 PHE793  MET794  SER795  GLU796  ALA797  LYS798  CYS799  TRP800  GLU811  SER814 

> <Gold.Protein.RotatedAtoms>
  152.5264  134.3223  159.9152 H   0  0  0  0  0  0  0  0  0  0  0  0  # atno 6907 bound_to 6896
  151.3172  133.4049  159.2659 H   0  0  0  0  0  0  0  0  0  0  0  0  # atno 6908 bound_to 6896
  150.9989  134.9323  159.8000 H   0  0  0  0  0  0  0  0  0  0  0  0  # atno 6909 bound_to 6896
  144.8218  140.5567  143.5573 H   0  0  0  0  0  0  0  0  0  0  0  0  # atno 7974 bound_to 7965
  154.6892  140.0539  157.0346 H   0  0  0  0  0  0  0  0  0  0  0  0  # atno 8008 bound_to 7997
  155.0841  140.3212  155.4574 H   0  0  0  0  0  0  0  0  0  0  0  0  # atno 8009 bound_to 7997
  156.2722  140.2059  156.5969 H   0  0  0  0  0  0  0  0  0  0  0  0  # atno 8010 bound_to 7997
  139.5054  144.6245  151.5970 H   0  0  0  0  0  0  0  0  0  0  0  0  # atno 10167 bound_to 10162
  157.6750  130.9875  150.1809 H   0  0  0  0  0  0  0  0  0  0  0  0  # atno 10718 bound_to 10713
  154.7652  135.4900  153.9540 H   0  0  0  0  0  0  0  0  0  0  0  0  # atno 10763 bound_to 10752
  153.1299  135.6750  153.9204 H   0  0  0  0  0  0  0  0  0  0  0  0  # atno 10764 bound_to 10752
  153.8910  135.3121  155.3426 H   0  0  0  0  0  0  0  0  0  0  0  0  # atno 10765 bound_to 10752
  140.5754  134.0063  155.8025 H   0  0  0  0  0  0  0  0  0  0  0  0  # atno 11005 bound_to 11000
  145.5088  139.1480  143.3616 LP  0  0  0  0  0  0  0  0  0  0  0  0  # atno 17320 bound_to 7965
  146.2524  140.5228  142.8888 LP  0  0  0  0  0  0  0  0  0  0  0  0  # atno 17321 bound_to 7965
  140.5958  143.9699  150.6353 LP  0  0  0  0  0  0  0  0  0  0  0  0  # atno 17342 bound_to 10162
  140.2894  143.3334  152.1076 LP  0  0  0  0  0  0  0  0  0  0  0  0  # atno 17343 bound_to 10162
  156.2542  130.3704  149.8200 LP  0  0  0  0  0  0  0  0  0  0  0  0  # atno 17370 bound_to 10713
  156.5964  130.8528  151.3421 LP  0  0  0  0  0  0  0  0  0  0  0  0  # atno 17371 bound_to 10713
  141.1030  133.9738  157.3046 LP  0  0  0  0  0  0  0  0  0  0  0  0  # atno 17394 bound_to 11000
  139.9342  135.0198  156.8501 LP  0  0  0  0  0  0  0  0  0  0  0  0  # atno 17395 bound_to 11000

$$$$
