AV-unprocessed.smi:610|AV-procd|sdf|3053|dock9
  -GOLD-   2262023573D 1   1.00000     0.00000
 Structure written by MMmdl.
 39 40  0  0  0  0  0  0  0  0  3 V2000
  143.8877  137.5601  154.1098 C   0  0  0  0  0  0  0  0  0  0  0  0
  143.0536  137.2605  152.8573 C   0  0  2  0  0  0  0  0  0  0  0  0
  141.8426  136.3644  153.1944 C   0  0  0  0  0  0  0  0  0  0  0  0
  140.5621  137.0769  153.1189 N   0  0  0  0  0  0  0  0  0  0  0  0
  139.3428  136.6448  153.5748 C   0  0  0  0  0  0  0  0  0  0  0  0
  138.4433  137.6393  153.2886 C   0  0  0  0  0  0  0  0  0  0  0  0
  139.1489  138.6314  152.6619 N   0  3  0  0  0  0  0  0  0  0  0  0
  140.4356  138.2847  152.5535 C   0  0  0  0  0  0  0  0  0  0  0  0
  143.9135  136.6251  151.8593 N   0  0  0  0  0  0  0  0  0  0  0  0
  144.2945  135.3359  151.8483 C   0  0  0  0  0  0  0  0  0  0  0  0
  143.9289  134.5340  152.7083 O   0  0  0  0  0  0  0  0  0  0  0  0
  145.2090  134.8533  150.6971 C   0  0  0  0  0  0  0  0  0  0  0  0
  145.5641  136.0386  149.8951 N   0  3  0  0  0  0  0  0  0  0  0  0
  146.4666  134.0867  151.1571 C   0  0  0  0  0  0  0  0  0  0  0  0
  145.9861  132.6575  151.4421 C   0  0  0  0  0  0  0  0  0  0  0  0
  144.7419  132.4520  150.5636 C   0  0  0  0  0  0  0  0  0  0  0  0
  144.5084  133.7846  149.8363 C   0  0  0  0  0  0  0  0  0  0  0  0
  143.2887  138.0641  154.8688 H   0  0  0  0  0  0  0  0  0  0  0  0
  144.7315  138.2098  153.8752 H   0  0  0  0  0  0  0  0  0  0  0  0
  144.2836  136.6457  154.5533 H   0  0  0  0  0  0  0  0  0  0  0  0
  142.6901  138.2174  152.4787 H   0  0  0  0  0  0  0  0  0  0  0  0
  141.8031  135.4981  152.5316 H   0  0  0  0  0  0  0  0  0  0  0  0
  141.9307  135.9789  154.2111 H   0  0  0  0  0  0  0  0  0  0  0  0
  139.2107  135.6892  154.0617 H   0  0  0  0  0  0  0  0  0  0  0  0
  137.3819  137.7119  153.4767 H   0  0  0  0  0  0  0  0  0  0  0  0
  141.2180  138.8695  152.1032 H   0  0  0  0  0  0  0  0  0  0  0  0
  144.2501  137.2195  151.1151 H   0  0  0  0  0  0  0  0  0  0  0  0
  146.3292  136.5295  150.3352 H   0  0  0  0  0  0  0  0  0  0  0  0
  144.7645  136.6517  149.8247 H   0  0  0  0  0  0  0  0  0  0  0  0
  147.1905  134.0553  150.3408 H   0  0  0  0  0  0  0  0  0  0  0  0
  146.9867  134.5307  152.0067 H   0  0  0  0  0  0  0  0  0  0  0  0
  146.7639  131.9232  151.2302 H   0  0  0  0  0  0  0  0  0  0  0  0
  145.7168  132.5531  152.4937 H   0  0  0  0  0  0  0  0  0  0  0  0
  144.8758  131.6341  149.8547 H   0  0  0  0  0  0  0  0  0  0  0  0
  143.8824  132.2042  151.1870 H   0  0  0  0  0  0  0  0  0  0  0  0
  143.4479  133.9742  149.6654 H   0  0  0  0  0  0  0  0  0  0  0  0
  144.9785  133.7380  148.8524 H   0  0  0  0  0  0  0  0  0  0  0  0
  145.8408  135.7433  148.9694 H   0  0  0  0  0  0  0  0  0  0  0  0
  138.7540  139.4995  152.3218 H   0  0  0  0  0  0  0  0  0  0  0  0
  1  2  1  0  0  0  0
  1 18  1  0  0  0  0
  1 19  1  0  0  0  0
  1 20  1  0  0  0  0
  2  3  1  0  0  0  0
  2  9  1  0  0  0  0
  2 21  1  0  0  0  0
  3  4  1  0  0  0  0
  3 22  1  0  0  0  0
  3 23  1  0  0  0  0
  4  8  1  0  0  0  0
  4  5  1  0  0  0  0
  5  6  2  0  0  0  0
  5 24  1  0  0  0  0
  6  7  1  0  0  0  0
  6 25  1  0  0  0  0
  7  8  2  0  0  0  0
  7 39  1  0  0  0  0
  8 26  1  0  0  0  0
  9 10  1  0  0  0  0
  9 27  1  0  0  0  0
 10 11  2  0  0  0  0
 10 12  1  0  0  0  0
 12 17  1  0  0  0  0
 12 13  1  0  0  0  0
 12 14  1  0  0  0  0
 13 28  1  0  0  0  0
 13 29  1  0  0  0  0
 13 38  1  0  0  0  0
 14 15  1  0  0  0  0
 14 30  1  0  0  0  0
 14 31  1  0  0  0  0
 15 16  1  0  0  0  0
 15 32  1  0  0  0  0
 15 33  1  0  0  0  0
 16 17  1  0  0  0  0
 16 34  1  0  0  0  0
 16 35  1  0  0  0  0
 17 36  1  0  0  0  0
 17 37  1  0  0  0  0
M  CHG  1   7   1
M  CHG  1  13   1
M  END
> <s_m_source_file>
AV-unprocessed.smi

> <i_m_source_file_index>
610

> <i_lp_mmshare_version>
43012

> <i_f3d_flags>
0

> <s_epik_input>
W2NIXTFuW2NIXVtjSF1uMVtDSDJdW0NAQEhdKFtDSDNdKVtOSF1DKD1PKUMyKFtOSDJdKVtDSDJdW0NIMl1bQ0gyXVtDSDJdMg==

> <s_epik_cmdline>
J2VwaWtfcHl0aG9uJywgJy1waCcsICc3LjAnLCAnLXRuJywgJzgnLCAnLW1hJywgJzIwMCcsICctbWV0YWxfYmluZGluZycsICctaW1hZScsICc8aW5maWxlLm1hZT4nLCAnLW9tYWUnLCAnPG91dGZpbGUubWFlPic=

> <r_lp_tautomer_probability>
1

> <r_epik_Ionization_Penalty>
0.349719

> <r_epik_Ionization_Penalty_Charging>
0.0753376

> <r_epik_Ionization_Penalty_Neutral>
0.274381

> <r_epik_State_Penalty>
0.326418

> <r_epik_Charging_Adjusted_Penalty>
0.401755

> <i_epik_Tot_Q>
2

> <i_epik_Tot_abs_Q>
2

> <r_epik_Metal_State_Penalty>
0.608513

> <b_epik_Metal_Only>
0

> <s_lp_Force_Field>
OPLS_2005

> <r_lp_Energy>
30.886

> <b_lp_Chiralities_Consistent>
1

> <s_lp_Variant>
AV-unprocessed.smi:610-1

> <Gold.Version>
5.8.1

> <Gold.Id.Protein>
6NUR|6NUR_protein|mol2

> <Gold.PLP.Fitness>
45.8192

> <Gold.PLP.PLP>
-34.0091

> <Gold.PLP.part.hbond>
-3.0000

> <Gold.PLP.part.metal>
0.0000

> <Gold.PLP.part.buried>
-5.7963

> <Gold.PLP.part.nonpolar>
-26.0377

> <Gold.PLP.part.repulsive>
0.2888

> <Gold.PLP.ligand.clash>
0.0000

> <Gold.PLP.ligand.torsion>
1.1768

> <Gold.PLP.Chemscore.Hbond>
2.7520

> <Gold.PLP.Chemscore.CHOScore>
1.9491

> <Gold.PLP.Chemscore.Metal>
0.0000

> <Gold.Chemscore.Hbonds>
donor molecule, donor type, donor heavy atom, donor atom, acceptor molecule, acceptor atom, score
      L1  H     9    27       P1 10171  0.96
      L1  H    13    29       P1 10171  0.80
      L1  H    13    38       P1  7921  1.00
      L1  C     8    26       P1 10160  0.68
      L1  C     8    26       P1 10175  0.18

> <Gold.PLP.Chemscore.Internal.Correction>
0.0603

> <Gold.Rescore>
     Score         DG    S(hbond)    S(metal)    S(lipo)     H(rot)  DE(clash)    DE(int)     intcor
     14.34     -17.55       2.88        0.00      66.07       2.06       0.28       2.94       ----

> <Gold.Chemscore.Fitness>
14.3390

> <Gold.Chemscore.DG>
-17.5495

> <Gold.Chemscore.ZeroCoef>
-5.4800

> <Gold.Chemscore.Hbond>
2.8816

> <Gold.Chemscore.Metal>
0.0000

> <Gold.Chemscore.Lipo>
66.0666

> <Gold.Chemscore.Internal_Hbond>
0.0000

> <Gold.Chemscore.DEClash>
0.2755

> <Gold.Chemscore.DEInternal>
2.9350

> <Gold.Chemscore.Rot>
2.0644

> <Gold.Chemscore.Internal.Correction>
   9.000000E+99

> <Gold.Chemscore.Hbonds>
donor molecule, donor type, donor heavy atom, donor atom, acceptor molecule, acceptor atom, score
      L1  H     7    39       P1 10160  0.01
      L1  H     9    27       P1 10171  0.92
      L1  H    13    29       P1 10171  0.76
      L1  H    13    38       P1  7921  0.99

> <Gold.Chemscore.Hbond.Weighted>
-9.6245

> <Gold.Chemscore.Metal.Weighted>
-0.0000

> <Gold.Chemscore.Lipo.Weighted>
-7.7298

> <Gold.Chemscore.Internal_Hbond.Weighted>
0.0000

> <Gold.Chemscore.DEClash.Weighted>
0.2755

> <Gold.Chemscore.DEInternal.Weighted>
2.9350

> <Gold.Chemscore.Rot.Weighted>
5.2848

> <Gold.Chemscore.Internal.Correction.Weighted>
   9.000000E+99

> <Gold.Protein.RotatedTorsions>
[ 6907 6896 6895 6894 ] final  -98.63 input  -60.11 | X-H torsion
[ 7974 7965 7964 7962 ] final  -80.59 input  175.53 | X-H torsion
[ 8008 7997 7996 7995 ] final -123.27 input   59.86 | X-H torsion
[ 10167 10162 10161 10158 ] final   66.04 input  -65.29 | X-H torsion
[ 10718 10713 10712 10709 ] final   16.76 input   66.30 | X-H torsion
[ 10763 10752 10751 10750 ] final  -27.78 input  -60.55 | X-H torsion
[ 11005 11000 10999 10996 ] final -175.53 input  -57.11 | X-H torsion

> <Gold.Protein.ActiveResidues>
 VAL166  LYS551  ARG553  GLY616  TRP617  ASP618  TYR619  PRO620  LYS621  CYS622 
 ASP623  PHE694  ASN695  SER759  ASP760  ASP761  ALA762  ILE779  LEU786  VAL792 
 PHE793  MET794  SER795  GLU796  ALA797  LYS798  CYS799  TRP800  GLU811  SER814 

> <Gold.Protein.RotatedAtoms>
  150.7053  134.1165  159.4018 H   0  0  0  0  0  0  0  0  0  0  0  0  # atno 6907 bound_to 6896
  151.9151  135.0320  160.0527 H   0  0  0  0  0  0  0  0  0  0  0  0  # atno 6908 bound_to 6896
  152.2303  133.5017  159.5249 H   0  0  0  0  0  0  0  0  0  0  0  0  # atno 6909 bound_to 6896
  145.5579  140.9486  143.1463 H   0  0  0  0  0  0  0  0  0  0  0  0  # atno 7974 bound_to 7965
  155.1777  140.0410  157.2876 H   0  0  0  0  0  0  0  0  0  0  0  0  # atno 8008 bound_to 7997
  154.6225  140.2504  155.7504 H   0  0  0  0  0  0  0  0  0  0  0  0  # atno 8009 bound_to 7997
  156.2441  140.2892  156.0539 H   0  0  0  0  0  0  0  0  0  0  0  0  # atno 8010 bound_to 7997
  140.1047  144.4872  150.7015 H   0  0  0  0  0  0  0  0  0  0  0  0  # atno 10167 bound_to 10162
  157.0724  130.6354  149.5808 H   0  0  0  0  0  0  0  0  0  0  0  0  # atno 10718 bound_to 10713
  153.7377  135.6934  153.4974 H   0  0  0  0  0  0  0  0  0  0  0  0  # atno 10763 bound_to 10752
  153.2091  135.4409  155.0357 H   0  0  0  0  0  0  0  0  0  0  0  0  # atno 10764 bound_to 10752
  154.8231  135.3432  154.6904 H   0  0  0  0  0  0  0  0  0  0  0  0  # atno 10765 bound_to 10752
  140.4622  134.6244  157.4847 H   0  0  0  0  0  0  0  0  0  0  0  0  # atno 11005 bound_to 11000
  144.7497  139.7226  143.7278 LP  0  0  0  0  0  0  0  0  0  0  0  0  # atno 17320 bound_to 7965
  146.1872  139.5093  142.9829 LP  0  0  0  0  0  0  0  0  0  0  0  0  # atno 17321 bound_to 7965
  140.6959  143.2403  151.5003 LP  0  0  0  0  0  0  0  0  0  0  0  0  # atno 17342 bound_to 10162
  139.5652  144.2060  152.1753 LP  0  0  0  0  0  0  0  0  0  0  0  0  # atno 17343 bound_to 10162
  155.9946  130.5011  150.7428 LP  0  0  0  0  0  0  0  0  0  0  0  0  # atno 17370 bound_to 10713
  157.4867  131.0907  151.0474 LP  0  0  0  0  0  0  0  0  0  0  0  0  # atno 17371 bound_to 10713
  139.9938  134.6943  155.9644 LP  0  0  0  0  0  0  0  0  0  0  0  0  # atno 17394 bound_to 11000
  141.1616  133.6538  156.4337 LP  0  0  0  0  0  0  0  0  0  0  0  0  # atno 17395 bound_to 11000

$$$$
