AV-unprocessed.smi:845|AV-procd|sdf|3932|dock4
  -GOLD-   22720 1393D 1   1.00000     0.00000
 Structure written by MMmdl.
 42 43  0  0  0  0  0  0  0  0  3 V2000
  150.3769  135.5787  156.9357 C   0  0  0  0  0  0  0  0  0  0  0  0
  149.3253  135.7551  155.8219 C   0  0  0  0  0  0  0  0  0  0  0  0
  149.6209  134.7460  154.6957 C   0  0  0  0  0  0  0  0  0  0  0  0
  149.2537  137.2261  155.3181 C   0  0  1  0  0  0  0  0  0  0  0  0
  150.6390  137.7654  154.8514 C   0  0  0  0  0  0  0  0  0  0  0  0
  151.3870  138.4621  155.8925 N   0  0  0  0  0  0  0  0  0  0  0  0
  151.6017  139.7837  155.9515 C   0  0  0  0  0  0  0  0  0  0  0  0
  151.1250  140.5239  155.0883 O   0  0  0  0  0  0  0  0  0  0  0  0
  152.3742  140.1583  156.9950 N   0  5  0  0  0  0  0  0  0  0  0  0
  152.1632  141.3402  157.5961 C   0  0  0  0  0  0  0  0  0  0  0  0
  151.3065  142.2548  157.1280 N   0  0  0  0  0  0  0  0  0  0  0  0
  151.2390  143.4055  157.9154 C   0  0  0  0  0  0  0  0  0  0  0  0
  152.0582  143.3624  159.0124 C   0  0  0  0  0  0  0  0  0  0  0  0
  152.9443  141.8662  159.0898 S   0  0  0  0  0  0  0  0  0  0  0  0
  148.1704  137.3550  154.2924 N   0  3  0  0  0  0  0  0  0  0  0  0
  146.9174  136.6151  154.5827 C   0  0  0  0  0  0  0  0  0  0  0  0
  146.0092  136.6215  153.3425 C   0  0  0  0  0  0  0  0  0  0  0  0
  145.7514  137.9631  152.9428 O   0  0  0  0  0  0  0  0  0  0  0  0
  146.9421  138.6581  152.5896 C   0  0  0  0  0  0  0  0  0  0  0  0
  147.8823  138.7263  153.8040 C   0  0  0  0  0  0  0  0  0  0  0  0
  151.3707  135.8659  156.5901 H   0  0  0  0  0  0  0  0  0  0  0  0
  150.4294  134.5407  157.2654 H   0  0  0  0  0  0  0  0  0  0  0  0
  150.1448  136.1760  157.8175 H   0  0  0  0  0  0  0  0  0  0  0  0
  148.3561  135.4861  156.2432 H   0  0  0  0  0  0  0  0  0  0  0  0
  150.5292  135.0108  154.1532 H   0  0  0  0  0  0  0  0  0  0  0  0
  148.8039  134.6843  153.9776 H   0  0  0  0  0  0  0  0  0  0  0  0
  149.7560  133.7403  155.0949 H   0  0  0  0  0  0  0  0  0  0  0  0
  148.9494  137.8212  156.1805 H   0  0  0  0  0  0  0  0  0  0  0  0
  151.2677  136.9540  154.4850 H   0  0  0  0  0  0  0  0  0  0  0  0
  150.5169  138.4475  154.0099 H   0  0  0  0  0  0  0  0  0  0  0  0
  151.7884  137.8955  156.6254 H   0  0  0  0  0  0  0  0  0  0  0  0
  150.5786  144.2071  157.6202 H   0  0  0  0  0  0  0  0  0  0  0  0
  152.1934  144.1140  159.7754 H   0  0  0  0  0  0  0  0  0  0  0  0
  147.1435  135.5864  154.8661 H   0  0  0  0  0  0  0  0  0  0  0  0
  146.3833  137.0698  155.4150 H   0  0  0  0  0  0  0  0  0  0  0  0
  146.4675  136.0674  152.5218 H   0  0  0  0  0  0  0  0  0  0  0  0
  145.0619  136.1314  153.5683 H   0  0  0  0  0  0  0  0  0  0  0  0
  147.4294  138.1638  151.7475 H   0  0  0  0  0  0  0  0  0  0  0  0
  146.6803  139.6639  152.2607 H   0  0  0  0  0  0  0  0  0  0  0  0
  147.4132  139.3192  154.5896 H   0  0  0  0  0  0  0  0  0  0  0  0
  148.8073  139.2310  153.5255 H   0  0  0  0  0  0  0  0  0  0  0  0
  148.5495  136.8698  153.4922 H   0  0  0  0  0  0  0  0  0  0  0  0
  1  2  1  0  0  0  0
  1 21  1  0  0  0  0
  1 22  1  0  0  0  0
  1 23  1  0  0  0  0
  2  3  1  0  0  0  0
  2  4  1  0  0  0  0
  2 24  1  0  0  0  0
  3 25  1  0  0  0  0
  3 26  1  0  0  0  0
  3 27  1  0  0  0  0
  4  5  1  0  0  0  0
  4 15  1  0  0  0  0
  4 28  1  0  0  0  0
  5  6  1  0  0  0  0
  5 29  1  0  0  0  0
  5 30  1  0  0  0  0
  6  7  1  0  0  0  0
  6 31  1  0  0  0  0
  7  8  2  0  0  0  0
  7  9  1  0  0  0  0
  9 10  1  0  0  0  0
 10 14  1  0  0  0  0
 10 11  2  0  0  0  0
 11 12  1  0  0  0  0
 12 13  2  0  0  0  0
 12 32  1  0  0  0  0
 13 14  1  0  0  0  0
 13 33  1  0  0  0  0
 15 20  1  0  0  0  0
 15 16  1  0  0  0  0
 15 42  1  0  0  0  0
 16 17  1  0  0  0  0
 16 34  1  0  0  0  0
 16 35  1  0  0  0  0
 17 18  1  0  0  0  0
 17 36  1  0  0  0  0
 17 37  1  0  0  0  0
 18 19  1  0  0  0  0
 19 20  1  0  0  0  0
 19 38  1  0  0  0  0
 19 39  1  0  0  0  0
 20 40  1  0  0  0  0
 20 41  1  0  0  0  0
M  CHG  1   9  -1
M  CHG  1  15   1
M  END
> <s_m_source_file>
AV-unprocessed.smi

> <i_m_source_file_index>
845

> <i_lp_mmshare_version>
43012

> <i_f3d_flags>
0

> <s_epik_input>
W0NIMl0xW0NIMl1PW0NIMl1bQ0gyXU4xW0NASF0oW0NIXShbQ0gzXSlbQ0gzXSlbQ0gyXVtOSF1DKD1PKVtOSF1jMm5bY0hdW2NIXXMy

> <s_epik_cmdline>
J2VwaWtfcHl0aG9uJywgJy1waCcsICc3LjAnLCAnLXRuJywgJzgnLCAnLW1hJywgJzIwMCcsICctbWV0YWxfYmluZGluZycsICctaW1hZScsICc8aW5maWxlLm1hZT4nLCAnLW9tYWUnLCAnPG91dGZpbGUubWFlPic=

> <r_lp_tautomer_probability>
0.999

> <r_epik_Ionization_Penalty>
7.97104

> <r_epik_Ionization_Penalty_Charging>
6.58021

> <r_epik_Ionization_Penalty_Neutral>
1.39083

> <r_epik_State_Penalty>
6.69807

> <r_epik_Charging_Adjusted_Penalty>
13.2783

> <i_epik_Tot_Q>
0

> <i_epik_Tot_abs_Q>
2

> <r_epik_Metal_State_Penalty>
2.62985

> <b_epik_Metal_Only>
1

> <s_lp_Force_Field>
OPLS_2005

> <r_lp_Energy>
19.9677

> <b_lp_Chiralities_Consistent>
1

> <s_lp_Variant>
AV-unprocessed.smi:845-6

> <Gold.Version>
5.8.1

> <Gold.Id.Protein>
6NUR|6NUR_protein|mol2

> <Gold.PLP.Fitness>
41.7743

> <Gold.PLP.PLP>
-25.3312

> <Gold.PLP.part.hbond>
-3.0000

> <Gold.PLP.part.metal>
0.0000

> <Gold.PLP.part.buried>
-1.2552

> <Gold.PLP.part.nonpolar>
-20.0471

> <Gold.PLP.part.repulsive>
0.4536

> <Gold.PLP.ligand.clash>
0.0000

> <Gold.PLP.ligand.torsion>
0.9519

> <Gold.PLP.Chemscore.Hbond>
4.9585

> <Gold.PLP.Chemscore.CHOScore>
0.9623

> <Gold.PLP.Chemscore.Metal>
0.0000

> <Gold.Chemscore.Hbonds>
donor molecule, donor type, donor heavy atom, donor atom, acceptor molecule, acceptor atom, score
      L1  H    15    42       P1  7948  2.00
      P1  H  7989  7998       L1     8  0.98
      P1  H  7997  8009       L1     9  2.00
      L1  C    12    32       P1  8028  0.80

> <Gold.PLP.Chemscore.Internal.Correction>
0.5848

> <Gold.Rescore>
     Score         DG    S(hbond)    S(metal)    S(lipo)     H(rot)  DE(clash)    DE(int)     intcor
     15.01     -17.50       2.55        0.00      68.58       1.76       0.04       2.44       ----

> <Gold.Chemscore.Fitness>
15.0097

> <Gold.Chemscore.DG>
-17.4967

> <Gold.Chemscore.ZeroCoef>
-5.4800

> <Gold.Chemscore.Hbond>
2.5463

> <Gold.Chemscore.Metal>
0.0000

> <Gold.Chemscore.Lipo>
68.5791

> <Gold.Chemscore.Internal_Hbond>
0.0000

> <Gold.Chemscore.DEClash>
0.0434

> <Gold.Chemscore.DEInternal>
2.4436

> <Gold.Chemscore.Rot>
1.7623

> <Gold.Chemscore.Internal.Correction>
   9.000000E+99

> <Gold.Chemscore.Hbonds>
donor molecule, donor type, donor heavy atom, donor atom, acceptor molecule, acceptor atom, score
      L1  H    15    42       P1  7948  1.00
      P1  H  7989  7998       L1     8  0.93
      P1  H  7997  8009       L1     9  0.40

> <Gold.Chemscore.Hbond.Weighted>
-8.5045

> <Gold.Chemscore.Metal.Weighted>
-0.0000

> <Gold.Chemscore.Lipo.Weighted>
-8.0238

> <Gold.Chemscore.Internal_Hbond.Weighted>
0.0000

> <Gold.Chemscore.DEClash.Weighted>
0.0434

> <Gold.Chemscore.DEInternal.Weighted>
2.4436

> <Gold.Chemscore.Rot.Weighted>
4.5116

> <Gold.Chemscore.Internal.Correction.Weighted>
   9.000000E+99

> <Gold.Protein.RotatedTorsions>
[ 6907 6896 6895 6894 ] final   43.14 input  -60.11 | X-H torsion
[ 7974 7965 7964 7962 ] final -154.73 input  175.53 | X-H torsion
[ 8008 7997 7996 7995 ] final -177.27 input   59.86 | X-H torsion
[ 10167 10162 10161 10158 ] final -113.52 input  -65.29 | X-H torsion
[ 10718 10713 10712 10709 ] final -166.73 input   66.30 | X-H torsion
[ 10763 10752 10751 10750 ] final   25.12 input  -60.55 | X-H torsion
[ 11005 11000 10999 10996 ] final  145.10 input  -57.11 | X-H torsion

> <Gold.Protein.ActiveResidues>
 VAL166  LYS551  ARG553  GLY616  TRP617  ASP618  TYR619  PRO620  LYS621  CYS622 
 ASP623  PHE694  ASN695  SER759  ASP760  ASP761  ALA762  ILE779  LEU786  VAL792 
 PHE793  MET794  SER795  GLU796  ALA797  LYS798  CYS799  TRP800  GLU811  SER814 

> <Gold.Protein.RotatedAtoms>
  152.2166  134.8452  160.0490 H   0  0  0  0  0  0  0  0  0  0  0  0  # atno 6907 bound_to 6896
  151.9251  133.3591  159.3919 H   0  0  0  0  0  0  0  0  0  0  0  0  # atno 6908 bound_to 6896
  150.6989  134.4520  159.5384 H   0  0  0  0  0  0  0  0  0  0  0  0  # atno 6909 bound_to 6896
  144.7675  140.4348  143.5931 H   0  0  0  0  0  0  0  0  0  0  0  0  # atno 7974 bound_to 7965
  156.0050  140.1228  157.0510 H   0  0  0  0  0  0  0  0  0  0  0  0  # atno 8008 bound_to 7997
  154.4255  140.1099  156.5818 H   0  0  0  0  0  0  0  0  0  0  0  0  # atno 8009 bound_to 7997
  155.6160  140.3472  155.4639 H   0  0  0  0  0  0  0  0  0  0  0  0  # atno 8010 bound_to 7997
  140.1110  143.4527  152.1752 H   0  0  0  0  0  0  0  0  0  0  0  0  # atno 10167 bound_to 10162
  156.6721  130.9088  151.3045 H   0  0  0  0  0  0  0  0  0  0  0  0  # atno 10718 bound_to 10713
  153.0715  135.6590  154.0238 H   0  0  0  0  0  0  0  0  0  0  0  0  # atno 10763 bound_to 10752
  153.9882  135.2948  155.3416 H   0  0  0  0  0  0  0  0  0  0  0  0  # atno 10764 bound_to 10752
  154.7090  135.5213  153.8708 H   0  0  0  0  0  0  0  0  0  0  0  0  # atno 10765 bound_to 10752
  140.0685  134.9165  157.1304 H   0  0  0  0  0  0  0  0  0  0  0  0  # atno 11005 bound_to 11000
  145.6426  139.1552  143.2907 LP  0  0  0  0  0  0  0  0  0  0  0  0  # atno 17320 bound_to 7965
  146.1794  140.6521  142.9196 LP  0  0  0  0  0  0  0  0  0  0  0  0  # atno 17321 bound_to 7965
  139.5619  144.7411  151.4130 LP  0  0  0  0  0  0  0  0  0  0  0  0  # atno 17342 bound_to 10162
  140.6926  143.7826  150.7277 LP  0  0  0  0  0  0  0  0  0  0  0  0  # atno 17343 bound_to 10162
  157.7073  130.9400  150.0974 LP  0  0  0  0  0  0  0  0  0  0  0  0  # atno 17370 bound_to 10713
  156.1931  130.3656  149.8884 LP  0  0  0  0  0  0  0  0  0  0  0  0  # atno 17371 bound_to 10713
  140.3663  134.2439  155.7182 LP  0  0  0  0  0  0  0  0  0  0  0  0  # atno 17394 bound_to 11000
  141.2002  133.7992  157.0499 LP  0  0  0  0  0  0  0  0  0  0  0  0  # atno 17395 bound_to 11000

$$$$
