AV-unprocessed.smi:1611|AV-procd|sdf|6474|dock1
  -GOLD-   22720 7133D 1   1.00000     0.00000
 Structure written by MMmdl.
 48 49  0  0  0  0  0  0  0  0  1 V2000
  152.1296  144.3095  158.3458 C   0  0  0  0  0  0  0  0  0  0  0  0
  152.5475  142.9443  158.8645 C   0  0  0  0  0  0  0  0  0  0  0  0
  153.5541  142.8669  159.8482 C   0  0  0  0  0  0  0  0  0  0  0  0
  153.9601  141.6201  160.3550 C   0  0  0  0  0  0  0  0  0  0  0  0
  153.3686  140.4350  159.8770 C   0  0  0  0  0  0  0  0  0  0  0  0
  153.8121  139.0966  160.4383 C   0  0  0  0  0  0  0  0  0  0  0  0
  152.3704  140.5007  158.8777 C   0  0  0  0  0  0  0  0  0  0  0  0
  151.8071  139.3396  158.4144 O   0  0  0  0  0  0  0  0  0  0  0  0
  150.4382  139.1931  158.7642 C   0  0  0  0  0  0  0  0  0  0  0  0
  149.9904  137.7607  158.4311 C   0  0  2  0  0  0  0  0  0  0  0  0
  150.3624  137.5077  157.0904 O   0  0  0  0  0  0  0  0  0  0  0  0
  148.4578  137.5981  158.5347 C   0  0  0  0  0  0  0  0  0  0  0  0
  148.0717  136.6992  159.6298 N   0  0  0  0  0  0  0  0  0  0  0  0
  147.6131  137.3534  160.7558 N   0  0  0  0  0  0  0  0  0  0  0  0
  147.2295  136.7015  161.8041 C   0  0  0  0  0  0  0  0  0  0  0  0
  146.7501  137.5205  162.9723 C   0  0  0  0  0  0  0  0  0  0  0  0
  147.2781  135.2429  161.8064 C   0  0  0  0  0  0  0  0  0  0  0  0
  146.8132  134.5291  163.0686 C   0  0  0  0  0  0  0  0  0  0  0  0
  147.7338  134.6119  160.6953 C   0  0  0  0  0  0  0  0  0  0  0  0
  147.8226  133.1901  160.6075 C   0  0  0  0  0  0  0  0  0  0  0  0
  147.8970  132.0359  160.5569 N   0  0  0  0  0  0  0  0  0  0  0  0
  148.1683  135.3446  159.5037 C   0  0  0  0  0  0  0  0  0  0  0  0
  148.5794  134.8024  158.4767 O   0  0  0  0  0  0  0  0  0  0  0  0
  151.9428  141.7574  158.3799 C   0  0  0  0  0  0  0  0  0  0  0  0
  150.8426  141.8317  157.3296 C   0  0  0  0  0  0  0  0  0  0  0  0
  152.7907  145.0940  158.7151 H   0  0  0  0  0  0  0  0  0  0  0  0
  151.1159  144.5444  158.6712 H   0  0  0  0  0  0  0  0  0  0  0  0
  152.1603  144.3355  157.2564 H   0  0  0  0  0  0  0  0  0  0  0  0
  154.0183  143.7671  160.2240 H   0  0  0  0  0  0  0  0  0  0  0  0
  154.7282  141.5780  161.1133 H   0  0  0  0  0  0  0  0  0  0  0  0
  152.9534  138.4500  160.6215 H   0  0  0  0  0  0  0  0  0  0  0  0
  154.3431  139.2210  161.3824 H   0  0  0  0  0  0  0  0  0  0  0  0
  154.4778  138.5945  159.7363 H   0  0  0  0  0  0  0  0  0  0  0  0
  150.3454  139.3702  159.8367 H   0  0  0  0  0  0  0  0  0  0  0  0
  149.8067  139.9314  158.2664 H   0  0  0  0  0  0  0  0  0  0  0  0
  150.4953  137.0597  159.0969 H   0  0  0  0  0  0  0  0  0  0  0  0
  149.9537  136.7018  156.8141 H   0  0  0  0  0  0  0  0  0  0  0  0
  147.9912  138.5697  158.7064 H   0  0  0  0  0  0  0  0  0  0  0  0
  148.0443  137.2568  157.5833 H   0  0  0  0  0  0  0  0  0  0  0  0
  147.3309  137.2962  163.8671 H   0  0  0  0  0  0  0  0  0  0  0  0
  145.7022  137.3102  163.1873 H   0  0  0  0  0  0  0  0  0  0  0  0
  146.8393  138.5913  162.7824 H   0  0  0  0  0  0  0  0  0  0  0  0
  146.8319  133.4448  162.9605 H   0  0  0  0  0  0  0  0  0  0  0  0
  145.7899  134.8130  163.3165 H   0  0  0  0  0  0  0  0  0  0  0  0
  147.4557  134.7867  163.9111 H   0  0  0  0  0  0  0  0  0  0  0  0
  150.2922  140.8954  157.2400 H   0  0  0  0  0  0  0  0  0  0  0  0
  151.2713  142.0660  156.3550 H   0  0  0  0  0  0  0  0  0  0  0  0
  150.1157  142.6038  157.5805 H   0  0  0  0  0  0  0  0  0  0  0  0
  1  2  1  0  0  0  0
  1 26  1  0  0  0  0
  1 27  1  0  0  0  0
  1 28  1  0  0  0  0
  2 24  1  0  0  0  0
  2  3  2  0  0  0  0
  3  4  1  0  0  0  0
  3 29  1  0  0  0  0
  4  5  2  0  0  0  0
  4 30  1  0  0  0  0
  5  6  1  0  0  0  0
  5  7  1  0  0  0  0
  6 31  1  0  0  0  0
  6 32  1  0  0  0  0
  6 33  1  0  0  0  0
  7  8  1  0  0  0  0
  7 24  2  0  0  0  0
  8  9  1  0  0  0  0
  9 10  1  0  0  0  0
  9 34  1  0  0  0  0
  9 35  1  0  0  0  0
 10 11  1  0  0  0  0
 10 12  1  0  0  0  0
 10 36  1  0  0  0  0
 11 37  1  0  0  0  0
 12 13  1  0  0  0  0
 12 38  1  0  0  0  0
 12 39  1  0  0  0  0
 13 22  1  0  0  0  0
 13 14  1  0  0  0  0
 14 15  2  0  0  0  0
 15 16  1  0  0  0  0
 15 17  1  0  0  0  0
 16 40  1  0  0  0  0
 16 41  1  0  0  0  0
 16 42  1  0  0  0  0
 17 18  1  0  0  0  0
 17 19  2  0  0  0  0
 18 43  1  0  0  0  0
 18 44  1  0  0  0  0
 18 45  1  0  0  0  0
 19 20  1  0  0  0  0
 19 22  1  0  0  0  0
 20 21  3  0  0  0  0
 22 23  2  0  0  0  0
 24 25  1  0  0  0  0
 25 46  1  0  0  0  0
 25 47  1  0  0  0  0
 25 48  1  0  0  0  0
M  END
> <s_m_source_file>
AV-unprocessed.smi

> <i_m_source_file_index>
1611

> <i_lp_mmshare_version>
43012

> <i_f3d_flags>
0

> <s_epik_input>
W0NIM11jMVtjSF1bY0hdYyhbQ0gzXSljKGMxW0NIM10pT1tDSDJdW0NASF0oW09IXSlbQ0gyXW4ybmMoW0NIM10pYyhbQ0gzXSljKEMjTiljMj1P

> <s_epik_cmdline>
J2VwaWtfcHl0aG9uJywgJy1waCcsICc3LjAnLCAnLXRuJywgJzgnLCAnLW1hJywgJzIwMCcsICctbWV0YWxfYmluZGluZycsICctaW1hZScsICc8aW5maWxlLm1hZT4nLCAnLW9tYWUnLCAnPG91dGZpbGUubWFlPic=

> <r_lp_tautomer_probability>
1

> <r_epik_Ionization_Penalty>
1.17331e-07

> <r_epik_Ionization_Penalty_Charging>
1.57223e-10

> <r_epik_Ionization_Penalty_Neutral>
1.17174e-07

> <r_epik_State_Penalty>
-0

> <r_epik_Charging_Adjusted_Penalty>
1.57223e-10

> <i_epik_Tot_Q>
0

> <i_epik_Tot_abs_Q>
0

> <r_epik_Metal_State_Penalty>
-0

> <b_epik_Metal_Only>
0

> <s_lp_Force_Field>
OPLS_2005

> <r_lp_Energy>
36.6232

> <b_lp_Chiralities_Consistent>
1

> <s_lp_Variant>
AV-unprocessed.smi:1611-1

> <Gold.Version>
5.8.1

> <Gold.Id.Protein>
6NUR|6NUR_protein|mol2

> <Gold.PLP.Fitness>
52.7092

> <Gold.PLP.PLP>
-48.4377

> <Gold.PLP.part.hbond>
-3.0000

> <Gold.PLP.part.metal>
0.0000

> <Gold.PLP.part.buried>
-3.0532

> <Gold.PLP.part.nonpolar>
-42.4384

> <Gold.PLP.part.repulsive>
0.0000

> <Gold.PLP.ligand.clash>
0.0000

> <Gold.PLP.ligand.torsion>
1.0839

> <Gold.PLP.Chemscore.Hbond>
2.1115

> <Gold.PLP.Chemscore.CHOScore>
0.0000

> <Gold.PLP.Chemscore.Metal>
0.0000

> <Gold.Chemscore.Hbonds>
donor molecule, donor type, donor heavy atom, donor atom, acceptor molecule, acceptor atom, score
      P1  H  6896  6909       L1    23  0.08
      P1  H  6931  6943       L1    14  0.33
      P1  H  6934  6947       L1    14  0.94

> <Gold.PLP.Chemscore.Internal.Correction>
0.1049

> <Gold.Rescore>
     Score         DG    S(hbond)    S(metal)    S(lipo)     H(rot)  DE(clash)    DE(int)     intcor
     18.21     -20.04       1.31        0.00     136.68       2.27       0.18       1.65       ----

> <Gold.Chemscore.Fitness>
18.2114

> <Gold.Chemscore.DG>
-20.0408

> <Gold.Chemscore.ZeroCoef>
-5.4800

> <Gold.Chemscore.Hbond>
1.3119

> <Gold.Chemscore.Metal>
0.0000

> <Gold.Chemscore.Lipo>
136.6805

> <Gold.Chemscore.Internal_Hbond>
0.0000

> <Gold.Chemscore.DEClash>
0.1820

> <Gold.Chemscore.DEInternal>
1.6474

> <Gold.Chemscore.Rot>
2.2706

> <Gold.Chemscore.Internal.Correction>
   9.000000E+99

> <Gold.Chemscore.Hbonds>
donor molecule, donor type, donor heavy atom, donor atom, acceptor molecule, acceptor atom, score
      P1  H  6896  6909       L1    23  0.02
      P1  H  6931  6943       L1    14  0.01
      P1  H  6934  6947       L1    14  0.68

> <Gold.Chemscore.Hbond.Weighted>
-4.3818

> <Gold.Chemscore.Metal.Weighted>
-0.0000

> <Gold.Chemscore.Lipo.Weighted>
-15.9916

> <Gold.Chemscore.Internal_Hbond.Weighted>
0.0000

> <Gold.Chemscore.DEClash.Weighted>
0.1820

> <Gold.Chemscore.DEInternal.Weighted>
1.6474

> <Gold.Chemscore.Rot.Weighted>
5.8127

> <Gold.Chemscore.Internal.Correction.Weighted>
   9.000000E+99

> <Gold.Protein.RotatedTorsions>
[ 6907 6896 6895 6894 ] final   14.72 input  -60.11 | X-H torsion
[ 7974 7965 7964 7962 ] final   27.28 input  175.53 | X-H torsion
[ 8008 7997 7996 7995 ] final   31.96 input   59.86 | X-H torsion
[ 10167 10162 10161 10158 ] final   66.22 input  -65.29 | X-H torsion
[ 10718 10713 10712 10709 ] final  103.95 input   66.30 | X-H torsion
[ 10763 10752 10751 10750 ] final -132.28 input  -60.55 | X-H torsion
[ 11005 11000 10999 10996 ] final  102.03 input  -57.11 | X-H torsion

> <Gold.Protein.ActiveResidues>
 VAL166  LYS551  ARG553  GLY616  TRP617  ASP618  TYR619  PRO620  LYS621  CYS622 
 ASP623  PHE694  ASN695  SER759  ASP760  ASP761  ALA762  ILE779  LEU786  VAL792 
 PHE793  MET794  SER795  GLU796  ALA797  LYS798  CYS799  TRP800  GLU811  SER814 

> <Gold.Protein.RotatedAtoms>
  151.8068  135.0693  160.0407 H   0  0  0  0  0  0  0  0  0  0  0  0  # atno 6907 bound_to 6896
  152.3049  133.5689  159.5651 H   0  0  0  0  0  0  0  0  0  0  0  0  # atno 6908 bound_to 6896
  150.7291  134.0153  159.3725 H   0  0  0  0  0  0  0  0  0  0  0  0  # atno 6909 bound_to 6896
  146.1792  139.7212  142.8912 H   0  0  0  0  0  0  0  0  0  0  0  0  # atno 7974 bound_to 7965
  155.1147  140.3242  155.4512 H   0  0  0  0  0  0  0  0  0  0  0  0  # atno 8008 bound_to 7997
  156.2680  140.2038  156.6219 H   0  0  0  0  0  0  0  0  0  0  0  0  # atno 8009 bound_to 7997
  154.6729  140.0534  157.0171 H   0  0  0  0  0  0  0  0  0  0  0  0  # atno 8010 bound_to 7997
  140.1027  144.4889  150.7027 H   0  0  0  0  0  0  0  0  0  0  0  0  # atno 10167 bound_to 10162
  157.6756  131.0792  150.5633 H   0  0  0  0  0  0  0  0  0  0  0  0  # atno 10718 bound_to 10713
  154.8744  135.3803  154.4384 H   0  0  0  0  0  0  0  0  0  0  0  0  # atno 10763 bound_to 10752
  153.5072  135.7030  153.5805 H   0  0  0  0  0  0  0  0  0  0  0  0  # atno 10764 bound_to 10752
  153.4111  135.3924  155.2017 H   0  0  0  0  0  0  0  0  0  0  0  0  # atno 10765 bound_to 10752
  139.8775  134.9207  156.4997 H   0  0  0  0  0  0  0  0  0  0  0  0  # atno 11005 bound_to 11000
  145.4124  141.0398  143.3010 LP  0  0  0  0  0  0  0  0  0  0  0  0  # atno 17320 bound_to 7965
  144.8287  139.5665  143.6953 LP  0  0  0  0  0  0  0  0  0  0  0  0  # atno 17321 bound_to 7965
  140.6969  143.2409  151.4976 LP  0  0  0  0  0  0  0  0  0  0  0  0  # atno 17342 bound_to 10162
  139.5662  144.2037  152.1768 LP  0  0  0  0  0  0  0  0  0  0  0  0  # atno 17343 bound_to 10162
  156.5935  130.4335  149.5926 LP  0  0  0  0  0  0  0  0  0  0  0  0  # atno 17370 bound_to 10713
  156.2564  130.6937  151.1691 LP  0  0  0  0  0  0  0  0  0  0  0  0  # atno 17371 bound_to 10713
  140.8599  133.8068  155.9254 LP  0  0  0  0  0  0  0  0  0  0  0  0  # atno 17394 bound_to 11000
  140.9060  134.2319  157.5014 LP  0  0  0  0  0  0  0  0  0  0  0  0  # atno 17395 bound_to 11000

$$$$
