AV-unprocessed.smi:317|AV-procd|sdf|2327|dock9
  -GOLD-   2262022233D 1   1.00000     0.00000
 Structure written by MMmdl.
 39 40  0  0  0  0  0  0  0  0  1 V2000
  150.9285  137.9312  155.6041 C   0  0  0  0  0  0  0  0  0  0  0  0
  150.8210  139.4414  155.3475 C   0  0  1  0  0  0  0  0  0  0  0  0
  149.4616  139.8094  154.7152 C   0  0  0  0  0  0  0  0  0  0  0  0
  149.1332  138.9045  153.6829 O   0  0  0  0  0  0  0  0  0  0  0  0
  150.9894  140.1327  156.6229 N   0  0  0  0  0  0  0  0  0  0  0  0
  151.9866  139.9225  157.4935 C   0  0  0  0  0  0  0  0  0  0  0  0
  152.8865  139.1012  157.3181 O   0  0  0  0  0  0  0  0  0  0  0  0
  151.8787  140.7360  158.5569 N   0  0  0  0  0  0  0  0  0  0  0  0
  152.7589  140.8425  159.6700 C   0  0  0  0  0  0  0  0  0  0  0  0
  153.5193  139.7346  160.1174 C   0  0  0  0  0  0  0  0  0  0  0  0
  154.3191  139.8651  161.2656 C   0  0  0  0  0  0  0  0  0  0  0  0
  154.3189  141.0981  161.9384 C   0  0  0  0  0  0  0  0  0  0  0  0
  153.5914  142.1582  161.5330 N   0  0  0  0  0  0  0  0  0  0  0  0
  152.8261  142.0527  160.4185 C   0  0  0  0  0  0  0  0  0  0  0  0
  152.0996  143.2024  160.0312 N   0  0  0  0  0  0  0  0  0  0  0  0
  151.9495  144.3263  160.9496 C   0  0  0  0  0  0  0  0  0  0  0  0
  151.4735  145.4860  160.0797 C   0  0  0  0  0  0  0  0  0  0  0  0
  152.2195  145.2399  158.7719 C   0  0  0  0  0  0  0  0  0  0  0  0
  152.2951  143.7123  158.6768 C   0  0  0  0  0  0  0  0  0  0  0  0
  150.8419  137.3678  154.6746 H   0  0  0  0  0  0  0  0  0  0  0  0
  150.1441  137.5843  156.2779 H   0  0  0  0  0  0  0  0  0  0  0  0
  151.8900  137.6762  156.0511 H   0  0  0  0  0  0  0  0  0  0  0  0
  151.6331  139.7057  154.6665 H   0  0  0  0  0  0  0  0  0  0  0  0
  148.6649  139.7417  155.4567 H   0  0  0  0  0  0  0  0  0  0  0  0
  149.4518  140.8325  154.3374 H   0  0  0  0  0  0  0  0  0  0  0  0
  148.9151  139.3981  152.9073 H   0  0  0  0  0  0  0  0  0  0  0  0
  150.2976  140.8301  156.8546 H   0  0  0  0  0  0  0  0  0  0  0  0
  151.1460  141.4293  158.5163 H   0  0  0  0  0  0  0  0  0  0  0  0
  153.4830  138.7811  159.6127 H   0  0  0  0  0  0  0  0  0  0  0  0
  154.9071  139.0353  161.6287 H   0  0  0  0  0  0  0  0  0  0  0  0
  154.9132  141.2362  162.8293 H   0  0  0  0  0  0  0  0  0  0  0  0
  151.2396  144.0979  161.7450 H   0  0  0  0  0  0  0  0  0  0  0  0
  152.9058  144.5848  161.4063 H   0  0  0  0  0  0  0  0  0  0  0  0
  150.3975  145.4135  159.9150 H   0  0  0  0  0  0  0  0  0  0  0  0
  151.6866  146.4615  160.5176 H   0  0  0  0  0  0  0  0  0  0  0  0
  151.7299  145.6936  157.9098 H   0  0  0  0  0  0  0  0  0  0  0  0
  153.2266  145.6533  158.8427 H   0  0  0  0  0  0  0  0  0  0  0  0
  153.2446  143.3875  158.2481 H   0  0  0  0  0  0  0  0  0  0  0  0
  151.4918  143.3404  158.0403 H   0  0  0  0  0  0  0  0  0  0  0  0
  1  2  1  0  0  0  0
  1 20  1  0  0  0  0
  1 21  1  0  0  0  0
  1 22  1  0  0  0  0
  2  3  1  0  0  0  0
  2  5  1  0  0  0  0
  2 23  1  0  0  0  0
  3  4  1  0  0  0  0
  3 24  1  0  0  0  0
  3 25  1  0  0  0  0
  4 26  1  0  0  0  0
  5  6  1  0  0  0  0
  5 27  1  0  0  0  0
  6  7  2  0  0  0  0
  6  8  1  0  0  0  0
  8  9  1  0  0  0  0
  8 28  1  0  0  0  0
  9 14  1  0  0  0  0
  9 10  2  0  0  0  0
 10 11  1  0  0  0  0
 10 29  1  0  0  0  0
 11 12  2  0  0  0  0
 11 30  1  0  0  0  0
 12 13  1  0  0  0  0
 12 31  1  0  0  0  0
 13 14  2  0  0  0  0
 14 15  1  0  0  0  0
 15 19  1  0  0  0  0
 15 16  1  0  0  0  0
 16 17  1  0  0  0  0
 16 32  1  0  0  0  0
 16 33  1  0  0  0  0
 17 18  1  0  0  0  0
 17 34  1  0  0  0  0
 17 35  1  0  0  0  0
 18 19  1  0  0  0  0
 18 36  1  0  0  0  0
 18 37  1  0  0  0  0
 19 38  1  0  0  0  0
 19 39  1  0  0  0  0
M  END
> <s_m_source_file>
AV-unprocessed.smi

> <i_m_source_file_index>
317

> <i_lp_mmshare_version>
43012

> <i_f3d_flags>
0

> <s_epik_input>
W09IXVtDSDJdW0NAQEhdKFtDSDNdKVtOSF1DKD1PKVtOSF1jMVtjSF1bY0hdW2NIXW5jMU4yW0NIMl1bQ0gyXVtDSDJdW0NIMl0y

> <s_epik_cmdline>
J2VwaWtfcHl0aG9uJywgJy1waCcsICc3LjAnLCAnLXRuJywgJzgnLCAnLW1hJywgJzIwMCcsICctbWV0YWxfYmluZGluZycsICctaW1hZScsICc8aW5maWxlLm1hZT4nLCAnLW9tYWUnLCAnPG91dGZpbGUubWFlPic=

> <r_lp_tautomer_probability>
1

> <r_epik_Ionization_Penalty>
0.098371

> <r_epik_Ionization_Penalty_Charging>
0

> <r_epik_Ionization_Penalty_Neutral>
0.098371

> <r_epik_State_Penalty>
0.0879016

> <r_epik_Charging_Adjusted_Penalty>
0.0879016

> <i_epik_Tot_Q>
0

> <i_epik_Tot_abs_Q>
0

> <r_epik_Metal_State_Penalty>
0.0753294

> <b_epik_Metal_Only>
0

> <s_lp_Force_Field>
OPLS_2005

> <r_lp_Energy>
32.3253

> <b_lp_Chiralities_Consistent>
1

> <s_lp_Variant>
AV-unprocessed.smi:317-2

> <Gold.Version>
5.8.1

> <Gold.Id.Protein>
6NUR|6NUR_protein|mol2

> <Gold.PLP.Fitness>
49.4285

> <Gold.PLP.PLP>
-44.1496

> <Gold.PLP.part.hbond>
-2.6419

> <Gold.PLP.part.metal>
0.0000

> <Gold.PLP.part.buried>
-5.5176

> <Gold.PLP.part.nonpolar>
-35.8103

> <Gold.PLP.part.repulsive>
0.2335

> <Gold.PLP.ligand.clash>
0.0000

> <Gold.PLP.ligand.torsion>
0.5228

> <Gold.PLP.Chemscore.Hbond>
2.0000

> <Gold.PLP.Chemscore.CHOScore>
0.0000

> <Gold.PLP.Chemscore.Metal>
0.0000

> <Gold.Chemscore.Hbonds>
donor molecule, donor type, donor heavy atom, donor atom, acceptor molecule, acceptor atom, score
      L1  H     4    26       P1  7957  0.88
      P1  H  7997  8010       L1     7  1.00

> <Gold.PLP.Chemscore.Internal.Correction>
0.3244

> <Gold.Rescore>
     Score         DG    S(hbond)    S(metal)    S(lipo)     H(rot)  DE(clash)    DE(int)     intcor
     16.07     -18.30       1.90        0.00     100.76       2.08       0.49       1.74       ----

> <Gold.Chemscore.Fitness>
16.0657

> <Gold.Chemscore.DG>
-18.2990

> <Gold.Chemscore.ZeroCoef>
-5.4800

> <Gold.Chemscore.Hbond>
1.9004

> <Gold.Chemscore.Metal>
0.0000

> <Gold.Chemscore.Lipo>
100.7647

> <Gold.Chemscore.Internal_Hbond>
0.0000

> <Gold.Chemscore.DEClash>
0.4929

> <Gold.Chemscore.DEInternal>
1.7404

> <Gold.Chemscore.Rot>
2.0773

> <Gold.Chemscore.Internal.Correction>
   9.000000E+99

> <Gold.Chemscore.Hbonds>
donor molecule, donor type, donor heavy atom, donor atom, acceptor molecule, acceptor atom, score
      L1  H     4    26       P1  7957  0.84
      P1  H  7997  8010       L1     7  0.70

> <Gold.Chemscore.Hbond.Weighted>
-6.3473

> <Gold.Chemscore.Metal.Weighted>
-0.0000

> <Gold.Chemscore.Lipo.Weighted>
-11.7895

> <Gold.Chemscore.Internal_Hbond.Weighted>
0.0000

> <Gold.Chemscore.DEClash.Weighted>
0.4929

> <Gold.Chemscore.DEInternal.Weighted>
1.7404

> <Gold.Chemscore.Rot.Weighted>
5.3178

> <Gold.Chemscore.Internal.Correction.Weighted>
   9.000000E+99

> <Gold.Protein.RotatedTorsions>
[ 6907 6896 6895 6894 ] final -102.28 input  -60.11 | X-H torsion
[ 7974 7965 7964 7962 ] final  -33.11 input  175.53 | X-H torsion
[ 8008 7997 7996 7995 ] final   41.33 input   59.86 | X-H torsion
[ 10167 10162 10161 10158 ] final   85.03 input  -65.29 | X-H torsion
[ 10718 10713 10712 10709 ] final   98.80 input   66.30 | X-H torsion
[ 10763 10752 10751 10750 ] final -128.30 input  -60.55 | X-H torsion
[ 11005 11000 10999 10996 ] final   70.79 input  -57.11 | X-H torsion

> <Gold.Protein.ActiveResidues>
 VAL166  LYS551  ARG553  GLY616  TRP617  ASP618  TYR619  PRO620  LYS621  CYS622 
 ASP623  PHE694  ASN695  SER759  ASP760  ASP761  ALA762  ILE779  LEU786  VAL792 
 PHE793  MET794  SER795  GLU796  ALA797  LYS798  CYS799  TRP800  GLU811  SER814 

> <Gold.Protein.RotatedAtoms>
  150.7189  134.0606  159.3829 H   0  0  0  0  0  0  0  0  0  0  0  0  # atno 6907 bound_to 6896
  151.8585  135.0530  160.0476 H   0  0  0  0  0  0  0  0  0  0  0  0  # atno 6908 bound_to 6896
  152.2735  133.5369  159.5490 H   0  0  0  0  0  0  0  0  0  0  0  0  # atno 6909 bound_to 6896
  146.0937  140.5876  142.8853 H   0  0  0  0  0  0  0  0  0  0  0  0  # atno 7974 bound_to 7965
  155.2679  140.3364  155.4267 H   0  0  0  0  0  0  0  0  0  0  0  0  # atno 8008 bound_to 7997
  156.2146  140.1783  156.7661 H   0  0  0  0  0  0  0  0  0  0  0  0  # atno 8009 bound_to 7997
  154.5734  140.0666  156.8983 H   0  0  0  0  0  0  0  0  0  0  0  0  # atno 8010 bound_to 7997
  139.9020  144.6324  150.8627 H   0  0  0  0  0  0  0  0  0  0  0  0  # atno 10167 bound_to 10162
  157.6888  131.0651  150.4852 H   0  0  0  0  0  0  0  0  0  0  0  0  # atno 10718 bound_to 10713
  154.8756  135.3933  154.3734 H   0  0  0  0  0  0  0  0  0  0  0  0  # atno 10763 bound_to 10752
  153.4490  135.7028  153.6126 H   0  0  0  0  0  0  0  0  0  0  0  0  # atno 10764 bound_to 10752
  153.4674  135.3798  155.2341 H   0  0  0  0  0  0  0  0  0  0  0  0  # atno 10765 bound_to 10752
  139.9578  134.7113  156.0713 H   0  0  0  0  0  0  0  0  0  0  0  0  # atno 11005 bound_to 11000
  144.7379  140.4860  143.6890 LP  0  0  0  0  0  0  0  0  0  0  0  0  # atno 17320 bound_to 7965
  145.5990  139.1502  143.3139 LP  0  0  0  0  0  0  0  0  0  0  0  0  # atno 17321 bound_to 7965
  140.7705  143.3430  151.2169 LP  0  0  0  0  0  0  0  0  0  0  0  0  # atno 17342 bound_to 10162
  139.7017  143.9522  152.2908 LP  0  0  0  0  0  0  0  0  0  0  0  0  # atno 17343 bound_to 10162
  156.5182  130.4155  149.6265 LP  0  0  0  0  0  0  0  0  0  0  0  0  # atno 17370 bound_to 10713
  156.3179  130.7264  151.2170 LP  0  0  0  0  0  0  0  0  0  0  0  0  # atno 17371 bound_to 10713
  141.1252  133.6601  156.3318 LP  0  0  0  0  0  0  0  0  0  0  0  0  # atno 17394 bound_to 11000
  140.5569  134.5973  157.5423 LP  0  0  0  0  0  0  0  0  0  0  0  0  # atno 17395 bound_to 11000

$$$$
