AV-unprocessed.smi:1537|AV-procd|sdf|6191|dock5
  -GOLD-   22720 6353D 1   1.00000     0.00000
 Structure written by MMmdl.
 43 43  0  0  0  0  0  0  0  0  1 V2000
  152.3157  143.5422  158.2712 C   0  0  0  0  0  0  0  0  0  0  0  0
  151.0574  143.0112  157.5769 C   0  0  0  0  0  0  0  0  0  0  0  0
  151.2387  141.6292  157.0450 C   0  0  0  0  0  0  0  0  0  0  0  0
  150.7031  141.2062  155.8972 N   0  0  0  0  0  0  0  0  0  0  0  0
  150.9794  139.8596  155.6360 C   0  0  0  0  0  0  0  0  0  0  0  0
  150.4563  139.2141  154.3860 C   0  0  0  0  0  0  0  0  0  0  0  0
  148.9696  139.5269  154.2115 C   0  0  0  0  0  0  0  0  0  0  0  0
  148.4253  140.3605  154.9359 O   0  0  0  0  0  0  0  0  0  0  0  0
  148.3237  138.8481  153.2493 N   0  0  0  0  0  0  0  0  0  0  0  0
  146.9051  138.9830  152.9245 C   0  0  1  0  0  0  0  0  0  0  0  0
  146.7695  139.0043  151.3929 C   0  0  0  0  0  0  0  0  0  0  0  0
  146.1080  137.7814  153.4577 C   0  0  0  0  0  0  0  0  0  0  0  0
  146.6807  136.8693  154.0557 O   0  0  0  0  0  0  0  0  0  0  0  0
  144.7859  137.8016  153.2123 N   0  0  0  0  0  0  0  0  0  0  0  0
  143.7711  136.8116  153.5921 C   0  0  0  0  0  0  0  0  0  0  0  0
  142.4177  137.3435  153.0893 C   0  0  0  0  0  0  0  0  0  0  0  0
  143.7103  136.6571  155.1265 C   0  0  0  0  0  0  0  0  0  0  0  0
  144.0550  135.4525  152.9187 C   0  0  0  0  0  0  0  0  0  0  0  0
  151.7381  139.2653  156.6141 C   0  0  0  0  0  0  0  0  0  0  0  0
  152.1198  140.3716  157.9044 S   0  0  0  0  0  0  0  0  0  0  0  0
  152.1557  144.5531  158.6463 H   0  0  0  0  0  0  0  0  0  0  0  0
  153.1611  143.5715  157.5832 H   0  0  0  0  0  0  0  0  0  0  0  0
  152.5934  142.9124  159.1171 H   0  0  0  0  0  0  0  0  0  0  0  0
  150.2178  143.0143  158.2731 H   0  0  0  0  0  0  0  0  0  0  0  0
  150.7820  143.6692  156.7523 H   0  0  0  0  0  0  0  0  0  0  0  0
  151.0036  139.5606  153.5082 H   0  0  0  0  0  0  0  0  0  0  0  0
  150.5943  138.1328  154.4268 H   0  0  0  0  0  0  0  0  0  0  0  0
  148.8523  138.1804  152.7066 H   0  0  0  0  0  0  0  0  0  0  0  0
  146.5139  139.9138  153.3406 H   0  0  0  0  0  0  0  0  0  0  0  0
  145.7273  139.1085  151.0884 H   0  0  0  0  0  0  0  0  0  0  0  0
  147.1602  138.0931  150.9368 H   0  0  0  0  0  0  0  0  0  0  0  0
  147.3168  139.8457  150.9665 H   0  0  0  0  0  0  0  0  0  0  0  0
  144.4379  138.6040  152.7081 H   0  0  0  0  0  0  0  0  0  0  0  0
  141.6054  136.6591  153.3367 H   0  0  0  0  0  0  0  0  0  0  0  0
  142.4185  137.4726  152.0062 H   0  0  0  0  0  0  0  0  0  0  0  0
  142.1784  138.3097  153.5352 H   0  0  0  0  0  0  0  0  0  0  0  0
  143.5439  137.6176  155.6157 H   0  0  0  0  0  0  0  0  0  0  0  0
  144.6288  136.2348  155.5338 H   0  0  0  0  0  0  0  0  0  0  0  0
  142.8964  135.9941  155.4218 H   0  0  0  0  0  0  0  0  0  0  0  0
  143.2531  134.7412  153.1190 H   0  0  0  0  0  0  0  0  0  0  0  0
  144.9786  134.9998  153.2788 H   0  0  0  0  0  0  0  0  0  0  0  0
  144.1385  135.5556  151.8363 H   0  0  0  0  0  0  0  0  0  0  0  0
  152.0870  138.2440  156.6569 H   0  0  0  0  0  0  0  0  0  0  0  0
  1  2  1  0  0  0  0
  1 21  1  0  0  0  0
  1 22  1  0  0  0  0
  1 23  1  0  0  0  0
  2  3  1  0  0  0  0
  2 24  1  0  0  0  0
  2 25  1  0  0  0  0
  3 20  1  0  0  0  0
  3  4  2  0  0  0  0
  4  5  1  0  0  0  0
  5  6  1  0  0  0  0
  5 19  2  0  0  0  0
  6  7  1  0  0  0  0
  6 26  1  0  0  0  0
  6 27  1  0  0  0  0
  7  8  2  0  0  0  0
  7  9  1  0  0  0  0
  9 10  1  0  0  0  0
  9 28  1  0  0  0  0
 10 11  1  0  0  0  0
 10 12  1  0  0  0  0
 10 29  1  0  0  0  0
 11 30  1  0  0  0  0
 11 31  1  0  0  0  0
 11 32  1  0  0  0  0
 12 13  2  0  0  0  0
 12 14  1  0  0  0  0
 14 15  1  0  0  0  0
 14 33  1  0  0  0  0
 15 16  1  0  0  0  0
 15 17  1  0  0  0  0
 15 18  1  0  0  0  0
 16 34  1  0  0  0  0
 16 35  1  0  0  0  0
 16 36  1  0  0  0  0
 17 37  1  0  0  0  0
 17 38  1  0  0  0  0
 17 39  1  0  0  0  0
 18 40  1  0  0  0  0
 18 41  1  0  0  0  0
 18 42  1  0  0  0  0
 19 20  1  0  0  0  0
 19 43  1  0  0  0  0
M  END
> <s_m_source_file>
AV-unprocessed.smi

> <i_m_source_file_index>
1537

> <i_lp_mmshare_version>
43012

> <i_f3d_flags>
0

> <s_epik_input>
W0NIM11bQ0gyXWMxbmMoW2NIXXMxKVtDSDJdQyg9TylbTkhdW0NASF0oW0NIM10pQyg9TylbTkhdQyhbQ0gzXSkoW0NIM10pW0NIM10=

> <s_epik_cmdline>
J2VwaWtfcHl0aG9uJywgJy1waCcsICc3LjAnLCAnLXRuJywgJzgnLCAnLW1hJywgJzIwMCcsICctbWV0YWxfYmluZGluZycsICctaW1hZScsICc8aW5maWxlLm1hZT4nLCAnLW9tYWUnLCAnPG91dGZpbGUubWFlPic=

> <r_lp_tautomer_probability>
1

> <r_epik_Ionization_Penalty>
4.05444e-05

> <r_epik_Ionization_Penalty_Charging>
0

> <r_epik_Ionization_Penalty_Neutral>
4.05444e-05

> <r_epik_State_Penalty>
-0

> <r_epik_Charging_Adjusted_Penalty>
0

> <i_epik_Tot_Q>
0

> <i_epik_Tot_abs_Q>
0

> <r_epik_Metal_State_Penalty>
-0

> <b_epik_Metal_Only>
0

> <s_lp_Force_Field>
OPLS_2005

> <r_lp_Energy>
-2.34744

> <b_lp_Chiralities_Consistent>
1

> <s_lp_Variant>
AV-unprocessed.smi:1537-2

> <Gold.Version>
5.8.1

> <Gold.Id.Protein>
6NUR|6NUR_protein|mol2

> <Gold.PLP.Fitness>
38.6286

> <Gold.PLP.PLP>
-34.5850

> <Gold.PLP.part.hbond>
-3.0000

> <Gold.PLP.part.metal>
0.0000

> <Gold.PLP.part.buried>
-2.0290

> <Gold.PLP.part.nonpolar>
-30.3616

> <Gold.PLP.part.repulsive>
0.2865

> <Gold.PLP.ligand.clash>
0.0000

> <Gold.PLP.ligand.torsion>
0.7504

> <Gold.PLP.Chemscore.Hbond>
1.8221

> <Gold.PLP.Chemscore.CHOScore>
0.0000

> <Gold.PLP.Chemscore.Metal>
0.0000

> <Gold.Chemscore.Hbonds>
donor molecule, donor type, donor heavy atom, donor atom, acceptor molecule, acceptor atom, score
      L1  H     9    28       P1  7948  0.82
      L1  H    14    33       P1 10175  1.00

> <Gold.PLP.Chemscore.Internal.Correction>
0.0779

> <Gold.Rescore>
     Score         DG    S(hbond)    S(metal)    S(lipo)     H(rot)  DE(clash)    DE(int)     intcor
     14.15     -16.79       1.87        0.00      84.22       1.88       0.42       2.22       ----

> <Gold.Chemscore.Fitness>
14.1525

> <Gold.Chemscore.DG>
-16.7874

> <Gold.Chemscore.ZeroCoef>
-5.4800

> <Gold.Chemscore.Hbond>
1.8736

> <Gold.Chemscore.Metal>
0.0000

> <Gold.Chemscore.Lipo>
84.2208

> <Gold.Chemscore.Internal_Hbond>
0.0000

> <Gold.Chemscore.DEClash>
0.4164

> <Gold.Chemscore.DEInternal>
2.2185

> <Gold.Chemscore.Rot>
1.8766

> <Gold.Chemscore.Internal.Correction>
   9.000000E+99

> <Gold.Chemscore.Hbonds>
donor molecule, donor type, donor heavy atom, donor atom, acceptor molecule, acceptor atom, score
      L1  H     9    28       P1  7948  0.77
      L1  H    14    33       P1 10175  0.94

> <Gold.Chemscore.Hbond.Weighted>
-6.2577

> <Gold.Chemscore.Metal.Weighted>
-0.0000

> <Gold.Chemscore.Lipo.Weighted>
-9.8538

> <Gold.Chemscore.Internal_Hbond.Weighted>
0.0000

> <Gold.Chemscore.DEClash.Weighted>
0.4164

> <Gold.Chemscore.DEInternal.Weighted>
2.2185

> <Gold.Chemscore.Rot.Weighted>
4.8042

> <Gold.Chemscore.Internal.Correction.Weighted>
   9.000000E+99

> <Gold.Protein.RotatedTorsions>
[ 6907 6896 6895 6894 ] final  109.91 input  -60.11 | X-H torsion
[ 7974 7965 7964 7962 ] final -136.80 input  175.53 | X-H torsion
[ 8008 7997 7996 7995 ] final -168.05 input   59.86 | X-H torsion
[ 10167 10162 10161 10158 ] final  -48.18 input  -65.29 | X-H torsion
[ 10718 10713 10712 10709 ] final  -81.49 input   66.30 | X-H torsion
[ 10763 10752 10751 10750 ] final  169.66 input  -60.55 | X-H torsion
[ 11005 11000 10999 10996 ] final   97.38 input  -57.11 | X-H torsion

> <Gold.Protein.ActiveResidues>
 VAL166  LYS551  ARG553  GLY616  TRP617  ASP618  TYR619  PRO620  LYS621  CYS622 
 ASP623  PHE694  ASN695  SER759  ASP760  ASP761  ALA762  ILE779  LEU786  VAL792 
 PHE793  MET794  SER795  GLU796  ALA797  LYS798  CYS799  TRP800  GLU811  SER814 

> <Gold.Protein.RotatedAtoms>
  152.5045  133.8876  159.7377 H   0  0  0  0  0  0  0  0  0  0  0  0  # atno 6907 bound_to 6896
  150.9322  133.6744  159.2815 H   0  0  0  0  0  0  0  0  0  0  0  0  # atno 6908 bound_to 6896
  151.4085  135.0986  159.9630 H   0  0  0  0  0  0  0  0  0  0  0  0  # atno 6909 bound_to 6896
  144.8896  140.6623  143.5154 H   0  0  0  0  0  0  0  0  0  0  0  0  # atno 7974 bound_to 7965
  155.8861  140.1017  157.1451 H   0  0  0  0  0  0  0  0  0  0  0  0  # atno 8008 bound_to 7997
  154.4010  140.1320  156.4320 H   0  0  0  0  0  0  0  0  0  0  0  0  # atno 8009 bound_to 7997
  155.7588  140.3463  155.5189 H   0  0  0  0  0  0  0  0  0  0  0  0  # atno 8010 bound_to 7997
  140.6742  143.2751  151.4033 H   0  0  0  0  0  0  0  0  0  0  0  0  # atno 10167 bound_to 10162
  156.0049  130.4605  150.3960 H   0  0  0  0  0  0  0  0  0  0  0  0  # atno 10718 bound_to 10713
  154.3863  135.2753  155.2181 H   0  0  0  0  0  0  0  0  0  0  0  0  # atno 10763 bound_to 10752
  154.4266  135.5987  153.6046 H   0  0  0  0  0  0  0  0  0  0  0  0  # atno 10764 bound_to 10752
  152.9833  135.5985  154.4113 H   0  0  0  0  0  0  0  0  0  0  0  0  # atno 10765 bound_to 10752
  139.8776  134.8998  156.4299 H   0  0  0  0  0  0  0  0  0  0  0  0  # atno 11005 bound_to 11000
  145.3807  139.1637  143.4282 LP  0  0  0  0  0  0  0  0  0  0  0  0  # atno 17320 bound_to 7965
  146.3045  140.3887  142.8692 LP  0  0  0  0  0  0  0  0  0  0  0  0  # atno 17321 bound_to 7965
  139.6026  144.1263  152.2215 LP  0  0  0  0  0  0  0  0  0  0  0  0  # atno 17342 bound_to 10162
  140.0652  144.5824  150.7233 LP  0  0  0  0  0  0  0  0  0  0  0  0  # atno 17343 bound_to 10162
  157.2032  131.0443  151.2639 LP  0  0  0  0  0  0  0  0  0  0  0  0  # atno 17370 bound_to 10713
  157.3957  130.7306  149.6729 LP  0  0  0  0  0  0  0  0  0  0  0  0  # atno 17371 bound_to 10713
  140.9074  133.7736  155.9751 LP  0  0  0  0  0  0  0  0  0  0  0  0  # atno 17394 bound_to 11000
  140.8584  134.2870  157.5245 LP  0  0  0  0  0  0  0  0  0  0  0  0  # atno 17395 bound_to 11000

$$$$
