AV-unprocessed.smi:47|AV-procd|sdf|430|dock7
  -GOLD-   2262016303D 1   1.00000     0.00000
 Structure written by MMmdl.
 31 33  0  0  0  0  0  0  0  0  3 V2000
  145.1906  139.9977  154.8750 O   0  0  0  0  0  0  0  0  0  0  0  0
  146.4010  140.7121  155.0109 C   0  0  2  0  0  0  0  0  0  0  0  0
  146.2940  142.1398  154.4784 C   0  0  0  0  0  0  0  0  0  0  0  0
  147.6732  142.5279  154.1314 N   0  3  0  0  0  0  0  0  0  0  0  0
  148.4770  141.3016  153.9394 C   0  0  1  0  0  0  0  0  0  0  0  0
  149.6384  141.2815  154.9134 C   0  0  0  0  0  0  0  0  0  0  0  0
  150.6200  140.3598  154.9012 N   0  0  0  0  0  0  0  0  0  0  0  0
  151.4135  140.6578  155.9121 N   0  5  0  0  0  0  0  0  0  0  0  0
  150.9070  141.7372  156.5274 C   0  0  0  0  0  0  0  0  0  0  0  0
  151.5454  142.3433  157.7136 C   0  0  0  0  0  0  0  0  0  0  0  0
  151.4251  143.7308  157.9607 C   0  0  0  0  0  0  0  0  0  0  0  0
  152.0282  144.3233  159.0871 C   0  0  0  0  0  0  0  0  0  0  0  0
  152.7646  143.5334  159.9883 C   0  0  0  0  0  0  0  0  0  0  0  0
  152.8950  142.1518  159.7588 C   0  0  0  0  0  0  0  0  0  0  0  0
  152.2900  141.5640  158.6308 C   0  0  0  0  0  0  0  0  0  0  0  0
  149.7969  142.1458  155.9295 N   0  0  0  0  0  0  0  0  0  0  0  0
  147.5182  140.1212  154.1555 C   0  0  0  0  0  0  0  0  0  0  0  0
  146.7043  140.7268  156.0590 H   0  0  0  0  0  0  0  0  0  0  0  0
  148.8759  141.2850  152.9246 H   0  0  0  0  0  0  0  0  0  0  0  0
  144.6844  140.3917  154.1805 H   0  0  0  0  0  0  0  0  0  0  0  0
  145.6961  142.1642  153.5661 H   0  0  0  0  0  0  0  0  0  0  0  0
  145.8475  142.8285  155.1959 H   0  0  0  0  0  0  0  0  0  0  0  0
  147.6902  143.1096  153.3065 H   0  0  0  0  0  0  0  0  0  0  0  0
  150.8637  144.3545  157.2807 H   0  0  0  0  0  0  0  0  0  0  0  0
  151.9252  145.3846  159.2588 H   0  0  0  0  0  0  0  0  0  0  0  0
  153.2278  143.9858  160.8527 H   0  0  0  0  0  0  0  0  0  0  0  0
  153.4590  141.5406  160.4479 H   0  0  0  0  0  0  0  0  0  0  0  0
  152.4035  140.5011  158.4756 H   0  0  0  0  0  0  0  0  0  0  0  0
  147.9937  139.2461  154.6005 H   0  0  0  0  0  0  0  0  0  0  0  0
  147.1103  139.8168  153.1901 H   0  0  0  0  0  0  0  0  0  0  0  0
  148.0775  143.0280  154.9115 H   0  0  0  0  0  0  0  0  0  0  0  0
  1  2  1  0  0  0  0
  1 20  1  0  0  0  0
  2 18  1  0  0  0  0
  2 17  1  0  0  0  0
  2  3  1  0  0  0  0
  3  4  1  0  0  0  0
  3 21  1  0  0  0  0
  3 22  1  0  0  0  0
  4  5  1  0  0  0  0
  4 23  1  0  0  0  0
  4 31  1  0  0  0  0
  5 19  1  0  0  0  0
  5  6  1  0  0  0  0
  5 17  1  0  0  0  0
  6 16  1  0  0  0  0
  6  7  2  0  0  0  0
  7  8  1  0  0  0  0
  8  9  1  0  0  0  0
  9 10  1  0  0  0  0
  9 16  2  0  0  0  0
 10 15  1  0  0  0  0
 10 11  2  0  0  0  0
 11 12  1  0  0  0  0
 11 24  1  0  0  0  0
 12 13  2  0  0  0  0
 12 25  1  0  0  0  0
 13 14  1  0  0  0  0
 13 26  1  0  0  0  0
 14 15  2  0  0  0  0
 14 27  1  0  0  0  0
 15 28  1  0  0  0  0
 17 29  1  0  0  0  0
 17 30  1  0  0  0  0
M  CHG  1   4   1
M  CHG  1   8  -1
M  END
> <s_m_source_file>
AV-unprocessed.smi

> <i_m_source_file_index>
47

> <i_lp_mmshare_version>
43012

> <i_f3d_flags>
0

> <s_epik_input>
W09IXVtDQEhdMVtDSDJdW05IXVtDQEBIXShbQ0gyXTEpYzJuW25IXWMobjIpLWMzW2NIXVtjSF1bY0hdW2NIXVtjSF0z

> <s_epik_cmdline>
J2VwaWtfcHl0aG9uJywgJy1waCcsICc3LjAnLCAnLXRuJywgJzgnLCAnLW1hJywgJzIwMCcsICctbWV0YWxfYmluZGluZycsICctaW1hZScsICc8aW5maWxlLm1hZT4nLCAnLW9tYWUnLCAnPG91dGZpbGUubWFlPic=

> <r_lp_tautomer_probability>
1

> <r_epik_Ionization_Penalty>
1.09593

> <r_epik_Ionization_Penalty_Charging>
1.09593

> <r_epik_Ionization_Penalty_Neutral>
3.91329e-08

> <r_epik_State_Penalty>
0.690005

> <r_epik_Charging_Adjusted_Penalty>
1.78594

> <i_epik_Tot_Q>
0

> <i_epik_Tot_abs_Q>
2

> <r_epik_Metal_State_Penalty>
0.213596

> <b_epik_Metal_Only>
0

> <s_lp_Force_Field>
OPLS_2005

> <r_lp_Energy>
20.8085

> <b_lp_Chiralities_Consistent>
1

> <s_lp_Variant>
AV-unprocessed.smi:47-8

> <Gold.Version>
5.8.1

> <Gold.Id.Protein>
6NUR|6NUR_protein|mol2

> <Gold.PLP.Fitness>
47.1038

> <Gold.PLP.PLP>
-36.1544

> <Gold.PLP.part.hbond>
-3.0076

> <Gold.PLP.part.metal>
0.0000

> <Gold.PLP.part.buried>
-4.6259

> <Gold.PLP.part.nonpolar>
-31.1471

> <Gold.PLP.part.repulsive>
2.9894

> <Gold.PLP.ligand.clash>
0.0000

> <Gold.PLP.ligand.torsion>
0.5308

> <Gold.PLP.Chemscore.Hbond>
4.0000

> <Gold.PLP.Chemscore.CHOScore>
0.0000

> <Gold.PLP.Chemscore.Metal>
0.0000

> <Gold.Chemscore.Hbonds>
donor molecule, donor type, donor heavy atom, donor atom, acceptor molecule, acceptor atom, score
      L1  H     1    20       P1 10175  1.00
      L1  H     4    31       P1  8028  1.92
      P1  H  7989  7998       L1     7  1.00

> <Gold.PLP.Chemscore.Internal.Correction>
0.0110

> <Gold.Rescore>
     Score         DG    S(hbond)    S(metal)    S(lipo)     H(rot)  DE(clash)    DE(int)     intcor
     16.84     -18.79       1.99        0.00      89.38       1.48       1.64       0.31       ----

> <Gold.Chemscore.Fitness>
16.8403

> <Gold.Chemscore.DG>
-18.7944

> <Gold.Chemscore.ZeroCoef>
-5.4800

> <Gold.Chemscore.Hbond>
1.9900

> <Gold.Chemscore.Metal>
0.0000

> <Gold.Chemscore.Lipo>
89.3831

> <Gold.Chemscore.Internal_Hbond>
0.0000

> <Gold.Chemscore.DEClash>
1.6449

> <Gold.Chemscore.DEInternal>
0.3092

> <Gold.Chemscore.Rot>
1.4804

> <Gold.Chemscore.Internal.Correction>
   9.000000E+99

> <Gold.Chemscore.Hbonds>
donor molecule, donor type, donor heavy atom, donor atom, acceptor molecule, acceptor atom, score
      L1  H     1    20       P1 10175  0.97
      L1  H     4    31       P1  8028  0.86
      P1  H  7989  7998       L1     7  0.10

> <Gold.Chemscore.Hbond.Weighted>
-6.6465

> <Gold.Chemscore.Metal.Weighted>
-0.0000

> <Gold.Chemscore.Lipo.Weighted>
-10.4578

> <Gold.Chemscore.Internal_Hbond.Weighted>
0.0000

> <Gold.Chemscore.DEClash.Weighted>
1.6449

> <Gold.Chemscore.DEInternal.Weighted>
0.3092

> <Gold.Chemscore.Rot.Weighted>
3.7899

> <Gold.Chemscore.Internal.Correction.Weighted>
   9.000000E+99

> <Gold.Protein.RotatedTorsions>
[ 6907 6896 6895 6894 ] final  164.04 input  -60.11 | X-H torsion
[ 7974 7965 7964 7962 ] final -136.22 input  175.53 | X-H torsion
[ 8008 7997 7996 7995 ] final  -85.32 input   59.86 | X-H torsion
[ 10167 10162 10161 10158 ] final   98.47 input  -65.29 | X-H torsion
[ 10718 10713 10712 10709 ] final   80.90 input   66.30 | X-H torsion
[ 10763 10752 10751 10750 ] final -147.22 input  -60.55 | X-H torsion
[ 11005 11000 10999 10996 ] final -111.63 input  -57.11 | X-H torsion

> <Gold.Protein.ActiveResidues>
 VAL166  LYS551  ARG553  GLY616  TRP617  ASP618  TYR619  PRO620  LYS621  CYS622 
 ASP623  PHE694  ASN695  SER759  ASP760  ASP761  ALA762  ILE779  LEU786  VAL792 
 PHE793  MET794  SER795  GLU796  ALA797  LYS798  CYS799  TRP800  GLU811  SER814 

> <Gold.Protein.RotatedAtoms>
  151.9159  133.3573  159.3879 H   0  0  0  0  0  0  0  0  0  0  0  0  # atno 6907 bound_to 6896
  150.7047  134.4684  159.5423 H   0  0  0  0  0  0  0  0  0  0  0  0  # atno 6908 bound_to 6896
  152.2299  134.8332  160.0526 H   0  0  0  0  0  0  0  0  0  0  0  0  # atno 6909 bound_to 6896
  144.8946  140.6689  143.5124 H   0  0  0  0  0  0  0  0  0  0  0  0  # atno 7974 bound_to 7965
  154.6394  140.0593  156.9828 H   0  0  0  0  0  0  0  0  0  0  0  0  # atno 8008 bound_to 7997
  155.1540  140.3276  155.4406 H   0  0  0  0  0  0  0  0  0  0  0  0  # atno 8009 bound_to 7997
  156.2523  140.1942  156.6651 H   0  0  0  0  0  0  0  0  0  0  0  0  # atno 8010 bound_to 7997
  139.7706  144.6923  151.0161 H   0  0  0  0  0  0  0  0  0  0  0  0  # atno 10167 bound_to 10162
  157.6819  130.9980  150.2147 H   0  0  0  0  0  0  0  0  0  0  0  0  # atno 10718 bound_to 10713
  154.8297  135.3366  154.6784 H   0  0  0  0  0  0  0  0  0  0  0  0  # atno 10763 bound_to 10752
  153.7405  135.6946  153.4972 H   0  0  0  0  0  0  0  0  0  0  0  0  # atno 10764 bound_to 10752
  153.2247  135.4437  155.0480 H   0  0  0  0  0  0  0  0  0  0  0  0  # atno 10765 bound_to 10752
  141.0723  133.9359  157.2460 H   0  0  0  0  0  0  0  0  0  0  0  0  # atno 11005 bound_to 11000
  145.3723  139.1656  143.4325 LP  0  0  0  0  0  0  0  0  0  0  0  0  # atno 17320 bound_to 7965
  146.3074  140.3796  142.8682 LP  0  0  0  0  0  0  0  0  0  0  0  0  # atno 17321 bound_to 7965
  140.7813  143.4593  151.0301 LP  0  0  0  0  0  0  0  0  0  0  0  0  # atno 17342 bound_to 10162
  139.8276  143.7734  152.3179 LP  0  0  0  0  0  0  0  0  0  0  0  0  # atno 17343 bound_to 10162
  156.2811  130.3733  149.7934 LP  0  0  0  0  0  0  0  0  0  0  0  0  # atno 17370 bound_to 10713
  156.5622  130.8388  151.3332 LP  0  0  0  0  0  0  0  0  0  0  0  0  # atno 17371 bound_to 10713
  139.9536  135.0170  156.9064 LP  0  0  0  0  0  0  0  0  0  0  0  0  # atno 17394 bound_to 11000
  140.5647  134.0501  155.7410 LP  0  0  0  0  0  0  0  0  0  0  0  0  # atno 17395 bound_to 11000

$$$$
