AV-unprocessed.smi:1795|AV-procd|sdf|7237|dock10
  -GOLD-   22720 8483D 1   1.00000     0.00000
 Structure written by MMmdl.
 47 48  0  0  0  0  0  0  0  0  1 V2000
  145.5134  135.6949  152.7856 C   0  0  0  0  0  0  0  0  0  0  0  0
  145.5662  134.3516  153.5341 C   0  0  2  0  0  0  0  0  0  0  0  0
  146.9112  134.1011  154.2449 C   0  0  0  0  0  0  0  0  0  0  0  0
  148.0086  133.7665  153.3296 N   0  0  0  0  0  0  0  0  0  0  0  0
  149.2832  133.5085  154.0410 C   0  0  2  0  0  0  0  0  0  0  0  0
  149.2936  132.1455  154.7802 C   0  0  0  0  0  0  0  0  0  0  0  0
  149.6595  134.6317  155.0523 C   0  0  0  0  0  0  0  0  0  0  0  0
  149.9404  135.9173  154.4193 N   0  0  0  0  0  0  0  0  0  0  0  0
  150.6384  136.9168  154.9786 C   0  0  0  0  0  0  0  0  0  0  0  0
  151.1517  136.8387  156.0955 O   0  0  0  0  0  0  0  0  0  0  0  0
  150.7880  138.1890  154.1331 C   0  0  0  0  0  0  0  0  0  0  0  0
  149.6113  139.0709  154.2028 N   0  0  0  0  0  0  0  0  0  0  0  0
  148.3806  138.5372  153.7703 C   0  0  0  0  0  0  0  0  0  0  0  0
  147.2474  139.2566  153.7938 C   0  0  0  0  0  0  0  0  0  0  0  0
  147.3111  140.6145  154.2799 C   0  0  0  0  0  0  0  0  0  0  0  0
  148.4836  141.1362  154.6921 C   0  0  0  0  0  0  0  0  0  0  0  0
  149.7251  140.3541  154.6667 C   0  0  0  0  0  0  0  0  0  0  0  0
  150.8012  140.8228  155.0398 O   0  0  0  0  0  0  0  0  0  0  0  0
  147.5773  132.6313  152.5079 C   0  0  0  0  0  0  0  0  0  0  0  0
  146.2623  132.9016  151.7545 C   0  0  1  0  0  0  0  0  0  0  0  0
  145.7855  131.6736  150.9716 C   0  0  0  0  0  0  0  0  0  0  0  0
  145.2428  133.2548  152.6830 O   0  0  0  0  0  0  0  0  0  0  0  0
  145.6406  136.5285  153.4769 H   0  0  0  0  0  0  0  0  0  0  0  0
  144.5533  135.8239  152.2861 H   0  0  0  0  0  0  0  0  0  0  0  0
  146.2967  135.7766  152.0324 H   0  0  0  0  0  0  0  0  0  0  0  0
  144.7875  134.3841  154.2965 H   0  0  0  0  0  0  0  0  0  0  0  0
  147.1428  134.9961  154.8194 H   0  0  0  0  0  0  0  0  0  0  0  0
  146.7840  133.2921  154.9660 H   0  0  0  0  0  0  0  0  0  0  0  0
  150.0778  133.4680  153.2942 H   0  0  0  0  0  0  0  0  0  0  0  0
  150.2128  131.9817  155.3416 H   0  0  0  0  0  0  0  0  0  0  0  0
  149.2325  131.3020  154.0941 H   0  0  0  0  0  0  0  0  0  0  0  0
  148.4628  132.0715  155.4826 H   0  0  0  0  0  0  0  0  0  0  0  0
  148.8688  134.8111  155.7794 H   0  0  0  0  0  0  0  0  0  0  0  0
  150.5410  134.3361  155.6222 H   0  0  0  0  0  0  0  0  0  0  0  0
  149.5587  136.0626  153.4958 H   0  0  0  0  0  0  0  0  0  0  0  0
  151.6841  138.7137  154.4673 H   0  0  0  0  0  0  0  0  0  0  0  0
  150.9868  137.9181  153.0942 H   0  0  0  0  0  0  0  0  0  0  0  0
  148.4193  137.5175  153.4154 H   0  0  0  0  0  0  0  0  0  0  0  0
  146.3139  138.8323  153.4546 H   0  0  0  0  0  0  0  0  0  0  0  0
  146.4146  141.2162  154.3111 H   0  0  0  0  0  0  0  0  0  0  0  0
  148.5120  142.1547  155.0508 H   0  0  0  0  0  0  0  0  0  0  0  0
  148.3238  132.3954  151.7531 H   0  0  0  0  0  0  0  0  0  0  0  0
  147.4675  131.7443  153.1341 H   0  0  0  0  0  0  0  0  0  0  0  0
  146.4097  133.7190  151.0480 H   0  0  0  0  0  0  0  0  0  0  0  0
  146.5263  131.3662  150.2329 H   0  0  0  0  0  0  0  0  0  0  0  0
  144.8568  131.8862  150.4418 H   0  0  0  0  0  0  0  0  0  0  0  0
  145.6038  130.8281  151.6359 H   0  0  0  0  0  0  0  0  0  0  0  0
  1  2  1  0  0  0  0
  1 23  1  0  0  0  0
  1 24  1  0  0  0  0
  1 25  1  0  0  0  0
  2 22  1  0  0  0  0
  2  3  1  0  0  0  0
  2 26  1  0  0  0  0
  3  4  1  0  0  0  0
  3 27  1  0  0  0  0
  3 28  1  0  0  0  0
  4  5  1  0  0  0  0
  4 19  1  0  0  0  0
  5  6  1  0  0  0  0
  5  7  1  0  0  0  0
  5 29  1  0  0  0  0
  6 30  1  0  0  0  0
  6 31  1  0  0  0  0
  6 32  1  0  0  0  0
  7  8  1  0  0  0  0
  7 33  1  0  0  0  0
  7 34  1  0  0  0  0
  8  9  1  0  0  0  0
  8 35  1  0  0  0  0
  9 10  2  0  0  0  0
  9 11  1  0  0  0  0
 11 12  1  0  0  0  0
 11 36  1  0  0  0  0
 11 37  1  0  0  0  0
 12 17  1  0  0  0  0
 12 13  1  0  0  0  0
 13 14  2  0  0  0  0
 13 38  1  0  0  0  0
 14 15  1  0  0  0  0
 14 39  1  0  0  0  0
 15 16  2  0  0  0  0
 15 40  1  0  0  0  0
 16 17  1  0  0  0  0
 16 41  1  0  0  0  0
 17 18  2  0  0  0  0
 19 20  1  0  0  0  0
 19 42  1  0  0  0  0
 19 43  1  0  0  0  0
 20 21  1  0  0  0  0
 20 22  1  0  0  0  0
 20 44  1  0  0  0  0
 21 45  1  0  0  0  0
 21 46  1  0  0  0  0
 21 47  1  0  0  0  0
M  END
> <s_m_source_file>
AV-unprocessed.smi

> <i_m_source_file_index>
1795

> <i_lp_mmshare_version>
43012

> <i_f3d_flags>
0

> <s_epik_input>
W0NIM11bQ0BASF0xW0NIMl1OKFtDSDJdW0NASF0oTzEpW0NIM10pW0NASF0oW0NIM10pW0NIMl1bTkhdQyg9TylbQ0gyXW4yW2NIXVtjSF1bY0hdW2NIXWMyPU8=

> <s_epik_cmdline>
J2VwaWtfcHl0aG9uJywgJy1waCcsICc3LjAnLCAnLXRuJywgJzgnLCAnLW1hJywgJzIwMCcsICctbWV0YWxfYmluZGluZycsICctaW1hZScsICc8aW5maWxlLm1hZT4nLCAnLW9tYWUnLCAnPG91dGZpbGUubWFlPic=

> <r_lp_tautomer_probability>
1

> <r_epik_Ionization_Penalty>
0.237383

> <r_epik_Ionization_Penalty_Charging>
3.58805e-07

> <r_epik_Ionization_Penalty_Neutral>
0.237382

> <r_epik_State_Penalty>
0.228245

> <r_epik_Charging_Adjusted_Penalty>
0.228245

> <i_epik_Tot_Q>
0

> <i_epik_Tot_abs_Q>
0

> <r_epik_Metal_State_Penalty>
0.228221

> <b_epik_Metal_Only>
0

> <s_lp_Force_Field>
OPLS_2005

> <r_lp_Energy>
40.3044

> <b_lp_Chiralities_Consistent>
1

> <s_lp_Variant>
AV-unprocessed.smi:1795-1

> <Gold.Version>
5.8.1

> <Gold.Id.Protein>
6NUR|6NUR_protein|mol2

> <Gold.PLP.Fitness>
39.8683

> <Gold.PLP.PLP>
-32.6376

> <Gold.PLP.part.hbond>
-2.6596

> <Gold.PLP.part.metal>
0.0000

> <Gold.PLP.part.buried>
-0.7176

> <Gold.PLP.part.nonpolar>
-30.3306

> <Gold.PLP.part.repulsive>
1.5429

> <Gold.PLP.ligand.clash>
0.0000

> <Gold.PLP.ligand.torsion>
0.5950

> <Gold.PLP.Chemscore.Hbond>
1.7904

> <Gold.PLP.Chemscore.CHOScore>
1.0000

> <Gold.PLP.Chemscore.Metal>
0.0000

> <Gold.Chemscore.Hbonds>
donor molecule, donor type, donor heavy atom, donor atom, acceptor molecule, acceptor atom, score
      L1  H     8    35       P1  7948  1.00
      P1  H  7989  7998       L1    18  0.82
      L1  C    13    38       P1  7948  1.00

> <Gold.PLP.Chemscore.Internal.Correction>
0.0495

> <Gold.Rescore>
     Score         DG    S(hbond)    S(metal)    S(lipo)     H(rot)  DE(clash)    DE(int)     intcor
     13.63     -14.19       1.77        0.00      63.73       1.83       0.05       0.51       ----

> <Gold.Chemscore.Fitness>
13.6251

> <Gold.Chemscore.DG>
-14.1899

> <Gold.Chemscore.ZeroCoef>
-5.4800

> <Gold.Chemscore.Hbond>
1.7741

> <Gold.Chemscore.Metal>
0.0000

> <Gold.Chemscore.Lipo>
63.7328

> <Gold.Chemscore.Internal_Hbond>
0.0000

> <Gold.Chemscore.DEClash>
0.0509

> <Gold.Chemscore.DEInternal>
0.5138

> <Gold.Chemscore.Rot>
1.8251

> <Gold.Chemscore.Internal.Correction>
   9.000000E+99

> <Gold.Chemscore.Hbonds>
donor molecule, donor type, donor heavy atom, donor atom, acceptor molecule, acceptor atom, score
      L1  H     8    35       P1  7948  0.35
      P1  H  7989  7998       L1    18  0.21

> <Gold.Chemscore.Hbond.Weighted>
-5.9255

> <Gold.Chemscore.Metal.Weighted>
-0.0000

> <Gold.Chemscore.Lipo.Weighted>
-7.4567

> <Gold.Chemscore.Internal_Hbond.Weighted>
0.0000

> <Gold.Chemscore.DEClash.Weighted>
0.0509

> <Gold.Chemscore.DEInternal.Weighted>
0.5138

> <Gold.Chemscore.Rot.Weighted>
4.6724

> <Gold.Chemscore.Internal.Correction.Weighted>
   9.000000E+99

> <Gold.Protein.RotatedTorsions>
[ 6907 6896 6895 6894 ] final   -1.32 input  -60.11 | X-H torsion
[ 7974 7965 7964 7962 ] final  162.63 input  175.53 | X-H torsion
[ 8008 7997 7996 7995 ] final  -24.96 input   59.86 | X-H torsion
[ 10167 10162 10161 10158 ] final  157.16 input  -65.29 | X-H torsion
[ 10718 10713 10712 10709 ] final   19.28 input   66.30 | X-H torsion
[ 10763 10752 10751 10750 ] final  157.07 input  -60.55 | X-H torsion
[ 11005 11000 10999 10996 ] final  169.29 input  -57.11 | X-H torsion

> <Gold.Protein.ActiveResidues>
 VAL166  LYS551  ARG553  GLY616  TRP617  ASP618  TYR619  PRO620  LYS621  CYS622 
 ASP623  PHE694  ASN695  SER759  ASP760  ASP761  ALA762  ILE779  LEU786  VAL792 
 PHE793  MET794  SER795  GLU796  ALA797  LYS798  CYS799  TRP800  GLU811  SER814 

> <Gold.Protein.RotatedAtoms>
  151.5479  135.1068  159.9942 H   0  0  0  0  0  0  0  0  0  0  0  0  # atno 6907 bound_to 6896
  152.4505  133.7615  159.6760 H   0  0  0  0  0  0  0  0  0  0  0  0  # atno 6908 bound_to 6896
  150.8432  133.7836  159.3077 H   0  0  0  0  0  0  0  0  0  0  0  0  # atno 6909 bound_to 6896
  144.7628  139.8067  143.6326 H   0  0  0  0  0  0  0  0  0  0  0  0  # atno 7974 bound_to 7965
  154.4501  140.1939  156.0545 H   0  0  0  0  0  0  0  0  0  0  0  0  # atno 8008 bound_to 7997
  156.0629  140.3294  155.7455 H   0  0  0  0  0  0  0  0  0  0  0  0  # atno 8009 bound_to 7997
  155.5384  140.0584  157.2866 H   0  0  0  0  0  0  0  0  0  0  0  0  # atno 8010 bound_to 7997
  139.4822  144.4943  151.8263 H   0  0  0  0  0  0  0  0  0  0  0  0  # atno 10167 bound_to 10162
  157.1082  130.6497  149.5890 H   0  0  0  0  0  0  0  0  0  0  0  0  # atno 10718 bound_to 10713
  154.1944  135.2793  155.3011 H   0  0  0  0  0  0  0  0  0  0  0  0  # atno 10763 bound_to 10752
  154.5903  135.5562  153.7275 H   0  0  0  0  0  0  0  0  0  0  0  0  # atno 10764 bound_to 10752
  153.0104  135.6366  154.2083 H   0  0  0  0  0  0  0  0  0  0  0  0  # atno 10765 bound_to 10752
  140.2962  134.7633  157.3879 H   0  0  0  0  0  0  0  0  0  0  0  0  # atno 11005 bound_to 11000
  146.1707  139.4856  142.9929 LP  0  0  0  0  0  0  0  0  0  0  0  0  # atno 17320 bound_to 7965
  145.6566  141.0250  143.1731 LP  0  0  0  0  0  0  0  0  0  0  0  0  # atno 17321 bound_to 7965
  140.4430  144.1961  150.5892 LP  0  0  0  0  0  0  0  0  0  0  0  0  # atno 17342 bound_to 10162
  140.4664  143.2429  151.9150 LP  0  0  0  0  0  0  0  0  0  0  0  0  # atno 17343 bound_to 10162
  155.9857  130.4888  150.7043 LP  0  0  0  0  0  0  0  0  0  0  0  0  # atno 17370 bound_to 10713
  157.4582  131.0880  151.0774 LP  0  0  0  0  0  0  0  0  0  0  0  0  # atno 17371 bound_to 10713
  140.1151  134.5294  155.8232 LP  0  0  0  0  0  0  0  0  0  0  0  0  # atno 17394 bound_to 11000
  141.2137  133.6737  156.6761 LP  0  0  0  0  0  0  0  0  0  0  0  0  # atno 17395 bound_to 11000

$$$$
