AV-unprocessed.smi:1149|AV-procd|sdf|4891|dock2
  -GOLD-   22720 3463D 1   1.00000     0.00000
 Structure written by MMmdl.
 51 52  0  0  0  0  0  0  0  0  2 V2000
  151.1235  142.2646  157.6665 C   0  0  0  0  0  0  0  0  0  0  0  0
  151.0618  141.9929  156.2706 O   0  0  0  0  0  0  0  0  0  0  0  0
  150.4153  140.8470  155.8547 C   0  0  0  0  0  0  0  0  0  0  0  0
  149.5671  140.1831  156.7631 C   0  0  0  0  0  0  0  0  0  0  0  0
  148.9039  139.0130  156.3467 C   0  0  0  0  0  0  0  0  0  0  0  0
  149.1041  138.5466  155.0252 C   0  0  0  0  0  0  0  0  0  0  0  0
  148.5097  137.3731  154.4867 N   0  0  0  0  0  0  0  0  0  0  0  0
  147.8065  136.4194  155.1211 C   0  0  0  0  0  0  0  0  0  0  0  0
  147.5293  136.4146  156.3200 O   0  0  0  0  0  0  0  0  0  0  0  0
  147.4096  135.4637  154.2681 N   0  0  0  0  0  0  0  0  0  0  0  0
  146.6187  134.2843  154.6193 C   0  0  0  0  0  0  0  0  0  0  0  0
  146.8264  133.0851  153.6450 C   0  0  0  0  0  0  0  0  0  0  0  0
  148.3351  132.7654  153.4920 C   0  0  0  0  0  0  0  0  0  0  0  0
  146.1788  131.8111  154.2435 C   0  0  0  0  0  0  0  0  0  0  0  0
  146.2295  133.3698  152.2897 N   0  3  0  0  0  0  0  0  0  0  0  0
  144.9592  134.1512  152.2885 C   0  0  0  0  0  0  0  0  0  0  0  0
  144.5739  134.5679  150.8536 C   0  0  0  0  0  0  0  0  0  0  0  0
  144.4363  133.4188  149.9601 N   0  0  0  0  0  0  0  0  0  0  0  0
  143.2505  132.6150  150.2371 C   0  0  0  0  0  0  0  0  0  0  0  0
  145.6759  132.6425  149.9648 C   0  0  0  0  0  0  0  0  0  0  0  0
  146.0802  132.1939  151.3849 C   0  0  0  0  0  0  0  0  0  0  0  0
  149.9832  139.2772  154.1990 C   0  0  0  0  0  0  0  0  0  0  0  0
  150.6221  140.3988  154.5919 N   0  0  0  0  0  0  0  0  0  0  0  0
  151.6668  143.1953  157.8291 H   0  0  0  0  0  0  0  0  0  0  0  0
  151.6514  141.4755  158.2041 H   0  0  0  0  0  0  0  0  0  0  0  0
  150.1269  142.3845  158.0937 H   0  0  0  0  0  0  0  0  0  0  0  0
  149.4311  140.5623  157.7653 H   0  0  0  0  0  0  0  0  0  0  0  0
  148.2715  138.4963  157.0512 H   0  0  0  0  0  0  0  0  0  0  0  0
  148.5882  137.2737  153.4852 H   0  0  0  0  0  0  0  0  0  0  0  0
  147.6792  135.5555  153.2994 H   0  0  0  0  0  0  0  0  0  0  0  0
  146.9207  134.0103  155.6295 H   0  0  0  0  0  0  0  0  0  0  0  0
  145.5649  134.5552  154.6889 H   0  0  0  0  0  0  0  0  0  0  0  0
  148.7559  132.3447  154.4057 H   0  0  0  0  0  0  0  0  0  0  0  0
  148.9266  133.6537  153.2705 H   0  0  0  0  0  0  0  0  0  0  0  0
  148.5098  132.0372  152.6991 H   0  0  0  0  0  0  0  0  0  0  0  0
  146.7181  131.4608  155.1244 H   0  0  0  0  0  0  0  0  0  0  0  0
  146.1757  130.9908  153.5245 H   0  0  0  0  0  0  0  0  0  0  0  0
  145.1519  131.9787  154.5671 H   0  0  0  0  0  0  0  0  0  0  0  0
  144.1537  133.5811  152.7501 H   0  0  0  0  0  0  0  0  0  0  0  0
  145.0601  135.0676  152.8662 H   0  0  0  0  0  0  0  0  0  0  0  0
  143.6443  135.1382  150.8599 H   0  0  0  0  0  0  0  0  0  0  0  0
  145.3391  135.2324  150.4495 H   0  0  0  0  0  0  0  0  0  0  0  0
  143.1647  131.8070  149.5101 H   0  0  0  0  0  0  0  0  0  0  0  0
  142.3526  133.2286  150.1555 H   0  0  0  0  0  0  0  0  0  0  0  0
  143.2651  132.1718  151.2321 H   0  0  0  0  0  0  0  0  0  0  0  0
  145.5666  131.7775  149.3094 H   0  0  0  0  0  0  0  0  0  0  0  0
  146.4705  133.2545  149.5357 H   0  0  0  0  0  0  0  0  0  0  0  0
  147.0170  131.6483  151.2936 H   0  0  0  0  0  0  0  0  0  0  0  0
  145.3488  131.4904  151.7818 H   0  0  0  0  0  0  0  0  0  0  0  0
  150.1784  138.9549  153.1866 H   0  0  0  0  0  0  0  0  0  0  0  0
  146.9042  133.9680  151.8345 H   0  0  0  0  0  0  0  0  0  0  0  0
  1  2  1  0  0  0  0
  1 24  1  0  0  0  0
  1 25  1  0  0  0  0
  1 26  1  0  0  0  0
  2  3  1  0  0  0  0
  3 23  1  0  0  0  0
  3  4  2  0  0  0  0
  4  5  1  0  0  0  0
  4 27  1  0  0  0  0
  5  6  2  0  0  0  0
  5 28  1  0  0  0  0
  6  7  1  0  0  0  0
  6 22  1  0  0  0  0
  7  8  1  0  0  0  0
  7 29  1  0  0  0  0
  8  9  2  0  0  0  0
  8 10  1  0  0  0  0
 10 11  1  0  0  0  0
 10 30  1  0  0  0  0
 11 12  1  0  0  0  0
 11 31  1  0  0  0  0
 11 32  1  0  0  0  0
 12 13  1  0  0  0  0
 12 14  1  0  0  0  0
 12 15  1  0  0  0  0
 13 33  1  0  0  0  0
 13 34  1  0  0  0  0
 13 35  1  0  0  0  0
 14 36  1  0  0  0  0
 14 37  1  0  0  0  0
 14 38  1  0  0  0  0
 15 21  1  0  0  0  0
 15 16  1  0  0  0  0
 15 51  1  0  0  0  0
 16 17  1  0  0  0  0
 16 39  1  0  0  0  0
 16 40  1  0  0  0  0
 17 18  1  0  0  0  0
 17 41  1  0  0  0  0
 17 42  1  0  0  0  0
 18 19  1  0  0  0  0
 18 20  1  0  0  0  0
 19 43  1  0  0  0  0
 19 44  1  0  0  0  0
 19 45  1  0  0  0  0
 20 21  1  0  0  0  0
 20 46  1  0  0  0  0
 20 47  1  0  0  0  0
 21 48  1  0  0  0  0
 21 49  1  0  0  0  0
 22 23  2  0  0  0  0
 22 50  1  0  0  0  0
M  CHG  1  15   1
M  END
> <s_m_source_file>
AV-unprocessed.smi

> <i_m_source_file_index>
1149

> <i_lp_mmshare_version>
43012

> <i_f3d_flags>
0

> <s_epik_input>
W0NIM11PYzFbY0hdW2NIXWMoW2NIXW4xKVtOSF1DKD1PKVtOSF1bQ0gyXUMoW0NIM10pKFtDSDNdKU4yW0NIMl1bQ0gyXU4oW0NIM10pW0NIMl1bQ0gyXTI=

> <s_epik_cmdline>
J2VwaWtfcHl0aG9uJywgJy1waCcsICc3LjAnLCAnLXRuJywgJzgnLCAnLW1hJywgJzIwMCcsICctbWV0YWxfYmluZGluZycsICctaW1hZScsICc8aW5maWxlLm1hZT4nLCAnLW9tYWUnLCAnPG91dGZpbGUubWFlPic=

> <r_epik_Ionization_Penalty>
0.0907124

> <r_epik_Ionization_Penalty_Charging>
0.0886444

> <r_epik_Ionization_Penalty_Neutral>
0.00206799

> <r_epik_State_Penalty>
1.00524

> <r_epik_Charging_Adjusted_Penalty>
1.09388

> <i_epik_Tot_Q>
1

> <i_epik_Tot_abs_Q>
1

> <r_epik_Metal_State_Penalty>
1.00525

> <b_epik_Metal_Only>
0

> <s_lp_Force_Field>
OPLS_2005

> <r_lp_Energy>
30.5246

> <b_lp_Chiralities_Consistent>
1

> <s_lp_Variant>
AV-unprocessed.smi:1149-2

> <Gold.Version>
5.8.1

> <Gold.Id.Protein>
6NUR|6NUR_protein|mol2

> <Gold.PLP.Fitness>
40.8269

> <Gold.PLP.PLP>
-30.6070

> <Gold.PLP.part.hbond>
-3.0000

> <Gold.PLP.part.metal>
0.0000

> <Gold.PLP.part.buried>
-3.2637

> <Gold.PLP.part.nonpolar>
-24.4371

> <Gold.PLP.part.repulsive>
0.3571

> <Gold.PLP.ligand.clash>
0.0000

> <Gold.PLP.ligand.torsion>
0.9734

> <Gold.PLP.Chemscore.Hbond>
3.0000

> <Gold.PLP.Chemscore.CHOScore>
1.0000

> <Gold.PLP.Chemscore.Metal>
0.0000

> <Gold.Chemscore.Hbonds>
donor molecule, donor type, donor heavy atom, donor atom, acceptor molecule, acceptor atom, score
      L1  H     7    29       P1  7948  1.00
      L1  H    10    30       P1  7948  1.00
      P1  H  7989  7998       L1    23  1.00
      L1  C    22    50       P1  7957  0.99

> <Gold.PLP.Chemscore.Internal.Correction>
0.1668

> <Gold.Rescore>
     Score         DG    S(hbond)    S(metal)    S(lipo)     H(rot)  DE(clash)    DE(int)     intcor
     16.29     -19.05       2.66        0.00      77.55       1.72       0.18       2.58       ----

> <Gold.Chemscore.Fitness>
16.2891

> <Gold.Chemscore.DG>
-19.0452

> <Gold.Chemscore.ZeroCoef>
-5.4800

> <Gold.Chemscore.Hbond>
2.6643

> <Gold.Chemscore.Metal>
0.0000

> <Gold.Chemscore.Lipo>
77.5470

> <Gold.Chemscore.Internal_Hbond>
0.0000

> <Gold.Chemscore.DEClash>
0.1756

> <Gold.Chemscore.DEInternal>
2.5805

> <Gold.Chemscore.Rot>
1.7213

> <Gold.Chemscore.Internal.Correction>
   9.000000E+99

> <Gold.Chemscore.Hbonds>
donor molecule, donor type, donor heavy atom, donor atom, acceptor molecule, acceptor atom, score
      L1  H     7    29       P1  7948  0.96
      L1  H    10    30       P1  7948  0.89
      P1  H  7989  7998       L1    23  0.74

> <Gold.Chemscore.Hbond.Weighted>
-8.8987

> <Gold.Chemscore.Metal.Weighted>
-0.0000

> <Gold.Chemscore.Lipo.Weighted>
-9.0730

> <Gold.Chemscore.Internal_Hbond.Weighted>
0.0000

> <Gold.Chemscore.DEClash.Weighted>
0.1756

> <Gold.Chemscore.DEInternal.Weighted>
2.5805

> <Gold.Chemscore.Rot.Weighted>
4.4066

> <Gold.Chemscore.Internal.Correction.Weighted>
   9.000000E+99

> <Gold.Protein.RotatedTorsions>
[ 6907 6896 6895 6894 ] final    9.71 input  -60.11 | X-H torsion
[ 7974 7965 7964 7962 ] final  -38.32 input  175.53 | X-H torsion
[ 8008 7997 7996 7995 ] final  174.24 input   59.86 | X-H torsion
[ 10167 10162 10161 10158 ] final -151.71 input  -65.29 | X-H torsion
[ 10718 10713 10712 10709 ] final  -59.78 input   66.30 | X-H torsion
[ 10763 10752 10751 10750 ] final   55.36 input  -60.55 | X-H torsion
[ 11005 11000 10999 10996 ] final  131.25 input  -57.11 | X-H torsion

> <Gold.Protein.ActiveResidues>
 VAL166  LYS551  ARG553  GLY616  TRP617  ASP618  TYR619  PRO620  LYS621  CYS622 
 ASP623  PHE694  ASN695  SER759  ASP760  ASP761  ALA762  ILE779  LEU786  VAL792 
 PHE793  MET794  SER795  GLU796  ALA797  LYS798  CYS799  TRP800  GLU811  SER814 

> <Gold.Protein.RotatedAtoms>
  151.7266  135.0883  160.0292 H   0  0  0  0  0  0  0  0  0  0  0  0  # atno 6907 bound_to 6896
  152.3568  133.6243  159.5994 H   0  0  0  0  0  0  0  0  0  0  0  0  # atno 6908 bound_to 6896
  150.7577  133.9403  159.3495 H   0  0  0  0  0  0  0  0  0  0  0  0  # atno 6909 bound_to 6896
  146.0497  140.6498  142.9048 H   0  0  0  0  0  0  0  0  0  0  0  0  # atno 7974 bound_to 7965
  156.0995  140.1439  156.9487 H   0  0  0  0  0  0  0  0  0  0  0  0  # atno 8008 bound_to 7997
  154.4693  140.0915  156.7148 H   0  0  0  0  0  0  0  0  0  0  0  0  # atno 8009 bound_to 7997
  155.4785  140.3444  155.4338 H   0  0  0  0  0  0  0  0  0  0  0  0  # atno 8010 bound_to 7997
  139.7244  143.8907  152.2514 H   0  0  0  0  0  0  0  0  0  0  0  0  # atno 10167 bound_to 10162
  156.1037  130.4183  150.0763 H   0  0  0  0  0  0  0  0  0  0  0  0  # atno 10718 bound_to 10713
  152.9816  135.5713  154.5054 H   0  0  0  0  0  0  0  0  0  0  0  0  # atno 10763 bound_to 10752
  154.4567  135.2780  155.1744 H   0  0  0  0  0  0  0  0  0  0  0  0  # atno 10764 bound_to 10752
  154.3349  135.6241  153.5622 H   0  0  0  0  0  0  0  0  0  0  0  0  # atno 10765 bound_to 10752
  139.9719  134.9575  156.9411 H   0  0  0  0  0  0  0  0  0  0  0  0  # atno 11005 bound_to 11000
  144.7116  140.4060  143.7076 LP  0  0  0  0  0  0  0  0  0  0  0  0  # atno 17320 bound_to 7965
  145.6745  139.1606  143.2736 LP  0  0  0  0  0  0  0  0  0  0  0  0  # atno 17321 bound_to 7965
  139.8812  144.7017  150.8876 LP  0  0  0  0  0  0  0  0  0  0  0  0  # atno 17342 bound_to 10162
  140.7760  143.3660  151.1738 LP  0  0  0  0  0  0  0  0  0  0  0  0  # atno 17343 bound_to 10162
  156.8744  130.9535  151.3606 LP  0  0  0  0  0  0  0  0  0  0  0  0  # atno 17370 bound_to 10713
  157.6211  130.8656  149.9110 LP  0  0  0  0  0  0  0  0  0  0  0  0  # atno 17371 bound_to 10713
  140.5275  134.0846  155.7307 LP  0  0  0  0  0  0  0  0  0  0  0  0  # atno 17394 bound_to 11000
  141.1398  133.9157  157.2351 LP  0  0  0  0  0  0  0  0  0  0  0  0  # atno 17395 bound_to 11000

$$$$
