AV-unprocessed.smi:2741|AV-procd|sdf|10559|dock1
  -GOLD-   2272015 13D 1   1.00000     0.00000
 Structure written by MMmdl.
 39 40  0  0  0  0  0  0  0  0  1 V2000
  149.8793  135.7818  159.3834 O   0  0  0  0  0  0  0  0  0  0  0  0
  149.5699  136.9739  159.3960 C   0  0  0  0  0  0  0  0  0  0  0  0
  148.3051  137.4444  160.1264 C   0  0  0  0  0  0  0  0  0  0  0  0
  147.9034  136.5354  161.2131 N   0  0  0  0  0  0  0  0  0  0  0  0
  147.3519  135.2925  160.8442 C   0  0  0  0  0  0  0  0  0  0  0  0
  146.9612  134.3684  161.7428 C   0  0  0  0  0  0  0  0  0  0  0  0
  146.3234  133.0571  161.3110 C   0  0  0  0  0  0  0  0  0  0  0  0
  146.2157  132.9865  159.9839 F   0  0  0  0  0  0  0  0  0  0  0  0
  147.0431  132.0149  161.7286 F   0  0  0  0  0  0  0  0  0  0  0  0
  145.1025  132.9527  161.8337 F   0  0  0  0  0  0  0  0  0  0  0  0
  147.1053  134.7260  163.1406 C   0  0  0  0  0  0  0  0  0  0  0  0
  147.6242  135.9132  163.5105 C   0  0  0  0  0  0  0  0  0  0  0  0
  148.0654  136.8988  162.5211 C   0  0  0  0  0  0  0  0  0  0  0  0
  148.5495  137.9834  162.8471 O   0  0  0  0  0  0  0  0  0  0  0  0
  150.2853  137.9265  158.7800 N   0  0  0  0  0  0  0  0  0  0  0  0
  151.5369  137.7053  158.0640 C   0  0  0  0  0  0  0  0  0  0  0  0
  151.4319  138.1024  156.5780 C   0  0  1  0  0  0  0  0  0  0  0  0
  152.7892  138.4255  155.9258 C   0  0  0  0  0  0  0  0  0  0  0  0
  152.7437  137.8465  154.5026 C   0  0  0  0  0  0  0  0  0  0  0  0
  151.2928  137.4115  154.2818 C   0  0  1  0  0  0  0  0  0  0  0  0
  151.1873  136.3412  153.3667 O   0  0  0  0  0  0  0  0  0  0  0  0
  150.8039  137.0316  155.6771 C   0  0  0  0  0  0  0  0  0  0  0  0
  148.4583  138.4504  160.5224 H   0  0  0  0  0  0  0  0  0  0  0  0
  147.5074  137.5461  159.3896 H   0  0  0  0  0  0  0  0  0  0  0  0
  147.2695  135.1341  159.7787 H   0  0  0  0  0  0  0  0  0  0  0  0
  146.7965  134.0290  163.9059 H   0  0  0  0  0  0  0  0  0  0  0  0
  147.7196  136.1449  164.5613 H   0  0  0  0  0  0  0  0  0  0  0  0
  149.9537  138.8787  158.8343 H   0  0  0  0  0  0  0  0  0  0  0  0
  152.3447  138.2565  158.5482 H   0  0  0  0  0  0  0  0  0  0  0  0
  151.7894  136.6479  158.1504 H   0  0  0  0  0  0  0  0  0  0  0  0
  150.8138  138.9983  156.4967 H   0  0  0  0  0  0  0  0  0  0  0  0
  152.9566  139.5029  155.9091 H   0  0  0  0  0  0  0  0  0  0  0  0
  153.6164  137.9808  156.4803 H   0  0  0  0  0  0  0  0  0  0  0  0
  153.0773  138.5615  153.7499 H   0  0  0  0  0  0  0  0  0  0  0  0
  153.4085  136.9829  154.4496 H   0  0  0  0  0  0  0  0  0  0  0  0
  150.7106  138.2565  153.9114 H   0  0  0  0  0  0  0  0  0  0  0  0
  150.6213  136.6058  152.6577 H   0  0  0  0  0  0  0  0  0  0  0  0
  151.1787  136.0444  155.9528 H   0  0  0  0  0  0  0  0  0  0  0  0
  149.7156  137.0089  155.7467 H   0  0  0  0  0  0  0  0  0  0  0  0
  1  2  2  0  0  0  0
  2  3  1  0  0  0  0
  2 15  1  0  0  0  0
  3  4  1  0  0  0  0
  3 23  1  0  0  0  0
  3 24  1  0  0  0  0
  4 13  1  0  0  0  0
  4  5  1  0  0  0  0
  5  6  2  0  0  0  0
  5 25  1  0  0  0  0
  6  7  1  0  0  0  0
  6 11  1  0  0  0  0
  7  8  1  0  0  0  0
  7  9  1  0  0  0  0
  7 10  1  0  0  0  0
 11 12  2  0  0  0  0
 11 26  1  0  0  0  0
 12 13  1  0  0  0  0
 12 27  1  0  0  0  0
 13 14  2  0  0  0  0
 15 16  1  0  0  0  0
 15 28  1  0  0  0  0
 16 17  1  0  0  0  0
 16 29  1  0  0  0  0
 16 30  1  0  0  0  0
 17 22  1  0  0  0  0
 17 18  1  0  0  0  0
 17 31  1  0  0  0  0
 18 19  1  0  0  0  0
 18 32  1  0  0  0  0
 18 33  1  0  0  0  0
 19 20  1  0  0  0  0
 19 34  1  0  0  0  0
 19 35  1  0  0  0  0
 20 21  1  0  0  0  0
 20 22  1  0  0  0  0
 20 36  1  0  0  0  0
 21 37  1  0  0  0  0
 22 38  1  0  0  0  0
 22 39  1  0  0  0  0
M  END
> <s_m_source_file>
AV-unprocessed.smi

> <i_m_source_file_index>
2741

> <i_lp_mmshare_version>
43012

> <i_f3d_flags>
0

> <s_epik_input>
W09IXVtDQEBIXShbQ0gyXTEpW0NIMl1bQ0gyXVtDQEhdMVtDSDJdW05IXUMoPU8pW0NIMl1uMltjSF1jKEMoRikoRilGKVtjSF1bY0hdYzI9Tw==

> <s_epik_cmdline>
J2VwaWtfcHl0aG9uJywgJy1waCcsICc3LjAnLCAnLXRuJywgJzgnLCAnLW1hJywgJzIwMCcsICctbWV0YWxfYmluZGluZycsICctaW1hZScsICc8aW5maWxlLm1hZT4nLCAnLW9tYWUnLCAnPG91dGZpbGUubWFlPic=

> <r_lp_tautomer_probability>
1

> <r_epik_Ionization_Penalty>
1.17551e-06

> <r_epik_Ionization_Penalty_Charging>
1.78841e-08

> <r_epik_Ionization_Penalty_Neutral>
1.15762e-06

> <r_epik_State_Penalty>
-0

> <r_epik_Charging_Adjusted_Penalty>
1.78841e-08

> <i_epik_Tot_Q>
0

> <i_epik_Tot_abs_Q>
0

> <r_epik_Metal_State_Penalty>
-0

> <b_epik_Metal_Only>
0

> <s_lp_Force_Field>
OPLS_2005

> <r_lp_Energy>
32.8711

> <b_lp_Chiralities_Consistent>
1

> <s_lp_Variant>
AV-unprocessed.smi:2741-2

> <Gold.Version>
5.8.1

> <Gold.Id.Protein>
6NUR|6NUR_protein|mol2

> <Gold.PLP.Fitness>
52.3465

> <Gold.PLP.PLP>
-42.3404

> <Gold.PLP.part.hbond>
-4.4827

> <Gold.PLP.part.metal>
0.0000

> <Gold.PLP.part.buried>
-3.9107

> <Gold.PLP.part.nonpolar>
-33.2686

> <Gold.PLP.part.repulsive>
0.1554

> <Gold.PLP.ligand.clash>
1.4144

> <Gold.PLP.ligand.torsion>
0.7447

> <Gold.PLP.Chemscore.Hbond>
4.2785

> <Gold.PLP.Chemscore.CHOScore>
0.0000

> <Gold.PLP.Chemscore.Metal>
0.0000

> <Gold.Chemscore.Hbonds>
donor molecule, donor type, donor heavy atom, donor atom, acceptor molecule, acceptor atom, score
      L1  H    21    37       P1  7949  0.02
      P1  H  6896  6908       L1     1  0.60
      P1  H 10752 10765       L1    21  0.39

> <Gold.PLP.Chemscore.Internal.Correction>
0.0743

> <Gold.Rescore>
     Score         DG    S(hbond)    S(metal)    S(lipo)     H(rot)  DE(clash)    DE(int)     intcor
     18.10     -19.78       3.65        0.00      72.34       2.48       0.02       1.66       ----

> <Gold.Chemscore.Fitness>
18.0973

> <Gold.Chemscore.DG>
-19.7803

> <Gold.Chemscore.ZeroCoef>
-5.4800

> <Gold.Chemscore.Hbond>
3.6488

> <Gold.Chemscore.Metal>
0.0000

> <Gold.Chemscore.Lipo>
72.3404

> <Gold.Chemscore.Internal_Hbond>
0.0000

> <Gold.Chemscore.DEClash>
0.0232

> <Gold.Chemscore.DEInternal>
1.6598

> <Gold.Chemscore.Rot>
2.4807

> <Gold.Chemscore.Internal.Correction>
   9.000000E+99

> <Gold.Chemscore.Hbonds>
donor molecule, donor type, donor heavy atom, donor atom, acceptor molecule, acceptor atom, score
      P1  H  6896  6908       L1     1  0.60
      P1  H 10752 10765       L1    21  0.01

> <Gold.Chemscore.Hbond.Weighted>
-12.1871

> <Gold.Chemscore.Metal.Weighted>
-0.0000

> <Gold.Chemscore.Lipo.Weighted>
-8.4638

> <Gold.Chemscore.Internal_Hbond.Weighted>
0.0000

> <Gold.Chemscore.DEClash.Weighted>
0.0232

> <Gold.Chemscore.DEInternal.Weighted>
1.6598

> <Gold.Chemscore.Rot.Weighted>
6.3507

> <Gold.Chemscore.Internal.Correction.Weighted>
   9.000000E+99

> <Gold.Protein.RotatedTorsions>
[ 6907 6896 6895 6894 ] final -179.18 input  -60.11 | X-H torsion
[ 7974 7965 7964 7962 ] final  169.83 input  175.53 | X-H torsion
[ 8008 7997 7996 7995 ] final -107.11 input   59.86 | X-H torsion
[ 10167 10162 10161 10158 ] final -120.26 input  -65.29 | X-H torsion
[ 10718 10713 10712 10709 ] final -108.01 input   66.30 | X-H torsion
[ 10763 10752 10751 10750 ] final  146.55 input  -60.55 | X-H torsion
[ 11005 11000 10999 10996 ] final -108.85 input  -57.11 | X-H torsion

> <Gold.Protein.ActiveResidues>
 VAL166  LYS551  ARG553  GLY616  TRP617  ASP618  TYR619  PRO620  LYS621  CYS622 
 ASP623  PHE694  ASN695  SER759  ASP760  ASP761  ALA762  ILE779  LEU786  VAL792 
 PHE793  MET794  SER795  GLU796  ALA797  LYS798  CYS799  TRP800  GLU811  SER814 

> <Gold.Protein.RotatedAtoms>
  151.6493  133.3322  159.3147 H   0  0  0  0  0  0  0  0  0  0  0  0  # atno 6907 bound_to 6896
  150.7968  134.7037  159.6574 H   0  0  0  0  0  0  0  0  0  0  0  0  # atno 6908 bound_to 6896
  152.4056  134.6217  160.0104 H   0  0  0  0  0  0  0  0  0  0  0  0  # atno 6909 bound_to 6896
  144.7343  139.9111  143.6415 H   0  0  0  0  0  0  0  0  0  0  0  0  # atno 7974 bound_to 7965
  154.9244  140.0406  157.2015 H   0  0  0  0  0  0  0  0  0  0  0  0  # atno 8008 bound_to 7997
  154.8222  140.2885  155.5757 H   0  0  0  0  0  0  0  0  0  0  0  0  # atno 8009 bound_to 7997
  156.2981  140.2516  156.3131 H   0  0  0  0  0  0  0  0  0  0  0  0  # atno 8010 bound_to 7997
  140.0377  143.5184  152.2145 H   0  0  0  0  0  0  0  0  0  0  0  0  # atno 10167 bound_to 10162
  156.0464  130.5691  150.7902 H   0  0  0  0  0  0  0  0  0  0  0  0  # atno 10718 bound_to 10713
  154.0237  135.2903  155.3377 H   0  0  0  0  0  0  0  0  0  0  0  0  # atno 10763 bound_to 10752
  154.7030  135.5180  153.8558 H   0  0  0  0  0  0  0  0  0  0  0  0  # atno 10764 bound_to 10752
  153.0670  135.6634  154.0457 H   0  0  0  0  0  0  0  0  0  0  0  0  # atno 10765 bound_to 10752
  141.0879  133.9106  157.2143 H   0  0  0  0  0  0  0  0  0  0  0  0  # atno 11005 bound_to 11000
  146.1000  139.3995  143.0353 LP  0  0  0  0  0  0  0  0  0  0  0  0  # atno 17320 bound_to 7965
  145.7592  140.9942  143.1209 LP  0  0  0  0  0  0  0  0  0  0  0  0  # atno 17321 bound_to 7965
  139.6034  144.7589  151.3119 LP  0  0  0  0  0  0  0  0  0  0  0  0  # atno 17342 bound_to 10162
  140.7274  143.6964  150.7880 LP  0  0  0  0  0  0  0  0  0  0  0  0  # atno 17343 bound_to 10162
  157.5345  131.0938  150.9911 LP  0  0  0  0  0  0  0  0  0  0  0  0  # atno 17370 bound_to 10713
  157.0209  130.5673  149.5331 LP  0  0  0  0  0  0  0  0  0  0  0  0  # atno 17371 bound_to 10713
  139.9700  135.0131  156.9488 LP  0  0  0  0  0  0  0  0  0  0  0  0  # atno 17394 bound_to 11000
  140.5320  134.0804  155.7318 LP  0  0  0  0  0  0  0  0  0  0  0  0  # atno 17395 bound_to 11000

$$$$
