AV-unprocessed.smi:38|AV-procd|sdf|345|dock1
  -GOLD-   2262016183D 1   1.00000     0.00000
 Structure written by MMmdl.
 27 28  0  0  0  0  0  0  0  0  2 V2000
  152.6882  139.1163  155.7563 O   0  0  0  0  0  0  0  0  0  0  0  0
  151.5333  139.1525  155.3342 C   0  0  0  0  0  0  0  0  0  0  0  0
  151.0358  140.2132  154.6340 N   0  5  0  0  0  0  0  0  0  0  0  0
  149.7525  140.2534  154.1688 C   0  0  0  0  0  0  0  0  0  0  0  0
  149.3032  141.1951  153.5153 O   0  0  0  0  0  0  0  0  0  0  0  0
  148.8908  139.1564  154.4400 N   0  0  0  0  0  0  0  0  0  0  0  0
  147.4729  139.1776  153.9227 C   0  0  1  0  0  0  0  0  0  0  0  0
  147.4429  139.3162  152.4045 C   0  0  0  0  0  0  0  0  0  0  0  0
  146.1852  138.5374  152.0315 C   0  0  1  0  0  0  0  0  0  0  0  0
  146.4666  137.6419  150.9715 O   0  0  0  0  0  0  0  0  0  0  0  0
  145.7375  137.8461  153.3417 C   0  0  1  0  0  0  0  0  0  0  0  0
  145.3120  136.3707  153.2224 C   0  0  0  0  0  0  0  0  0  0  0  0
  146.2670  135.6474  152.4754 O   0  0  0  0  0  0  0  0  0  0  0  0
  146.8645  137.9607  154.2006 O   0  0  0  0  0  0  0  0  0  0  0  0
  149.3732  138.0575  155.1303 C   0  0  0  0  0  0  0  0  0  0  0  0
  150.6438  138.0188  155.5808 C   0  0  0  0  0  0  0  0  0  0  0  0
  151.0855  136.9378  156.2468 F   0  0  0  0  0  0  0  0  0  0  0  0
  146.9382  139.9694  154.4511 H   0  0  0  0  0  0  0  0  0  0  0  0
  145.4037  139.2196  151.6952 H   0  0  0  0  0  0  0  0  0  0  0  0
  144.9233  138.4343  153.7703 H   0  0  0  0  0  0  0  0  0  0  0  0
  147.4141  140.3665  152.1126 H   0  0  0  0  0  0  0  0  0  0  0  0
  148.3378  138.8551  151.9819 H   0  0  0  0  0  0  0  0  0  0  0  0
  145.8101  137.7537  150.3012 H   0  0  0  0  0  0  0  0  0  0  0  0
  145.2653  135.9067  154.2077 H   0  0  0  0  0  0  0  0  0  0  0  0
  144.3247  136.2783  152.7687 H   0  0  0  0  0  0  0  0  0  0  0  0
  147.1269  135.9745  152.6907 H   0  0  0  0  0  0  0  0  0  0  0  0
  148.7297  137.2090  155.3101 H   0  0  0  0  0  0  0  0  0  0  0  0
  1  2  2  0  0  0  0
  2 16  1  0  0  0  0
  2  3  1  0  0  0  0
  3  4  1  0  0  0  0
  4  5  2  0  0  0  0
  4  6  1  0  0  0  0
  6  7  1  0  0  0  0
  6 15  1  0  0  0  0
  7 18  1  0  0  0  0
  7 14  1  0  0  0  0
  7  8  1  0  0  0  0
  8  9  1  0  0  0  0
  8 21  1  0  0  0  0
  8 22  1  0  0  0  0
  9 19  1  0  0  0  0
  9 10  1  0  0  0  0
  9 11  1  0  0  0  0
 10 23  1  0  0  0  0
 11 20  1  0  0  0  0
 11 12  1  0  0  0  0
 11 14  1  0  0  0  0
 12 13  1  0  0  0  0
 12 24  1  0  0  0  0
 12 25  1  0  0  0  0
 13 26  1  0  0  0  0
 15 16  2  0  0  0  0
 15 27  1  0  0  0  0
 16 17  1  0  0  0  0
M  CHG  1   3  -1
M  END
> <s_m_source_file>
AV-unprocessed.smi

> <i_m_source_file_index>
38

> <i_lp_mmshare_version>
43012

> <i_f3d_flags>
0

> <s_epik_input>
Tz1jMVtuSF1jKD1PKW4oW2NIXWMxRilbQ0BIXTJbQ0gyXVtDQEhdKFtPSF0pW0NASF0oTzIpW0NIMl1bT0hd

> <s_epik_cmdline>
J2VwaWtfcHl0aG9uJywgJy1waCcsICc3LjAnLCAnLXRuJywgJzgnLCAnLW1hJywgJzIwMCcsICctbWV0YWxfYmluZGluZycsICctaW1hZScsICc8aW5maWxlLm1hZT4nLCAnLW9tYWUnLCAnPG91dGZpbGUubWFlPic=

> <r_epik_Ionization_Penalty>
1.68146

> <r_epik_Ionization_Penalty_Charging>
3.4211e-08

> <r_epik_Ionization_Penalty_Neutral>
1.68146

> <r_epik_State_Penalty>
1.78593

> <r_epik_Charging_Adjusted_Penalty>
1.78593

> <i_epik_Tot_Q>
-1

> <i_epik_Tot_abs_Q>
1

> <r_epik_Metal_State_Penalty>
0.0113696

> <b_epik_Metal_Only>
0

> <s_epik_Chemistry_Notes>
This compound contains an acetal/aminal-like group ( X-CH(R)-Y where X, Y are N, S, or O) that may be acid/base labile, releasing an aldehyde.

> <s_lp_Force_Field>
OPLS_2005

> <r_lp_Energy>
42.0277

> <b_lp_Chiralities_Consistent>
1

> <s_lp_Variant>
AV-unprocessed.smi:38-11

> <Gold.Version>
5.8.1

> <Gold.Id.Protein>
6NUR|6NUR_protein|mol2

> <Gold.PLP.Fitness>
42.0272

> <Gold.PLP.PLP>
-24.8256

> <Gold.PLP.part.hbond>
-7.2496

> <Gold.PLP.part.metal>
0.0000

> <Gold.PLP.part.buried>
1.4881

> <Gold.PLP.part.nonpolar>
-20.7910

> <Gold.PLP.part.repulsive>
1.5384

> <Gold.PLP.ligand.clash>
0.0000

> <Gold.PLP.ligand.torsion>
0.0865

> <Gold.PLP.Chemscore.Hbond>
5.7843

> <Gold.PLP.Chemscore.CHOScore>
0.0000

> <Gold.PLP.Chemscore.Metal>
0.0000

> <Gold.Chemscore.Hbonds>
donor molecule, donor type, donor heavy atom, donor atom, acceptor molecule, acceptor atom, score
      L1  H    10    23       P1 10171  0.65
      L1  H    13    26       P1  7948  0.78
      P1  H  7954  7966       L1    10  1.00
      P1  H  7989  7998       L1     3  0.62
      P1  H  7997  8009       L1     1  1.00
      P1  H  8011  8017       L1     5  1.00

> <Gold.PLP.Chemscore.Internal.Correction>
0.0218

> <Gold.Rescore>
     Score         DG    S(hbond)    S(metal)    S(lipo)     H(rot)  DE(clash)    DE(int)     intcor
     13.82     -18.35       4.78        0.00      36.45       2.88       3.18       1.35       ----

> <Gold.Chemscore.Fitness>
13.8156

> <Gold.Chemscore.DG>
-18.3454

> <Gold.Chemscore.ZeroCoef>
-5.4800

> <Gold.Chemscore.Hbond>
4.7836

> <Gold.Chemscore.Metal>
0.0000

> <Gold.Chemscore.Lipo>
36.4517

> <Gold.Chemscore.Internal_Hbond>
0.0000

> <Gold.Chemscore.DEClash>
3.1781

> <Gold.Chemscore.DEInternal>
1.3517

> <Gold.Chemscore.Rot>
2.8815

> <Gold.Chemscore.Internal.Correction>
   9.000000E+99

> <Gold.Chemscore.Hbonds>
donor molecule, donor type, donor heavy atom, donor atom, acceptor molecule, acceptor atom, score
      L1  H    10    23       P1 10171  0.63
      L1  H    13    26       P1  7948  0.76
      P1  H  7954  7966       L1    10  0.28
      P1  H  7989  7998       L1     3  0.09
      P1  H  7997  8009       L1     1  0.96
      P1  H  8011  8017       L1     5  0.94

> <Gold.Chemscore.Hbond.Weighted>
-15.9771

> <Gold.Chemscore.Metal.Weighted>
-0.0000

> <Gold.Chemscore.Lipo.Weighted>
-4.2648

> <Gold.Chemscore.Internal_Hbond.Weighted>
0.0000

> <Gold.Chemscore.DEClash.Weighted>
3.1781

> <Gold.Chemscore.DEInternal.Weighted>
1.3517

> <Gold.Chemscore.Rot.Weighted>
7.3765

> <Gold.Chemscore.Internal.Correction.Weighted>
   9.000000E+99

> <Gold.Protein.RotatedTorsions>
[ 6907 6896 6895 6894 ] final    6.50 input  -60.11 | X-H torsion
[ 7974 7965 7964 7962 ] final   32.44 input  175.53 | X-H torsion
[ 8008 7997 7996 7995 ] final -152.54 input   59.86 | X-H torsion
[ 10167 10162 10161 10158 ] final  -82.07 input  -65.29 | X-H torsion
[ 10718 10713 10712 10709 ] final  -46.65 input   66.30 | X-H torsion
[ 10763 10752 10751 10750 ] final   64.26 input  -60.55 | X-H torsion
[ 11005 11000 10999 10996 ] final   16.86 input  -57.11 | X-H torsion

> <Gold.Protein.ActiveResidues>
 VAL166  LYS551  ARG553  GLY616  TRP617  ASP618  TYR619  PRO620  LYS621  CYS622 
 ASP623  PHE694  ASN695  SER759  ASP760  ASP761  ALA762  ILE779  LEU786  VAL792 
 PHE793  MET794  SER795  GLU796  ALA797  LYS798  CYS799  TRP800  GLU811  SER814 

> <Gold.Protein.RotatedAtoms>
  151.6747  135.0971  160.0204 H   0  0  0  0  0  0  0  0  0  0  0  0  # atno 6907 bound_to 6896
  152.3871  133.6622  159.6216 H   0  0  0  0  0  0  0  0  0  0  0  0  # atno 6908 bound_to 6896
  150.7794  133.8933  159.3361 H   0  0  0  0  0  0  0  0  0  0  0  0  # atno 6909 bound_to 6896
  146.1486  139.6526  142.9114 H   0  0  0  0  0  0  0  0  0  0  0  0  # atno 7974 bound_to 7965
  155.6567  140.0718  157.2568 H   0  0  0  0  0  0  0  0  0  0  0  0  # atno 8008 bound_to 7997
  154.4151  140.1723  156.1783 H   0  0  0  0  0  0  0  0  0  0  0  0  # atno 8009 bound_to 7997
  155.9731  140.3360  155.6597 H   0  0  0  0  0  0  0  0  0  0  0  0  # atno 8010 bound_to 7997
  140.4354  143.2533  151.8701 H   0  0  0  0  0  0  0  0  0  0  0  0  # atno 10167 bound_to 10162
  156.2162  130.4163  149.9051 H   0  0  0  0  0  0  0  0  0  0  0  0  # atno 10718 bound_to 10713
  153.0049  135.5399  154.6481 H   0  0  0  0  0  0  0  0  0  0  0  0  # atno 10763 bound_to 10752
  154.5720  135.2842  155.0820 H   0  0  0  0  0  0  0  0  0  0  0  0  # atno 10764 bound_to 10752
  154.1982  135.6488  153.5132 H   0  0  0  0  0  0  0  0  0  0  0  0  # atno 10765 bound_to 10752
  140.4424  134.1308  155.7692 H   0  0  0  0  0  0  0  0  0  0  0  0  # atno 11005 bound_to 11000
  145.4877  141.0438  143.2610 LP  0  0  0  0  0  0  0  0  0  0  0  0  # atno 17320 bound_to 7965
  144.7877  139.6393  143.7127 LP  0  0  0  0  0  0  0  0  0  0  0  0  # atno 17321 bound_to 7965
  139.4787  144.5289  151.8696 LP  0  0  0  0  0  0  0  0  0  0  0  0  # atno 17342 bound_to 10162
  140.4380  144.2026  150.5890 LP  0  0  0  0  0  0  0  0  0  0  0  0  # atno 17343 bound_to 10162
  156.6713  130.8821  151.3562 LP  0  0  0  0  0  0  0  0  0  0  0  0  # atno 17370 bound_to 10713
  157.7064  130.9390  150.0945 LP  0  0  0  0  0  0  0  0  0  0  0  0  # atno 17371 bound_to 10713
  141.1700  133.8628  157.1600 LP  0  0  0  0  0  0  0  0  0  0  0  0  # atno 17394 bound_to 11000
  140.0061  135.0008  157.0295 LP  0  0  0  0  0  0  0  0  0  0  0  0  # atno 17395 bound_to 11000

$$$$
