AV-unprocessed.smi:1501|AV-procd|sdf|6066|dock10
  -GOLD-   22720 6183D 1   1.00000     0.00000
 Structure written by MMmdl.
 48 49  0  0  0  0  0  0  0  0  2 V2000
  149.4343  141.3918  155.2822 C   0  0  0  0  0  0  0  0  0  0  0  0
  150.5888  140.6983  155.9834 C   0  0  0  0  0  0  0  0  0  0  0  0
  150.9958  141.2656  157.1996 N   0  0  0  0  0  0  0  0  0  0  0  0
  151.9796  140.7435  157.8680 C   0  0  0  0  0  0  0  0  0  0  0  0
  152.4143  141.2796  159.0833 N   0  0  0  0  0  0  0  0  0  0  0  0
  153.5420  140.6883  159.8075 C   0  0  0  0  0  0  0  0  0  0  0  0
  153.4982  141.0481  161.3019 C   0  0  0  0  0  0  0  0  0  0  0  0
  153.4552  142.4605  161.4553 O   0  0  0  0  0  0  0  0  0  0  0  0
  152.2894  143.0088  160.8557 C   0  0  0  0  0  0  0  0  0  0  0  0
  152.2944  142.7139  159.3465 C   0  0  0  0  0  0  0  0  0  0  0  0
  152.6590  139.6166  157.4316 N   0  5  0  0  0  0  0  0  0  0  0  0
  152.3125  139.0077  156.2619 C   0  0  0  0  0  0  0  0  0  0  0  0
  152.8905  138.0007  155.8542 O   0  0  0  0  0  0  0  0  0  0  0  0
  151.2044  139.5896  155.4847 C   0  0  0  0  0  0  0  0  0  0  0  0
  150.8137  138.9417  154.1582 C   0  0  0  0  0  0  0  0  0  0  0  0
  149.3892  138.3560  154.1976 C   0  0  0  0  0  0  0  0  0  0  0  0
  149.2622  137.1343  155.1129 C   0  0  0  0  0  0  0  0  0  0  0  0
  149.4054  137.2428  156.3313 O   0  0  0  0  0  0  0  0  0  0  0  0
  149.0018  135.9660  154.5068 N   0  0  0  0  0  0  0  0  0  0  0  0
  148.8583  134.6827  155.1870 C   0  0  0  0  0  0  0  0  0  0  0  0
  149.0487  133.4812  154.2367 C   0  0  0  0  0  0  0  0  0  0  0  0
  147.8876  133.3909  153.2358 C   0  0  0  0  0  0  0  0  0  0  0  0
  149.2149  132.1553  154.9987 C   0  0  0  0  0  0  0  0  0  0  0  0
  148.6481  140.6777  155.0363 H   0  0  0  0  0  0  0  0  0  0  0  0
  149.7777  141.8631  154.3612 H   0  0  0  0  0  0  0  0  0  0  0  0
  148.9969  142.1660  155.9138 H   0  0  0  0  0  0  0  0  0  0  0  0
  153.5593  139.6028  159.7071 H   0  0  0  0  0  0  0  0  0  0  0  0
  154.4682  141.0566  159.3651 H   0  0  0  0  0  0  0  0  0  0  0  0
  152.6342  140.5903  161.7859 H   0  0  0  0  0  0  0  0  0  0  0  0
  154.3856  140.6644  161.8055 H   0  0  0  0  0  0  0  0  0  0  0  0
  151.3950  142.5993  161.3283 H   0  0  0  0  0  0  0  0  0  0  0  0
  152.2748  144.0851  161.0269 H   0  0  0  0  0  0  0  0  0  0  0  0
  153.1254  143.2321  158.8668 H   0  0  0  0  0  0  0  0  0  0  0  0
  151.3766  143.1059  158.9059 H   0  0  0  0  0  0  0  0  0  0  0  0
  150.8941  139.6772  153.3580 H   0  0  0  0  0  0  0  0  0  0  0  0
  151.5352  138.1643  153.9012 H   0  0  0  0  0  0  0  0  0  0  0  0
  148.6874  139.1242  154.5265 H   0  0  0  0  0  0  0  0  0  0  0  0
  149.0807  138.0613  153.1942 H   0  0  0  0  0  0  0  0  0  0  0  0
  148.8978  135.9663  153.5023 H   0  0  0  0  0  0  0  0  0  0  0  0
  149.5953  134.6418  155.9895 H   0  0  0  0  0  0  0  0  0  0  0  0
  147.8806  134.6339  155.6698 H   0  0  0  0  0  0  0  0  0  0  0  0
  149.9587  133.6454  153.6579 H   0  0  0  0  0  0  0  0  0  0  0  0
  146.9365  133.2281  153.7442 H   0  0  0  0  0  0  0  0  0  0  0  0
  148.0356  132.5694  152.5342 H   0  0  0  0  0  0  0  0  0  0  0  0
  147.8001  134.3078  152.6521 H   0  0  0  0  0  0  0  0  0  0  0  0
  148.3419  131.9422  155.6163 H   0  0  0  0  0  0  0  0  0  0  0  0
  150.0884  132.1746  155.6509 H   0  0  0  0  0  0  0  0  0  0  0  0
  149.3455  131.3207  154.3092 H   0  0  0  0  0  0  0  0  0  0  0  0
  1  2  1  0  0  0  0
  1 24  1  0  0  0  0
  1 25  1  0  0  0  0
  1 26  1  0  0  0  0
  2 14  2  0  0  0  0
  2  3  1  0  0  0  0
  3  4  2  0  0  0  0
  4  5  1  0  0  0  0
  4 11  1  0  0  0  0
  5 10  1  0  0  0  0
  5  6  1  0  0  0  0
  6  7  1  0  0  0  0
  6 27  1  0  0  0  0
  6 28  1  0  0  0  0
  7  8  1  0  0  0  0
  7 29  1  0  0  0  0
  7 30  1  0  0  0  0
  8  9  1  0  0  0  0
  9 10  1  0  0  0  0
  9 31  1  0  0  0  0
  9 32  1  0  0  0  0
 10 33  1  0  0  0  0
 10 34  1  0  0  0  0
 11 12  1  0  0  0  0
 12 13  2  0  0  0  0
 12 14  1  0  0  0  0
 14 15  1  0  0  0  0
 15 16  1  0  0  0  0
 15 35  1  0  0  0  0
 15 36  1  0  0  0  0
 16 17  1  0  0  0  0
 16 37  1  0  0  0  0
 16 38  1  0  0  0  0
 17 18  2  0  0  0  0
 17 19  1  0  0  0  0
 19 20  1  0  0  0  0
 19 39  1  0  0  0  0
 20 21  1  0  0  0  0
 20 40  1  0  0  0  0
 20 41  1  0  0  0  0
 21 22  1  0  0  0  0
 21 23  1  0  0  0  0
 21 42  1  0  0  0  0
 22 43  1  0  0  0  0
 22 44  1  0  0  0  0
 22 45  1  0  0  0  0
 23 46  1  0  0  0  0
 23 47  1  0  0  0  0
 23 48  1  0  0  0  0
M  CHG  1  11  -1
M  END
> <s_m_source_file>
AV-unprocessed.smi

> <i_m_source_file_index>
1501

> <i_lp_mmshare_version>
43012

> <i_f3d_flags>
0

> <s_epik_input>
W0NIMl0xW0NIMl1PW0NIMl1bQ0gyXU4xYyhuYzJbQ0gzXSlbbkhdYyg9TyljMltDSDJdW0NIMl1DKD1PKVtOSF1bQ0gyXVtDSF0oW0NIM10pW0NIM10=

> <s_epik_cmdline>
J2VwaWtfcHl0aG9uJywgJy1waCcsICc3LjAnLCAnLXRuJywgJzgnLCAnLW1hJywgJzIwMCcsICctbWV0YWxfYmluZGluZycsICctaW1hZScsICc8aW5maWxlLm1hZT4nLCAnLW9tYWUnLCAnPG91dGZpbGUubWFlPic=

> <r_lp_tautomer_probability>
1

> <r_epik_Ionization_Penalty>
5.04715

> <r_epik_Ionization_Penalty_Charging>
9.89309e-08

> <r_epik_Ionization_Penalty_Neutral>
5.04715

> <r_epik_State_Penalty>
2.57778

> <r_epik_Charging_Adjusted_Penalty>
2.57778

> <i_epik_Tot_Q>
-1

> <i_epik_Tot_abs_Q>
1

> <r_epik_Metal_State_Penalty>
0.1232

> <b_epik_Metal_Only>
0

> <s_lp_Force_Field>
OPLS_2005

> <r_lp_Energy>
25.0321

> <b_lp_Chiralities_Consistent>
1

> <s_lp_Variant>
AV-unprocessed.smi:1501-3

> <Gold.Version>
5.8.1

> <Gold.Id.Protein>
6NUR|6NUR_protein|mol2

> <Gold.PLP.Fitness>
50.9658

> <Gold.PLP.PLP>
-42.6121

> <Gold.PLP.part.hbond>
-2.1665

> <Gold.PLP.part.metal>
0.0000

> <Gold.PLP.part.buried>
-0.4597

> <Gold.PLP.part.nonpolar>
-38.4140

> <Gold.PLP.part.repulsive>
0.0875

> <Gold.PLP.ligand.clash>
0.0000

> <Gold.PLP.ligand.torsion>
0.4750

> <Gold.PLP.Chemscore.Hbond>
3.0000

> <Gold.PLP.Chemscore.CHOScore>
0.0000

> <Gold.PLP.Chemscore.Metal>
0.0000

> <Gold.Chemscore.Hbonds>
donor molecule, donor type, donor heavy atom, donor atom, acceptor molecule, acceptor atom, score
      L1  H    19    39       P1  7948  1.00
      P1  H  7997  8010       L1    11  1.70

> <Gold.PLP.Chemscore.Internal.Correction>
0.3038

> <Gold.Rescore>
     Score         DG    S(hbond)    S(metal)    S(lipo)     H(rot)  DE(clash)    DE(int)     intcor
     16.16     -16.80       1.38        0.00      96.60       1.79       0.13       0.52       ----

> <Gold.Chemscore.Fitness>
16.1560

> <Gold.Chemscore.DG>
-16.8023

> <Gold.Chemscore.ZeroCoef>
-5.4800

> <Gold.Chemscore.Hbond>
1.3762

> <Gold.Chemscore.Metal>
0.0000

> <Gold.Chemscore.Lipo>
96.5966

> <Gold.Chemscore.Internal_Hbond>
0.0000

> <Gold.Chemscore.DEClash>
0.1308

> <Gold.Chemscore.DEInternal>
0.5155

> <Gold.Chemscore.Rot>
1.7875

> <Gold.Chemscore.Internal.Correction>
   9.000000E+99

> <Gold.Chemscore.Hbonds>
donor molecule, donor type, donor heavy atom, donor atom, acceptor molecule, acceptor atom, score
      L1  H    19    39       P1  7948  0.97
      P1  H  7997  8010       L1    11  0.11

> <Gold.Chemscore.Hbond.Weighted>
-4.5965

> <Gold.Chemscore.Metal.Weighted>
-0.0000

> <Gold.Chemscore.Lipo.Weighted>
-11.3018

> <Gold.Chemscore.Internal_Hbond.Weighted>
0.0000

> <Gold.Chemscore.DEClash.Weighted>
0.1308

> <Gold.Chemscore.DEInternal.Weighted>
0.5155

> <Gold.Chemscore.Rot.Weighted>
4.5760

> <Gold.Chemscore.Internal.Correction.Weighted>
   9.000000E+99

> <Gold.Protein.RotatedTorsions>
[ 6907 6896 6895 6894 ] final  -55.27 input  -60.11 | X-H torsion
[ 7974 7965 7964 7962 ] final  -86.20 input  175.53 | X-H torsion
[ 8008 7997 7996 7995 ] final   38.72 input   59.86 | X-H torsion
[ 10167 10162 10161 10158 ] final  -32.08 input  -65.29 | X-H torsion
[ 10718 10713 10712 10709 ] final  136.13 input   66.30 | X-H torsion
[ 10763 10752 10751 10750 ] final -145.09 input  -60.55 | X-H torsion
[ 11005 11000 10999 10996 ] final   75.78 input  -57.11 | X-H torsion

> <Gold.Protein.ActiveResidues>
 VAL166  LYS551  ARG553  GLY616  TRP617  ASP618  TYR619  PRO620  LYS621  CYS622 
 ASP623  PHE694  ASN695  SER759  ASP760  ASP761  ALA762  ILE779  LEU786  VAL792 
 PHE793  MET794  SER795  GLU796  ALA797  LYS798  CYS799  TRP800  GLU811  SER814 

> <Gold.Protein.RotatedAtoms>
  150.8266  134.7499  159.6817 H   0  0  0  0  0  0  0  0  0  0  0  0  # atno 6907 bound_to 6896
  152.4376  134.5653  159.9915 H   0  0  0  0  0  0  0  0  0  0  0  0  # atno 6908 bound_to 6896
  151.5824  133.3338  159.3047 H   0  0  0  0  0  0  0  0  0  0  0  0  # atno 6909 bound_to 6896
  145.4830  140.9556  143.1854 H   0  0  0  0  0  0  0  0  0  0  0  0  # atno 7974 bound_to 7965
  155.2248  140.3333  155.4311 H   0  0  0  0  0  0  0  0  0  0  0  0  # atno 8008 bound_to 7997
  156.2319  140.1854  156.7268 H   0  0  0  0  0  0  0  0  0  0  0  0  # atno 8009 bound_to 7997
  154.5992  140.0626  156.9330 H   0  0  0  0  0  0  0  0  0  0  0  0  # atno 8010 bound_to 7997
  140.7227  143.3722  151.1757 H   0  0  0  0  0  0  0  0  0  0  0  0  # atno 10167 bound_to 10162
  157.4499  131.1065  151.0046 H   0  0  0  0  0  0  0  0  0  0  0  0  # atno 10718 bound_to 10713
  154.8399  135.3423  154.6449 H   0  0  0  0  0  0  0  0  0  0  0  0  # atno 10763 bound_to 10752
  153.7060  135.6967  153.5054 H   0  0  0  0  0  0  0  0  0  0  0  0  # atno 10764 bound_to 10752
  153.2487  135.4360  155.0729 H   0  0  0  0  0  0  0  0  0  0  0  0  # atno 10765 bound_to 10752
  139.9328  134.7546  156.1313 H   0  0  0  0  0  0  0  0  0  0  0  0  # atno 11005 bound_to 11000
  144.7877  139.6392  143.7127 LP  0  0  0  0  0  0  0  0  0  0  0  0  # atno 17320 bound_to 7965
  146.2329  139.5849  142.9543 LP  0  0  0  0  0  0  0  0  0  0  0  0  # atno 17321 bound_to 7965
  139.7295  143.9095  152.3014 LP  0  0  0  0  0  0  0  0  0  0  0  0  # atno 17342 bound_to 10162
  139.8879  144.6982  150.8803 LP  0  0  0  0  0  0  0  0  0  0  0  0  # atno 17343 bound_to 10162
  157.0880  130.5930  149.5434 LP  0  0  0  0  0  0  0  0  0  0  0  0  # atno 17370 bound_to 10713
  155.9982  130.5056  150.7564 LP  0  0  0  0  0  0  0  0  0  0  0  0  # atno 17371 bound_to 10713
  141.0926  133.6708  156.2574 LP  0  0  0  0  0  0  0  0  0  0  0  0  # atno 17394 bound_to 11000
  140.6156  134.5414  157.5540 LP  0  0  0  0  0  0  0  0  0  0  0  0  # atno 17395 bound_to 11000

$$$$
