AV-unprocessed.smi:1031|AV-procd|sdf|4481|dock8
  -GOLD-   22720 2463D 1   1.00000     0.00000
 Structure written by MMmdl.
 35 36  0  0  0  0  0  0  0  0  1 V2000
  149.6296  141.7265  155.0856 C   0  0  0  0  0  0  0  0  0  0  0  0
  149.7125  141.2350  156.5370 C   0  0  1  0  0  0  0  0  0  0  0  0
  149.8544  139.6991  156.6026 C   0  0  0  0  0  0  0  0  0  0  0  0
  150.8647  139.1873  155.6937 N   0  0  0  0  0  0  0  0  0  0  0  0
  152.2001  139.5241  155.6186 C   0  0  0  0  0  0  0  0  0  0  0  0
  152.7533  138.7720  154.6225 C   0  0  0  0  0  0  0  0  0  0  0  0
  151.6618  137.9981  154.1380 C   0  0  0  0  0  0  0  0  0  0  0  0
  150.5318  138.2520  154.7781 N   0  0  0  0  0  0  0  0  0  0  0  0
  150.8426  141.8909  157.1939 N   0  0  0  0  0  0  0  0  0  0  0  0
  150.7805  142.6264  158.3157 C   0  0  0  0  0  0  0  0  0  0  0  0
  149.7325  142.8448  158.9247 O   0  0  0  0  0  0  0  0  0  0  0  0
  152.1124  143.1921  158.8338 C   0  0  0  0  0  0  0  0  0  0  0  0
  152.4110  142.7303  160.2798 C   0  0  0  0  0  0  0  0  0  0  0  0
  152.5027  143.9953  161.1432 C   0  0  0  0  0  0  0  0  0  0  0  0
  151.7809  145.0798  160.3488 C   0  0  0  0  0  0  0  0  0  0  0  0
  152.0906  144.7316  158.8940 C   0  0  0  0  0  0  0  0  0  0  0  0
  148.7772  141.2839  154.5697 H   0  0  0  0  0  0  0  0  0  0  0  0
  150.5287  141.4672  154.5254 H   0  0  0  0  0  0  0  0  0  0  0  0
  149.5115  142.8099  155.0440 H   0  0  0  0  0  0  0  0  0  0  0  0
  148.7801  141.5228  157.0262 H   0  0  0  0  0  0  0  0  0  0  0  0
  150.1248  139.3908  157.6137 H   0  0  0  0  0  0  0  0  0  0  0  0
  148.9030  139.2155  156.3760 H   0  0  0  0  0  0  0  0  0  0  0  0
  152.6417  140.2567  156.2782 H   0  0  0  0  0  0  0  0  0  0  0  0
  153.7811  138.7727  154.2917 H   0  0  0  0  0  0  0  0  0  0  0  0
  151.6569  137.2649  153.3449 H   0  0  0  0  0  0  0  0  0  0  0  0
  151.7481  141.7675  156.7642 H   0  0  0  0  0  0  0  0  0  0  0  0
  152.9157  142.8712  158.1679 H   0  0  0  0  0  0  0  0  0  0  0  0
  151.6276  142.0769  160.6684 H   0  0  0  0  0  0  0  0  0  0  0  0
  153.3404  142.1622  160.3296 H   0  0  0  0  0  0  0  0  0  0  0  0
  152.0773  143.8553  162.1375 H   0  0  0  0  0  0  0  0  0  0  0  0
  153.5495  144.2746  161.2687 H   0  0  0  0  0  0  0  0  0  0  0  0
  150.7065  145.0163  160.5263 H   0  0  0  0  0  0  0  0  0  0  0  0
  152.1055  146.0851  160.6188 H   0  0  0  0  0  0  0  0  0  0  0  0
  153.0748  145.1187  158.6272 H   0  0  0  0  0  0  0  0  0  0  0  0
  151.3738  145.1852  158.2075 H   0  0  0  0  0  0  0  0  0  0  0  0
  1  2  1  0  0  0  0
  1 17  1  0  0  0  0
  1 18  1  0  0  0  0
  1 19  1  0  0  0  0
  2  3  1  0  0  0  0
  2  9  1  0  0  0  0
  2 20  1  0  0  0  0
  3  4  1  0  0  0  0
  3 21  1  0  0  0  0
  3 22  1  0  0  0  0
  4  8  1  0  0  0  0
  4  5  1  0  0  0  0
  5  6  2  0  0  0  0
  5 23  1  0  0  0  0
  6  7  1  0  0  0  0
  6 24  1  0  0  0  0
  7  8  2  0  0  0  0
  7 25  1  0  0  0  0
  9 10  1  0  0  0  0
  9 26  1  0  0  0  0
 10 11  2  0  0  0  0
 10 12  1  0  0  0  0
 12 16  1  0  0  0  0
 12 13  1  0  0  0  0
 12 27  1  0  0  0  0
 13 14  1  0  0  0  0
 13 28  1  0  0  0  0
 13 29  1  0  0  0  0
 14 15  1  0  0  0  0
 14 30  1  0  0  0  0
 14 31  1  0  0  0  0
 15 16  1  0  0  0  0
 15 32  1  0  0  0  0
 15 33  1  0  0  0  0
 16 34  1  0  0  0  0
 16 35  1  0  0  0  0
M  END
> <s_m_source_file>
AV-unprocessed.smi

> <i_m_source_file_index>
1031

> <i_lp_mmshare_version>
43012

> <i_f3d_flags>
0

> <s_epik_input>
bjFbY0hdW2NIXVtjSF1uMVtDSDJdW0NAQEhdKFtDSDNdKVtOSF1DKD1PKVtDSF0yW0NIMl1bQ0gyXVtDSDJdW0NIMl0y

> <s_epik_cmdline>
J2VwaWtfcHl0aG9uJywgJy1waCcsICc3LjAnLCAnLXRuJywgJzgnLCAnLW1hJywgJzIwMCcsICctbWV0YWxfYmluZGluZycsICctaW1hZScsICc8aW5maWxlLm1hZT4nLCAnLW9tYWUnLCAnPG91dGZpbGUubWFlPic=

> <r_lp_tautomer_probability>
1

> <r_epik_Ionization_Penalty>
0.000326659

> <r_epik_Ionization_Penalty_Charging>
0

> <r_epik_Ionization_Penalty_Neutral>
0.000326659

> <r_epik_State_Penalty>
-0

> <r_epik_Charging_Adjusted_Penalty>
0

> <i_epik_Tot_Q>
0

> <i_epik_Tot_abs_Q>
0

> <r_epik_Metal_State_Penalty>
-0

> <b_epik_Metal_Only>
0

> <s_lp_Force_Field>
OPLS_2005

> <r_lp_Energy>
19.4397

> <b_lp_Chiralities_Consistent>
1

> <s_lp_Variant>
AV-unprocessed.smi:1031-2

> <Gold.Version>
5.8.1

> <Gold.Id.Protein>
6NUR|6NUR_protein|mol2

> <Gold.PLP.Fitness>
41.3308

> <Gold.PLP.PLP>
-38.5806

> <Gold.PLP.part.hbond>
-0.4701

> <Gold.PLP.part.metal>
0.0000

> <Gold.PLP.part.buried>
-4.4809

> <Gold.PLP.part.nonpolar>
-33.0365

> <Gold.PLP.part.repulsive>
0.3105

> <Gold.PLP.ligand.clash>
0.0000

> <Gold.PLP.ligand.torsion>
0.1344

> <Gold.PLP.Chemscore.Hbond>
0.0000

> <Gold.PLP.Chemscore.CHOScore>
1.0000

> <Gold.PLP.Chemscore.Metal>
0.0000

> <Gold.Chemscore.Hbonds>
donor molecule, donor type, donor heavy atom, donor atom, acceptor molecule, acceptor atom, score
      L1  C     7    25       P1  7949  1.00

> <Gold.PLP.Chemscore.Internal.Correction>
0.0191

> <Gold.Rescore>
     Score         DG    S(hbond)    S(metal)    S(lipo)     H(rot)  DE(clash)    DE(int)     intcor
     13.69     -13.78       0.00        0.00     104.10       1.51       0.01       0.07       ----

> <Gold.Chemscore.Fitness>
13.6928

> <Gold.Chemscore.DG>
-13.7826

> <Gold.Chemscore.ZeroCoef>
-5.4800

> <Gold.Chemscore.Hbond>
0.0000

> <Gold.Chemscore.Metal>
0.0000

> <Gold.Chemscore.Lipo>
104.1016

> <Gold.Chemscore.Internal_Hbond>
0.0000

> <Gold.Chemscore.DEClash>
0.0149

> <Gold.Chemscore.DEInternal>
0.0749

> <Gold.Chemscore.Rot>
1.5146

> <Gold.Chemscore.Internal.Correction>
   9.000000E+99

> <Gold.Chemscore.Hbond.Weighted>
-0.0000

> <Gold.Chemscore.Metal.Weighted>
-0.0000

> <Gold.Chemscore.Lipo.Weighted>
-12.1799

> <Gold.Chemscore.Internal_Hbond.Weighted>
0.0000

> <Gold.Chemscore.DEClash.Weighted>
0.0149

> <Gold.Chemscore.DEInternal.Weighted>
0.0749

> <Gold.Chemscore.Rot.Weighted>
3.8773

> <Gold.Chemscore.Internal.Correction.Weighted>
   9.000000E+99

> <Gold.Protein.RotatedTorsions>
[ 6907 6896 6895 6894 ] final  -39.62 input  -60.11 | X-H torsion
[ 7974 7965 7964 7962 ] final   72.48 input  175.53 | X-H torsion
[ 8008 7997 7996 7995 ] final    2.88 input   59.86 | X-H torsion
[ 10167 10162 10161 10158 ] final  147.11 input  -65.29 | X-H torsion
[ 10718 10713 10712 10709 ] final -175.77 input   66.30 | X-H torsion
[ 10763 10752 10751 10750 ] final  140.75 input  -60.55 | X-H torsion
[ 11005 11000 10999 10996 ] final  -17.55 input  -57.11 | X-H torsion

> <Gold.Protein.ActiveResidues>
 VAL166  LYS551  ARG553  GLY616  TRP617  ASP618  TYR619  PRO620  LYS621  CYS622 
 ASP623  PHE694  ASN695  SER759  ASP760  ASP761  ALA762  ILE779  LEU786  VAL792 
 PHE793  MET794  SER795  GLU796  ALA797  LYS798  CYS799  TRP800  GLU811  SER814 

> <Gold.Protein.RotatedAtoms>
  150.9882  134.9222  159.7883 H   0  0  0  0  0  0  0  0  0  0  0  0  # atno 6907 bound_to 6896
  152.5243  134.3318  159.9195 H   0  0  0  0  0  0  0  0  0  0  0  0  # atno 6908 bound_to 6896
  151.3324  133.3954  159.2698 H   0  0  0  0  0  0  0  0  0  0  0  0  # atno 6909 bound_to 6896
  145.7528  139.2767  143.1421 H   0  0  0  0  0  0  0  0  0  0  0  0  # atno 7974 bound_to 7965
  154.6969  140.2665  155.6758 H   0  0  0  0  0  0  0  0  0  0  0  0  # atno 8008 bound_to 7997
  156.2751  140.2780  156.1489 H   0  0  0  0  0  0  0  0  0  0  0  0  # atno 8009 bound_to 7997
  155.0819  140.0372  157.2632 H   0  0  0  0  0  0  0  0  0  0  0  0  # atno 8010 bound_to 7997
  139.4895  144.5780  151.6927 H   0  0  0  0  0  0  0  0  0  0  0  0  # atno 10167 bound_to 10162
  156.8049  130.9565  151.3117 H   0  0  0  0  0  0  0  0  0  0  0  0  # atno 10718 bound_to 10713
  153.9278  135.2993  155.3446 H   0  0  0  0  0  0  0  0  0  0  0  0  # atno 10763 bound_to 10752
  154.7542  135.4965  153.9348 H   0  0  0  0  0  0  0  0  0  0  0  0  # atno 10764 bound_to 10752
  153.1107  135.6758  153.9609 H   0  0  0  0  0  0  0  0  0  0  0  0  # atno 10765 bound_to 10752
  140.8179  133.8090  155.9630 H   0  0  0  0  0  0  0  0  0  0  0  0  # atno 11005 bound_to 11000
  146.0340  140.8230  142.9862 LP  0  0  0  0  0  0  0  0  0  0  0  0  # atno 17320 bound_to 7965
  144.6846  140.2811  143.7292 LP  0  0  0  0  0  0  0  0  0  0  0  0  # atno 17321 bound_to 7965
  140.5380  144.0624  150.6078 LP  0  0  0  0  0  0  0  0  0  0  0  0  # atno 17342 bound_to 10162
  140.3637  143.2893  152.0355 LP  0  0  0  0  0  0  0  0  0  0  0  0  # atno 17343 bound_to 10162
  157.6535  130.8905  149.9682 LP  0  0  0  0  0  0  0  0  0  0  0  0  # atno 17370 bound_to 10713
  156.1079  130.3651  150.0101 LP  0  0  0  0  0  0  0  0  0  0  0  0  # atno 17371 bound_to 10713
  140.9129  134.2238  157.4974 LP  0  0  0  0  0  0  0  0  0  0  0  0  # atno 17394 bound_to 11000
  139.8710  134.9758  156.4897 LP  0  0  0  0  0  0  0  0  0  0  0  0  # atno 17395 bound_to 11000

$$$$
