AV-unprocessed.smi:65|AV-procd|sdf|615|dock8
  -GOLD-   2262016503D 1   1.00000     0.00000
 Structure written by MMmdl.
 26 27  0  0  0  0  0  0  0  0  2 V2000
  146.8408  138.2710  151.8734 N   0  0  0  0  0  0  0  0  0  0  0  0
  147.4452  139.1754  152.7120 C   0  0  0  0  0  0  0  0  0  0  0  0
  146.7999  140.3110  152.9928 N   0  0  0  0  0  0  0  0  0  0  0  0
  147.3876  141.2035  153.8121 C   0  0  0  0  0  0  0  0  0  0  0  0
  148.6529  140.9641  154.3734 C   0  0  0  0  0  0  0  0  0  0  0  0
  149.2853  139.7437  154.0452 C   0  0  0  0  0  0  0  0  0  0  0  0
  150.5552  139.3927  154.5413 N   0  0  0  0  0  0  0  0  0  0  0  0
  151.2140  140.1894  155.5686 C   0  0  0  0  0  0  0  0  0  0  0  0
  152.1140  139.2123  156.3356 C   0  0  0  0  0  0  0  0  0  0  0  0
  152.3190  138.0595  155.3511 C   0  0  1  0  0  0  0  0  0  0  0  0
  152.6180  136.8405  155.9968 O   0  0  0  0  0  0  0  0  0  0  0  0
  150.9850  138.0049  154.6086 C   0  0  0  0  0  0  0  0  0  0  0  0
  148.6536  138.8765  153.2088 N   0  3  0  0  0  0  0  0  0  0  0  0
  147.3018  137.4030  151.6408 H   0  0  0  0  0  0  0  0  0  0  0  0
  145.9368  138.4671  151.4686 H   0  0  0  0  0  0  0  0  0  0  0  0
  146.8453  142.1143  154.0193 H   0  0  0  0  0  0  0  0  0  0  0  0
  149.1102  141.6974  155.0211 H   0  0  0  0  0  0  0  0  0  0  0  0
  151.8084  140.9649  155.0846 H   0  0  0  0  0  0  0  0  0  0  0  0
  150.5026  140.6709  156.2405 H   0  0  0  0  0  0  0  0  0  0  0  0
  153.0497  139.6651  156.6650 H   0  0  0  0  0  0  0  0  0  0  0  0
  151.5840  138.8567  157.2209 H   0  0  0  0  0  0  0  0  0  0  0  0
  153.1198  138.3095  154.6536 H   0  0  0  0  0  0  0  0  0  0  0  0
  152.9869  137.0303  156.8462 H   0  0  0  0  0  0  0  0  0  0  0  0
  150.2485  137.4273  155.1698 H   0  0  0  0  0  0  0  0  0  0  0  0
  151.0916  137.5628  153.6173 H   0  0  0  0  0  0  0  0  0  0  0  0
  149.1071  137.9962  152.9650 H   0  0  0  0  0  0  0  0  0  0  0  0
  1  2  1  0  0  0  0
  1 14  1  0  0  0  0
  1 15  1  0  0  0  0
  2 13  1  0  0  0  0
  2  3  2  0  0  0  0
  3  4  1  0  0  0  0
  4  5  2  0  0  0  0
  4 16  1  0  0  0  0
  5  6  1  0  0  0  0
  5 17  1  0  0  0  0
  6  7  1  0  0  0  0
  6 13  2  0  0  0  0
  7 12  1  0  0  0  0
  7  8  1  0  0  0  0
  8  9  1  0  0  0  0
  8 18  1  0  0  0  0
  8 19  1  0  0  0  0
  9 10  1  0  0  0  0
  9 20  1  0  0  0  0
  9 21  1  0  0  0  0
 10 11  1  0  0  0  0
 10 12  1  0  0  0  0
 10 22  1  0  0  0  0
 11 23  1  0  0  0  0
 12 24  1  0  0  0  0
 12 25  1  0  0  0  0
 13 26  1  0  0  0  0
M  CHG  1  13   1
M  END
> <s_m_source_file>
AV-unprocessed.smi

> <i_m_source_file_index>
65

> <i_lp_mmshare_version>
43012

> <i_f3d_flags>
0

> <s_epik_input>
W05IMl1jMW5bY0hdW2NIXWMobjEpTjJbQ0gyXVtDSDJdW0NAQEhdKFtPSF0pW0NIMl0y

> <s_epik_cmdline>
J2VwaWtfcHl0aG9uJywgJy1waCcsICc3LjAnLCAnLXRuJywgJzgnLCAnLW1hJywgJzIwMCcsICctbWV0YWxfYmluZGluZycsICctaW1hZScsICc8aW5maWxlLm1hZT4nLCAnLW9tYWUnLCAnPG91dGZpbGUubWFlPic=

> <r_lp_tautomer_probability>
0.424989

> <r_epik_Ionization_Penalty>
0.57487

> <r_epik_Ionization_Penalty_Charging>
0.574865

> <r_epik_Ionization_Penalty_Neutral>
4.40886e-06

> <r_epik_State_Penalty>
0.845539

> <r_epik_Charging_Adjusted_Penalty>
1.4204

> <i_epik_Tot_Q>
1

> <i_epik_Tot_abs_Q>
1

> <r_epik_Metal_State_Penalty>
1.14248

> <b_epik_Metal_Only>
0

> <s_lp_Force_Field>
OPLS_2005

> <r_lp_Energy>
20.8145

> <b_lp_Chiralities_Consistent>
1

> <s_lp_Variant>
AV-unprocessed.smi:65-5

> <Gold.Version>
5.8.1

> <Gold.Id.Protein>
6NUR|6NUR_protein|mol2

> <Gold.PLP.Fitness>
39.6809

> <Gold.PLP.PLP>
-26.1216

> <Gold.PLP.part.hbond>
-4.0268

> <Gold.PLP.part.metal>
0.0000

> <Gold.PLP.part.buried>
1.8412

> <Gold.PLP.part.nonpolar>
-24.5366

> <Gold.PLP.part.repulsive>
0.3934

> <Gold.PLP.ligand.clash>
0.0000

> <Gold.PLP.ligand.torsion>
0.1264

> <Gold.PLP.Chemscore.Hbond>
4.5333

> <Gold.PLP.Chemscore.CHOScore>
0.0000

> <Gold.PLP.Chemscore.Metal>
0.0000

> <Gold.Chemscore.Hbonds>
donor molecule, donor type, donor heavy atom, donor atom, acceptor molecule, acceptor atom, score
      L1  H     1    14       P1  7948  1.92
      L1  H    13    26       P1  7948  1.75
      P1  H 10752 10764       L1    11  0.86

> <Gold.PLP.Chemscore.Internal.Correction>
0.2122

> <Gold.Rescore>
     Score         DG    S(hbond)    S(metal)    S(lipo)     H(rot)  DE(clash)    DE(int)     intcor
     15.64     -15.97       2.60        0.00      37.17       1.00       0.20       0.13       ----

> <Gold.Chemscore.Fitness>
15.6379

> <Gold.Chemscore.DG>
-15.9652

> <Gold.Chemscore.ZeroCoef>
-5.4800

> <Gold.Chemscore.Hbond>
2.6037

> <Gold.Chemscore.Metal>
0.0000

> <Gold.Chemscore.Lipo>
37.1680

> <Gold.Chemscore.Internal_Hbond>
0.0000

> <Gold.Chemscore.DEClash>
0.2009

> <Gold.Chemscore.DEInternal>
0.1264

> <Gold.Chemscore.Rot>
1.0000

> <Gold.Chemscore.Internal.Correction>
   9.000000E+99

> <Gold.Chemscore.Hbonds>
donor molecule, donor type, donor heavy atom, donor atom, acceptor molecule, acceptor atom, score
      L1  H     1    14       P1  7948  0.88
      L1  H    13    26       P1  7948  0.80
      P1  H 10752 10764       L1    11  0.81

> <Gold.Chemscore.Hbond.Weighted>
-8.6965

> <Gold.Chemscore.Metal.Weighted>
-0.0000

> <Gold.Chemscore.Lipo.Weighted>
-4.3487

> <Gold.Chemscore.Internal_Hbond.Weighted>
0.0000

> <Gold.Chemscore.DEClash.Weighted>
0.2009

> <Gold.Chemscore.DEInternal.Weighted>
0.1264

> <Gold.Chemscore.Rot.Weighted>
2.5600

> <Gold.Chemscore.Internal.Correction.Weighted>
   9.000000E+99

> <Gold.Protein.RotatedTorsions>
[ 6907 6896 6895 6894 ] final   98.48 input  -60.11 | X-H torsion
[ 7974 7965 7964 7962 ] final   98.17 input  175.53 | X-H torsion
[ 8008 7997 7996 7995 ] final  -15.72 input   59.86 | X-H torsion
[ 10167 10162 10161 10158 ] final -137.97 input  -65.29 | X-H torsion
[ 10718 10713 10712 10709 ] final    9.28 input   66.30 | X-H torsion
[ 10763 10752 10751 10750 ] final  -24.94 input  -60.55 | X-H torsion
[ 11005 11000 10999 10996 ] final  -32.35 input  -57.11 | X-H torsion

> <Gold.Protein.ActiveResidues>
 VAL166  LYS551  ARG553  GLY616  TRP617  ASP618  TYR619  PRO620  LYS621  CYS622 
 ASP623  PHE694  ASN695  SER759  ASP760  ASP761  ALA762  ILE779  LEU786  VAL792 
 PHE793  MET794  SER795  GLU796  ALA797  LYS798  CYS799  TRP800  GLU811  SER814 

> <Gold.Protein.RotatedAtoms>
  152.5408  134.0574  159.8136 H   0  0  0  0  0  0  0  0  0  0  0  0  # atno 6907 bound_to 6896
  151.0707  133.5461  159.2634 H   0  0  0  0  0  0  0  0  0  0  0  0  # atno 6908 bound_to 6896
  151.2325  135.0568  159.9047 H   0  0  0  0  0  0  0  0  0  0  0  0  # atno 6909 bound_to 6896
  145.4158  139.2328  143.3223 H   0  0  0  0  0  0  0  0  0  0  0  0  # atno 7974 bound_to 7965
  154.5108  140.2189  155.9160 H   0  0  0  0  0  0  0  0  0  0  0  0  # atno 8008 bound_to 7997
  156.1550  140.3154  155.8677 H   0  0  0  0  0  0  0  0  0  0  0  0  # atno 8009 bound_to 7997
  155.3864  140.0475  157.3033 H   0  0  0  0  0  0  0  0  0  0  0  0  # atno 8010 bound_to 7997
  139.8524  143.7181  152.2657 H   0  0  0  0  0  0  0  0  0  0  0  0  # atno 10167 bound_to 10162
  156.9639  130.5943  149.5664 H   0  0  0  0  0  0  0  0  0  0  0  0  # atno 10718 bound_to 10713
  153.6919  135.6961  153.5087 H   0  0  0  0  0  0  0  0  0  0  0  0  # atno 10763 bound_to 10752
  153.2407  135.4307  155.0694 H   0  0  0  0  0  0  0  0  0  0  0  0  # atno 10764 bound_to 10752
  154.8370  135.3507  154.6460 H   0  0  0  0  0  0  0  0  0  0  0  0  # atno 10765 bound_to 10752
  140.9544  133.7201  156.1271 H   0  0  0  0  0  0  0  0  0  0  0  0  # atno 11005 bound_to 11000
  146.2682  140.4875  142.8825 LP  0  0  0  0  0  0  0  0  0  0  0  0  # atno 17320 bound_to 7965
  144.8278  140.6658  143.6310 LP  0  0  0  0  0  0  0  0  0  0  0  0  # atno 17321 bound_to 7965
  139.7452  144.7549  151.0590 LP  0  0  0  0  0  0  0  0  0  0  0  0  # atno 17342 bound_to 10162
  140.7786  143.4924  150.9875 LP  0  0  0  0  0  0  0  0  0  0  0  0  # atno 17343 bound_to 10162
  156.0310  130.5402  150.8535 LP  0  0  0  0  0  0  0  0  0  0  0  0  # atno 17370 bound_to 10713
  157.5639  131.0946  150.9519 LP  0  0  0  0  0  0  0  0  0  0  0  0  # atno 17371 bound_to 10713
  140.7556  134.3996  157.5534 LP  0  0  0  0  0  0  0  0  0  0  0  0  # atno 17394 bound_to 11000
  139.8857  134.8928  156.2624 LP  0  0  0  0  0  0  0  0  0  0  0  0  # atno 17395 bound_to 11000

$$$$
