AV-unprocessed.smi:1430|AV-procd|sdf|5827|dock2
  -GOLD-   22720 5483D 1   1.00000     0.00000
 Structure written by MMmdl.
 47 48  0  0  0  0  0  0  0  0  2 V2000
  152.3677  141.5430  158.4876 C   0  0  0  0  0  0  0  0  0  0  0  0
  152.8227  140.3990  157.7739 O   0  0  0  0  0  0  0  0  0  0  0  0
  152.0408  139.9143  156.7455 C   0  0  0  0  0  0  0  0  0  0  0  0
  152.3831  138.6775  156.1640 C   0  0  0  0  0  0  0  0  0  0  0  0
  151.5910  138.1750  155.1140 C   0  0  0  0  0  0  0  0  0  0  0  0
  150.4713  138.9253  154.6815 C   0  0  0  0  0  0  0  0  0  0  0  0
  149.6050  138.5388  153.6228 N   0  0  0  0  0  0  0  0  0  0  0  0
  148.5256  139.1810  153.1451 C   0  0  0  0  0  0  0  0  0  0  0  0
  148.1149  140.2739  153.5324 O   0  0  0  0  0  0  0  0  0  0  0  0
  147.9356  138.4772  152.1686 N   0  0  0  0  0  0  0  0  0  0  0  0
  146.7441  138.8904  151.4287 C   0  0  0  0  0  0  0  0  0  0  0  0
  146.1087  137.7561  150.5930 C   0  0  0  0  0  0  0  0  0  0  0  0
  146.1006  136.4477  151.2941 N   0  3  1  0  0  0  0  0  0  0  0  0
  145.6526  136.5488  152.7009 C   0  0  0  0  0  0  0  0  0  0  0  0
  145.8051  135.1887  153.4052 C   0  0  1  0  0  0  0  0  0  0  0  0
  145.2698  135.2219  154.8407 C   0  0  0  0  0  0  0  0  0  0  0  0
  145.0770  134.1959  152.6860 O   0  0  0  0  0  0  0  0  0  0  0  0
  145.4522  134.0460  151.3159 C   0  0  2  0  0  0  0  0  0  0  0  0
  146.8316  133.3816  151.1571 C   0  0  0  0  0  0  0  0  0  0  0  0
  145.3365  135.3961  150.5825 C   0  0  0  0  0  0  0  0  0  0  0  0
  150.2225  140.1575  155.3209 C   0  0  0  0  0  0  0  0  0  0  0  0
  150.9776  140.6449  156.3276 N   0  0  0  0  0  0  0  0  0  0  0  0
  153.0922  141.7973  159.2611 H   0  0  0  0  0  0  0  0  0  0  0  0
  151.4126  141.3524  158.9791 H   0  0  0  0  0  0  0  0  0  0  0  0
  152.2674  142.4089  157.8317 H   0  0  0  0  0  0  0  0  0  0  0  0
  153.2419  138.1248  156.5153 H   0  0  0  0  0  0  0  0  0  0  0  0
  151.8680  137.2376  154.6581 H   0  0  0  0  0  0  0  0  0  0  0  0
  149.8656  137.6894  153.1431 H   0  0  0  0  0  0  0  0  0  0  0  0
  148.3503  137.5953  151.9040 H   0  0  0  0  0  0  0  0  0  0  0  0
  146.0078  139.3063  152.1182 H   0  0  0  0  0  0  0  0  0  0  0  0
  147.0369  139.7100  150.7724 H   0  0  0  0  0  0  0  0  0  0  0  0
  145.0786  138.0370  150.3704 H   0  0  0  0  0  0  0  0  0  0  0  0
  146.6100  137.6643  149.6283 H   0  0  0  0  0  0  0  0  0  0  0  0
  146.2473  137.2987  153.2245 H   0  0  0  0  0  0  0  0  0  0  0  0
  144.6141  136.8829  152.7315 H   0  0  0  0  0  0  0  0  0  0  0  0
  146.8596  134.9140  153.4450 H   0  0  0  0  0  0  0  0  0  0  0  0
  145.7987  135.9634  155.4402 H   0  0  0  0  0  0  0  0  0  0  0  0
  145.3947  134.2537  155.3263 H   0  0  0  0  0  0  0  0  0  0  0  0
  144.2083  135.4706  154.8614 H   0  0  0  0  0  0  0  0  0  0  0  0
  144.7226  133.3657  150.8757 H   0  0  0  0  0  0  0  0  0  0  0  0
  147.0344  133.1603  150.1089 H   0  0  0  0  0  0  0  0  0  0  0  0
  146.8749  132.4403  151.7054 H   0  0  0  0  0  0  0  0  0  0  0  0
  147.6423  134.0159  151.5151 H   0  0  0  0  0  0  0  0  0  0  0  0
  144.2887  135.6951  150.5236 H   0  0  0  0  0  0  0  0  0  0  0  0
  145.6913  135.2892  149.5573 H   0  0  0  0  0  0  0  0  0  0  0  0
  149.3882  140.7734  155.0181 H   0  0  0  0  0  0  0  0  0  0  0  0
  147.0626  136.1416  151.3276 H   0  0  0  0  0  0  0  0  0  0  0  0
  1  2  1  0  0  0  0
  1 23  1  0  0  0  0
  1 24  1  0  0  0  0
  1 25  1  0  0  0  0
  2  3  1  0  0  0  0
  3 22  1  0  0  0  0
  3  4  2  0  0  0  0
  4  5  1  0  0  0  0
  4 26  1  0  0  0  0
  5  6  2  0  0  0  0
  5 27  1  0  0  0  0
  6  7  1  0  0  0  0
  6 21  1  0  0  0  0
  7  8  1  0  0  0  0
  7 28  1  0  0  0  0
  8  9  2  0  0  0  0
  8 10  1  0  0  0  0
 10 11  1  0  0  0  0
 10 29  1  0  0  0  0
 11 12  1  0  0  0  0
 11 30  1  0  0  0  0
 11 31  1  0  0  0  0
 12 13  1  0  0  0  0
 12 32  1  0  0  0  0
 12 33  1  0  0  0  0
 13 20  1  0  0  0  0
 13 14  1  0  0  0  0
 13 47  1  0  0  0  0
 14 15  1  0  0  0  0
 14 34  1  0  0  0  0
 14 35  1  0  0  0  0
 15 16  1  0  0  0  0
 15 17  1  0  0  0  0
 15 36  1  0  0  0  0
 16 37  1  0  0  0  0
 16 38  1  0  0  0  0
 16 39  1  0  0  0  0
 17 18  1  0  0  0  0
 18 19  1  0  0  0  0
 18 20  1  0  0  0  0
 18 40  1  0  0  0  0
 19 41  1  0  0  0  0
 19 42  1  0  0  0  0
 19 43  1  0  0  0  0
 20 44  1  0  0  0  0
 20 45  1  0  0  0  0
 21 22  2  0  0  0  0
 21 46  1  0  0  0  0
M  CHG  1  13   1
M  END
> <s_m_source_file>
AV-unprocessed.smi

> <i_m_source_file_index>
1430

> <i_lp_mmshare_version>
43012

> <i_f3d_flags>
0

> <s_epik_input>
W0NIM11PYzFbY0hdW2NIXWMoW2NIXW4xKVtOSF1DKD1PKVtOSF1bQ0gyXVtDSDJdTjJbQ0gyXVtDQEBIXShbQ0gzXSlPW0NAQEhdKFtDSDNdKVtDSDJdMg==

> <s_epik_cmdline>
J2VwaWtfcHl0aG9uJywgJy1waCcsICc3LjAnLCAnLXRuJywgJzgnLCAnLW1hJywgJzIwMCcsICctbWV0YWxfYmluZGluZycsICctaW1hZScsICc8aW5maWxlLm1hZT4nLCAnLW9tYWUnLCAnPG91dGZpbGUubWFlPic=

> <r_lp_tautomer_probability>
1

> <r_epik_Ionization_Penalty>
0.602607

> <r_epik_Ionization_Penalty_Charging>
0.602531

> <r_epik_Ionization_Penalty_Neutral>
7.66983e-05

> <r_epik_State_Penalty>
0.617039

> <r_epik_Charging_Adjusted_Penalty>
1.21957

> <i_epik_Tot_Q>
1

> <i_epik_Tot_abs_Q>
1

> <r_epik_Metal_State_Penalty>
0.617043

> <b_epik_Metal_Only>
0

> <s_lp_Force_Field>
OPLS_2005

> <r_lp_Energy>
27.5675

> <b_lp_Chiralities_Consistent>
1

> <s_lp_Variant>
AV-unprocessed.smi:1430-6

> <Gold.Version>
5.8.1

> <Gold.Id.Protein>
6NUR|6NUR_protein|mol2

> <Gold.PLP.Fitness>
44.6390

> <Gold.PLP.PLP>
-31.2506

> <Gold.PLP.part.hbond>
-5.9489

> <Gold.PLP.part.metal>
0.0000

> <Gold.PLP.part.buried>
5.3980

> <Gold.PLP.part.nonpolar>
-33.1362

> <Gold.PLP.part.repulsive>
1.0188

> <Gold.PLP.ligand.clash>
0.0000

> <Gold.PLP.ligand.torsion>
0.3145

> <Gold.PLP.Chemscore.Hbond>
4.6555

> <Gold.PLP.Chemscore.CHOScore>
0.0000

> <Gold.PLP.Chemscore.Metal>
0.0000

> <Gold.Chemscore.Hbonds>
donor molecule, donor type, donor heavy atom, donor atom, acceptor molecule, acceptor atom, score
      L1  H     7    28       P1  7948  0.65
      L1  H    10    29       P1  7948  0.81
      L1  H    13    47       P1  7948  2.00
      P1  H  7997  8008       L1     2  0.69

> <Gold.PLP.Chemscore.Internal.Correction>
0.0510

> <Gold.Rescore>
     Score         DG    S(hbond)    S(metal)    S(lipo)     H(rot)  DE(clash)    DE(int)     intcor
     13.99     -18.96       2.49        0.00      82.75       1.76       3.36       1.60       ----

> <Gold.Chemscore.Fitness>
13.9946

> <Gold.Chemscore.DG>
-18.9614

> <Gold.Chemscore.ZeroCoef>
-5.4800

> <Gold.Chemscore.Hbond>
2.4869

> <Gold.Chemscore.Metal>
0.0000

> <Gold.Chemscore.Lipo>
82.7545

> <Gold.Chemscore.Internal_Hbond>
0.0000

> <Gold.Chemscore.DEClash>
3.3639

> <Gold.Chemscore.DEInternal>
1.6028

> <Gold.Chemscore.Rot>
1.7606

> <Gold.Chemscore.Internal.Correction>
   9.000000E+99

> <Gold.Chemscore.Hbonds>
donor molecule, donor type, donor heavy atom, donor atom, acceptor molecule, acceptor atom, score
      L1  H     7    28       P1  7948  0.31
      L1  H    10    29       P1  7948  0.80
      L1  H    13    47       P1  7948  0.98
      P1  H  7997  8008       L1     2  0.10

> <Gold.Chemscore.Hbond.Weighted>
-8.3063

> <Gold.Chemscore.Metal.Weighted>
-0.0000

> <Gold.Chemscore.Lipo.Weighted>
-9.6823

> <Gold.Chemscore.Internal_Hbond.Weighted>
0.0000

> <Gold.Chemscore.DEClash.Weighted>
3.3639

> <Gold.Chemscore.DEInternal.Weighted>
1.6028

> <Gold.Chemscore.Rot.Weighted>
4.5072

> <Gold.Chemscore.Internal.Correction.Weighted>
   9.000000E+99

> <Gold.Protein.RotatedTorsions>
[ 6907 6896 6895 6894 ] final   53.87 input  -60.11 | X-H torsion
[ 7974 7965 7964 7962 ] final  109.79 input  175.53 | X-H torsion
[ 8008 7997 7996 7995 ] final  -77.96 input   59.86 | X-H torsion
[ 10167 10162 10161 10158 ] final  156.85 input  -65.29 | X-H torsion
[ 10718 10713 10712 10709 ] final   26.64 input   66.30 | X-H torsion
[ 10763 10752 10751 10750 ] final  100.71 input  -60.55 | X-H torsion
[ 11005 11000 10999 10996 ] final  -84.92 input  -57.11 | X-H torsion

> <Gold.Protein.ActiveResidues>
 VAL166  LYS551  ARG553  GLY616  TRP617  ASP618  TYR619  PRO620  LYS621  CYS622 
 ASP623  PHE694  ASN695  SER759  ASP760  ASP761  ALA762  ILE779  LEU786  VAL792 
 PHE793  MET794  SER795  GLU796  ALA797  LYS798  CYS799  TRP800  GLU811  SER814 

> <Gold.Protein.RotatedAtoms>
  152.3381  134.7171  160.0271 H   0  0  0  0  0  0  0  0  0  0  0  0  # atno 6907 bound_to 6896
  151.7565  133.3325  159.3414 H   0  0  0  0  0  0  0  0  0  0  0  0  # atno 6908 bound_to 6896
  150.7463  134.6077  159.6114 H   0  0  0  0  0  0  0  0  0  0  0  0  # atno 6909 bound_to 6896
  145.2633  139.2694  143.4005 H   0  0  0  0  0  0  0  0  0  0  0  0  # atno 7974 bound_to 7965
  154.5645  140.0702  156.8870 H   0  0  0  0  0  0  0  0  0  0  0  0  # atno 8008 bound_to 7997
  155.2749  140.3367  155.4244 H   0  0  0  0  0  0  0  0  0  0  0  0  # atno 8009 bound_to 7997
  156.2069  140.1743  156.7765 H   0  0  0  0  0  0  0  0  0  0  0  0  # atno 8010 bound_to 7997
  139.4822  144.4971  151.8223 H   0  0  0  0  0  0  0  0  0  0  0  0  # atno 10167 bound_to 10162
  157.2095  130.6927  149.6222 H   0  0  0  0  0  0  0  0  0  0  0  0  # atno 10718 bound_to 10713
  153.3175  135.4069  155.1388 H   0  0  0  0  0  0  0  0  0  0  0  0  # atno 10763 bound_to 10752
  154.8592  135.3579  154.5641 H   0  0  0  0  0  0  0  0  0  0  0  0  # atno 10764 bound_to 10752
  153.6073  135.7069  153.5419 H   0  0  0  0  0  0  0  0  0  0  0  0  # atno 10765 bound_to 10752
  141.1646  133.7372  156.8939 H   0  0  0  0  0  0  0  0  0  0  0  0  # atno 11005 bound_to 11000
  146.3269  140.3056  142.8623 LP  0  0  0  0  0  0  0  0  0  0  0  0  # atno 17320 bound_to 7965
  144.9399  140.8067  143.5637 LP  0  0  0  0  0  0  0  0  0  0  0  0  # atno 17321 bound_to 7965
  140.4461  144.1920  150.5894 LP  0  0  0  0  0  0  0  0  0  0  0  0  # atno 17342 bound_to 10162
  140.4633  143.2440  151.9190 LP  0  0  0  0  0  0  0  0  0  0  0  0  # atno 17343 bound_to 10162
  155.9692  130.4556  150.5893 LP  0  0  0  0  0  0  0  0  0  0  0  0  # atno 17370 bound_to 10713
  157.3686  131.0762  151.1576 LP  0  0  0  0  0  0  0  0  0  0  0  0  # atno 17371 bound_to 10713
  140.1629  134.9153  157.2738 LP  0  0  0  0  0  0  0  0  0  0  0  0  # atno 17394 bound_to 11000
  140.2590  134.3593  155.7413 LP  0  0  0  0  0  0  0  0  0  0  0  0  # atno 17395 bound_to 11000

$$$$
