AV-unprocessed.smi:780|AV-procd|sdf|3706|dock1
  -GOLD-   22720 1133D 1   1.00000     0.00000
 Structure written by MMmdl.
 48 49  0  0  0  0  0  0  0  0  1 V2000
  151.9983  144.7623  159.9103 C   0  0  0  0  0  0  0  0  0  0  0  0
  151.7093  143.5052  159.1162 C   0  0  0  0  0  0  0  0  0  0  0  0
  150.5010  143.3915  158.3268 C   0  0  0  0  0  0  0  0  0  0  0  0
  150.2720  142.2602  157.6423 C   0  0  0  0  0  0  0  0  0  0  0  0
  151.1716  141.1788  157.6690 N   0  0  0  0  0  0  0  0  0  0  0  0
  150.7803  139.9663  156.9240 C   0  0  0  0  0  0  0  0  0  0  0  0
  150.2813  140.2338  155.4919 C   0  0  0  0  0  0  0  0  0  0  0  0
  151.0149  139.9816  154.5372 O   0  0  0  0  0  0  0  0  0  0  0  0
  149.0532  140.7530  155.3481 N   0  0  0  0  0  0  0  0  0  0  0  0
  148.4180  141.1316  154.0954 C   0  0  0  0  0  0  0  0  0  0  0  0
  146.8917  141.1941  154.2712 C   0  0  0  0  0  0  0  0  0  0  0  0
  146.4065  142.4707  154.9773 C   0  0  0  0  0  0  0  0  0  0  0  0
  145.0082  142.3741  155.2009 O   0  0  0  0  0  0  0  0  0  0  0  0
  144.3508  143.6272  155.3459 C   0  0  0  0  0  0  0  0  0  0  0  0
  142.8803  143.4349  155.7783 C   0  0  0  0  0  0  0  0  0  0  0  0
  142.1238  144.7727  155.8088 C   0  0  0  0  0  0  0  0  0  0  0  0
  142.2102  145.4957  154.4556 C   0  0  0  0  0  0  0  0  0  0  0  0
  143.6716  145.6871  154.0203 C   0  0  0  0  0  0  0  0  0  0  0  0
  144.4209  144.3454  153.9867 C   0  0  0  0  0  0  0  0  0  0  0  0
  152.3327  141.2244  158.3898 C   0  0  0  0  0  0  0  0  0  0  0  0
  153.1182  140.2774  158.4272 O   0  0  0  0  0  0  0  0  0  0  0  0
  152.5736  142.4667  159.1330 C   0  0  0  0  0  0  0  0  0  0  0  0
  151.1143  145.3971  159.9752 H   0  0  0  0  0  0  0  0  0  0  0  0
  152.7966  145.3339  159.4361 H   0  0  0  0  0  0  0  0  0  0  0  0
  152.3085  144.5115  160.9252 H   0  0  0  0  0  0  0  0  0  0  0  0
  149.7884  144.2025  158.2907 H   0  0  0  0  0  0  0  0  0  0  0  0
  149.3867  142.1060  157.0424 H   0  0  0  0  0  0  0  0  0  0  0  0
  151.6272  139.2808  156.8649 H   0  0  0  0  0  0  0  0  0  0  0  0
  150.0088  139.4133  157.4624 H   0  0  0  0  0  0  0  0  0  0  0  0
  148.5204  140.9249  156.1882 H   0  0  0  0  0  0  0  0  0  0  0  0
  148.8015  142.1010  153.7738 H   0  0  0  0  0  0  0  0  0  0  0  0
  148.6745  140.4082  153.3200 H   0  0  0  0  0  0  0  0  0  0  0  0
  146.4120  141.1167  153.2952 H   0  0  0  0  0  0  0  0  0  0  0  0
  146.5635  140.3238  154.8410 H   0  0  0  0  0  0  0  0  0  0  0  0
  146.9281  142.5961  155.9255 H   0  0  0  0  0  0  0  0  0  0  0  0
  146.6284  143.3462  154.3653 H   0  0  0  0  0  0  0  0  0  0  0  0
  144.8762  144.2377  156.0830 H   0  0  0  0  0  0  0  0  0  0  0  0
  142.3822  142.7508  155.0901 H   0  0  0  0  0  0  0  0  0  0  0  0
  142.8221  142.9753  156.7640 H   0  0  0  0  0  0  0  0  0  0  0  0
  141.0798  144.6028  156.0728 H   0  0  0  0  0  0  0  0  0  0  0  0
  142.5406  145.4090  156.5907 H   0  0  0  0  0  0  0  0  0  0  0  0
  141.6763  144.9193  153.6990 H   0  0  0  0  0  0  0  0  0  0  0  0
  141.7104  146.4628  154.5175 H   0  0  0  0  0  0  0  0  0  0  0  0
  143.7076  146.1581  153.0377 H   0  0  0  0  0  0  0  0  0  0  0  0
  144.1728  146.3685  154.7090 H   0  0  0  0  0  0  0  0  0  0  0  0
  145.4619  144.5106  153.7074 H   0  0  0  0  0  0  0  0  0  0  0  0
  143.9908  143.7089  153.2120 H   0  0  0  0  0  0  0  0  0  0  0  0
  153.4773  142.5455  159.7202 H   0  0  0  0  0  0  0  0  0  0  0  0
  1  2  1  0  0  0  0
  1 23  1  0  0  0  0
  1 24  1  0  0  0  0
  1 25  1  0  0  0  0
  2 22  2  0  0  0  0
  2  3  1  0  0  0  0
  3  4  2  0  0  0  0
  3 26  1  0  0  0  0
  4  5  1  0  0  0  0
  4 27  1  0  0  0  0
  5  6  1  0  0  0  0
  5 20  1  0  0  0  0
  6  7  1  0  0  0  0
  6 28  1  0  0  0  0
  6 29  1  0  0  0  0
  7  8  2  0  0  0  0
  7  9  1  0  0  0  0
  9 10  1  0  0  0  0
  9 30  1  0  0  0  0
 10 11  1  0  0  0  0
 10 31  1  0  0  0  0
 10 32  1  0  0  0  0
 11 12  1  0  0  0  0
 11 33  1  0  0  0  0
 11 34  1  0  0  0  0
 12 13  1  0  0  0  0
 12 35  1  0  0  0  0
 12 36  1  0  0  0  0
 13 14  1  0  0  0  0
 14 19  1  0  0  0  0
 14 15  1  0  0  0  0
 14 37  1  0  0  0  0
 15 16  1  0  0  0  0
 15 38  1  0  0  0  0
 15 39  1  0  0  0  0
 16 17  1  0  0  0  0
 16 40  1  0  0  0  0
 16 41  1  0  0  0  0
 17 18  1  0  0  0  0
 17 42  1  0  0  0  0
 17 43  1  0  0  0  0
 18 19  1  0  0  0  0
 18 44  1  0  0  0  0
 18 45  1  0  0  0  0
 19 46  1  0  0  0  0
 19 47  1  0  0  0  0
 20 21  2  0  0  0  0
 20 22  1  0  0  0  0
 22 48  1  0  0  0  0
M  END
> <s_m_source_file>
AV-unprocessed.smi

> <i_m_source_file_index>
780

> <i_lp_mmshare_version>
43012

> <i_f3d_flags>
0

> <s_epik_input>
W0NIM11jMVtjSF1bY0hdbihjKD1PKVtjSF0xKVtDSDJdQyg9TylbTkhdW0NIMl1bQ0gyXVtDSDJdT1tDSF0yW0NIMl1bQ0gyXVtDSDJdW0NIMl1bQ0gyXTI=

> <s_epik_cmdline>
J2VwaWtfcHl0aG9uJywgJy1waCcsICc3LjAnLCAnLXRuJywgJzgnLCAnLW1hJywgJzIwMCcsICctbWV0YWxfYmluZGluZycsICctaW1hZScsICc8aW5maWxlLm1hZT4nLCAnLW9tYWUnLCAnPG91dGZpbGUubWFlPic=

> <r_lp_tautomer_probability>
1

> <r_epik_Ionization_Penalty>
5.32667e-07

> <r_epik_Ionization_Penalty_Charging>
5.13386e-07

> <r_epik_Ionization_Penalty_Neutral>
1.92812e-08

> <r_epik_State_Penalty>
-0

> <r_epik_Charging_Adjusted_Penalty>
5.13386e-07

> <i_epik_Tot_Q>
0

> <i_epik_Tot_abs_Q>
0

> <r_epik_Metal_State_Penalty>
-0

> <b_epik_Metal_Only>
0

> <s_lp_Force_Field>
OPLS_2005

> <r_lp_Energy>
20.4059

> <b_lp_Chiralities_Consistent>
1

> <s_lp_Variant>
AV-unprocessed.smi:780-1

> <Gold.Version>
5.8.1

> <Gold.Id.Protein>
6NUR|6NUR_protein|mol2

> <Gold.PLP.Fitness>
47.2431

> <Gold.PLP.PLP>
-42.5289

> <Gold.PLP.part.hbond>
-2.0000

> <Gold.PLP.part.metal>
0.0000

> <Gold.PLP.part.buried>
-5.5944

> <Gold.PLP.part.nonpolar>
-36.1890

> <Gold.PLP.part.repulsive>
0.3534

> <Gold.PLP.ligand.clash>
0.0000

> <Gold.PLP.ligand.torsion>
0.7233

> <Gold.PLP.Chemscore.Hbond>
1.9600

> <Gold.PLP.Chemscore.CHOScore>
0.0000

> <Gold.PLP.Chemscore.Metal>
0.0000

> <Gold.Chemscore.Hbonds>
donor molecule, donor type, donor heavy atom, donor atom, acceptor molecule, acceptor atom, score
      P1  H  7989  7998       L1     8  0.93
      P1  H  7997  8010       L1    21  0.89

> <Gold.PLP.Chemscore.Internal.Correction>
0.2809

> <Gold.Rescore>
     Score         DG    S(hbond)    S(metal)    S(lipo)     H(rot)  DE(clash)    DE(int)     intcor
     18.51     -19.65       1.91        0.00     109.69       1.97       0.43       0.71       ----

> <Gold.Chemscore.Fitness>
18.5052

> <Gold.Chemscore.DG>
-19.6492

> <Gold.Chemscore.ZeroCoef>
-5.4800

> <Gold.Chemscore.Hbond>
1.9075

> <Gold.Chemscore.Metal>
0.0000

> <Gold.Chemscore.Lipo>
109.6929

> <Gold.Chemscore.Internal_Hbond>
0.0000

> <Gold.Chemscore.DEClash>
0.4293

> <Gold.Chemscore.DEInternal>
0.7148

> <Gold.Chemscore.Rot>
1.9671

> <Gold.Chemscore.Internal.Correction>
   9.000000E+99

> <Gold.Chemscore.Hbonds>
donor molecule, donor type, donor heavy atom, donor atom, acceptor molecule, acceptor atom, score
      P1  H  7989  7998       L1     8  0.89
      P1  H  7997  8010       L1    21  0.80

> <Gold.Chemscore.Hbond.Weighted>
-6.3710

> <Gold.Chemscore.Metal.Weighted>
-0.0000

> <Gold.Chemscore.Lipo.Weighted>
-12.8341

> <Gold.Chemscore.Internal_Hbond.Weighted>
0.0000

> <Gold.Chemscore.DEClash.Weighted>
0.4293

> <Gold.Chemscore.DEInternal.Weighted>
0.7148

> <Gold.Chemscore.Rot.Weighted>
5.0359

> <Gold.Chemscore.Internal.Correction.Weighted>
   9.000000E+99

> <Gold.Protein.RotatedTorsions>
[ 6907 6896 6895 6894 ] final  -59.56 input  -60.11 | X-H torsion
[ 7974 7965 7964 7962 ] final -160.45 input  175.53 | X-H torsion
[ 8008 7997 7996 7995 ] final   36.15 input   59.86 | X-H torsion
[ 10167 10162 10161 10158 ] final   68.13 input  -65.29 | X-H torsion
[ 10718 10713 10712 10709 ] final -127.60 input   66.30 | X-H torsion
[ 10763 10752 10751 10750 ] final  154.68 input  -60.55 | X-H torsion
[ 11005 11000 10999 10996 ] final   81.65 input  -57.11 | X-H torsion

> <Gold.Protein.ActiveResidues>
 VAL166  LYS551  ARG553  GLY616  TRP617  ASP618  TYR619  PRO620  LYS621  CYS622 
 ASP623  PHE694  ASN695  SER759  ASP760  ASP761  ALA762  ILE779  LEU786  VAL792 
 PHE793  MET794  SER795  GLU796  ALA797  LYS798  CYS799  TRP800  GLU811  SER814 

> <Gold.Protein.RotatedAtoms>
  150.7921  134.6952  159.6518 H   0  0  0  0  0  0  0  0  0  0  0  0  # atno 6907 bound_to 6896
  152.4028  134.6255  160.0071 H   0  0  0  0  0  0  0  0  0  0  0  0  # atno 6908 bound_to 6896
  151.6521  133.3283  159.3190 H   0  0  0  0  0  0  0  0  0  0  0  0  # atno 6909 bound_to 6896
  144.7427  140.3540  143.6110 H   0  0  0  0  0  0  0  0  0  0  0  0  # atno 7974 bound_to 7965
  155.1826  140.3301  155.4372 H   0  0  0  0  0  0  0  0  0  0  0  0  # atno 8008 bound_to 7997
  156.2471  140.1924  156.6874 H   0  0  0  0  0  0  0  0  0  0  0  0  # atno 8009 bound_to 7997
  154.6260  140.0589  156.9660 H   0  0  0  0  0  0  0  0  0  0  0  0  # atno 8010 bound_to 7997
  140.0820  144.5063  150.7156 H   0  0  0  0  0  0  0  0  0  0  0  0  # atno 10167 bound_to 10162
  156.1872  130.6771  151.0379 H   0  0  0  0  0  0  0  0  0  0  0  0  # atno 10718 bound_to 10713
  154.1561  135.2812  155.3122 H   0  0  0  0  0  0  0  0  0  0  0  0  # atno 10763 bound_to 10752
  154.6181  135.5476  153.7549 H   0  0  0  0  0  0  0  0  0  0  0  0  # atno 10764 bound_to 10752
  153.0206  135.6432  154.1704 H   0  0  0  0  0  0  0  0  0  0  0  0  # atno 10765 bound_to 10752
  139.9091  134.8012  156.2069 H   0  0  0  0  0  0  0  0  0  0  0  0  # atno 11005 bound_to 11000
  145.7246  139.1719  143.2465 LP  0  0  0  0  0  0  0  0  0  0  0  0  # atno 17320 bound_to 7965
  146.1251  140.7258  142.9439 LP  0  0  0  0  0  0  0  0  0  0  0  0  # atno 17321 bound_to 7965
  140.7073  143.2477  151.4688 LP  0  0  0  0  0  0  0  0  0  0  0  0  # atno 17342 bound_to 10162
  139.5774  144.1787  152.1922 LP  0  0  0  0  0  0  0  0  0  0  0  0  # atno 17343 bound_to 10162
  157.6906  131.0811  150.7118 LP  0  0  0  0  0  0  0  0  0  0  0  0  # atno 17370 bound_to 10713
  156.7174  130.4670  149.5531 LP  0  0  0  0  0  0  0  0  0  0  0  0  # atno 17371 bound_to 10713
  141.0490  133.6898  156.1736 LP  0  0  0  0  0  0  0  0  0  0  0  0  # atno 17394 bound_to 11000
  140.6840  134.4737  157.5589 LP  0  0  0  0  0  0  0  0  0  0  0  0  # atno 17395 bound_to 11000

$$$$
