AV-unprocessed.smi:3066|AV-procd|sdf|11693|dock8
  -GOLD-   2272017 93D 1   1.00000     0.00000
 Structure written by MMmdl.
 35 36  0  0  0  0  0  0  0  0  1 V2000
  145.7299  141.9476  159.5723 N   0  0  0  0  0  0  0  0  0  0  0  0
  145.9766  141.8505  158.4457 C   0  0  0  0  0  0  0  0  0  0  0  0
  146.2867  141.7282  157.0315 C   0  0  0  0  0  0  0  0  0  0  0  0
  145.3024  141.6697  156.0878 N   0  0  0  0  0  0  0  0  0  0  0  0
  146.0619  141.5608  155.0045 C   0  0  0  0  0  0  0  0  0  0  0  0
  147.3747  141.5540  155.2597 N   0  0  0  0  0  0  0  0  0  0  0  0
  148.5090  141.4388  154.3611 C   0  0  0  0  0  0  0  0  0  0  0  0
  149.8224  141.3729  155.1413 C   0  0  0  0  0  0  0  0  0  0  0  0
  150.5961  140.4322  154.9642 O   0  0  0  0  0  0  0  0  0  0  0  0
  150.0576  142.3782  155.9996 N   0  0  0  0  0  0  0  0  0  0  0  0
  151.2252  142.5030  156.8681 C   0  0  0  0  0  0  0  0  0  0  0  0
  151.2586  141.2780  157.8013 C   0  0  0  0  0  0  0  0  0  0  0  0
  152.4200  141.2527  158.8100 C   0  0  0  0  0  0  0  0  0  0  0  0
  152.2212  142.2410  159.9705 C   0  0  0  0  0  0  0  0  0  0  0  0
  152.7102  143.6760  159.7083 C   0  0  0  0  0  0  0  0  0  0  0  0
  152.5192  144.2198  158.2815 C   0  0  0  0  0  0  0  0  0  0  0  0
  151.1855  143.8602  157.6053 C   0  0  0  0  0  0  0  0  0  0  0  0
  147.5448  141.6648  156.6002 N   0  0  0  0  0  0  0  0  0  0  0  0
  145.6550  141.4791  154.0071 H   0  0  0  0  0  0  0  0  0  0  0  0
  148.3862  140.5390  153.7569 H   0  0  0  0  0  0  0  0  0  0  0  0
  148.5221  142.2885  153.6764 H   0  0  0  0  0  0  0  0  0  0  0  0
  149.3615  143.1066  156.0708 H   0  0  0  0  0  0  0  0  0  0  0  0
  152.1213  142.4691  156.2454 H   0  0  0  0  0  0  0  0  0  0  0  0
  150.3117  141.1913  158.3367 H   0  0  0  0  0  0  0  0  0  0  0  0
  151.3274  140.3812  157.1838 H   0  0  0  0  0  0  0  0  0  0  0  0
  152.4669  140.2480  159.2316 H   0  0  0  0  0  0  0  0  0  0  0  0
  153.3788  141.4119  158.3149 H   0  0  0  0  0  0  0  0  0  0  0  0
  151.1677  142.2609  160.2519 H   0  0  0  0  0  0  0  0  0  0  0  0
  152.7442  141.8650  160.8505 H   0  0  0  0  0  0  0  0  0  0  0  0
  152.2088  144.3392  160.4140 H   0  0  0  0  0  0  0  0  0  0  0  0
  153.7710  143.7401  159.9528 H   0  0  0  0  0  0  0  0  0  0  0  0
  152.6101  145.3057  158.3260 H   0  0  0  0  0  0  0  0  0  0  0  0
  153.3459  143.8917  157.6502 H   0  0  0  0  0  0  0  0  0  0  0  0
  150.9737  144.6415  156.8740 H   0  0  0  0  0  0  0  0  0  0  0  0
  150.3638  143.8957  158.3219 H   0  0  0  0  0  0  0  0  0  0  0  0
  1  2  3  0  0  0  0
  2  3  1  0  0  0  0
  3 18  2  0  0  0  0
  3  4  1  0  0  0  0
  4  5  2  0  0  0  0
  5  6  1  0  0  0  0
  5 19  1  0  0  0  0
  6  7  1  0  0  0  0
  6 18  1  0  0  0  0
  7  8  1  0  0  0  0
  7 20  1  0  0  0  0
  7 21  1  0  0  0  0
  8  9  2  0  0  0  0
  8 10  1  0  0  0  0
 10 11  1  0  0  0  0
 10 22  1  0  0  0  0
 11 17  1  0  0  0  0
 11 12  1  0  0  0  0
 11 23  1  0  0  0  0
 12 13  1  0  0  0  0
 12 24  1  0  0  0  0
 12 25  1  0  0  0  0
 13 14  1  0  0  0  0
 13 26  1  0  0  0  0
 13 27  1  0  0  0  0
 14 15  1  0  0  0  0
 14 28  1  0  0  0  0
 14 29  1  0  0  0  0
 15 16  1  0  0  0  0
 15 30  1  0  0  0  0
 15 31  1  0  0  0  0
 16 17  1  0  0  0  0
 16 32  1  0  0  0  0
 16 33  1  0  0  0  0
 17 34  1  0  0  0  0
 17 35  1  0  0  0  0
M  END
> <s_m_source_file>
AV-unprocessed.smi

> <i_m_source_file_index>
3066

> <i_lp_mmshare_version>
43012

> <i_f3d_flags>
0

> <s_epik_input>
TiNDYzFuW2NIXW4objEpW0NIMl1DKD1PKVtOSF1bQ0hdMltDSDJdW0NIMl1bQ0gyXVtDSDJdW0NIMl1bQ0gyXTI=

> <s_epik_cmdline>
J2VwaWtfcHl0aG9uJywgJy1waCcsICc3LjAnLCAnLXRuJywgJzgnLCAnLW1hJywgJzIwMCcsICctbWV0YWxfYmluZGluZycsICctaW1hZScsICc8aW5maWxlLm1hZT4nLCAnLW9tYWUnLCAnPG91dGZpbGUubWFlPic=

> <r_lp_tautomer_probability>
1

> <r_epik_Ionization_Penalty>
4.79211e-08

> <r_epik_Ionization_Penalty_Charging>
0

> <r_epik_Ionization_Penalty_Neutral>
4.79211e-08

> <r_epik_State_Penalty>
-0

> <r_epik_Charging_Adjusted_Penalty>
0

> <i_epik_Tot_Q>
0

> <i_epik_Tot_abs_Q>
0

> <r_epik_Metal_State_Penalty>
-0

> <b_epik_Metal_Only>
0

> <s_lp_Force_Field>
OPLS_2005

> <r_lp_Energy>
17.6035

> <b_lp_Chiralities_Consistent>
1

> <s_lp_Variant>
AV-unprocessed.smi:3066-1

> <Gold.Version>
5.8.1

> <Gold.Id.Protein>
6NUR|6NUR_protein|mol2

> <Gold.PLP.Fitness>
45.5961

> <Gold.PLP.PLP>
-34.8583

> <Gold.PLP.part.hbond>
-3.0000

> <Gold.PLP.part.metal>
0.0000

> <Gold.PLP.part.buried>
-4.0314

> <Gold.PLP.part.nonpolar>
-29.2875

> <Gold.PLP.part.repulsive>
0.3912

> <Gold.PLP.ligand.clash>
0.0000

> <Gold.PLP.ligand.torsion>
0.0549

> <Gold.PLP.Chemscore.Hbond>
2.9833

> <Gold.PLP.Chemscore.CHOScore>
0.6279

> <Gold.PLP.Chemscore.Metal>
0.0000

> <Gold.Chemscore.Hbonds>
donor molecule, donor type, donor heavy atom, donor atom, acceptor molecule, acceptor atom, score
      L1  H    10    22       P1  8028  0.96
      P1  H  6934  6946       L1     1  1.00
      P1  H  7989  7998       L1     9  1.00
      L1  C     5    19       P1 10175  0.64

> <Gold.PLP.Chemscore.Internal.Correction>
0.0142

> <Gold.Rescore>
     Score         DG    S(hbond)    S(metal)    S(lipo)     H(rot)  DE(clash)    DE(int)     intcor
     16.42     -18.80       2.62        0.00      81.64       1.95       0.02       2.36       ----

> <Gold.Chemscore.Fitness>
16.4181

> <Gold.Chemscore.DG>
-18.7969

> <Gold.Chemscore.ZeroCoef>
-5.4800

> <Gold.Chemscore.Hbond>
2.6197

> <Gold.Chemscore.Metal>
0.0000

> <Gold.Chemscore.Lipo>
81.6430

> <Gold.Chemscore.Internal_Hbond>
0.0000

> <Gold.Chemscore.DEClash>
0.0227

> <Gold.Chemscore.DEInternal>
2.3562

> <Gold.Chemscore.Rot>
1.9474

> <Gold.Chemscore.Internal.Correction>
   9.000000E+99

> <Gold.Chemscore.Hbonds>
donor molecule, donor type, donor heavy atom, donor atom, acceptor molecule, acceptor atom, score
      L1  H    10    22       P1  8028  0.92
      P1  H  6934  6946       L1     1  0.84
      P1  H  7989  7998       L1     9  0.54

> <Gold.Chemscore.Hbond.Weighted>
-8.7500

> <Gold.Chemscore.Metal.Weighted>
-0.0000

> <Gold.Chemscore.Lipo.Weighted>
-9.5522

> <Gold.Chemscore.Internal_Hbond.Weighted>
0.0000

> <Gold.Chemscore.DEClash.Weighted>
0.0227

> <Gold.Chemscore.DEInternal.Weighted>
2.3562

> <Gold.Chemscore.Rot.Weighted>
4.9852

> <Gold.Chemscore.Internal.Correction.Weighted>
   9.000000E+99

> <Gold.Protein.RotatedTorsions>
[ 6907 6896 6895 6894 ] final -125.27 input  -60.11 | X-H torsion
[ 7974 7965 7964 7962 ] final  153.46 input  175.53 | X-H torsion
[ 8008 7997 7996 7995 ] final  168.28 input   59.86 | X-H torsion
[ 10167 10162 10161 10158 ] final   40.44 input  -65.29 | X-H torsion
[ 10718 10713 10712 10709 ] final  134.40 input   66.30 | X-H torsion
[ 10763 10752 10751 10750 ] final  116.92 input  -60.55 | X-H torsion
[ 11005 11000 10999 10996 ] final -124.24 input  -57.11 | X-H torsion

> <Gold.Protein.ActiveResidues>
 VAL166  LYS551  ARG553  GLY616  TRP617  ASP618  TYR619  PRO620  LYS621  CYS622 
 ASP623  PHE694  ASN695  SER759  ASP760  ASP761  ALA762  ILE779  LEU786  VAL792 
 PHE793  MET794  SER795  GLU796  ALA797  LYS798  CYS799  TRP800  GLU811  SER814 

> <Gold.Protein.RotatedAtoms>
  150.8851  133.7318  159.2920 H   0  0  0  0  0  0  0  0  0  0  0  0  # atno 6907 bound_to 6896
  151.4887  135.1055  159.9807 H   0  0  0  0  0  0  0  0  0  0  0  0  # atno 6908 bound_to 6896
  152.4785  133.8150  159.7079 H   0  0  0  0  0  0  0  0  0  0  0  0  # atno 6909 bound_to 6896
  144.8153  139.6803  143.6124 H   0  0  0  0  0  0  0  0  0  0  0  0  # atno 7974 bound_to 7965
  156.1560  140.1594  156.8691 H   0  0  0  0  0  0  0  0  0  0  0  0  # atno 8008 bound_to 7997
  154.5115  140.0800  156.8036 H   0  0  0  0  0  0  0  0  0  0  0  0  # atno 8009 bound_to 7997
  155.3802  140.3404  155.4249 H   0  0  0  0  0  0  0  0  0  0  0  0  # atno 8010 bound_to 7997
  140.3742  144.2065  150.6132 H   0  0  0  0  0  0  0  0  0  0  0  0  # atno 10167 bound_to 10162
  157.4676  131.1078  150.9842 H   0  0  0  0  0  0  0  0  0  0  0  0  # atno 10718 bound_to 10713
  153.5445  135.3552  155.2733 H   0  0  0  0  0  0  0  0  0  0  0  0  # atno 10763 bound_to 10752
  154.8714  135.4099  154.3006 H   0  0  0  0  0  0  0  0  0  0  0  0  # atno 10764 bound_to 10752
  153.3720  135.7064  153.6699 H   0  0  0  0  0  0  0  0  0  0  0  0  # atno 10765 bound_to 10752
  140.9857  134.0610  157.3714 H   0  0  0  0  0  0  0  0  0  0  0  0  # atno 11005 bound_to 11000
  146.2456  139.6091  142.9462 LP  0  0  0  0  0  0  0  0  0  0  0  0  # atno 17320 bound_to 7965
  145.5228  141.0431  143.2426 LP  0  0  0  0  0  0  0  0  0  0  0  0  # atno 17321 bound_to 7965
  140.5003  143.2320  151.8688 LP  0  0  0  0  0  0  0  0  0  0  0  0  # atno 17342 bound_to 10162
  139.4801  144.5067  151.8988 LP  0  0  0  0  0  0  0  0  0  0  0  0  # atno 17343 bound_to 10162
  157.0618  130.5828  149.5387 LP  0  0  0  0  0  0  0  0  0  0  0  0  # atno 17370 bound_to 10713
  156.0058  130.5144  150.7824 LP  0  0  0  0  0  0  0  0  0  0  0  0  # atno 17371 bound_to 10713
  139.8969  135.0148  156.7076 LP  0  0  0  0  0  0  0  0  0  0  0  0  # atno 17394 bound_to 11000
  140.7118  133.9216  155.8089 LP  0  0  0  0  0  0  0  0  0  0  0  0  # atno 17395 bound_to 11000

$$$$
