AV-unprocessed.smi:3297|AV-procd|sdf|12639|dock2
  -GOLD-   2272018573D 1   1.00000     0.00000
 Structure written by MMmdl.
 34 35  0  0  0  0  0  0  0  0  1 V2000
  147.5756  137.2113  160.8620 O   0  0  0  0  0  0  0  0  0  0  0  0
  148.0163  136.7645  159.5973 C   0  0  0  0  0  0  0  0  0  0  0  0
  149.4517  137.2385  159.3398 C   0  0  0  0  0  0  0  0  0  0  0  0
  149.6747  137.2968  157.9380 O   0  0  0  0  0  0  0  0  0  0  0  0
  150.8057  138.0675  157.5543 C   0  0  1  0  0  0  0  0  0  0  0  0
  150.9352  137.9698  156.0250 C   0  0  0  0  0  0  0  0  0  0  0  0
  152.0818  138.8628  155.5283 C   0  0  0  0  0  0  0  0  0  0  0  0
  151.8900  140.3130  156.0010 C   0  0  0  0  0  0  0  0  0  0  0  0
  151.7232  140.3711  157.4529 N   0  0  0  0  0  0  0  0  0  0  0  0
  151.8731  141.6621  157.9995 C   0  0  0  0  0  0  0  0  0  0  0  0
  151.1780  142.6811  157.4344 N   0  0  0  0  0  0  0  0  0  0  0  0
  151.3227  143.9258  157.9363 C   0  0  0  0  0  0  0  0  0  0  0  0
  152.1631  144.2260  159.0249 C   0  0  0  0  0  0  0  0  0  0  0  0
  152.8819  143.1732  159.6200 C   0  0  0  0  0  0  0  0  0  0  0  0
  152.7359  141.8708  159.1039 C   0  0  0  0  0  0  0  0  0  0  0  0
  153.4037  140.8410  159.6789 F   0  0  0  0  0  0  0  0  0  0  0  0
  150.6402  139.5408  157.9846 C   0  0  0  0  0  0  0  0  0  0  0  0
  146.7373  136.8155  161.0449 H   0  0  0  0  0  0  0  0  0  0  0  0
  147.9831  135.6747  159.6032 H   0  0  0  0  0  0  0  0  0  0  0  0
  147.3384  137.1047  158.8138 H   0  0  0  0  0  0  0  0  0  0  0  0
  149.6384  138.1948  159.8295 H   0  0  0  0  0  0  0  0  0  0  0  0
  150.1462  136.5149  159.7694 H   0  0  0  0  0  0  0  0  0  0  0  0
  151.7099  137.6510  158.0021 H   0  0  0  0  0  0  0  0  0  0  0  0
  151.1082  136.9354  155.7263 H   0  0  0  0  0  0  0  0  0  0  0  0
  150.0010  138.2795  155.5543 H   0  0  0  0  0  0  0  0  0  0  0  0
  153.0330  138.4797  155.9003 H   0  0  0  0  0  0  0  0  0  0  0  0
  152.1382  138.8298  154.4400 H   0  0  0  0  0  0  0  0  0  0  0  0
  152.7370  140.9145  155.6727 H   0  0  0  0  0  0  0  0  0  0  0  0
  151.0039  140.7422  155.5315 H   0  0  0  0  0  0  0  0  0  0  0  0
  150.7515  144.7056  157.4548 H   0  0  0  0  0  0  0  0  0  0  0  0
  152.2506  145.2366  159.3954 H   0  0  0  0  0  0  0  0  0  0  0  0
  153.5324  143.3599  160.4616 H   0  0  0  0  0  0  0  0  0  0  0  0
  149.6840  139.9256  157.6268 H   0  0  0  0  0  0  0  0  0  0  0  0
  150.6307  139.6146  159.0723 H   0  0  0  0  0  0  0  0  0  0  0  0
  1  2  1  0  0  0  0
  1 18  1  0  0  0  0
  2  3  1  0  0  0  0
  2 19  1  0  0  0  0
  2 20  1  0  0  0  0
  3  4  1  0  0  0  0
  3 21  1  0  0  0  0
  3 22  1  0  0  0  0
  4  5  1  0  0  0  0
  5 17  1  0  0  0  0
  5  6  1  0  0  0  0
  5 23  1  0  0  0  0
  6  7  1  0  0  0  0
  6 24  1  0  0  0  0
  6 25  1  0  0  0  0
  7  8  1  0  0  0  0
  7 26  1  0  0  0  0
  7 27  1  0  0  0  0
  8  9  1  0  0  0  0
  8 28  1  0  0  0  0
  8 29  1  0  0  0  0
  9 10  1  0  0  0  0
  9 17  1  0  0  0  0
 10 15  1  0  0  0  0
 10 11  2  0  0  0  0
 11 12  1  0  0  0  0
 12 13  2  0  0  0  0
 12 30  1  0  0  0  0
 13 14  1  0  0  0  0
 13 31  1  0  0  0  0
 14 15  2  0  0  0  0
 14 32  1  0  0  0  0
 15 16  1  0  0  0  0
 17 33  1  0  0  0  0
 17 34  1  0  0  0  0
M  END
> <s_m_source_file>
AV-unprocessed.smi

> <i_m_source_file_index>
3297

> <i_lp_mmshare_version>
43012

> <i_f3d_flags>
0

> <s_epik_input>
W09IXVtDSDJdW0NIMl1PW0NAQEhdMVtDSDJdW0NIMl1bQ0gyXU4oW0NIMl0xKWMybltjSF1bY0hdW2NIXWMyRg==

> <s_epik_cmdline>
J2VwaWtfcHl0aG9uJywgJy1waCcsICc3LjAnLCAnLXRuJywgJzgnLCAnLW1hJywgJzIwMCcsICctbWV0YWxfYmluZGluZycsICctaW1hZScsICc8aW5maWxlLm1hZT4nLCAnLW9tYWUnLCAnPG91dGZpbGUubWFlPic=

> <r_lp_tautomer_probability>
1

> <r_epik_Ionization_Penalty>
0.00104501

> <r_epik_Ionization_Penalty_Charging>
0

> <r_epik_Ionization_Penalty_Neutral>
0.00104501

> <r_epik_State_Penalty>
0.000654582

> <r_epik_Charging_Adjusted_Penalty>
0.000654582

> <i_epik_Tot_Q>
0

> <i_epik_Tot_abs_Q>
0

> <r_epik_Metal_State_Penalty>
-0

> <b_epik_Metal_Only>
0

> <s_lp_Force_Field>
OPLS_2005

> <r_lp_Energy>
21.7067

> <b_lp_Chiralities_Consistent>
1

> <s_lp_Variant>
AV-unprocessed.smi:3297-2

> <Gold.Version>
5.8.1

> <Gold.Id.Protein>
6NUR|6NUR_protein|mol2

> <Gold.PLP.Fitness>
39.7947

> <Gold.PLP.PLP>
-32.3805

> <Gold.PLP.part.hbond>
-2.0000

> <Gold.PLP.part.metal>
0.0000

> <Gold.PLP.part.buried>
-4.3766

> <Gold.PLP.part.nonpolar>
-26.4953

> <Gold.PLP.part.repulsive>
0.0963

> <Gold.PLP.ligand.clash>
0.0000

> <Gold.PLP.ligand.torsion>
0.6730

> <Gold.PLP.Chemscore.Hbond>
1.8080

> <Gold.PLP.Chemscore.CHOScore>
0.9994

> <Gold.PLP.Chemscore.Metal>
0.0000

> <Gold.Chemscore.Hbonds>
donor molecule, donor type, donor heavy atom, donor atom, acceptor molecule, acceptor atom, score
      P1  H  6931  6943       L1     1  0.76
      P1  H  6934  6947       L1     1  0.98
      L1  C    12    30       P1  8028  0.95

> <Gold.PLP.Chemscore.Internal.Correction>
0.3380

> <Gold.Rescore>
     Score         DG    S(hbond)    S(metal)    S(lipo)     H(rot)  DE(clash)    DE(int)     intcor
     13.74     -14.44       1.56        0.00      81.25       2.25       0.01       0.69       ----

> <Gold.Chemscore.Fitness>
13.7375

> <Gold.Chemscore.DG>
-14.4382

> <Gold.Chemscore.ZeroCoef>
-5.4800

> <Gold.Chemscore.Hbond>
1.5623

> <Gold.Chemscore.Metal>
0.0000

> <Gold.Chemscore.Lipo>
81.2491

> <Gold.Chemscore.Internal_Hbond>
0.0000

> <Gold.Chemscore.DEClash>
0.0121

> <Gold.Chemscore.DEInternal>
0.6886

> <Gold.Chemscore.Rot>
2.2524

> <Gold.Chemscore.Internal.Correction>
   9.000000E+99

> <Gold.Chemscore.Hbonds>
donor molecule, donor type, donor heavy atom, donor atom, acceptor molecule, acceptor atom, score
      P1  H  6931  6943       L1     1  0.61
      P1  H  6934  6947       L1     1  0.33

> <Gold.Chemscore.Hbond.Weighted>
-5.2182

> <Gold.Chemscore.Metal.Weighted>
-0.0000

> <Gold.Chemscore.Lipo.Weighted>
-9.5061

> <Gold.Chemscore.Internal_Hbond.Weighted>
0.0000

> <Gold.Chemscore.DEClash.Weighted>
0.0121

> <Gold.Chemscore.DEInternal.Weighted>
0.6886

> <Gold.Chemscore.Rot.Weighted>
5.7661

> <Gold.Chemscore.Internal.Correction.Weighted>
   9.000000E+99

> <Gold.Protein.RotatedTorsions>
[ 6907 6896 6895 6894 ] final   93.39 input  -60.11 | X-H torsion
[ 7974 7965 7964 7962 ] final   91.40 input  175.53 | X-H torsion
[ 8008 7997 7996 7995 ] final   37.04 input   59.86 | X-H torsion
[ 10167 10162 10161 10158 ] final  -31.28 input  -65.29 | X-H torsion
[ 10718 10713 10712 10709 ] final  117.12 input   66.30 | X-H torsion
[ 10763 10752 10751 10750 ] final -116.33 input  -60.55 | X-H torsion
[ 11005 11000 10999 10996 ] final    3.55 input  -57.11 | X-H torsion

> <Gold.Protein.ActiveResidues>
 VAL166  LYS551  ARG553  GLY616  TRP617  ASP618  TYR619  PRO620  LYS621  CYS622 
 ASP623  PHE694  ASN695  SER759  ASP760  ASP761  ALA762  ILE779  LEU786  VAL792 
 PHE793  MET794  SER795  GLU796  ALA797  LYS798  CYS799  TRP800  GLU811  SER814 

> <Gold.Protein.RotatedAtoms>
  152.5452  134.1354  159.8456 H   0  0  0  0  0  0  0  0  0  0  0  0  # atno 6907 bound_to 6896
  151.1396  133.4973  159.2604 H   0  0  0  0  0  0  0  0  0  0  0  0  # atno 6908 bound_to 6896
  151.1587  135.0273  159.8755 H   0  0  0  0  0  0  0  0  0  0  0  0  # atno 6909 bound_to 6896
  145.5062  139.2276  143.2750 H   0  0  0  0  0  0  0  0  0  0  0  0  # atno 7974 bound_to 7965
  155.1973  140.3313  155.4349 H   0  0  0  0  0  0  0  0  0  0  0  0  # atno 8008 bound_to 7997
  156.2420  140.1900  156.7012 H   0  0  0  0  0  0  0  0  0  0  0  0  # atno 8009 bound_to 7997
  154.6165  140.0601  156.9547 H   0  0  0  0  0  0  0  0  0  0  0  0  # atno 8010 bound_to 7997
  140.7238  143.3783  151.1648 H   0  0  0  0  0  0  0  0  0  0  0  0  # atno 10167 bound_to 10162
  157.6117  131.1033  150.7569 H   0  0  0  0  0  0  0  0  0  0  0  0  # atno 10718 bound_to 10713
  154.8515  135.4349  154.1803 H   0  0  0  0  0  0  0  0  0  0  0  0  # atno 10763 bound_to 10752
  153.2896  135.6960  153.7312 H   0  0  0  0  0  0  0  0  0  0  0  0  # atno 10764 bound_to 10752
  153.6485  135.3455  155.3067 H   0  0  0  0  0  0  0  0  0  0  0  0  # atno 10765 bound_to 10752
  140.5919  133.9916  155.8092 H   0  0  0  0  0  0  0  0  0  0  0  0  # atno 11005 bound_to 11000
  146.2195  140.5865  142.9023 LP  0  0  0  0  0  0  0  0  0  0  0  0  # atno 17320 bound_to 7965
  144.7753  140.5725  143.6642 LP  0  0  0  0  0  0  0  0  0  0  0  0  # atno 17321 bound_to 7965
  139.7367  143.8987  152.3037 LP  0  0  0  0  0  0  0  0  0  0  0  0  # atno 17342 bound_to 10162
  139.8795  144.7025  150.8894 LP  0  0  0  0  0  0  0  0  0  0  0  0  # atno 17343 bound_to 10162
  156.7945  130.4901  149.5379 LP  0  0  0  0  0  0  0  0  0  0  0  0  # atno 17370 bound_to 10713
  156.1223  130.6118  151.0211 LP  0  0  0  0  0  0  0  0  0  0  0  0  # atno 17371 bound_to 10713
  141.0929  133.9888  157.3207 LP  0  0  0  0  0  0  0  0  0  0  0  0  # atno 17394 bound_to 11000
  139.9270  135.0201  156.8270 LP  0  0  0  0  0  0  0  0  0  0  0  0  # atno 17395 bound_to 11000

$$$$
