AV-unprocessed.smi:1540|AV-procd|sdf|6199|dock3
  -GOLD-   22720 6363D 1   1.00000     0.00000
 Structure written by MMmdl.
 33 33  0  0  0  0  0  0  0  0  1 V2000
  147.6878  141.6929  153.7710 C   0  0  0  0  0  0  0  0  0  0  0  0
  148.0218  140.5295  154.3492 C   0  0  0  0  0  0  0  0  0  0  0  0
  149.3563  139.8384  154.1774 C   0  0  0  0  0  0  0  0  0  0  0  0
  149.4427  138.7130  155.0433 O   0  0  0  0  0  0  0  0  0  0  0  0
  150.7397  138.4386  155.5678 C   0  0  1  0  0  0  0  0  0  0  0  0
  151.6154  137.9466  154.4056 C   0  0  0  0  0  0  0  0  0  0  0  0
  151.3316  139.6964  156.2255 C   0  0  0  0  0  0  0  0  0  0  0  0
  151.6072  140.6727  155.5285 O   0  0  0  0  0  0  0  0  0  0  0  0
  151.4724  139.6347  157.5644 N   0  0  0  0  0  0  0  0  0  0  0  0
  151.9757  140.5979  158.4546 C   0  0  0  0  0  0  0  0  0  0  0  0
  151.6782  141.9231  158.4158 C   0  0  0  0  0  0  0  0  0  0  0  0
  152.2475  142.8694  159.3611 C   0  0  0  0  0  0  0  0  0  0  0  0
  151.8449  144.3359  159.3588 C   0  0  0  0  0  0  0  0  0  0  0  0
  152.0707  144.9026  160.5448 F   0  0  0  0  0  0  0  0  0  0  0  0
  152.5499  144.9971  158.4419 F   0  0  0  0  0  0  0  0  0  0  0  0
  150.5516  144.4760  159.0674 F   0  0  0  0  0  0  0  0  0  0  0  0
  153.0833  142.3637  160.2868 C   0  0  0  0  0  0  0  0  0  0  0  0
  153.4114  141.0064  160.3194 N   0  0  0  0  0  0  0  0  0  0  0  0
  152.9156  140.0840  159.4644 C   0  0  0  0  0  0  0  0  0  0  0  0
  153.2532  138.9044  159.5588 O   0  0  0  0  0  0  0  0  0  0  0  0
  154.0595  140.7077  161.0339 H   0  0  0  0  0  0  0  0  0  0  0  0
  148.3779  142.2190  153.1275 H   0  0  0  0  0  0  0  0  0  0  0  0
  146.7158  142.1347  153.9344 H   0  0  0  0  0  0  0  0  0  0  0  0
  147.3054  140.0313  154.9861 H   0  0  0  0  0  0  0  0  0  0  0  0
  149.4796  139.5428  153.1345 H   0  0  0  0  0  0  0  0  0  0  0  0
  150.1450  140.5543  154.4125 H   0  0  0  0  0  0  0  0  0  0  0  0
  150.6690  137.6345  156.3030 H   0  0  0  0  0  0  0  0  0  0  0  0
  152.6351  137.7437  154.7351 H   0  0  0  0  0  0  0  0  0  0  0  0
  151.6621  138.6797  153.5993 H   0  0  0  0  0  0  0  0  0  0  0  0
  151.2159  137.0232  153.9860 H   0  0  0  0  0  0  0  0  0  0  0  0
  151.1311  138.7938  158.0076 H   0  0  0  0  0  0  0  0  0  0  0  0
  151.0218  142.3232  157.6608 H   0  0  0  0  0  0  0  0  0  0  0  0
  153.5543  142.9464  161.0648 H   0  0  0  0  0  0  0  0  0  0  0  0
  1  2  2  0  0  0  0
  1 22  1  0  0  0  0
  1 23  1  0  0  0  0
  2  3  1  0  0  0  0
  2 24  1  0  0  0  0
  3  4  1  0  0  0  0
  3 25  1  0  0  0  0
  3 26  1  0  0  0  0
  4  5  1  0  0  0  0
  5  6  1  0  0  0  0
  5  7  1  0  0  0  0
  5 27  1  0  0  0  0
  6 28  1  0  0  0  0
  6 29  1  0  0  0  0
  6 30  1  0  0  0  0
  7  8  2  0  0  0  0
  7  9  1  0  0  0  0
  9 10  1  0  0  0  0
  9 31  1  0  0  0  0
 10 19  1  0  0  0  0
 10 11  2  0  0  0  0
 11 12  1  0  0  0  0
 11 32  1  0  0  0  0
 12 13  1  0  0  0  0
 12 17  2  0  0  0  0
 13 14  1  0  0  0  0
 13 15  1  0  0  0  0
 13 16  1  0  0  0  0
 17 18  1  0  0  0  0
 17 33  1  0  0  0  0
 18 21  1  0  0  0  0
 18 19  1  0  0  0  0
 19 20  2  0  0  0  0
M  END
> <s_m_source_file>
AV-unprocessed.smi

> <i_m_source_file_index>
1540

> <i_lp_mmshare_version>
43012

> <i_f3d_flags>
0

> <s_epik_input>
W0NIMl09W0NIXVtDSDJdT1tDQEhdKFtDSDNdKUMoPU8pW05IXWMxW2NIXWMoQyhGKShGKUYpW2NIXVtuSF1jMT1P

> <s_epik_cmdline>
J2VwaWtfcHl0aG9uJywgJy1waCcsICc3LjAnLCAnLXRuJywgJzgnLCAnLW1hJywgJzIwMCcsICctbWV0YWxfYmluZGluZycsICctaW1hZScsICc8aW5maWxlLm1hZT4nLCAnLW9tYWUnLCAnPG91dGZpbGUubWFlPic=

> <r_lp_tautomer_probability>
0.999

> <r_epik_Ionization_Penalty>
0.0086731

> <r_epik_Ionization_Penalty_Charging>
0.00867296

> <r_epik_Ionization_Penalty_Neutral>
1.3954e-07

> <r_epik_State_Penalty>
0.00654787

> <r_epik_Charging_Adjusted_Penalty>
0.0152208

> <i_epik_Tot_Q>
0

> <i_epik_Tot_abs_Q>
0

> <r_epik_Metal_State_Penalty>
0.320056

> <b_epik_Metal_Only>
0

> <s_lp_Force_Field>
OPLS_2005

> <r_lp_Energy>
18.3286

> <b_lp_Chiralities_Consistent>
1

> <s_lp_Variant>
AV-unprocessed.smi:1540-2

> <Gold.Version>
5.8.1

> <Gold.Id.Protein>
6NUR|6NUR_protein|mol2

> <Gold.PLP.Fitness>
42.9306

> <Gold.PLP.PLP>
-44.0401

> <Gold.PLP.part.hbond>
-1.0000

> <Gold.PLP.part.metal>
0.0000

> <Gold.PLP.part.buried>
-5.3537

> <Gold.PLP.part.nonpolar>
-37.3584

> <Gold.PLP.part.repulsive>
0.2398

> <Gold.PLP.ligand.clash>
0.1612

> <Gold.PLP.ligand.torsion>
1.6510

> <Gold.PLP.Chemscore.Hbond>
0.7137

> <Gold.PLP.Chemscore.CHOScore>
0.0000

> <Gold.PLP.Chemscore.Metal>
0.0000

> <Gold.Chemscore.Hbonds>
donor molecule, donor type, donor heavy atom, donor atom, acceptor molecule, acceptor atom, score
      P1  H  7989  7998       L1     8  0.70

> <Gold.PLP.Chemscore.Internal.Correction>
0.2128

> <Gold.Rescore>
     Score         DG    S(hbond)    S(metal)    S(lipo)     H(rot)  DE(clash)    DE(int)     intcor
     10.02     -13.23       0.84        0.00      81.88       1.81       0.12       3.09       ----

> <Gold.Chemscore.Fitness>
10.0172

> <Gold.Chemscore.DG>
-13.2258

> <Gold.Chemscore.ZeroCoef>
-5.4800

> <Gold.Chemscore.Hbond>
0.8370

> <Gold.Chemscore.Metal>
0.0000

> <Gold.Chemscore.Lipo>
81.8783

> <Gold.Chemscore.Internal_Hbond>
0.0000

> <Gold.Chemscore.DEClash>
0.1197

> <Gold.Chemscore.DEInternal>
3.0889

> <Gold.Chemscore.Rot>
1.8084

> <Gold.Chemscore.Internal.Correction>
   9.000000E+99

> <Gold.Chemscore.Hbonds>
donor molecule, donor type, donor heavy atom, donor atom, acceptor molecule, acceptor atom, score
      P1  H  7989  7998       L1     8  0.65

> <Gold.Chemscore.Hbond.Weighted>
-2.7956

> <Gold.Chemscore.Metal.Weighted>
-0.0000

> <Gold.Chemscore.Lipo.Weighted>
-9.5798

> <Gold.Chemscore.Internal_Hbond.Weighted>
0.0000

> <Gold.Chemscore.DEClash.Weighted>
0.1197

> <Gold.Chemscore.DEInternal.Weighted>
3.0889

> <Gold.Chemscore.Rot.Weighted>
4.6296

> <Gold.Chemscore.Internal.Correction.Weighted>
   9.000000E+99

> <Gold.Protein.RotatedTorsions>
[ 6907 6896 6895 6894 ] final  174.60 input  -60.11 | X-H torsion
[ 7974 7965 7964 7962 ] final   39.68 input  175.53 | X-H torsion
[ 8008 7997 7996 7995 ] final  100.90 input   59.86 | X-H torsion
[ 10167 10162 10161 10158 ] final -134.59 input  -65.29 | X-H torsion
[ 10718 10713 10712 10709 ] final  133.73 input   66.30 | X-H torsion
[ 10763 10752 10751 10750 ] final -175.63 input  -60.55 | X-H torsion
[ 11005 11000 10999 10996 ] final  -21.76 input  -57.11 | X-H torsion

> <Gold.Protein.ActiveResidues>
 VAL166  LYS551  ARG553  GLY616  TRP617  ASP618  TYR619  PRO620  LYS621  CYS622 
 ASP623  PHE694  ASN695  SER759  ASP760  ASP761  ALA762  ILE779  LEU786  VAL792 
 PHE793  MET794  SER795  GLU796  ALA797  LYS798  CYS799  TRP800  GLU811  SER814 

> <Gold.Protein.RotatedAtoms>
  151.7497  133.3326  159.3387 H   0  0  0  0  0  0  0  0  0  0  0  0  # atno 6907 bound_to 6896
  150.7540  134.6204  159.6142 H   0  0  0  0  0  0  0  0  0  0  0  0  # atno 6908 bound_to 6896
  152.3477  134.7051  160.0297 H   0  0  0  0  0  0  0  0  0  0  0  0  # atno 6909 bound_to 6896
  146.0965  139.5622  142.9442 H   0  0  0  0  0  0  0  0  0  0  0  0  # atno 7974 bound_to 7965
  156.1248  140.3206  155.8261 H   0  0  0  0  0  0  0  0  0  0  0  0  # atno 8008 bound_to 7997
  155.4440  140.0527  157.3025 H   0  0  0  0  0  0  0  0  0  0  0  0  # atno 8009 bound_to 7997
  154.4854  140.2070  155.9681 H   0  0  0  0  0  0  0  0  0  0  0  0  # atno 8010 bound_to 7997
  139.8864  143.6775  152.2619 H   0  0  0  0  0  0  0  0  0  0  0  0  # atno 10167 bound_to 10162
  157.4744  131.1082  150.9762 H   0  0  0  0  0  0  0  0  0  0  0  0  # atno 10718 bound_to 10713
  154.5820  135.2837  155.0723 H   0  0  0  0  0  0  0  0  0  0  0  0  # atno 10763 bound_to 10752
  154.2055  135.6417  153.5103 H   0  0  0  0  0  0  0  0  0  0  0  0  # atno 10764 bound_to 10752
  153.0091  135.5479  154.6477 H   0  0  0  0  0  0  0  0  0  0  0  0  # atno 10765 bound_to 10752
  140.8592  133.7800  156.0055 H   0  0  0  0  0  0  0  0  0  0  0  0  # atno 11005 bound_to 11000
  145.5938  141.0365  143.2055 LP  0  0  0  0  0  0  0  0  0  0  0  0  # atno 17320 bound_to 7965
  144.7399  139.7478  143.7315 LP  0  0  0  0  0  0  0  0  0  0  0  0  # atno 17321 bound_to 7965
  139.7149  144.7613  151.1051 LP  0  0  0  0  0  0  0  0  0  0  0  0  # atno 17342 bound_to 10162
  140.7735  143.5283  150.9454 LP  0  0  0  0  0  0  0  0  0  0  0  0  # atno 17343 bound_to 10162
  157.0516  130.5789  149.5371 LP  0  0  0  0  0  0  0  0  0  0  0  0  # atno 17370 bound_to 10713
  156.0089  130.5179  150.7924 LP  0  0  0  0  0  0  0  0  0  0  0  0  # atno 17371 bound_to 10713
  140.8702  134.2735  157.5194 LP  0  0  0  0  0  0  0  0  0  0  0  0  # atno 17394 bound_to 11000
  139.8706  134.9563  156.4234 LP  0  0  0  0  0  0  0  0  0  0  0  0  # atno 17395 bound_to 11000

$$$$
