AV-unprocessed.smi:2059|AV-procd|sdf|8351|dock2
  -GOLD-   2272011 23D 1   1.00000     0.00000
 Structure written by MMmdl.
 29 30  0  0  0  0  0  0  0  0  2 V2000
  146.1420  133.0453  162.2334 C   0  0  0  0  0  0  0  0  0  0  0  0
  146.7333  134.3837  161.9497 C   0  0  0  0  0  0  0  0  0  0  0  0
  147.1033  135.0073  160.7922 C   0  0  0  0  0  0  0  0  0  0  0  0
  147.5901  136.2649  161.2415 C   0  0  0  0  0  0  0  0  0  0  0  0
  148.0802  137.2431  160.4596 N   0  5  0  0  0  0  0  0  0  0  0  0
  148.9818  137.0127  159.4683 C   0  0  0  0  0  0  0  0  0  0  0  0
  149.3402  135.8850  159.1310 O   0  0  0  0  0  0  0  0  0  0  0  0
  149.5041  138.0789  158.8318 N   0  0  0  0  0  0  0  0  0  0  0  0
  150.4731  138.0425  157.7413 C   0  0  1  0  0  0  0  0  0  0  0  0
  149.9158  137.2566  156.5403 C   0  0  0  0  0  0  0  0  0  0  0  0
  150.7928  137.5435  155.3157 C   0  0  0  0  0  0  0  0  0  0  0  0
  151.4113  139.2561  155.5255 S   0  0  0  0  0  0  0  0  0  0  0  0
  152.8816  139.2388  155.4910 O   0  0  0  0  0  0  0  0  0  0  0  0
  150.6453  140.1653  154.6593 O   0  0  0  0  0  0  0  0  0  0  0  0
  150.8406  139.4539  157.2550 C   0  0  0  0  0  0  0  0  0  0  0  0
  147.5326  136.3890  162.5571 N   0  0  0  0  0  0  0  0  0  0  0  0
  146.9787  135.1888  163.0185 O   0  0  0  0  0  0  0  0  0  0  0  0
  146.8721  132.2565  162.0524 H   0  0  0  0  0  0  0  0  0  0  0  0
  145.2790  132.8609  161.5935 H   0  0  0  0  0  0  0  0  0  0  0  0
  145.8146  132.9714  163.2705 H   0  0  0  0  0  0  0  0  0  0  0  0
  147.0362  134.6268  159.7842 H   0  0  0  0  0  0  0  0  0  0  0  0
  149.1963  138.9918  159.1340 H   0  0  0  0  0  0  0  0  0  0  0  0
  151.3814  137.5390  158.0777 H   0  0  0  0  0  0  0  0  0  0  0  0
  149.8541  136.1877  156.7477 H   0  0  0  0  0  0  0  0  0  0  0  0
  148.9015  137.5981  156.3285 H   0  0  0  0  0  0  0  0  0  0  0  0
  151.6545  136.8763  155.2944 H   0  0  0  0  0  0  0  0  0  0  0  0
  150.2534  137.4479  154.3734 H   0  0  0  0  0  0  0  0  0  0  0  0
  149.9678  140.1075  157.2463 H   0  0  0  0  0  0  0  0  0  0  0  0
  151.6190  139.9213  157.8583 H   0  0  0  0  0  0  0  0  0  0  0  0
  1  2  1  0  0  0  0
  1 18  1  0  0  0  0
  1 19  1  0  0  0  0
  1 20  1  0  0  0  0
  2 17  1  0  0  0  0
  2  3  2  0  0  0  0
  3  4  1  0  0  0  0
  3 21  1  0  0  0  0
  4  5  1  0  0  0  0
  4 16  2  0  0  0  0
  5  6  1  0  0  0  0
  6  7  2  0  0  0  0
  6  8  1  0  0  0  0
  8  9  1  0  0  0  0
  8 22  1  0  0  0  0
  9 15  1  0  0  0  0
  9 10  1  0  0  0  0
  9 23  1  0  0  0  0
 10 11  1  0  0  0  0
 10 24  1  0  0  0  0
 10 25  1  0  0  0  0
 11 12  1  0  0  0  0
 11 26  1  0  0  0  0
 11 27  1  0  0  0  0
 12 13  2  0  0  0  0
 12 14  2  0  0  0  0
 12 15  1  0  0  0  0
 15 28  1  0  0  0  0
 15 29  1  0  0  0  0
 16 17  1  0  0  0  0
M  CHG  1   5  -1
M  END
> <s_m_source_file>
AV-unprocessed.smi

> <i_m_source_file_index>
2059

> <i_lp_mmshare_version>
43012

> <i_f3d_flags>
0

> <s_epik_input>
W0NIM11jMVtjSF1jKG5vMSlbTkhdQyg9TylbTkhdW0NAQEhdKFtDSDJdMilbQ0gyXVtDSDJdUzIoPU8pPU8=

> <s_epik_cmdline>
J2VwaWtfcHl0aG9uJywgJy1waCcsICc3LjAnLCAnLXRuJywgJzgnLCAnLW1hJywgJzIwMCcsICctbWV0YWxfYmluZGluZycsICctaW1hZScsICc8aW5maWxlLm1hZT4nLCAnLW9tYWUnLCAnPG91dGZpbGUubWFlPic=

> <r_lp_tautomer_probability>
1

> <r_epik_Ionization_Penalty>
6.15571

> <r_epik_Ionization_Penalty_Charging>
6.1556

> <r_epik_Ionization_Penalty_Neutral>
0.000110918

> <r_epik_State_Penalty>
6.15558

> <r_epik_Charging_Adjusted_Penalty>
12.3112

> <i_epik_Tot_Q>
-1

> <i_epik_Tot_abs_Q>
1

> <r_epik_Metal_State_Penalty>
2.1059

> <b_epik_Metal_Only>
1

> <s_lp_Force_Field>
OPLS_2005

> <r_lp_Energy>
-1.66836

> <b_lp_Chiralities_Consistent>
1

> <s_lp_Variant>
AV-unprocessed.smi:2059-4

> <Gold.Version>
5.8.1

> <Gold.Id.Protein>
6NUR|6NUR_protein|mol2

> <Gold.PLP.Fitness>
42.7725

> <Gold.PLP.PLP>
-26.8390

> <Gold.PLP.part.hbond>
-5.0000

> <Gold.PLP.part.metal>
0.0000

> <Gold.PLP.part.buried>
-6.6202

> <Gold.PLP.part.nonpolar>
-15.9105

> <Gold.PLP.part.repulsive>
0.2905

> <Gold.PLP.ligand.clash>
0.0000

> <Gold.PLP.ligand.torsion>
0.4081

> <Gold.PLP.Chemscore.Hbond>
5.5807

> <Gold.PLP.Chemscore.CHOScore>
0.0000

> <Gold.PLP.Chemscore.Metal>
0.0000

> <Gold.Chemscore.Hbonds>
donor molecule, donor type, donor heavy atom, donor atom, acceptor molecule, acceptor atom, score
      P1  H  6896  6908       L1     7  0.99
      P1  H  6931  6943       L1     5  1.30
      P1  H  6934  6947       L1     5  1.37
      P1  H  7989  7998       L1    14  1.00
      P1  H  7997  8010       L1    13  1.00

> <Gold.PLP.Chemscore.Internal.Correction>
0.0077

> <Gold.Rescore>
     Score         DG    S(hbond)    S(metal)    S(lipo)     H(rot)  DE(clash)    DE(int)     intcor
     16.98     -19.20       3.69        0.00      33.87       1.00       0.01       2.22       ----

> <Gold.Chemscore.Fitness>
16.9789

> <Gold.Chemscore.DG>
-19.2024

> <Gold.Chemscore.ZeroCoef>
-5.4800

> <Gold.Chemscore.Hbond>
3.6883

> <Gold.Chemscore.Metal>
0.0000

> <Gold.Chemscore.Lipo>
33.8742

> <Gold.Chemscore.Internal_Hbond>
0.0000

> <Gold.Chemscore.DEClash>
0.0060

> <Gold.Chemscore.DEInternal>
2.2175

> <Gold.Chemscore.Rot>
1.0000

> <Gold.Chemscore.Internal.Correction>
   9.000000E+99

> <Gold.Chemscore.Hbonds>
donor molecule, donor type, donor heavy atom, donor atom, acceptor molecule, acceptor atom, score
      P1  H  6896  6908       L1     7  0.92
      P1  H  6931  6943       L1     5  0.08
      P1  H  6934  6947       L1     5  0.52
      P1  H  7989  7998       L1    14  0.78
      P1  H  7997  8010       L1    13  1.00

> <Gold.Chemscore.Hbond.Weighted>
-12.3191

> <Gold.Chemscore.Metal.Weighted>
-0.0000

> <Gold.Chemscore.Lipo.Weighted>
-3.9633

> <Gold.Chemscore.Internal_Hbond.Weighted>
0.0000

> <Gold.Chemscore.DEClash.Weighted>
0.0060

> <Gold.Chemscore.DEInternal.Weighted>
2.2175

> <Gold.Chemscore.Rot.Weighted>
2.5600

> <Gold.Chemscore.Internal.Correction.Weighted>
   9.000000E+99

> <Gold.Protein.RotatedTorsions>
[ 6907 6896 6895 6894 ] final  159.78 input  -60.11 | X-H torsion
[ 7974 7965 7964 7962 ] final   50.89 input  175.53 | X-H torsion
[ 8008 7997 7996 7995 ] final   94.06 input   59.86 | X-H torsion
[ 10167 10162 10161 10158 ] final  131.54 input  -65.29 | X-H torsion
[ 10718 10713 10712 10709 ] final   49.55 input   66.30 | X-H torsion
[ 10763 10752 10751 10750 ] final   52.87 input  -60.55 | X-H torsion
[ 11005 11000 10999 10996 ] final   -8.81 input  -57.11 | X-H torsion

> <Gold.Protein.ActiveResidues>
 VAL166  LYS551  ARG553  GLY616  TRP617  ASP618  TYR619  PRO620  LYS621  CYS622 
 ASP623  PHE694  ASN695  SER759  ASP760  ASP761  ALA762  ILE779  LEU786  VAL792 
 PHE793  MET794  SER795  GLU796  ALA797  LYS798  CYS799  TRP800  GLU811  SER814 

> <Gold.Protein.RotatedAtoms>
  151.9805  133.3756  159.4105 H   0  0  0  0  0  0  0  0  0  0  0  0  # atno 6907 bound_to 6896
  150.6935  134.4044  159.5142 H   0  0  0  0  0  0  0  0  0  0  0  0  # atno 6908 bound_to 6896
  152.1762  134.8792  160.0581 H   0  0  0  0  0  0  0  0  0  0  0  0  # atno 6909 bound_to 6896
  145.9967  139.4396  143.0040 H   0  0  0  0  0  0  0  0  0  0  0  0  # atno 7974 bound_to 7965
  156.0537  140.3305  155.7381 H   0  0  0  0  0  0  0  0  0  0  0  0  # atno 8008 bound_to 7997
  155.5561  140.0614  157.2857 H   0  0  0  0  0  0  0  0  0  0  0  0  # atno 8009 bound_to 7997
  154.4448  140.1885  156.0724 H   0  0  0  0  0  0  0  0  0  0  0  0  # atno 8010 bound_to 7997
  139.5379  144.6701  151.4723 H   0  0  0  0  0  0  0  0  0  0  0  0  # atno 10167 bound_to 10162
  157.4797  130.8307  149.8079 H   0  0  0  0  0  0  0  0  0  0  0  0  # atno 10718 bound_to 10713
  152.9791  135.5798  154.4648 H   0  0  0  0  0  0  0  0  0  0  0  0  # atno 10763 bound_to 10752
  154.4219  135.2772  155.1971 H   0  0  0  0  0  0  0  0  0  0  0  0  # atno 10764 bound_to 10752
  154.3717  135.6166  153.5797 H   0  0  0  0  0  0  0  0  0  0  0  0  # atno 10765 bound_to 10752
  140.7275  133.8777  155.8867 H   0  0  0  0  0  0  0  0  0  0  0  0  # atno 11005 bound_to 11000
  145.7549  140.9958  143.1231 LP  0  0  0  0  0  0  0  0  0  0  0  0  # atno 17320 bound_to 7965
  144.6906  139.9259  143.7470 LP  0  0  0  0  0  0  0  0  0  0  0  0  # atno 17321 bound_to 7965
  140.6595  143.8529  150.6872 LP  0  0  0  0  0  0  0  0  0  0  0  0  # atno 17342 bound_to 10162
  140.1919  143.4030  152.1857 LP  0  0  0  0  0  0  0  0  0  0  0  0  # atno 17343 bound_to 10162
  156.0115  130.3831  150.2249 LP  0  0  0  0  0  0  0  0  0  0  0  0  # atno 17370 bound_to 10713
  157.0434  131.0042  151.3276 LP  0  0  0  0  0  0  0  0  0  0  0  0  # atno 17371 bound_to 10713
  140.9950  134.1227  157.4372 LP  0  0  0  0  0  0  0  0  0  0  0  0  # atno 17394 bound_to 11000
  139.8834  135.0052  156.6296 LP  0  0  0  0  0  0  0  0  0  0  0  0  # atno 17395 bound_to 11000

$$$$
