AV-unprocessed.smi:2804|AV-procd|sdf|10811|dock4
  -GOLD-   2272015243D 1   1.00000     0.00000
 Structure written by MMmdl.
 34 35  0  0  0  0  0  0  0  0  2 V2000
  154.8719  137.4994  162.7294 C   0  0  0  0  0  0  0  0  0  0  0  0
  154.1249  138.2789  161.6425 C   0  0  0  0  0  0  0  0  0  0  0  0
  154.7401  139.6631  161.3857 C   0  0  0  0  0  0  0  0  0  0  0  0
  153.8496  140.4961  160.5810 N   0  0  0  0  0  0  0  0  0  0  0  0
  153.4357  140.2439  159.3172 C   0  0  0  0  0  0  0  0  0  0  0  0
  153.7272  139.2502  158.6506 O   0  0  0  0  0  0  0  0  0  0  0  0
  152.6381  141.2680  158.9177 N   0  0  0  0  0  0  0  0  0  0  0  0
  151.9299  141.3886  157.6321 C   0  0  0  0  0  0  0  0  0  0  0  0
  150.7717  140.3662  157.4379 C   0  0  2  0  0  0  0  0  0  0  0  0
  151.1861  139.2172  157.9168 O   0  5  0  0  0  0  0  0  0  0  0  0
  150.4475  140.1560  155.9384 C   0  0  0  0  0  0  0  0  0  0  0  0
  149.4010  139.3395  155.7998 F   0  0  0  0  0  0  0  0  0  0  0  0
  150.1265  141.3245  155.3810 F   0  0  0  0  0  0  0  0  0  0  0  0
  151.4889  139.6483  155.2747 F   0  0  0  0  0  0  0  0  0  0  0  0
  152.5230  142.1875  159.9758 C   0  0  0  0  0  0  0  0  0  0  0  0
  151.8086  143.3946  160.0794 C   0  0  0  0  0  0  0  0  0  0  0  0
  151.9095  144.1061  161.2974 C   0  0  0  0  0  0  0  0  0  0  0  0
  152.7038  143.6117  162.3640 C   0  0  0  0  0  0  0  0  0  0  0  0
  153.4119  142.3941  162.2352 C   0  0  0  0  0  0  0  0  0  0  0  0
  153.2911  141.7057  161.0151 C   0  0  0  0  0  0  0  0  0  0  0  0
  154.4147  136.5229  162.8907 H   0  0  0  0  0  0  0  0  0  0  0  0
  154.8564  138.0361  163.6784 H   0  0  0  0  0  0  0  0  0  0  0  0
  155.9137  137.3377  162.4515 H   0  0  0  0  0  0  0  0  0  0  0  0
  154.1268  137.6993  160.7188 H   0  0  0  0  0  0  0  0  0  0  0  0
  153.0799  138.3889  161.9351 H   0  0  0  0  0  0  0  0  0  0  0  0
  154.9493  140.1605  162.3340 H   0  0  0  0  0  0  0  0  0  0  0  0
  155.7018  139.5616  160.8822 H   0  0  0  0  0  0  0  0  0  0  0  0
  151.5295  142.4013  157.5679 H   0  0  0  0  0  0  0  0  0  0  0  0
  152.6471  141.3190  156.8128 H   0  0  0  0  0  0  0  0  0  0  0  0
  149.8848  140.8454  157.8559 H   0  0  0  0  0  0  0  0  0  0  0  0
  151.2124  143.7704  159.2611 H   0  0  0  0  0  0  0  0  0  0  0  0
  151.3781  145.0389  161.4146 H   0  0  0  0  0  0  0  0  0  0  0  0
  152.7696  144.1724  163.2846 H   0  0  0  0  0  0  0  0  0  0  0  0
  154.0188  142.0141  163.0433 H   0  0  0  0  0  0  0  0  0  0  0  0
  1  2  1  0  0  0  0
  1 21  1  0  0  0  0
  1 22  1  0  0  0  0
  1 23  1  0  0  0  0
  2  3  1  0  0  0  0
  2 24  1  0  0  0  0
  2 25  1  0  0  0  0
  3  4  1  0  0  0  0
  3 26  1  0  0  0  0
  3 27  1  0  0  0  0
  4 20  1  0  0  0  0
  4  5  1  0  0  0  0
  5  6  2  0  0  0  0
  5  7  1  0  0  0  0
  7  8  1  0  0  0  0
  7 15  1  0  0  0  0
  8  9  1  0  0  0  0
  8 28  1  0  0  0  0
  8 29  1  0  0  0  0
  9 10  1  0  0  0  0
  9 11  1  0  0  0  0
  9 30  1  0  0  0  0
 11 12  1  0  0  0  0
 11 13  1  0  0  0  0
 11 14  1  0  0  0  0
 15 20  2  0  0  0  0
 15 16  1  0  0  0  0
 16 17  2  0  0  0  0
 16 31  1  0  0  0  0
 17 18  1  0  0  0  0
 17 32  1  0  0  0  0
 18 19  2  0  0  0  0
 18 33  1  0  0  0  0
 19 20  1  0  0  0  0
 19 34  1  0  0  0  0
M  CHG  1  10  -1
M  END
> <s_m_source_file>
AV-unprocessed.smi

> <i_m_source_file_index>
2804

> <i_lp_mmshare_version>
43012

> <i_f3d_flags>
0

> <s_epik_input>
W2NIXTFbY0hdW2NIXVtjSF1jKGMxMiluKFtDSDJdW0NIMl1bQ0gzXSljKD1PKW4yW0NIMl1bQ0BIXShbT0hdKUMoRikoRilG

> <s_epik_cmdline>
J2VwaWtfcHl0aG9uJywgJy1waCcsICc3LjAnLCAnLXRuJywgJzgnLCAnLW1hJywgJzIwMCcsICctbWV0YWxfYmluZGluZycsICctaW1hZScsICc8aW5maWxlLm1hZT4nLCAnLW9tYWUnLCAnPG91dGZpbGUubWFlPic=

> <r_epik_Ionization_Penalty>
2.32651

> <r_epik_Ionization_Penalty_Charging>
2.32651

> <r_epik_Ionization_Penalty_Neutral>
0

> <r_epik_State_Penalty>
2.47909

> <r_epik_Charging_Adjusted_Penalty>
4.8056

> <i_epik_Tot_Q>
-1

> <i_epik_Tot_abs_Q>
1

> <r_epik_Metal_State_Penalty>
2.47909

> <b_epik_Metal_Only>
0

> <s_lp_Force_Field>
OPLS_2005

> <r_lp_Energy>
44.0832

> <b_lp_Chiralities_Consistent>
1

> <s_lp_Variant>
AV-unprocessed.smi:2804-3

> <Gold.Version>
5.8.1

> <Gold.Id.Protein>
6NUR|6NUR_protein|mol2

> <Gold.PLP.Fitness>
47.6498

> <Gold.PLP.PLP>
-45.3615

> <Gold.PLP.part.hbond>
-1.0000

> <Gold.PLP.part.metal>
0.0000

> <Gold.PLP.part.buried>
-3.2246

> <Gold.PLP.part.nonpolar>
-40.3046

> <Gold.PLP.part.repulsive>
0.0000

> <Gold.PLP.ligand.clash>
0.0000

> <Gold.PLP.ligand.torsion>
0.3781

> <Gold.PLP.Chemscore.Hbond>
1.0000

> <Gold.PLP.Chemscore.CHOScore>
0.0000

> <Gold.PLP.Chemscore.Metal>
0.0000

> <Gold.Chemscore.Hbonds>
donor molecule, donor type, donor heavy atom, donor atom, acceptor molecule, acceptor atom, score
      P1  H  7997  8009       L1     6  1.00

> <Gold.PLP.Chemscore.Internal.Correction>
0.0445

> <Gold.Rescore>
     Score         DG    S(hbond)    S(metal)    S(lipo)     H(rot)  DE(clash)    DE(int)     intcor
     15.70     -16.20       0.94        0.00     102.36       1.72       0.03       0.47       ----

> <Gold.Chemscore.Fitness>
15.6980

> <Gold.Chemscore.DG>
-16.2019

> <Gold.Chemscore.ZeroCoef>
-5.4800

> <Gold.Chemscore.Hbond>
0.9415

> <Gold.Chemscore.Metal>
0.0000

> <Gold.Chemscore.Lipo>
102.3624

> <Gold.Chemscore.Internal_Hbond>
0.0000

> <Gold.Chemscore.DEClash>
0.0340

> <Gold.Chemscore.DEInternal>
0.4699

> <Gold.Chemscore.Rot>
1.7185

> <Gold.Chemscore.Internal.Correction>
   9.000000E+99

> <Gold.Chemscore.Hbonds>
donor molecule, donor type, donor heavy atom, donor atom, acceptor molecule, acceptor atom, score
      P1  H  7997  8009       L1     6  0.34

> <Gold.Chemscore.Hbond.Weighted>
-3.1447

> <Gold.Chemscore.Metal.Weighted>
-0.0000

> <Gold.Chemscore.Lipo.Weighted>
-11.9764

> <Gold.Chemscore.Internal_Hbond.Weighted>
0.0000

> <Gold.Chemscore.DEClash.Weighted>
0.0340

> <Gold.Chemscore.DEInternal.Weighted>
0.4699

> <Gold.Chemscore.Rot.Weighted>
4.3992

> <Gold.Chemscore.Internal.Correction.Weighted>
   9.000000E+99

> <Gold.Protein.RotatedTorsions>
[ 6907 6896 6895 6894 ] final  -81.03 input  -60.11 | X-H torsion
[ 7974 7965 7964 7962 ] final    1.20 input  175.53 | X-H torsion
[ 8008 7997 7996 7995 ] final  137.66 input   59.86 | X-H torsion
[ 10167 10162 10161 10158 ] final  -17.01 input  -65.29 | X-H torsion
[ 10718 10713 10712 10709 ] final -170.34 input   66.30 | X-H torsion
[ 10763 10752 10751 10750 ] final   82.09 input  -60.55 | X-H torsion
[ 11005 11000 10999 10996 ] final  -74.31 input  -57.11 | X-H torsion

> <Gold.Protein.ActiveResidues>
 VAL166  LYS551  ARG553  GLY616  TRP617  ASP618  TYR619  PRO620  LYS621  CYS622 
 ASP623  PHE694  ASN695  SER759  ASP760  ASP761  ALA762  ILE779  LEU786  VAL792 
 PHE793  MET794  SER795  GLU796  ALA797  LYS798  CYS799  TRP800  GLU811  SER814 

> <Gold.Protein.RotatedAtoms>
  150.6919  134.3879  159.5063 H   0  0  0  0  0  0  0  0  0  0  0  0  # atno 6907 bound_to 6896
  152.1672  134.8861  160.0546 H   0  0  0  0  0  0  0  0  0  0  0  0  # atno 6908 bound_to 6896
  151.9901  133.3753  159.4178 H   0  0  0  0  0  0  0  0  0  0  0  0  # atno 6909 bound_to 6896
  146.2439  140.1023  142.8347 H   0  0  0  0  0  0  0  0  0  0  0  0  # atno 7974 bound_to 7965
  156.3001  140.2413  156.3947 H   0  0  0  0  0  0  0  0  0  0  0  0  # atno 8008 bound_to 7997
  154.8582  140.0421  157.1668 H   0  0  0  0  0  0  0  0  0  0  0  0  # atno 8009 bound_to 7997
  154.8925  140.2965  155.5366 H   0  0  0  0  0  0  0  0  0  0  0  0  # atno 8010 bound_to 7997
  140.7241  143.5059  150.9811 H   0  0  0  0  0  0  0  0  0  0  0  0  # atno 10167 bound_to 10162
  156.7248  130.9284  151.3100 H   0  0  0  0  0  0  0  0  0  0  0  0  # atno 10718 bound_to 10713
  153.1173  135.4741  154.9137 H   0  0  0  0  0  0  0  0  0  0  0  0  # atno 10763 bound_to 10752
  154.7541  135.3114  154.8505 H   0  0  0  0  0  0  0  0  0  0  0  0  # atno 10764 bound_to 10752
  153.9079  135.6868  153.4806 H   0  0  0  0  0  0  0  0  0  0  0  0  # atno 10765 bound_to 10752
  141.1633  133.6907  156.7345 H   0  0  0  0  0  0  0  0  0  0  0  0  # atno 11005 bound_to 11000
  145.0558  140.9051  143.4968 LP  0  0  0  0  0  0  0  0  0  0  0  0  # atno 17320 bound_to 7965
  145.1129  139.2745  143.5628 LP  0  0  0  0  0  0  0  0  0  0  0  0  # atno 17321 bound_to 7965
  139.8770  143.7120  152.3161 LP  0  0  0  0  0  0  0  0  0  0  0  0  # atno 17342 bound_to 10162
  139.7389  144.7564  151.0684 LP  0  0  0  0  0  0  0  0  0  0  0  0  # atno 17343 bound_to 10162
  157.6883  130.9208  150.0445 LP  0  0  0  0  0  0  0  0  0  0  0  0  # atno 17370 bound_to 10713
  156.1569  130.3643  149.9355 LP  0  0  0  0  0  0  0  0  0  0  0  0  # atno 17371 bound_to 10713
  140.2721  134.8384  157.3856 LP  0  0  0  0  0  0  0  0  0  0  0  0  # atno 17394 bound_to 11000
  140.1512  134.4847  155.7960 LP  0  0  0  0  0  0  0  0  0  0  0  0  # atno 17395 bound_to 11000

$$$$
