AV-unprocessed.smi:3129|AV-procd|sdf|11923|dock1
  -GOLD-   2272017303D 1   1.00000     0.00000
 Structure written by MMmdl.
 40 40  0  0  0  0  0  0  0  0  2 V2000
  149.8494  137.9929  157.8107 C   0  0  0  0  0  0  0  0  0  0  0  0
  148.8538  137.2267  156.9220 C   0  0  0  0  0  0  0  0  0  0  0  0
  149.1026  135.7138  157.0113 C   0  0  0  0  0  0  0  0  0  0  0  0
  148.8894  137.7003  155.4562 C   0  0  0  0  0  0  0  0  0  0  0  0
  148.6945  139.1411  155.3530 N   0  0  0  0  0  0  0  0  0  0  0  0
  149.5959  139.9946  154.8467 C   0  0  0  0  0  0  0  0  0  0  0  0
  150.6930  139.6386  154.4146 O   0  0  0  0  0  0  0  0  0  0  0  0
  149.2029  141.4789  154.8403 C   0  0  1  0  0  0  0  0  0  0  0  0
  148.1592  141.7397  153.7435 C   0  0  0  0  0  0  0  0  0  0  0  0
  148.6674  141.9103  156.1511 N   0  3  0  0  0  0  0  0  0  0  0  0
  149.4669  141.4960  157.3253 C   0  0  0  0  0  0  0  0  0  0  0  0
  150.9429  141.9021  157.1697 C   0  0  0  0  0  0  0  0  0  0  0  0
  151.3778  142.8600  158.1731 N   0  0  0  0  0  0  0  0  0  0  0  0
  151.3960  144.2367  158.0882 C   0  0  0  0  0  0  0  0  0  0  0  0
  151.9041  144.7110  159.2633 C   0  0  0  0  0  0  0  0  0  0  0  0
  152.1864  143.5333  160.0098 C   0  0  0  0  0  0  0  0  0  0  0  0
  151.8790  142.4277  159.3512 N   0  0  0  0  0  0  0  0  0  0  0  0
  150.8731  137.8666  157.4569 H   0  0  0  0  0  0  0  0  0  0  0  0
  149.8089  137.6363  158.8404 H   0  0  0  0  0  0  0  0  0  0  0  0
  149.6334  139.0612  157.8311 H   0  0  0  0  0  0  0  0  0  0  0  0
  147.8521  137.4135  157.3112 H   0  0  0  0  0  0  0  0  0  0  0  0
  150.0938  135.4527  156.6388 H   0  0  0  0  0  0  0  0  0  0  0  0
  148.3695  135.1584  156.4253 H   0  0  0  0  0  0  0  0  0  0  0  0
  149.0312  135.3635  158.0414 H   0  0  0  0  0  0  0  0  0  0  0  0
  149.8423  137.4304  154.9977 H   0  0  0  0  0  0  0  0  0  0  0  0
  148.1073  137.1982  154.8842 H   0  0  0  0  0  0  0  0  0  0  0  0
  147.8195  139.5101  155.6965 H   0  0  0  0  0  0  0  0  0  0  0  0
  150.0863  142.0804  154.6184 H   0  0  0  0  0  0  0  0  0  0  0  0
  148.5375  141.4598  152.7592 H   0  0  0  0  0  0  0  0  0  0  0  0
  147.8933  142.7965  153.7001 H   0  0  0  0  0  0  0  0  0  0  0  0
  147.2425  141.1750  153.9199 H   0  0  0  0  0  0  0  0  0  0  0  0
  148.6145  142.9185  156.1547 H   0  0  0  0  0  0  0  0  0  0  0  0
  149.0539  141.9322  158.2356 H   0  0  0  0  0  0  0  0  0  0  0  0
  149.3956  140.4138  157.4382 H   0  0  0  0  0  0  0  0  0  0  0  0
  151.5818  141.0212  157.2427 H   0  0  0  0  0  0  0  0  0  0  0  0
  151.1120  142.3308  156.1811 H   0  0  0  0  0  0  0  0  0  0  0  0
  151.0474  144.7598  157.2096 H   0  0  0  0  0  0  0  0  0  0  0  0
  152.0566  145.7425  159.5449 H   0  0  0  0  0  0  0  0  0  0  0  0
  152.6062  143.4491  161.0014 H   0  0  0  0  0  0  0  0  0  0  0  0
  147.7333  141.5368  156.2465 H   0  0  0  0  0  0  0  0  0  0  0  0
  1  2  1  0  0  0  0
  1 18  1  0  0  0  0
  1 19  1  0  0  0  0
  1 20  1  0  0  0  0
  2  3  1  0  0  0  0
  2  4  1  0  0  0  0
  2 21  1  0  0  0  0
  3 22  1  0  0  0  0
  3 23  1  0  0  0  0
  3 24  1  0  0  0  0
  4  5  1  0  0  0  0
  4 25  1  0  0  0  0
  4 26  1  0  0  0  0
  5  6  1  0  0  0  0
  5 27  1  0  0  0  0
  6  7  2  0  0  0  0
  6  8  1  0  0  0  0
  8  9  1  0  0  0  0
  8 10  1  0  0  0  0
  8 28  1  0  0  0  0
  9 29  1  0  0  0  0
  9 30  1  0  0  0  0
  9 31  1  0  0  0  0
 10 11  1  0  0  0  0
 10 32  1  0  0  0  0
 10 40  1  0  0  0  0
 11 12  1  0  0  0  0
 11 33  1  0  0  0  0
 11 34  1  0  0  0  0
 12 13  1  0  0  0  0
 12 35  1  0  0  0  0
 12 36  1  0  0  0  0
 13 17  1  0  0  0  0
 13 14  1  0  0  0  0
 14 15  2  0  0  0  0
 14 37  1  0  0  0  0
 15 16  1  0  0  0  0
 15 38  1  0  0  0  0
 16 17  2  0  0  0  0
 16 39  1  0  0  0  0
M  CHG  1  10   1
M  END
> <s_m_source_file>
AV-unprocessed.smi

> <i_m_source_file_index>
3129

> <i_lp_mmshare_version>
43012

> <i_f3d_flags>
0

> <s_epik_input>
W0NIM11bQ0hdKFtDSDNdKVtDSDJdW05IXUMoPU8pW0NASF0oW0NIM10pW05IXVtDSDJdW0NIMl1uMVtjSF1bY0hdW2NIXW4x

> <s_epik_cmdline>
J2VwaWtfcHl0aG9uJywgJy1waCcsICc3LjAnLCAnLXRuJywgJzgnLCAnLW1hJywgJzIwMCcsICctbWV0YWxfYmluZGluZycsICctaW1hZScsICc8aW5maWxlLm1hZT4nLCAnLW9tYWUnLCAnPG91dGZpbGUubWFlPic=

> <r_lp_tautomer_probability>
1

> <r_epik_Ionization_Penalty>
0.20724

> <r_epik_Ionization_Penalty_Charging>
0.207237

> <r_epik_Ionization_Penalty_Neutral>
3.32432e-06

> <r_epik_State_Penalty>
0.197234

> <r_epik_Charging_Adjusted_Penalty>
0.404471

> <i_epik_Tot_Q>
1

> <i_epik_Tot_abs_Q>
1

> <r_epik_Metal_State_Penalty>
0.197522

> <b_epik_Metal_Only>
0

> <s_lp_Force_Field>
OPLS_2005

> <r_lp_Energy>
6.88256

> <b_lp_Chiralities_Consistent>
1

> <s_lp_Variant>
AV-unprocessed.smi:3129-2

> <Gold.Version>
5.8.1

> <Gold.Id.Protein>
6NUR|6NUR_protein|mol2

> <Gold.PLP.Fitness>
43.7589

> <Gold.PLP.PLP>
-33.6517

> <Gold.PLP.part.hbond>
-2.0000

> <Gold.PLP.part.metal>
0.0000

> <Gold.PLP.part.buried>
-4.8948

> <Gold.PLP.part.nonpolar>
-26.5679

> <Gold.PLP.part.repulsive>
0.1826

> <Gold.PLP.ligand.clash>
0.0000

> <Gold.PLP.ligand.torsion>
1.1215

> <Gold.PLP.Chemscore.Hbond>
3.0000

> <Gold.PLP.Chemscore.CHOScore>
1.0000

> <Gold.PLP.Chemscore.Metal>
0.0000

> <Gold.Chemscore.Hbonds>
donor molecule, donor type, donor heavy atom, donor atom, acceptor molecule, acceptor atom, score
      L1  H    10    32       P1  8028  2.00
      P1  H  7989  7998       L1     7  1.00
      L1  C    14    37       P1  8028  0.78

> <Gold.PLP.Chemscore.Internal.Correction>
0.3502

> <Gold.Rescore>
     Score         DG    S(hbond)    S(metal)    S(lipo)     H(rot)  DE(clash)    DE(int)     intcor
     14.61     -15.39       1.97        0.00      77.06       2.22       0.05       0.72       ----

> <Gold.Chemscore.Fitness>
14.6129

> <Gold.Chemscore.DG>
-15.3863

> <Gold.Chemscore.ZeroCoef>
-5.4800

> <Gold.Chemscore.Hbond>
1.9720

> <Gold.Chemscore.Metal>
0.0000

> <Gold.Chemscore.Lipo>
77.0556

> <Gold.Chemscore.Internal_Hbond>
0.0000

> <Gold.Chemscore.DEClash>
0.0490

> <Gold.Chemscore.DEInternal>
0.7244

> <Gold.Chemscore.Rot>
2.2249

> <Gold.Chemscore.Internal.Correction>
   9.000000E+99

> <Gold.Chemscore.Hbonds>
donor molecule, donor type, donor heavy atom, donor atom, acceptor molecule, acceptor atom, score
      L1  H    10    32       P1  8028  0.97
      P1  H  7989  7998       L1     7  0.94

> <Gold.Chemscore.Hbond.Weighted>
-6.5865

> <Gold.Chemscore.Metal.Weighted>
-0.0000

> <Gold.Chemscore.Lipo.Weighted>
-9.0155

> <Gold.Chemscore.Internal_Hbond.Weighted>
0.0000

> <Gold.Chemscore.DEClash.Weighted>
0.0490

> <Gold.Chemscore.DEInternal.Weighted>
0.7244

> <Gold.Chemscore.Rot.Weighted>
5.6957

> <Gold.Chemscore.Internal.Correction.Weighted>
   9.000000E+99

> <Gold.Protein.RotatedTorsions>
[ 6907 6896 6895 6894 ] final   14.98 input  -60.11 | X-H torsion
[ 7974 7965 7964 7962 ] final -152.23 input  175.53 | X-H torsion
[ 8008 7997 7996 7995 ] final  -41.84 input   59.86 | X-H torsion
[ 10167 10162 10161 10158 ] final  -82.59 input  -65.29 | X-H torsion
[ 10718 10713 10712 10709 ] final -122.74 input   66.30 | X-H torsion
[ 10763 10752 10751 10750 ] final -159.99 input  -60.55 | X-H torsion
[ 11005 11000 10999 10996 ] final  -27.98 input  -57.11 | X-H torsion

> <Gold.Protein.ActiveResidues>
 VAL166  LYS551  ARG553  GLY616  TRP617  ASP618  TYR619  PRO620  LYS621  CYS622 
 ASP623  PHE694  ASN695  SER759  ASP760  ASP761  ALA762  ILE779  LEU786  VAL792 
 PHE793  MET794  SER795  GLU796  ALA797  LYS798  CYS799  TRP800  GLU811  SER814 

> <Gold.Protein.RotatedAtoms>
  151.8108  135.0681  160.0412 H   0  0  0  0  0  0  0  0  0  0  0  0  # atno 6907 bound_to 6896
  152.3022  133.5662  159.5634 H   0  0  0  0  0  0  0  0  0  0  0  0  # atno 6908 bound_to 6896
  150.7279  134.0191  159.3737 H   0  0  0  0  0  0  0  0  0  0  0  0  # atno 6909 bound_to 6896
  144.7805  140.4690  143.5842 H   0  0  0  0  0  0  0  0  0  0  0  0  # atno 7974 bound_to 7965
  154.4002  140.1489  156.3256 H   0  0  0  0  0  0  0  0  0  0  0  0  # atno 8008 bound_to 7997
  155.8490  140.3458  155.5659 H   0  0  0  0  0  0  0  0  0  0  0  0  # atno 8009 bound_to 7997
  155.8005  140.0869  157.1950 H   0  0  0  0  0  0  0  0  0  0  0  0  # atno 8010 bound_to 7997
  140.4306  143.2550  151.8765 H   0  0  0  0  0  0  0  0  0  0  0  0  # atno 10167 bound_to 10162
  156.1444  130.6489  150.9819 H   0  0  0  0  0  0  0  0  0  0  0  0  # atno 10718 bound_to 10713
  154.7428  135.3073  154.8698 H   0  0  0  0  0  0  0  0  0  0  0  0  # atno 10763 bound_to 10752
  153.9508  135.6764  153.4748 H   0  0  0  0  0  0  0  0  0  0  0  0  # atno 10764 bound_to 10752
  153.1026  135.4905  154.8819 H   0  0  0  0  0  0  0  0  0  0  0  0  # atno 10765 bound_to 10752
  140.9168  133.7425  156.0746 H   0  0  0  0  0  0  0  0  0  0  0  0  # atno 11005 bound_to 11000
  145.6063  139.1508  143.3101 LP  0  0  0  0  0  0  0  0  0  0  0  0  # atno 17320 bound_to 7965
  146.2011  140.6181  142.9102 LP  0  0  0  0  0  0  0  0  0  0  0  0  # atno 17321 bound_to 7965
  139.4785  144.5339  151.8626 LP  0  0  0  0  0  0  0  0  0  0  0  0  # atno 17342 bound_to 10162
  140.4432  144.1958  150.5892 LP  0  0  0  0  0  0  0  0  0  0  0  0  # atno 17343 bound_to 10162
  157.6603  131.0882  150.7853 LP  0  0  0  0  0  0  0  0  0  0  0  0  # atno 17370 bound_to 10713
  156.7925  130.4895  149.5382 LP  0  0  0  0  0  0  0  0  0  0  0  0  # atno 17371 bound_to 10713
  140.8040  134.3476  157.5431 LP  0  0  0  0  0  0  0  0  0  0  0  0  # atno 17394 bound_to 11000
  139.8767  134.9214  156.3275 LP  0  0  0  0  0  0  0  0  0  0  0  0  # atno 17395 bound_to 11000

$$$$
