AV-unprocessed.smi:1624|AV-procd|sdf|6504|dock6
  -GOLD-   22720 7173D 1   1.00000     0.00000
 Structure written by MMmdl.
 35 36  0  0  0  0  0  0  0  0  2 V2000
  150.2071  140.3115  154.5370 O   0  0  0  0  0  0  0  0  0  0  0  0
  149.5088  141.3146  154.7033 C   0  0  0  0  0  0  0  0  0  0  0  0
  149.6337  142.0371  155.8261 N   0  0  0  0  0  0  0  0  0  0  0  0
  150.5568  141.7571  156.9203 C   0  0  0  0  0  0  0  0  0  0  0  0
  150.5133  142.8621  157.9918 C   0  0  0  0  0  0  0  0  0  0  0  0
  151.7411  142.8777  158.7942 N   0  0  0  0  0  0  0  0  0  0  0  0
  152.3451  144.2004  159.0165 C   0  0  0  0  0  0  0  0  0  0  0  0
  152.1990  144.7100  160.4678 C   0  0  0  0  0  0  0  0  0  0  0  0
  152.2008  143.6303  161.5679 C   0  0  0  0  0  0  0  0  0  0  0  0
  153.3702  142.6259  161.4956 C   0  0  0  0  0  0  0  0  0  0  0  0
  153.5494  141.8611  160.1608 C   0  0  0  0  0  0  0  0  0  0  0  0
  152.2735  141.7431  159.3101 C   0  0  0  0  0  0  0  0  0  0  0  0
  151.7847  140.6279  159.1271 O   0  0  0  0  0  0  0  0  0  0  0  0
  148.5877  141.8005  153.8401 N   0  5  0  0  0  0  0  0  0  0  0  0
  147.3603  142.1221  154.2810 C   0  0  0  0  0  0  0  0  0  0  0  0
  146.8846  141.6949  155.4617 N   0  0  0  0  0  0  0  0  0  0  0  0
  145.5972  142.1433  155.7261 N   0  0  0  0  0  0  0  0  0  0  0  0
  145.1367  142.9088  154.7372 C   0  0  0  0  0  0  0  0  0  0  0  0
  146.2338  143.1533  153.3946 S   0  0  0  0  0  0  0  0  0  0  0  0
  149.0437  142.8505  155.9230 H   0  0  0  0  0  0  0  0  0  0  0  0
  150.2816  140.7969  157.3571 H   0  0  0  0  0  0  0  0  0  0  0  0
  151.5694  141.6403  156.5304 H   0  0  0  0  0  0  0  0  0  0  0  0
  150.3666  143.8369  157.5247 H   0  0  0  0  0  0  0  0  0  0  0  0
  149.6427  142.7233  158.6353 H   0  0  0  0  0  0  0  0  0  0  0  0
  153.3998  144.1639  158.7433 H   0  0  0  0  0  0  0  0  0  0  0  0
  151.9244  144.9393  158.3331 H   0  0  0  0  0  0  0  0  0  0  0  0
  152.9881  145.4358  160.6662 H   0  0  0  0  0  0  0  0  0  0  0  0
  151.2632  145.2638  160.5480 H   0  0  0  0  0  0  0  0  0  0  0  0
  152.2178  144.1220  162.5409 H   0  0  0  0  0  0  0  0  0  0  0  0
  151.2543  143.0879  161.5438 H   0  0  0  0  0  0  0  0  0  0  0  0
  154.2992  143.1500  161.7219 H   0  0  0  0  0  0  0  0  0  0  0  0
  153.2434  141.8994  162.2988 H   0  0  0  0  0  0  0  0  0  0  0  0
  154.3275  142.3327  159.5608 H   0  0  0  0  0  0  0  0  0  0  0  0
  153.9306  140.8611  160.3712 H   0  0  0  0  0  0  0  0  0  0  0  0
  144.1464  143.3347  154.7997 H   0  0  0  0  0  0  0  0  0  0  0  0
  1  2  2  0  0  0  0
  2  3  1  0  0  0  0
  2 14  1  0  0  0  0
  3  4  1  0  0  0  0
  3 20  1  0  0  0  0
  4  5  1  0  0  0  0
  4 21  1  0  0  0  0
  4 22  1  0  0  0  0
  5  6  1  0  0  0  0
  5 23  1  0  0  0  0
  5 24  1  0  0  0  0
  6 12  1  0  0  0  0
  6  7  1  0  0  0  0
  7  8  1  0  0  0  0
  7 25  1  0  0  0  0
  7 26  1  0  0  0  0
  8  9  1  0  0  0  0
  8 27  1  0  0  0  0
  8 28  1  0  0  0  0
  9 10  1  0  0  0  0
  9 29  1  0  0  0  0
  9 30  1  0  0  0  0
 10 11  1  0  0  0  0
 10 31  1  0  0  0  0
 10 32  1  0  0  0  0
 11 12  1  0  0  0  0
 11 33  1  0  0  0  0
 11 34  1  0  0  0  0
 12 13  2  0  0  0  0
 14 15  1  0  0  0  0
 15 19  1  0  0  0  0
 15 16  2  0  0  0  0
 16 17  1  0  0  0  0
 17 18  2  0  0  0  0
 18 19  1  0  0  0  0
 18 35  1  0  0  0  0
M  CHG  1  14  -1
M  END
> <s_m_source_file>
AV-unprocessed.smi

> <i_m_source_file_index>
1624

> <i_lp_mmshare_version>
43012

> <i_f3d_flags>
0

> <s_epik_input>
czFbY0hdbm5jMVtOSF1DKD1PKVtOSF1bQ0gyXVtDSDJdTjJbQ0gyXVtDSDJdW0NIMl1bQ0gyXVtDSDJdQzI9Tw==

> <s_epik_cmdline>
J2VwaWtfcHl0aG9uJywgJy1waCcsICc3LjAnLCAnLXRuJywgJzgnLCAnLW1hJywgJzIwMCcsICctbWV0YWxfYmluZGluZycsICctaW1hZScsICc8aW5maWxlLm1hZT4nLCAnLW9tYWUnLCAnPG91dGZpbGUubWFlPic=

> <r_lp_tautomer_probability>
1

> <r_epik_Ionization_Penalty>
3.35684

> <r_epik_Ionization_Penalty_Charging>
3.31562

> <r_epik_Ionization_Penalty_Neutral>
0.0412242

> <r_epik_State_Penalty>
3.31341

> <r_epik_Charging_Adjusted_Penalty>
6.62903

> <i_epik_Tot_Q>
-1

> <i_epik_Tot_abs_Q>
1

> <r_epik_Metal_State_Penalty>
0.484053

> <b_epik_Metal_Only>
1

> <s_lp_Force_Field>
OPLS_2005

> <r_lp_Energy>
19.6576

> <b_lp_Chiralities_Consistent>
1

> <s_lp_Variant>
AV-unprocessed.smi:1624-2

> <Gold.Version>
5.8.1

> <Gold.Id.Protein>
6NUR|6NUR_protein|mol2

> <Gold.PLP.Fitness>
50.5008

> <Gold.PLP.PLP>
-44.7558

> <Gold.PLP.part.hbond>
-3.0000

> <Gold.PLP.part.metal>
0.0000

> <Gold.PLP.part.buried>
-6.1808

> <Gold.PLP.part.nonpolar>
-33.8950

> <Gold.PLP.part.repulsive>
0.6410

> <Gold.PLP.ligand.clash>
0.0000

> <Gold.PLP.ligand.torsion>
0.7665

> <Gold.PLP.Chemscore.Hbond>
2.4194

> <Gold.PLP.Chemscore.CHOScore>
0.0000

> <Gold.PLP.Chemscore.Metal>
0.0000

> <Gold.Chemscore.Hbonds>
donor molecule, donor type, donor heavy atom, donor atom, acceptor molecule, acceptor atom, score
      L1  H     3    20       P1  8028  0.93
      P1  H  7989  7998       L1     1  1.00
      P1  H  8011  8017       L1    14  0.53

> <Gold.PLP.Chemscore.Internal.Correction>
0.0200

> <Gold.Rescore>
     Score         DG    S(hbond)    S(metal)    S(lipo)     H(rot)  DE(clash)    DE(int)     intcor
     12.74     -16.38       1.60        0.00      85.40       1.73       0.09       3.55       ----

> <Gold.Chemscore.Fitness>
12.7402

> <Gold.Chemscore.DG>
-16.3755

> <Gold.Chemscore.ZeroCoef>
-5.4800

> <Gold.Chemscore.Hbond>
1.5999

> <Gold.Chemscore.Metal>
0.0000

> <Gold.Chemscore.Lipo>
85.4043

> <Gold.Chemscore.Internal_Hbond>
0.0000

> <Gold.Chemscore.DEClash>
0.0862

> <Gold.Chemscore.DEInternal>
3.5491

> <Gold.Chemscore.Rot>
1.7346

> <Gold.Chemscore.Internal.Correction>
   9.000000E+99

> <Gold.Chemscore.Hbonds>
donor molecule, donor type, donor heavy atom, donor atom, acceptor molecule, acceptor atom, score
      L1  H     3    20       P1  8028  0.91
      P1  H  7989  7998       L1     1  0.48
      P1  H  8011  8017       L1    14  0.15

> <Gold.Chemscore.Hbond.Weighted>
-5.3438

> <Gold.Chemscore.Metal.Weighted>
-0.0000

> <Gold.Chemscore.Lipo.Weighted>
-9.9923

> <Gold.Chemscore.Internal_Hbond.Weighted>
0.0000

> <Gold.Chemscore.DEClash.Weighted>
0.0862

> <Gold.Chemscore.DEInternal.Weighted>
3.5491

> <Gold.Chemscore.Rot.Weighted>
4.4406

> <Gold.Chemscore.Internal.Correction.Weighted>
   9.000000E+99

> <Gold.Protein.RotatedTorsions>
[ 6907 6896 6895 6894 ] final  112.61 input  -60.11 | X-H torsion
[ 7974 7965 7964 7962 ] final   40.77 input  175.53 | X-H torsion
[ 8008 7997 7996 7995 ] final   96.69 input   59.86 | X-H torsion
[ 10167 10162 10161 10158 ] final   11.00 input  -65.29 | X-H torsion
[ 10718 10713 10712 10709 ] final -120.21 input   66.30 | X-H torsion
[ 10763 10752 10751 10750 ] final -160.16 input  -60.55 | X-H torsion
[ 11005 11000 10999 10996 ] final   32.38 input  -57.11 | X-H torsion

> <Gold.Protein.ActiveResidues>
 VAL166  LYS551  ARG553  GLY616  TRP617  ASP618  TYR619  PRO620  LYS621  CYS622 
 ASP623  PHE694  ASN695  SER759  ASP760  ASP761  ALA762  ILE779  LEU786  VAL792 
 PHE793  MET794  SER795  GLU796  ALA797  LYS798  CYS799  TRP800  GLU811  SER814 

> <Gold.Protein.RotatedAtoms>
  152.4907  133.8491  159.7192 H   0  0  0  0  0  0  0  0  0  0  0  0  # atno 6907 bound_to 6896
  150.9033  133.7081  159.2880 H   0  0  0  0  0  0  0  0  0  0  0  0  # atno 6908 bound_to 6896
  151.4515  135.1034  159.9751 H   0  0  0  0  0  0  0  0  0  0  0  0  # atno 6909 bound_to 6896
  146.0877  139.5493  142.9496 H   0  0  0  0  0  0  0  0  0  0  0  0  # atno 7974 bound_to 7965
  156.0822  140.3269  155.7709 H   0  0  0  0  0  0  0  0  0  0  0  0  # atno 8008 bound_to 7997
  155.5134  140.0579  157.2937 H   0  0  0  0  0  0  0  0  0  0  0  0  # atno 8009 bound_to 7997
  154.4589  140.1956  156.0318 H   0  0  0  0  0  0  0  0  0  0  0  0  # atno 8010 bound_to 7997
  140.6159  143.8309  150.7118 H   0  0  0  0  0  0  0  0  0  0  0  0  # atno 10167 bound_to 10162
  156.1240  130.6345  150.9512 H   0  0  0  0  0  0  0  0  0  0  0  0  # atno 10718 bound_to 10713
  154.7414  135.3069  154.8721 H   0  0  0  0  0  0  0  0  0  0  0  0  # atno 10763 bound_to 10752
  153.9534  135.6761  153.4748 H   0  0  0  0  0  0  0  0  0  0  0  0  # atno 10764 bound_to 10752
  153.1013  135.4911  154.8796 H   0  0  0  0  0  0  0  0  0  0  0  0  # atno 10765 bound_to 10752
  140.2741  134.3048  155.7819 H   0  0  0  0  0  0  0  0  0  0  0  0  # atno 11005 bound_to 11000
  145.6098  141.0341  143.1973 LP  0  0  0  0  0  0  0  0  0  0  0  0  # atno 17320 bound_to 7965
  144.7338  139.7647  143.7337 LP  0  0  0  0  0  0  0  0  0  0  0  0  # atno 17321 bound_to 7965
  140.1888  143.4054  152.1879 LP  0  0  0  0  0  0  0  0  0  0  0  0  # atno 17342 bound_to 10162
  139.5398  144.7246  151.4771 LP  0  0  0  0  0  0  0  0  0  0  0  0  # atno 17343 bound_to 10162
  157.6423  131.0908  150.8226 LP  0  0  0  0  0  0  0  0  0  0  0  0  # atno 17370 bound_to 10713
  156.8319  130.5018  149.5330 LP  0  0  0  0  0  0  0  0  0  0  0  0  # atno 17371 bound_to 10713
  141.2173  133.7485  156.9380 LP  0  0  0  0  0  0  0  0  0  0  0  0  # atno 17394 bound_to 11000
  140.1345  134.9334  157.2383 LP  0  0  0  0  0  0  0  0  0  0  0  0  # atno 17395 bound_to 11000

$$$$
