AV-unprocessed.smi:3009|AV-procd|sdf|11454|dock8
  -GOLD-   2272016383D 1   1.00000     0.00000
 Structure written by MMmdl.
 43 44  0  0  0  0  0  0  0  0  1 V2000
  151.9870  143.3494  159.3025 C   0  0  0  0  0  0  0  0  0  0  0  0
  151.3060  142.0904  158.7414 C   0  0  0  0  0  0  0  0  0  0  0  0
  152.1723  140.8493  158.9997 C   0  0  0  0  0  0  0  0  0  0  0  0
  150.9993  142.2278  157.2344 C   0  0  0  0  0  0  0  0  0  0  0  0
  150.7085  140.9805  156.5256 N   0  0  0  0  0  0  0  0  0  0  0  0
  151.9138  140.3066  156.0473 C   0  0  0  0  0  0  0  0  0  0  0  0
  151.5826  139.0107  155.2874 C   0  0  0  0  0  0  0  0  0  0  0  0
  150.6951  139.2947  154.2113 O   0  0  0  0  0  0  0  0  0  0  0  0
  149.4854  139.9178  154.6352 C   0  0  2  0  0  0  0  0  0  0  0  0
  148.5650  140.1277  153.4173 C   0  0  0  0  0  0  0  0  0  0  0  0
  148.0893  138.8716  152.8439 N   0  0  0  0  0  0  0  0  0  0  0  0
  146.8073  138.4853  152.7870 C   0  0  0  0  0  0  0  0  0  0  0  0
  145.8701  139.1655  153.2047 O   0  0  0  0  0  0  0  0  0  0  0  0
  146.6886  137.2732  152.2206 N   0  0  0  0  0  0  0  0  0  0  0  0
  145.4944  136.5454  151.9870 C   0  0  0  0  0  0  0  0  0  0  0  0
  145.2781  135.6781  150.8818 C   0  0  0  0  0  0  0  0  0  0  0  0
  144.0697  135.1352  150.9222 N   0  0  0  0  0  0  0  0  0  0  0  0
  143.5126  135.6475  152.0427 N   0  0  0  0  0  0  0  0  0  0  0  0
  144.3434  136.5101  152.7232 C   0  0  0  0  0  0  0  0  0  0  0  0
  149.8227  141.2205  155.3918 C   0  0  0  0  0  0  0  0  0  0  0  0
  142.5746  135.4022  152.3265 H   0  0  0  0  0  0  0  0  0  0  0  0
  152.9302  143.5508  158.7939 H   0  0  0  0  0  0  0  0  0  0  0  0
  152.1988  143.2395  160.3664 H   0  0  0  0  0  0  0  0  0  0  0  0
  151.3524  144.2285  159.1872 H   0  0  0  0  0  0  0  0  0  0  0  0
  150.3755  141.9384  159.2872 H   0  0  0  0  0  0  0  0  0  0  0  0
  153.1348  140.9238  158.4924 H   0  0  0  0  0  0  0  0  0  0  0  0
  151.6779  139.9449  158.6442 H   0  0  0  0  0  0  0  0  0  0  0  0
  152.3664  140.7192  160.0647 H   0  0  0  0  0  0  0  0  0  0  0  0
  150.1463  142.9000  157.1306 H   0  0  0  0  0  0  0  0  0  0  0  0
  151.8323  142.7325  156.7422 H   0  0  0  0  0  0  0  0  0  0  0  0
  152.4779  140.9741  155.3942 H   0  0  0  0  0  0  0  0  0  0  0  0
  152.5676  140.0575  156.8820 H   0  0  0  0  0  0  0  0  0  0  0  0
  152.4924  138.5616  154.8889 H   0  0  0  0  0  0  0  0  0  0  0  0
  151.1295  138.2775  155.9563 H   0  0  0  0  0  0  0  0  0  0  0  0
  148.9780  139.2351  155.3192 H   0  0  0  0  0  0  0  0  0  0  0  0
  147.7263  140.7722  153.6848 H   0  0  0  0  0  0  0  0  0  0  0  0
  149.1143  140.6563  152.6380 H   0  0  0  0  0  0  0  0  0  0  0  0
  148.7907  138.2472  152.4735 H   0  0  0  0  0  0  0  0  0  0  0  0
  147.5423  136.8250  151.9221 H   0  0  0  0  0  0  0  0  0  0  0  0
  145.9436  135.4306  150.0678 H   0  0  0  0  0  0  0  0  0  0  0  0
  144.0438  137.0013  153.6370 H   0  0  0  0  0  0  0  0  0  0  0  0
  148.8978  141.6827  155.7391 H   0  0  0  0  0  0  0  0  0  0  0  0
  150.2901  141.9337  154.7111 H   0  0  0  0  0  0  0  0  0  0  0  0
  1  2  1  0  0  0  0
  1 22  1  0  0  0  0
  1 23  1  0  0  0  0
  1 24  1  0  0  0  0
  2  3  1  0  0  0  0
  2  4  1  0  0  0  0
  2 25  1  0  0  0  0
  3 26  1  0  0  0  0
  3 27  1  0  0  0  0
  3 28  1  0  0  0  0
  4  5  1  0  0  0  0
  4 29  1  0  0  0  0
  4 30  1  0  0  0  0
  5 20  1  0  0  0  0
  5  6  1  0  0  0  0
  6  7  1  0  0  0  0
  6 31  1  0  0  0  0
  6 32  1  0  0  0  0
  7  8  1  0  0  0  0
  7 33  1  0  0  0  0
  7 34  1  0  0  0  0
  8  9  1  0  0  0  0
  9 10  1  0  0  0  0
  9 20  1  0  0  0  0
  9 35  1  0  0  0  0
 10 11  1  0  0  0  0
 10 36  1  0  0  0  0
 10 37  1  0  0  0  0
 11 12  1  0  0  0  0
 11 38  1  0  0  0  0
 12 13  2  0  0  0  0
 12 14  1  0  0  0  0
 14 15  1  0  0  0  0
 14 39  1  0  0  0  0
 15 19  2  0  0  0  0
 15 16  1  0  0  0  0
 16 17  2  0  0  0  0
 16 40  1  0  0  0  0
 17 18  1  0  0  0  0
 18 21  1  0  0  0  0
 18 19  1  0  0  0  0
 19 41  1  0  0  0  0
 20 42  1  0  0  0  0
 20 43  1  0  0  0  0
M  END
> <s_m_source_file>
AV-unprocessed.smi

> <i_m_source_file_index>
3009

> <i_lp_mmshare_version>
43012

> <i_f3d_flags>
0

> <s_epik_input>
W0NIM11bQ0hdKFtDSDNdKVtDSDJdTjFbQ0gyXVtDSDJdT1tDQEhdKFtDSDJdMSlbQ0gyXVtOSF1DKD1PKVtOSF1jMltjSF1uW25IXVtjSF0y

> <s_epik_cmdline>
J2VwaWtfcHl0aG9uJywgJy1waCcsICc3LjAnLCAnLXRuJywgJzgnLCAnLW1hJywgJzIwMCcsICctbWV0YWxfYmluZGluZycsICctaW1hZScsICc8aW5maWxlLm1hZT4nLCAnLW9tYWUnLCAnPG91dGZpbGUubWFlPic=

> <r_lp_tautomer_probability>
0.5

> <r_epik_Ionization_Penalty>
1.11801

> <r_epik_Ionization_Penalty_Charging>
0

> <r_epik_Ionization_Penalty_Neutral>
1.11801

> <r_epik_State_Penalty>
1.17654

> <r_epik_Charging_Adjusted_Penalty>
1.17654

> <i_epik_Tot_Q>
0

> <i_epik_Tot_abs_Q>
0

> <r_epik_Metal_State_Penalty>
1.17654

> <b_epik_Metal_Only>
0

> <s_lp_Force_Field>
OPLS_2005

> <r_lp_Energy>
28.7191

> <b_lp_Chiralities_Consistent>
1

> <s_lp_Variant>
AV-unprocessed.smi:3009-6

> <Gold.Version>
5.8.1

> <Gold.Id.Protein>
6NUR|6NUR_protein|mol2

> <Gold.PLP.Fitness>
41.2676

> <Gold.PLP.PLP>
-31.7413

> <Gold.PLP.part.hbond>
-3.9557

> <Gold.PLP.part.metal>
0.0000

> <Gold.PLP.part.buried>
-2.5133

> <Gold.PLP.part.nonpolar>
-30.6460

> <Gold.PLP.part.repulsive>
3.8609

> <Gold.PLP.ligand.clash>
0.0000

> <Gold.PLP.ligand.torsion>
0.7472

> <Gold.PLP.Chemscore.Hbond>
2.6573

> <Gold.PLP.Chemscore.CHOScore>
1.0000

> <Gold.PLP.Chemscore.Metal>
0.0000

> <Gold.Chemscore.Hbonds>
donor molecule, donor type, donor heavy atom, donor atom, acceptor molecule, acceptor atom, score
      L1  H    11    38       P1  7948  0.70
      L1  H    14    39       P1  7948  0.94
      P1  H  7989  7998       L1     8  0.90
      L1  C    16    40       P1  7921  1.00

> <Gold.PLP.Chemscore.Internal.Correction>
0.0487

> <Gold.Rescore>
     Score         DG    S(hbond)    S(metal)    S(lipo)     H(rot)  DE(clash)    DE(int)     intcor
     13.57     -17.68       1.93        0.00      87.50       1.76       3.25       0.85       ----

> <Gold.Chemscore.Fitness>
13.5747

> <Gold.Chemscore.DG>
-17.6783

> <Gold.Chemscore.ZeroCoef>
-5.4800

> <Gold.Chemscore.Hbond>
1.9335

> <Gold.Chemscore.Metal>
0.0000

> <Gold.Chemscore.Lipo>
87.5044

> <Gold.Chemscore.Internal_Hbond>
0.0000

> <Gold.Chemscore.DEClash>
3.2542

> <Gold.Chemscore.DEInternal>
0.8494

> <Gold.Chemscore.Rot>
1.7568

> <Gold.Chemscore.Internal.Correction>
   9.000000E+99

> <Gold.Chemscore.Hbonds>
donor molecule, donor type, donor heavy atom, donor atom, acceptor molecule, acceptor atom, score
      L1  H    11    38       P1  7948  0.68
      L1  H    14    39       P1  7948  0.90
      P1  H  7989  7998       L1     8  0.05

> <Gold.Chemscore.Hbond.Weighted>
-6.4578

> <Gold.Chemscore.Metal.Weighted>
-0.0000

> <Gold.Chemscore.Lipo.Weighted>
-10.2380

> <Gold.Chemscore.Internal_Hbond.Weighted>
0.0000

> <Gold.Chemscore.DEClash.Weighted>
3.2542

> <Gold.Chemscore.DEInternal.Weighted>
0.8494

> <Gold.Chemscore.Rot.Weighted>
4.4974

> <Gold.Chemscore.Internal.Correction.Weighted>
   9.000000E+99

> <Gold.Protein.RotatedTorsions>
[ 6907 6896 6895 6894 ] final  -34.48 input  -60.11 | X-H torsion
[ 7974 7965 7964 7962 ] final -164.72 input  175.53 | X-H torsion
[ 8008 7997 7996 7995 ] final   51.31 input   59.86 | X-H torsion
[ 10167 10162 10161 10158 ] final   81.84 input  -65.29 | X-H torsion
[ 10718 10713 10712 10709 ] final   57.04 input   66.30 | X-H torsion
[ 10763 10752 10751 10750 ] final -161.82 input  -60.55 | X-H torsion
[ 11005 11000 10999 10996 ] final -112.07 input  -57.11 | X-H torsion

> <Gold.Protein.ActiveResidues>
 VAL166  LYS551  ARG553  GLY616  TRP617  ASP618  TYR619  PRO620  LYS621  CYS622 
 ASP623  PHE694  ASN695  SER759  ASP760  ASP761  ALA762  ILE779  LEU786  VAL792 
 PHE793  MET794  SER795  GLU796  ALA797  LYS798  CYS799  TRP800  GLU811  SER814 

> <Gold.Protein.RotatedAtoms>
  151.0521  134.9680  159.8216 H   0  0  0  0  0  0  0  0  0  0  0  0  # atno 6907 bound_to 6896
  152.5382  134.2524  159.8914 H   0  0  0  0  0  0  0  0  0  0  0  0  # atno 6908 bound_to 6896
  151.2540  133.4293  159.2646 H   0  0  0  0  0  0  0  0  0  0  0  0  # atno 6909 bound_to 6896
  144.7289  140.2920  143.6219 H   0  0  0  0  0  0  0  0  0  0  0  0  # atno 7974 bound_to 7965
  155.4332  140.3451  155.4282 H   0  0  0  0  0  0  0  0  0  0  0  0  # atno 8008 bound_to 7997
  156.1324  140.1518  156.9076 H   0  0  0  0  0  0  0  0  0  0  0  0  # atno 8009 bound_to 7997
  154.4905  140.0842  156.7563 H   0  0  0  0  0  0  0  0  0  0  0  0  # atno 8010 bound_to 7997
  139.9351  144.6127  150.8307 H   0  0  0  0  0  0  0  0  0  0  0  0  # atno 10167 bound_to 10162
  157.5482  130.8746  149.8922 H   0  0  0  0  0  0  0  0  0  0  0  0  # atno 10718 bound_to 10713
  154.7270  135.3038  154.8955 H   0  0  0  0  0  0  0  0  0  0  0  0  # atno 10763 bound_to 10752
  153.9809  135.6730  153.4754 H   0  0  0  0  0  0  0  0  0  0  0  0  # atno 10764 bound_to 10752
  153.0884  135.4972  154.8561 H   0  0  0  0  0  0  0  0  0  0  0  0  # atno 10765 bound_to 10752
  141.0697  133.9400  157.2509 H   0  0  0  0  0  0  0  0  0  0  0  0  # atno 11005 bound_to 11000
  145.7846  139.1904  143.2138 LP  0  0  0  0  0  0  0  0  0  0  0  0  # atno 17320 bound_to 7965
  146.0806  140.7768  142.9643 LP  0  0  0  0  0  0  0  0  0  0  0  0  # atno 17321 bound_to 7965
  140.7627  143.3204  151.2636 LP  0  0  0  0  0  0  0  0  0  0  0  0  # atno 17342 bound_to 10162
  139.6750  143.9953  152.2776 LP  0  0  0  0  0  0  0  0  0  0  0  0  # atno 17343 bound_to 10162
  156.0553  130.3709  150.1105 LP  0  0  0  0  0  0  0  0  0  0  0  0  # atno 17370 bound_to 10713
  156.9280  130.9704  151.3538 LP  0  0  0  0  0  0  0  0  0  0  0  0  # atno 17371 bound_to 10713
  139.9511  135.0175  156.8996 LP  0  0  0  0  0  0  0  0  0  0  0  0  # atno 17394 bound_to 11000
  140.5699  134.0453  155.7427 LP  0  0  0  0  0  0  0  0  0  0  0  0  # atno 17395 bound_to 11000

$$$$
