AV-unprocessed.smi:1525|AV-procd|sdf|6141|dock1
  -GOLD-   22720 6283D 1   1.00000     0.00000
 Structure written by MMmdl.
 48 50  0  0  0  0  0  0  0  0  1 V2000
  150.2839  133.1347  154.8386 O   0  0  0  0  0  0  0  0  0  0  0  0
  149.8004  133.9967  154.1050 C   0  0  0  0  0  0  0  0  0  0  0  0
  150.1114  135.2984  154.1841 N   0  0  0  0  0  0  0  0  0  0  0  0
  151.0200  135.8914  155.1606 C   0  0  0  0  0  0  0  0  0  0  0  0
  150.2512  136.6053  156.2901 C   0  0  0  0  0  0  0  0  0  0  0  0
  150.0557  138.0439  156.1091 N   0  0  0  0  0  0  0  0  0  0  0  0
  151.3153  138.7822  156.0502 C   0  0  0  0  0  0  0  0  0  0  0  0
  151.0830  140.2908  155.8591 C   0  0  0  0  0  0  0  0  0  0  0  0
  150.3112  140.5103  154.6825 O   0  0  0  0  0  0  0  0  0  0  0  0
  149.0563  139.8379  154.7154 C   0  0  0  0  0  0  0  0  0  0  0  0
  149.2851  138.3280  154.9042 C   0  0  0  0  0  0  0  0  0  0  0  0
  148.8881  133.7767  153.1434 N   0  0  0  0  0  0  0  0  0  0  0  0
  148.2321  132.5597  152.7990 C   0  0  0  0  0  0  0  0  0  0  0  0
  148.7383  131.2958  153.1919 C   0  0  0  0  0  0  0  0  0  0  0  0
  148.0322  130.1311  152.8458 C   0  0  0  0  0  0  0  0  0  0  0  0
  146.8425  130.2686  152.1126 C   0  0  0  0  0  0  0  0  0  0  0  0
  146.3586  131.4609  151.7116 N   0  0  0  0  0  0  0  0  0  0  0  0
  147.0360  132.5929  152.0251 C   0  0  0  0  0  0  0  0  0  0  0  0
  146.4927  133.8113  151.5563 N   0  0  0  0  0  0  0  0  0  0  0  0
  145.4774  133.7495  150.5091 C   0  0  0  0  0  0  0  0  0  0  0  0
  144.4674  134.8598  150.8182 C   0  0  0  0  0  0  0  0  0  0  0  0
  145.2513  135.8239  151.7027 C   0  0  0  0  0  0  0  0  0  0  0  0
  146.1545  134.8800  152.4908 C   0  0  0  0  0  0  0  0  0  0  0  0
  149.6624  135.9329  153.5403 H   0  0  0  0  0  0  0  0  0  0  0  0
  151.7241  135.1548  155.5486 H   0  0  0  0  0  0  0  0  0  0  0  0
  151.6269  136.6255  154.6305 H   0  0  0  0  0  0  0  0  0  0  0  0
  149.2816  136.1231  156.4224 H   0  0  0  0  0  0  0  0  0  0  0  0
  150.7947  136.4334  157.2204 H   0  0  0  0  0  0  0  0  0  0  0  0
  151.8897  138.6320  156.9633 H   0  0  0  0  0  0  0  0  0  0  0  0
  151.9287  138.4044  155.2307 H   0  0  0  0  0  0  0  0  0  0  0  0
  150.5699  140.7140  156.7243 H   0  0  0  0  0  0  0  0  0  0  0  0
  152.0354  140.8126  155.7644 H   0  0  0  0  0  0  0  0  0  0  0  0
  148.4418  140.2389  155.5229 H   0  0  0  0  0  0  0  0  0  0  0  0
  148.5249  140.0281  153.7829 H   0  0  0  0  0  0  0  0  0  0  0  0
  149.8026  137.9288  154.0304 H   0  0  0  0  0  0  0  0  0  0  0  0
  148.3199  137.8228  154.9538 H   0  0  0  0  0  0  0  0  0  0  0  0
  148.5318  134.5995  152.6799 H   0  0  0  0  0  0  0  0  0  0  0  0
  149.6584  131.1962  153.7462 H   0  0  0  0  0  0  0  0  0  0  0  0
  148.3936  129.1562  153.1386 H   0  0  0  0  0  0  0  0  0  0  0  0
  146.2675  129.3986  151.8329 H   0  0  0  0  0  0  0  0  0  0  0  0
  145.9540  133.9403  149.5475 H   0  0  0  0  0  0  0  0  0  0  0  0
  144.9941  132.7728  150.4606 H   0  0  0  0  0  0  0  0  0  0  0  0
  144.0693  135.3325  149.9202 H   0  0  0  0  0  0  0  0  0  0  0  0
  143.6292  134.4473  151.3814 H   0  0  0  0  0  0  0  0  0  0  0  0
  145.8546  136.4902  151.0848 H   0  0  0  0  0  0  0  0  0  0  0  0
  144.6136  136.4353  152.3418 H   0  0  0  0  0  0  0  0  0  0  0  0
  145.6062  134.4886  153.3487 H   0  0  0  0  0  0  0  0  0  0  0  0
  147.0487  135.3858  152.8556 H   0  0  0  0  0  0  0  0  0  0  0  0
  1  2  2  0  0  0  0
  2  3  1  0  0  0  0
  2 12  1  0  0  0  0
  3  4  1  0  0  0  0
  3 24  1  0  0  0  0
  4  5  1  0  0  0  0
  4 25  1  0  0  0  0
  4 26  1  0  0  0  0
  5  6  1  0  0  0  0
  5 27  1  0  0  0  0
  5 28  1  0  0  0  0
  6 11  1  0  0  0  0
  6  7  1  0  0  0  0
  7  8  1  0  0  0  0
  7 29  1  0  0  0  0
  7 30  1  0  0  0  0
  8  9  1  0  0  0  0
  8 31  1  0  0  0  0
  8 32  1  0  0  0  0
  9 10  1  0  0  0  0
 10 11  1  0  0  0  0
 10 33  1  0  0  0  0
 10 34  1  0  0  0  0
 11 35  1  0  0  0  0
 11 36  1  0  0  0  0
 12 13  1  0  0  0  0
 12 37  1  0  0  0  0
 13 18  1  0  0  0  0
 13 14  2  0  0  0  0
 14 15  1  0  0  0  0
 14 38  1  0  0  0  0
 15 16  2  0  0  0  0
 15 39  1  0  0  0  0
 16 17  1  0  0  0  0
 16 40  1  0  0  0  0
 17 18  2  0  0  0  0
 18 19  1  0  0  0  0
 19 23  1  0  0  0  0
 19 20  1  0  0  0  0
 20 21  1  0  0  0  0
 20 41  1  0  0  0  0
 20 42  1  0  0  0  0
 21 22  1  0  0  0  0
 21 43  1  0  0  0  0
 21 44  1  0  0  0  0
 22 23  1  0  0  0  0
 22 45  1  0  0  0  0
 22 46  1  0  0  0  0
 23 47  1  0  0  0  0
 23 48  1  0  0  0  0
M  END
> <s_m_source_file>
AV-unprocessed.smi

> <i_m_source_file_index>
1525

> <i_lp_mmshare_version>
43012

> <i_f3d_flags>
0

> <s_epik_input>
W0NIMl0xW0NIMl1PW0NIMl1bQ0gyXU4xW0NIMl1bQ0gyXVtOSF1DKD1PKVtOSF1jMltjSF1bY0hdW2NIXW5jMk4zW0NIMl1bQ0gyXVtDSDJdW0NIMl0z

> <s_epik_cmdline>
J2VwaWtfcHl0aG9uJywgJy1waCcsICc3LjAnLCAnLXRuJywgJzgnLCAnLW1hJywgJzIwMCcsICctbWV0YWxfYmluZGluZycsICctaW1hZScsICc8aW5maWxlLm1hZT4nLCAnLW9tYWUnLCAnPG91dGZpbGUubWFlPic=

> <r_lp_tautomer_probability>
1

> <r_epik_Ionization_Penalty>
0.363951

> <r_epik_Ionization_Penalty_Charging>
0

> <r_epik_Ionization_Penalty_Neutral>
0.363951

> <r_epik_State_Penalty>
0.349372

> <r_epik_Charging_Adjusted_Penalty>
0.349372

> <i_epik_Tot_Q>
0

> <i_epik_Tot_abs_Q>
0

> <r_epik_Metal_State_Penalty>
0.33306

> <b_epik_Metal_Only>
0

> <s_lp_Force_Field>
OPLS_2005

> <r_lp_Energy>
53.9404

> <b_lp_Chiralities_Consistent>
1

> <s_lp_Variant>
AV-unprocessed.smi:1525-1

> <Gold.Version>
5.8.1

> <Gold.Id.Protein>
6NUR|6NUR_protein|mol2

> <Gold.PLP.Fitness>
43.8191

> <Gold.PLP.PLP>
-35.8330

> <Gold.PLP.part.hbond>
-3.1005

> <Gold.PLP.part.metal>
0.0000

> <Gold.PLP.part.buried>
-3.1827

> <Gold.PLP.part.nonpolar>
-29.4272

> <Gold.PLP.part.repulsive>
0.5251

> <Gold.PLP.ligand.clash>
0.0000

> <Gold.PLP.ligand.torsion>
0.6337

> <Gold.PLP.Chemscore.Hbond>
2.9520

> <Gold.PLP.Chemscore.CHOScore>
0.0000

> <Gold.PLP.Chemscore.Metal>
0.0000

> <Gold.Chemscore.Hbonds>
donor molecule, donor type, donor heavy atom, donor atom, acceptor molecule, acceptor atom, score
      L1  H     3    24       P1  7948  0.90
      L1  H    12    37       P1  7948  0.76
      P1  H  7989  7998       L1     9  0.96

> <Gold.PLP.Chemscore.Internal.Correction>
0.3976

> <Gold.Rescore>
     Score         DG    S(hbond)    S(metal)    S(lipo)     H(rot)  DE(clash)    DE(int)     intcor
     14.06     -17.00       2.12        0.00      73.12       1.60       0.03       2.91       ----

> <Gold.Chemscore.Fitness>
14.0642

> <Gold.Chemscore.DG>
-17.0049

> <Gold.Chemscore.ZeroCoef>
-5.4800

> <Gold.Chemscore.Hbond>
2.1153

> <Gold.Chemscore.Metal>
0.0000

> <Gold.Chemscore.Lipo>
73.1218

> <Gold.Chemscore.Internal_Hbond>
0.0000

> <Gold.Chemscore.DEClash>
0.0339

> <Gold.Chemscore.DEInternal>
2.9067

> <Gold.Chemscore.Rot>
1.5998

> <Gold.Chemscore.Internal.Correction>
   9.000000E+99

> <Gold.Chemscore.Hbonds>
donor molecule, donor type, donor heavy atom, donor atom, acceptor molecule, acceptor atom, score
      L1  H     3    24       P1  7948  0.20
      L1  H    12    37       P1  7948  0.13
      P1  H  7989  7998       L1     9  0.28

> <Gold.Chemscore.Hbond.Weighted>
-7.0652

> <Gold.Chemscore.Metal.Weighted>
-0.0000

> <Gold.Chemscore.Lipo.Weighted>
-8.5552

> <Gold.Chemscore.Internal_Hbond.Weighted>
0.0000

> <Gold.Chemscore.DEClash.Weighted>
0.0339

> <Gold.Chemscore.DEInternal.Weighted>
2.9067

> <Gold.Chemscore.Rot.Weighted>
4.0956

> <Gold.Chemscore.Internal.Correction.Weighted>
   9.000000E+99

> <Gold.Protein.RotatedTorsions>
[ 6907 6896 6895 6894 ] final -157.33 input  -60.11 | X-H torsion
[ 7974 7965 7964 7962 ] final   26.05 input  175.53 | X-H torsion
[ 8008 7997 7996 7995 ] final  128.56 input   59.86 | X-H torsion
[ 10167 10162 10161 10158 ] final  108.29 input  -65.29 | X-H torsion
[ 10718 10713 10712 10709 ] final  121.17 input   66.30 | X-H torsion
[ 10763 10752 10751 10750 ] final  -76.91 input  -60.55 | X-H torsion
[ 11005 11000 10999 10996 ] final  -71.41 input  -57.11 | X-H torsion

> <Gold.Protein.ActiveResidues>
 VAL166  LYS551  ARG553  GLY616  TRP617  ASP618  TYR619  PRO620  LYS621  CYS622 
 ASP623  PHE694  ASN695  SER759  ASP760  ASP761  ALA762  ILE779  LEU786  VAL792 
 PHE793  MET794  SER795  GLU796  ALA797  LYS798  CYS799  TRP800  GLU811  SER814 

> <Gold.Protein.RotatedAtoms>
  151.3013  133.4121  159.2639 H   0  0  0  0  0  0  0  0  0  0  0  0  # atno 6907 bound_to 6896
  151.0193  134.9457  159.8061 H   0  0  0  0  0  0  0  0  0  0  0  0  # atno 6908 bound_to 6896
  152.5320  134.2976  159.9119 H   0  0  0  0  0  0  0  0  0  0  0  0  # atno 6909 bound_to 6896
  146.1857  139.7381  142.8868 H   0  0  0  0  0  0  0  0  0  0  0  0  # atno 7974 bound_to 7965
  156.2917  140.2642  156.2455 H   0  0  0  0  0  0  0  0  0  0  0  0  # atno 8008 bound_to 7997
  154.9934  140.0388  157.2348 H   0  0  0  0  0  0  0  0  0  0  0  0  # atno 8009 bound_to 7997
  154.7665  140.2770  155.6177 H   0  0  0  0  0  0  0  0  0  0  0  0  # atno 8010 bound_to 7997
  139.6858  144.7113  151.1435 H   0  0  0  0  0  0  0  0  0  0  0  0  # atno 10167 bound_to 10162
  157.5837  131.1072  150.8136 H   0  0  0  0  0  0  0  0  0  0  0  0  # atno 10718 bound_to 10713
  154.5060  135.5782  153.6568 H   0  0  0  0  0  0  0  0  0  0  0  0  # atno 10763 bound_to 10752
  152.9888  135.6147  154.2940 H   0  0  0  0  0  0  0  0  0  0  0  0  # atno 10764 bound_to 10752
  154.2851  135.2850  155.2659 H   0  0  0  0  0  0  0  0  0  0  0  0  # atno 10765 bound_to 10752
  141.1591  133.6816  156.6901 H   0  0  0  0  0  0  0  0  0  0  0  0  # atno 11005 bound_to 11000
  145.3945  141.0377  143.3105 LP  0  0  0  0  0  0  0  0  0  0  0  0  # atno 17320 bound_to 7965
  144.8393  139.5498  143.6907 LP  0  0  0  0  0  0  0  0  0  0  0  0  # atno 17321 bound_to 7965
  140.7667  143.5632  150.9076 LP  0  0  0  0  0  0  0  0  0  0  0  0  # atno 17342 bound_to 10162
  139.9306  143.6497  152.3077 LP  0  0  0  0  0  0  0  0  0  0  0  0  # atno 17343 bound_to 10162
  156.8576  130.5102  149.5306 LP  0  0  0  0  0  0  0  0  0  0  0  0  # atno 17370 bound_to 10713
  156.0885  130.5877  150.9691 LP  0  0  0  0  0  0  0  0  0  0  0  0  # atno 17371 bound_to 10713
  140.3037  134.8143  157.4119 LP  0  0  0  0  0  0  0  0  0  0  0  0  # atno 17394 bound_to 11000
  140.1239  134.5183  155.8160 LP  0  0  0  0  0  0  0  0  0  0  0  0  # atno 17395 bound_to 11000

$$$$
