AV-unprocessed.smi:1929|AV-procd|sdf|7807|dock7
  -GOLD-   22720 9553D 1   1.00000     0.00000
 Structure written by MMmdl.
 43 44  0  0  0  0  0  0  0  0  4 V2000
  152.2242  130.1350  159.8258 C   0  0  0  0  0  0  0  0  0  0  0  0
  152.7266  131.2515  159.0343 N   0  5  0  0  0  0  0  0  0  0  0  0
  153.1540  131.1285  157.7489 C   0  0  0  0  0  0  0  0  0  0  0  0
  153.8650  131.8688  157.0614 O   0  0  0  0  0  0  0  0  0  0  0  0
  152.6015  129.8523  157.1029 C   0  0  0  0  0  0  0  0  0  0  0  0
  151.7128  130.1958  155.9646 N   0  3  2  0  0  0  0  0  0  0  0  0
  150.6601  131.1868  156.3180 C   0  0  0  0  0  0  0  0  0  0  0  0
  149.8554  131.6068  155.0774 C   0  0  0  0  0  0  0  0  0  0  0  0
  149.2330  130.3878  154.3784 C   0  0  1  0  0  0  0  0  0  0  0  0
  148.5503  130.8122  153.1593 N   0  0  0  0  0  0  0  0  0  0  0  0
  147.3431  131.3941  153.1116 C   0  0  0  0  0  0  0  0  0  0  0  0
  146.6604  131.6240  154.1094 O   0  0  0  0  0  0  0  0  0  0  0  0
  146.9815  131.6645  151.8453 N   0  0  0  0  0  0  0  0  0  0  0  0
  145.7971  132.3002  151.3826 C   0  0  0  0  0  0  0  0  0  0  0  0
  145.3235  131.9501  150.0985 C   0  0  0  0  0  0  0  0  0  0  0  0
  144.1616  132.5686  149.5933 C   0  0  0  0  0  0  0  0  0  0  0  0
  143.5178  133.4966  150.3333 N   0  3  0  0  0  0  0  0  0  0  0  0
  143.9407  133.8752  151.5585 C   0  0  0  0  0  0  0  0  0  0  0  0
  145.0962  133.2910  152.1164 C   0  0  0  0  0  0  0  0  0  0  0  0
  150.3335  129.3595  154.0601 C   0  0  0  0  0  0  0  0  0  0  0  0
  151.1314  128.9898  155.3220 C   0  0  0  0  0  0  0  0  0  0  0  0
  151.9469  130.4449  160.8333 H   0  0  0  0  0  0  0  0  0  0  0  0
  152.9631  129.3413  159.9402 H   0  0  0  0  0  0  0  0  0  0  0  0
  151.3363  129.6789  159.3867 H   0  0  0  0  0  0  0  0  0  0  0  0
  153.4603  129.2830  156.7448 H   0  0  0  0  0  0  0  0  0  0  0  0
  152.0800  129.2071  157.8136 H   0  0  0  0  0  0  0  0  0  0  0  0
  149.9957  130.7610  157.0713 H   0  0  0  0  0  0  0  0  0  0  0  0
  151.1083  132.0760  156.7619 H   0  0  0  0  0  0  0  0  0  0  0  0
  149.0754  132.3118  155.3677 H   0  0  0  0  0  0  0  0  0  0  0  0
  150.5114  132.1383  154.3862 H   0  0  0  0  0  0  0  0  0  0  0  0
  148.5098  129.9358  155.0603 H   0  0  0  0  0  0  0  0  0  0  0  0
  149.0375  130.6549  152.2890 H   0  0  0  0  0  0  0  0  0  0  0  0
  147.6042  131.3304  151.1243 H   0  0  0  0  0  0  0  0  0  0  0  0
  145.8396  131.2092  149.5050 H   0  0  0  0  0  0  0  0  0  0  0  0
  143.7324  132.3520  148.6258 H   0  0  0  0  0  0  0  0  0  0  0  0
  143.3500  134.6335  152.0512 H   0  0  0  0  0  0  0  0  0  0  0  0
  145.4286  133.6229  153.0882 H   0  0  0  0  0  0  0  0  0  0  0  0
  149.8953  128.4589  153.6282 H   0  0  0  0  0  0  0  0  0  0  0  0
  151.0133  129.7637  153.3085 H   0  0  0  0  0  0  0  0  0  0  0  0
  151.9285  128.2971  155.0493 H   0  0  0  0  0  0  0  0  0  0  0  0
  150.4898  128.4703  156.0355 H   0  0  0  0  0  0  0  0  0  0  0  0
  152.3080  130.6307  155.2740 H   0  0  0  0  0  0  0  0  0  0  0  0
  142.6797  133.9338  149.9486 H   0  0  0  0  0  0  0  0  0  0  0  0
  1  2  1  0  0  0  0
  1 22  1  0  0  0  0
  1 23  1  0  0  0  0
  1 24  1  0  0  0  0
  2  3  1  0  0  0  0
  3  4  2  0  0  0  0
  3  5  1  0  0  0  0
  5  6  1  0  0  0  0
  5 25  1  0  0  0  0
  5 26  1  0  0  0  0
  6 21  1  0  0  0  0
  6  7  1  0  0  0  0
  6 42  1  0  0  0  0
  7  8  1  0  0  0  0
  7 27  1  0  0  0  0
  7 28  1  0  0  0  0
  8  9  1  0  0  0  0
  8 29  1  0  0  0  0
  8 30  1  0  0  0  0
  9 10  1  0  0  0  0
  9 20  1  0  0  0  0
  9 31  1  0  0  0  0
 10 11  1  0  0  0  0
 10 32  1  0  0  0  0
 11 12  2  0  0  0  0
 11 13  1  0  0  0  0
 13 14  1  0  0  0  0
 13 33  1  0  0  0  0
 14 19  1  0  0  0  0
 14 15  2  0  0  0  0
 15 16  1  0  0  0  0
 15 34  1  0  0  0  0
 16 17  2  0  0  0  0
 16 35  1  0  0  0  0
 17 18  1  0  0  0  0
 17 43  1  0  0  0  0
 18 19  2  0  0  0  0
 18 36  1  0  0  0  0
 19 37  1  0  0  0  0
 20 21  1  0  0  0  0
 20 38  1  0  0  0  0
 20 39  1  0  0  0  0
 21 40  1  0  0  0  0
 21 41  1  0  0  0  0
M  CHG  1   2  -1
M  CHG  1   6   1
M  CHG  1  17   1
M  END
> <s_m_source_file>
AV-unprocessed.smi

> <i_m_source_file_index>
1929

> <i_lp_mmshare_version>
43012

> <i_f3d_flags>
0

> <s_epik_input>
W0NIM11bTkhdQyg9TylbQ0gyXU4xW0NIMl1bQ0gyXVtDSF0oW0NIMl1bQ0gyXTEpW05IXUMoPU8pW05IXWMyW2NIXVtjSF1uW2NIXVtjSF0y

> <s_epik_cmdline>
J2VwaWtfcHl0aG9uJywgJy1waCcsICc3LjAnLCAnLXRuJywgJzgnLCAnLW1hJywgJzIwMCcsICctbWV0YWxfYmluZGluZycsICctaW1hZScsICc8aW5maWxlLm1hZT4nLCAnLW9tYWUnLCAnPG91dGZpbGUubWFlPic=

> <r_epik_Ionization_Penalty>
7.25133

> <r_epik_Ionization_Penalty_Charging>
7.25131

> <r_epik_Ionization_Penalty_Neutral>
1.84563e-05

> <r_epik_State_Penalty>
8.093

> <r_epik_Charging_Adjusted_Penalty>
15.3443

> <i_epik_Tot_Q>
1

> <i_epik_Tot_abs_Q>
3

> <r_epik_Metal_State_Penalty>
4.12368

> <b_epik_Metal_Only>
1

> <s_lp_Force_Field>
OPLS_2005

> <r_lp_Energy>
21.0398

> <b_lp_Chiralities_Consistent>
1

> <s_lp_Variant>
AV-unprocessed.smi:1929-9

> <Gold.Version>
5.8.1

> <Gold.Id.Protein>
6NUR|6NUR_protein|mol2

> <Gold.PLP.Fitness>
48.2815

> <Gold.PLP.PLP>
-31.4477

> <Gold.PLP.part.hbond>
-4.0000

> <Gold.PLP.part.metal>
0.0000

> <Gold.PLP.part.buried>
-5.1231

> <Gold.PLP.part.nonpolar>
-22.8897

> <Gold.PLP.part.repulsive>
0.1588

> <Gold.PLP.ligand.clash>
0.0000

> <Gold.PLP.ligand.torsion>
0.5538

> <Gold.PLP.Chemscore.Hbond>
5.9600

> <Gold.PLP.Chemscore.CHOScore>
0.0000

> <Gold.PLP.Chemscore.Metal>
0.0000

> <Gold.Chemscore.Hbonds>
donor molecule, donor type, donor heavy atom, donor atom, acceptor molecule, acceptor atom, score
      L1  H    10    32       P1 10747  0.94
      L1  H    13    33       P1 10747  1.00
      L1  H    17    43       P1 10186  2.00
      P1  H  6896  6907       L1     2  1.07

> <Gold.PLP.Chemscore.Internal.Correction>
0.0615

> <Gold.Rescore>
     Score         DG    S(hbond)    S(metal)    S(lipo)     H(rot)  DE(clash)    DE(int)     intcor
     19.39     -20.55       3.25        0.00      72.23       1.66       0.29       0.87       ----

> <Gold.Chemscore.Fitness>
19.3876

> <Gold.Chemscore.DG>
-20.5474

> <Gold.Chemscore.ZeroCoef>
-5.4800

> <Gold.Chemscore.Hbond>
3.2515

> <Gold.Chemscore.Metal>
0.0000

> <Gold.Chemscore.Lipo>
72.2267

> <Gold.Chemscore.Internal_Hbond>
0.0000

> <Gold.Chemscore.DEClash>
0.2901

> <Gold.Chemscore.DEInternal>
0.8696

> <Gold.Chemscore.Rot>
1.6574

> <Gold.Chemscore.Internal.Correction>
   9.000000E+99

> <Gold.Chemscore.Hbonds>
donor molecule, donor type, donor heavy atom, donor atom, acceptor molecule, acceptor atom, score
      L1  H    10    32       P1 10747  0.23
      L1  H    13    33       P1 10747  1.00
      L1  H    17    43       P1 10186  1.00
      P1  H  6896  6907       L1     2  0.38

> <Gold.Chemscore.Hbond.Weighted>
-10.8599

> <Gold.Chemscore.Metal.Weighted>
-0.0000

> <Gold.Chemscore.Lipo.Weighted>
-8.4505

> <Gold.Chemscore.Internal_Hbond.Weighted>
0.0000

> <Gold.Chemscore.DEClash.Weighted>
0.2901

> <Gold.Chemscore.DEInternal.Weighted>
0.8696

> <Gold.Chemscore.Rot.Weighted>
4.2430

> <Gold.Chemscore.Internal.Correction.Weighted>
   9.000000E+99

> <Gold.Protein.RotatedTorsions>
[ 6907 6896 6895 6894 ] final  162.33 input  -60.11 | X-H torsion
[ 7974 7965 7964 7962 ] final   47.86 input  175.53 | X-H torsion
[ 8008 7997 7996 7995 ] final  -52.19 input   59.86 | X-H torsion
[ 10167 10162 10161 10158 ] final   60.29 input  -65.29 | X-H torsion
[ 10718 10713 10712 10709 ] final   -9.01 input   66.30 | X-H torsion
[ 10763 10752 10751 10750 ] final  162.38 input  -60.55 | X-H torsion
[ 11005 11000 10999 10996 ] final   87.22 input  -57.11 | X-H torsion

> <Gold.Protein.ActiveResidues>
 VAL166  LYS551  ARG553  GLY616  TRP617  ASP618  TYR619  PRO620  LYS621  CYS622 
 ASP623  PHE694  ASN695  SER759  ASP760  ASP761  ALA762  ILE779  LEU786  VAL792 
 PHE793  MET794  SER795  GLU796  ALA797  LYS798  CYS799  TRP800  GLU811  SER814 

> <Gold.Protein.RotatedAtoms>
  151.9420  133.3640  159.3968 H   0  0  0  0  0  0  0  0  0  0  0  0  # atno 6907 bound_to 6896
  150.6996  134.4429  159.5310 H   0  0  0  0  0  0  0  0  0  0  0  0  # atno 6908 bound_to 6896
  152.2088  134.8521  160.0550 H   0  0  0  0  0  0  0  0  0  0  0  0  # atno 6909 bound_to 6896
  146.0259  139.4705  142.9868 H   0  0  0  0  0  0  0  0  0  0  0  0  # atno 7974 bound_to 7965
  154.4100  140.1230  156.4952 H   0  0  0  0  0  0  0  0  0  0  0  0  # atno 8008 bound_to 7997
  155.6951  140.3495  155.4890 H   0  0  0  0  0  0  0  0  0  0  0  0  # atno 8009 bound_to 7997
  155.9435  140.1091  157.1026 H   0  0  0  0  0  0  0  0  0  0  0  0  # atno 8010 bound_to 7997
  140.1672  144.4312  150.6679 H   0  0  0  0  0  0  0  0  0  0  0  0  # atno 10167 bound_to 10162
  156.6943  130.5074  149.5935 H   0  0  0  0  0  0  0  0  0  0  0  0  # atno 10718 bound_to 10713
  154.2775  135.2764  155.2712 H   0  0  0  0  0  0  0  0  0  0  0  0  # atno 10763 bound_to 10752
  154.5248  135.5746  153.6713 H   0  0  0  0  0  0  0  0  0  0  0  0  # atno 10764 bound_to 10752
  152.9934  135.6213  154.2932 H   0  0  0  0  0  0  0  0  0  0  0  0  # atno 10765 bound_to 10752
  139.8925  134.8408  156.2830 H   0  0  0  0  0  0  0  0  0  0  0  0  # atno 11005 bound_to 11000
  145.7119  141.0103  143.1448 LP  0  0  0  0  0  0  0  0  0  0  0  0  # atno 17320 bound_to 7965
  144.7009  139.8768  143.7444 LP  0  0  0  0  0  0  0  0  0  0  0  0  # atno 17321 bound_to 7965
  140.6605  143.2251  151.5866 LP  0  0  0  0  0  0  0  0  0  0  0  0  # atno 17342 bound_to 10162
  139.5354  144.2796  152.1240 LP  0  0  0  0  0  0  0  0  0  0  0  0  # atno 17343 bound_to 10162
  156.1775  130.6477  151.0911 LP  0  0  0  0  0  0  0  0  0  0  0  0  # atno 17370 bound_to 10713
  157.6997  131.0780  150.6859 LP  0  0  0  0  0  0  0  0  0  0  0  0  # atno 17371 bound_to 10713
  141.0026  133.7142  156.0984 LP  0  0  0  0  0  0  0  0  0  0  0  0  # atno 17394 bound_to 11000
  140.7477  134.4080  157.5546 LP  0  0  0  0  0  0  0  0  0  0  0  0  # atno 17395 bound_to 11000

$$$$
