AV-unprocessed.smi:2626|AV-procd|sdf|10238|dock4
  -GOLD-   2272014243D 1   1.00000     0.00000
 Structure written by MMmdl.
 26 27  0  0  0  0  0  0  0  0  2 V2000
  149.2472  140.4510  154.4024 C   0  0  0  0  0  0  0  0  0  0  0  0
  150.4749  140.0925  155.2137 C   0  0  0  0  0  0  0  0  0  0  0  0
  151.2503  139.0202  154.9170 C   0  0  0  0  0  0  0  0  0  0  0  0
  152.4229  138.7351  155.7448 C   0  0  0  0  0  0  0  0  0  0  0  0
  153.1274  137.7634  155.4787 O   0  0  0  0  0  0  0  0  0  0  0  0
  152.6762  139.5790  156.7870 N   0  5  0  0  0  0  0  0  0  0  0  0
  151.8355  140.6545  157.0262 C   0  0  0  0  0  0  0  0  0  0  0  0
  152.1998  141.4362  158.1118 N   0  0  0  0  0  0  0  0  0  0  0  0
  151.5954  142.7572  158.2455 C   0  0  0  0  0  0  0  0  0  0  0  0
  152.3757  143.6193  159.2519 C   0  0  0  0  0  0  0  0  0  0  0  0
  152.4517  142.9436  160.5016 O   0  0  0  0  0  0  0  0  0  0  0  0
  153.1333  141.7008  160.3821 C   0  0  0  0  0  0  0  0  0  0  0  0
  152.3728  140.7867  159.4067 C   0  0  0  0  0  0  0  0  0  0  0  0
  150.7895  140.9219  156.3016 N   0  0  0  0  0  0  0  0  0  0  0  0
  149.0920  139.7474  153.5839 H   0  0  0  0  0  0  0  0  0  0  0  0
  149.3540  141.4495  153.9779 H   0  0  0  0  0  0  0  0  0  0  0  0
  148.3596  140.4387  155.0356 H   0  0  0  0  0  0  0  0  0  0  0  0
  151.0113  138.3799  154.0806 H   0  0  0  0  0  0  0  0  0  0  0  0
  151.5711  143.2548  157.2748 H   0  0  0  0  0  0  0  0  0  0  0  0
  150.5610  142.6453  158.5734 H   0  0  0  0  0  0  0  0  0  0  0  0
  153.3785  143.8373  158.8811 H   0  0  0  0  0  0  0  0  0  0  0  0
  151.8737  144.5762  159.3950 H   0  0  0  0  0  0  0  0  0  0  0  0
  154.1572  141.8649  160.0422 H   0  0  0  0  0  0  0  0  0  0  0  0
  153.1948  141.2329  161.3646 H   0  0  0  0  0  0  0  0  0  0  0  0
  151.3927  140.5380  159.8159 H   0  0  0  0  0  0  0  0  0  0  0  0
  152.9150  139.8483  159.2820 H   0  0  0  0  0  0  0  0  0  0  0  0
  1  2  1  0  0  0  0
  1 15  1  0  0  0  0
  1 16  1  0  0  0  0
  1 17  1  0  0  0  0
  2 14  1  0  0  0  0
  2  3  2  0  0  0  0
  3  4  1  0  0  0  0
  3 18  1  0  0  0  0
  4  5  2  0  0  0  0
  4  6  1  0  0  0  0
  6  7  1  0  0  0  0
  7  8  1  0  0  0  0
  7 14  2  0  0  0  0
  8 13  1  0  0  0  0
  8  9  1  0  0  0  0
  9 10  1  0  0  0  0
  9 19  1  0  0  0  0
  9 20  1  0  0  0  0
 10 11  1  0  0  0  0
 10 21  1  0  0  0  0
 10 22  1  0  0  0  0
 11 12  1  0  0  0  0
 12 13  1  0  0  0  0
 12 23  1  0  0  0  0
 12 24  1  0  0  0  0
 13 25  1  0  0  0  0
 13 26  1  0  0  0  0
M  CHG  1   6  -1
M  END
> <s_m_source_file>
AV-unprocessed.smi

> <i_m_source_file_index>
2626

> <i_lp_mmshare_version>
43012

> <i_f3d_flags>
0

> <s_epik_input>
W0NIM11jMVtjSF1jKD1PKVtuSF1jKG4xKU4yW0NIMl1bQ0gyXU9bQ0gyXVtDSDJdMg==

> <s_epik_cmdline>
J2VwaWtfcHl0aG9uJywgJy1waCcsICc3LjAnLCAnLXRuJywgJzgnLCAnLW1hJywgJzIwMCcsICctbWV0YWxfYmluZGluZycsICctaW1hZScsICc8aW5maWxlLm1hZT4nLCAnLW9tYWUnLCAnPG91dGZpbGUubWFlPic=

> <r_lp_tautomer_probability>
1

> <r_epik_Ionization_Penalty>
4.9386

> <r_epik_Ionization_Penalty_Charging>
6.70104e-08

> <r_epik_Ionization_Penalty_Neutral>
4.9386

> <r_epik_State_Penalty>
2.49781

> <r_epik_Charging_Adjusted_Penalty>
2.49781

> <i_epik_Tot_Q>
-1

> <i_epik_Tot_abs_Q>
1

> <r_epik_Metal_State_Penalty>
0.117146

> <b_epik_Metal_Only>
0

> <s_lp_Force_Field>
OPLS_2005

> <r_lp_Energy>
25.1924

> <b_lp_Chiralities_Consistent>
1

> <s_lp_Variant>
AV-unprocessed.smi:2626-3

> <Gold.Version>
5.8.1

> <Gold.Id.Protein>
6NUR|6NUR_protein|mol2

> <Gold.PLP.Fitness>
35.2119

> <Gold.PLP.PLP>
-28.9494

> <Gold.PLP.part.hbond>
-2.0000

> <Gold.PLP.part.metal>
0.0000

> <Gold.PLP.part.buried>
-3.6156

> <Gold.PLP.part.nonpolar>
-23.3699

> <Gold.PLP.part.repulsive>
0.0669

> <Gold.PLP.ligand.clash>
0.0000

> <Gold.PLP.ligand.torsion>
0.2161

> <Gold.PLP.Chemscore.Hbond>
2.1037

> <Gold.PLP.Chemscore.CHOScore>
0.0000

> <Gold.PLP.Chemscore.Metal>
0.0000

> <Gold.Chemscore.Hbonds>
donor molecule, donor type, donor heavy atom, donor atom, acceptor molecule, acceptor atom, score
      P1  H  7997  8008       L1     6  2.00
      P1  H 10752 10764       L1     5  0.11

> <Gold.PLP.Chemscore.Internal.Correction>
0.3834

> <Gold.Rescore>
     Score         DG    S(hbond)    S(metal)    S(lipo)     H(rot)  DE(clash)    DE(int)     intcor
     13.22     -13.46       1.02        0.00      61.04       1.00       0.01       0.23       ----

> <Gold.Chemscore.Fitness>
13.2174

> <Gold.Chemscore.DG>
-13.4580

> <Gold.Chemscore.ZeroCoef>
-5.4800

> <Gold.Chemscore.Hbond>
1.0169

> <Gold.Chemscore.Metal>
0.0000

> <Gold.Chemscore.Lipo>
61.0394

> <Gold.Chemscore.Internal_Hbond>
0.0000

> <Gold.Chemscore.DEClash>
0.0141

> <Gold.Chemscore.DEInternal>
0.2265

> <Gold.Chemscore.Rot>
1.0000

> <Gold.Chemscore.Internal.Correction>
   9.000000E+99

> <Gold.Chemscore.Hbonds>
donor molecule, donor type, donor heavy atom, donor atom, acceptor molecule, acceptor atom, score
      P1  H  7997  8008       L1     6  0.57
      P1  H 10752 10764       L1     5  0.11

> <Gold.Chemscore.Hbond.Weighted>
-3.3964

> <Gold.Chemscore.Metal.Weighted>
-0.0000

> <Gold.Chemscore.Lipo.Weighted>
-7.1416

> <Gold.Chemscore.Internal_Hbond.Weighted>
0.0000

> <Gold.Chemscore.DEClash.Weighted>
0.0141

> <Gold.Chemscore.DEInternal.Weighted>
0.2265

> <Gold.Chemscore.Rot.Weighted>
2.5600

> <Gold.Chemscore.Internal.Correction.Weighted>
   9.000000E+99

> <Gold.Protein.RotatedTorsions>
[ 6907 6896 6895 6894 ] final  -11.35 input  -60.11 | X-H torsion
[ 7974 7965 7964 7962 ] final  123.94 input  175.53 | X-H torsion
[ 8008 7997 7996 7995 ] final  -66.02 input   59.86 | X-H torsion
[ 10167 10162 10161 10158 ] final  -33.80 input  -65.29 | X-H torsion
[ 10718 10713 10712 10709 ] final  164.33 input   66.30 | X-H torsion
[ 10763 10752 10751 10750 ] final  -32.24 input  -60.55 | X-H torsion
[ 11005 11000 10999 10996 ] final -147.14 input  -57.11 | X-H torsion

> <Gold.Protein.ActiveResidues>
 VAL166  LYS551  ARG553  GLY616  TRP617  ASP618  TYR619  PRO620  LYS621  CYS622 
 ASP623  PHE694  ASN695  SER759  ASP760  ASP761  ALA762  ILE779  LEU786  VAL792 
 PHE793  MET794  SER795  GLU796  ALA797  LYS798  CYS799  TRP800  GLU811  SER814 

> <Gold.Protein.RotatedAtoms>
  151.3876  135.0950  159.9515 H   0  0  0  0  0  0  0  0  0  0  0  0  # atno 6907 bound_to 6896
  152.5089  133.9011  159.7452 H   0  0  0  0  0  0  0  0  0  0  0  0  # atno 6908 bound_to 6896
  150.9457  133.6550  159.2810 H   0  0  0  0  0  0  0  0  0  0  0  0  # atno 6909 bound_to 6896
  145.0901  139.3593  143.4865 H   0  0  0  0  0  0  0  0  0  0  0  0  # atno 7974 bound_to 7965
  154.4708  140.0921  156.7139 H   0  0  0  0  0  0  0  0  0  0  0  0  # atno 8008 bound_to 7997
  155.4730  140.3465  155.4310 H   0  0  0  0  0  0  0  0  0  0  0  0  # atno 8009 bound_to 7997
  156.1035  140.1428  156.9423 H   0  0  0  0  0  0  0  0  0  0  0  0  # atno 8010 bound_to 7997
  140.7198  143.3594  151.1994 H   0  0  0  0  0  0  0  0  0  0  0  0  # atno 10167 bound_to 10162
  157.0958  131.0430  151.2518 H   0  0  0  0  0  0  0  0  0  0  0  0  # atno 10718 bound_to 10713
  153.8106  135.6882  153.4841 H   0  0  0  0  0  0  0  0  0  0  0  0  # atno 10763 bound_to 10752
  153.1631  135.4572  154.9798 H   0  0  0  0  0  0  0  0  0  0  0  0  # atno 10764 bound_to 10752
  154.7969  135.3322  154.7587 H   0  0  0  0  0  0  0  0  0  0  0  0  # atno 10765 bound_to 10752
  140.7748  134.3148  157.5064 H   0  0  0  0  0  0  0  0  0  0  0  0  # atno 11005 bound_to 11000
  146.3531  140.0732  142.8622 LP  0  0  0  0  0  0  0  0  0  0  0  0  # atno 17320 bound_to 7965
  145.1076  140.9385  143.4676 LP  0  0  0  0  0  0  0  0  0  0  0  0  # atno 17321 bound_to 7965
  139.7142  143.9327  152.2960 LP  0  0  0  0  0  0  0  0  0  0  0  0  # atno 17342 bound_to 10162
  139.9062  144.6883  150.8611 LP  0  0  0  0  0  0  0  0  0  0  0  0  # atno 17343 bound_to 10162
  157.4682  130.7693  149.7299 LP  0  0  0  0  0  0  0  0  0  0  0  0  # atno 17370 bound_to 10713
  155.9886  130.3958  150.3111 LP  0  0  0  0  0  0  0  0  0  0  0  0  # atno 17371 bound_to 10713
  139.8750  134.9282  156.3446 LP  0  0  0  0  0  0  0  0  0  0  0  0  # atno 17394 bound_to 11000
  140.9539  133.7432  156.0310 LP  0  0  0  0  0  0  0  0  0  0  0  0  # atno 17395 bound_to 11000

$$$$
