AV-unprocessed.smi:2708|AV-procd|sdf|10459|dock1
  -GOLD-   2272014493D 1   1.00000     0.00000
 Structure written by MMmdl.
 35 35  0  0  0  0  0  0  0  0  2 V2000
  147.2907  135.0827  158.8210 C   0  0  0  0  0  0  0  0  0  0  0  0
  148.4048  135.8498  159.5539 C   0  0  1  0  0  0  0  0  0  0  0  0
  149.0593  136.7329  158.5911 N   0  0  0  0  0  0  0  0  0  0  0  0
  150.2738  137.2877  158.7347 C   0  0  0  0  0  0  0  0  0  0  0  0
  150.9994  137.0999  159.7115 O   0  0  0  0  0  0  0  0  0  0  0  0
  150.7453  138.1903  157.5940 C   0  0  0  0  0  0  0  0  0  0  0  0
  150.9440  139.5913  158.0947 C   0  0  0  0  0  0  0  0  0  0  0  0
  150.0840  140.6494  157.9429 C   0  0  0  0  0  0  0  0  0  0  0  0
  150.6975  142.0966  158.6912 S   0  0  0  0  0  0  0  0  0  0  0  0
  152.1375  141.2031  159.1937 C   0  0  0  0  0  0  0  0  0  0  0  0
  153.2801  141.7792  159.9949 C   0  0  0  0  0  0  0  0  0  0  0  0
  154.3670  140.7055  160.1969 C   0  0  0  0  0  0  0  0  0  0  0  0
  152.8096  142.2400  161.3917 C   0  0  0  0  0  0  0  0  0  0  0  0
  153.8601  143.0097  159.2708 C   0  0  0  0  0  0  0  0  0  0  0  0
  152.1061  139.9257  158.7975 N   0  0  0  0  0  0  0  0  0  0  0  0
  147.7674  136.6707  160.6864 C   0  0  0  0  0  0  0  0  0  0  0  0
  148.2595  136.5364  161.8281 O   0  0  0  0  0  0  0  0  0  0  0  0
  146.8007  137.4120  160.3980 O   0  5  0  0  0  0  0  0  0  0  0  0
  149.1252  135.1407  159.9668 H   0  0  0  0  0  0  0  0  0  0  0  0
  146.7561  134.4173  159.5000 H   0  0  0  0  0  0  0  0  0  0  0  0
  147.7057  134.4666  158.0226 H   0  0  0  0  0  0  0  0  0  0  0  0
  146.5598  135.7558  158.3697 H   0  0  0  0  0  0  0  0  0  0  0  0
  148.5349  136.9558  157.7578 H   0  0  0  0  0  0  0  0  0  0  0  0
  151.6690  137.7928  157.1712 H   0  0  0  0  0  0  0  0  0  0  0  0
  150.0066  138.1690  156.7918 H   0  0  0  0  0  0  0  0  0  0  0  0
  149.1263  140.6618  157.4440 H   0  0  0  0  0  0  0  0  0  0  0  0
  155.2002  141.0879  160.7874 H   0  0  0  0  0  0  0  0  0  0  0  0
  154.7740  140.3640  159.2442 H   0  0  0  0  0  0  0  0  0  0  0  0
  153.9691  139.8322  160.7148 H   0  0  0  0  0  0  0  0  0  0  0  0
  152.4039  141.4117  161.9740 H   0  0  0  0  0  0  0  0  0  0  0  0
  152.0389  143.0087  161.3230 H   0  0  0  0  0  0  0  0  0  0  0  0
  153.6336  142.6623  161.9680 H   0  0  0  0  0  0  0  0  0  0  0  0
  154.6779  143.4565  159.8374 H   0  0  0  0  0  0  0  0  0  0  0  0
  153.1004  143.7788  159.1253 H   0  0  0  0  0  0  0  0  0  0  0  0
  154.2538  142.7467  158.2883 H   0  0  0  0  0  0  0  0  0  0  0  0
  1  2  1  0  0  0  0
  1 20  1  0  0  0  0
  1 21  1  0  0  0  0
  1 22  1  0  0  0  0
  2 19  1  0  0  0  0
  2  3  1  0  0  0  0
  2 16  1  0  0  0  0
  3  4  1  0  0  0  0
  3 23  1  0  0  0  0
  4  5  2  0  0  0  0
  4  6  1  0  0  0  0
  6  7  1  0  0  0  0
  6 24  1  0  0  0  0
  6 25  1  0  0  0  0
  7 15  1  0  0  0  0
  7  8  2  0  0  0  0
  8  9  1  0  0  0  0
  8 26  1  0  0  0  0
  9 10  1  0  0  0  0
 10 11  1  0  0  0  0
 10 15  2  0  0  0  0
 11 12  1  0  0  0  0
 11 13  1  0  0  0  0
 11 14  1  0  0  0  0
 12 27  1  0  0  0  0
 12 28  1  0  0  0  0
 12 29  1  0  0  0  0
 13 30  1  0  0  0  0
 13 31  1  0  0  0  0
 13 32  1  0  0  0  0
 14 33  1  0  0  0  0
 14 34  1  0  0  0  0
 14 35  1  0  0  0  0
 16 17  2  0  0  0  0
 16 18  1  0  0  0  0
M  CHG  1  18  -1
M  END
> <s_m_source_file>
AV-unprocessed.smi

> <i_m_source_file_index>
2708

> <i_lp_mmshare_version>
43012

> <i_f3d_flags>
0

> <s_epik_input>
Tz1DKFtPSF0pW0NASF0oW0NIM10pW05IXUMoPU8pW0NIMl1jMVtjSF1zYyhuMSlDKFtDSDNdKShbQ0gzXSlbQ0gzXQ==

> <s_epik_cmdline>
J2VwaWtfcHl0aG9uJywgJy1waCcsICc3LjAnLCAnLXRuJywgJzgnLCAnLW1hJywgJzIwMCcsICctbWV0YWxfYmluZGluZycsICctaW1hZScsICc8aW5maWxlLm1hZT4nLCAnLW9tYWUnLCAnPG91dGZpbGUubWFlPic=

> <r_lp_tautomer_probability>
1

> <r_epik_Ionization_Penalty>
0.000214174

> <r_epik_Ionization_Penalty_Charging>
0.000167453

> <r_epik_Ionization_Penalty_Neutral>
4.67216e-05

> <r_epik_State_Penalty>
-0

> <r_epik_Charging_Adjusted_Penalty>
0.000167453

> <i_epik_Tot_Q>
-1

> <i_epik_Tot_abs_Q>
1

> <r_epik_Metal_State_Penalty>
-0

> <b_epik_Metal_Only>
0

> <s_lp_Force_Field>
OPLS_2005

> <r_lp_Energy>
-5.21837

> <b_lp_Chiralities_Consistent>
1

> <s_lp_Variant>
AV-unprocessed.smi:2708-2

> <Gold.Version>
5.8.1

> <Gold.Id.Protein>
6NUR|6NUR_protein|mol2

> <Gold.PLP.Fitness>
44.4099

> <Gold.PLP.PLP>
-30.7352

> <Gold.PLP.part.hbond>
-2.9638

> <Gold.PLP.part.metal>
0.0000

> <Gold.PLP.part.buried>
-5.5025

> <Gold.PLP.part.nonpolar>
-21.8249

> <Gold.PLP.part.repulsive>
0.1391

> <Gold.PLP.ligand.clash>
0.0000

> <Gold.PLP.ligand.torsion>
0.6921

> <Gold.PLP.Chemscore.Hbond>
4.9913

> <Gold.PLP.Chemscore.CHOScore>
0.0000

> <Gold.PLP.Chemscore.Metal>
0.0000

> <Gold.Chemscore.Hbonds>
donor molecule, donor type, donor heavy atom, donor atom, acceptor molecule, acceptor atom, score
      P1  H  6896  6907       L1     5  1.00
      P1  H  6931  6943       L1    17  1.70
      P1  H  6934  6947       L1    18  2.00

> <Gold.PLP.Chemscore.Internal.Correction>
0.0851

> <Gold.Rescore>
     Score         DG    S(hbond)    S(metal)    S(lipo)     H(rot)  DE(clash)    DE(int)     intcor
     14.37     -14.93       1.95        0.00      74.29       2.25       0.04       0.51       ----

> <Gold.Chemscore.Fitness>
14.3746

> <Gold.Chemscore.DG>
-14.9297

> <Gold.Chemscore.ZeroCoef>
-5.4800

> <Gold.Chemscore.Hbond>
1.9497

> <Gold.Chemscore.Metal>
0.0000

> <Gold.Chemscore.Lipo>
74.2905

> <Gold.Chemscore.Internal_Hbond>
0.0000

> <Gold.Chemscore.DEClash>
0.0407

> <Gold.Chemscore.DEInternal>
0.5145

> <Gold.Chemscore.Rot>
2.2478

> <Gold.Chemscore.Internal.Correction>
   9.000000E+99

> <Gold.Chemscore.Hbonds>
donor molecule, donor type, donor heavy atom, donor atom, acceptor molecule, acceptor atom, score
      P1  H  6896  6907       L1     5  0.76
      P1  H  6931  6943       L1    17  0.15
      P1  H  6934  6947       L1    18  0.70

> <Gold.Chemscore.Hbond.Weighted>
-6.5122

> <Gold.Chemscore.Metal.Weighted>
-0.0000

> <Gold.Chemscore.Lipo.Weighted>
-8.6920

> <Gold.Chemscore.Internal_Hbond.Weighted>
0.0000

> <Gold.Chemscore.DEClash.Weighted>
0.0407

> <Gold.Chemscore.DEInternal.Weighted>
0.5145

> <Gold.Chemscore.Rot.Weighted>
5.7544

> <Gold.Chemscore.Internal.Correction.Weighted>
   9.000000E+99

> <Gold.Protein.RotatedTorsions>
[ 6907 6896 6895 6894 ] final  -11.17 input  -60.11 | X-H torsion
[ 7974 7965 7964 7962 ] final   14.14 input  175.53 | X-H torsion
[ 8008 7997 7996 7995 ] final  -89.46 input   59.86 | X-H torsion
[ 10167 10162 10161 10158 ] final  115.45 input  -65.29 | X-H torsion
[ 10718 10713 10712 10709 ] final   77.20 input   66.30 | X-H torsion
[ 10763 10752 10751 10750 ] final  122.80 input  -60.55 | X-H torsion
[ 11005 11000 10999 10996 ] final -143.52 input  -57.11 | X-H torsion

> <Gold.Protein.ActiveResidues>
 VAL166  LYS551  ARG553  GLY616  TRP617  ASP618  TYR619  PRO620  LYS621  CYS622 
 ASP623  PHE694  ASN695  SER759  ASP760  ASP761  ALA762  ILE779  LEU786  VAL792 
 PHE793  MET794  SER795  GLU796  ALA797  LYS798  CYS799  TRP800  GLU811  SER814 

> <Gold.Protein.RotatedAtoms>
  151.3904  135.0955  159.9524 H   0  0  0  0  0  0  0  0  0  0  0  0  # atno 6907 bound_to 6896
  152.5081  133.8985  159.7440 H   0  0  0  0  0  0  0  0  0  0  0  0  # atno 6908 bound_to 6896
  150.9438  133.6571  159.2814 H   0  0  0  0  0  0  0  0  0  0  0  0  # atno 6909 bound_to 6896
  146.2312  139.9085  142.8528 H   0  0  0  0  0  0  0  0  0  0  0  0  # atno 7974 bound_to 7965
  154.6868  140.0541  157.0323 H   0  0  0  0  0  0  0  0  0  0  0  0  # atno 8008 bound_to 7997
  155.0873  140.3215  155.4565 H   0  0  0  0  0  0  0  0  0  0  0  0  # atno 8009 bound_to 7997
  156.2714  140.2054  156.6000 H   0  0  0  0  0  0  0  0  0  0  0  0  # atno 8010 bound_to 7997
  139.6316  144.7115  151.2420 H   0  0  0  0  0  0  0  0  0  0  0  0  # atno 10167 bound_to 10162
  157.6702  130.9810  150.1607 H   0  0  0  0  0  0  0  0  0  0  0  0  # atno 10718 bound_to 10713
  153.6354  135.3388  155.3055 H   0  0  0  0  0  0  0  0  0  0  0  0  # atno 10763 bound_to 10752
  154.8571  135.4305  154.2061 H   0  0  0  0  0  0  0  0  0  0  0  0  # atno 10764 bound_to 10752
  153.2967  135.7021  153.7315 H   0  0  0  0  0  0  0  0  0  0  0  0  # atno 10765 bound_to 10752
  140.8117  134.2737  157.4938 H   0  0  0  0  0  0  0  0  0  0  0  0  # atno 11005 bound_to 11000
  145.2253  140.9951  143.4022 LP  0  0  0  0  0  0  0  0  0  0  0  0  # atno 17320 bound_to 7965
  144.9575  139.4015  143.6372 LP  0  0  0  0  0  0  0  0  0  0  0  0  # atno 17321 bound_to 7965
  140.7442  143.6470  150.8283 LP  0  0  0  0  0  0  0  0  0  0  0  0  # atno 17342 bound_to 10162
  140.0096  143.5657  152.2844 LP  0  0  0  0  0  0  0  0  0  0  0  0  # atno 17343 bound_to 10162
  156.2384  130.3688  149.8365 LP  0  0  0  0  0  0  0  0  0  0  0  0  # atno 17370 bound_to 10713
  156.6172  130.8611  151.3467 LP  0  0  0  0  0  0  0  0  0  0  0  0  # atno 17371 bound_to 10713
  139.8714  134.9486  156.4002 LP  0  0  0  0  0  0  0  0  0  0  0  0  # atno 17394 bound_to 11000
  140.9191  133.7657  155.9885 LP  0  0  0  0  0  0  0  0  0  0  0  0  # atno 17395 bound_to 11000

$$$$
