AV-unprocessed.smi:1336|AV-procd|sdf|5497|dock2
  -GOLD-   22720 5 73D 1   1.00000     0.00000
 Structure written by MMmdl.
 43 43  0  0  0  0  0  0  0  0  1 V2000
  145.4926  134.3492  162.5173 C   0  0  0  0  0  0  0  0  0  0  0  0
  147.0130  134.1586  162.5100 C   0  0  0  0  0  0  0  0  0  0  0  0
  147.7637  135.4448  162.1288 C   0  0  0  0  0  0  0  0  0  0  0  0
  147.9976  135.5252  160.6919 N   0  0  0  0  0  0  0  0  0  0  0  0
  147.6632  136.5649  159.9126 C   0  0  0  0  0  0  0  0  0  0  0  0
  147.1000  137.5747  160.3392 O   0  0  0  0  0  0  0  0  0  0  0  0
  148.0036  136.4306  158.4190 C   0  0  1  0  0  0  0  0  0  0  0  0
  146.6974  136.5541  157.6172 C   0  0  0  0  0  0  0  0  0  0  0  0
  148.9000  137.5045  157.9927 N   0  0  0  0  0  0  0  0  0  0  0  0
  150.1621  137.6756  158.4190 C   0  0  0  0  0  0  0  0  0  0  0  0
  150.7094  136.9223  159.2251 O   0  0  0  0  0  0  0  0  0  0  0  0
  150.9172  138.8818  157.8541 C   0  0  0  0  0  0  0  0  0  0  0  0
  151.9584  139.3552  158.8265 C   0  0  0  0  0  0  0  0  0  0  0  0
  152.9029  138.5879  159.4629 C   0  0  0  0  0  0  0  0  0  0  0  0
  153.9148  139.5409  160.5133 S   0  0  0  0  0  0  0  0  0  0  0  0
  153.0092  140.9738  160.0383 C   0  0  0  0  0  0  0  0  0  0  0  0
  153.2998  142.3425  160.5690 C   0  0  0  0  0  0  0  0  0  0  0  0
  153.2235  142.3945  162.1019 C   0  0  0  0  0  0  0  0  0  0  0  0
  152.4441  143.4200  159.8876 C   0  0  0  0  0  0  0  0  0  0  0  0
  152.0373  140.7112  159.1596 N   0  0  0  0  0  0  0  0  0  0  0  0
  144.9862  133.4244  162.7943 H   0  0  0  0  0  0  0  0  0  0  0  0
  145.1289  134.6458  161.5330 H   0  0  0  0  0  0  0  0  0  0  0  0
  145.1953  135.1182  163.2307 H   0  0  0  0  0  0  0  0  0  0  0  0
  147.3375  133.8228  163.4956 H   0  0  0  0  0  0  0  0  0  0  0  0
  147.2674  133.3595  161.8128 H   0  0  0  0  0  0  0  0  0  0  0  0
  147.2146  136.3245  162.4688 H   0  0  0  0  0  0  0  0  0  0  0  0
  148.7320  135.4718  162.6293 H   0  0  0  0  0  0  0  0  0  0  0  0
  148.4557  134.7362  160.2593 H   0  0  0  0  0  0  0  0  0  0  0  0
  148.4646  135.4607  158.2205 H   0  0  0  0  0  0  0  0  0  0  0  0
  145.9915  135.7673  157.8865 H   0  0  0  0  0  0  0  0  0  0  0  0
  146.8877  136.4652  156.5471 H   0  0  0  0  0  0  0  0  0  0  0  0
  146.2057  137.5137  157.7853 H   0  0  0  0  0  0  0  0  0  0  0  0
  148.5252  138.1756  157.3382 H   0  0  0  0  0  0  0  0  0  0  0  0
  151.3796  138.6234  156.9003 H   0  0  0  0  0  0  0  0  0  0  0  0
  150.1967  139.6724  157.6411 H   0  0  0  0  0  0  0  0  0  0  0  0
  153.0614  137.5230  159.3807 H   0  0  0  0  0  0  0  0  0  0  0  0
  154.3354  142.5602  160.3053 H   0  0  0  0  0  0  0  0  0  0  0  0
  153.9043  141.6720  162.5532 H   0  0  0  0  0  0  0  0  0  0  0  0
  152.2169  142.1701  162.4563 H   0  0  0  0  0  0  0  0  0  0  0  0
  153.4948  143.3821  162.4754 H   0  0  0  0  0  0  0  0  0  0  0  0
  152.5884  143.4104  158.8069 H   0  0  0  0  0  0  0  0  0  0  0  0
  152.7065  144.4154  160.2471 H   0  0  0  0  0  0  0  0  0  0  0  0
  151.3826  143.2660  160.0839 H   0  0  0  0  0  0  0  0  0  0  0  0
  1  2  1  0  0  0  0
  1 21  1  0  0  0  0
  1 22  1  0  0  0  0
  1 23  1  0  0  0  0
  2  3  1  0  0  0  0
  2 24  1  0  0  0  0
  2 25  1  0  0  0  0
  3  4  1  0  0  0  0
  3 26  1  0  0  0  0
  3 27  1  0  0  0  0
  4  5  1  0  0  0  0
  4 28  1  0  0  0  0
  5  6  2  0  0  0  0
  5  7  1  0  0  0  0
  7  8  1  0  0  0  0
  7  9  1  0  0  0  0
  7 29  1  0  0  0  0
  8 30  1  0  0  0  0
  8 31  1  0  0  0  0
  8 32  1  0  0  0  0
  9 10  1  0  0  0  0
  9 33  1  0  0  0  0
 10 11  2  0  0  0  0
 10 12  1  0  0  0  0
 12 13  1  0  0  0  0
 12 34  1  0  0  0  0
 12 35  1  0  0  0  0
 13 20  1  0  0  0  0
 13 14  2  0  0  0  0
 14 15  1  0  0  0  0
 14 36  1  0  0  0  0
 15 16  1  0  0  0  0
 16 17  1  0  0  0  0
 16 20  2  0  0  0  0
 17 18  1  0  0  0  0
 17 19  1  0  0  0  0
 17 37  1  0  0  0  0
 18 38  1  0  0  0  0
 18 39  1  0  0  0  0
 18 40  1  0  0  0  0
 19 41  1  0  0  0  0
 19 42  1  0  0  0  0
 19 43  1  0  0  0  0
M  END
> <s_m_source_file>
AV-unprocessed.smi

> <i_m_source_file_index>
1336

> <i_lp_mmshare_version>
43012

> <i_f3d_flags>
0

> <s_epik_input>
W0NIM11bQ0gyXVtDSDJdW05IXUMoPU8pW0NASF0oW0NIM10pW05IXUMoPU8pW0NIMl1jMVtjSF1zYyhuMSlbQ0hdKFtDSDNdKVtDSDNd

> <s_epik_cmdline>
J2VwaWtfcHl0aG9uJywgJy1waCcsICc3LjAnLCAnLXRuJywgJzgnLCAnLW1hJywgJzIwMCcsICctbWV0YWxfYmluZGluZycsICctaW1hZScsICc8aW5maWxlLm1hZT4nLCAnLW9tYWUnLCAnPG91dGZpbGUubWFlPic=

> <r_lp_tautomer_probability>
1

> <r_epik_Ionization_Penalty>
3.10785e-05

> <r_epik_Ionization_Penalty_Charging>
0

> <r_epik_Ionization_Penalty_Neutral>
3.10785e-05

> <r_epik_State_Penalty>
-0

> <r_epik_Charging_Adjusted_Penalty>
0

> <i_epik_Tot_Q>
0

> <i_epik_Tot_abs_Q>
0

> <r_epik_Metal_State_Penalty>
-0

> <b_epik_Metal_Only>
0

> <s_lp_Force_Field>
OPLS_2005

> <r_lp_Energy>
-5.85781

> <b_lp_Chiralities_Consistent>
1

> <s_lp_Variant>
AV-unprocessed.smi:1336-2

> <Gold.Version>
5.8.1

> <Gold.Id.Protein>
6NUR|6NUR_protein|mol2

> <Gold.PLP.Fitness>
43.8224

> <Gold.PLP.PLP>
-39.0636

> <Gold.PLP.part.hbond>
-2.1875

> <Gold.PLP.part.metal>
0.0000

> <Gold.PLP.part.buried>
-6.0217

> <Gold.PLP.part.nonpolar>
-31.0481

> <Gold.PLP.part.repulsive>
0.2208

> <Gold.PLP.ligand.clash>
0.0000

> <Gold.PLP.ligand.torsion>
0.7591

> <Gold.PLP.Chemscore.Hbond>
2.0000

> <Gold.PLP.Chemscore.CHOScore>
0.0000

> <Gold.PLP.Chemscore.Metal>
0.0000

> <Gold.Chemscore.Hbonds>
donor molecule, donor type, donor heavy atom, donor atom, acceptor molecule, acceptor atom, score
      P1  H  6896  6907       L1    11  1.00
      P1  H  6934  6947       L1     6  1.00

> <Gold.PLP.Chemscore.Internal.Correction>
0.2770

> <Gold.Rescore>
     Score         DG    S(hbond)    S(metal)    S(lipo)     H(rot)  DE(clash)    DE(int)     intcor
     15.97     -18.05       1.99        0.00      95.27       2.04       0.00       2.08       ----

> <Gold.Chemscore.Fitness>
15.9739

> <Gold.Chemscore.DG>
-18.0531

> <Gold.Chemscore.ZeroCoef>
-5.4800

> <Gold.Chemscore.Hbond>
1.9870

> <Gold.Chemscore.Metal>
0.0000

> <Gold.Chemscore.Lipo>
95.2729

> <Gold.Chemscore.Internal_Hbond>
0.0000

> <Gold.Chemscore.DEClash>
0.0000

> <Gold.Chemscore.DEInternal>
2.0792

> <Gold.Chemscore.Rot>
2.0353

> <Gold.Chemscore.Internal.Correction>
   9.000000E+99

> <Gold.Chemscore.Hbonds>
donor molecule, donor type, donor heavy atom, donor atom, acceptor molecule, acceptor atom, score
      P1  H  6896  6907       L1    11  0.97
      P1  H  6934  6947       L1     6  0.95

> <Gold.Chemscore.Hbond.Weighted>
-6.6366

> <Gold.Chemscore.Metal.Weighted>
-0.0000

> <Gold.Chemscore.Lipo.Weighted>
-11.1469

> <Gold.Chemscore.Internal_Hbond.Weighted>
0.0000

> <Gold.Chemscore.DEClash.Weighted>
0.0000

> <Gold.Chemscore.DEInternal.Weighted>
2.0792

> <Gold.Chemscore.Rot.Weighted>
5.2104

> <Gold.Chemscore.Internal.Correction.Weighted>
   9.000000E+99

> <Gold.Protein.RotatedTorsions>
[ 6907 6896 6895 6894 ] final  -29.36 input  -60.11 | X-H torsion
[ 7974 7965 7964 7962 ] final  -61.01 input  175.53 | X-H torsion
[ 8008 7997 7996 7995 ] final  -87.08 input   59.86 | X-H torsion
[ 10167 10162 10161 10158 ] final  -53.50 input  -65.29 | X-H torsion
[ 10718 10713 10712 10709 ] final    1.96 input   66.30 | X-H torsion
[ 10763 10752 10751 10750 ] final  -68.46 input  -60.55 | X-H torsion
[ 11005 11000 10999 10996 ] final -117.02 input  -57.11 | X-H torsion

> <Gold.Protein.ActiveResidues>
 VAL166  LYS551  ARG553  GLY616  TRP617  ASP618  TYR619  PRO620  LYS621  CYS622 
 ASP623  PHE694  ASN695  SER759  ASP760  ASP761  ALA762  ILE779  LEU786  VAL792 
 PHE793  MET794  SER795  GLU796  ALA797  LYS798  CYS799  TRP800  GLU811  SER814 

> <Gold.Protein.RotatedAtoms>
  151.1203  135.0075  159.8535 H   0  0  0  0  0  0  0  0  0  0  0  0  # atno 6907 bound_to 6896
  152.5447  134.1730  159.8615 H   0  0  0  0  0  0  0  0  0  0  0  0  # atno 6908 bound_to 6896
  151.1788  133.4693  159.2627 H   0  0  0  0  0  0  0  0  0  0  0  0  # atno 6909 bound_to 6896
  145.8086  140.8612  143.0194 H   0  0  0  0  0  0  0  0  0  0  0  0  # atno 7974 bound_to 7965
  154.6592  140.0570  157.0043 H   0  0  0  0  0  0  0  0  0  0  0  0  # atno 8008 bound_to 7997
  155.1254  140.3251  155.4468 H   0  0  0  0  0  0  0  0  0  0  0  0  # atno 8009 bound_to 7997
  156.2611  140.1990  156.6375 H   0  0  0  0  0  0  0  0  0  0  0  0  # atno 8010 bound_to 7997
  140.6481  143.2548  151.4801 H   0  0  0  0  0  0  0  0  0  0  0  0  # atno 10167 bound_to 10162
  156.8559  130.5570  149.5666 H   0  0  0  0  0  0  0  0  0  0  0  0  # atno 10718 bound_to 10713
  154.3893  135.6056  153.5834 H   0  0  0  0  0  0  0  0  0  0  0  0  # atno 10763 bound_to 10752
  152.9787  135.5879  154.4317 H   0  0  0  0  0  0  0  0  0  0  0  0  # atno 10764 bound_to 10752
  154.4099  135.2844  155.2022 H   0  0  0  0  0  0  0  0  0  0  0  0  # atno 10765 bound_to 10752
  141.0383  133.9875  157.3036 H   0  0  0  0  0  0  0  0  0  0  0  0  # atno 11005 bound_to 11000
  144.6760  140.0362  143.7482 LP  0  0  0  0  0  0  0  0  0  0  0  0  # atno 17320 bound_to 7965
  145.9802  139.2935  143.1047 LP  0  0  0  0  0  0  0  0  0  0  0  0  # atno 17321 bound_to 7965
  139.5694  144.1965  152.1813 LP  0  0  0  0  0  0  0  0  0  0  0  0  # atno 17342 bound_to 10162
  140.1257  144.5333  150.6834 LP  0  0  0  0  0  0  0  0  0  0  0  0  # atno 17343 bound_to 10162
  156.0803  130.5815  150.9550 LP  0  0  0  0  0  0  0  0  0  0  0  0  # atno 17370 bound_to 10713
  157.6277  131.0924  150.8501 LP  0  0  0  0  0  0  0  0  0  0  0  0  # atno 17371 bound_to 10713
  139.9257  135.0201  156.8224 LP  0  0  0  0  0  0  0  0  0  0  0  0  # atno 17394 bound_to 11000
  140.6282  133.9931  155.7649 LP  0  0  0  0  0  0  0  0  0  0  0  0  # atno 17395 bound_to 11000

$$$$
