AV-unprocessed.smi:727|AV-procd|sdf|3516|dock3
  -GOLD-   22720 0513D 1   1.00000     0.00000
 Structure written by MMmdl.
 38 39  0  0  0  0  0  0  0  0  1 V2000
  150.7302  140.5032  155.5732 C   0  0  0  0  0  0  0  0  0  0  0  0
  149.4837  140.4805  154.8032 N   0  0  0  0  0  0  0  0  0  0  0  0
  148.7428  141.6721  154.7305 C   0  0  0  0  0  0  0  0  0  0  0  0
  147.5897  141.7424  154.0514 C   0  0  0  0  0  0  0  0  0  0  0  0
  147.1126  140.5556  153.3827 C   0  0  0  0  0  0  0  0  0  0  0  0
  147.8149  139.3952  153.4348 C   0  0  0  0  0  0  0  0  0  0  0  0
  147.4275  138.1903  152.8208 N   0  0  0  0  0  0  0  0  0  0  0  0
  146.2025  137.7530  152.4740 C   0  0  0  0  0  0  0  0  0  0  0  0
  145.1457  138.3640  152.6287 O   0  0  0  0  0  0  0  0  0  0  0  0
  146.2744  136.5367  151.9137 N   0  0  0  0  0  0  0  0  0  0  0  0
  145.1436  135.7640  151.4062 C   0  0  0  0  0  0  0  0  0  0  0  0
  145.5433  134.3263  151.0145 C   0  0  2  0  0  0  0  0  0  0  0  0
  144.3924  133.6319  150.2524 C   0  0  0  0  0  0  0  0  0  0  0  0
  144.6288  132.1455  150.0564 C   0  0  0  0  0  0  0  0  0  0  0  0
  145.5509  131.4470  150.7387 C   0  0  0  0  0  0  0  0  0  0  0  0
  146.4575  132.0652  151.7860 C   0  0  0  0  0  0  0  0  0  0  0  0
  145.9856  133.4662  152.2185 C   0  0  0  0  0  0  0  0  0  0  0  0
  149.0807  139.3270  154.1920 C   0  0  0  0  0  0  0  0  0  0  0  0
  149.7498  138.2940  154.2771 O   0  0  0  0  0  0  0  0  0  0  0  0
  150.9508  141.4867  155.9896 H   0  0  0  0  0  0  0  0  0  0  0  0
  151.5759  140.2217  154.9439 H   0  0  0  0  0  0  0  0  0  0  0  0
  150.6776  139.8013  156.4069 H   0  0  0  0  0  0  0  0  0  0  0  0
  149.1652  142.5159  155.2566 H   0  0  0  0  0  0  0  0  0  0  0  0
  147.0299  142.6650  154.0054 H   0  0  0  0  0  0  0  0  0  0  0  0
  146.1765  140.6369  152.8560 H   0  0  0  0  0  0  0  0  0  0  0  0
  148.1970  137.5788  152.5894 H   0  0  0  0  0  0  0  0  0  0  0  0
  147.1856  136.1112  151.8258 H   0  0  0  0  0  0  0  0  0  0  0  0
  144.3218  135.7456  152.1240 H   0  0  0  0  0  0  0  0  0  0  0  0
  144.7642  136.2880  150.5283 H   0  0  0  0  0  0  0  0  0  0  0  0
  146.3930  134.3938  150.3327 H   0  0  0  0  0  0  0  0  0  0  0  0
  143.4509  133.7501  150.7900 H   0  0  0  0  0  0  0  0  0  0  0  0
  144.2603  134.0995  149.2762 H   0  0  0  0  0  0  0  0  0  0  0  0
  144.0021  131.6438  149.3335 H   0  0  0  0  0  0  0  0  0  0  0  0
  145.6797  130.3926  150.5430 H   0  0  0  0  0  0  0  0  0  0  0  0
  146.5061  131.4069  152.6537 H   0  0  0  0  0  0  0  0  0  0  0  0
  147.4644  132.1179  151.3708 H   0  0  0  0  0  0  0  0  0  0  0  0
  146.7897  133.9494  152.7729 H   0  0  0  0  0  0  0  0  0  0  0  0
  145.1506  133.3696  152.9138 H   0  0  0  0  0  0  0  0  0  0  0  0
  1  2  1  0  0  0  0
  1 20  1  0  0  0  0
  1 21  1  0  0  0  0
  1 22  1  0  0  0  0
  2 18  1  0  0  0  0
  2  3  1  0  0  0  0
  3  4  2  0  0  0  0
  3 23  1  0  0  0  0
  4  5  1  0  0  0  0
  4 24  1  0  0  0  0
  5  6  2  0  0  0  0
  5 25  1  0  0  0  0
  6  7  1  0  0  0  0
  6 18  1  0  0  0  0
  7  8  1  0  0  0  0
  7 26  1  0  0  0  0
  8  9  2  0  0  0  0
  8 10  1  0  0  0  0
 10 11  1  0  0  0  0
 10 27  1  0  0  0  0
 11 12  1  0  0  0  0
 11 28  1  0  0  0  0
 11 29  1  0  0  0  0
 12 17  1  0  0  0  0
 12 13  1  0  0  0  0
 12 30  1  0  0  0  0
 13 14  1  0  0  0  0
 13 31  1  0  0  0  0
 13 32  1  0  0  0  0
 14 15  2  0  0  0  0
 14 33  1  0  0  0  0
 15 16  1  0  0  0  0
 15 34  1  0  0  0  0
 16 17  1  0  0  0  0
 16 35  1  0  0  0  0
 16 36  1  0  0  0  0
 17 37  1  0  0  0  0
 17 38  1  0  0  0  0
 18 19  2  0  0  0  0
M  END
> <s_m_source_file>
AV-unprocessed.smi

> <i_m_source_file_index>
727

> <i_lp_mmshare_version>
43012

> <i_f3d_flags>
0

> <s_epik_input>
W0NIM11uMVtjSF1bY0hdW2NIXWMoYzE9TylbTkhdQyg9TylbTkhdW0NIMl1bQ0BASF0yW0NIMl1bQ0hdPVtDSF1bQ0gyXVtDSDJdMg==

> <s_epik_cmdline>
J2VwaWtfcHl0aG9uJywgJy1waCcsICc3LjAnLCAnLXRuJywgJzgnLCAnLW1hJywgJzIwMCcsICctbWV0YWxfYmluZGluZycsICctaW1hZScsICc8aW5maWxlLm1hZT4nLCAnLW9tYWUnLCAnPG91dGZpbGUubWFlPic=

> <r_lp_tautomer_probability>
1

> <r_epik_Ionization_Penalty>
2.60682e-05

> <r_epik_Ionization_Penalty_Charging>
4.8094e-06

> <r_epik_Ionization_Penalty_Neutral>
2.12588e-05

> <r_epik_State_Penalty>
-0

> <r_epik_Charging_Adjusted_Penalty>
4.8094e-06

> <i_epik_Tot_Q>
0

> <i_epik_Tot_abs_Q>
0

> <r_epik_Metal_State_Penalty>
-0

> <b_epik_Metal_Only>
0

> <s_lp_Force_Field>
OPLS_2005

> <r_lp_Energy>
21.4957

> <b_lp_Chiralities_Consistent>
1

> <s_lp_Variant>
AV-unprocessed.smi:727-1

> <Gold.Version>
5.8.1

> <Gold.Id.Protein>
6NUR|6NUR_protein|mol2

> <Gold.PLP.Fitness>
44.0527

> <Gold.PLP.PLP>
-35.4536

> <Gold.PLP.part.hbond>
-2.1615

> <Gold.PLP.part.metal>
0.0000

> <Gold.PLP.part.buried>
-2.7457

> <Gold.PLP.part.nonpolar>
-35.6485

> <Gold.PLP.part.repulsive>
4.7454

> <Gold.PLP.ligand.clash>
0.0000

> <Gold.PLP.ligand.torsion>
0.2030

> <Gold.PLP.Chemscore.Hbond>
2.0000

> <Gold.PLP.Chemscore.CHOScore>
1.0000

> <Gold.PLP.Chemscore.Metal>
0.0000

> <Gold.Chemscore.Hbonds>
donor molecule, donor type, donor heavy atom, donor atom, acceptor molecule, acceptor atom, score
      L1  H     7    26       P1  7948  1.00
      L1  H    10    27       P1  7948  1.00
      L1  C     3    23       P1  8028  1.00

> <Gold.PLP.Chemscore.Internal.Correction>
0.0052

> <Gold.Rescore>
     Score         DG    S(hbond)    S(metal)    S(lipo)     H(rot)  DE(clash)    DE(int)     intcor
     17.04     -19.09       1.95        0.00      87.12       1.21       1.75       0.30       ----

> <Gold.Chemscore.Fitness>
17.0366

> <Gold.Chemscore.DG>
-19.0884

> <Gold.Chemscore.ZeroCoef>
-5.4800

> <Gold.Chemscore.Hbond>
1.9502

> <Gold.Chemscore.Metal>
0.0000

> <Gold.Chemscore.Lipo>
87.1207

> <Gold.Chemscore.Internal_Hbond>
0.0000

> <Gold.Chemscore.DEClash>
1.7532

> <Gold.Chemscore.DEInternal>
0.2987

> <Gold.Chemscore.Rot>
1.2103

> <Gold.Chemscore.Internal.Correction>
   9.000000E+99

> <Gold.Chemscore.Hbonds>
donor molecule, donor type, donor heavy atom, donor atom, acceptor molecule, acceptor atom, score
      L1  H     7    26       P1  7948  0.98
      L1  H    10    27       P1  7948  0.95

> <Gold.Chemscore.Hbond.Weighted>
-6.5137

> <Gold.Chemscore.Metal.Weighted>
-0.0000

> <Gold.Chemscore.Lipo.Weighted>
-10.1931

> <Gold.Chemscore.Internal_Hbond.Weighted>
0.0000

> <Gold.Chemscore.DEClash.Weighted>
1.7532

> <Gold.Chemscore.DEInternal.Weighted>
0.2987

> <Gold.Chemscore.Rot.Weighted>
3.0984

> <Gold.Chemscore.Internal.Correction.Weighted>
   9.000000E+99

> <Gold.Protein.RotatedTorsions>
[ 6907 6896 6895 6894 ] final  -44.20 input  -60.11 | X-H torsion
[ 7974 7965 7964 7962 ] final -142.25 input  175.53 | X-H torsion
[ 8008 7997 7996 7995 ] final  162.53 input   59.86 | X-H torsion
[ 10167 10162 10161 10158 ] final  -16.99 input  -65.29 | X-H torsion
[ 10718 10713 10712 10709 ] final  100.62 input   66.30 | X-H torsion
[ 10763 10752 10751 10750 ] final -116.40 input  -60.55 | X-H torsion
[ 11005 11000 10999 10996 ] final -135.17 input  -57.11 | X-H torsion

> <Gold.Protein.ActiveResidues>
 VAL166  LYS551  ARG553  GLY616  TRP617  ASP618  TYR619  PRO620  LYS621  CYS622 
 ASP623  PHE694  ASN695  SER759  ASP760  ASP761  ALA762  ILE779  LEU786  VAL792 
 PHE793  MET794  SER795  GLU796  ALA797  LYS798  CYS799  TRP800  GLU811  SER814 

> <Gold.Protein.RotatedAtoms>
  150.9354  134.8767  159.7578 H   0  0  0  0  0  0  0  0  0  0  0  0  # atno 6907 bound_to 6896
  152.5057  134.4018  159.9429 H   0  0  0  0  0  0  0  0  0  0  0  0  # atno 6908 bound_to 6896
  151.4042  133.3708  159.2771 H   0  0  0  0  0  0  0  0  0  0  0  0  # atno 6909 bound_to 6896
  144.8457  140.5981  143.5423 H   0  0  0  0  0  0  0  0  0  0  0  0  # atno 7974 bound_to 7965
  156.2024  140.1748  156.7871 H   0  0  0  0  0  0  0  0  0  0  0  0  # atno 8008 bound_to 7997
  154.5610  140.0699  156.8849 H   0  0  0  0  0  0  0  0  0  0  0  0  # atno 8009 bound_to 7997
  155.2849  140.3351  155.4258 H   0  0  0  0  0  0  0  0  0  0  0  0  # atno 8010 bound_to 7997
  140.7241  143.5060  150.9809 H   0  0  0  0  0  0  0  0  0  0  0  0  # atno 10167 bound_to 10162
  157.6849  131.0703  150.5128 H   0  0  0  0  0  0  0  0  0  0  0  0  # atno 10718 bound_to 10713
  154.8518  135.4347  154.1815 H   0  0  0  0  0  0  0  0  0  0  0  0  # atno 10763 bound_to 10752
  153.2905  135.6961  153.7304 H   0  0  0  0  0  0  0  0  0  0  0  0  # atno 10764 bound_to 10752
  153.6473  135.3457  155.3064 H   0  0  0  0  0  0  0  0  0  0  0  0  # atno 10765 bound_to 10752
  140.8923  134.1796  157.4519 H   0  0  0  0  0  0  0  0  0  0  0  0  # atno 11005 bound_to 11000
  145.4601  139.1514  143.3871 LP  0  0  0  0  0  0  0  0  0  0  0  0  # atno 17320 bound_to 7965
  146.2742  140.4731  142.8802 LP  0  0  0  0  0  0  0  0  0  0  0  0  # atno 17321 bound_to 7965
  139.8771  143.7118  152.3161 LP  0  0  0  0  0  0  0  0  0  0  0  0  # atno 17342 bound_to 10162
  139.7388  144.7565  151.0686 LP  0  0  0  0  0  0  0  0  0  0  0  0  # atno 17343 bound_to 10162
  156.5444  130.4216  149.6138 LP  0  0  0  0  0  0  0  0  0  0  0  0  # atno 17370 bound_to 10713
  156.2957  130.7149  151.2008 LP  0  0  0  0  0  0  0  0  0  0  0  0  # atno 17371 bound_to 10713
  139.8731  134.9863  156.5321 LP  0  0  0  0  0  0  0  0  0  0  0  0  # atno 17394 bound_to 11000
  140.8332  133.8263  155.9004 LP  0  0  0  0  0  0  0  0  0  0  0  0  # atno 17395 bound_to 11000

$$$$
