AV-unprocessed.smi:2689|AV-procd|sdf|10387|dock7
  -GOLD-   2272014423D 1   1.00000     0.00000
 Structure written by MMmdl.
 32 32  0  0  0  0  0  0  0  0  2 V2000
  150.5985  136.7482  155.5514 C   0  0  0  0  0  0  0  0  0  0  0  0
  151.6674  137.7648  155.1340 C   0  0  0  0  0  0  0  0  0  0  0  0
  151.4121  139.1246  155.7248 C   0  0  0  0  0  0  0  0  0  0  0  0
  151.3261  140.1731  154.9226 N   0  0  0  0  0  0  0  0  0  0  0  0
  151.0639  141.2686  155.7499 O   0  0  0  0  0  0  0  0  0  0  0  0
  151.0007  140.8329  157.0339 C   0  0  0  0  0  0  0  0  0  0  0  0
  150.7109  141.8657  158.0734 C   0  0  0  0  0  0  0  0  0  0  0  0
  151.6204  143.0942  157.9720 C   0  0  0  0  0  0  0  0  0  0  0  0
  151.2217  139.4833  157.0911 C   0  0  0  0  0  0  0  0  0  0  0  0
  151.2420  138.5832  158.3010 C   0  0  0  0  0  0  0  0  0  0  0  0
  149.8448  138.0105  158.5343 C   0  0  0  0  0  0  0  0  0  0  0  0
  148.8579  138.7410  158.4510 O   0  0  0  0  0  0  0  0  0  0  0  0
  149.7867  136.7050  158.8360 N   0  0  0  0  0  0  0  0  0  0  0  0
  148.5906  135.9592  159.2053 C   0  0  0  0  0  0  0  0  0  0  0  0
  147.8562  136.6947  160.3247 C   0  0  0  0  0  0  0  0  0  0  0  0
  148.3500  136.6335  161.4716 O   0  0  0  0  0  0  0  0  0  0  0  0
  146.8068  137.3007  160.0140 O   0  5  0  0  0  0  0  0  0  0  0  0
  150.8049  135.7683  155.1209 H   0  0  0  0  0  0  0  0  0  0  0  0
  149.6077  137.0570  155.2170 H   0  0  0  0  0  0  0  0  0  0  0  0
  150.5651  136.6353  156.6353 H   0  0  0  0  0  0  0  0  0  0  0  0
  152.6480  137.3997  155.4380 H   0  0  0  0  0  0  0  0  0  0  0  0
  151.6980  137.8305  154.0459 H   0  0  0  0  0  0  0  0  0  0  0  0
  149.6693  142.1770  157.9879 H   0  0  0  0  0  0  0  0  0  0  0  0
  150.8113  141.4268  159.0659 H   0  0  0  0  0  0  0  0  0  0  0  0
  151.3796  143.8202  158.7488 H   0  0  0  0  0  0  0  0  0  0  0  0
  151.5080  143.5893  157.0070 H   0  0  0  0  0  0  0  0  0  0  0  0
  152.6685  142.8168  158.0874 H   0  0  0  0  0  0  0  0  0  0  0  0
  151.9487  137.7621  158.1794 H   0  0  0  0  0  0  0  0  0  0  0  0
  151.5629  139.1219  159.1934 H   0  0  0  0  0  0  0  0  0  0  0  0
  150.6567  136.1955  158.8861 H   0  0  0  0  0  0  0  0  0  0  0  0
  147.9201  135.8088  158.3574 H   0  0  0  0  0  0  0  0  0  0  0  0
  148.8843  134.9704  159.5582 H   0  0  0  0  0  0  0  0  0  0  0  0
  1  2  1  0  0  0  0
  1 18  1  0  0  0  0
  1 19  1  0  0  0  0
  1 20  1  0  0  0  0
  2  3  1  0  0  0  0
  2 21  1  0  0  0  0
  2 22  1  0  0  0  0
  3  9  1  0  0  0  0
  3  4  2  0  0  0  0
  4  5  1  0  0  0  0
  5  6  1  0  0  0  0
  6  7  1  0  0  0  0
  6  9  2  0  0  0  0
  7  8  1  0  0  0  0
  7 23  1  0  0  0  0
  7 24  1  0  0  0  0
  8 25  1  0  0  0  0
  8 26  1  0  0  0  0
  8 27  1  0  0  0  0
  9 10  1  0  0  0  0
 10 11  1  0  0  0  0
 10 28  1  0  0  0  0
 10 29  1  0  0  0  0
 11 12  2  0  0  0  0
 11 13  1  0  0  0  0
 13 14  1  0  0  0  0
 13 30  1  0  0  0  0
 14 15  1  0  0  0  0
 14 31  1  0  0  0  0
 14 32  1  0  0  0  0
 15 16  2  0  0  0  0
 15 17  1  0  0  0  0
M  CHG  1  17  -1
M  END
> <s_m_source_file>
AV-unprocessed.smi

> <i_m_source_file_index>
2689

> <i_lp_mmshare_version>
43012

> <i_f3d_flags>
0

> <s_epik_input>
W0NIM11bQ0gyXWMxbm9jKFtDSDJdW0NIM10pYzFbQ0gyXUMoPU8pW05IXVtDSDJdQyg9TylbT0hd

> <s_epik_cmdline>
J2VwaWtfcHl0aG9uJywgJy1waCcsICc3LjAnLCAnLXRuJywgJzgnLCAnLW1hJywgJzIwMCcsICctbWV0YWxfYmluZGluZycsICctaW1hZScsICc8aW5maWxlLm1hZT4nLCAnLW9tYWUnLCAnPG91dGZpbGUubWFlPic=

> <r_lp_tautomer_probability>
1

> <r_epik_Ionization_Penalty>
0.000217839

> <r_epik_Ionization_Penalty_Charging>
0.000217819

> <r_epik_Ionization_Penalty_Neutral>
1.99806e-08

> <r_epik_State_Penalty>
-0

> <r_epik_Charging_Adjusted_Penalty>
0.000217819

> <i_epik_Tot_Q>
-1

> <i_epik_Tot_abs_Q>
1

> <r_epik_Metal_State_Penalty>
-0

> <b_epik_Metal_Only>
0

> <s_lp_Force_Field>
OPLS_2005

> <r_lp_Energy>
-12.6879

> <b_lp_Chiralities_Consistent>
1

> <s_lp_Variant>
AV-unprocessed.smi:2689-1

> <Gold.Version>
5.8.1

> <Gold.Id.Protein>
6NUR|6NUR_protein|mol2

> <Gold.PLP.Fitness>
37.5173

> <Gold.PLP.PLP>
-24.3023

> <Gold.PLP.part.hbond>
-4.5251

> <Gold.PLP.part.metal>
0.0000

> <Gold.PLP.part.buried>
-4.4250

> <Gold.PLP.part.nonpolar>
-16.4102

> <Gold.PLP.part.repulsive>
0.2738

> <Gold.PLP.ligand.clash>
0.0000

> <Gold.PLP.ligand.torsion>
0.9157

> <Gold.PLP.Chemscore.Hbond>
5.0000

> <Gold.PLP.Chemscore.CHOScore>
0.0000

> <Gold.PLP.Chemscore.Metal>
0.0000

> <Gold.Chemscore.Hbonds>
donor molecule, donor type, donor heavy atom, donor atom, acceptor molecule, acceptor atom, score
      P1  H  6931  6943       L1    16  2.00
      P1  H  6934  6947       L1    17  1.90
      P1  H  7989  7998       L1     4  1.00

> <Gold.PLP.Chemscore.Internal.Correction>
0.0464

> <Gold.Rescore>
     Score         DG    S(hbond)    S(metal)    S(lipo)     H(rot)  DE(clash)    DE(int)     intcor
      9.06     -10.99       1.85        0.00      53.37       2.71       0.11       1.82       ----

> <Gold.Chemscore.Fitness>
9.0555

> <Gold.Chemscore.DG>
-10.9859

> <Gold.Chemscore.ZeroCoef>
-5.4800

> <Gold.Chemscore.Hbond>
1.8525

> <Gold.Chemscore.Metal>
0.0000

> <Gold.Chemscore.Lipo>
53.3653

> <Gold.Chemscore.Internal_Hbond>
0.0000

> <Gold.Chemscore.DEClash>
0.1110

> <Gold.Chemscore.DEInternal>
1.8193

> <Gold.Chemscore.Rot>
2.7051

> <Gold.Chemscore.Internal.Correction>
   9.000000E+99

> <Gold.Chemscore.Hbonds>
donor molecule, donor type, donor heavy atom, donor atom, acceptor molecule, acceptor atom, score
      P1  H  6931  6943       L1    16  0.70
      P1  H  6934  6947       L1    17  0.21
      P1  H  7989  7998       L1     4  0.39

> <Gold.Chemscore.Hbond.Weighted>
-6.1872

> <Gold.Chemscore.Metal.Weighted>
-0.0000

> <Gold.Chemscore.Lipo.Weighted>
-6.2437

> <Gold.Chemscore.Internal_Hbond.Weighted>
0.0000

> <Gold.Chemscore.DEClash.Weighted>
0.1110

> <Gold.Chemscore.DEInternal.Weighted>
1.8193

> <Gold.Chemscore.Rot.Weighted>
6.9251

> <Gold.Chemscore.Internal.Correction.Weighted>
   9.000000E+99

> <Gold.Protein.RotatedTorsions>
[ 6907 6896 6895 6894 ] final -146.28 input  -60.11 | X-H torsion
[ 7974 7965 7964 7962 ] final  -12.96 input  175.53 | X-H torsion
[ 8008 7997 7996 7995 ] final   82.24 input   59.86 | X-H torsion
[ 10167 10162 10161 10158 ] final  164.85 input  -65.29 | X-H torsion
[ 10718 10713 10712 10709 ] final  135.90 input   66.30 | X-H torsion
[ 10763 10752 10751 10750 ] final   18.91 input  -60.55 | X-H torsion
[ 11005 11000 10999 10996 ] final  -93.54 input  -57.11 | X-H torsion

> <Gold.Protein.ActiveResidues>
 VAL166  LYS551  ARG553  GLY616  TRP617  ASP618  TYR619  PRO620  LYS621  CYS622 
 ASP623  PHE694  ASN695  SER759  ASP760  ASP761  ALA762  ILE779  LEU786  VAL792 
 PHE793  MET794  SER795  GLU796  ALA797  LYS798  CYS799  TRP800  GLU811  SER814 

> <Gold.Protein.RotatedAtoms>
  151.1394  133.4981  159.2597 H   0  0  0  0  0  0  0  0  0  0  0  0  # atno 6907 bound_to 6896
  151.1671  135.0300  159.8745 H   0  0  0  0  0  0  0  0  0  0  0  0  # atno 6908 bound_to 6896
  152.5462  134.1262  159.8473 H   0  0  0  0  0  0  0  0  0  0  0  0  # atno 6909 bound_to 6896
  146.2132  140.3133  142.8384 H   0  0  0  0  0  0  0  0  0  0  0  0  # atno 7974 bound_to 7965
  155.9080  140.3429  155.6076 H   0  0  0  0  0  0  0  0  0  0  0  0  # atno 8008 bound_to 7997
  155.7422  140.0809  157.2259 H   0  0  0  0  0  0  0  0  0  0  0  0  # atno 8009 bound_to 7997
  154.4052  140.1568  156.2616 H   0  0  0  0  0  0  0  0  0  0  0  0  # atno 8010 bound_to 7997
  139.4895  144.4193  151.9206 H   0  0  0  0  0  0  0  0  0  0  0  0  # atno 10167 bound_to 10162
  157.4522  131.1067  151.0019 H   0  0  0  0  0  0  0  0  0  0  0  0  # atno 10718 bound_to 10713
  153.1208  135.6718  153.9339 H   0  0  0  0  0  0  0  0  0  0  0  0  # atno 10763 bound_to 10752
  153.8855  135.3053  155.3447 H   0  0  0  0  0  0  0  0  0  0  0  0  # atno 10764 bound_to 10752
  154.7620  135.4983  153.9561 H   0  0  0  0  0  0  0  0  0  0  0  0  # atno 10765 bound_to 10752
  141.1494  133.7894  157.0173 H   0  0  0  0  0  0  0  0  0  0  0  0  # atno 11005 bound_to 11000
  144.8972  140.7598  143.5889 LP  0  0  0  0  0  0  0  0  0  0  0  0  # atno 17320 bound_to 7965
  145.3058  139.1835  143.4665 LP  0  0  0  0  0  0  0  0  0  0  0  0  # atno 17321 bound_to 7965
  140.3637  144.2941  150.5930 LP  0  0  0  0  0  0  0  0  0  0  0  0  # atno 17342 bound_to 10162
  140.5380  143.2229  151.8131 LP  0  0  0  0  0  0  0  0  0  0  0  0  # atno 17343 bound_to 10162
  157.0845  130.5917  149.5427 LP  0  0  0  0  0  0  0  0  0  0  0  0  # atno 17370 bound_to 10713
  155.9992  130.5067  150.7599 LP  0  0  0  0  0  0  0  0  0  0  0  0  # atno 17371 bound_to 10713
  140.0839  134.9632  157.1668 LP  0  0  0  0  0  0  0  0  0  0  0  0  # atno 17394 bound_to 11000
  140.3539  134.2568  155.7195 LP  0  0  0  0  0  0  0  0  0  0  0  0  # atno 17395 bound_to 11000

$$$$
