AV-unprocessed.smi:2988|AV-procd|sdf|11389|dock8
  -GOLD-   2272016313D 1   1.00000     0.00000
 Structure written by MMmdl.
 37 38  0  0  0  0  0  0  0  0  1 V2000
  150.9482  139.6770  155.0888 C   0  0  0  0  0  0  0  0  0  0  0  0
  149.4738  140.1160  155.1142 C   0  0  2  0  0  0  0  0  0  0  0  0
  149.2359  141.3479  154.2165 C   0  0  0  0  0  0  0  0  0  0  0  0
  147.7507  141.7421  154.1798 C   0  0  0  0  0  0  0  0  0  0  0  0
  147.1988  141.9802  155.5932 C   0  0  0  0  0  0  0  0  0  0  0  0
  147.4352  140.7576  156.4979 C   0  0  0  0  0  0  0  0  0  0  0  0
  148.9208  140.3465  156.5459 C   0  0  2  0  0  0  0  0  0  0  0  0
  149.6862  141.3587  157.2756 N   0  0  0  0  0  0  0  0  0  0  0  0
  150.7721  141.1403  158.0331 C   0  0  0  0  0  0  0  0  0  0  0  0
  151.2522  140.0235  158.2298 O   0  0  0  0  0  0  0  0  0  0  0  0
  151.4082  142.3804  158.6738 C   0  0  0  0  0  0  0  0  0  0  0  0
  152.3062  142.0365  159.7852 N   0  0  0  0  0  0  0  0  0  0  0  0
  153.1690  140.9889  159.5146 N   0  0  0  0  0  0  0  0  0  0  0  0
  154.0158  140.6174  160.4118 C   0  0  0  0  0  0  0  0  0  0  0  0
  154.0969  141.2564  161.7068 C   0  0  0  0  0  0  0  0  0  0  0  0
  155.2554  140.7157  162.8699 Cl  0  0  0  0  0  0  0  0  0  0  0  0
  153.2400  142.2760  161.9652 C   0  0  0  0  0  0  0  0  0  0  0  0
  153.2742  143.0881  163.4928 Cl  0  0  0  0  0  0  0  0  0  0  0  0
  152.2600  142.7258  160.9670 C   0  0  0  0  0  0  0  0  0  0  0  0
  151.4621  143.6433  161.1651 O   0  0  0  0  0  0  0  0  0  0  0  0
  151.6141  140.4737  155.4214 H   0  0  0  0  0  0  0  0  0  0  0  0
  151.2539  139.3967  154.0807 H   0  0  0  0  0  0  0  0  0  0  0  0
  151.1121  138.8133  155.7338 H   0  0  0  0  0  0  0  0  0  0  0  0
  148.9011  139.2923  154.6849 H   0  0  0  0  0  0  0  0  0  0  0  0
  149.8300  142.1901  154.5738 H   0  0  0  0  0  0  0  0  0  0  0  0
  149.5796  141.1409  153.2025 H   0  0  0  0  0  0  0  0  0  0  0  0
  147.6194  142.6392  153.5740 H   0  0  0  0  0  0  0  0  0  0  0  0
  147.1760  140.9534  153.6922 H   0  0  0  0  0  0  0  0  0  0  0  0
  147.6741  142.8603  156.0277 H   0  0  0  0  0  0  0  0  0  0  0  0
  146.1327  142.2026  155.5420 H   0  0  0  0  0  0  0  0  0  0  0  0
  147.0670  140.9611  157.5042 H   0  0  0  0  0  0  0  0  0  0  0  0
  146.8443  139.9203  156.1245 H   0  0  0  0  0  0  0  0  0  0  0  0
  148.9756  139.4019  157.0899 H   0  0  0  0  0  0  0  0  0  0  0  0
  149.3707  142.3129  157.1778 H   0  0  0  0  0  0  0  0  0  0  0  0
  151.9492  142.9602  157.9232 H   0  0  0  0  0  0  0  0  0  0  0  0
  150.6035  143.0310  159.0207 H   0  0  0  0  0  0  0  0  0  0  0  0
  154.7174  139.8004  160.2424 H   0  0  0  0  0  0  0  0  0  0  0  0
  1  2  1  0  0  0  0
  1 21  1  0  0  0  0
  1 22  1  0  0  0  0
  1 23  1  0  0  0  0
  2  7  1  0  0  0  0
  2  3  1  0  0  0  0
  2 24  1  0  0  0  0
  3  4  1  0  0  0  0
  3 25  1  0  0  0  0
  3 26  1  0  0  0  0
  4  5  1  0  0  0  0
  4 27  1  0  0  0  0
  4 28  1  0  0  0  0
  5  6  1  0  0  0  0
  5 29  1  0  0  0  0
  5 30  1  0  0  0  0
  6  7  1  0  0  0  0
  6 31  1  0  0  0  0
  6 32  1  0  0  0  0
  7  8  1  0  0  0  0
  7 33  1  0  0  0  0
  8  9  1  0  0  0  0
  8 34  1  0  0  0  0
  9 10  2  0  0  0  0
  9 11  1  0  0  0  0
 11 12  1  0  0  0  0
 11 35  1  0  0  0  0
 11 36  1  0  0  0  0
 12 19  1  0  0  0  0
 12 13  1  0  0  0  0
 13 14  2  0  0  0  0
 14 15  1  0  0  0  0
 14 37  1  0  0  0  0
 15 16  1  0  0  0  0
 15 17  2  0  0  0  0
 17 18  1  0  0  0  0
 17 19  1  0  0  0  0
 19 20  2  0  0  0  0
M  END
> <s_m_source_file>
AV-unprocessed.smi

> <i_m_source_file_index>
2988

> <i_lp_mmshare_version>
43012

> <i_f3d_flags>
0

> <s_epik_input>
W0NIM11bQ0BASF0xW0NIMl1bQ0gyXVtDSDJdW0NIMl1bQ0BIXTFbTkhdQyg9TylbQ0gyXW4ybltjSF1jKENsKWMoQ2wpYzI9Tw==

> <s_epik_cmdline>
J2VwaWtfcHl0aG9uJywgJy1waCcsICc3LjAnLCAnLXRuJywgJzgnLCAnLW1hJywgJzIwMCcsICctbWV0YWxfYmluZGluZycsICctaW1hZScsICc8aW5maWxlLm1hZT4nLCAnLW9tYWUnLCAnPG91dGZpbGUubWFlPic=

> <r_lp_tautomer_probability>
1

> <r_epik_Ionization_Penalty>
1.90782e-08

> <r_epik_Ionization_Penalty_Charging>
3.13143e-11

> <r_epik_Ionization_Penalty_Neutral>
1.90469e-08

> <r_epik_State_Penalty>
-0

> <r_epik_Charging_Adjusted_Penalty>
3.13143e-11

> <i_epik_Tot_Q>
0

> <i_epik_Tot_abs_Q>
0

> <r_epik_Metal_State_Penalty>
-0

> <b_epik_Metal_Only>
0

> <s_lp_Force_Field>
OPLS_2005

> <r_lp_Energy>
23.4163

> <b_lp_Chiralities_Consistent>
1

> <s_lp_Variant>
AV-unprocessed.smi:2988-3

> <Gold.Version>
5.8.1

> <Gold.Id.Protein>
6NUR|6NUR_protein|mol2

> <Gold.PLP.Fitness>
37.8513

> <Gold.PLP.PLP>
-39.4149

> <Gold.PLP.part.hbond>
-0.3984

> <Gold.PLP.part.metal>
0.0000

> <Gold.PLP.part.buried>
0.2476

> <Gold.PLP.part.nonpolar>
-37.3434

> <Gold.PLP.part.repulsive>
0.1929

> <Gold.PLP.ligand.clash>
0.0000

> <Gold.PLP.ligand.torsion>
0.7851

> <Gold.PLP.Chemscore.Hbond>
0.0000

> <Gold.PLP.Chemscore.CHOScore>
0.0000

> <Gold.PLP.Chemscore.Metal>
0.0000

> <Gold.PLP.Chemscore.Internal.Correction>
0.0067

> <Gold.Rescore>
     Score         DG    S(hbond)    S(metal)    S(lipo)     H(rot)  DE(clash)    DE(int)     intcor
      9.13     -13.13       0.00        0.00      98.18       1.50       1.61       2.39       ----

> <Gold.Chemscore.Fitness>
9.1339

> <Gold.Chemscore.DG>
-13.1327

> <Gold.Chemscore.ZeroCoef>
-5.4800

> <Gold.Chemscore.Hbond>
0.0000

> <Gold.Chemscore.Metal>
0.0000

> <Gold.Chemscore.Lipo>
98.1775

> <Gold.Chemscore.Internal_Hbond>
0.0000

> <Gold.Chemscore.DEClash>
1.6083

> <Gold.Chemscore.DEInternal>
2.3905

> <Gold.Chemscore.Rot>
1.4977

> <Gold.Chemscore.Internal.Correction>
   9.000000E+99

> <Gold.Chemscore.Hbond.Weighted>
-0.0000

> <Gold.Chemscore.Metal.Weighted>
-0.0000

> <Gold.Chemscore.Lipo.Weighted>
-11.4868

> <Gold.Chemscore.Internal_Hbond.Weighted>
0.0000

> <Gold.Chemscore.DEClash.Weighted>
1.6083

> <Gold.Chemscore.DEInternal.Weighted>
2.3905

> <Gold.Chemscore.Rot.Weighted>
3.8341

> <Gold.Chemscore.Internal.Correction.Weighted>
   9.000000E+99

> <Gold.Protein.RotatedTorsions>
[ 6907 6896 6895 6894 ] final   60.96 input  -60.11 | X-H torsion
[ 7974 7965 7964 7962 ] final  108.13 input  175.53 | X-H torsion
[ 8008 7997 7996 7995 ] final   43.61 input   59.86 | X-H torsion
[ 10167 10162 10161 10158 ] final  130.20 input  -65.29 | X-H torsion
[ 10718 10713 10712 10709 ] final  138.04 input   66.30 | X-H torsion
[ 10763 10752 10751 10750 ] final -157.69 input  -60.55 | X-H torsion
[ 11005 11000 10999 10996 ] final  -43.52 input  -57.11 | X-H torsion

> <Gold.Protein.ActiveResidues>
 VAL166  LYS551  ARG553  GLY616  TRP617  ASP618  TYR619  PRO620  LYS621  CYS622 
 ASP623  PHE694  ASN695  SER759  ASP760  ASP761  ALA762  ILE779  LEU786  VAL792 
 PHE793  MET794  SER795  GLU796  ALA797  LYS798  CYS799  TRP800  GLU811  SER814 

> <Gold.Protein.RotatedAtoms>
  152.4048  134.6225  160.0054 H   0  0  0  0  0  0  0  0  0  0  0  0  # atno 6907 bound_to 6896
  151.6420  133.3320  159.3140 H   0  0  0  0  0  0  0  0  0  0  0  0  # atno 6908 bound_to 6896
  150.7944  134.7034  159.6608 H   0  0  0  0  0  0  0  0  0  0  0  0  # atno 6909 bound_to 6896
  145.2847  139.2620  143.3897 H   0  0  0  0  0  0  0  0  0  0  0  0  # atno 7974 bound_to 7965
  155.3055  140.3388  155.4246 H   0  0  0  0  0  0  0  0  0  0  0  0  # atno 8008 bound_to 7997
  156.1981  140.1722  156.7996 H   0  0  0  0  0  0  0  0  0  0  0  0  # atno 8009 bound_to 7997
  154.5524  140.0703  156.8672 H   0  0  0  0  0  0  0  0  0  0  0  0  # atno 8010 bound_to 7997
  139.5441  144.6758  151.4528 H   0  0  0  0  0  0  0  0  0  0  0  0  # atno 10167 bound_to 10162
  157.4297  131.1047  151.0264 H   0  0  0  0  0  0  0  0  0  0  0  0  # atno 10718 bound_to 10713
  154.7616  135.3119  154.8367 H   0  0  0  0  0  0  0  0  0  0  0  0  # atno 10763 bound_to 10752
  153.9127  135.6804  153.4754 H   0  0  0  0  0  0  0  0  0  0  0  0  # atno 10764 bound_to 10752
  153.1217  135.4819  154.9138 H   0  0  0  0  0  0  0  0  0  0  0  0  # atno 10765 bound_to 10752
  141.0389  133.6788  156.2744 H   0  0  0  0  0  0  0  0  0  0  0  0  # atno 11005 bound_to 11000
  146.3205  140.3323  142.8641 LP  0  0  0  0  0  0  0  0  0  0  0  0  # atno 17320 bound_to 7965
  144.9223  140.7882  143.5740 LP  0  0  0  0  0  0  0  0  0  0  0  0  # atno 17321 bound_to 7965
  140.6683  143.8350  150.6968 LP  0  0  0  0  0  0  0  0  0  0  0  0  # atno 17342 bound_to 10162
  140.1766  143.4150  152.1963 LP  0  0  0  0  0  0  0  0  0  0  0  0  # atno 17343 bound_to 10162
  157.1165  130.6043  149.5494 LP  0  0  0  0  0  0  0  0  0  0  0  0  # atno 17370 bound_to 10713
  155.9909  130.4961  150.7275 LP  0  0  0  0  0  0  0  0  0  0  0  0  # atno 17371 bound_to 10713
  140.6271  134.5302  157.5555 LP  0  0  0  0  0  0  0  0  0  0  0  0  # atno 17394 bound_to 11000
  139.9261  134.8054  156.1065 LP  0  0  0  0  0  0  0  0  0  0  0  0  # atno 17395 bound_to 11000

$$$$
