AV-unprocessed.smi:951|AV-procd|sdf|4254|dock9
  -GOLD-   22720 2163D 1   1.00000     0.00000
 Structure written by MMmdl.
 52 54  0  0  0  0  0  0  0  0  2 V2000
  145.4137  133.3385  157.6690 O   0  0  0  0  0  0  0  0  0  0  0  0
  144.1883  133.4002  157.5606 C   0  0  0  0  0  0  0  0  0  0  0  0
  143.5674  134.0511  156.5641 N   0  0  0  0  0  0  0  0  0  0  0  0
  144.2304  134.7651  155.4757 C   0  0  0  0  0  0  0  0  0  0  0  0
  143.2938  135.0251  154.2792 C   0  0  0  0  0  0  0  0  0  0  0  0
  143.8728  134.6060  152.9381 C   0  0  0  0  0  0  0  0  0  0  0  0
  144.4581  135.5362  152.0524 C   0  0  0  0  0  0  0  0  0  0  0  0
  145.0058  135.0788  150.8357 C   0  0  0  0  0  0  0  0  0  0  0  0
  144.9569  133.7028  150.5303 C   0  0  0  0  0  0  0  0  0  0  0  0
  144.3609  132.8174  151.4508 C   0  0  0  0  0  0  0  0  0  0  0  0
  143.8474  133.2942  152.6057 N   0  3  0  0  0  0  0  0  0  0  0  0
  143.2790  132.6665  158.5649 C   0  0  1  0  0  0  0  0  0  0  0  0
  143.3954  131.1494  158.3434 C   0  0  0  0  0  0  0  0  0  0  0  0
  143.1442  130.5401  159.7077 C   0  0  0  0  0  0  0  0  0  0  0  0
  143.6354  131.5936  160.6984 C   0  0  0  0  0  0  0  0  0  0  0  0
  143.6169  132.8766  159.9878 N   0  0  0  0  0  0  0  0  0  0  0  0
  143.7898  134.0859  160.5832 C   0  0  0  0  0  0  0  0  0  0  0  0
  143.6370  135.1383  159.9624 O   0  0  0  0  0  0  0  0  0  0  0  0
  144.1753  134.1509  162.0824 C   0  0  0  0  0  0  0  0  0  0  0  0
  144.1990  135.6050  162.6096 C   0  0  0  0  0  0  0  0  0  0  0  0
  145.4482  136.3879  162.1696 C   0  0  0  0  0  0  0  0  0  0  0  0
  146.7303  135.6610  162.5982 C   0  0  0  0  0  0  0  0  0  0  0  0
  146.7736  134.2335  162.0337 C   0  0  0  0  0  0  0  0  0  0  0  0
  145.5101  133.4319  162.4096 C   0  0  0  0  0  0  0  0  0  0  0  0
  142.5575  134.0522  156.5598 H   0  0  0  0  0  0  0  0  0  0  0  0
  144.5922  135.7162  155.8670 H   0  0  0  0  0  0  0  0  0  0  0  0
  145.1163  134.2218  155.1422 H   0  0  0  0  0  0  0  0  0  0  0  0
  142.3502  134.4996  154.4341 H   0  0  0  0  0  0  0  0  0  0  0  0
  143.0432  136.0855  154.2369 H   0  0  0  0  0  0  0  0  0  0  0  0
  144.4956  136.5862  152.3047 H   0  0  0  0  0  0  0  0  0  0  0  0
  145.4599  135.7749  150.1458 H   0  0  0  0  0  0  0  0  0  0  0  0
  145.3724  133.3324  149.6046 H   0  0  0  0  0  0  0  0  0  0  0  0
  144.2828  131.7503  151.3015 H   0  0  0  0  0  0  0  0  0  0  0  0
  142.2421  132.9789  158.4265 H   0  0  0  0  0  0  0  0  0  0  0  0
  142.6970  130.7825  157.5905 H   0  0  0  0  0  0  0  0  0  0  0  0
  144.4005  130.8710  158.0201 H   0  0  0  0  0  0  0  0  0  0  0  0
  142.0718  130.3921  159.8414 H   0  0  0  0  0  0  0  0  0  0  0  0
  143.6314  129.5736  159.8399 H   0  0  0  0  0  0  0  0  0  0  0  0
  143.0136  131.6028  161.5942 H   0  0  0  0  0  0  0  0  0  0  0  0
  144.6605  131.3675  160.9951 H   0  0  0  0  0  0  0  0  0  0  0  0
  143.4202  133.6086  162.6486 H   0  0  0  0  0  0  0  0  0  0  0  0
  143.3045  136.1412  162.2903 H   0  0  0  0  0  0  0  0  0  0  0  0
  144.1590  135.5861  163.6994 H   0  0  0  0  0  0  0  0  0  0  0  0
  145.4449  136.5255  161.0879 H   0  0  0  0  0  0  0  0  0  0  0  0
  145.4279  137.3874  162.6050 H   0  0  0  0  0  0  0  0  0  0  0  0
  147.6049  136.2194  162.2637 H   0  0  0  0  0  0  0  0  0  0  0  0
  146.7835  135.6256  163.6871 H   0  0  0  0  0  0  0  0  0  0  0  0
  146.8938  134.2740  160.9517 H   0  0  0  0  0  0  0  0  0  0  0  0
  147.6576  133.7182  162.4102 H   0  0  0  0  0  0  0  0  0  0  0  0
  145.5382  133.2286  163.4809 H   0  0  0  0  0  0  0  0  0  0  0  0
  145.5400  132.4549  161.9253 H   0  0  0  0  0  0  0  0  0  0  0  0
  143.4268  132.6344  153.2602 H   0  0  0  0  0  0  0  0  0  0  0  0
  1  2  2  0  0  0  0
  2  3  1  0  0  0  0
  2 12  1  0  0  0  0
  3  4  1  0  0  0  0
  3 25  1  0  0  0  0
  4  5  1  0  0  0  0
  4 26  1  0  0  0  0
  4 27  1  0  0  0  0
  5  6  1  0  0  0  0
  5 28  1  0  0  0  0
  5 29  1  0  0  0  0
  6 11  1  0  0  0  0
  6  7  2  0  0  0  0
  7  8  1  0  0  0  0
  7 30  1  0  0  0  0
  8  9  2  0  0  0  0
  8 31  1  0  0  0  0
  9 10  1  0  0  0  0
  9 32  1  0  0  0  0
 10 11  2  0  0  0  0
 10 33  1  0  0  0  0
 11 52  1  0  0  0  0
 12 16  1  0  0  0  0
 12 13  1  0  0  0  0
 12 34  1  0  0  0  0
 13 14  1  0  0  0  0
 13 35  1  0  0  0  0
 13 36  1  0  0  0  0
 14 15  1  0  0  0  0
 14 37  1  0  0  0  0
 14 38  1  0  0  0  0
 15 16  1  0  0  0  0
 15 39  1  0  0  0  0
 15 40  1  0  0  0  0
 16 17  1  0  0  0  0
 17 18  2  0  0  0  0
 17 19  1  0  0  0  0
 19 24  1  0  0  0  0
 19 20  1  0  0  0  0
 19 41  1  0  0  0  0
 20 21  1  0  0  0  0
 20 42  1  0  0  0  0
 20 43  1  0  0  0  0
 21 22  1  0  0  0  0
 21 44  1  0  0  0  0
 21 45  1  0  0  0  0
 22 23  1  0  0  0  0
 22 46  1  0  0  0  0
 22 47  1  0  0  0  0
 23 24  1  0  0  0  0
 23 48  1  0  0  0  0
 23 49  1  0  0  0  0
 24 50  1  0  0  0  0
 24 51  1  0  0  0  0
M  CHG  1  11   1
M  END
> <s_m_source_file>
AV-unprocessed.smi

> <i_m_source_file_index>
951

> <i_lp_mmshare_version>
43012

> <i_f3d_flags>
0

> <s_epik_input>
bjFbY0hdW2NIXVtjSF1bY0hdYzFbQ0gyXVtDSDJdW05IXUMoPU8pW0NAQEhdMltDSDJdW0NIMl1bQ0gyXU4yQyg9TylbQ0hdM1tDSDJdW0NIMl1bQ0gyXVtDSDJdW0NIMl0z

> <s_epik_cmdline>
J2VwaWtfcHl0aG9uJywgJy1waCcsICc3LjAnLCAnLXRuJywgJzgnLCAnLW1hJywgJzIwMCcsICctbWV0YWxfYmluZGluZycsICctaW1hZScsICc8aW5maWxlLm1hZT4nLCAnLW9tYWUnLCAnPG91dGZpbGUubWFlPic=

> <r_epik_Ionization_Penalty>
1.85306

> <r_epik_Ionization_Penalty_Charging>
1.85306

> <r_epik_Ionization_Penalty_Neutral>
5.78903e-08

> <r_epik_State_Penalty>
1.97071

> <r_epik_Charging_Adjusted_Penalty>
3.82377

> <i_epik_Tot_Q>
1

> <i_epik_Tot_abs_Q>
1

> <r_epik_Metal_State_Penalty>
1.99634

> <b_epik_Metal_Only>
0

> <s_lp_Force_Field>
OPLS_2005

> <r_lp_Energy>
29.0494

> <b_lp_Chiralities_Consistent>
1

> <s_lp_Variant>
AV-unprocessed.smi:951-4

> <Gold.Version>
5.8.1

> <Gold.Id.Protein>
6NUR|6NUR_protein|mol2

> <Gold.PLP.Fitness>
48.3359

> <Gold.PLP.PLP>
-41.3285

> <Gold.PLP.part.hbond>
-2.4961

> <Gold.PLP.part.metal>
0.0000

> <Gold.PLP.part.buried>
-7.2430

> <Gold.PLP.part.nonpolar>
-31.0846

> <Gold.PLP.part.repulsive>
0.0528

> <Gold.PLP.ligand.clash>
0.0000

> <Gold.PLP.ligand.torsion>
1.0376

> <Gold.PLP.Chemscore.Hbond>
3.0000

> <Gold.PLP.Chemscore.CHOScore>
0.0000

> <Gold.PLP.Chemscore.Metal>
0.0000

> <Gold.Chemscore.Hbonds>
donor molecule, donor type, donor heavy atom, donor atom, acceptor molecule, acceptor atom, score
      L1  H     3    25       P1 11000  0.62
      L1  H    11    52       P1 10957  2.00

> <Gold.PLP.Chemscore.Internal.Correction>
0.0825

> <Gold.Rescore>
     Score         DG    S(hbond)    S(metal)    S(lipo)     H(rot)  DE(clash)    DE(int)     intcor
     15.33     -17.96       1.87        0.00      89.58       1.65       0.00       2.63       ----

> <Gold.Chemscore.Fitness>
15.3294

> <Gold.Chemscore.DG>
-17.9557

> <Gold.Chemscore.ZeroCoef>
-5.4800

> <Gold.Chemscore.Hbond>
1.8657

> <Gold.Chemscore.Metal>
0.0000

> <Gold.Chemscore.Lipo>
89.5760

> <Gold.Chemscore.Internal_Hbond>
0.0000

> <Gold.Chemscore.DEClash>
0.0000

> <Gold.Chemscore.DEInternal>
2.6263

> <Gold.Chemscore.Rot>
1.6548

> <Gold.Chemscore.Internal.Correction>
   9.000000E+99

> <Gold.Chemscore.Hbonds>
donor molecule, donor type, donor heavy atom, donor atom, acceptor molecule, acceptor atom, score
      L1  H     3    25       P1 11000  0.59
      L1  H    11    52       P1 10957  0.30

> <Gold.Chemscore.Hbond.Weighted>
-6.2315

> <Gold.Chemscore.Metal.Weighted>
-0.0000

> <Gold.Chemscore.Lipo.Weighted>
-10.4804

> <Gold.Chemscore.Internal_Hbond.Weighted>
0.0000

> <Gold.Chemscore.DEClash.Weighted>
0.0000

> <Gold.Chemscore.DEInternal.Weighted>
2.6263

> <Gold.Chemscore.Rot.Weighted>
4.2362

> <Gold.Chemscore.Internal.Correction.Weighted>
   9.000000E+99

> <Gold.Protein.RotatedTorsions>
[ 6907 6896 6895 6894 ] final   60.90 input  -60.11 | X-H torsion
[ 7974 7965 7964 7962 ] final  -90.44 input  175.53 | X-H torsion
[ 8008 7997 7996 7995 ] final   42.41 input   59.86 | X-H torsion
[ 10167 10162 10161 10158 ] final  112.46 input  -65.29 | X-H torsion
[ 10718 10713 10712 10709 ] final   98.34 input   66.30 | X-H torsion
[ 10763 10752 10751 10750 ] final  -99.49 input  -60.55 | X-H torsion
[ 11005 11000 10999 10996 ] final  110.61 input  -57.11 | X-H torsion

> <Gold.Protein.ActiveResidues>
 VAL166  LYS551  ARG553  GLY616  TRP617  ASP618  TYR619  PRO620  LYS621  CYS622 
 ASP623  PHE694  ASN695  SER759  ASP760  ASP761  ALA762  ILE779  LEU786  VAL792 
 PHE793  MET794  SER795  GLU796  ALA797  LYS798  CYS799  TRP800  GLU811  SER814 

> <Gold.Protein.RotatedAtoms>
  152.4043  134.6234  160.0056 H   0  0  0  0  0  0  0  0  0  0  0  0  # atno 6907 bound_to 6896
  151.6430  133.3319  159.3142 H   0  0  0  0  0  0  0  0  0  0  0  0  # atno 6908 bound_to 6896
  150.7939  134.7026  159.6603 H   0  0  0  0  0  0  0  0  0  0  0  0  # atno 6909 bound_to 6896
  145.4264  140.9554  143.2152 H   0  0  0  0  0  0  0  0  0  0  0  0  # atno 7974 bound_to 7965
  155.2857  140.3375  155.4255 H   0  0  0  0  0  0  0  0  0  0  0  0  # atno 8008 bound_to 7997
  156.2069  140.1754  156.7820 H   0  0  0  0  0  0  0  0  0  0  0  0  # atno 8009 bound_to 7997
  154.5633  140.0683  156.8837 H   0  0  0  0  0  0  0  0  0  0  0  0  # atno 8010 bound_to 7997
  139.6534  144.7129  151.2004 H   0  0  0  0  0  0  0  0  0  0  0  0  # atno 10167 bound_to 10162
  157.6897  131.0637  150.4782 H   0  0  0  0  0  0  0  0  0  0  0  0  # atno 10718 bound_to 10713
  154.7502  135.4970  153.9275 H   0  0  0  0  0  0  0  0  0  0  0  0  # atno 10763 bound_to 10752
  153.1135  135.6715  153.9467 H   0  0  0  0  0  0  0  0  0  0  0  0  # atno 10764 bound_to 10752
  153.9220  135.3087  155.3426 H   0  0  0  0  0  0  0  0  0  0  0  0  # atno 10765 bound_to 10752
  139.8885  134.9488  156.6305 H   0  0  0  0  0  0  0  0  0  0  0  0  # atno 11005 bound_to 11000
  144.8211  139.5790  143.6986 LP  0  0  0  0  0  0  0  0  0  0  0  0  # atno 17320 bound_to 7965
  146.2630  139.6454  142.9349 LP  0  0  0  0  0  0  0  0  0  0  0  0  # atno 17321 bound_to 7965
  140.7548  143.6113  150.8603 LP  0  0  0  0  0  0  0  0  0  0  0  0  # atno 17342 bound_to 10162
  139.9763  143.6001  152.2957 LP  0  0  0  0  0  0  0  0  0  0  0  0  # atno 17343 bound_to 10162
  156.5115  130.4140  149.6298 LP  0  0  0  0  0  0  0  0  0  0  0  0  # atno 17370 bound_to 10713
  156.3236  130.7294  151.2210 LP  0  0  0  0  0  0  0  0  0  0  0  0  # atno 17371 bound_to 10713
  140.7670  133.8770  155.8462 LP  0  0  0  0  0  0  0  0  0  0  0  0  # atno 17394 bound_to 11000
  140.9874  134.1325  157.4440 LP  0  0  0  0  0  0  0  0  0  0  0  0  # atno 17395 bound_to 11000

$$$$
