AV-unprocessed.smi:1194|AV-procd|sdf|4993|dock8
  -GOLD-   22720 3593D 1   1.00000     0.00000
 Structure written by MMmdl.
 48 49  0  0  0  0  0  0  0  0  2 V2000
  152.6732  143.3918  161.6511 C   0  0  0  0  0  0  0  0  0  0  0  0
  152.5980  142.0019  161.0094 C   0  0  0  0  0  0  0  0  0  0  0  0
  153.6317  141.8187  159.8814 C   0  0  0  0  0  0  0  0  0  0  0  0
  153.5894  140.4335  159.2092 C   0  0  0  0  0  0  0  0  0  0  0  0
  154.6117  139.7457  159.2178 O   0  0  0  0  0  0  0  0  0  0  0  0
  152.4313  140.0030  158.6419 N   0  0  0  0  0  0  0  0  0  0  0  0
  151.2005  140.8167  158.5549 C   0  0  0  0  0  0  0  0  0  0  0  0
  150.9001  141.1449  157.0819 C   0  0  0  0  0  0  0  0  0  0  0  0
  150.8162  139.8637  156.2354 C   0  0  0  0  0  0  0  0  0  0  0  0
  152.0726  138.9973  156.4344 C   0  0  0  0  0  0  0  0  0  0  0  0
  152.3489  138.7042  157.9300 C   0  0  2  0  0  0  0  0  0  0  0  0
  151.3723  137.6964  158.5748 C   0  0  0  0  0  0  0  0  0  0  0  0
  151.6333  137.1867  159.6646 O   0  0  0  0  0  0  0  0  0  0  0  0
  150.2439  137.4200  157.9021 N   0  0  0  0  0  0  0  0  0  0  0  0
  149.2154  136.4990  158.3611 C   0  0  0  0  0  0  0  0  0  0  0  0
  148.4786  137.0756  159.5767 C   0  0  0  0  0  0  0  0  0  0  0  0
  148.0557  135.9939  160.5515 C   0  0  0  0  0  0  0  0  0  0  0  0
  147.7392  136.3177  161.8896 C   0  0  0  0  0  0  0  0  0  0  0  0
  147.3565  135.2908  162.7776 C   0  0  0  0  0  0  0  0  0  0  0  0
  147.2997  133.9628  162.3075 C   0  0  0  0  0  0  0  0  0  0  0  0
  147.6102  133.6910  161.0207 N   0  3  0  0  0  0  0  0  0  0  0  0
  147.9809  134.6458  160.1393 C   0  0  0  0  0  0  0  0  0  0  0  0
  151.9366  143.4914  162.4486 H   0  0  0  0  0  0  0  0  0  0  0  0
  152.4777  144.1750  160.9181 H   0  0  0  0  0  0  0  0  0  0  0  0
  153.6576  143.5739  162.0830 H   0  0  0  0  0  0  0  0  0  0  0  0
  152.7529  141.2469  161.7816 H   0  0  0  0  0  0  0  0  0  0  0  0
  151.5906  141.8468  160.6203 H   0  0  0  0  0  0  0  0  0  0  0  0
  153.4602  142.5813  159.1206 H   0  0  0  0  0  0  0  0  0  0  0  0
  154.6308  141.9802  160.2885 H   0  0  0  0  0  0  0  0  0  0  0  0
  150.3638  140.2631  158.9812 H   0  0  0  0  0  0  0  0  0  0  0  0
  151.2339  141.7437  159.1234 H   0  0  0  0  0  0  0  0  0  0  0  0
  149.9673  141.7040  157.0049 H   0  0  0  0  0  0  0  0  0  0  0  0
  151.6836  141.7930  156.6870 H   0  0  0  0  0  0  0  0  0  0  0  0
  149.9273  139.2974  156.5157 H   0  0  0  0  0  0  0  0  0  0  0  0
  150.6997  140.1176  155.1815 H   0  0  0  0  0  0  0  0  0  0  0  0
  151.9808  138.0710  155.8660 H   0  0  0  0  0  0  0  0  0  0  0  0
  152.9326  139.5183  156.0111 H   0  0  0  0  0  0  0  0  0  0  0  0
  153.3052  138.1807  157.9542 H   0  0  0  0  0  0  0  0  0  0  0  0
  150.0919  137.8819  157.0171 H   0  0  0  0  0  0  0  0  0  0  0  0
  148.5125  136.3111  157.5479 H   0  0  0  0  0  0  0  0  0  0  0  0
  149.6748  135.5434  158.6200 H   0  0  0  0  0  0  0  0  0  0  0  0
  149.1174  137.7910  160.0967 H   0  0  0  0  0  0  0  0  0  0  0  0
  147.5962  137.6292  159.2525 H   0  0  0  0  0  0  0  0  0  0  0  0
  147.7915  137.3406  162.2335 H   0  0  0  0  0  0  0  0  0  0  0  0
  147.1118  135.5187  163.8048 H   0  0  0  0  0  0  0  0  0  0  0  0
  147.0183  133.1163  162.9171 H   0  0  0  0  0  0  0  0  0  0  0  0
  148.2069  134.3037  159.1397 H   0  0  0  0  0  0  0  0  0  0  0  0
  147.5634  132.7230  160.7012 H   0  0  0  0  0  0  0  0  0  0  0  0
  1  2  1  0  0  0  0
  1 23  1  0  0  0  0
  1 24  1  0  0  0  0
  1 25  1  0  0  0  0
  2  3  1  0  0  0  0
  2 26  1  0  0  0  0
  2 27  1  0  0  0  0
  3  4  1  0  0  0  0
  3 28  1  0  0  0  0
  3 29  1  0  0  0  0
  4  5  2  0  0  0  0
  4  6  1  0  0  0  0
  6 11  1  0  0  0  0
  6  7  1  0  0  0  0
  7  8  1  0  0  0  0
  7 30  1  0  0  0  0
  7 31  1  0  0  0  0
  8  9  1  0  0  0  0
  8 32  1  0  0  0  0
  8 33  1  0  0  0  0
  9 10  1  0  0  0  0
  9 34  1  0  0  0  0
  9 35  1  0  0  0  0
 10 11  1  0  0  0  0
 10 36  1  0  0  0  0
 10 37  1  0  0  0  0
 11 12  1  0  0  0  0
 11 38  1  0  0  0  0
 12 13  2  0  0  0  0
 12 14  1  0  0  0  0
 14 15  1  0  0  0  0
 14 39  1  0  0  0  0
 15 16  1  0  0  0  0
 15 40  1  0  0  0  0
 15 41  1  0  0  0  0
 16 17  1  0  0  0  0
 16 42  1  0  0  0  0
 16 43  1  0  0  0  0
 17 22  1  0  0  0  0
 17 18  2  0  0  0  0
 18 19  1  0  0  0  0
 18 44  1  0  0  0  0
 19 20  2  0  0  0  0
 19 45  1  0  0  0  0
 20 21  1  0  0  0  0
 20 46  1  0  0  0  0
 21 22  2  0  0  0  0
 21 48  1  0  0  0  0
 22 47  1  0  0  0  0
M  CHG  1  21   1
M  END
> <s_m_source_file>
AV-unprocessed.smi

> <i_m_source_file_index>
1194

> <i_lp_mmshare_version>
43012

> <i_f3d_flags>
0

> <s_epik_input>
W0NIM11bQ0gyXVtDSDJdQyg9TylOMVtDSDJdW0NIMl1bQ0gyXVtDSDJdW0NASF0xQyg9TylbTkhdW0NIMl1bQ0gyXWMyW2NIXVtjSF1bY0hdbltjSF0y

> <s_epik_cmdline>
J2VwaWtfcHl0aG9uJywgJy1waCcsICc3LjAnLCAnLXRuJywgJzgnLCAnLW1hJywgJzIwMCcsICctbWV0YWxfYmluZGluZycsICctaW1hZScsICc8aW5maWxlLm1hZT4nLCAnLW9tYWUnLCAnPG91dGZpbGUubWFlPic=

> <r_epik_Ionization_Penalty>
2.26523

> <r_epik_Ionization_Penalty_Charging>
2.26523

> <r_epik_Ionization_Penalty_Neutral>
5.33649e-08

> <r_epik_State_Penalty>
2.41338

> <r_epik_Charging_Adjusted_Penalty>
4.67861

> <i_epik_Tot_Q>
1

> <i_epik_Tot_abs_Q>
1

> <r_epik_Metal_State_Penalty>
2.42628

> <b_epik_Metal_Only>
0

> <s_lp_Force_Field>
OPLS_2005

> <r_lp_Energy>
33.0292

> <b_lp_Chiralities_Consistent>
1

> <s_lp_Variant>
AV-unprocessed.smi:1194-4

> <Gold.Version>
5.8.1

> <Gold.Id.Protein>
6NUR|6NUR_protein|mol2

> <Gold.PLP.Fitness>
49.7490

> <Gold.PLP.PLP>
-45.3108

> <Gold.PLP.part.hbond>
-1.9877

> <Gold.PLP.part.metal>
0.0000

> <Gold.PLP.part.buried>
-5.7250

> <Gold.PLP.part.nonpolar>
-38.1357

> <Gold.PLP.part.repulsive>
0.1274

> <Gold.PLP.ligand.clash>
0.0000

> <Gold.PLP.ligand.torsion>
0.8057

> <Gold.PLP.Chemscore.Hbond>
1.9913

> <Gold.PLP.Chemscore.CHOScore>
0.0000

> <Gold.PLP.Chemscore.Metal>
0.0000

> <Gold.Chemscore.Hbonds>
donor molecule, donor type, donor heavy atom, donor atom, acceptor molecule, acceptor atom, score
      P1  H  6896  6908       L1    13  0.98
      P1  H  7997  8010       L1     5  1.00

> <Gold.PLP.Chemscore.Internal.Correction>
0.0758

> <Gold.Rescore>
     Score         DG    S(hbond)    S(metal)    S(lipo)     H(rot)  DE(clash)    DE(int)     intcor
     17.46     -19.19       1.78        0.00     105.81       1.80       0.03       1.69       ----

> <Gold.Chemscore.Fitness>
17.4635

> <Gold.Chemscore.DG>
-19.1862

> <Gold.Chemscore.ZeroCoef>
-5.4800

> <Gold.Chemscore.Hbond>
1.7757

> <Gold.Chemscore.Metal>
0.0000

> <Gold.Chemscore.Lipo>
105.8078

> <Gold.Chemscore.Internal_Hbond>
0.0000

> <Gold.Chemscore.DEClash>
0.0343

> <Gold.Chemscore.DEInternal>
1.6884

> <Gold.Chemscore.Rot>
1.7985

> <Gold.Chemscore.Internal.Correction>
   9.000000E+99

> <Gold.Chemscore.Hbonds>
donor molecule, donor type, donor heavy atom, donor atom, acceptor molecule, acceptor atom, score
      P1  H  6896  6908       L1    13  0.92
      P1  H  7997  8010       L1     5  0.28

> <Gold.Chemscore.Hbond.Weighted>
-5.9308

> <Gold.Chemscore.Metal.Weighted>
-0.0000

> <Gold.Chemscore.Lipo.Weighted>
-12.3795

> <Gold.Chemscore.Internal_Hbond.Weighted>
0.0000

> <Gold.Chemscore.DEClash.Weighted>
0.0343

> <Gold.Chemscore.DEInternal.Weighted>
1.6884

> <Gold.Chemscore.Rot.Weighted>
4.6041

> <Gold.Chemscore.Internal.Correction.Weighted>
   9.000000E+99

> <Gold.Protein.RotatedTorsions>
[ 6907 6896 6895 6894 ] final -120.57 input  -60.11 | X-H torsion
[ 7974 7965 7964 7962 ] final   93.49 input  175.53 | X-H torsion
[ 8008 7997 7996 7995 ] final  -11.50 input   59.86 | X-H torsion
[ 10167 10162 10161 10158 ] final -132.19 input  -65.29 | X-H torsion
[ 10718 10713 10712 10709 ] final   -1.00 input   66.30 | X-H torsion
[ 10763 10752 10751 10750 ] final   34.01 input  -60.55 | X-H torsion
[ 11005 11000 10999 10996 ] final   64.78 input  -57.11 | X-H torsion

> <Gold.Protein.ActiveResidues>
 VAL166  LYS551  ARG553  GLY616  TRP617  ASP618  TYR619  PRO620  LYS621  CYS622 
 ASP623  PHE694  ASN695  SER759  ASP760  ASP761  ALA762  ILE779  LEU786  VAL792 
 PHE793  MET794  SER795  GLU796  ALA797  LYS798  CYS799  TRP800  GLU811  SER814 

> <Gold.Protein.RotatedAtoms>
  150.8405  133.7944  159.3062 H   0  0  0  0  0  0  0  0  0  0  0  0  # atno 6907 bound_to 6896
  151.5647  135.1063  159.9990 H   0  0  0  0  0  0  0  0  0  0  0  0  # atno 6908 bound_to 6896
  152.4469  133.7512  159.6751 H   0  0  0  0  0  0  0  0  0  0  0  0  # atno 6909 bound_to 6896
  145.4782  139.2279  143.2897 H   0  0  0  0  0  0  0  0  0  0  0  0  # atno 7974 bound_to 7965
  154.5459  140.2301  155.8564 H   0  0  0  0  0  0  0  0  0  0  0  0  # atno 8008 bound_to 7997
  156.1902  140.3079  155.9279 H   0  0  0  0  0  0  0  0  0  0  0  0  # atno 8009 bound_to 7997
  155.3165  140.0438  157.3028 H   0  0  0  0  0  0  0  0  0  0  0  0  # atno 8010 bound_to 7997
  139.9111  143.6493  152.2575 H   0  0  0  0  0  0  0  0  0  0  0  0  # atno 10167 bound_to 10162
  156.8121  130.5428  149.5707 H   0  0  0  0  0  0  0  0  0  0  0  0  # atno 10718 bound_to 10713
  153.0184  135.6372  154.1602 H   0  0  0  0  0  0  0  0  0  0  0  0  # atno 10763 bound_to 10752
  154.1339  135.2839  155.3180 H   0  0  0  0  0  0  0  0  0  0  0  0  # atno 10764 bound_to 10752
  154.6174  135.5536  153.7600 H   0  0  0  0  0  0  0  0  0  0  0  0  # atno 10765 bound_to 10752
  139.9937  134.6551  156.0047 H   0  0  0  0  0  0  0  0  0  0  0  0  # atno 11005 bound_to 11000
  146.2357  140.5566  142.8956 LP  0  0  0  0  0  0  0  0  0  0  0  0  # atno 17320 bound_to 7965
  144.7905  140.6022  143.6545 LP  0  0  0  0  0  0  0  0  0  0  0  0  # atno 17321 bound_to 7965
  139.6942  144.7643  151.1386 LP  0  0  0  0  0  0  0  0  0  0  0  0  # atno 17342 bound_to 10162
  140.7685  143.5547  150.9165 LP  0  0  0  0  0  0  0  0  0  0  0  0  # atno 17343 bound_to 10162
  156.1038  130.5989  150.9937 LP  0  0  0  0  0  0  0  0  0  0  0  0  # atno 17370 bound_to 10713
  157.6500  131.0898  150.8071 LP  0  0  0  0  0  0  0  0  0  0  0  0  # atno 17371 bound_to 10713
  141.1587  133.6540  156.4245 LP  0  0  0  0  0  0  0  0  0  0  0  0  # atno 17394 bound_to 11000
  140.4859  134.6620  157.5191 LP  0  0  0  0  0  0  0  0  0  0  0  0  # atno 17395 bound_to 11000

$$$$
