AV-unprocessed.smi:1056|AV-procd|sdf|4630|dock5
  -GOLD-   22720 3133D 1   1.00000     0.00000
 Structure written by MMmdl.
 45 47  0  0  0  0  0  0  0  0  2 V2000
  153.1131  142.8055  160.9263 C   0  0  0  0  0  0  0  0  0  0  0  0
  152.3630  142.2439  159.7313 C   0  0  0  0  0  0  0  0  0  0  0  0
  152.3179  140.8441  159.5441 C   0  0  0  0  0  0  0  0  0  0  0  0
  151.6292  140.2821  158.4473 C   0  0  0  0  0  0  0  0  0  0  0  0
  151.4579  138.9596  158.0752 N   0  0  0  0  0  0  0  0  0  0  0  0
  150.7246  139.0834  156.9735 C   0  0  0  0  0  0  0  0  0  0  0  0
  150.4028  140.3320  156.5839 N   0  0  0  0  0  0  0  0  0  0  0  0
  149.6156  140.7077  155.4239 C   0  0  0  0  0  0  0  0  0  0  0  0
  149.2880  139.5026  154.5186 C   0  0  2  0  0  0  0  0  0  0  0  0
  150.3817  139.2501  153.6595 O   0  0  0  0  0  0  0  0  0  0  0  0
  148.0441  139.7396  153.6389 C   0  0  0  0  0  0  0  0  0  0  0  0
  147.4737  138.4789  153.1010 N   0  3  2  0  0  0  0  0  0  0  0  0
  146.5606  138.6783  151.9504 C   0  0  0  0  0  0  0  0  0  0  0  0
  146.1978  137.3213  151.3214 C   0  0  0  0  0  0  0  0  0  0  0  0
  145.8972  136.2923  152.3144 N   0  0  0  0  0  0  0  0  0  0  0  0
  146.1765  136.3702  153.6257 C   0  0  0  0  0  0  0  0  0  0  0  0
  145.9040  135.4571  154.4004 O   0  0  0  0  0  0  0  0  0  0  0  0
  146.8535  137.6417  154.1594 C   0  0  0  0  0  0  0  0  0  0  0  0
  150.9817  141.1660  157.5349 C   0  0  0  0  0  0  0  0  0  0  0  0
  151.0212  142.5606  157.7092 C   0  0  0  0  0  0  0  0  0  0  0  0
  151.7124  143.1053  158.8116 C   0  0  0  0  0  0  0  0  0  0  0  0
  151.7452  144.6124  158.9946 C   0  0  0  0  0  0  0  0  0  0  0  0
  153.5714  142.0126  161.5181 H   0  0  0  0  0  0  0  0  0  0  0  0
  152.4348  143.3589  161.5761 H   0  0  0  0  0  0  0  0  0  0  0  0
  153.9061  143.4781  160.5988 H   0  0  0  0  0  0  0  0  0  0  0  0
  152.8129  140.1880  160.2451 H   0  0  0  0  0  0  0  0  0  0  0  0
  150.4034  138.2162  156.4152 H   0  0  0  0  0  0  0  0  0  0  0  0
  148.6985  141.1776  155.7810 H   0  0  0  0  0  0  0  0  0  0  0  0
  150.1570  141.4715  154.8643 H   0  0  0  0  0  0  0  0  0  0  0  0
  149.1539  138.6115  155.1317 H   0  0  0  0  0  0  0  0  0  0  0  0
  150.0631  139.1991  152.7706 H   0  0  0  0  0  0  0  0  0  0  0  0
  147.2904  140.2503  154.2410 H   0  0  0  0  0  0  0  0  0  0  0  0
  148.2776  140.4107  152.8104 H   0  0  0  0  0  0  0  0  0  0  0  0
  145.6582  139.1864  152.2943 H   0  0  0  0  0  0  0  0  0  0  0  0
  147.0126  139.3164  151.1919 H   0  0  0  0  0  0  0  0  0  0  0  0
  145.3500  137.4304  150.6446 H   0  0  0  0  0  0  0  0  0  0  0  0
  147.0343  136.9624  150.7206 H   0  0  0  0  0  0  0  0  0  0  0  0
  145.4469  135.4522  151.9789 H   0  0  0  0  0  0  0  0  0  0  0  0
  147.6143  137.3564  154.8873 H   0  0  0  0  0  0  0  0  0  0  0  0
  146.1027  138.2270  154.6924 H   0  0  0  0  0  0  0  0  0  0  0  0
  150.5234  143.2063  157.0010 H   0  0  0  0  0  0  0  0  0  0  0  0
  151.2033  145.1223  158.1975 H   0  0  0  0  0  0  0  0  0  0  0  0
  152.7726  144.9769  158.9867 H   0  0  0  0  0  0  0  0  0  0  0  0
  151.2856  144.8914  159.9429 H   0  0  0  0  0  0  0  0  0  0  0  0
  148.2550  137.9413  152.7534 H   0  0  0  0  0  0  0  0  0  0  0  0
  1  2  1  0  0  0  0
  1 23  1  0  0  0  0
  1 24  1  0  0  0  0
  1 25  1  0  0  0  0
  2 21  1  0  0  0  0
  2  3  2  0  0  0  0
  3  4  1  0  0  0  0
  3 26  1  0  0  0  0
  4 19  2  0  0  0  0
  4  5  1  0  0  0  0
  5  6  2  0  0  0  0
  6  7  1  0  0  0  0
  6 27  1  0  0  0  0
  7  8  1  0  0  0  0
  7 19  1  0  0  0  0
  8  9  1  0  0  0  0
  8 28  1  0  0  0  0
  8 29  1  0  0  0  0
  9 10  1  0  0  0  0
  9 11  1  0  0  0  0
  9 30  1  0  0  0  0
 10 31  1  0  0  0  0
 11 12  1  0  0  0  0
 11 32  1  0  0  0  0
 11 33  1  0  0  0  0
 12 18  1  0  0  0  0
 12 13  1  0  0  0  0
 12 45  1  0  0  0  0
 13 14  1  0  0  0  0
 13 34  1  0  0  0  0
 13 35  1  0  0  0  0
 14 15  1  0  0  0  0
 14 36  1  0  0  0  0
 14 37  1  0  0  0  0
 15 16  1  0  0  0  0
 15 38  1  0  0  0  0
 16 17  2  0  0  0  0
 16 18  1  0  0  0  0
 18 39  1  0  0  0  0
 18 40  1  0  0  0  0
 19 20  1  0  0  0  0
 20 21  2  0  0  0  0
 20 41  1  0  0  0  0
 21 22  1  0  0  0  0
 22 42  1  0  0  0  0
 22 43  1  0  0  0  0
 22 44  1  0  0  0  0
M  CHG  1  12   1
M  END
> <s_m_source_file>
AV-unprocessed.smi

> <i_m_source_file_index>
1056

> <i_lp_mmshare_version>
43012

> <i_f3d_flags>
0

> <s_epik_input>
W0NIM11jKFtjSF0xKWMoW0NIM10pW2NIXWMoYzEyKW4oW2NIXW4yKVtDSDJdW0NASF0oW09IXSlbQ0gyXU4zW0NIMl1bQ0gyXVtOSF1DKD1PKVtDSDJdMw==

> <s_epik_cmdline>
J2VwaWtfcHl0aG9uJywgJy1waCcsICc3LjAnLCAnLXRuJywgJzgnLCAnLW1hJywgJzIwMCcsICctbWV0YWxfYmluZGluZycsICctaW1hZScsICc8aW5maWxlLm1hZT4nLCAnLW9tYWUnLCAnPG91dGZpbGUubWFlPic=

> <r_epik_Ionization_Penalty>
0.153633

> <r_epik_Ionization_Penalty_Charging>
0.0674887

> <r_epik_Ionization_Penalty_Neutral>
0.0861443

> <r_epik_State_Penalty>
0.135155

> <r_epik_Charging_Adjusted_Penalty>
0.202644

> <i_epik_Tot_Q>
1

> <i_epik_Tot_abs_Q>
1

> <r_epik_Metal_State_Penalty>
0.190685

> <b_epik_Metal_Only>
0

> <s_lp_Force_Field>
OPLS_2005

> <r_lp_Energy>
23.9975

> <b_lp_Chiralities_Consistent>
1

> <s_lp_Variant>
AV-unprocessed.smi:1056-1

> <Gold.Version>
5.8.1

> <Gold.Id.Protein>
6NUR|6NUR_protein|mol2

> <Gold.PLP.Fitness>
48.8687

> <Gold.PLP.PLP>
-38.1585

> <Gold.PLP.part.hbond>
-4.0151

> <Gold.PLP.part.metal>
0.0000

> <Gold.PLP.part.buried>
1.0397

> <Gold.PLP.part.nonpolar>
-36.8759

> <Gold.PLP.part.repulsive>
0.1003

> <Gold.PLP.ligand.clash>
0.0000

> <Gold.PLP.ligand.torsion>
0.5265

> <Gold.PLP.Chemscore.Hbond>
3.8945

> <Gold.PLP.Chemscore.CHOScore>
0.0000

> <Gold.PLP.Chemscore.Metal>
0.0000

> <Gold.Chemscore.Hbonds>
donor molecule, donor type, donor heavy atom, donor atom, acceptor molecule, acceptor atom, score
      L1  H    10    31       P1  7957  1.00
      L1  H    12    45       P1  7948  1.97
      P1  H  7989  7998       L1    10  0.87

> <Gold.PLP.Chemscore.Internal.Correction>
0.0796

> <Gold.Rescore>
     Score         DG    S(hbond)    S(metal)    S(lipo)     H(rot)  DE(clash)    DE(int)     intcor
     16.95     -18.42       1.78        0.00     111.70       2.38       0.91       0.56       ----

> <Gold.Chemscore.Fitness>
16.9496

> <Gold.Chemscore.DG>
-18.4206

> <Gold.Chemscore.ZeroCoef>
-5.4800

> <Gold.Chemscore.Hbond>
1.7844

> <Gold.Chemscore.Metal>
0.0000

> <Gold.Chemscore.Lipo>
111.7022

> <Gold.Chemscore.Internal_Hbond>
0.0000

> <Gold.Chemscore.DEClash>
0.9142

> <Gold.Chemscore.DEInternal>
0.5569

> <Gold.Chemscore.Rot>
2.3783

> <Gold.Chemscore.Internal.Correction>
   9.000000E+99

> <Gold.Chemscore.Hbonds>
donor molecule, donor type, donor heavy atom, donor atom, acceptor molecule, acceptor atom, score
      L1  H    10    31       P1  7957  0.81
      L1  H    12    45       P1  7948  0.87
      P1  H  7989  7998       L1    10  0.15

> <Gold.Chemscore.Hbond.Weighted>
-5.9598

> <Gold.Chemscore.Metal.Weighted>
-0.0000

> <Gold.Chemscore.Lipo.Weighted>
-13.0692

> <Gold.Chemscore.Internal_Hbond.Weighted>
0.0000

> <Gold.Chemscore.DEClash.Weighted>
0.9142

> <Gold.Chemscore.DEInternal.Weighted>
0.5569

> <Gold.Chemscore.Rot.Weighted>
6.0884

> <Gold.Chemscore.Internal.Correction.Weighted>
   9.000000E+99

> <Gold.Protein.RotatedTorsions>
[ 6907 6896 6895 6894 ] final -113.75 input  -60.11 | X-H torsion
[ 7974 7965 7964 7962 ] final   73.97 input  175.53 | X-H torsion
[ 8008 7997 7996 7995 ] final -111.04 input   59.86 | X-H torsion
[ 10167 10162 10161 10158 ] final  -30.34 input  -65.29 | X-H torsion
[ 10718 10713 10712 10709 ] final -174.77 input   66.30 | X-H torsion
[ 10763 10752 10751 10750 ] final  -45.58 input  -60.55 | X-H torsion
[ 11005 11000 10999 10996 ] final  179.39 input  -57.11 | X-H torsion

> <Gold.Protein.ActiveResidues>
 VAL166  LYS551  ARG553  GLY616  TRP617  ASP618  TYR619  PRO620  LYS621  CYS622 
 ASP623  PHE694  ASN695  SER759  ASP760  ASP761  ALA762  ILE779  LEU786  VAL792 
 PHE793  MET794  SER795  GLU796  ALA797  LYS798  CYS799  TRP800  GLU811  SER814 

> <Gold.Protein.RotatedAtoms>
  150.7852  133.8900  159.3310 H   0  0  0  0  0  0  0  0  0  0  0  0  # atno 6907 bound_to 6896
  151.6752  135.0968  160.0215 H   0  0  0  0  0  0  0  0  0  0  0  0  # atno 6908 bound_to 6896
  152.3914  133.6645  159.6276 H   0  0  0  0  0  0  0  0  0  0  0  0  # atno 6909 bound_to 6896
  145.7341  139.2695  143.1524 H   0  0  0  0  0  0  0  0  0  0  0  0  # atno 7974 bound_to 7965
  154.9838  140.0396  157.2289 H   0  0  0  0  0  0  0  0  0  0  0  0  # atno 8008 bound_to 7997
  154.7690  140.2798  155.6130 H   0  0  0  0  0  0  0  0  0  0  0  0  # atno 8009 bound_to 7997
  156.2918  140.2613  156.2488 H   0  0  0  0  0  0  0  0  0  0  0  0  # atno 8010 bound_to 7997
  140.7250  143.3857  151.1520 H   0  0  0  0  0  0  0  0  0  0  0  0  # atno 10167 bound_to 10162
  156.7899  130.9514  151.3120 H   0  0  0  0  0  0  0  0  0  0  0  0  # atno 10718 bound_to 10713
  154.0309  135.6657  153.4780 H   0  0  0  0  0  0  0  0  0  0  0  0  # atno 10763 bound_to 10752
  153.0541  135.5067  154.7933 H   0  0  0  0  0  0  0  0  0  0  0  0  # atno 10764 bound_to 10752
  154.6879  135.3056  154.9487 H   0  0  0  0  0  0  0  0  0  0  0  0  # atno 10765 bound_to 10752
  140.4056  134.6738  157.4586 H   0  0  0  0  0  0  0  0  0  0  0  0  # atno 11005 bound_to 11000
  146.0510  140.8070  142.9782 LP  0  0  0  0  0  0  0  0  0  0  0  0  # atno 17320 bound_to 7965
  144.6886  140.3052  143.7257 LP  0  0  0  0  0  0  0  0  0  0  0  0  # atno 17321 bound_to 7965
  139.7453  143.8861  152.3062 LP  0  0  0  0  0  0  0  0  0  0  0  0  # atno 17342 bound_to 10162
  139.8696  144.7075  150.9003 LP  0  0  0  0  0  0  0  0  0  0  0  0  # atno 17343 bound_to 10162
  157.6605  130.8962  149.9820 LP  0  0  0  0  0  0  0  0  0  0  0  0  # atno 17370 bound_to 10713
  156.1165  130.3647  149.9959 LP  0  0  0  0  0  0  0  0  0  0  0  0  # atno 17371 bound_to 10713
  140.0304  134.6414  155.9114 LP  0  0  0  0  0  0  0  0  0  0  0  0  # atno 17394 bound_to 11000
  141.1840  133.6552  156.5141 LP  0  0  0  0  0  0  0  0  0  0  0  0  # atno 17395 bound_to 11000

$$$$
