AV-unprocessed.smi:85|AV-procd|sdf|811|dock5
  -GOLD-   2262017213D 1   1.00000     0.00000
 Structure written by MMmdl.
 62 65  0  0  0  0  0  0  0  0  1 V2000
  150.5205  142.4652  158.4692 C   0  0  0  0  0  0  0  0  0  0  0  0
  151.7466  141.8776  157.7504 C   0  0  0  0  0  0  0  0  0  0  0  0
  151.4859  140.5841  157.1089 N   0  0  0  0  0  0  0  0  0  0  0  0
  151.4338  139.4972  157.9173 C   0  0  0  0  0  0  0  0  0  0  0  0
  150.2291  138.8897  158.0604 N   0  0  0  0  0  0  0  0  0  0  0  0
  150.1111  137.8097  158.8379 C   0  0  0  0  0  0  0  0  0  0  0  0
  151.0527  137.1867  159.5489 N   0  0  0  0  0  0  0  0  0  0  0  0
  152.2639  137.7995  159.4167 C   0  0  0  0  0  0  0  0  0  0  0  0
  152.5402  138.9561  158.6338 C   0  0  0  0  0  0  0  0  0  0  0  0
  153.8786  139.3056  158.7666 N   0  0  0  0  0  0  0  0  0  0  0  0
  154.3663  138.4035  159.5721 C   0  0  0  0  0  0  0  0  0  0  0  0
  153.4721  137.4450  159.9935 N   0  0  0  0  0  0  0  0  0  0  0  0
  153.7505  136.3251  160.8825 C   0  0  0  0  0  0  0  0  0  0  0  0
  154.7820  136.6257  162.0113 C   0  0  0  0  0  0  0  0  0  0  0  0
  156.2341  136.5665  161.4562 C   0  0  0  0  0  0  0  0  0  0  0  0
  156.5322  135.3147  160.8716 O   0  0  0  0  0  0  0  0  0  0  0  0
  154.5153  138.0302  162.6122 C   0  0  0  0  0  0  0  0  0  0  0  0
  155.2607  138.2758  163.9375 C   0  0  0  0  0  0  0  0  0  0  0  0
  154.9419  137.2585  164.8771 O   0  0  0  0  0  0  0  0  0  0  0  0
  155.3322  135.9643  164.4385 C   0  0  0  0  0  0  0  0  0  0  0  0
  154.5697  135.5991  163.1528 C   0  0  0  0  0  0  0  0  0  0  0  0
  150.5592  140.4977  155.9729 C   0  0  1  0  0  0  0  0  0  0  0  0
  150.6232  139.1433  155.2487 C   0  0  0  0  0  0  0  0  0  0  0  0
  149.6417  139.1262  154.0692 C   0  0  0  0  0  0  0  0  0  0  0  0
  148.3182  139.4215  154.5134 O   0  0  0  0  0  0  0  0  0  0  0  0
  148.1320  140.6828  155.1657 C   0  0  0  0  0  0  0  0  0  0  0  0
  148.2975  141.8474  154.1653 C   0  0  0  0  0  0  0  0  0  0  0  0
  146.6790  140.6627  155.6695 C   0  0  0  0  0  0  0  0  0  0  0  0
  149.0998  140.7892  156.3694 C   0  0  0  0  0  0  0  0  0  0  0  0
  150.7861  143.3885  158.9838 H   0  0  0  0  0  0  0  0  0  0  0  0
  150.1331  141.7704  159.2149 H   0  0  0  0  0  0  0  0  0  0  0  0
  149.7124  142.7015  157.7772 H   0  0  0  0  0  0  0  0  0  0  0  0
  152.1261  142.5892  157.0182 H   0  0  0  0  0  0  0  0  0  0  0  0
  152.5387  141.7618  158.4875 H   0  0  0  0  0  0  0  0  0  0  0  0
  149.1214  137.3814  158.8971 H   0  0  0  0  0  0  0  0  0  0  0  0
  155.4032  138.4076  159.8754 H   0  0  0  0  0  0  0  0  0  0  0  0
  152.8010  136.0102  161.3180 H   0  0  0  0  0  0  0  0  0  0  0  0
  154.0859  135.4831  160.2756 H   0  0  0  0  0  0  0  0  0  0  0  0
  156.3965  137.3435  160.7092 H   0  0  0  0  0  0  0  0  0  0  0  0
  156.9720  136.7446  162.2366 H   0  0  0  0  0  0  0  0  0  0  0  0
  157.4584  135.2818  160.6866 H   0  0  0  0  0  0  0  0  0  0  0  0
  154.7862  138.8114  161.9018 H   0  0  0  0  0  0  0  0  0  0  0  0
  153.4469  138.1461  162.7998 H   0  0  0  0  0  0  0  0  0  0  0  0
  156.3396  138.3263  163.7891 H   0  0  0  0  0  0  0  0  0  0  0  0
  154.9614  139.2372  164.3553 H   0  0  0  0  0  0  0  0  0  0  0  0
  156.4120  135.9209  164.2927 H   0  0  0  0  0  0  0  0  0  0  0  0
  155.0954  135.2470  165.2245 H   0  0  0  0  0  0  0  0  0  0  0  0
  153.5081  135.5462  163.3984 H   0  0  0  0  0  0  0  0  0  0  0  0
  154.8471  134.5952  162.8303 H   0  0  0  0  0  0  0  0  0  0  0  0
  150.8523  141.2637  155.2541 H   0  0  0  0  0  0  0  0  0  0  0  0
  151.6325  138.9478  154.8865 H   0  0  0  0  0  0  0  0  0  0  0  0
  150.3728  138.3337  155.9347 H   0  0  0  0  0  0  0  0  0  0  0  0
  149.9547  139.8228  153.2918 H   0  0  0  0  0  0  0  0  0  0  0  0
  149.6369  138.1380  153.6090 H   0  0  0  0  0  0  0  0  0  0  0  0
  148.0612  142.8020  154.6365 H   0  0  0  0  0  0  0  0  0  0  0  0
  147.6278  141.7279  153.3133 H   0  0  0  0  0  0  0  0  0  0  0  0
  149.3099  141.9292  153.7730 H   0  0  0  0  0  0  0  0  0  0  0  0
  146.4336  141.5777  156.2096 H   0  0  0  0  0  0  0  0  0  0  0  0
  146.5038  139.8241  156.3443 H   0  0  0  0  0  0  0  0  0  0  0  0
  145.9747  140.5672  154.8423 H   0  0  0  0  0  0  0  0  0  0  0  0
  148.7775  140.0770  157.1283 H   0  0  0  0  0  0  0  0  0  0  0  0
  149.0250  141.7768  156.8265 H   0  0  0  0  0  0  0  0  0  0  0  0
  1  2  1  0  0  0  0
  1 30  1  0  0  0  0
  1 31  1  0  0  0  0
  1 32  1  0  0  0  0
  2  3  1  0  0  0  0
  2 33  1  0  0  0  0
  2 34  1  0  0  0  0
  3  4  1  0  0  0  0
  3 22  1  0  0  0  0
  4  9  1  0  0  0  0
  4  5  2  0  0  0  0
  5  6  1  0  0  0  0
  6  7  2  0  0  0  0
  6 35  1  0  0  0  0
  7  8  1  0  0  0  0
  8 12  1  0  0  0  0
  8  9  2  0  0  0  0
  9 10  1  0  0  0  0
 10 11  2  0  0  0  0
 11 12  1  0  0  0  0
 11 36  1  0  0  0  0
 12 13  1  0  0  0  0
 13 14  1  0  0  0  0
 13 37  1  0  0  0  0
 13 38  1  0  0  0  0
 14 21  1  0  0  0  0
 14 15  1  0  0  0  0
 14 17  1  0  0  0  0
 15 16  1  0  0  0  0
 15 39  1  0  0  0  0
 15 40  1  0  0  0  0
 16 41  1  0  0  0  0
 17 18  1  0  0  0  0
 17 42  1  0  0  0  0
 17 43  1  0  0  0  0
 18 19  1  0  0  0  0
 18 44  1  0  0  0  0
 18 45  1  0  0  0  0
 19 20  1  0  0  0  0
 20 21  1  0  0  0  0
 20 46  1  0  0  0  0
 20 47  1  0  0  0  0
 21 48  1  0  0  0  0
 21 49  1  0  0  0  0
 22 29  1  0  0  0  0
 22 23  1  0  0  0  0
 22 50  1  0  0  0  0
 23 24  1  0  0  0  0
 23 51  1  0  0  0  0
 23 52  1  0  0  0  0
 24 25  1  0  0  0  0
 24 53  1  0  0  0  0
 24 54  1  0  0  0  0
 25 26  1  0  0  0  0
 26 27  1  0  0  0  0
 26 28  1  0  0  0  0
 26 29  1  0  0  0  0
 27 55  1  0  0  0  0
 27 56  1  0  0  0  0
 27 57  1  0  0  0  0
 28 58  1  0  0  0  0
 28 59  1  0  0  0  0
 28 60  1  0  0  0  0
 29 61  1  0  0  0  0
 29 62  1  0  0  0  0
M  END
> <s_m_source_file>
AV-unprocessed.smi

> <i_m_source_file_index>
85

> <i_lp_mmshare_version>
43012

> <i_f3d_flags>
0

> <s_epik_input>
W0NIM11DMShbQ0gzXSlPW0NIMl1bQ0gyXVtDQEhdKFtDSDJdMSlOKFtDSDJdW0NIM10pYyhuW2NIXW4yKWMoYzIzKW5bY0hdbjNbQ0gyXUM0KFtDSDJdW09IXSlbQ0gyXVtDSDJdT1tDSDJdW0NIMl00

> <s_epik_cmdline>
J2VwaWtfcHl0aG9uJywgJy1waCcsICc3LjAnLCAnLXRuJywgJzgnLCAnLW1hJywgJzIwMCcsICctbWV0YWxfYmluZGluZycsICctaW1hZScsICc8aW5maWxlLm1hZT4nLCAnLW9tYWUnLCAnPG91dGZpbGUubWFlPic=

> <r_lp_tautomer_probability>
1

> <r_epik_Ionization_Penalty>
0.00336056

> <r_epik_Ionization_Penalty_Charging>
0

> <r_epik_Ionization_Penalty_Neutral>
0.00336056

> <r_epik_State_Penalty>
0.00222191

> <r_epik_Charging_Adjusted_Penalty>
0.00222191

> <i_epik_Tot_Q>
0

> <i_epik_Tot_abs_Q>
0

> <r_epik_Metal_State_Penalty>
-0

> <b_epik_Metal_Only>
0

> <s_lp_Force_Field>
OPLS_2005

> <r_lp_Energy>
36.9586

> <b_lp_Chiralities_Consistent>
1

> <s_lp_Variant>
AV-unprocessed.smi:85-2

> <Gold.Version>
5.8.1

> <Gold.Id.Protein>
6NUR|6NUR_protein|mol2

> <Gold.PLP.Fitness>
40.6198

> <Gold.PLP.PLP>
-37.4014

> <Gold.PLP.part.hbond>
-1.9248

> <Gold.PLP.part.metal>
0.0000

> <Gold.PLP.part.buried>
-4.8705

> <Gold.PLP.part.nonpolar>
-30.8174

> <Gold.PLP.part.repulsive>
0.2135

> <Gold.PLP.ligand.clash>
0.0000

> <Gold.PLP.ligand.torsion>
1.8908

> <Gold.PLP.Chemscore.Hbond>
1.9425

> <Gold.PLP.Chemscore.CHOScore>
0.0000

> <Gold.PLP.Chemscore.Metal>
0.0000

> <Gold.Chemscore.Hbonds>
donor molecule, donor type, donor heavy atom, donor atom, acceptor molecule, acceptor atom, score
      P1  H  6896  6907       L1     7  0.86
      P1  H  7997  8008       L1    10  1.00

> <Gold.PLP.Chemscore.Internal.Correction>
1.1725

> <Gold.Rescore>
     Score         DG    S(hbond)    S(metal)    S(lipo)     H(rot)  DE(clash)    DE(int)     intcor
     12.45     -16.88       1.91        0.00      95.61       2.41       0.00       4.43       ----

> <Gold.Chemscore.Fitness>
12.4550

> <Gold.Chemscore.DG>
-16.8845

> <Gold.Chemscore.ZeroCoef>
-5.4800

> <Gold.Chemscore.Hbond>
1.9111

> <Gold.Chemscore.Metal>
0.0000

> <Gold.Chemscore.Lipo>
95.6105

> <Gold.Chemscore.Internal_Hbond>
0.0000

> <Gold.Chemscore.DEClash>
0.0017

> <Gold.Chemscore.DEInternal>
4.4278

> <Gold.Chemscore.Rot>
2.4083

> <Gold.Chemscore.Internal.Correction>
   9.000000E+99

> <Gold.Chemscore.Hbonds>
donor molecule, donor type, donor heavy atom, donor atom, acceptor molecule, acceptor atom, score
      P1  H  6896  6907       L1     7  0.55
      P1  H  7997  8008       L1    10  0.96

> <Gold.Chemscore.Hbond.Weighted>
-6.3832

> <Gold.Chemscore.Metal.Weighted>
-0.0000

> <Gold.Chemscore.Lipo.Weighted>
-11.1864

> <Gold.Chemscore.Internal_Hbond.Weighted>
0.0000

> <Gold.Chemscore.DEClash.Weighted>
0.0017

> <Gold.Chemscore.DEInternal.Weighted>
4.4278

> <Gold.Chemscore.Rot.Weighted>
6.1652

> <Gold.Chemscore.Internal.Correction.Weighted>
   9.000000E+99

> <Gold.Protein.RotatedTorsions>
[ 6907 6896 6895 6894 ] final  -10.66 input  -60.11 | X-H torsion
[ 7974 7965 7964 7962 ] final   50.24 input  175.53 | X-H torsion
[ 8008 7997 7996 7995 ] final -112.97 input   59.86 | X-H torsion
[ 10167 10162 10161 10158 ] final  -25.30 input  -65.29 | X-H torsion
[ 10718 10713 10712 10709 ] final   -7.76 input   66.30 | X-H torsion
[ 10763 10752 10751 10750 ] final -166.69 input  -60.55 | X-H torsion
[ 11005 11000 10999 10996 ] final -119.05 input  -57.11 | X-H torsion

> <Gold.Protein.ActiveResidues>
 VAL166  LYS551  ARG553  GLY616  TRP617  ASP618  TYR619  PRO620  LYS621  CYS622 
 ASP623  PHE694  ASN695  SER759  ASP760  ASP761  ALA762  ILE779  LEU786  VAL792 
 PHE793  MET794  SER795  GLU796  ALA797  LYS798  CYS799  TRP800  GLU811  SER814 

> <Gold.Protein.RotatedAtoms>
  151.3984  135.0967  159.9547 H   0  0  0  0  0  0  0  0  0  0  0  0  # atno 6907 bound_to 6896
  152.5058  133.8912  159.7405 H   0  0  0  0  0  0  0  0  0  0  0  0  # atno 6908 bound_to 6896
  150.9380  133.6632  159.2825 H   0  0  0  0  0  0  0  0  0  0  0  0  # atno 6909 bound_to 6896
  146.0031  139.4460  143.0003 H   0  0  0  0  0  0  0  0  0  0  0  0  # atno 7974 bound_to 7965
  155.0135  140.0393  157.2409 H   0  0  0  0  0  0  0  0  0  0  0  0  # atno 8008 bound_to 7997
  154.7440  140.2754  155.6326 H   0  0  0  0  0  0  0  0  0  0  0  0  # atno 8009 bound_to 7997
  156.2870  140.2660  156.2175 H   0  0  0  0  0  0  0  0  0  0  0  0  # atno 8010 bound_to 7997
  140.7287  143.4277  151.0851 H   0  0  0  0  0  0  0  0  0  0  0  0  # atno 10167 bound_to 10162
  156.7125  130.5126  149.5888 H   0  0  0  0  0  0  0  0  0  0  0  0  # atno 10718 bound_to 10713
  154.6808  135.2954  154.9616 H   0  0  0  0  0  0  0  0  0  0  0  0  # atno 10763 bound_to 10752
  154.0611  135.6631  153.4816 H   0  0  0  0  0  0  0  0  0  0  0  0  # atno 10764 bound_to 10752
  153.0546  135.5152  154.7850 H   0  0  0  0  0  0  0  0  0  0  0  0  # atno 10765 bound_to 10752
  141.0243  134.0077  157.3237 H   0  0  0  0  0  0  0  0  0  0  0  0  # atno 11005 bound_to 11000
  145.7458  140.9991  143.1277 LP  0  0  0  0  0  0  0  0  0  0  0  0  # atno 17320 bound_to 7965
  144.6926  139.9154  143.7465 LP  0  0  0  0  0  0  0  0  0  0  0  0  # atno 17321 bound_to 7965
  139.7930  143.8191  152.3154 LP  0  0  0  0  0  0  0  0  0  0  0  0  # atno 17342 bound_to 10162
  139.8181  144.7307  150.9608 LP  0  0  0  0  0  0  0  0  0  0  0  0  # atno 17343 bound_to 10162
  156.1651  130.6400  151.0768 LP  0  0  0  0  0  0  0  0  0  0  0  0  # atno 17370 bound_to 10713
  157.6930  131.0803  150.7051 LP  0  0  0  0  0  0  0  0  0  0  0  0  # atno 17371 bound_to 10713
  139.9166  135.0197  156.7903 LP  0  0  0  0  0  0  0  0  0  0  0  0  # atno 17394 bound_to 11000
  140.6519  133.9724  155.7759 LP  0  0  0  0  0  0  0  0  0  0  0  0  # atno 17395 bound_to 11000

$$$$
