AV-unprocessed.smi:1110|AV-procd|sdf|4790|dock7
  -GOLD-   22720 3333D 1   1.00000     0.00000
 Structure written by MMmdl.
 44 45  0  0  0  0  0  0  0  0  2 V2000
  143.3701  136.7651  152.7632 C   0  0  0  0  0  0  0  0  0  0  0  0
  144.3482  136.2196  153.8125 C   0  0  0  0  0  0  0  0  0  0  0  0
  145.8377  136.3899  153.4184 C   0  0  2  0  0  0  0  0  0  0  0  0
  146.2177  137.8697  153.1679 C   0  0  0  0  0  0  0  0  0  0  0  0
  147.6542  138.0913  153.3159 N   0  0  0  0  0  0  0  0  0  0  0  0
  148.2293  138.8747  154.2410 C   0  0  0  0  0  0  0  0  0  0  0  0
  147.6066  139.4154  155.1548 O   0  0  0  0  0  0  0  0  0  0  0  0
  149.7387  139.1020  154.0915 C   0  0  0  0  0  0  0  0  0  0  0  0
  150.2721  140.0154  155.1171 N   0  0  0  0  0  0  0  0  0  0  0  0
  151.1626  139.4716  156.0643 C   0  0  0  0  0  0  0  0  0  0  0  0
  151.7077  140.2187  157.0374 C   0  0  0  0  0  0  0  0  0  0  0  0
  151.3611  141.6188  157.0994 C   0  0  0  0  0  0  0  0  0  0  0  0
  150.5071  142.1493  156.2017 C   0  0  0  0  0  0  0  0  0  0  0  0
  149.9059  141.3361  155.1387 C   0  0  0  0  0  0  0  0  0  0  0  0
  149.1169  141.8116  154.3202 O   0  0  0  0  0  0  0  0  0  0  0  0
  146.2518  135.5232  152.2754 N   0  3  0  0  0  0  0  0  0  0  0  0
  146.2709  134.0681  152.5514 C   0  0  0  0  0  0  0  0  0  0  0  0
  146.0183  133.3943  151.2048 C   0  0  0  0  0  0  0  0  0  0  0  0
  145.0754  134.3702  150.5106 C   0  0  0  0  0  0  0  0  0  0  0  0
  145.5771  135.7409  150.9708 C   0  0  0  0  0  0  0  0  0  0  0  0
  142.3415  136.6746  153.1131 H   0  0  0  0  0  0  0  0  0  0  0  0
  143.4418  136.2200  151.8224 H   0  0  0  0  0  0  0  0  0  0  0  0
  143.5571  137.8193  152.5578 H   0  0  0  0  0  0  0  0  0  0  0  0
  144.1448  136.7318  154.7521 H   0  0  0  0  0  0  0  0  0  0  0  0
  144.1158  135.1697  153.9891 H   0  0  0  0  0  0  0  0  0  0  0  0
  146.4405  136.0566  154.2652 H   0  0  0  0  0  0  0  0  0  0  0  0
  145.8719  138.1886  152.1832 H   0  0  0  0  0  0  0  0  0  0  0  0
  145.7136  138.5148  153.8871 H   0  0  0  0  0  0  0  0  0  0  0  0
  148.2523  137.6686  152.6200 H   0  0  0  0  0  0  0  0  0  0  0  0
  150.2327  138.1303  154.1298 H   0  0  0  0  0  0  0  0  0  0  0  0
  149.9619  139.5024  153.1005 H   0  0  0  0  0  0  0  0  0  0  0  0
  151.3686  138.4169  155.9539 H   0  0  0  0  0  0  0  0  0  0  0  0
  152.3865  139.7836  157.7563 H   0  0  0  0  0  0  0  0  0  0  0  0
  151.7893  142.2442  157.8691 H   0  0  0  0  0  0  0  0  0  0  0  0
  150.2604  143.1992  156.2636 H   0  0  0  0  0  0  0  0  0  0  0  0
  147.2191  133.7642  152.9956 H   0  0  0  0  0  0  0  0  0  0  0  0
  145.4779  133.7943  153.2473 H   0  0  0  0  0  0  0  0  0  0  0  0
  146.9518  133.3179  150.6452 H   0  0  0  0  0  0  0  0  0  0  0  0
  145.5985  132.3929  151.3030 H   0  0  0  0  0  0  0  0  0  0  0  0
  145.0750  134.2618  149.4254 H   0  0  0  0  0  0  0  0  0  0  0  0
  144.0558  134.2114  150.8650 H   0  0  0  0  0  0  0  0  0  0  0  0
  144.7794  136.4819  150.9940 H   0  0  0  0  0  0  0  0  0  0  0  0
  146.3275  136.1063  150.2694 H   0  0  0  0  0  0  0  0  0  0  0  0
  147.2192  135.7592  152.1036 H   0  0  0  0  0  0  0  0  0  0  0  0
  1  2  1  0  0  0  0
  1 21  1  0  0  0  0
  1 22  1  0  0  0  0
  1 23  1  0  0  0  0
  2  3  1  0  0  0  0
  2 24  1  0  0  0  0
  2 25  1  0  0  0  0
  3  4  1  0  0  0  0
  3 16  1  0  0  0  0
  3 26  1  0  0  0  0
  4  5  1  0  0  0  0
  4 27  1  0  0  0  0
  4 28  1  0  0  0  0
  5  6  1  0  0  0  0
  5 29  1  0  0  0  0
  6  7  2  0  0  0  0
  6  8  1  0  0  0  0
  8  9  1  0  0  0  0
  8 30  1  0  0  0  0
  8 31  1  0  0  0  0
  9 14  1  0  0  0  0
  9 10  1  0  0  0  0
 10 11  2  0  0  0  0
 10 32  1  0  0  0  0
 11 12  1  0  0  0  0
 11 33  1  0  0  0  0
 12 13  2  0  0  0  0
 12 34  1  0  0  0  0
 13 14  1  0  0  0  0
 13 35  1  0  0  0  0
 14 15  2  0  0  0  0
 16 20  1  0  0  0  0
 16 17  1  0  0  0  0
 16 44  1  0  0  0  0
 17 18  1  0  0  0  0
 17 36  1  0  0  0  0
 17 37  1  0  0  0  0
 18 19  1  0  0  0  0
 18 38  1  0  0  0  0
 18 39  1  0  0  0  0
 19 20  1  0  0  0  0
 19 40  1  0  0  0  0
 19 41  1  0  0  0  0
 20 42  1  0  0  0  0
 20 43  1  0  0  0  0
M  CHG  1  16   1
M  END
> <s_m_source_file>
AV-unprocessed.smi

> <i_m_source_file_index>
1110

> <i_lp_mmshare_version>
43012

> <i_f3d_flags>
0

> <s_epik_input>
W0NIMl0xW0NIMl1bQ0gyXVtDSDJdTjFbQ0BIXShbQ0gyXVtDSDNdKVtDSDJdW05IXUMoPU8pW0NIMl1uMltjSF1bY0hdW2NIXVtjSF1jMj1P

> <s_epik_cmdline>
J2VwaWtfcHl0aG9uJywgJy1waCcsICc3LjAnLCAnLXRuJywgJzgnLCAnLW1hJywgJzIwMCcsICctbWV0YWxfYmluZGluZycsICctaW1hZScsICc8aW5maWxlLm1hZT4nLCAnLW9tYWUnLCAnPG91dGZpbGUubWFlPic=

> <r_lp_tautomer_probability>
1

> <r_epik_Ionization_Penalty>
0.00361135

> <r_epik_Ionization_Penalty_Charging>
0.00361127

> <r_epik_Ionization_Penalty_Neutral>
7.8489e-08

> <r_epik_State_Penalty>
0.00256751

> <r_epik_Charging_Adjusted_Penalty>
0.00617878

> <i_epik_Tot_Q>
1

> <i_epik_Tot_abs_Q>
1

> <r_epik_Metal_State_Penalty>
-0

> <b_epik_Metal_Only>
0

> <s_lp_Force_Field>
OPLS_2005

> <r_lp_Energy>
45.664

> <b_lp_Chiralities_Consistent>
1

> <s_lp_Variant>
AV-unprocessed.smi:1110-1

> <Gold.Version>
5.8.1

> <Gold.Id.Protein>
6NUR|6NUR_protein|mol2

> <Gold.PLP.Fitness>
42.7325

> <Gold.PLP.PLP>
-33.1971

> <Gold.PLP.part.hbond>
-3.6616

> <Gold.PLP.part.metal>
0.0000

> <Gold.PLP.part.buried>
-1.5538

> <Gold.PLP.part.nonpolar>
-26.6082

> <Gold.PLP.part.repulsive>
0.2720

> <Gold.PLP.ligand.clash>
0.0000

> <Gold.PLP.ligand.torsion>
0.3212

> <Gold.PLP.Chemscore.Hbond>
3.3245

> <Gold.PLP.Chemscore.CHOScore>
0.0000

> <Gold.PLP.Chemscore.Metal>
0.0000

> <Gold.Chemscore.Hbonds>
donor molecule, donor type, donor heavy atom, donor atom, acceptor molecule, acceptor atom, score
      L1  H     5    29       P1  7948  1.00
      L1  H    16    44       P1  7948  2.00
      P1  H  8011  8017       L1    15  0.29

> <Gold.PLP.Chemscore.Internal.Correction>
0.2044

> <Gold.Rescore>
     Score         DG    S(hbond)    S(metal)    S(lipo)     H(rot)  DE(clash)    DE(int)     intcor
     15.80     -16.48       2.47        0.00      67.08       1.99       0.17       0.50       ----

> <Gold.Chemscore.Fitness>
15.8043

> <Gold.Chemscore.DG>
-16.4772

> <Gold.Chemscore.ZeroCoef>
-5.4800

> <Gold.Chemscore.Hbond>
2.4674

> <Gold.Chemscore.Metal>
0.0000

> <Gold.Chemscore.Lipo>
67.0818

> <Gold.Chemscore.Internal_Hbond>
0.0000

> <Gold.Chemscore.DEClash>
0.1747

> <Gold.Chemscore.DEInternal>
0.4982

> <Gold.Chemscore.Rot>
1.9893

> <Gold.Chemscore.Internal.Correction>
   9.000000E+99

> <Gold.Chemscore.Hbonds>
donor molecule, donor type, donor heavy atom, donor atom, acceptor molecule, acceptor atom, score
      L1  H     5    29       P1  7948  0.96
      L1  H    16    44       P1  7948  1.00
      P1  H  8011  8017       L1    15  0.28

> <Gold.Chemscore.Hbond.Weighted>
-8.2413

> <Gold.Chemscore.Metal.Weighted>
-0.0000

> <Gold.Chemscore.Lipo.Weighted>
-7.8486

> <Gold.Chemscore.Internal_Hbond.Weighted>
0.0000

> <Gold.Chemscore.DEClash.Weighted>
0.1747

> <Gold.Chemscore.DEInternal.Weighted>
0.4982

> <Gold.Chemscore.Rot.Weighted>
5.0927

> <Gold.Chemscore.Internal.Correction.Weighted>
   9.000000E+99

> <Gold.Protein.RotatedTorsions>
[ 6907 6896 6895 6894 ] final  -36.66 input  -60.11 | X-H torsion
[ 7974 7965 7964 7962 ] final  104.23 input  175.53 | X-H torsion
[ 8008 7997 7996 7995 ] final  -91.35 input   59.86 | X-H torsion
[ 10167 10162 10161 10158 ] final  -59.66 input  -65.29 | X-H torsion
[ 10718 10713 10712 10709 ] final   72.45 input   66.30 | X-H torsion
[ 10763 10752 10751 10750 ] final  -67.45 input  -60.55 | X-H torsion
[ 11005 11000 10999 10996 ] final   51.71 input  -57.11 | X-H torsion

> <Gold.Protein.ActiveResidues>
 VAL166  LYS551  ARG553  GLY616  TRP617  ASP618  TYR619  PRO620  LYS621  CYS622 
 ASP623  PHE694  ASN695  SER759  ASP760  ASP761  ALA762  ILE779  LEU786  VAL792 
 PHE793  MET794  SER795  GLU796  ALA797  LYS798  CYS799  TRP800  GLU811  SER814 

> <Gold.Protein.RotatedAtoms>
  151.0243  134.9493  159.8076 H   0  0  0  0  0  0  0  0  0  0  0  0  # atno 6907 bound_to 6896
  152.5332  134.2862  159.9036 H   0  0  0  0  0  0  0  0  0  0  0  0  # atno 6908 bound_to 6896
  151.2870  133.4141  159.2664 H   0  0  0  0  0  0  0  0  0  0  0  0  # atno 6909 bound_to 6896
  145.3356  139.2475  143.3637 H   0  0  0  0  0  0  0  0  0  0  0  0  # atno 7974 bound_to 7965
  154.7096  140.0520  157.0537 H   0  0  0  0  0  0  0  0  0  0  0  0  # atno 8008 bound_to 7997
  155.0572  140.3185  155.4653 H   0  0  0  0  0  0  0  0  0  0  0  0  # atno 8009 bound_to 7997
  156.2785  140.2105  156.5699 H   0  0  0  0  0  0  0  0  0  0  0  0  # atno 8010 bound_to 7997
  140.6120  143.2390  151.5686 H   0  0  0  0  0  0  0  0  0  0  0  0  # atno 10167 bound_to 10162
  157.6501  130.9579  150.0930 H   0  0  0  0  0  0  0  0  0  0  0  0  # atno 10718 bound_to 10713
  154.3747  135.6087  153.5758 H   0  0  0  0  0  0  0  0  0  0  0  0  # atno 10763 bound_to 10752
  152.9789  135.5846  154.4481 H   0  0  0  0  0  0  0  0  0  0  0  0  # atno 10764 bound_to 10752
  154.4240  135.2846  155.1934 H   0  0  0  0  0  0  0  0  0  0  0  0  # atno 10765 bound_to 10752
  140.0909  134.5210  155.8853 H   0  0  0  0  0  0  0  0  0  0  0  0  # atno 11005 bound_to 11000
  146.3028  140.3942  142.8698 LP  0  0  0  0  0  0  0  0  0  0  0  0  # atno 17320 bound_to 7965
  144.8830  140.7426  143.5974 LP  0  0  0  0  0  0  0  0  0  0  0  0  # atno 17321 bound_to 7965
  139.5369  144.2756  152.1270 LP  0  0  0  0  0  0  0  0  0  0  0  0  # atno 17342 bound_to 10162
  140.1957  144.4707  150.6456 LP  0  0  0  0  0  0  0  0  0  0  0  0  # atno 17343 bound_to 10162
  156.1874  130.3653  149.8955 LP  0  0  0  0  0  0  0  0  0  0  0  0  # atno 17370 bound_to 10713
  156.6891  130.8889  151.3586 LP  0  0  0  0  0  0  0  0  0  0  0  0  # atno 17371 bound_to 10713
  141.2077  133.6667  156.6326 LP  0  0  0  0  0  0  0  0  0  0  0  0  # atno 17394 bound_to 11000
  140.3353  134.7894  157.4357 LP  0  0  0  0  0  0  0  0  0  0  0  0  # atno 17395 bound_to 11000

$$$$
