AV-unprocessed.smi:2928|AV-procd|sdf|11237|dock5
  -GOLD-   2272016133D 1   1.00000     0.00000
 Structure written by MMmdl.
 56 59  0  0  0  0  0  0  0  0  3 V2000
  149.5303  131.2632  158.9918 C   0  0  0  0  0  0  0  0  0  0  0  0
  149.1932  131.5921  157.5861 N   0  3  2  0  0  0  0  0  0  0  0  0
  148.6286  130.4671  156.8017 C   0  0  2  0  0  0  0  0  0  0  0  0
  149.7037  129.3891  156.5090 C   0  0  0  0  0  0  0  0  0  0  0  0
  151.0001  129.9449  155.8887 C   0  0  0  0  0  0  0  0  0  0  0  0
  151.4435  131.2702  156.5368 C   0  0  0  0  0  0  0  0  0  0  0  0
  150.2794  132.2524  156.8215 C   0  0  1  0  0  0  0  0  0  0  0  0
  149.6739  132.9201  155.5644 C   0  0  0  0  0  0  0  0  0  0  0  0
  148.8025  131.9792  154.6928 C   0  0  2  0  0  0  0  0  0  0  0  0
  147.9434  132.7625  153.8072 N   0  0  0  0  0  0  0  0  0  0  0  0
  147.1531  132.2552  152.8499 C   0  0  0  0  0  0  0  0  0  0  0  0
  147.0778  131.0536  152.5939 O   0  0  0  0  0  0  0  0  0  0  0  0
  146.4822  133.2243  152.2052 N   0  0  0  0  0  0  0  0  0  0  0  0
  145.5741  133.0806  151.1180 C   0  0  0  0  0  0  0  0  0  0  0  0
  145.8272  132.1578  150.0705 C   0  0  0  0  0  0  0  0  0  0  0  0
  144.8781  131.9790  149.0466 C   0  0  0  0  0  0  0  0  0  0  0  0
  143.6811  132.7137  149.0933 C   0  0  0  0  0  0  0  0  0  0  0  0
  143.4645  133.5751  150.1084 N   0  3  0  0  0  0  0  0  0  0  0  0
  144.3455  133.8032  151.1146 C   0  0  0  0  0  0  0  0  0  0  0  0
  143.9885  134.7480  152.1037 N   0  0  0  0  0  0  0  0  0  0  0  0
  142.5851  135.0264  152.3872 C   0  0  0  0  0  0  0  0  0  0  0  0
  142.5943  136.3140  153.2063 C   0  0  0  0  0  0  0  0  0  0  0  0
  143.7629  137.0824  152.5966 C   0  0  0  0  0  0  0  0  0  0  0  0
  144.7585  135.9837  152.2099 C   0  0  0  0  0  0  0  0  0  0  0  0
  147.9230  131.0376  155.5495 C   0  0  0  0  0  0  0  0  0  0  0  0
  150.3229  130.5193  159.0655 H   0  0  0  0  0  0  0  0  0  0  0  0
  148.6538  130.8738  159.5103 H   0  0  0  0  0  0  0  0  0  0  0  0
  149.8563  132.1573  159.5239 H   0  0  0  0  0  0  0  0  0  0  0  0
  147.8525  129.9950  157.4061 H   0  0  0  0  0  0  0  0  0  0  0  0
  149.9583  128.8854  157.4419 H   0  0  0  0  0  0  0  0  0  0  0  0
  149.2909  128.6114  155.8655 H   0  0  0  0  0  0  0  0  0  0  0  0
  151.7961  129.2068  155.9913 H   0  0  0  0  0  0  0  0  0  0  0  0
  150.8852  130.0687  154.8153 H   0  0  0  0  0  0  0  0  0  0  0  0
  151.9489  131.0421  157.4757 H   0  0  0  0  0  0  0  0  0  0  0  0
  152.1976  131.7517  155.9133 H   0  0  0  0  0  0  0  0  0  0  0  0
  150.6791  133.0586  157.4386 H   0  0  0  0  0  0  0  0  0  0  0  0
  149.0541  133.7525  155.9019 H   0  0  0  0  0  0  0  0  0  0  0  0
  150.4638  133.3679  154.9599 H   0  0  0  0  0  0  0  0  0  0  0  0
  149.4444  131.3705  154.0606 H   0  0  0  0  0  0  0  0  0  0  0  0
  147.9419  133.7629  153.9436 H   0  0  0  0  0  0  0  0  0  0  0  0
  146.7191  134.1741  152.4529 H   0  0  0  0  0  0  0  0  0  0  0  0
  146.7287  131.5641  150.0489 H   0  0  0  0  0  0  0  0  0  0  0  0
  145.0613  131.2782  148.2452 H   0  0  0  0  0  0  0  0  0  0  0  0
  142.8935  132.6370  148.3577 H   0  0  0  0  0  0  0  0  0  0  0  0
  142.0327  135.1871  151.4605 H   0  0  0  0  0  0  0  0  0  0  0  0
  142.1168  134.2047  152.9299 H   0  0  0  0  0  0  0  0  0  0  0  0
  141.6507  136.8579  153.1549 H   0  0  0  0  0  0  0  0  0  0  0  0
  142.8016  136.0905  154.2539 H   0  0  0  0  0  0  0  0  0  0  0  0
  143.4281  137.6070  151.7004 H   0  0  0  0  0  0  0  0  0  0  0  0
  144.1896  137.8197  153.2772 H   0  0  0  0  0  0  0  0  0  0  0  0
  145.5045  135.8652  152.9960 H   0  0  0  0  0  0  0  0  0  0  0  0
  145.2773  136.2278  151.2817 H   0  0  0  0  0  0  0  0  0  0  0  0
  147.5327  130.2267  154.9332 H   0  0  0  0  0  0  0  0  0  0  0  0
  147.0492  131.5941  155.8930 H   0  0  0  0  0  0  0  0  0  0  0  0
  148.4530  132.2758  157.6555 H   0  0  0  0  0  0  0  0  0  0  0  0
  142.5858  134.0933  150.1143 H   0  0  0  0  0  0  0  0  0  0  0  0
  1  2  1  0  0  0  0
  1 26  1  0  0  0  0
  1 27  1  0  0  0  0
  1 28  1  0  0  0  0
  2  7  1  0  0  0  0
  2  3  1  0  0  0  0
  2 55  1  0  0  0  0
  3 25  1  0  0  0  0
  3  4  1  0  0  0  0
  3 29  1  0  0  0  0
  4  5  1  0  0  0  0
  4 30  1  0  0  0  0
  4 31  1  0  0  0  0
  5  6  1  0  0  0  0
  5 32  1  0  0  0  0
  5 33  1  0  0  0  0
  6  7  1  0  0  0  0
  6 34  1  0  0  0  0
  6 35  1  0  0  0  0
  7  8  1  0  0  0  0
  7 36  1  0  0  0  0
  8  9  1  0  0  0  0
  8 37  1  0  0  0  0
  8 38  1  0  0  0  0
  9 10  1  0  0  0  0
  9 25  1  0  0  0  0
  9 39  1  0  0  0  0
 10 11  1  0  0  0  0
 10 40  1  0  0  0  0
 11 12  2  0  0  0  0
 11 13  1  0  0  0  0
 13 14  1  0  0  0  0
 13 41  1  0  0  0  0
 14 19  1  0  0  0  0
 14 15  2  0  0  0  0
 15 16  1  0  0  0  0
 15 42  1  0  0  0  0
 16 17  2  0  0  0  0
 16 43  1  0  0  0  0
 17 18  1  0  0  0  0
 17 44  1  0  0  0  0
 18 19  2  0  0  0  0
 18 56  1  0  0  0  0
 19 20  1  0  0  0  0
 20 24  1  0  0  0  0
 20 21  1  0  0  0  0
 21 22  1  0  0  0  0
 21 45  1  0  0  0  0
 21 46  1  0  0  0  0
 22 23  1  0  0  0  0
 22 47  1  0  0  0  0
 22 48  1  0  0  0  0
 23 24  1  0  0  0  0
 23 49  1  0  0  0  0
 23 50  1  0  0  0  0
 24 51  1  0  0  0  0
 24 52  1  0  0  0  0
 25 53  1  0  0  0  0
 25 54  1  0  0  0  0
M  CHG  1   2   1
M  CHG  1  18   1
M  END
> <s_m_source_file>
AV-unprocessed.smi

> <i_m_source_file_index>
2928

> <i_lp_mmshare_version>
43012

> <i_f3d_flags>
0

> <s_epik_input>
W0NIMl0xW0NIMl1bQ0gyXVtDQEhdKE4oW0NIM10pW0NIXTEyKVtDSDJdW0NASF0oW0NIMl0yKVtOSF1DKD1PKVtOSF1jM1tjSF1bY0hdW2NIXW5jM040W0NIMl1bQ0gyXVtDSDJdW0NIMl00

> <s_epik_cmdline>
J2VwaWtfcHl0aG9uJywgJy1waCcsICc3LjAnLCAnLXRuJywgJzgnLCAnLW1hJywgJzIwMCcsICctbWV0YWxfYmluZGluZycsICctaW1hZScsICc8aW5maWxlLm1hZT4nLCAnLW9tYWUnLCAnPG91dGZpbGUubWFlPic=

> <r_lp_tautomer_probability>
0.999994

> <r_epik_Ionization_Penalty>
1.2404

> <r_epik_Ionization_Penalty_Charging>
1.24038

> <r_epik_Ionization_Penalty_Neutral>
1.86539e-05

> <r_epik_State_Penalty>
1.30821

> <r_epik_Charging_Adjusted_Penalty>
2.54859

> <i_epik_Tot_Q>
2

> <i_epik_Tot_abs_Q>
2

> <r_epik_Metal_State_Penalty>
1.3782

> <b_epik_Metal_Only>
0

> <s_lp_Force_Field>
OPLS_2005

> <r_lp_Energy>
72.5254

> <b_lp_Chiralities_Consistent>
1

> <s_lp_Variant>
AV-unprocessed.smi:2928-7

> <Gold.Version>
5.8.1

> <Gold.Id.Protein>
6NUR|6NUR_protein|mol2

> <Gold.PLP.Fitness>
40.1677

> <Gold.PLP.PLP>
-35.2954

> <Gold.PLP.part.hbond>
-1.0000

> <Gold.PLP.part.metal>
0.0000

> <Gold.PLP.part.buried>
-5.5830

> <Gold.PLP.part.nonpolar>
-32.3671

> <Gold.PLP.part.repulsive>
3.7444

> <Gold.PLP.ligand.clash>
0.0000

> <Gold.PLP.ligand.torsion>
0.7532

> <Gold.PLP.Chemscore.Hbond>
2.0000

> <Gold.PLP.Chemscore.CHOScore>
0.0000

> <Gold.PLP.Chemscore.Metal>
0.0000

> <Gold.Chemscore.Hbonds>
donor molecule, donor type, donor heavy atom, donor atom, acceptor molecule, acceptor atom, score
      L1  H    18    56       P1 10186  2.00

> <Gold.PLP.Chemscore.Internal.Correction>
0.3787

> <Gold.Rescore>
     Score         DG    S(hbond)    S(metal)    S(lipo)     H(rot)  DE(clash)    DE(int)     intcor
     14.14     -17.37       0.99        0.00      99.29       1.19       1.55       1.67       ----

> <Gold.Chemscore.Fitness>
14.1429

> <Gold.Chemscore.DG>
-17.3662

> <Gold.Chemscore.ZeroCoef>
-5.4800

> <Gold.Chemscore.Hbond>
0.9910

> <Gold.Chemscore.Metal>
0.0000

> <Gold.Chemscore.Lipo>
99.2944

> <Gold.Chemscore.Internal_Hbond>
0.0000

> <Gold.Chemscore.DEClash>
1.5521

> <Gold.Chemscore.DEInternal>
1.6713

> <Gold.Chemscore.Rot>
1.1879

> <Gold.Chemscore.Internal.Correction>
   9.000000E+99

> <Gold.Chemscore.Hbonds>
donor molecule, donor type, donor heavy atom, donor atom, acceptor molecule, acceptor atom, score
      L1  H    18    56       P1 10186  0.95

> <Gold.Chemscore.Hbond.Weighted>
-3.3098

> <Gold.Chemscore.Metal.Weighted>
-0.0000

> <Gold.Chemscore.Lipo.Weighted>
-11.6174

> <Gold.Chemscore.Internal_Hbond.Weighted>
0.0000

> <Gold.Chemscore.DEClash.Weighted>
1.5521

> <Gold.Chemscore.DEInternal.Weighted>
1.6713

> <Gold.Chemscore.Rot.Weighted>
3.0410

> <Gold.Chemscore.Internal.Correction.Weighted>
   9.000000E+99

> <Gold.Protein.RotatedTorsions>
[ 6907 6896 6895 6894 ] final  148.54 input  -60.11 | X-H torsion
[ 7974 7965 7964 7962 ] final -158.23 input  175.53 | X-H torsion
[ 8008 7997 7996 7995 ] final  -13.57 input   59.86 | X-H torsion
[ 10167 10162 10161 10158 ] final  157.21 input  -65.29 | X-H torsion
[ 10718 10713 10712 10709 ] final -155.59 input   66.30 | X-H torsion
[ 10763 10752 10751 10750 ] final -172.52 input  -60.55 | X-H torsion
[ 11005 11000 10999 10996 ] final  -89.23 input  -57.11 | X-H torsion

> <Gold.Protein.ActiveResidues>
 VAL166  LYS551  ARG553  GLY616  TRP617  ASP618  TYR619  PRO620  LYS621  CYS622 
 ASP623  PHE694  ASN695  SER759  ASP760  ASP761  ALA762  ILE779  LEU786  VAL792 
 PHE793  MET794  SER795  GLU796  ALA797  LYS798  CYS799  TRP800  GLU811  SER814 

> <Gold.Protein.RotatedAtoms>
  152.1401  133.4459  159.4762 H   0  0  0  0  0  0  0  0  0  0  0  0  # atno 6907 bound_to 6896
  150.6885  134.2316  159.4446 H   0  0  0  0  0  0  0  0  0  0  0  0  # atno 6908 bound_to 6896
  152.0206  134.9824  160.0621 H   0  0  0  0  0  0  0  0  0  0  0  0  # atno 6909 bound_to 6896
  144.7514  140.3857  143.6045 H   0  0  0  0  0  0  0  0  0  0  0  0  # atno 7974 bound_to 7965
  154.5281  140.2246  155.8853 H   0  0  0  0  0  0  0  0  0  0  0  0  # atno 8008 bound_to 7997
  156.1735  140.3116  155.8980 H   0  0  0  0  0  0  0  0  0  0  0  0  # atno 8009 bound_to 7997
  155.3508  140.0455  157.3036 H   0  0  0  0  0  0  0  0  0  0  0  0  # atno 8010 bound_to 7997
  139.4822  144.4938  151.8269 H   0  0  0  0  0  0  0  0  0  0  0  0  # atno 10167 bound_to 10162
  156.5149  130.8452  151.2660 H   0  0  0  0  0  0  0  0  0  0  0  0  # atno 10718 bound_to 10713
  154.6184  135.2872  155.0354 H   0  0  0  0  0  0  0  0  0  0  0  0  # atno 10763 bound_to 10752
  154.1558  135.6496  153.4978 H   0  0  0  0  0  0  0  0  0  0  0  0  # atno 10764 bound_to 10752
  153.0225  135.5366  154.6964 H   0  0  0  0  0  0  0  0  0  0  0  0  # atno 10765 bound_to 10752
  141.1588  133.7617  156.9565 H   0  0  0  0  0  0  0  0  0  0  0  0  # atno 11005 bound_to 11000
  145.6930  139.1643  143.2636 LP  0  0  0  0  0  0  0  0  0  0  0  0  # atno 17320 bound_to 7965
  146.1469  140.6979  142.9340 LP  0  0  0  0  0  0  0  0  0  0  0  0  # atno 17321 bound_to 7965
  140.4425  144.1967  150.5892 LP  0  0  0  0  0  0  0  0  0  0  0  0  # atno 17342 bound_to 10162
  140.4668  143.2428  151.9144 LP  0  0  0  0  0  0  0  0  0  0  0  0  # atno 17343 bound_to 10162
  157.7445  130.9937  150.2681 LP  0  0  0  0  0  0  0  0  0  0  0  0  # atno 17370 bound_to 10713
  156.3205  130.3785  149.7580 LP  0  0  0  0  0  0  0  0  0  0  0  0  # atno 17371 bound_to 10713
  140.1222  134.9410  157.2219 LP  0  0  0  0  0  0  0  0  0  0  0  0  # atno 17394 bound_to 11000
  140.3058  134.3080  155.7278 LP  0  0  0  0  0  0  0  0  0  0  0  0  # atno 17395 bound_to 11000

$$$$
