AV-unprocessed.smi:2649|AV-procd|sdf|10289|dock5
  -GOLD-   2272014303D 1   1.00000     0.00000
 Structure written by MMmdl.
 34 35  0  0  0  0  0  0  0  0  1 V2000
  149.1163  145.0213  160.6171 C   0  0  0  0  0  0  0  0  0  0  0  0
  150.8232  145.2974  160.0695 S   0  0  0  0  0  0  0  0  0  0  0  0
  151.7548  144.6622  161.4964 C   0  0  0  0  0  0  0  0  0  0  0  0
  152.4477  143.3523  161.1562 C   0  0  0  0  0  0  0  0  0  0  0  0
  152.2422  142.8978  159.8999 N   0  0  0  0  0  0  0  0  0  0  0  0
  152.8107  141.7322  159.5063 C   0  0  0  0  0  0  0  0  0  0  0  0
  152.6487  141.1778  158.2091 N   0  0  0  0  0  0  0  0  0  0  0  0
  151.5559  141.1997  157.4216 C   0  0  0  0  0  0  0  0  0  0  0  0
  150.4880  141.7297  157.7319 O   0  0  0  0  0  0  0  0  0  0  0  0
  151.7110  140.5253  156.0502 C   0  0  2  0  0  0  0  0  0  0  0  0
  150.3585  140.1359  155.4090 C   0  0  0  0  0  0  0  0  0  0  0  0
  150.5975  139.4924  154.1639 O   0  0  0  0  0  0  0  0  0  0  0  0
  151.3789  138.3174  154.3295 C   0  0  0  0  0  0  0  0  0  0  0  0
  152.7284  138.6999  154.9590 C   0  0  0  0  0  0  0  0  0  0  0  0
  152.4938  139.3436  156.2047 O   0  0  0  0  0  0  0  0  0  0  0  0
  153.6239  140.9826  160.3839 C   0  0  0  0  0  0  0  0  0  0  0  0
  153.8477  141.4541  161.6915 C   0  0  0  0  0  0  0  0  0  0  0  0
  153.2513  142.6633  162.0929 C   0  0  0  0  0  0  0  0  0  0  0  0
  153.5161  143.2623  163.6923 Cl  0  0  0  0  0  0  0  0  0  0  0  0
  148.4219  145.2749  159.8161 H   0  0  0  0  0  0  0  0  0  0  0  0
  148.8813  145.6430  161.4806 H   0  0  0  0  0  0  0  0  0  0  0  0
  148.9662  143.9760  160.8874 H   0  0  0  0  0  0  0  0  0  0  0  0
  152.4832  145.4116  161.8094 H   0  0  0  0  0  0  0  0  0  0  0  0
  151.0750  144.5161  162.3358 H   0  0  0  0  0  0  0  0  0  0  0  0
  153.4554  140.7000  157.8344 H   0  0  0  0  0  0  0  0  0  0  0  0
  152.2386  141.2241  155.3985 H   0  0  0  0  0  0  0  0  0  0  0  0
  149.7831  139.4787  156.0639 H   0  0  0  0  0  0  0  0  0  0  0  0
  149.7490  141.0213  155.2246 H   0  0  0  0  0  0  0  0  0  0  0  0
  150.8482  137.5953  154.9520 H   0  0  0  0  0  0  0  0  0  0  0  0
  151.5328  137.8516  153.3560 H   0  0  0  0  0  0  0  0  0  0  0  0
  153.3346  137.8095  155.1264 H   0  0  0  0  0  0  0  0  0  0  0  0
  153.2956  139.3554  154.2964 H   0  0  0  0  0  0  0  0  0  0  0  0
  154.0750  140.0548  160.0628 H   0  0  0  0  0  0  0  0  0  0  0  0
  154.4688  140.8941  162.3751 H   0  0  0  0  0  0  0  0  0  0  0  0
  1  2  1  0  0  0  0
  1 20  1  0  0  0  0
  1 21  1  0  0  0  0
  1 22  1  0  0  0  0
  2  3  1  0  0  0  0
  3  4  1  0  0  0  0
  3 23  1  0  0  0  0
  3 24  1  0  0  0  0
  4 18  1  0  0  0  0
  4  5  2  0  0  0  0
  5  6  1  0  0  0  0
  6  7  1  0  0  0  0
  6 16  2  0  0  0  0
  7  8  1  0  0  0  0
  7 25  1  0  0  0  0
  8  9  2  0  0  0  0
  8 10  1  0  0  0  0
 10 15  1  0  0  0  0
 10 11  1  0  0  0  0
 10 26  1  0  0  0  0
 11 12  1  0  0  0  0
 11 27  1  0  0  0  0
 11 28  1  0  0  0  0
 12 13  1  0  0  0  0
 13 14  1  0  0  0  0
 13 29  1  0  0  0  0
 13 30  1  0  0  0  0
 14 15  1  0  0  0  0
 14 31  1  0  0  0  0
 14 32  1  0  0  0  0
 16 17  1  0  0  0  0
 16 33  1  0  0  0  0
 17 18  2  0  0  0  0
 17 34  1  0  0  0  0
 18 19  1  0  0  0  0
M  END
> <s_m_source_file>
AV-unprocessed.smi

> <i_m_source_file_index>
2649

> <i_lp_mmshare_version>
43012

> <i_f3d_flags>
0

> <s_epik_input>
W0NIM11TW0NIMl1jMW5jKFtjSF1bY0hdYzFDbClbTkhdQyg9TylbQ0BASF0yW0NIMl1PW0NIMl1bQ0gyXU8y

> <s_epik_cmdline>
J2VwaWtfcHl0aG9uJywgJy1waCcsICc3LjAnLCAnLXRuJywgJzgnLCAnLW1hJywgJzIwMCcsICctbWV0YWxfYmluZGluZycsICctaW1hZScsICc8aW5maWxlLm1hZT4nLCAnLW9tYWUnLCAnPG91dGZpbGUubWFlPic=

> <r_lp_tautomer_probability>
1

> <r_epik_Ionization_Penalty>
9.71596e-06

> <r_epik_Ionization_Penalty_Charging>
0

> <r_epik_Ionization_Penalty_Neutral>
9.71596e-06

> <r_epik_State_Penalty>
-0

> <r_epik_Charging_Adjusted_Penalty>
0

> <i_epik_Tot_Q>
0

> <i_epik_Tot_abs_Q>
0

> <r_epik_Metal_State_Penalty>
-0

> <b_epik_Metal_Only>
0

> <s_lp_Force_Field>
OPLS_2005

> <r_lp_Energy>
11.5794

> <b_lp_Chiralities_Consistent>
1

> <s_lp_Variant>
AV-unprocessed.smi:2649-1

> <Gold.Version>
5.8.1

> <Gold.Id.Protein>
6NUR|6NUR_protein|mol2

> <Gold.PLP.Fitness>
47.5200

> <Gold.PLP.PLP>
-44.8174

> <Gold.PLP.part.hbond>
-2.0000

> <Gold.PLP.part.metal>
0.0000

> <Gold.PLP.part.buried>
-3.0524

> <Gold.PLP.part.nonpolar>
-39.1374

> <Gold.PLP.part.repulsive>
0.3199

> <Gold.PLP.ligand.clash>
0.0000

> <Gold.PLP.ligand.torsion>
1.2002

> <Gold.PLP.Chemscore.Hbond>
1.7000

> <Gold.PLP.Chemscore.CHOScore>
0.0000

> <Gold.PLP.Chemscore.Metal>
0.0000

> <Gold.Chemscore.Hbonds>
donor molecule, donor type, donor heavy atom, donor atom, acceptor molecule, acceptor atom, score
      P1  H  7989  7998       L1    12  0.75
      P1  H  7997  8008       L1    15  0.95

> <Gold.PLP.Chemscore.Internal.Correction>
0.0031

> <Gold.Rescore>
     Score         DG    S(hbond)    S(metal)    S(lipo)     H(rot)  DE(clash)    DE(int)     intcor
     14.08     -17.21       0.53        0.00     114.59       1.34       1.50       1.64       ----

> <Gold.Chemscore.Fitness>
14.0792

> <Gold.Chemscore.DG>
-17.2107

> <Gold.Chemscore.ZeroCoef>
-5.4800

> <Gold.Chemscore.Hbond>
0.5260

> <Gold.Chemscore.Metal>
0.0000

> <Gold.Chemscore.Lipo>
114.5886

> <Gold.Chemscore.Internal_Hbond>
0.0000

> <Gold.Chemscore.DEClash>
1.4961

> <Gold.Chemscore.DEInternal>
1.6353

> <Gold.Chemscore.Rot>
1.3410

> <Gold.Chemscore.Internal.Correction>
   9.000000E+99

> <Gold.Chemscore.Hbonds>
donor molecule, donor type, donor heavy atom, donor atom, acceptor molecule, acceptor atom, score
      P1  H  7989  7998       L1    12  0.07
      P1  H  7997  8008       L1    15  0.07

> <Gold.Chemscore.Hbond.Weighted>
-1.7569

> <Gold.Chemscore.Metal.Weighted>
-0.0000

> <Gold.Chemscore.Lipo.Weighted>
-13.4069

> <Gold.Chemscore.Internal_Hbond.Weighted>
0.0000

> <Gold.Chemscore.DEClash.Weighted>
1.4961

> <Gold.Chemscore.DEInternal.Weighted>
1.6353

> <Gold.Chemscore.Rot.Weighted>
3.4331

> <Gold.Chemscore.Internal.Correction.Weighted>
   9.000000E+99

> <Gold.Protein.RotatedTorsions>
[ 6907 6896 6895 6894 ] final -148.53 input  -60.11 | X-H torsion
[ 7974 7965 7964 7962 ] final  -55.79 input  175.53 | X-H torsion
[ 8008 7997 7996 7995 ] final  -53.67 input   59.86 | X-H torsion
[ 10167 10162 10161 10158 ] final -144.21 input  -65.29 | X-H torsion
[ 10718 10713 10712 10709 ] final   92.50 input   66.30 | X-H torsion
[ 10763 10752 10751 10750 ] final  -40.65 input  -60.55 | X-H torsion
[ 11005 11000 10999 10996 ] final   45.82 input  -57.11 | X-H torsion

> <Gold.Protein.ActiveResidues>
 VAL166  LYS551  ARG553  GLY616  TRP617  ASP618  TYR619  PRO620  LYS621  CYS622 
 ASP623  PHE694  ASN695  SER759  ASP760  ASP761  ALA762  ILE779  LEU786  VAL792 
 PHE793  MET794  SER795  GLU796  ALA797  LYS798  CYS799  TRP800  GLU811  SER814 

> <Gold.Protein.RotatedAtoms>
  151.1712  133.4783  159.2593 H   0  0  0  0  0  0  0  0  0  0  0  0  # atno 6907 bound_to 6896
  151.1354  135.0152  159.8611 H   0  0  0  0  0  0  0  0  0  0  0  0  # atno 6908 bound_to 6896
  152.5461  134.1611  159.8611 H   0  0  0  0  0  0  0  0  0  0  0  0  # atno 6909 bound_to 6896
  145.8702  140.8222  142.9892 H   0  0  0  0  0  0  0  0  0  0  0  0  # atno 7974 bound_to 7965
  154.4140  140.1194  156.5192 H   0  0  0  0  0  0  0  0  0  0  0  0  # atno 8008 bound_to 7997
  155.6720  140.3496  155.4803 H   0  0  0  0  0  0  0  0  0  0  0  0  # atno 8009 bound_to 7997
  155.9624  140.1125  157.0873 H   0  0  0  0  0  0  0  0  0  0  0  0  # atno 8010 bound_to 7997
  139.7921  143.7952  152.2651 H   0  0  0  0  0  0  0  0  0  0  0  0  # atno 10167 bound_to 10162
  157.6958  131.0445  150.3891 H   0  0  0  0  0  0  0  0  0  0  0  0  # atno 10718 bound_to 10713
  153.9495  135.6752  153.4744 H   0  0  0  0  0  0  0  0  0  0  0  0  # atno 10763 bound_to 10752
  153.0891  135.4884  154.8652 H   0  0  0  0  0  0  0  0  0  0  0  0  # atno 10764 bound_to 10752
  154.7333  135.3143  154.8813 H   0  0  0  0  0  0  0  0  0  0  0  0  # atno 10765 bound_to 10752
  140.1425  134.4564  155.8439 H   0  0  0  0  0  0  0  0  0  0  0  0  # atno 11005 bound_to 11000
  144.6726  140.1227  143.7449 LP  0  0  0  0  0  0  0  0  0  0  0  0  # atno 17320 bound_to 7965
  145.9146  139.2508  143.1417 LP  0  0  0  0  0  0  0  0  0  0  0  0  # atno 17321 bound_to 7965
  139.8046  144.7360  150.9778 LP  0  0  0  0  0  0  0  0  0  0  0  0  # atno 17342 bound_to 10162
  140.7820  143.4310  151.0694 LP  0  0  0  0  0  0  0  0  0  0  0  0  # atno 17343 bound_to 10162
  156.4297  130.3969  149.6769 LP  0  0  0  0  0  0  0  0  0  0  0  0  # atno 17370 bound_to 10713
  156.3991  130.7665  151.2672 LP  0  0  0  0  0  0  0  0  0  0  0  0  # atno 17371 bound_to 10713
  141.2188  133.6839  156.7273 LP  0  0  0  0  0  0  0  0  0  0  0  0  # atno 17394 bound_to 11000
  140.2704  134.8396  157.3842 LP  0  0  0  0  0  0  0  0  0  0  0  0  # atno 17395 bound_to 11000

$$$$
