AV-unprocessed.smi:234|AV-procd|sdf|1788|dock4
  -GOLD-   2262020343D 1   1.00000     0.00000
 Structure written by MMmdl.
 59 62  0  0  0  0  0  0  0  0  1 V2000
  153.0981  141.6391  159.4813 C   0  0  0  0  0  0  0  0  0  0  0  0
  152.0081  140.6474  159.0531 C   0  0  0  0  0  0  0  0  0  0  0  0
  151.8825  140.5973  157.6388 O   0  0  0  0  0  0  0  0  0  0  0  0
  150.7804  141.3353  157.1193 C   0  0  1  0  0  0  0  0  0  0  0  0
  150.8145  141.4126  155.5902 C   0  0  0  0  0  0  0  0  0  0  0  0
  150.0231  140.0968  155.5971 C   0  0  2  0  0  0  0  0  0  0  0  0
  148.9962  140.0085  154.5528 N   0  0  0  0  0  0  0  0  0  0  0  0
  148.3967  141.2534  154.0850 C   0  0  0  0  0  0  0  0  0  0  0  0
  148.0691  139.0242  154.6625 C   0  0  0  0  0  0  0  0  0  0  0  0
  147.7948  138.4740  155.8756 N   0  0  0  0  0  0  0  0  0  0  0  0
  146.8681  137.5179  155.9863 C   0  0  0  0  0  0  0  0  0  0  0  0
  146.1097  136.9761  155.0313 N   0  0  0  0  0  0  0  0  0  0  0  0
  146.3798  137.5257  153.8127 C   0  0  0  0  0  0  0  0  0  0  0  0
  147.3317  138.5489  153.5433 C   0  0  0  0  0  0  0  0  0  0  0  0
  147.3277  138.8565  152.1883 N   0  0  0  0  0  0  0  0  0  0  0  0
  146.4220  138.0628  151.6855 C   0  0  0  0  0  0  0  0  0  0  0  0
  145.8099  137.2223  152.5883 N   0  0  0  0  0  0  0  0  0  0  0  0
  144.7760  136.2401  152.2979 C   0  0  0  0  0  0  0  0  0  0  0  0
  145.1970  135.1959  151.2303 C   0  0  1  0  0  0  0  0  0  0  0  0
  145.2926  135.8614  149.9816 O   0  0  0  0  0  0  0  0  0  0  0  0
  146.5459  134.5400  151.5124 C   0  0  0  0  0  0  0  0  0  0  0  0
  146.4091  133.1776  150.8508 C   0  0  0  0  0  0  0  0  0  0  0  0
  145.0746  132.8220  151.1645 O   0  0  0  0  0  0  0  0  0  0  0  0
  144.2486  133.9774  151.0437 C   0  0  1  0  0  0  0  0  0  0  0  0
  143.0991  133.8333  152.0532 C   0  0  0  0  0  0  0  0  0  0  0  0
  149.4927  140.4797  157.0078 C   0  0  0  0  0  0  0  0  0  0  0  0
  149.3596  139.3449  158.0278 C   0  0  0  0  0  0  0  0  0  0  0  0
  148.1920  141.2970  157.0827 C   0  0  0  0  0  0  0  0  0  0  0  0
  153.1303  141.7318  160.5669 H   0  0  0  0  0  0  0  0  0  0  0  0
  152.9073  142.6299  159.0687 H   0  0  0  0  0  0  0  0  0  0  0  0
  154.0874  141.3235  159.1510 H   0  0  0  0  0  0  0  0  0  0  0  0
  152.1926  139.6569  159.4707 H   0  0  0  0  0  0  0  0  0  0  0  0
  151.0515  140.9805  159.4558 H   0  0  0  0  0  0  0  0  0  0  0  0
  150.6183  142.2940  157.6130 H   0  0  0  0  0  0  0  0  0  0  0  0
  150.2558  142.2629  155.1955 H   0  0  0  0  0  0  0  0  0  0  0  0
  151.8059  141.3424  155.1422 H   0  0  0  0  0  0  0  0  0  0  0  0
  150.6860  139.2300  155.6325 H   0  0  0  0  0  0  0  0  0  0  0  0
  147.4332  141.4332  154.5645 H   0  0  0  0  0  0  0  0  0  0  0  0
  148.2427  141.2199  153.0065 H   0  0  0  0  0  0  0  0  0  0  0  0
  149.0345  142.1087  154.3007 H   0  0  0  0  0  0  0  0  0  0  0  0
  146.7112  137.1327  156.9831 H   0  0  0  0  0  0  0  0  0  0  0  0
  146.1778  138.0635  150.6328 H   0  0  0  0  0  0  0  0  0  0  0  0
  144.5134  135.7476  153.2344 H   0  0  0  0  0  0  0  0  0  0  0  0
  143.8846  136.7774  151.9712 H   0  0  0  0  0  0  0  0  0  0  0  0
  145.4108  135.2119  149.3056 H   0  0  0  0  0  0  0  0  0  0  0  0
  147.4017  135.1118  151.1507 H   0  0  0  0  0  0  0  0  0  0  0  0
  146.6744  134.3915  152.5851 H   0  0  0  0  0  0  0  0  0  0  0  0
  146.5302  133.2491  149.7689 H   0  0  0  0  0  0  0  0  0  0  0  0
  147.1216  132.4472  151.2341 H   0  0  0  0  0  0  0  0  0  0  0  0
  143.8239  133.9765  150.0378 H   0  0  0  0  0  0  0  0  0  0  0  0
  142.4152  134.6804  152.0026 H   0  0  0  0  0  0  0  0  0  0  0  0
  143.4711  133.7530  153.0749 H   0  0  0  0  0  0  0  0  0  0  0  0
  142.5185  132.9341  151.8464 H   0  0  0  0  0  0  0  0  0  0  0  0
  148.4383  138.7789  157.8921 H   0  0  0  0  0  0  0  0  0  0  0  0
  149.3592  139.7284  159.0486 H   0  0  0  0  0  0  0  0  0  0  0  0
  150.1828  138.6343  157.9500 H   0  0  0  0  0  0  0  0  0  0  0  0
  147.3142  140.6823  156.8821 H   0  0  0  0  0  0  0  0  0  0  0  0
  148.1793  142.1159  156.3628 H   0  0  0  0  0  0  0  0  0  0  0  0
  148.0588  141.7386  158.0709 H   0  0  0  0  0  0  0  0  0  0  0  0
  1  2  1  0  0  0  0
  1 29  1  0  0  0  0
  1 30  1  0  0  0  0
  1 31  1  0  0  0  0
  2  3  1  0  0  0  0
  2 32  1  0  0  0  0
  2 33  1  0  0  0  0
  3  4  1  0  0  0  0
  4 26  1  0  0  0  0
  4  5  1  0  0  0  0
  4 34  1  0  0  0  0
  5  6  1  0  0  0  0
  5 35  1  0  0  0  0
  5 36  1  0  0  0  0
  6  7  1  0  0  0  0
  6 26  1  0  0  0  0
  6 37  1  0  0  0  0
  7  8  1  0  0  0  0
  7  9  1  0  0  0  0
  8 38  1  0  0  0  0
  8 39  1  0  0  0  0
  8 40  1  0  0  0  0
  9 14  1  0  0  0  0
  9 10  2  0  0  0  0
 10 11  1  0  0  0  0
 11 12  2  0  0  0  0
 11 41  1  0  0  0  0
 12 13  1  0  0  0  0
 13 17  1  0  0  0  0
 13 14  2  0  0  0  0
 14 15  1  0  0  0  0
 15 16  2  0  0  0  0
 16 17  1  0  0  0  0
 16 42  1  0  0  0  0
 17 18  1  0  0  0  0
 18 19  1  0  0  0  0
 18 43  1  0  0  0  0
 18 44  1  0  0  0  0
 19 24  1  0  0  0  0
 19 20  1  0  0  0  0
 19 21  1  0  0  0  0
 20 45  1  0  0  0  0
 21 22  1  0  0  0  0
 21 46  1  0  0  0  0
 21 47  1  0  0  0  0
 22 23  1  0  0  0  0
 22 48  1  0  0  0  0
 22 49  1  0  0  0  0
 23 24  1  0  0  0  0
 24 25  1  0  0  0  0
 24 50  1  0  0  0  0
 25 51  1  0  0  0  0
 25 52  1  0  0  0  0
 25 53  1  0  0  0  0
 26 27  1  0  0  0  0
 26 28  1  0  0  0  0
 27 54  1  0  0  0  0
 27 55  1  0  0  0  0
 27 56  1  0  0  0  0
 28 57  1  0  0  0  0
 28 58  1  0  0  0  0
 28 59  1  0  0  0  0
M  END
> <s_m_source_file>
AV-unprocessed.smi

> <i_m_source_file_index>
234

> <i_lp_mmshare_version>
43012

> <i_f3d_flags>
0

> <s_epik_input>
W0NIM11bQ0gyXU9bQ0BASF0oQzEoW0NIM10pW0NIM10pW0NIMl1bQ0BIXTFOKFtDSDNdKWMobltjSF1uMiljKGMyMyluW2NIXW4zW0NIMl1bQ0BAXTQoW09IXSlbQ0gyXVtDSDJdT1tDQEhdNFtDSDNd

> <s_epik_cmdline>
J2VwaWtfcHl0aG9uJywgJy1waCcsICc3LjAnLCAnLXRuJywgJzgnLCAnLW1hJywgJzIwMCcsICctbWV0YWxfYmluZGluZycsICctaW1hZScsICc8aW5maWxlLm1hZT4nLCAnLW9tYWUnLCAnPG91dGZpbGUubWFlPic=

> <r_lp_tautomer_probability>
1

> <r_epik_Ionization_Penalty>
0.00349132

> <r_epik_Ionization_Penalty_Charging>
0

> <r_epik_Ionization_Penalty_Neutral>
0.00349132

> <r_epik_State_Penalty>
0.00242418

> <r_epik_Charging_Adjusted_Penalty>
0.00242418

> <i_epik_Tot_Q>
0

> <i_epik_Tot_abs_Q>
0

> <r_epik_Metal_State_Penalty>
-0

> <b_epik_Metal_Only>
0

> <s_lp_Force_Field>
OPLS_2005

> <r_lp_Energy>
49.5598

> <b_lp_Chiralities_Consistent>
1

> <s_lp_Variant>
AV-unprocessed.smi:234-4

> <Gold.Version>
5.8.1

> <Gold.Id.Protein>
6NUR|6NUR_protein|mol2

> <Gold.PLP.Fitness>
42.7948

> <Gold.PLP.PLP>
-38.4206

> <Gold.PLP.part.hbond>
-2.0000

> <Gold.PLP.part.metal>
0.0000

> <Gold.PLP.part.buried>
-4.9850

> <Gold.PLP.part.nonpolar>
-32.6447

> <Gold.PLP.part.repulsive>
1.9596

> <Gold.PLP.ligand.clash>
0.0000

> <Gold.PLP.ligand.torsion>
1.2032

> <Gold.PLP.Chemscore.Hbond>
1.0000

> <Gold.PLP.Chemscore.CHOScore>
0.9396

> <Gold.PLP.Chemscore.Metal>
0.0000

> <Gold.Chemscore.Hbonds>
donor molecule, donor type, donor heavy atom, donor atom, acceptor molecule, acceptor atom, score
      L1  H    20    45       P1  7921  0.93
      L1  C    16    42       P1 10171  0.85

> <Gold.PLP.Chemscore.Internal.Correction>
0.9617

> <Gold.Rescore>
     Score         DG    S(hbond)    S(metal)    S(lipo)     H(rot)  DE(clash)    DE(int)     intcor
      6.81     -12.08       0.94        0.00      86.85       2.62       0.49       4.78       ----

> <Gold.Chemscore.Fitness>
6.8110

> <Gold.Chemscore.DG>
-12.0780

> <Gold.Chemscore.ZeroCoef>
-5.4800

> <Gold.Chemscore.Hbond>
0.9427

> <Gold.Chemscore.Metal>
0.0000

> <Gold.Chemscore.Lipo>
86.8513

> <Gold.Chemscore.Internal_Hbond>
0.0000

> <Gold.Chemscore.DEClash>
0.4870

> <Gold.Chemscore.DEInternal>
4.7801

> <Gold.Chemscore.Rot>
2.6219

> <Gold.Chemscore.Internal.Correction>
   9.000000E+99

> <Gold.Chemscore.Hbonds>
donor molecule, donor type, donor heavy atom, donor atom, acceptor molecule, acceptor atom, score
      L1  H    20    45       P1  7921  0.90

> <Gold.Chemscore.Hbond.Weighted>
-3.1486

> <Gold.Chemscore.Metal.Weighted>
-0.0000

> <Gold.Chemscore.Lipo.Weighted>
-10.1616

> <Gold.Chemscore.Internal_Hbond.Weighted>
0.0000

> <Gold.Chemscore.DEClash.Weighted>
0.4870

> <Gold.Chemscore.DEInternal.Weighted>
4.7801

> <Gold.Chemscore.Rot.Weighted>
6.7121

> <Gold.Chemscore.Internal.Correction.Weighted>
   9.000000E+99

> <Gold.Protein.RotatedTorsions>
[ 6907 6896 6895 6894 ] final  101.28 input  -60.11 | X-H torsion
[ 7974 7965 7964 7962 ] final  -55.99 input  175.53 | X-H torsion
[ 8008 7997 7996 7995 ] final   70.35 input   59.86 | X-H torsion
[ 10167 10162 10161 10158 ] final -113.46 input  -65.29 | X-H torsion
[ 10718 10713 10712 10709 ] final -132.60 input   66.30 | X-H torsion
[ 10763 10752 10751 10750 ] final  -49.94 input  -60.55 | X-H torsion
[ 11005 11000 10999 10996 ] final  -78.32 input  -57.11 | X-H torsion

> <Gold.Protein.ActiveResidues>
 VAL166  LYS551  ARG553  GLY616  TRP617  ASP618  TYR619  PRO620  LYS621  CYS622 
 ASP623  PHE694  ASN695  SER759  ASP760  ASP761  ALA762  ILE779  LEU786  VAL792 
 PHE793  MET794  SER795  GLU796  ALA797  LYS798  CYS799  TRP800  GLU811  SER814 

> <Gold.Protein.RotatedAtoms>
  152.5353  134.0150  159.7955 H   0  0  0  0  0  0  0  0  0  0  0  0  # atno 6907 bound_to 6896
  151.0346  133.5752  159.2664 H   0  0  0  0  0  0  0  0  0  0  0  0  # atno 6908 bound_to 6896
  151.2744  135.0702  159.9200 H   0  0  0  0  0  0  0  0  0  0  0  0  # atno 6909 bound_to 6896
  145.8678  140.8238  142.9904 H   0  0  0  0  0  0  0  0  0  0  0  0  # atno 7974 bound_to 7965
  155.7374  140.3491  155.5088 H   0  0  0  0  0  0  0  0  0  0  0  0  # atno 8008 bound_to 7997
  155.9126  140.1053  157.1289 H   0  0  0  0  0  0  0  0  0  0  0  0  # atno 8009 bound_to 7997
  154.4058  140.1265  156.4563 H   0  0  0  0  0  0  0  0  0  0  0  0  # atno 8010 bound_to 7997
  140.1116  143.4522  152.1749 H   0  0  0  0  0  0  0  0  0  0  0  0  # atno 10167 bound_to 10162
  156.2363  130.7068  151.0911 H   0  0  0  0  0  0  0  0  0  0  0  0  # atno 10718 bound_to 10713
  154.1022  135.6561  153.4870 H   0  0  0  0  0  0  0  0  0  0  0  0  # atno 10763 bound_to 10752
  153.0285  135.5228  154.7275 H   0  0  0  0  0  0  0  0  0  0  0  0  # atno 10764 bound_to 10752
  154.6430  135.2991  155.0049 H   0  0  0  0  0  0  0  0  0  0  0  0  # atno 10765 bound_to 10752
  141.1664  133.7058  156.7954 H   0  0  0  0  0  0  0  0  0  0  0  0  # atno 11005 bound_to 11000
  144.6726  140.1192  143.7451 LP  0  0  0  0  0  0  0  0  0  0  0  0  # atno 17320 bound_to 7965
  145.9173  139.2524  143.1402 LP  0  0  0  0  0  0  0  0  0  0  0  0  # atno 17321 bound_to 7965
  139.5616  144.7409  151.4139 LP  0  0  0  0  0  0  0  0  0  0  0  0  # atno 17342 bound_to 10162
  140.6922  143.7834  150.7273 LP  0  0  0  0  0  0  0  0  0  0  0  0  # atno 17343 bound_to 10162
  157.7156  131.0711  150.6341 LP  0  0  0  0  0  0  0  0  0  0  0  0  # atno 17370 bound_to 10713
  156.6411  130.4458  149.5752 LP  0  0  0  0  0  0  0  0  0  0  0  0  # atno 17371 bound_to 10713
  140.2295  134.8696  157.3462 LP  0  0  0  0  0  0  0  0  0  0  0  0  # atno 17394 bound_to 11000
  140.1905  134.4377  155.7718 LP  0  0  0  0  0  0  0  0  0  0  0  0  # atno 17395 bound_to 11000

$$$$
