AV-unprocessed.smi:39|AV-procd|sdf|351|dock7
  -GOLD-   2262016193D 1   1.00000     0.00000
 Structure written by MMmdl.
 32 33  0  0  0  0  0  0  0  0  3 V2000
  152.8532  142.7415  160.1969 C   0  0  0  0  0  0  0  0  0  0  0  0
  151.9861  142.4579  158.9815 C   0  0  0  0  0  0  0  0  0  0  0  0
  151.7834  141.2011  158.5099 C   0  0  0  0  0  0  0  0  0  0  0  0
  150.9979  140.9104  157.4023 N   0  0  0  0  0  0  0  0  0  0  0  0
  150.8128  139.4902  156.9146 C   0  0  1  0  0  0  0  0  0  0  0  0
  151.5453  139.2809  155.5861 C   0  0  0  0  0  0  0  0  0  0  0  0
  152.8104  138.5702  156.0316 C   0  0  2  0  0  0  0  0  0  0  0  0
  153.4019  137.7462  154.9752 N   0  0  0  0  0  0  0  0  0  0  0  0
  154.4221  138.1930  154.4343 N   0  3  0  0  0  0  0  0  0  0  0  0
  155.3428  138.7071  154.0063 N   0  5  0  0  0  0  0  0  0  0  0  0
  152.2890  137.7353  157.2042 C   0  0  1  0  0  0  0  0  0  0  0  0
  153.3870  137.3096  158.1914 C   0  0  0  0  0  0  0  0  0  0  0  0
  152.8061  136.7984  159.3719 O   0  0  0  0  0  0  0  0  0  0  0  0
  151.3694  138.6130  157.8489 O   0  0  0  0  0  0  0  0  0  0  0  0
  150.3867  141.9660  156.6939 C   0  0  0  0  0  0  0  0  0  0  0  0
  149.7061  141.7899  155.6842 O   0  0  0  0  0  0  0  0  0  0  0  0
  150.5891  143.2559  157.1815 N   0  0  0  0  0  0  0  0  0  0  0  0
  151.3551  143.5917  158.3003 C   0  0  0  0  0  0  0  0  0  0  0  0
  151.4560  144.7707  158.6358 O   0  0  0  0  0  0  0  0  0  0  0  0
  149.7385  139.3081  156.8552 H   0  0  0  0  0  0  0  0  0  0  0  0
  153.5271  139.3045  156.4051 H   0  0  0  0  0  0  0  0  0  0  0  0
  151.7453  136.8689  156.8213 H   0  0  0  0  0  0  0  0  0  0  0  0
  150.1472  144.0131  156.6810 H   0  0  0  0  0  0  0  0  0  0  0  0
  153.2777  141.8277  160.6136 H   0  0  0  0  0  0  0  0  0  0  0  0
  152.2660  143.2241  160.9791 H   0  0  0  0  0  0  0  0  0  0  0  0
  153.6789  143.4021  159.9306 H   0  0  0  0  0  0  0  0  0  0  0  0
  152.2679  140.3874  159.0287 H   0  0  0  0  0  0  0  0  0  0  0  0
  150.9343  138.6348  154.9540 H   0  0  0  0  0  0  0  0  0  0  0  0
  151.7269  140.2188  155.0597 H   0  0  0  0  0  0  0  0  0  0  0  0
  153.9948  136.5149  157.7576 H   0  0  0  0  0  0  0  0  0  0  0  0
  154.0562  138.1383  158.4240 H   0  0  0  0  0  0  0  0  0  0  0  0
  153.0284  137.3719  160.0894 H   0  0  0  0  0  0  0  0  0  0  0  0
  1  2  1  0  0  0  0
  1 24  1  0  0  0  0
  1 25  1  0  0  0  0
  1 26  1  0  0  0  0
  2 18  1  0  0  0  0
  2  3  2  0  0  0  0
  3  4  1  0  0  0  0
  3 27  1  0  0  0  0
  4  5  1  0  0  0  0
  4 15  1  0  0  0  0
  5 20  1  0  0  0  0
  5 14  1  0  0  0  0
  5  6  1  0  0  0  0
  6  7  1  0  0  0  0
  6 28  1  0  0  0  0
  6 29  1  0  0  0  0
  7 21  1  0  0  0  0
  7  8  1  0  0  0  0
  7 11  1  0  0  0  0
  8  9  2  0  0  0  0
  9 10  2  0  0  0  0
 11 22  1  0  0  0  0
 11 12  1  0  0  0  0
 11 14  1  0  0  0  0
 12 13  1  0  0  0  0
 12 30  1  0  0  0  0
 12 31  1  0  0  0  0
 13 32  1  0  0  0  0
 15 16  2  0  0  0  0
 15 17  1  0  0  0  0
 17 23  1  0  0  0  0
 17 18  1  0  0  0  0
 18 19  2  0  0  0  0
M  CHG  1   9   1
M  CHG  1  10  -1
M  END
> <s_m_source_file>
AV-unprocessed.smi

> <i_m_source_file_index>
39

> <i_lp_mmshare_version>
43012

> <i_f3d_flags>
0

> <s_epik_input>
Tz1jMVtuSF1jKD1PKW4oW2NIXWMxW0NIM10pW0NASF0yW0NIMl1bQ0BIXShOPVtOK109W04tXSlbQ0BIXShPMilbQ0gyXVtPSF0=

> <s_epik_cmdline>
J2VwaWtfcHl0aG9uJywgJy1waCcsICc3LjAnLCAnLXRuJywgJzgnLCAnLW1hJywgJzIwMCcsICctbWV0YWxfYmluZGluZycsICctaW1hZScsICc8aW5maWxlLm1hZT4nLCAnLW9tYWUnLCAnPG91dGZpbGUubWFlPic=

> <r_lp_tautomer_probability>
0.999537

> <r_epik_Ionization_Penalty>
0.00127512

> <r_epik_Ionization_Penalty_Charging>
0.00127507

> <r_epik_Ionization_Penalty_Neutral>
5.43433e-08

> <r_epik_State_Penalty>
0.000844892

> <r_epik_Charging_Adjusted_Penalty>
0.00211996

> <i_epik_Tot_Q>
0

> <i_epik_Tot_abs_Q>
2

> <r_epik_Metal_State_Penalty>
0.680636

> <b_epik_Metal_Only>
0

> <s_epik_Chemistry_Notes>
This compound contains an acetal/aminal-like group ( X-CH(R)-Y where X, Y are N, S, or O) that may be acid/base labile, releasing an aldehyde.

> <s_lp_Force_Field>
OPLS_2005

> <r_lp_Energy>
24.0553

> <b_lp_Chiralities_Consistent>
1

> <s_lp_Variant>
AV-unprocessed.smi:39-1

> <Gold.Version>
5.8.1

> <Gold.Id.Protein>
6NUR|6NUR_protein|mol2

> <Gold.PLP.Fitness>
37.4882

> <Gold.PLP.PLP>
-30.7298

> <Gold.PLP.part.hbond>
-6.0000

> <Gold.PLP.part.metal>
0.0000

> <Gold.PLP.part.buried>
-6.8253

> <Gold.PLP.part.nonpolar>
-19.9655

> <Gold.PLP.part.repulsive>
0.8019

> <Gold.PLP.ligand.clash>
0.0000

> <Gold.PLP.ligand.torsion>
0.4386

> <Gold.PLP.Chemscore.Hbond>
2.5345

> <Gold.PLP.Chemscore.CHOScore>
0.0000

> <Gold.PLP.Chemscore.Metal>
0.0000

> <Gold.Chemscore.Hbonds>
donor molecule, donor type, donor heavy atom, donor atom, acceptor molecule, acceptor atom, score
      L1  H    17    23       P1  8028  1.00
      P1  H  6896  6909       L1    13  0.70
      P1  H  7997  8009       L1    10  0.53
      P1  H 10752 10764       L1     8  0.06

> <Gold.PLP.Chemscore.Internal.Correction>
0.0321

> <Gold.Rescore>
     Score         DG    S(hbond)    S(metal)    S(lipo)     H(rot)  DE(clash)    DE(int)     intcor
     10.16     -11.89       2.43        0.00      45.73       2.75       0.99       0.74       ----

> <Gold.Chemscore.Fitness>
10.1560

> <Gold.Chemscore.DG>
-11.8880

> <Gold.Chemscore.ZeroCoef>
-5.4800

> <Gold.Chemscore.Hbond>
2.4264

> <Gold.Chemscore.Metal>
0.0000

> <Gold.Chemscore.Lipo>
45.7255

> <Gold.Chemscore.Internal_Hbond>
0.0000

> <Gold.Chemscore.DEClash>
0.9910

> <Gold.Chemscore.DEInternal>
0.7410

> <Gold.Chemscore.Rot>
2.7524

> <Gold.Chemscore.Internal.Correction>
   9.000000E+99

> <Gold.Chemscore.Hbonds>
donor molecule, donor type, donor heavy atom, donor atom, acceptor molecule, acceptor atom, score
      L1  H    17    23       P1  8028  0.98
      P1  H  6896  6909       L1    13  0.56
      P1  H  7997  8009       L1    10  0.06
      P1  H 10752 10764       L1     8  0.06

> <Gold.Chemscore.Hbond.Weighted>
-8.1043

> <Gold.Chemscore.Metal.Weighted>
-0.0000

> <Gold.Chemscore.Lipo.Weighted>
-5.3499

> <Gold.Chemscore.Internal_Hbond.Weighted>
0.0000

> <Gold.Chemscore.DEClash.Weighted>
0.9910

> <Gold.Chemscore.DEInternal.Weighted>
0.7410

> <Gold.Chemscore.Rot.Weighted>
7.0461

> <Gold.Chemscore.Internal.Correction.Weighted>
   9.000000E+99

> <Gold.Protein.RotatedTorsions>
[ 6907 6896 6895 6894 ] final  122.18 input  -60.11 | X-H torsion
[ 7974 7965 7964 7962 ] final  162.35 input  175.53 | X-H torsion
[ 8008 7997 7996 7995 ] final  -74.36 input   59.86 | X-H torsion
[ 10167 10162 10161 10158 ] final   28.32 input  -65.29 | X-H torsion
[ 10718 10713 10712 10709 ] final -153.82 input   66.30 | X-H torsion
[ 10763 10752 10751 10750 ] final  -58.89 input  -60.55 | X-H torsion
[ 11005 11000 10999 10996 ] final   98.85 input  -57.11 | X-H torsion

> <Gold.Protein.ActiveResidues>
 VAL166  LYS551  ARG553  GLY616  TRP617  ASP618  TYR619  PRO620  LYS621  CYS622 
 ASP623  PHE694  ASN695  SER759  ASP760  ASP761  ALA762  ILE779  LEU786  VAL792 
 PHE793  MET794  SER795  GLU796  ALA797  LYS798  CYS799  TRP800  GLU811  SER814 

> <Gold.Protein.RotatedAtoms>
  152.4263  133.7201  159.6528 H   0  0  0  0  0  0  0  0  0  0  0  0  # atno 6907 bound_to 6896
  150.8140  133.8360  159.3175 H   0  0  0  0  0  0  0  0  0  0  0  0  # atno 6908 bound_to 6896
  151.6062  135.1046  160.0122 H   0  0  0  0  0  0  0  0  0  0  0  0  # atno 6909 bound_to 6896
  144.7641  139.8027  143.6322 H   0  0  0  0  0  0  0  0  0  0  0  0  # atno 7974 bound_to 7965
  154.5325  140.0763  156.8369 H   0  0  0  0  0  0  0  0  0  0  0  0  # atno 8008 bound_to 7997
  155.3346  140.3404  155.4221 H   0  0  0  0  0  0  0  0  0  0  0  0  # atno 8009 bound_to 7997
  156.1795  140.1647  156.8287 H   0  0  0  0  0  0  0  0  0  0  0  0  # atno 8010 bound_to 7997
  140.4863  144.0537  150.6282 H   0  0  0  0  0  0  0  0  0  0  0  0  # atno 10167 bound_to 10162
  156.4910  130.8347  151.2570 H   0  0  0  0  0  0  0  0  0  0  0  0  # atno 10718 bound_to 10713
  154.2452  135.6336  153.5221 H   0  0  0  0  0  0  0  0  0  0  0  0  # atno 10763 bound_to 10752
  152.9922  135.5551  154.5868 H   0  0  0  0  0  0  0  0  0  0  0  0  # atno 10764 bound_to 10752
  154.5382  135.2893  155.1094 H   0  0  0  0  0  0  0  0  0  0  0  0  # atno 10765 bound_to 10752
  139.8771  134.9068  156.4517 H   0  0  0  0  0  0  0  0  0  0  0  0  # atno 11005 bound_to 11000
  146.1732  139.4891  142.9914 LP  0  0  0  0  0  0  0  0  0  0  0  0  # atno 17320 bound_to 7965
  145.6526  141.0259  143.1752 LP  0  0  0  0  0  0  0  0  0  0  0  0  # atno 17321 bound_to 7965
  140.3794  143.2811  152.0188 LP  0  0  0  0  0  0  0  0  0  0  0  0  # atno 17342 bound_to 10162
  139.4842  144.6167  151.7333 LP  0  0  0  0  0  0  0  0  0  0  0  0  # atno 17343 bound_to 10162
  157.7474  131.0013  150.2960 LP  0  0  0  0  0  0  0  0  0  0  0  0  # atno 17370 bound_to 10713
  156.3427  130.3818  149.7395 LP  0  0  0  0  0  0  0  0  0  0  0  0  # atno 17371 bound_to 10713
  140.8927  133.7837  155.9590 LP  0  0  0  0  0  0  0  0  0  0  0  0  # atno 17394 bound_to 11000
  140.8736  134.2696  157.5178 LP  0  0  0  0  0  0  0  0  0  0  0  0  # atno 17395 bound_to 11000

$$$$
