AV-unprocessed.smi:1602|AV-procd|sdf|6440|dock8
  -GOLD-   22720 7 83D 1   1.00000     0.00000
 Structure written by MMmdl.
 36 37  0  0  0  0  0  0  0  0  1 V2000
  149.1862  141.2659  155.7000 C   0  0  0  0  0  0  0  0  0  0  0  0
  150.3658  141.7300  156.5635 C   0  0  1  0  0  0  0  0  0  0  0  0
  149.9197  142.6675  157.7024 C   0  0  0  0  0  0  0  0  0  0  0  0
  151.0192  143.4408  158.2509 N   0  0  0  0  0  0  0  0  0  0  0  0
  151.1289  144.8105  158.3700 C   0  0  0  0  0  0  0  0  0  0  0  0
  152.3348  145.0716  158.9550 C   0  0  0  0  0  0  0  0  0  0  0  0
  152.8986  143.7806  159.1571 C   0  0  0  0  0  0  0  0  0  0  0  0
  152.1103  142.8067  158.7315 N   0  0  0  0  0  0  0  0  0  0  0  0
  151.0478  140.5553  157.1122 N   0  0  0  0  0  0  0  0  0  0  0  0
  151.5988  139.3134  156.0503 S   0  0  0  0  0  0  0  0  0  0  0  0
  151.1549  139.6346  154.6853 O   0  0  0  0  0  0  0  0  0  0  0  0
  153.0174  139.0566  156.3414 O   0  0  0  0  0  0  0  0  0  0  0  0
  150.6559  137.9904  156.6465 N   0  0  0  0  0  0  0  0  0  0  0  0
  150.9045  136.6596  156.0632 C   0  0  0  0  0  0  0  0  0  0  0  0
  149.8377  135.6495  156.5154 C   0  0  0  0  0  0  0  0  0  0  0  0
  149.7598  135.6230  157.9321 O   0  0  0  0  0  0  0  0  0  0  0  0
  149.3628  136.8823  158.4525 C   0  0  0  0  0  0  0  0  0  0  0  0
  150.4046  137.9552  158.0963 C   0  0  0  0  0  0  0  0  0  0  0  0
  148.6754  142.1155  155.2461 H   0  0  0  0  0  0  0  0  0  0  0  0
  148.4542  140.7134  156.2901 H   0  0  0  0  0  0  0  0  0  0  0  0
  149.5237  140.6155  154.8922 H   0  0  0  0  0  0  0  0  0  0  0  0
  151.0606  142.2670  155.9155 H   0  0  0  0  0  0  0  0  0  0  0  0
  149.1631  143.3648  157.3398 H   0  0  0  0  0  0  0  0  0  0  0  0
  149.4553  142.0982  158.5090 H   0  0  0  0  0  0  0  0  0  0  0  0
  150.3466  145.4768  158.0378 H   0  0  0  0  0  0  0  0  0  0  0  0
  152.7501  146.0369  159.2031 H   0  0  0  0  0  0  0  0  0  0  0  0
  153.8510  143.5242  159.5969 H   0  0  0  0  0  0  0  0  0  0  0  0
  151.7133  140.7715  157.8535 H   0  0  0  0  0  0  0  0  0  0  0  0
  150.9146  136.7213  154.9754 H   0  0  0  0  0  0  0  0  0  0  0  0
  151.8936  136.3195  156.3720 H   0  0  0  0  0  0  0  0  0  0  0  0
  148.8640  135.8975  156.0897 H   0  0  0  0  0  0  0  0  0  0  0  0
  150.0936  134.6519  156.1578 H   0  0  0  0  0  0  0  0  0  0  0  0
  148.3790  137.1545  158.0667 H   0  0  0  0  0  0  0  0  0  0  0  0
  149.2656  136.8018  159.5353 H   0  0  0  0  0  0  0  0  0  0  0  0
  151.3443  137.7526  158.6115 H   0  0  0  0  0  0  0  0  0  0  0  0
  150.0575  138.9315  158.4345 H   0  0  0  0  0  0  0  0  0  0  0  0
  1  2  1  0  0  0  0
  1 19  1  0  0  0  0
  1 20  1  0  0  0  0
  1 21  1  0  0  0  0
  2  3  1  0  0  0  0
  2  9  1  0  0  0  0
  2 22  1  0  0  0  0
  3  4  1  0  0  0  0
  3 23  1  0  0  0  0
  3 24  1  0  0  0  0
  4  8  1  0  0  0  0
  4  5  1  0  0  0  0
  5  6  2  0  0  0  0
  5 25  1  0  0  0  0
  6  7  1  0  0  0  0
  6 26  1  0  0  0  0
  7  8  2  0  0  0  0
  7 27  1  0  0  0  0
  9 10  1  0  0  0  0
  9 28  1  0  0  0  0
 10 11  2  0  0  0  0
 10 12  2  0  0  0  0
 10 13  1  0  0  0  0
 13 18  1  0  0  0  0
 13 14  1  0  0  0  0
 14 15  1  0  0  0  0
 14 29  1  0  0  0  0
 14 30  1  0  0  0  0
 15 16  1  0  0  0  0
 15 31  1  0  0  0  0
 15 32  1  0  0  0  0
 16 17  1  0  0  0  0
 17 18  1  0  0  0  0
 17 33  1  0  0  0  0
 17 34  1  0  0  0  0
 18 35  1  0  0  0  0
 18 36  1  0  0  0  0
M  END
> <s_m_source_file>
AV-unprocessed.smi

> <i_m_source_file_index>
1602

> <i_lp_mmshare_version>
43012

> <i_f3d_flags>
0

> <s_epik_input>
bjFbY0hdW2NIXVtjSF1uMVtDSDJdW0NAQEhdKFtDSDNdKVtOSF1TKD1PKSg9TylOMltDSDJdW0NIMl1PW0NIMl1bQ0gyXTI=

> <s_epik_cmdline>
J2VwaWtfcHl0aG9uJywgJy1waCcsICc3LjAnLCAnLXRuJywgJzgnLCAnLW1hJywgJzIwMCcsICctbWV0YWxfYmluZGluZycsICctaW1hZScsICc8aW5maWxlLm1hZT4nLCAnLW9tYWUnLCAnPG91dGZpbGUubWFlPic=

> <r_lp_tautomer_probability>
1

> <r_epik_Ionization_Penalty>
0.114248

> <r_epik_Ionization_Penalty_Charging>
0

> <r_epik_Ionization_Penalty_Neutral>
0.114248

> <r_epik_State_Penalty>
0.103909

> <r_epik_Charging_Adjusted_Penalty>
0.103909

> <i_epik_Tot_Q>
0

> <i_epik_Tot_abs_Q>
0

> <r_epik_Metal_State_Penalty>
0.436178

> <b_epik_Metal_Only>
0

> <s_lp_Force_Field>
OPLS_2005

> <r_lp_Energy>
8.02202

> <b_lp_Chiralities_Consistent>
1

> <s_lp_Variant>
AV-unprocessed.smi:1602-2

> <Gold.Version>
5.8.1

> <Gold.Id.Protein>
6NUR|6NUR_protein|mol2

> <Gold.PLP.Fitness>
41.9464

> <Gold.PLP.PLP>
-31.0712

> <Gold.PLP.part.hbond>
-3.0000

> <Gold.PLP.part.metal>
0.0000

> <Gold.PLP.part.buried>
-6.0117

> <Gold.PLP.part.nonpolar>
-23.4014

> <Gold.PLP.part.repulsive>
0.0735

> <Gold.PLP.ligand.clash>
0.0000

> <Gold.PLP.ligand.torsion>
0.7665

> <Gold.PLP.Chemscore.Hbond>
2.8800

> <Gold.PLP.Chemscore.CHOScore>
1.0100

> <Gold.PLP.Chemscore.Metal>
0.0000

> <Gold.Chemscore.Hbonds>
donor molecule, donor type, donor heavy atom, donor atom, acceptor molecule, acceptor atom, score
      P1  H  6896  6909       L1    16  0.75
      P1  H  7989  7998       L1    11  1.00
      P1  H  7997  8008       L1    12  1.00
      L1  C     5    25       P1  8028  0.04
      L1  C     5    25       P1  8029  0.69

> <Gold.PLP.Chemscore.Internal.Correction>
0.7382

> <Gold.Rescore>
     Score         DG    S(hbond)    S(metal)    S(lipo)     H(rot)  DE(clash)    DE(int)     intcor
     16.43     -18.69       2.94        0.00      72.05       1.97       0.01       2.25       ----

> <Gold.Chemscore.Fitness>
16.4328

> <Gold.Chemscore.DG>
-18.6870

> <Gold.Chemscore.ZeroCoef>
-5.4800

> <Gold.Chemscore.Hbond>
2.9368

> <Gold.Chemscore.Metal>
0.0000

> <Gold.Chemscore.Lipo>
72.0467

> <Gold.Chemscore.Internal_Hbond>
0.0000

> <Gold.Chemscore.DEClash>
0.0086

> <Gold.Chemscore.DEInternal>
2.2456

> <Gold.Chemscore.Rot>
1.9654

> <Gold.Chemscore.Internal.Correction>
   9.000000E+99

> <Gold.Chemscore.Hbonds>
donor molecule, donor type, donor heavy atom, donor atom, acceptor molecule, acceptor atom, score
      P1  H  6896  6909       L1    16  0.46
      P1  H  7989  7998       L1    11  1.00
      P1  H  7997  8008       L1    12  1.00

> <Gold.Chemscore.Hbond.Weighted>
-9.8090

> <Gold.Chemscore.Metal.Weighted>
-0.0000

> <Gold.Chemscore.Lipo.Weighted>
-8.4295

> <Gold.Chemscore.Internal_Hbond.Weighted>
0.0000

> <Gold.Chemscore.DEClash.Weighted>
0.0086

> <Gold.Chemscore.DEInternal.Weighted>
2.2456

> <Gold.Chemscore.Rot.Weighted>
5.0315

> <Gold.Chemscore.Internal.Correction.Weighted>
   9.000000E+99

> <Gold.Protein.RotatedTorsions>
[ 6907 6896 6895 6894 ] final   45.83 input  -60.11 | X-H torsion
[ 7974 7965 7964 7962 ] final -126.72 input  175.53 | X-H torsion
[ 8008 7997 7996 7995 ] final  -54.26 input   59.86 | X-H torsion
[ 10167 10162 10161 10158 ] final  130.60 input  -65.29 | X-H torsion
[ 10718 10713 10712 10709 ] final  -35.48 input   66.30 | X-H torsion
[ 10763 10752 10751 10750 ] final  -87.47 input  -60.55 | X-H torsion
[ 11005 11000 10999 10996 ] final  128.03 input  -57.11 | X-H torsion

> <Gold.Protein.ActiveResidues>
 VAL166  LYS551  ARG553  GLY616  TRP617  ASP618  TYR619  PRO620  LYS621  CYS622 
 ASP623  PHE694  ASN695  SER759  ASP760  ASP761  ALA762  ILE779  LEU786  VAL792 
 PHE793  MET794  SER795  GLU796  ALA797  LYS798  CYS799  TRP800  GLU811  SER814 

> <Gold.Protein.RotatedAtoms>
  152.2492  134.8150  160.0448 H   0  0  0  0  0  0  0  0  0  0  0  0  # atno 6907 bound_to 6896
  151.8836  133.3495  159.3783 H   0  0  0  0  0  0  0  0  0  0  0  0  # atno 6908 bound_to 6896
  150.7078  134.4920  159.5564 H   0  0  0  0  0  0  0  0  0  0  0  0  # atno 6909 bound_to 6896
  144.9843  140.7671  143.4593 H   0  0  0  0  0  0  0  0  0  0  0  0  # atno 7974 bound_to 7965
  154.4157  140.1180  156.5286 H   0  0  0  0  0  0  0  0  0  0  0  0  # atno 8008 bound_to 7997
  155.6629  140.3496  155.4770 H   0  0  0  0  0  0  0  0  0  0  0  0  # atno 8009 bound_to 7997
  155.9698  140.1139  157.0812 H   0  0  0  0  0  0  0  0  0  0  0  0  # atno 8010 bound_to 7997
  139.5422  144.6741  151.4587 H   0  0  0  0  0  0  0  0  0  0  0  0  # atno 10167 bound_to 10162
  156.3381  130.4289  149.7811 H   0  0  0  0  0  0  0  0  0  0  0  0  # atno 10718 bound_to 10713
  154.6340  135.5412  153.7713 H   0  0  0  0  0  0  0  0  0  0  0  0  # atno 10763 bound_to 10752
  153.0299  135.6443  154.1259 H   0  0  0  0  0  0  0  0  0  0  0  0  # atno 10764 bound_to 10752
  154.1187  135.2922  155.3193 H   0  0  0  0  0  0  0  0  0  0  0  0  # atno 10765 bound_to 10752
  139.9539  134.9617  156.8942 H   0  0  0  0  0  0  0  0  0  0  0  0  # atno 11005 bound_to 11000
  145.2375  139.2087  143.5010 LP  0  0  0  0  0  0  0  0  0  0  0  0  # atno 17320 bound_to 7965
  146.3416  140.2265  142.8592 LP  0  0  0  0  0  0  0  0  0  0  0  0  # atno 17321 bound_to 7965
  140.6657  143.8403  150.6939 LP  0  0  0  0  0  0  0  0  0  0  0  0  # atno 17342 bound_to 10162
  140.1812  143.4114  152.1932 LP  0  0  0  0  0  0  0  0  0  0  0  0  # atno 17343 bound_to 10162
  156.5058  130.8149  151.3150 LP  0  0  0  0  0  0  0  0  0  0  0  0  # atno 17370 bound_to 10713
  157.7442  130.9930  150.2656 LP  0  0  0  0  0  0  0  0  0  0  0  0  # atno 17371 bound_to 10713
  140.5655  134.0494  155.7413 LP  0  0  0  0  0  0  0  0  0  0  0  0  # atno 17394 bound_to 11000
  141.1207  133.9466  157.2735 LP  0  0  0  0  0  0  0  0  0  0  0  0  # atno 17395 bound_to 11000

$$$$
