AV-unprocessed.smi:101|AV-procd|sdf|939|dock4
  -GOLD-   2262017453D 1   1.00000     0.00000
 Structure written by MMmdl.
 43 45  0  0  0  0  0  0  0  0  2 V2000
  147.9655  136.8189  159.3590 C   0  0  0  0  0  0  0  0  0  0  0  0
  148.8018  136.5854  158.1132 C   0  0  0  0  0  0  0  0  0  0  0  0
  149.1943  137.5973  157.3077 C   0  0  0  0  0  0  0  0  0  0  0  0
  149.9577  137.3775  156.1747 N   0  0  0  0  0  0  0  0  0  0  0  0
  150.3779  138.5299  155.2882 C   0  0  2  0  0  0  0  0  0  0  0  0
  150.6785  139.6272  156.0899 O   0  0  0  0  0  0  0  0  0  0  0  0
  150.4522  140.8044  155.3358 C   0  0  2  0  0  0  0  0  0  0  0  0
  150.2965  141.9956  156.2889 C   0  0  0  0  0  0  0  0  0  0  0  0
  151.0631  141.7720  157.4610 O   0  0  0  0  0  0  0  0  0  0  0  0
  151.0926  142.7029  158.4341 C   0  0  0  0  0  0  0  0  0  0  0  0
  150.3881  143.7146  158.4316 O   0  0  0  0  0  0  0  0  0  0  0  0
  152.0646  142.3799  159.5185 C   0  0  0  0  0  0  0  0  0  0  0  0
  152.8613  141.2161  159.4101 C   0  0  0  0  0  0  0  0  0  0  0  0
  153.7905  140.8861  160.4158 C   0  0  0  0  0  0  0  0  0  0  0  0
  153.9338  141.7157  161.5431 C   0  0  0  0  0  0  0  0  0  0  0  0
  153.1461  142.8755  161.6637 C   0  0  0  0  0  0  0  0  0  0  0  0
  152.2162  143.2072  160.6588 C   0  0  0  0  0  0  0  0  0  0  0  0
  149.1966  140.4806  154.5170 C   0  0  1  0  0  0  0  0  0  0  0  0
  149.2271  141.1746  153.2850 O   0  0  0  0  0  0  0  0  0  0  0  0
  149.2850  138.9717  154.2877 C   0  0  2  0  0  0  0  0  0  0  0  0
  148.0231  138.3645  154.5004 O   0  0  0  0  0  0  0  0  0  0  0  0
  150.3200  136.0541  155.8158 C   0  0  0  0  0  0  0  0  0  0  0  0
  150.9595  135.8924  154.7762 O   0  0  0  0  0  0  0  0  0  0  0  0
  149.9354  135.0271  156.6259 N   0  5  0  0  0  0  0  0  0  0  0  0
  149.2006  135.2171  157.7599 C   0  0  0  0  0  0  0  0  0  0  0  0
  148.8644  134.2816  158.4852 O   0  0  0  0  0  0  0  0  0  0  0  0
  147.7427  137.8775  159.4941 H   0  0  0  0  0  0  0  0  0  0  0  0
  148.4978  136.4701  160.2446 H   0  0  0  0  0  0  0  0  0  0  0  0
  147.0199  136.2803  159.2900 H   0  0  0  0  0  0  0  0  0  0  0  0
  148.8948  138.6046  157.5565 H   0  0  0  0  0  0  0  0  0  0  0  0
  151.3026  138.2234  154.7958 H   0  0  0  0  0  0  0  0  0  0  0  0
  151.3175  140.9440  154.6844 H   0  0  0  0  0  0  0  0  0  0  0  0
  150.6048  142.9187  155.7956 H   0  0  0  0  0  0  0  0  0  0  0  0
  149.2490  142.1099  156.5700 H   0  0  0  0  0  0  0  0  0  0  0  0
  152.7694  140.5639  158.5535 H   0  0  0  0  0  0  0  0  0  0  0  0
  154.3939  139.9952  160.3212 H   0  0  0  0  0  0  0  0  0  0  0  0
  154.6468  141.4627  162.3141 H   0  0  0  0  0  0  0  0  0  0  0  0
  153.2548  143.5126  162.5289 H   0  0  0  0  0  0  0  0  0  0  0  0
  151.6267  144.1038  160.7830 H   0  0  0  0  0  0  0  0  0  0  0  0
  148.2983  140.7408  155.0797 H   0  0  0  0  0  0  0  0  0  0  0  0
  149.1906  140.5419  152.5841 H   0  0  0  0  0  0  0  0  0  0  0  0
  149.6351  138.7254  153.2844 H   0  0  0  0  0  0  0  0  0  0  0  0
  147.3738  138.8550  154.0189 H   0  0  0  0  0  0  0  0  0  0  0  0
  1  2  1  0  0  0  0
  1 27  1  0  0  0  0
  1 28  1  0  0  0  0
  1 29  1  0  0  0  0
  2 25  1  0  0  0  0
  2  3  2  0  0  0  0
  3  4  1  0  0  0  0
  3 30  1  0  0  0  0
  4  5  1  0  0  0  0
  4 22  1  0  0  0  0
  5 20  1  0  0  0  0
  5  6  1  0  0  0  0
  5 31  1  0  0  0  0
  6  7  1  0  0  0  0
  7  8  1  0  0  0  0
  7 18  1  0  0  0  0
  7 32  1  0  0  0  0
  8  9  1  0  0  0  0
  8 33  1  0  0  0  0
  8 34  1  0  0  0  0
  9 10  1  0  0  0  0
 10 11  2  0  0  0  0
 10 12  1  0  0  0  0
 12 17  1  0  0  0  0
 12 13  2  0  0  0  0
 13 14  1  0  0  0  0
 13 35  1  0  0  0  0
 14 15  2  0  0  0  0
 14 36  1  0  0  0  0
 15 16  1  0  0  0  0
 15 37  1  0  0  0  0
 16 17  2  0  0  0  0
 16 38  1  0  0  0  0
 17 39  1  0  0  0  0
 18 19  1  0  0  0  0
 18 20  1  0  0  0  0
 18 40  1  0  0  0  0
 19 41  1  0  0  0  0
 20 21  1  0  0  0  0
 20 42  1  0  0  0  0
 21 43  1  0  0  0  0
 22 23  2  0  0  0  0
 22 24  1  0  0  0  0
 24 25  1  0  0  0  0
 25 26  2  0  0  0  0
M  CHG  1  24  -1
M  END
> <s_m_source_file>
AV-unprocessed.smi

> <i_m_source_file_index>
101

> <i_lp_mmshare_version>
43012

> <i_f3d_flags>
0

> <s_epik_input>
Tz1jMVtuSF1jKD1PKW4oW2NIXWMxW0NIM10pW0NAQEhdMk9bQ0BIXShbQ0BASF0oW09IXSlbQ0BIXTJbT0hdKVtDSDJdT0MoPU8pYzNbY0hdW2NIXVtjSF1bY0hdW2NIXTM=

> <s_epik_cmdline>
J2VwaWtfcHl0aG9uJywgJy1waCcsICc3LjAnLCAnLXRuJywgJzgnLCAnLW1hJywgJzIwMCcsICctbWV0YWxfYmluZGluZycsICctaW1hZScsICc8aW5maWxlLm1hZT4nLCAnLW9tYWUnLCAnPG91dGZpbGUubWFlPic=

> <r_lp_tautomer_probability>
0.999537

> <r_epik_Ionization_Penalty>
3.21006

> <r_epik_Ionization_Penalty_Charging>
5.75142e-08

> <r_epik_Ionization_Penalty_Neutral>
3.21006

> <r_epik_State_Penalty>
3.20925

> <r_epik_Charging_Adjusted_Penalty>
3.20925

> <i_epik_Tot_Q>
-1

> <i_epik_Tot_abs_Q>
1

> <r_epik_Metal_State_Penalty>
0.119957

> <b_epik_Metal_Only>
1

> <s_epik_Chemistry_Notes>
This compound has an ester and may undergo hydrolysis at high or low pH. This compound contains an acetal/aminal-like group ( X-CH(R)-Y where X, Y are N, S, or O) that may be acid/base labile, releasing an aldehyde.

> <s_lp_Force_Field>
OPLS_2005

> <r_lp_Energy>
44.2535

> <b_lp_Chiralities_Consistent>
1

> <s_lp_Variant>
AV-unprocessed.smi:101-27

> <Gold.Version>
5.8.1

> <Gold.Id.Protein>
6NUR|6NUR_protein|mol2

> <Gold.PLP.Fitness>
50.9085

> <Gold.PLP.PLP>
-42.3706

> <Gold.PLP.part.hbond>
-4.6961

> <Gold.PLP.part.metal>
0.0000

> <Gold.PLP.part.buried>
-4.9106

> <Gold.PLP.part.nonpolar>
-32.8726

> <Gold.PLP.part.repulsive>
0.3887

> <Gold.PLP.ligand.clash>
0.0000

> <Gold.PLP.ligand.torsion>
1.1091

> <Gold.PLP.Chemscore.Hbond>
3.5018

> <Gold.PLP.Chemscore.CHOScore>
0.0000

> <Gold.PLP.Chemscore.Metal>
0.0000

> <Gold.Chemscore.Hbonds>
donor molecule, donor type, donor heavy atom, donor atom, acceptor molecule, acceptor atom, score
      L1  H    19    41       P1  7957  1.00
      P1  H  6896  6907       L1    26  0.75
      P1  H  8011  8017       L1    19  0.75
      P1  H 10752 10765       L1    23  1.00

> <Gold.PLP.Chemscore.Internal.Correction>
0.2507

> <Gold.Rescore>
     Score         DG    S(hbond)    S(metal)    S(lipo)     H(rot)  DE(clash)    DE(int)     intcor
     16.06     -17.50       2.63        0.00      99.00       3.27       0.41       1.03       ----

> <Gold.Chemscore.Fitness>
16.0584

> <Gold.Chemscore.DG>
-17.4987

> <Gold.Chemscore.ZeroCoef>
-5.4800

> <Gold.Chemscore.Hbond>
2.6332

> <Gold.Chemscore.Metal>
0.0000

> <Gold.Chemscore.Lipo>
99.0046

> <Gold.Chemscore.Internal_Hbond>
0.0000

> <Gold.Chemscore.DEClash>
0.4109

> <Gold.Chemscore.DEInternal>
1.0293

> <Gold.Chemscore.Rot>
3.2656

> <Gold.Chemscore.Internal.Correction>
   9.000000E+99

> <Gold.Chemscore.Hbonds>
donor molecule, donor type, donor heavy atom, donor atom, acceptor molecule, acceptor atom, score
      L1  H    19    41       P1  7957  0.92
      P1  H  6896  6907       L1    26  0.09
      P1  H  8011  8017       L1    19  0.09
      P1  H 10752 10765       L1    23  0.96

> <Gold.Chemscore.Hbond.Weighted>
-8.7950

> <Gold.Chemscore.Metal.Weighted>
-0.0000

> <Gold.Chemscore.Lipo.Weighted>
-11.5835

> <Gold.Chemscore.Internal_Hbond.Weighted>
0.0000

> <Gold.Chemscore.DEClash.Weighted>
0.4109

> <Gold.Chemscore.DEInternal.Weighted>
1.0293

> <Gold.Chemscore.Rot.Weighted>
8.3598

> <Gold.Chemscore.Internal.Correction.Weighted>
   9.000000E+99

> <Gold.Protein.RotatedTorsions>
[ 6907 6896 6895 6894 ] final -101.06 input  -60.11 | X-H torsion
[ 7974 7965 7964 7962 ] final   90.84 input  175.53 | X-H torsion
[ 8008 7997 7996 7995 ] final  135.27 input   59.86 | X-H torsion
[ 10167 10162 10161 10158 ] final   79.11 input  -65.29 | X-H torsion
[ 10718 10713 10712 10709 ] final  -62.63 input   66.30 | X-H torsion
[ 10763 10752 10751 10750 ] final  178.19 input  -60.55 | X-H torsion
[ 11005 11000 10999 10996 ] final   -8.68 input  -57.11 | X-H torsion

> <Gold.Protein.ActiveResidues>
 VAL166  LYS551  ARG553  GLY616  TRP617  ASP618  TYR619  PRO620  LYS621  CYS622 
 ASP623  PHE694  ASN695  SER759  ASP760  ASP761  ALA762  ILE779  LEU786  VAL792 
 PHE793  MET794  SER795  GLU796  ALA797  LYS798  CYS799  TRP800  GLU811  SER814 

> <Gold.Protein.RotatedAtoms>
  150.7140  134.0791  159.3891 H   0  0  0  0  0  0  0  0  0  0  0  0  # atno 6907 bound_to 6896
  151.8775  135.0464  160.0495 H   0  0  0  0  0  0  0  0  0  0  0  0  # atno 6908 bound_to 6896
  152.2594  133.5249  159.5409 H   0  0  0  0  0  0  0  0  0  0  0  0  # atno 6909 bound_to 6896
  145.5136  139.2277  143.2711 H   0  0  0  0  0  0  0  0  0  0  0  0  # atno 7974 bound_to 7965
  156.3002  140.2475  156.3553 H   0  0  0  0  0  0  0  0  0  0  0  0  # atno 8008 bound_to 7997
  154.8927  140.0408  157.1867 H   0  0  0  0  0  0  0  0  0  0  0  0  # atno 8009 bound_to 7997
  154.8581  140.2916  155.5560 H   0  0  0  0  0  0  0  0  0  0  0  0  # atno 8010 bound_to 7997
  139.9637  144.5943  150.8048 H   0  0  0  0  0  0  0  0  0  0  0  0  # atno 10167 bound_to 10162
  156.0842  130.4211  150.1163 H   0  0  0  0  0  0  0  0  0  0  0  0  # atno 10718 bound_to 10713
  154.5044  135.2785  155.1394 H   0  0  0  0  0  0  0  0  0  0  0  0  # atno 10763 bound_to 10752
  154.3014  135.6247  153.5430 H   0  0  0  0  0  0  0  0  0  0  0  0  # atno 10764 bound_to 10752
  152.9908  135.5698  154.5495 H   0  0  0  0  0  0  0  0  0  0  0  0  # atno 10765 bound_to 10752
  140.7260  133.8788  155.8857 H   0  0  0  0  0  0  0  0  0  0  0  0  # atno 11005 bound_to 11000
  146.2151  140.5944  142.9042 LP  0  0  0  0  0  0  0  0  0  0  0  0  # atno 17320 bound_to 7965
  144.7714  140.5645  143.6668 LP  0  0  0  0  0  0  0  0  0  0  0  0  # atno 17321 bound_to 7965
  140.7545  143.3027  151.3038 LP  0  0  0  0  0  0  0  0  0  0  0  0  # atno 17342 bound_to 10162
  139.6534  144.0321  152.2642 LP  0  0  0  0  0  0  0  0  0  0  0  0  # atno 17343 bound_to 10162
  156.9187  130.9676  151.3552 LP  0  0  0  0  0  0  0  0  0  0  0  0  # atno 17370 bound_to 10713
  157.5971  130.8485  149.8745 LP  0  0  0  0  0  0  0  0  0  0  0  0  # atno 17371 bound_to 10713
  140.9962  134.1212  157.4361 LP  0  0  0  0  0  0  0  0  0  0  0  0  # atno 17394 bound_to 11000
  139.8837  135.0055  156.6318 LP  0  0  0  0  0  0  0  0  0  0  0  0  # atno 17395 bound_to 11000

$$$$
