AV-unprocessed.smi:1|AV-procd|sdf|6|dock1
  -GOLD-   2262015 93D 1   1.00000     0.00000
 Structure written by MMmdl.
 57 62  0  0  0  0  0  0  0  0  1 V2000
  152.4825  139.5883  158.6781 O   0  0  0  0  0  0  0  0  0  0  0  0
  152.0873  140.5505  158.0191 C   0  0  0  0  0  0  0  0  0  0  0  0
  151.5172  140.3966  156.6929 N   0  0  0  0  0  0  0  0  0  0  0  0
  151.4483  139.2747  155.9390 C   0  0  0  0  0  0  0  0  0  0  0  0
  151.5215  139.3033  154.5823 N   0  0  0  0  0  0  0  0  0  0  0  0
  151.4268  138.1707  153.8803 C   0  0  0  0  0  0  0  0  0  0  0  0
  151.2542  136.9254  154.3271 N   0  0  0  0  0  0  0  0  0  0  0  0
  151.1799  136.8863  155.6899 C   0  0  0  0  0  0  0  0  0  0  0  0
  151.2674  138.0104  156.5579 C   0  0  0  0  0  0  0  0  0  0  0  0
  151.1487  137.5973  157.8783 N   0  0  0  0  0  0  0  0  0  0  0  0
  151.0060  136.3025  157.7922 C   0  0  0  0  0  0  0  0  0  0  0  0
  151.0151  135.7894  156.5142 N   0  0  0  0  0  0  0  0  0  0  0  0
  150.8828  134.3529  156.1148 C   0  0  1  0  0  0  0  0  0  0  0  0
  150.5851  133.6011  157.2511 O   0  0  0  0  0  0  0  0  0  0  0  0
  149.6844  132.5603  156.9068 C   0  0  1  0  0  0  0  0  0  0  0  0
  148.9378  132.0459  158.1438 C   0  0  0  0  0  0  0  0  0  0  0  0
  148.3530  133.1447  158.8240 O   0  0  0  0  0  0  0  0  0  0  0  0
  147.7642  132.9628  160.0219 C   0  0  0  0  0  0  0  0  0  0  0  0
  147.4196  131.8606  160.4529 O   0  0  0  0  0  0  0  0  0  0  0  0
  147.5737  134.2371  160.7733 C   0  0  0  0  0  0  0  0  0  0  0  0
  147.8084  135.4690  160.1191 C   0  0  0  0  0  0  0  0  0  0  0  0
  147.6374  136.6885  160.8027 C   0  0  0  0  0  0  0  0  0  0  0  0
  147.2304  136.6912  162.1495 C   0  0  0  0  0  0  0  0  0  0  0  0
  146.9933  135.4726  162.8118 C   0  0  0  0  0  0  0  0  0  0  0  0
  147.1633  134.2519  162.1295 C   0  0  0  0  0  0  0  0  0  0  0  0
  148.8012  133.1794  155.8239 C   0  0  1  0  0  0  0  0  0  0  0  0
  147.7458  133.9475  156.3753 O   0  0  0  0  0  0  0  0  0  0  0  0
  147.5509  135.3048  155.4249 S   0  0  0  0  0  0  0  0  0  0  0  0
  146.5750  134.9868  154.3712 O   0  0  0  0  0  0  0  0  0  0  0  0
  147.4132  136.4800  156.2980 O   0  0  0  0  0  0  0  0  0  0  0  0
  149.0704  135.3256  154.7305 O   0  0  0  0  0  0  0  0  0  0  0  0
  149.7544  134.1299  155.0856 C   0  0  1  0  0  0  0  0  0  0  0  0
  152.0769  141.9423  158.5810 C   0  0  0  0  0  0  0  0  0  0  0  0
  151.5213  143.0043  157.8326 C   0  0  0  0  0  0  0  0  0  0  0  0
  151.4897  144.3094  158.3619 C   0  0  0  0  0  0  0  0  0  0  0  0
  152.0054  144.5620  159.6472 C   0  0  0  0  0  0  0  0  0  0  0  0
  152.5496  143.5078  160.4045 C   0  0  0  0  0  0  0  0  0  0  0  0
  152.5833  142.2027  159.8758 C   0  0  0  0  0  0  0  0  0  0  0  0
  151.1457  141.2355  156.2718 H   0  0  0  0  0  0  0  0  0  0  0  0
  151.4982  138.2780  152.8081 H   0  0  0  0  0  0  0  0  0  0  0  0
  150.8942  135.6789  158.6673 H   0  0  0  0  0  0  0  0  0  0  0  0
  151.8662  134.0819  155.7289 H   0  0  0  0  0  0  0  0  0  0  0  0
  150.2744  131.7527  156.4699 H   0  0  0  0  0  0  0  0  0  0  0  0
  148.1525  131.3510  157.8443 H   0  0  0  0  0  0  0  0  0  0  0  0
  149.6190  131.5031  158.8011 H   0  0  0  0  0  0  0  0  0  0  0  0
  148.1221  135.4924  159.0853 H   0  0  0  0  0  0  0  0  0  0  0  0
  147.8195  137.6229  160.2924 H   0  0  0  0  0  0  0  0  0  0  0  0
  147.1009  137.6263  162.6741 H   0  0  0  0  0  0  0  0  0  0  0  0
  146.6812  135.4737  163.8457 H   0  0  0  0  0  0  0  0  0  0  0  0
  146.9737  133.3350  162.6682 H   0  0  0  0  0  0  0  0  0  0  0  0
  148.3743  132.4252  155.1619 H   0  0  0  0  0  0  0  0  0  0  0  0
  150.1785  133.6529  154.2016 H   0  0  0  0  0  0  0  0  0  0  0  0
  151.1191  142.8262  156.8456 H   0  0  0  0  0  0  0  0  0  0  0  0
  151.0675  145.1169  157.7820 H   0  0  0  0  0  0  0  0  0  0  0  0
  151.9794  145.5625  160.0534 H   0  0  0  0  0  0  0  0  0  0  0  0
  152.9390  143.6994  161.3936 H   0  0  0  0  0  0  0  0  0  0  0  0
  152.9970  141.4065  160.4777 H   0  0  0  0  0  0  0  0  0  0  0  0
  1  2  2  0  0  0  0
  2  3  1  0  0  0  0
  2 33  1  0  0  0  0
  3  4  1  0  0  0  0
  3 39  1  0  0  0  0
  4  9  1  0  0  0  0
  4  5  2  0  0  0  0
  5  6  1  0  0  0  0
  6  7  2  0  0  0  0
  6 40  1  0  0  0  0
  7  8  1  0  0  0  0
  8 12  1  0  0  0  0
  8  9  2  0  0  0  0
  9 10  1  0  0  0  0
 10 11  2  0  0  0  0
 11 12  1  0  0  0  0
 11 41  1  0  0  0  0
 12 13  1  0  0  0  0
 13 32  1  0  0  0  0
 13 14  1  0  0  0  0
 13 42  1  0  0  0  0
 14 15  1  0  0  0  0
 15 16  1  0  0  0  0
 15 26  1  0  0  0  0
 15 43  1  0  0  0  0
 16 17  1  0  0  0  0
 16 44  1  0  0  0  0
 16 45  1  0  0  0  0
 17 18  1  0  0  0  0
 18 19  2  0  0  0  0
 18 20  1  0  0  0  0
 20 25  1  0  0  0  0
 20 21  2  0  0  0  0
 21 22  1  0  0  0  0
 21 46  1  0  0  0  0
 22 23  2  0  0  0  0
 22 47  1  0  0  0  0
 23 24  1  0  0  0  0
 23 48  1  0  0  0  0
 24 25  2  0  0  0  0
 24 49  1  0  0  0  0
 25 50  1  0  0  0  0
 26 32  1  0  0  0  0
 26 27  1  0  0  0  0
 26 51  1  0  0  0  0
 27 28  1  0  0  0  0
 28 29  2  0  0  0  0
 28 30  2  0  0  0  0
 28 31  1  0  0  0  0
 31 32  1  0  0  0  0
 32 52  1  0  0  0  0
 33 38  1  0  0  0  0
 33 34  2  0  0  0  0
 34 35  1  0  0  0  0
 34 53  1  0  0  0  0
 35 36  2  0  0  0  0
 35 54  1  0  0  0  0
 36 37  1  0  0  0  0
 36 55  1  0  0  0  0
 37 38  2  0  0  0  0
 37 56  1  0  0  0  0
 38 57  1  0  0  0  0
M  END
> <s_m_source_file>
AV-unprocessed.smi

> <i_m_source_file_index>
1

> <i_lp_mmshare_version>
43012

> <i_f3d_flags>
0

> <s_epik_input>
W2NIXTFbY0hdW2NIXVtjSF1bY0hdYzFDKD1PKVtOSF1jKG5bY0hdbjIpYyhjMjMpbltjSF1uM1tDQEBIXShbQ0BIXShbQ0BIXTQ1KU9TKE81KSg9Tyk9TylPW0NASF00W0NIMl1PQyg9TyljNltjSF1bY0hdW2NIXVtjSF1bY0hdNg==

> <s_epik_cmdline>
J2VwaWtfcHl0aG9uJywgJy1waCcsICc3LjAnLCAnLXRuJywgJzgnLCAnLW1hJywgJzIwMCcsICctbWV0YWxfYmluZGluZycsICctaW1hZScsICc8aW5maWxlLm1hZT4nLCAnLW9tYWUnLCAnPG91dGZpbGUubWFlPic=

> <r_lp_tautomer_probability>
1

> <r_epik_Ionization_Penalty>
0.00195722

> <r_epik_Ionization_Penalty_Charging>
0

> <r_epik_Ionization_Penalty_Neutral>
0.00195722

> <r_epik_State_Penalty>
0.00633741

> <r_epik_Charging_Adjusted_Penalty>
0.00633741

> <i_epik_Tot_Q>
0

> <i_epik_Tot_abs_Q>
0

> <r_epik_Metal_State_Penalty>
0.341185

> <b_epik_Metal_Only>
0

> <s_epik_Chemistry_Notes>
This compound has an ester and may undergo hydrolysis at high or low pH. This compound contains an acetal/aminal-like group ( X-CH(R)-Y where X, Y are N, S, or O) that may be acid/base labile, releasing an aldehyde.

> <s_lp_Force_Field>
OPLS_2005

> <r_lp_Energy>
46.6539

> <b_lp_Chiralities_Consistent>
1

> <s_lp_Variant>
AV-unprocessed.smi:1-6

> <Gold.Version>
5.8.1

> <Gold.Id.Protein>
6NUR|6NUR_protein|mol2

> <Gold.PLP.Fitness>
65.6885

> <Gold.PLP.PLP>
-56.4071

> <Gold.PLP.part.hbond>
-3.3993

> <Gold.PLP.part.metal>
0.0000

> <Gold.PLP.part.buried>
-6.6592

> <Gold.PLP.part.nonpolar>
-48.9231

> <Gold.PLP.part.repulsive>
1.0748

> <Gold.PLP.ligand.clash>
0.0000

> <Gold.PLP.ligand.torsion>
0.6284

> <Gold.PLP.Chemscore.Hbond>
2.7840

> <Gold.PLP.Chemscore.CHOScore>
0.5516

> <Gold.PLP.Chemscore.Metal>
0.0000

> <Gold.Chemscore.Hbonds>
donor molecule, donor type, donor heavy atom, donor atom, acceptor molecule, acceptor atom, score
      P1  H  6896  6908       L1    14  0.82
      P1  H  7989  7998       L1     5  1.00
      P1  H 10752 10765       L1     7  0.65
      L1  C     6    40       P1  7949  0.48

> <Gold.PLP.Chemscore.Internal.Correction>
0.5315

> <Gold.Rescore>
     Score         DG    S(hbond)    S(metal)    S(lipo)     H(rot)  DE(clash)    DE(int)     intcor
     11.94     -21.09       1.75        0.00     130.10       2.13       1.29       7.87       ----

> <Gold.Chemscore.Fitness>
11.9367

> <Gold.Chemscore.DG>
-21.0901

> <Gold.Chemscore.ZeroCoef>
-5.4800

> <Gold.Chemscore.Hbond>
1.7514

> <Gold.Chemscore.Metal>
0.0000

> <Gold.Chemscore.Lipo>
130.1004

> <Gold.Chemscore.Internal_Hbond>
0.0000

> <Gold.Chemscore.DEClash>
1.2880

> <Gold.Chemscore.DEInternal>
7.8654

> <Gold.Chemscore.Rot>
2.1333

> <Gold.Chemscore.Internal.Correction>
   9.000000E+99

> <Gold.Chemscore.Hbonds>
donor molecule, donor type, donor heavy atom, donor atom, acceptor molecule, acceptor atom, score
      P1  H  6896  6908       L1    14  0.61
      P1  H  7989  7998       L1     5  0.84
      P1  H 10752 10765       L1     7  0.12

> <Gold.Chemscore.Hbond.Weighted>
-5.8498

> <Gold.Chemscore.Metal.Weighted>
-0.0000

> <Gold.Chemscore.Lipo.Weighted>
-15.2217

> <Gold.Chemscore.Internal_Hbond.Weighted>
0.0000

> <Gold.Chemscore.DEClash.Weighted>
1.2880

> <Gold.Chemscore.DEInternal.Weighted>
7.8654

> <Gold.Chemscore.Rot.Weighted>
5.4614

> <Gold.Chemscore.Internal.Correction.Weighted>
   9.000000E+99

> <Gold.Protein.RotatedTorsions>
[ 6907 6896 6895 6894 ] final   98.69 input  -60.11 | X-H torsion
[ 7974 7965 7964 7962 ] final  -72.71 input  175.53 | X-H torsion
[ 8008 7997 7996 7995 ] final  -27.65 input   59.86 | X-H torsion
[ 10167 10162 10161 10158 ] final  -58.13 input  -65.29 | X-H torsion
[ 10718 10713 10712 10709 ] final -174.22 input   66.30 | X-H torsion
[ 10763 10752 10751 10750 ] final  146.80 input  -60.55 | X-H torsion
[ 11005 11000 10999 10996 ] final  113.74 input  -57.11 | X-H torsion

> <Gold.Protein.ActiveResidues>
 VAL166  LYS551  ARG553  GLY616  TRP617  ASP618  TYR619  PRO620  LYS621  CYS622 
 ASP623  PHE694  ASN695  SER759  ASP760  ASP761  ALA762  ILE779  LEU786  VAL792 
 PHE793  MET794  SER795  GLU796  ALA797  LYS798  CYS799  TRP800  GLU811  SER814 

> <Gold.Protein.RotatedAtoms>
  152.5405  134.0542  159.8122 H   0  0  0  0  0  0  0  0  0  0  0  0  # atno 6907 bound_to 6896
  151.0679  133.5483  159.2636 H   0  0  0  0  0  0  0  0  0  0  0  0  # atno 6908 bound_to 6896
  151.2357  135.0579  159.9059 H   0  0  0  0  0  0  0  0  0  0  0  0  # atno 6909 bound_to 6896
  145.6616  140.9251  143.0931 H   0  0  0  0  0  0  0  0  0  0  0  0  # atno 7974 bound_to 7965
  154.4367  140.1866  156.0966 H   0  0  0  0  0  0  0  0  0  0  0  0  # atno 8008 bound_to 7997
  156.0324  140.3329  155.7128 H   0  0  0  0  0  0  0  0  0  0  0  0  # atno 8009 bound_to 7997
  155.5819  140.0622  157.2771 H   0  0  0  0  0  0  0  0  0  0  0  0  # atno 8010 bound_to 7997
  140.6216  143.2422  151.5466 H   0  0  0  0  0  0  0  0  0  0  0  0  # atno 10167 bound_to 10162
  156.7819  130.9486  151.3120 H   0  0  0  0  0  0  0  0  0  0  0  0  # atno 10718 bound_to 10713
  154.0279  135.2900  155.3372 H   0  0  0  0  0  0  0  0  0  0  0  0  # atno 10763 bound_to 10752
  154.7006  135.5190  153.8524 H   0  0  0  0  0  0  0  0  0  0  0  0  # atno 10764 bound_to 10752
  153.0653  135.6628  154.0494 H   0  0  0  0  0  0  0  0  0  0  0  0  # atno 10765 bound_to 10752
  139.8961  134.9555  156.6785 H   0  0  0  0  0  0  0  0  0  0  0  0  # atno 11005 bound_to 11000
  144.7087  139.8456  143.7421 LP  0  0  0  0  0  0  0  0  0  0  0  0  # atno 17320 bound_to 7965
  146.1120  139.4126  143.0281 LP  0  0  0  0  0  0  0  0  0  0  0  0  # atno 17321 bound_to 7965
  139.5443  144.2562  152.1413 LP  0  0  0  0  0  0  0  0  0  0  0  0  # atno 17342 bound_to 10162
  140.1783  144.4869  150.6542 LP  0  0  0  0  0  0  0  0  0  0  0  0  # atno 17343 bound_to 10162
  157.6642  130.8993  149.9896 LP  0  0  0  0  0  0  0  0  0  0  0  0  # atno 17370 bound_to 10713
  156.1212  130.3646  149.9883 LP  0  0  0  0  0  0  0  0  0  0  0  0  # atno 17371 bound_to 10713
  140.7317  133.9053  155.8216 LP  0  0  0  0  0  0  0  0  0  0  0  0  # atno 17394 bound_to 11000
  141.0148  134.0971  157.4184 LP  0  0  0  0  0  0  0  0  0  0  0  0  # atno 17395 bound_to 11000

$$$$
