AV-unprocessed.smi:753|AV-procd|sdf|3606|dock1
  -GOLD-   22720 1 03D 1   1.00000     0.00000
 Structure written by MMmdl.
 44 46  0  0  0  0  0  0  0  0  2 V2000
  143.8746  144.0268  156.7023 C   0  0  0  0  0  0  0  0  0  0  0  0
  144.8902  143.3261  155.8249 C   0  0  0  0  0  0  0  0  0  0  0  0
  145.2262  143.7949  154.5367 C   0  0  0  0  0  0  0  0  0  0  0  0
  146.1808  143.0899  153.7747 C   0  0  0  0  0  0  0  0  0  0  0  0
  146.7811  141.9321  154.3164 C   0  0  0  0  0  0  0  0  0  0  0  0
  147.8066  141.1516  153.5191 C   0  0  0  0  0  0  0  0  0  0  0  0
  149.0538  140.8172  154.3528 C   0  0  0  0  0  0  0  0  0  0  0  0
  149.3790  141.8949  155.2781 N   0  0  0  0  0  0  0  0  0  0  0  0
  149.8783  141.7235  156.5136 C   0  0  0  0  0  0  0  0  0  0  0  0
  150.0999  140.6188  157.0060 O   0  0  0  0  0  0  0  0  0  0  0  0
  150.1259  142.8630  157.1833 N   0  0  0  0  0  0  0  0  0  0  0  0
  150.6663  143.0155  158.5364 C   0  0  1  0  0  0  0  0  0  0  0  0
  151.9836  142.2293  158.7173 C   0  0  0  0  0  0  0  0  0  0  0  0
  152.9794  143.3204  159.1526 C   0  0  2  0  0  0  0  0  0  0  0  0
  152.6257  143.8061  160.5719 C   0  0  0  0  0  0  0  0  0  0  0  0
  151.3372  144.6206  160.3439 C   0  0  0  0  0  0  0  0  0  0  0  0
  151.1092  144.4695  158.8286 C   0  0  1  0  0  0  0  0  0  0  0  0
  152.5396  144.5014  158.2988 C   0  0  0  0  0  0  0  0  0  0  0  0
  146.4053  141.5097  155.6095 C   0  0  0  0  0  0  0  0  0  0  0  0
  145.4858  142.2121  156.3069 N   0  3  0  0  0  0  0  0  0  0  0  0
  143.5040  144.9352  156.2266 H   0  0  0  0  0  0  0  0  0  0  0  0
  144.3229  144.3015  157.6577 H   0  0  0  0  0  0  0  0  0  0  0  0
  143.0244  143.3721  156.8956 H   0  0  0  0  0  0  0  0  0  0  0  0
  144.7604  144.6825  154.1339 H   0  0  0  0  0  0  0  0  0  0  0  0
  146.4463  143.4347  152.7859 H   0  0  0  0  0  0  0  0  0  0  0  0
  147.3424  140.2370  153.1473 H   0  0  0  0  0  0  0  0  0  0  0  0
  148.0889  141.7318  152.6396 H   0  0  0  0  0  0  0  0  0  0  0  0
  148.8825  139.9113  154.9346 H   0  0  0  0  0  0  0  0  0  0  0  0
  149.9063  140.6129  153.7028 H   0  0  0  0  0  0  0  0  0  0  0  0
  149.2241  142.8394  154.9559 H   0  0  0  0  0  0  0  0  0  0  0  0
  149.8988  143.7225  156.7045 H   0  0  0  0  0  0  0  0  0  0  0  0
  149.9262  142.6739  159.2624 H   0  0  0  0  0  0  0  0  0  0  0  0
  151.8928  141.4353  159.4596 H   0  0  0  0  0  0  0  0  0  0  0  0
  152.3097  141.7697  157.7827 H   0  0  0  0  0  0  0  0  0  0  0  0
  154.0241  143.0306  159.0360 H   0  0  0  0  0  0  0  0  0  0  0  0
  152.4790  142.9787  161.2672 H   0  0  0  0  0  0  0  0  0  0  0  0
  153.4148  144.4439  160.9721 H   0  0  0  0  0  0  0  0  0  0  0  0
  150.4975  144.2493  160.9325 H   0  0  0  0  0  0  0  0  0  0  0  0
  151.4949  145.6669  160.6091 H   0  0  0  0  0  0  0  0  0  0  0  0
  150.4506  145.2347  158.4166 H   0  0  0  0  0  0  0  0  0  0  0  0
  153.0691  145.4268  158.5335 H   0  0  0  0  0  0  0  0  0  0  0  0
  152.6104  144.3110  157.2267 H   0  0  0  0  0  0  0  0  0  0  0  0
  146.8064  140.6366  156.1030 H   0  0  0  0  0  0  0  0  0  0  0  0
  145.2289  141.8865  157.2391 H   0  0  0  0  0  0  0  0  0  0  0  0
  1  2  1  0  0  0  0
  1 21  1  0  0  0  0
  1 22  1  0  0  0  0
  1 23  1  0  0  0  0
  2 20  1  0  0  0  0
  2  3  2  0  0  0  0
  3  4  1  0  0  0  0
  3 24  1  0  0  0  0
  4  5  2  0  0  0  0
  4 25  1  0  0  0  0
  5  6  1  0  0  0  0
  5 19  1  0  0  0  0
  6  7  1  0  0  0  0
  6 26  1  0  0  0  0
  6 27  1  0  0  0  0
  7  8  1  0  0  0  0
  7 28  1  0  0  0  0
  7 29  1  0  0  0  0
  8  9  1  0  0  0  0
  8 30  1  0  0  0  0
  9 10  2  0  0  0  0
  9 11  1  0  0  0  0
 11 12  1  0  0  0  0
 11 31  1  0  0  0  0
 12 17  1  0  0  0  0
 12 13  1  0  0  0  0
 12 32  1  0  0  0  0
 13 14  1  0  0  0  0
 13 33  1  0  0  0  0
 13 34  1  0  0  0  0
 14 18  1  0  0  0  0
 14 15  1  0  0  0  0
 14 35  1  0  0  0  0
 15 16  1  0  0  0  0
 15 36  1  0  0  0  0
 15 37  1  0  0  0  0
 16 17  1  0  0  0  0
 16 38  1  0  0  0  0
 16 39  1  0  0  0  0
 17 18  1  0  0  0  0
 17 40  1  0  0  0  0
 18 41  1  0  0  0  0
 18 42  1  0  0  0  0
 19 20  2  0  0  0  0
 19 43  1  0  0  0  0
 20 44  1  0  0  0  0
M  CHG  1  20   1
M  END
> <s_m_source_file>
AV-unprocessed.smi

> <i_m_source_file_index>
753

> <i_lp_mmshare_version>
43012

> <i_f3d_flags>
0

> <s_epik_input>
W0NIM11jMVtjSF1bY0hdYyhbY0hdbjEpW0NIMl1bQ0gyXVtOSF1DKD1PKVtOSF1bQ0BIXShbQ0gyXVtDQEBIXTIzKVtDQEBIXShbQ0gyXTMpW0NIMl1bQ0gyXTI=

> <s_epik_cmdline>
J2VwaWtfcHl0aG9uJywgJy1waCcsICc3LjAnLCAnLXRuJywgJzgnLCAnLW1hJywgJzIwMCcsICctbWV0YWxfYmluZGluZycsICctaW1hZScsICc8aW5maWxlLm1hZT4nLCAnLW9tYWUnLCAnPG91dGZpbGUubWFlPic=

> <r_epik_Ionization_Penalty>
1.41708

> <r_epik_Ionization_Penalty_Charging>
1.41702

> <r_epik_Ionization_Penalty_Neutral>
5.73163e-05

> <r_epik_State_Penalty>
1.50048

> <r_epik_Charging_Adjusted_Penalty>
2.9175

> <i_epik_Tot_Q>
1

> <i_epik_Tot_abs_Q>
1

> <r_epik_Metal_State_Penalty>
1.55295

> <b_epik_Metal_Only>
0

> <s_lp_Force_Field>
OPLS_2005

> <r_lp_Energy>
57.1024

> <b_lp_Chiralities_Consistent>
1

> <s_lp_Variant>
AV-unprocessed.smi:753-8

> <Gold.Version>
5.8.1

> <Gold.Id.Protein>
6NUR|6NUR_protein|mol2

> <Gold.PLP.Fitness>
50.8829

> <Gold.PLP.PLP>
-46.3971

> <Gold.PLP.part.hbond>
-2.0000

> <Gold.PLP.part.metal>
0.0000

> <Gold.PLP.part.buried>
-6.9339

> <Gold.PLP.part.nonpolar>
-38.3640

> <Gold.PLP.part.repulsive>
0.2116

> <Gold.PLP.ligand.clash>
0.0000

> <Gold.PLP.ligand.torsion>
0.5474

> <Gold.PLP.Chemscore.Hbond>
1.8480

> <Gold.PLP.Chemscore.CHOScore>
0.0000

> <Gold.PLP.Chemscore.Metal>
0.0000

> <Gold.Chemscore.Hbonds>
donor molecule, donor type, donor heavy atom, donor atom, acceptor molecule, acceptor atom, score
      L1  H     8    30       P1  8028  0.85
      L1  H    11    31       P1  8028  1.00

> <Gold.PLP.Chemscore.Internal.Correction>
0.0366

> <Gold.Rescore>
     Score         DG    S(hbond)    S(metal)    S(lipo)     H(rot)  DE(clash)    DE(int)     intcor
     21.74     -22.09       1.83        0.00     122.75       1.50       0.03       0.32       ----

> <Gold.Chemscore.Fitness>
21.7448

> <Gold.Chemscore.DG>
-22.0943

> <Gold.Chemscore.ZeroCoef>
-5.4800

> <Gold.Chemscore.Hbond>
1.8263

> <Gold.Chemscore.Metal>
0.0000

> <Gold.Chemscore.Lipo>
122.7457

> <Gold.Chemscore.Internal_Hbond>
0.0000

> <Gold.Chemscore.DEClash>
0.0313

> <Gold.Chemscore.DEInternal>
0.3182

> <Gold.Chemscore.Rot>
1.5027

> <Gold.Chemscore.Internal.Correction>
   9.000000E+99

> <Gold.Chemscore.Hbonds>
donor molecule, donor type, donor heavy atom, donor atom, acceptor molecule, acceptor atom, score
      L1  H     8    30       P1  8028  0.78
      L1  H    11    31       P1  8028  0.97

> <Gold.Chemscore.Hbond.Weighted>
-6.0998

> <Gold.Chemscore.Metal.Weighted>
-0.0000

> <Gold.Chemscore.Lipo.Weighted>
-14.3612

> <Gold.Chemscore.Internal_Hbond.Weighted>
0.0000

> <Gold.Chemscore.DEClash.Weighted>
0.0313

> <Gold.Chemscore.DEInternal.Weighted>
0.3182

> <Gold.Chemscore.Rot.Weighted>
3.8468

> <Gold.Chemscore.Internal.Correction.Weighted>
   9.000000E+99

> <Gold.Protein.RotatedTorsions>
[ 6907 6896 6895 6894 ] final  123.90 input  -60.11 | X-H torsion
[ 7974 7965 7964 7962 ] final  -92.70 input  175.53 | X-H torsion
[ 8008 7997 7996 7995 ] final -155.84 input   59.86 | X-H torsion
[ 10167 10162 10161 10158 ] final  154.19 input  -65.29 | X-H torsion
[ 10718 10713 10712 10709 ] final -154.21 input   66.30 | X-H torsion
[ 10763 10752 10751 10750 ] final    8.25 input  -60.55 | X-H torsion
[ 11005 11000 10999 10996 ] final -123.45 input  -57.11 | X-H torsion

> <Gold.Protein.ActiveResidues>
 VAL166  LYS551  ARG553  GLY616  TRP617  ASP618  TYR619  PRO620  LYS621  CYS622 
 ASP623  PHE694  ASN695  SER759  ASP760  ASP761  ALA762  ILE779  LEU786  VAL792 
 PHE793  MET794  SER795  GLU796  ALA797  LYS798  CYS799  TRP800  GLU811  SER814 

> <Gold.Protein.RotatedAtoms>
  152.4123  133.6983  159.6408 H   0  0  0  0  0  0  0  0  0  0  0  0  # atno 6907 bound_to 6896
  150.8003  133.8602  159.3238 H   0  0  0  0  0  0  0  0  0  0  0  0  # atno 6908 bound_to 6896
  151.6341  135.1021  160.0179 H   0  0  0  0  0  0  0  0  0  0  0  0  # atno 6909 bound_to 6896
  145.3963  140.9533  143.2312 H   0  0  0  0  0  0  0  0  0  0  0  0  # atno 7974 bound_to 7965
  155.7079  140.0775  157.2383 H   0  0  0  0  0  0  0  0  0  0  0  0  # atno 8008 bound_to 7997
  154.4063  140.1635  156.2317 H   0  0  0  0  0  0  0  0  0  0  0  0  # atno 8009 bound_to 7997
  155.9309  140.3391  155.6251 H   0  0  0  0  0  0  0  0  0  0  0  0  # atno 8010 bound_to 7997
  139.4824  144.5208  151.7879 H   0  0  0  0  0  0  0  0  0  0  0  0  # atno 10167 bound_to 10162
  156.4962  130.8370  151.2591 H   0  0  0  0  0  0  0  0  0  0  0  0  # atno 10718 bound_to 10713
  153.2272  135.6888  153.7932 H   0  0  0  0  0  0  0  0  0  0  0  0  # atno 10763 bound_to 10752
  153.7109  135.3282  155.3247 H   0  0  0  0  0  0  0  0  0  0  0  0  # atno 10764 bound_to 10752
  154.8297  135.4590  154.1142 H   0  0  0  0  0  0  0  0  0  0  0  0  # atno 10765 bound_to 10752
  140.9918  134.0528  157.3645 H   0  0  0  0  0  0  0  0  0  0  0  0  # atno 11005 bound_to 11000
  144.8405  139.5480  143.6902 LP  0  0  0  0  0  0  0  0  0  0  0  0  # atno 17320 bound_to 7965
  146.2773  139.6786  142.9254 LP  0  0  0  0  0  0  0  0  0  0  0  0  # atno 17321 bound_to 7965
  140.4722  144.1570  150.5919 LP  0  0  0  0  0  0  0  0  0  0  0  0  # atno 17342 bound_to 10162
  140.4370  143.2543  151.9523 LP  0  0  0  0  0  0  0  0  0  0  0  0  # atno 17343 bound_to 10162
  157.7468  130.9997  150.2898 LP  0  0  0  0  0  0  0  0  0  0  0  0  # atno 17370 bound_to 10713
  156.3377  130.3810  149.7435 LP  0  0  0  0  0  0  0  0  0  0  0  0  # atno 17371 bound_to 10713
  139.8996  135.0159  156.7202 LP  0  0  0  0  0  0  0  0  0  0  0  0  # atno 17394 bound_to 11000
  140.7028  133.9291  155.8035 LP  0  0  0  0  0  0  0  0  0  0  0  0  # atno 17395 bound_to 11000

$$$$
