AV-unprocessed.smi:1270|AV-procd|sdf|5331|dock1
  -GOLD-   22720 4463D 1   1.00000     0.00000
 Structure written by MMmdl.
 42 43  0  0  0  0  0  0  0  0  1 V2000
  144.4803  134.0965  150.4941 C   0  0  0  0  0  0  0  0  0  0  0  0
  145.6390  133.9661  151.3109 O   0  0  0  0  0  0  0  0  0  0  0  0
  146.0186  132.7019  151.7204 C   0  0  0  0  0  0  0  0  0  0  0  0
  145.2828  131.6411  151.3028 N   0  0  0  0  0  0  0  0  0  0  0  0
  145.6475  130.4068  151.7059 C   0  0  0  0  0  0  0  0  0  0  0  0
  146.7508  130.1656  152.5446 C   0  0  0  0  0  0  0  0  0  0  0  0
  147.5155  131.2638  152.9794 C   0  0  0  0  0  0  0  0  0  0  0  0
  147.1539  132.5655  152.5534 C   0  0  0  0  0  0  0  0  0  0  0  0
  147.8420  133.7471  152.9470 N   0  0  0  0  0  0  0  0  0  0  0  0
  148.4108  134.0372  154.1295 C   0  0  0  0  0  0  0  0  0  0  0  0
  148.4560  133.2863  155.1035 O   0  0  0  0  0  0  0  0  0  0  0  0
  148.9530  135.2632  154.1166 N   0  0  0  0  0  0  0  0  0  0  0  0
  149.6412  135.8902  155.2414 C   0  0  0  0  0  0  0  0  0  0  0  0
  149.0912  137.3065  155.4654 C   0  0  0  0  0  0  0  0  0  0  0  0
  149.8307  138.0226  156.6094 C   0  0  0  0  0  0  0  0  0  0  0  0
  151.2923  138.0245  156.3976 N   0  0  0  0  0  0  0  0  0  0  0  0
  152.0837  139.4546  155.7992 S   0  0  0  0  0  0  0  0  0  0  0  0
  152.0618  140.6120  157.2286 C   0  0  0  0  0  0  0  0  0  0  0  0
  153.4838  139.1074  155.5118 O   0  0  0  0  0  0  0  0  0  0  0  0
  151.2411  140.0237  154.7363 O   0  0  0  0  0  0  0  0  0  0  0  0
  151.8782  136.6943  156.1373 C   0  0  0  0  0  0  0  0  0  0  0  0
  151.1564  135.9694  154.9880 C   0  0  0  0  0  0  0  0  0  0  0  0
  144.3201  135.1492  150.2617 H   0  0  0  0  0  0  0  0  0  0  0  0
  143.5886  133.7315  151.0060 H   0  0  0  0  0  0  0  0  0  0  0  0
  144.5948  133.5631  149.5492 H   0  0  0  0  0  0  0  0  0  0  0  0
  145.0371  129.5875  151.3556 H   0  0  0  0  0  0  0  0  0  0  0  0
  147.0015  129.1612  152.8522 H   0  0  0  0  0  0  0  0  0  0  0  0
  148.3492  131.0847  153.6401 H   0  0  0  0  0  0  0  0  0  0  0  0
  147.9594  134.4359  152.2183 H   0  0  0  0  0  0  0  0  0  0  0  0
  148.8760  135.8077  153.2700 H   0  0  0  0  0  0  0  0  0  0  0  0
  149.4584  135.3027  156.1434 H   0  0  0  0  0  0  0  0  0  0  0  0
  149.1760  137.8876  154.5477 H   0  0  0  0  0  0  0  0  0  0  0  0
  148.0265  137.2592  155.6973 H   0  0  0  0  0  0  0  0  0  0  0  0
  149.4610  139.0413  156.7214 H   0  0  0  0  0  0  0  0  0  0  0  0
  149.6209  137.5152  157.5517 H   0  0  0  0  0  0  0  0  0  0  0  0
  152.5477  141.5432  156.9385 H   0  0  0  0  0  0  0  0  0  0  0  0
  152.6038  140.1775  158.0664 H   0  0  0  0  0  0  0  0  0  0  0  0
  151.0342  140.8257  157.5173 H   0  0  0  0  0  0  0  0  0  0  0  0
  152.9424  136.7827  155.9212 H   0  0  0  0  0  0  0  0  0  0  0  0
  151.7986  136.0996  157.0481 H   0  0  0  0  0  0  0  0  0  0  0  0
  151.5726  134.9672  154.8796 H   0  0  0  0  0  0  0  0  0  0  0  0
  151.3491  136.4804  154.0453 H   0  0  0  0  0  0  0  0  0  0  0  0
  1  2  1  0  0  0  0
  1 23  1  0  0  0  0
  1 24  1  0  0  0  0
  1 25  1  0  0  0  0
  2  3  1  0  0  0  0
  3  8  1  0  0  0  0
  3  4  2  0  0  0  0
  4  5  1  0  0  0  0
  5  6  2  0  0  0  0
  5 26  1  0  0  0  0
  6  7  1  0  0  0  0
  6 27  1  0  0  0  0
  7  8  2  0  0  0  0
  7 28  1  0  0  0  0
  8  9  1  0  0  0  0
  9 10  1  0  0  0  0
  9 29  1  0  0  0  0
 10 11  2  0  0  0  0
 10 12  1  0  0  0  0
 12 13  1  0  0  0  0
 12 30  1  0  0  0  0
 13 22  1  0  0  0  0
 13 14  1  0  0  0  0
 13 31  1  0  0  0  0
 14 15  1  0  0  0  0
 14 32  1  0  0  0  0
 14 33  1  0  0  0  0
 15 16  1  0  0  0  0
 15 34  1  0  0  0  0
 15 35  1  0  0  0  0
 16 17  1  0  0  0  0
 16 21  1  0  0  0  0
 17 18  1  0  0  0  0
 17 19  2  0  0  0  0
 17 20  2  0  0  0  0
 18 36  1  0  0  0  0
 18 37  1  0  0  0  0
 18 38  1  0  0  0  0
 21 22  1  0  0  0  0
 21 39  1  0  0  0  0
 21 40  1  0  0  0  0
 22 41  1  0  0  0  0
 22 42  1  0  0  0  0
M  END
> <s_m_source_file>
AV-unprocessed.smi

> <i_m_source_file_index>
1270

> <i_lp_mmshare_version>
43012

> <i_f3d_flags>
0

> <s_epik_input>
W0NIM11PYzFuW2NIXVtjSF1bY0hdYzFbTkhdQyg9TylbTkhdW0NIXTJbQ0gyXVtDSDJdTihTKD1PKSg9TylbQ0gzXSlbQ0gyXVtDSDJdMg==

> <s_epik_cmdline>
J2VwaWtfcHl0aG9uJywgJy1waCcsICc3LjAnLCAnLXRuJywgJzgnLCAnLW1hJywgJzIwMCcsICctbWV0YWxfYmluZGluZycsICctaW1hZScsICc8aW5maWxlLm1hZT4nLCAnLW9tYWUnLCAnPG91dGZpbGUubWFlPic=

> <r_lp_tautomer_probability>
1

> <r_epik_Ionization_Penalty>
9.27336e-05

> <r_epik_Ionization_Penalty_Charging>
0

> <r_epik_Ionization_Penalty_Neutral>
9.27336e-05

> <r_epik_State_Penalty>
-0

> <r_epik_Charging_Adjusted_Penalty>
0

> <i_epik_Tot_Q>
0

> <i_epik_Tot_abs_Q>
0

> <r_epik_Metal_State_Penalty>
-0

> <b_epik_Metal_Only>
0

> <s_lp_Force_Field>
OPLS_2005

> <r_lp_Energy>
1.71558

> <b_lp_Chiralities_Consistent>
1

> <s_lp_Variant>
AV-unprocessed.smi:1270-1

> <Gold.Version>
5.8.1

> <Gold.Id.Protein>
6NUR|6NUR_protein|mol2

> <Gold.PLP.Fitness>
38.9355

> <Gold.PLP.PLP>
-28.2646

> <Gold.PLP.part.hbond>
-3.8531

> <Gold.PLP.part.metal>
0.0000

> <Gold.PLP.part.buried>
-3.7683

> <Gold.PLP.part.nonpolar>
-20.5063

> <Gold.PLP.part.repulsive>
0.3397

> <Gold.PLP.ligand.clash>
0.0000

> <Gold.PLP.ligand.torsion>
1.4652

> <Gold.PLP.Chemscore.Hbond>
3.8406

> <Gold.PLP.Chemscore.CHOScore>
0.0000

> <Gold.PLP.Chemscore.Metal>
0.0000

> <Gold.Chemscore.Hbonds>
donor molecule, donor type, donor heavy atom, donor atom, acceptor molecule, acceptor atom, score
      L1  H     9    29       P1  7948  0.82
      L1  H    12    30       P1  7948  0.80
      P1  H  7989  7998       L1    20  1.00
      P1  H  7997  8010       L1    19  0.85

> <Gold.PLP.Chemscore.Internal.Correction>
2.0795

> <Gold.Rescore>
     Score         DG    S(hbond)    S(metal)    S(lipo)     H(rot)  DE(clash)    DE(int)     intcor
     17.50     -19.11       3.07        0.00      57.00       1.29       0.04       1.58       ----

> <Gold.Chemscore.Fitness>
17.4979

> <Gold.Chemscore.DG>
-19.1106

> <Gold.Chemscore.ZeroCoef>
-5.4800

> <Gold.Chemscore.Hbond>
3.0722

> <Gold.Chemscore.Metal>
0.0000

> <Gold.Chemscore.Lipo>
57.0040

> <Gold.Chemscore.Internal_Hbond>
0.0000

> <Gold.Chemscore.DEClash>
0.0363

> <Gold.Chemscore.DEInternal>
1.5765

> <Gold.Chemscore.Rot>
1.2890

> <Gold.Chemscore.Internal.Correction>
   9.000000E+99

> <Gold.Chemscore.Hbonds>
donor molecule, donor type, donor heavy atom, donor atom, acceptor molecule, acceptor atom, score
      L1  H     9    29       P1  7948  0.19
      L1  H    12    30       P1  7948  0.74
      P1  H  7989  7998       L1    20  0.95
      P1  H  7997  8010       L1    19  0.48

> <Gold.Chemscore.Hbond.Weighted>
-10.2611

> <Gold.Chemscore.Metal.Weighted>
-0.0000

> <Gold.Chemscore.Lipo.Weighted>
-6.6695

> <Gold.Chemscore.Internal_Hbond.Weighted>
0.0000

> <Gold.Chemscore.DEClash.Weighted>
0.0363

> <Gold.Chemscore.DEInternal.Weighted>
1.5765

> <Gold.Chemscore.Rot.Weighted>
3.2999

> <Gold.Chemscore.Internal.Correction.Weighted>
   9.000000E+99

> <Gold.Protein.RotatedTorsions>
[ 6907 6896 6895 6894 ] final  109.88 input  -60.11 | X-H torsion
[ 7974 7965 7964 7962 ] final   23.31 input  175.53 | X-H torsion
[ 8008 7997 7996 7995 ] final   75.92 input   59.86 | X-H torsion
[ 10167 10162 10161 10158 ] final -103.43 input  -65.29 | X-H torsion
[ 10718 10713 10712 10709 ] final   37.81 input   66.30 | X-H torsion
[ 10763 10752 10751 10750 ] final -171.18 input  -60.55 | X-H torsion
[ 11005 11000 10999 10996 ] final -179.58 input  -57.11 | X-H torsion

> <Gold.Protein.ActiveResidues>
 VAL166  LYS551  ARG553  GLY616  TRP617  ASP618  TYR619  PRO620  LYS621  CYS622 
 ASP623  PHE694  ASN695  SER759  ASP760  ASP761  ALA762  ILE779  LEU786  VAL792 
 PHE793  MET794  SER795  GLU796  ALA797  LYS798  CYS799  TRP800  GLU811  SER814 

> <Gold.Protein.RotatedAtoms>
  152.5046  133.8880  159.7379 H   0  0  0  0  0  0  0  0  0  0  0  0  # atno 6907 bound_to 6896
  150.9326  133.6740  159.2814 H   0  0  0  0  0  0  0  0  0  0  0  0  # atno 6908 bound_to 6896
  151.4080  135.0985  159.9629 H   0  0  0  0  0  0  0  0  0  0  0  0  # atno 6909 bound_to 6896
  146.1990  139.7762  142.8776 H   0  0  0  0  0  0  0  0  0  0  0  0  # atno 7974 bound_to 7965
  155.8199  140.3470  155.5508 H   0  0  0  0  0  0  0  0  0  0  0  0  # atno 8008 bound_to 7997
  155.8353  140.0933  157.1788 H   0  0  0  0  0  0  0  0  0  0  0  0  # atno 8009 bound_to 7997
  154.4004  140.1404  156.3650 H   0  0  0  0  0  0  0  0  0  0  0  0  # atno 8010 bound_to 7997
  140.2201  143.3682  152.0977 H   0  0  0  0  0  0  0  0  0  0  0  0  # atno 10167 bound_to 10162
  157.3514  130.7600  149.6981 H   0  0  0  0  0  0  0  0  0  0  0  0  # atno 10718 bound_to 10713
  154.6333  135.2889  155.0190 H   0  0  0  0  0  0  0  0  0  0  0  0  # atno 10763 bound_to 10752
  154.1343  135.6528  153.4932 H   0  0  0  0  0  0  0  0  0  0  0  0  # atno 10764 bound_to 10752
  153.0290  135.5317  154.7170 H   0  0  0  0  0  0  0  0  0  0  0  0  # atno 10765 bound_to 10752
  140.4171  134.6640  157.4644 H   0  0  0  0  0  0  0  0  0  0  0  0  # atno 11005 bound_to 11000
  145.3548  141.0314  143.3318 LP  0  0  0  0  0  0  0  0  0  0  0  0  # atno 17320 bound_to 7965
  144.8641  139.5133  143.6798 LP  0  0  0  0  0  0  0  0  0  0  0  0  # atno 17321 bound_to 7965
  139.5147  144.6952  151.5649 LP  0  0  0  0  0  0  0  0  0  0  0  0  # atno 17342 bound_to 10162
  140.6261  143.9166  150.6566 LP  0  0  0  0  0  0  0  0  0  0  0  0  # atno 17343 bound_to 10162
  155.9722  130.4139  150.4108 LP  0  0  0  0  0  0  0  0  0  0  0  0  # atno 17370 bound_to 10713
  157.2171  131.0474  151.2567 LP  0  0  0  0  0  0  0  0  0  0  0  0  # atno 17371 bound_to 10713
  140.0226  134.6524  155.9217 LP  0  0  0  0  0  0  0  0  0  0  0  0  # atno 17394 bound_to 11000
  141.1799  133.6545  156.4976 LP  0  0  0  0  0  0  0  0  0  0  0  0  # atno 17395 bound_to 11000

$$$$
