AV-unprocessed.smi:805|AV-procd|sdf|3798|dock1
  -GOLD-   22720 1233D 1   1.00000     0.00000
 Structure written by MMmdl.
 40 41  0  0  0  0  0  0  0  0  1 V2000
  145.8635  137.3470  152.5177 C   0  0  0  0  0  0  0  0  0  0  0  0
  145.4549  138.2974  153.6451 C   0  0  0  0  0  0  0  0  0  0  0  0
  146.5571  138.4720  154.5191 O   0  0  0  0  0  0  0  0  0  0  0  0
  147.6215  139.1978  153.9247 C   0  0  2  0  0  0  0  0  0  0  0  0
  148.8395  139.4081  154.8303 C   0  0  0  0  0  0  0  0  0  0  0  0
  148.9257  140.7981  154.1983 C   0  0  2  0  0  0  0  0  0  0  0  0
  149.3375  141.8260  155.1481 N   0  0  0  0  0  0  0  0  0  0  0  0
  150.2702  141.6484  156.0928 C   0  0  0  0  0  0  0  0  0  0  0  0
  150.8737  140.5883  156.2574 O   0  0  0  0  0  0  0  0  0  0  0  0
  150.4649  142.7733  156.8020 N   0  0  0  0  0  0  0  0  0  0  0  0
  151.3475  142.9879  157.8950 C   0  0  0  0  0  0  0  0  0  0  0  0
  151.8884  144.2485  158.2467 C   0  0  0  0  0  0  0  0  0  0  0  0
  152.7691  144.3277  159.3428 C   0  0  0  0  0  0  0  0  0  0  0  0
  153.0828  143.1457  160.0412 C   0  0  0  0  0  0  0  0  0  0  0  0
  152.5855  141.9358  159.7087 N   0  0  0  0  0  0  0  0  0  0  0  0
  151.7417  141.8673  158.6567 C   0  0  0  0  0  0  0  0  0  0  0  0
  147.3971  140.7302  153.9350 C   0  0  0  0  0  0  0  0  0  0  0  0
  146.9207  141.3384  152.6161 C   0  0  0  0  0  0  0  0  0  0  0  0
  146.4686  141.2706  155.0369 C   0  0  0  0  0  0  0  0  0  0  0  0
  145.0369  137.1858  151.8254 H   0  0  0  0  0  0  0  0  0  0  0  0
  146.1618  136.3763  152.9144 H   0  0  0  0  0  0  0  0  0  0  0  0
  146.7025  137.7501  151.9499 H   0  0  0  0  0  0  0  0  0  0  0  0
  145.1449  139.2567  153.2286 H   0  0  0  0  0  0  0  0  0  0  0  0
  144.6053  137.8831  154.1902 H   0  0  0  0  0  0  0  0  0  0  0  0
  147.8933  138.8272  152.9333 H   0  0  0  0  0  0  0  0  0  0  0  0
  148.5926  139.4160  155.8935 H   0  0  0  0  0  0  0  0  0  0  0  0
  149.6860  138.7557  154.6153 H   0  0  0  0  0  0  0  0  0  0  0  0
  149.5143  140.7821  153.2775 H   0  0  0  0  0  0  0  0  0  0  0  0
  148.8901  142.7279  155.0741 H   0  0  0  0  0  0  0  0  0  0  0  0
  149.9577  143.5883  156.4898 H   0  0  0  0  0  0  0  0  0  0  0  0
  151.6603  145.1469  157.6951 H   0  0  0  0  0  0  0  0  0  0  0  0
  153.1981  145.2738  159.6383 H   0  0  0  0  0  0  0  0  0  0  0  0
  153.7558  143.1723  160.8854 H   0  0  0  0  0  0  0  0  0  0  0  0
  151.3653  140.8831  158.4183 H   0  0  0  0  0  0  0  0  0  0  0  0
  146.9710  142.4275  152.6372 H   0  0  0  0  0  0  0  0  0  0  0  0
  145.8901  141.0584  152.3958 H   0  0  0  0  0  0  0  0  0  0  0  0
  147.5317  141.0049  151.7770 H   0  0  0  0  0  0  0  0  0  0  0  0
  146.4958  142.3596  155.0862 H   0  0  0  0  0  0  0  0  0  0  0  0
  146.7402  140.8973  156.0245 H   0  0  0  0  0  0  0  0  0  0  0  0
  145.4322  140.9801  154.8619 H   0  0  0  0  0  0  0  0  0  0  0  0
  1  2  1  0  0  0  0
  1 20  1  0  0  0  0
  1 21  1  0  0  0  0
  1 22  1  0  0  0  0
  2  3  1  0  0  0  0
  2 23  1  0  0  0  0
  2 24  1  0  0  0  0
  3  4  1  0  0  0  0
  4 17  1  0  0  0  0
  4  5  1  0  0  0  0
  4 25  1  0  0  0  0
  5  6  1  0  0  0  0
  5 26  1  0  0  0  0
  5 27  1  0  0  0  0
  6  7  1  0  0  0  0
  6 17  1  0  0  0  0
  6 28  1  0  0  0  0
  7  8  1  0  0  0  0
  7 29  1  0  0  0  0
  8  9  2  0  0  0  0
  8 10  1  0  0  0  0
 10 11  1  0  0  0  0
 10 30  1  0  0  0  0
 11 16  1  0  0  0  0
 11 12  2  0  0  0  0
 12 13  1  0  0  0  0
 12 31  1  0  0  0  0
 13 14  2  0  0  0  0
 13 32  1  0  0  0  0
 14 15  1  0  0  0  0
 14 33  1  0  0  0  0
 15 16  2  0  0  0  0
 16 34  1  0  0  0  0
 17 18  1  0  0  0  0
 17 19  1  0  0  0  0
 18 35  1  0  0  0  0
 18 36  1  0  0  0  0
 18 37  1  0  0  0  0
 19 38  1  0  0  0  0
 19 39  1  0  0  0  0
 19 40  1  0  0  0  0
M  END
> <s_m_source_file>
AV-unprocessed.smi

> <i_m_source_file_index>
805

> <i_lp_mmshare_version>
43012

> <i_f3d_flags>
0

> <s_epik_input>
W0NIM11bQ0gyXU9bQ0BASF0oQzEoW0NIM10pW0NIM10pW0NIMl1bQ0BIXTFbTkhdQyg9TylbTkhdYzJbY0hdW2NIXVtjSF1uW2NIXTI=

> <s_epik_cmdline>
J2VwaWtfcHl0aG9uJywgJy1waCcsICc3LjAnLCAnLXRuJywgJzgnLCAnLW1hJywgJzIwMCcsICctbWV0YWxfYmluZGluZycsICctaW1hZScsICc8aW5maWxlLm1hZT4nLCAnLW9tYWUnLCAnPG91dGZpbGUubWFlPic=

> <r_epik_Ionization_Penalty>
0.00485231

> <r_epik_Ionization_Penalty_Charging>
0

> <r_epik_Ionization_Penalty_Neutral>
0.00485231

> <r_epik_State_Penalty>
0.00349213

> <r_epik_Charging_Adjusted_Penalty>
0.00349213

> <i_epik_Tot_Q>
0

> <i_epik_Tot_abs_Q>
0

> <r_epik_Metal_State_Penalty>
-0

> <b_epik_Metal_Only>
0

> <s_lp_Force_Field>
OPLS_2005

> <r_lp_Energy>
21.5129

> <b_lp_Chiralities_Consistent>
1

> <s_lp_Variant>
AV-unprocessed.smi:805-3

> <Gold.Version>
5.8.1

> <Gold.Id.Protein>
6NUR|6NUR_protein|mol2

> <Gold.PLP.Fitness>
37.1390

> <Gold.PLP.PLP>
-31.9539

> <Gold.PLP.part.hbond>
-2.0000

> <Gold.PLP.part.metal>
0.0000

> <Gold.PLP.part.buried>
-3.6657

> <Gold.PLP.part.nonpolar>
-27.4748

> <Gold.PLP.part.repulsive>
0.3819

> <Gold.PLP.ligand.clash>
0.0000

> <Gold.PLP.ligand.torsion>
0.5290

> <Gold.PLP.Chemscore.Hbond>
1.9760

> <Gold.PLP.Chemscore.CHOScore>
0.0000

> <Gold.PLP.Chemscore.Metal>
0.0000

> <Gold.Chemscore.Hbonds>
donor molecule, donor type, donor heavy atom, donor atom, acceptor molecule, acceptor atom, score
      L1  H     7    29       P1  8028  0.87
      L1  H    10    30       P1  8028  1.00

> <Gold.PLP.Chemscore.Internal.Correction>
0.3151

> <Gold.Rescore>
     Score         DG    S(hbond)    S(metal)    S(lipo)     H(rot)  DE(clash)    DE(int)     intcor
     15.57     -21.04       1.91        0.00     108.21       1.36       2.14       3.33       ----

> <Gold.Chemscore.Fitness>
15.5735

> <Gold.Chemscore.DG>
-21.0426

> <Gold.Chemscore.ZeroCoef>
-5.4800

> <Gold.Chemscore.Hbond>
1.9075

> <Gold.Chemscore.Metal>
0.0000

> <Gold.Chemscore.Lipo>
108.2092

> <Gold.Chemscore.Internal_Hbond>
0.0000

> <Gold.Chemscore.DEClash>
2.1419

> <Gold.Chemscore.DEInternal>
3.3272

> <Gold.Chemscore.Rot>
1.3551

> <Gold.Chemscore.Internal.Correction>
   9.000000E+99

> <Gold.Chemscore.Hbonds>
donor molecule, donor type, donor heavy atom, donor atom, acceptor molecule, acceptor atom, score
      L1  H     7    29       P1  8028  0.82
      L1  H    10    30       P1  8028  1.00

> <Gold.Chemscore.Hbond.Weighted>
-6.3712

> <Gold.Chemscore.Metal.Weighted>
-0.0000

> <Gold.Chemscore.Lipo.Weighted>
-12.6605

> <Gold.Chemscore.Internal_Hbond.Weighted>
0.0000

> <Gold.Chemscore.DEClash.Weighted>
2.1419

> <Gold.Chemscore.DEInternal.Weighted>
3.3272

> <Gold.Chemscore.Rot.Weighted>
3.4691

> <Gold.Chemscore.Internal.Correction.Weighted>
   9.000000E+99

> <Gold.Protein.RotatedTorsions>
[ 6907 6896 6895 6894 ] final   57.39 input  -60.11 | X-H torsion
[ 7974 7965 7964 7962 ] final  -58.65 input  175.53 | X-H torsion
[ 8008 7997 7996 7995 ] final   25.83 input   59.86 | X-H torsion
[ 10167 10162 10161 10158 ] final  153.08 input  -65.29 | X-H torsion
[ 10718 10713 10712 10709 ] final   -9.94 input   66.30 | X-H torsion
[ 10763 10752 10751 10750 ] final  -94.83 input  -60.55 | X-H torsion
[ 11005 11000 10999 10996 ] final  118.88 input  -57.11 | X-H torsion

> <Gold.Protein.ActiveResidues>
 VAL166  LYS551  ARG553  GLY616  TRP617  ASP618  TYR619  PRO620  LYS621  CYS622 
 ASP623  PHE694  ASN695  SER759  ASP760  ASP761  ALA762  ILE779  LEU786  VAL792 
 PHE793  MET794  SER795  GLU796  ALA797  LYS798  CYS799  TRP800  GLU811  SER814 

> <Gold.Protein.RotatedAtoms>
  152.3726  134.6710  160.0170 H   0  0  0  0  0  0  0  0  0  0  0  0  # atno 6907 bound_to 6896
  151.6999  133.3305  159.3272 H   0  0  0  0  0  0  0  0  0  0  0  0  # atno 6908 bound_to 6896
  150.7685  134.6560  159.6358 H   0  0  0  0  0  0  0  0  0  0  0  0  # atno 6909 bound_to 6896
  145.8368  140.8444  143.0055 H   0  0  0  0  0  0  0  0  0  0  0  0  # atno 7974 bound_to 7965
  155.0179  140.3144  155.4805 H   0  0  0  0  0  0  0  0  0  0  0  0  # atno 8008 bound_to 7997
  156.2897  140.2203  156.5237 H   0  0  0  0  0  0  0  0  0  0  0  0  # atno 8009 bound_to 7997
  154.7478  140.0468  157.0855 H   0  0  0  0  0  0  0  0  0  0  0  0  # atno 8010 bound_to 7997
  139.4829  144.5303  151.7733 H   0  0  0  0  0  0  0  0  0  0  0  0  # atno 10167 bound_to 10162
  156.6807  130.5036  149.5972 H   0  0  0  0  0  0  0  0  0  0  0  0  # atno 10718 bound_to 10713
  154.7092  135.5143  153.8640 H   0  0  0  0  0  0  0  0  0  0  0  0  # atno 10763 bound_to 10752
  153.0766  135.6618  154.0142 H   0  0  0  0  0  0  0  0  0  0  0  0  # atno 10764 bound_to 10752
  153.9987  135.3013  155.3384 H   0  0  0  0  0  0  0  0  0  0  0  0  # atno 10765 bound_to 10752
  139.9125  134.9624  156.7570 H   0  0  0  0  0  0  0  0  0  0  0  0  # atno 11005 bound_to 11000
  144.6736  140.0753  143.7471 LP  0  0  0  0  0  0  0  0  0  0  0  0  # atno 17320 bound_to 7965
  145.9510  139.2734  143.1212 LP  0  0  0  0  0  0  0  0  0  0  0  0  # atno 17321 bound_to 7965
  140.4829  144.1424  150.5936 LP  0  0  0  0  0  0  0  0  0  0  0  0  # atno 17342 bound_to 10162
  140.4258  143.2590  151.9658 LP  0  0  0  0  0  0  0  0  0  0  0  0  # atno 17343 bound_to 10162
  156.1870  130.6535  151.1017 LP  0  0  0  0  0  0  0  0  0  0  0  0  # atno 17370 bound_to 10713
  157.7045  131.0762  150.6714 LP  0  0  0  0  0  0  0  0  0  0  0  0  # atno 17371 bound_to 10713
  140.6728  133.9544  155.7866 LP  0  0  0  0  0  0  0  0  0  0  0  0  # atno 17394 bound_to 11000
  141.0566  134.0408  157.3715 LP  0  0  0  0  0  0  0  0  0  0  0  0  # atno 17395 bound_to 11000

$$$$
