AV-unprocessed.smi:166|AV-procd|sdf|1389|dock2
  -GOLD-   2262019123D 1   1.00000     0.00000
 Structure written by MMmdl.
 54 58  0  0  0  0  0  0  0  0  1 V2000
  143.1891  133.9932  152.9057 O   0  0  0  0  0  0  0  0  0  0  0  0
  144.4231  134.6755  153.0515 C   0  0  2  0  0  0  0  0  0  0  0  0
  144.5442  135.2011  154.5015 C   0  0  0  0  0  0  0  0  0  0  0  0
  145.8269  135.8234  154.7952 N   0  0  0  0  0  0  0  0  0  0  0  0
  146.7820  135.3630  155.6737 C   0  0  0  0  0  0  0  0  0  0  0  0
  147.8506  136.1049  155.7744 N   0  0  0  0  0  0  0  0  0  0  0  0
  147.6126  137.1633  154.9056 C   0  0  0  0  0  0  0  0  0  0  0  0
  148.3446  138.3281  154.5396 C   0  0  0  0  0  0  0  0  0  0  0  0
  149.5711  138.6116  155.0467 N   0  0  0  0  0  0  0  0  0  0  0  0
  150.6786  137.8982  154.4121 C   0  0  0  0  0  0  0  0  0  0  0  0
  151.9348  137.9425  155.2968 C   0  0  0  0  0  0  0  0  0  0  0  0
  152.2918  139.3887  155.6714 C   0  0  0  0  0  0  0  0  0  0  0  0
  151.0915  140.0850  156.3337 C   0  0  1  0  0  0  0  0  0  0  0  0
  151.4610  141.4360  156.5743 O   0  0  0  0  0  0  0  0  0  0  0  0
  150.6592  142.1046  157.5392 C   0  0  0  0  0  0  0  0  0  0  0  0
  151.5079  142.9680  158.4546 C   0  0  0  0  0  0  0  0  0  0  0  0
  151.0073  144.3106  158.9466 C   0  0  0  0  0  0  0  0  0  0  0  0
  152.1374  144.2521  157.9545 C   0  0  0  0  0  0  0  0  0  0  0  0
  149.8519  139.9996  155.4182 C   0  0  0  0  0  0  0  0  0  0  0  0
  147.7652  139.1759  153.6478 N   0  0  0  0  0  0  0  0  0  0  0  0
  146.5577  138.9039  153.1441 C   0  0  0  0  0  0  0  0  0  0  0  0
  145.7655  137.8596  153.3933 N   0  0  0  0  0  0  0  0  0  0  0  0
  146.3389  137.0058  154.2888 C   0  0  0  0  0  0  0  0  0  0  0  0
  144.4754  135.7914  152.0147 C   0  0  0  0  0  0  0  0  0  0  0  0
  145.0823  135.0982  150.8025 C   0  0  0  0  0  0  0  0  0  0  0  0
  146.0684  134.2616  151.3819 O   0  0  0  0  0  0  0  0  0  0  0  0
  145.5604  133.7332  152.6033 C   0  0  0  0  0  0  0  0  0  0  0  0
  143.2250  133.1995  153.4170 H   0  0  0  0  0  0  0  0  0  0  0  0
  143.7563  135.9277  154.7038 H   0  0  0  0  0  0  0  0  0  0  0  0
  144.3934  134.3851  155.2095 H   0  0  0  0  0  0  0  0  0  0  0  0
  146.6605  134.4523  156.2424 H   0  0  0  0  0  0  0  0  0  0  0  0
  150.4197  136.8602  154.2057 H   0  0  0  0  0  0  0  0  0  0  0  0
  150.8871  138.3650  153.4485 H   0  0  0  0  0  0  0  0  0  0  0  0
  151.7626  137.3613  156.2036 H   0  0  0  0  0  0  0  0  0  0  0  0
  152.7716  137.4718  154.7805 H   0  0  0  0  0  0  0  0  0  0  0  0
  153.1506  139.4004  156.3434 H   0  0  0  0  0  0  0  0  0  0  0  0
  152.5886  139.9360  154.7756 H   0  0  0  0  0  0  0  0  0  0  0  0
  150.8850  139.5837  157.2813 H   0  0  0  0  0  0  0  0  0  0  0  0
  149.9199  142.7415  157.0538 H   0  0  0  0  0  0  0  0  0  0  0  0
  150.1212  141.3784  158.1502 H   0  0  0  0  0  0  0  0  0  0  0  0
  152.1031  142.3946  159.1629 H   0  0  0  0  0  0  0  0  0  0  0  0
  150.0418  144.6620  158.5876 H   0  0  0  0  0  0  0  0  0  0  0  0
  151.2514  144.5915  159.9691 H   0  0  0  0  0  0  0  0  0  0  0  0
  153.1348  144.4942  158.3157 H   0  0  0  0  0  0  0  0  0  0  0  0
  151.9258  144.5637  156.9335 H   0  0  0  0  0  0  0  0  0  0  0  0
  150.0158  140.5871  154.5138 H   0  0  0  0  0  0  0  0  0  0  0  0
  148.9842  140.4214  155.9261 H   0  0  0  0  0  0  0  0  0  0  0  0
  146.1709  139.6270  152.4412 H   0  0  0  0  0  0  0  0  0  0  0  0
  143.5060  136.2467  151.8082 H   0  0  0  0  0  0  0  0  0  0  0  0
  145.1500  136.5832  152.3437 H   0  0  0  0  0  0  0  0  0  0  0  0
  144.3399  134.4885  150.2851 H   0  0  0  0  0  0  0  0  0  0  0  0
  145.5161  135.7975  150.0875 H   0  0  0  0  0  0  0  0  0  0  0  0
  146.3789  133.6967  153.3207 H   0  0  0  0  0  0  0  0  0  0  0  0
  145.2139  132.7099  152.4516 H   0  0  0  0  0  0  0  0  0  0  0  0
  1  2  1  0  0  0  0
  1 28  1  0  0  0  0
  2 27  1  0  0  0  0
  2  3  1  0  0  0  0
  2 24  1  0  0  0  0
  3  4  1  0  0  0  0
  3 29  1  0  0  0  0
  3 30  1  0  0  0  0
  4 23  1  0  0  0  0
  4  5  1  0  0  0  0
  5  6  2  0  0  0  0
  5 31  1  0  0  0  0
  6  7  1  0  0  0  0
  7 23  2  0  0  0  0
  7  8  1  0  0  0  0
  8  9  1  0  0  0  0
  8 20  2  0  0  0  0
  9 19  1  0  0  0  0
  9 10  1  0  0  0  0
 10 11  1  0  0  0  0
 10 32  1  0  0  0  0
 10 33  1  0  0  0  0
 11 12  1  0  0  0  0
 11 34  1  0  0  0  0
 11 35  1  0  0  0  0
 12 13  1  0  0  0  0
 12 36  1  0  0  0  0
 12 37  1  0  0  0  0
 13 14  1  0  0  0  0
 13 19  1  0  0  0  0
 13 38  1  0  0  0  0
 14 15  1  0  0  0  0
 15 16  1  0  0  0  0
 15 39  1  0  0  0  0
 15 40  1  0  0  0  0
 16 18  1  0  0  0  0
 16 17  1  0  0  0  0
 16 41  1  0  0  0  0
 17 18  1  0  0  0  0
 17 42  1  0  0  0  0
 17 43  1  0  0  0  0
 18 44  1  0  0  0  0
 18 45  1  0  0  0  0
 19 46  1  0  0  0  0
 19 47  1  0  0  0  0
 20 21  1  0  0  0  0
 21 22  2  0  0  0  0
 21 48  1  0  0  0  0
 22 23  1  0  0  0  0
 24 25  1  0  0  0  0
 24 49  1  0  0  0  0
 24 50  1  0  0  0  0
 25 26  1  0  0  0  0
 25 51  1  0  0  0  0
 25 52  1  0  0  0  0
 26 27  1  0  0  0  0
 27 53  1  0  0  0  0
 27 54  1  0  0  0  0
M  END
> <s_m_source_file>
AV-unprocessed.smi

> <i_m_source_file_index>
166

> <i_lp_mmshare_version>
43012

> <i_f3d_flags>
0

> <s_epik_input>
W0NIMl0xT1tDSDJdW0NIMl1bQ0BAXTEoW09IXSlbQ0gyXW4oW2NIXW4yKWMoYzIzKW5bY0hdbmMzTjRbQ0gyXVtDSDJdW0NIMl1bQ0BIXShbQ0gyXTQpT1tDSDJdW0NIXTVbQ0gyXVtDSDJdNQ==

> <s_epik_cmdline>
J2VwaWtfcHl0aG9uJywgJy1waCcsICc3LjAnLCAnLXRuJywgJzgnLCAnLW1hJywgJzIwMCcsICctbWV0YWxfYmluZGluZycsICctaW1hZScsICc8aW5maWxlLm1hZT4nLCAnLW9tYWUnLCAnPG91dGZpbGUubWFlPic=

> <r_lp_tautomer_probability>
1

> <r_epik_Ionization_Penalty>
0.00342552

> <r_epik_Ionization_Penalty_Charging>
0

> <r_epik_Ionization_Penalty_Neutral>
0.00342552

> <r_epik_State_Penalty>
0.0022204

> <r_epik_Charging_Adjusted_Penalty>
0.0022204

> <i_epik_Tot_Q>
0

> <i_epik_Tot_abs_Q>
0

> <r_epik_Metal_State_Penalty>
-0

> <b_epik_Metal_Only>
0

> <s_lp_Force_Field>
OPLS_2005

> <r_lp_Energy>
44.6649

> <b_lp_Chiralities_Consistent>
1

> <s_lp_Variant>
AV-unprocessed.smi:166-2

> <Gold.Version>
5.8.1

> <Gold.Id.Protein>
6NUR|6NUR_protein|mol2

> <Gold.PLP.Fitness>
41.4626

> <Gold.PLP.PLP>
-37.2675

> <Gold.PLP.part.hbond>
-1.0000

> <Gold.PLP.part.metal>
0.0000

> <Gold.PLP.part.buried>
-3.4436

> <Gold.PLP.part.nonpolar>
-34.6221

> <Gold.PLP.part.repulsive>
0.7959

> <Gold.PLP.ligand.clash>
0.0000

> <Gold.PLP.ligand.torsion>
1.3626

> <Gold.PLP.Chemscore.Hbond>
1.0000

> <Gold.PLP.Chemscore.CHOScore>
0.9741

> <Gold.PLP.Chemscore.Metal>
0.0000

> <Gold.Chemscore.Hbonds>
donor molecule, donor type, donor heavy atom, donor atom, acceptor molecule, acceptor atom, score
      L1  H     1    28       P1 10957  0.94
      L1  C    21    48       P1 10175  0.67

> <Gold.PLP.Chemscore.Internal.Correction>
0.9982

> <Gold.Rescore>
     Score         DG    S(hbond)    S(metal)    S(lipo)     H(rot)  DE(clash)    DE(int)     intcor
     11.23     -12.88       0.99        0.00      93.71       2.68       0.19       1.47       ----

> <Gold.Chemscore.Fitness>
11.2286

> <Gold.Chemscore.DG>
-12.8829

> <Gold.Chemscore.ZeroCoef>
-5.4800

> <Gold.Chemscore.Hbond>
0.9891

> <Gold.Chemscore.Metal>
0.0000

> <Gold.Chemscore.Lipo>
93.7127

> <Gold.Chemscore.Internal_Hbond>
0.0000

> <Gold.Chemscore.DEClash>
0.1886

> <Gold.Chemscore.DEInternal>
1.4658

> <Gold.Chemscore.Rot>
2.6817

> <Gold.Chemscore.Internal.Correction>
   9.000000E+99

> <Gold.Chemscore.Hbonds>
donor molecule, donor type, donor heavy atom, donor atom, acceptor molecule, acceptor atom, score
      L1  H     1    28       P1 10957  0.84

> <Gold.Chemscore.Hbond.Weighted>
-3.3036

> <Gold.Chemscore.Metal.Weighted>
-0.0000

> <Gold.Chemscore.Lipo.Weighted>
-10.9644

> <Gold.Chemscore.Internal_Hbond.Weighted>
0.0000

> <Gold.Chemscore.DEClash.Weighted>
0.1886

> <Gold.Chemscore.DEInternal.Weighted>
1.4658

> <Gold.Chemscore.Rot.Weighted>
6.8651

> <Gold.Chemscore.Internal.Correction.Weighted>
   9.000000E+99

> <Gold.Protein.RotatedTorsions>
[ 6907 6896 6895 6894 ] final   40.45 input  -60.11 | X-H torsion
[ 7974 7965 7964 7962 ] final   47.34 input  175.53 | X-H torsion
[ 8008 7997 7996 7995 ] final -163.62 input   59.86 | X-H torsion
[ 10167 10162 10161 10158 ] final  -44.89 input  -65.29 | X-H torsion
[ 10718 10713 10712 10709 ] final -161.00 input   66.30 | X-H torsion
[ 10763 10752 10751 10750 ] final  154.47 input  -60.55 | X-H torsion
[ 11005 11000 10999 10996 ] final  -37.76 input  -57.11 | X-H torsion

> <Gold.Protein.ActiveResidues>
 VAL166  LYS551  ARG553  GLY616  TRP617  ASP618  TYR619  PRO620  LYS621  CYS622 
 ASP623  PHE694  ASN695  SER759  ASP760  ASP761  ALA762  ILE779  LEU786  VAL792 
 PHE793  MET794  SER795  GLU796  ALA797  LYS798  CYS799  TRP800  GLU811  SER814 

> <Gold.Protein.RotatedAtoms>
  152.1826  134.8741  160.0524 H   0  0  0  0  0  0  0  0  0  0  0  0  # atno 6907 bound_to 6896
  151.9659  133.3705  159.4061 H   0  0  0  0  0  0  0  0  0  0  0  0  # atno 6908 bound_to 6896
  150.6920  134.4115  159.5207 H   0  0  0  0  0  0  0  0  0  0  0  0  # atno 6909 bound_to 6896
  146.0307  139.4760  142.9839 H   0  0  0  0  0  0  0  0  0  0  0  0  # atno 7974 bound_to 7965
  155.8239  140.0923  157.1833 H   0  0  0  0  0  0  0  0  0  0  0  0  # atno 8008 bound_to 7997
  154.3979  140.1431  156.3593 H   0  0  0  0  0  0  0  0  0  0  0  0  # atno 8009 bound_to 7997
  155.8237  140.3445  155.5532 H   0  0  0  0  0  0  0  0  0  0  0  0  # atno 8010 bound_to 7997
  140.6879  143.2907  151.3560 H   0  0  0  0  0  0  0  0  0  0  0  0  # atno 10167 bound_to 10162
  156.5900  130.8766  151.2887 H   0  0  0  0  0  0  0  0  0  0  0  0  # atno 10718 bound_to 10713
  154.1528  135.2814  155.3130 H   0  0  0  0  0  0  0  0  0  0  0  0  # atno 10763 bound_to 10752
  154.6204  135.5469  153.7573 H   0  0  0  0  0  0  0  0  0  0  0  0  # atno 10764 bound_to 10752
  153.0216  135.6437  154.1672 H   0  0  0  0  0  0  0  0  0  0  0  0  # atno 10765 bound_to 10752
  140.9976  133.6972  156.1963 H   0  0  0  0  0  0  0  0  0  0  0  0  # atno 11005 bound_to 11000
  145.7045  141.0125  143.1486 LP  0  0  0  0  0  0  0  0  0  0  0  0  # atno 17320 bound_to 7965
  144.7029  139.8684  143.7439 LP  0  0  0  0  0  0  0  0  0  0  0  0  # atno 17321 bound_to 7965
  139.6255  144.0823  152.2430 LP  0  0  0  0  0  0  0  0  0  0  0  0  # atno 17342 bound_to 10162
  140.0281  144.6102  150.7510 LP  0  0  0  0  0  0  0  0  0  0  0  0  # atno 17343 bound_to 10162
  157.7306  130.9687  150.1840 LP  0  0  0  0  0  0  0  0  0  0  0  0  # atno 17370 bound_to 10713
  156.2558  130.3705  149.8183 LP  0  0  0  0  0  0  0  0  0  0  0  0  # atno 17371 bound_to 10713
  140.6940  134.4635  157.5588 LP  0  0  0  0  0  0  0  0  0  0  0  0  # atno 17394 bound_to 11000
  139.9022  134.8529  156.1847 LP  0  0  0  0  0  0  0  0  0  0  0  0  # atno 17395 bound_to 11000

$$$$
