AV-unprocessed.smi:3265|AV-procd|sdf|12499|dock7
  -GOLD-   2272018403D 1   1.00000     0.00000
 Structure written by MMmdl.
 41 42  0  0  0  0  0  0  0  0  2 V2000
  150.2195  141.9936  156.4843 C   0  0  0  0  0  0  0  0  0  0  0  0
  150.0477  140.9454  155.3755 C   0  0  1  0  0  0  0  0  0  0  0  0
  150.6461  139.5895  155.7859 C   0  0  0  0  0  0  0  0  0  0  0  0
  150.4369  138.5573  154.6712 C   0  0  0  0  0  0  0  0  0  0  0  0
  148.9509  138.4486  154.2948 C   0  0  0  0  0  0  0  0  0  0  0  0
  148.3992  139.7705  153.8989 N   0  3  1  0  0  0  0  0  0  0  0  0
  147.0031  139.6678  153.4041 C   0  0  0  0  0  0  0  0  0  0  0  0
  146.8923  138.8101  152.1288 C   0  0  0  0  0  0  0  0  0  0  0  0
  145.5909  138.1608  152.0317 N   0  0  0  0  0  0  0  0  0  0  0  0
  145.1811  137.1368  152.7968 C   0  0  0  0  0  0  0  0  0  0  0  0
  145.8678  136.6434  153.6910 O   0  0  0  0  0  0  0  0  0  0  0  0
  143.7814  136.5886  152.5145 C   0  0  0  0  0  0  0  0  0  0  0  0
  143.8457  135.3278  151.7970 N   0  0  0  0  0  0  0  0  0  0  0  0
  143.3266  134.1041  152.1666 C   0  0  0  0  0  0  0  0  0  0  0  0
  143.6426  133.2141  151.1805 C   0  0  0  0  0  0  0  0  0  0  0  0
  144.3645  133.9970  150.2367 C   0  0  0  0  0  0  0  0  0  0  0  0
  144.4856  135.2613  150.6086 N   0  0  0  0  0  0  0  0  0  0  0  0
  148.5663  140.7783  154.9812 C   0  0  0  0  0  0  0  0  0  0  0  0
  149.6940  141.7005  157.3939 H   0  0  0  0  0  0  0  0  0  0  0  0
  149.8296  142.9632  156.1731 H   0  0  0  0  0  0  0  0  0  0  0  0
  151.2716  142.1285  156.7370 H   0  0  0  0  0  0  0  0  0  0  0  0
  150.5910  141.3032  154.4995 H   0  0  0  0  0  0  0  0  0  0  0  0
  151.7103  139.6935  155.9999 H   0  0  0  0  0  0  0  0  0  0  0  0
  150.1760  139.2367  156.7052 H   0  0  0  0  0  0  0  0  0  0  0  0
  151.0188  138.8411  153.7932 H   0  0  0  0  0  0  0  0  0  0  0  0
  150.8127  137.5844  154.9897 H   0  0  0  0  0  0  0  0  0  0  0  0
  148.8441  137.7410  153.4717 H   0  0  0  0  0  0  0  0  0  0  0  0
  148.3773  138.0498  155.1332 H   0  0  0  0  0  0  0  0  0  0  0  0
  146.3874  139.2089  154.1787 H   0  0  0  0  0  0  0  0  0  0  0  0
  146.5936  140.6656  153.2389 H   0  0  0  0  0  0  0  0  0  0  0  0
  147.0127  139.4217  151.2355 H   0  0  0  0  0  0  0  0  0  0  0  0
  147.6851  138.0605  152.1013 H   0  0  0  0  0  0  0  0  0  0  0  0
  144.9605  138.4988  151.3181 H   0  0  0  0  0  0  0  0  0  0  0  0
  143.2458  136.4310  153.4516 H   0  0  0  0  0  0  0  0  0  0  0  0
  143.2062  137.3117  151.9339 H   0  0  0  0  0  0  0  0  0  0  0  0
  142.7834  133.9707  153.0907 H   0  0  0  0  0  0  0  0  0  0  0  0
  143.3959  132.1636  151.1393 H   0  0  0  0  0  0  0  0  0  0  0  0
  144.8014  133.6859  149.2993 H   0  0  0  0  0  0  0  0  0  0  0  0
  147.9763  140.4789  155.8492 H   0  0  0  0  0  0  0  0  0  0  0  0
  148.1788  141.7430  154.6565 H   0  0  0  0  0  0  0  0  0  0  0  0
  148.9566  140.0823  153.1163 H   0  0  0  0  0  0  0  0  0  0  0  0
  1  2  1  0  0  0  0
  1 19  1  0  0  0  0
  1 20  1  0  0  0  0
  1 21  1  0  0  0  0
  2 18  1  0  0  0  0
  2  3  1  0  0  0  0
  2 22  1  0  0  0  0
  3  4  1  0  0  0  0
  3 23  1  0  0  0  0
  3 24  1  0  0  0  0
  4  5  1  0  0  0  0
  4 25  1  0  0  0  0
  4 26  1  0  0  0  0
  5  6  1  0  0  0  0
  5 27  1  0  0  0  0
  5 28  1  0  0  0  0
  6  7  1  0  0  0  0
  6 18  1  0  0  0  0
  6 41  1  0  0  0  0
  7  8  1  0  0  0  0
  7 29  1  0  0  0  0
  7 30  1  0  0  0  0
  8  9  1  0  0  0  0
  8 31  1  0  0  0  0
  8 32  1  0  0  0  0
  9 10  1  0  0  0  0
  9 33  1  0  0  0  0
 10 11  2  0  0  0  0
 10 12  1  0  0  0  0
 12 13  1  0  0  0  0
 12 34  1  0  0  0  0
 12 35  1  0  0  0  0
 13 17  1  0  0  0  0
 13 14  1  0  0  0  0
 14 15  2  0  0  0  0
 14 36  1  0  0  0  0
 15 16  1  0  0  0  0
 15 37  1  0  0  0  0
 16 17  2  0  0  0  0
 16 38  1  0  0  0  0
 18 39  1  0  0  0  0
 18 40  1  0  0  0  0
M  CHG  1   6   1
M  END
> <s_m_source_file>
AV-unprocessed.smi

> <i_m_source_file_index>
3265

> <i_lp_mmshare_version>
43012

> <i_f3d_flags>
0

> <s_epik_input>
W0NIM11bQ0BASF0xW0NIMl1bQ0gyXVtDSDJdTihbQ0gyXTEpW0NIMl1bQ0gyXVtOSF1DKD1PKVtDSDJdbjJbY0hdW2NIXVtjSF1uMg==

> <s_epik_cmdline>
J2VwaWtfcHl0aG9uJywgJy1waCcsICc3LjAnLCAnLXRuJywgJzgnLCAnLW1hJywgJzIwMCcsICctbWV0YWxfYmluZGluZycsICctaW1hZScsICc8aW5maWxlLm1hZT4nLCAnLW9tYWUnLCAnPG91dGZpbGUubWFlPic=

> <r_lp_tautomer_probability>
1

> <r_epik_Ionization_Penalty>
0.00231455

> <r_epik_Ionization_Penalty_Charging>
0.00230623

> <r_epik_Ionization_Penalty_Neutral>
8.31727e-06

> <r_epik_State_Penalty>
0.00159065

> <r_epik_Charging_Adjusted_Penalty>
0.00389688

> <i_epik_Tot_Q>
1

> <i_epik_Tot_abs_Q>
1

> <r_epik_Metal_State_Penalty>
-0

> <b_epik_Metal_Only>
0

> <s_lp_Force_Field>
OPLS_2005

> <r_lp_Energy>
15.6905

> <b_lp_Chiralities_Consistent>
1

> <s_lp_Variant>
AV-unprocessed.smi:3265-4

> <Gold.Version>
5.8.1

> <Gold.Id.Protein>
6NUR|6NUR_protein|mol2

> <Gold.PLP.Fitness>
44.7030

> <Gold.PLP.PLP>
-33.6868

> <Gold.PLP.part.hbond>
-3.0000

> <Gold.PLP.part.metal>
0.0000

> <Gold.PLP.part.buried>
-1.7306

> <Gold.PLP.part.nonpolar>
-30.0485

> <Gold.PLP.part.repulsive>
0.4528

> <Gold.PLP.ligand.clash>
0.0000

> <Gold.PLP.ligand.torsion>
0.4785

> <Gold.PLP.Chemscore.Hbond>
2.0000

> <Gold.PLP.Chemscore.CHOScore>
1.9834

> <Gold.PLP.Chemscore.Metal>
0.0000

> <Gold.Chemscore.Hbonds>
donor molecule, donor type, donor heavy atom, donor atom, acceptor molecule, acceptor atom, score
      L1  H     6    41       P1  7957  0.93
      L1  H     9    33       P1 10171  1.00
      L1  C    14    36       P1 10957  0.39
      L1  C    16    38       P1  7921  1.00

> <Gold.PLP.Chemscore.Internal.Correction>
0.0229

> <Gold.Rescore>
     Score         DG    S(hbond)    S(metal)    S(lipo)     H(rot)  DE(clash)    DE(int)     intcor
     15.90     -17.16       1.96        0.00      84.02       1.84       0.65       0.61       ----

> <Gold.Chemscore.Fitness>
15.8965

> <Gold.Chemscore.DG>
-17.1563

> <Gold.Chemscore.ZeroCoef>
-5.4800

> <Gold.Chemscore.Hbond>
1.9619

> <Gold.Chemscore.Metal>
0.0000

> <Gold.Chemscore.Lipo>
84.0202

> <Gold.Chemscore.Internal_Hbond>
0.0000

> <Gold.Chemscore.DEClash>
0.6499

> <Gold.Chemscore.DEInternal>
0.6098

> <Gold.Chemscore.Rot>
1.8386

> <Gold.Chemscore.Internal.Correction>
   9.000000E+99

> <Gold.Chemscore.Hbonds>
donor molecule, donor type, donor heavy atom, donor atom, acceptor molecule, acceptor atom, score
      L1  H     6    41       P1  7957  0.86
      L1  H     9    33       P1 10171  1.00

> <Gold.Chemscore.Hbond.Weighted>
-6.5528

> <Gold.Chemscore.Metal.Weighted>
-0.0000

> <Gold.Chemscore.Lipo.Weighted>
-9.8304

> <Gold.Chemscore.Internal_Hbond.Weighted>
0.0000

> <Gold.Chemscore.DEClash.Weighted>
0.6499

> <Gold.Chemscore.DEInternal.Weighted>
0.6098

> <Gold.Chemscore.Rot.Weighted>
4.7069

> <Gold.Chemscore.Internal.Correction.Weighted>
   9.000000E+99

> <Gold.Protein.RotatedTorsions>
[ 6907 6896 6895 6894 ] final  156.94 input  -60.11 | X-H torsion
[ 7974 7965 7964 7962 ] final  158.53 input  175.53 | X-H torsion
[ 8008 7997 7996 7995 ] final  -33.79 input   59.86 | X-H torsion
[ 10167 10162 10161 10158 ] final   90.67 input  -65.29 | X-H torsion
[ 10718 10713 10712 10709 ] final  -35.80 input   66.30 | X-H torsion
[ 10763 10752 10751 10750 ] final  120.21 input  -60.55 | X-H torsion
[ 11005 11000 10999 10996 ] final  135.71 input  -57.11 | X-H torsion

> <Gold.Protein.ActiveResidues>
 VAL166  LYS551  ARG553  GLY616  TRP617  ASP618  TYR619  PRO620  LYS621  CYS622 
 ASP623  PHE694  ASN695  SER759  ASP760  ASP761  ALA762  ILE779  LEU786  VAL792 
 PHE793  MET794  SER795  GLU796  ALA797  LYS798  CYS799  TRP800  GLU811  SER814 

> <Gold.Protein.RotatedAtoms>
  152.0224  133.3904  159.4263 H   0  0  0  0  0  0  0  0  0  0  0  0  # atno 6907 bound_to 6896
  150.6889  134.3611  159.4960 H   0  0  0  0  0  0  0  0  0  0  0  0  # atno 6908 bound_to 6896
  152.1387  134.9079  160.0605 H   0  0  0  0  0  0  0  0  0  0  0  0  # atno 6909 bound_to 6896
  144.7840  139.7491  143.6248 H   0  0  0  0  0  0  0  0  0  0  0  0  # atno 7974 bound_to 7965
  154.4139  140.1701  156.1946 H   0  0  0  0  0  0  0  0  0  0  0  0  # atno 8008 bound_to 7997
  155.9575  140.3396  155.6438 H   0  0  0  0  0  0  0  0  0  0  0  0  # atno 8009 bound_to 7997
  155.6791  140.0720  157.2482 H   0  0  0  0  0  0  0  0  0  0  0  0  # atno 8010 bound_to 7997
  139.8450  144.6622  150.9237 H   0  0  0  0  0  0  0  0  0  0  0  0  # atno 10167 bound_to 10162
  156.3344  130.4284  149.7843 H   0  0  0  0  0  0  0  0  0  0  0  0  # atno 10718 bound_to 10713
  153.5949  135.3459  155.2924 H   0  0  0  0  0  0  0  0  0  0  0  0  # atno 10763 bound_to 10752
  154.8646  135.4213  154.2476 H   0  0  0  0  0  0  0  0  0  0  0  0  # atno 10764 bound_to 10752
  153.3291  135.7043  153.7034 H   0  0  0  0  0  0  0  0  0  0  0  0  # atno 10765 bound_to 10752
  139.9997  134.9483  157.0045 H   0  0  0  0  0  0  0  0  0  0  0  0  # atno 11005 bound_to 11000
  146.2063  139.5390  142.9710 LP  0  0  0  0  0  0  0  0  0  0  0  0  # atno 17320 bound_to 7965
  145.5971  141.0361  143.2038 LP  0  0  0  0  0  0  0  0  0  0  0  0  # atno 17321 bound_to 7965
  140.7794  143.3878  151.1363 LP  0  0  0  0  0  0  0  0  0  0  0  0  # atno 17342 bound_to 10162
  139.7521  143.8763  152.3079 LP  0  0  0  0  0  0  0  0  0  0  0  0  # atno 17343 bound_to 10162
  156.5103  130.8169  151.3166 LP  0  0  0  0  0  0  0  0  0  0  0  0  # atno 17370 bound_to 10713
  157.7436  130.9916  150.2606 LP  0  0  0  0  0  0  0  0  0  0  0  0  # atno 17371 bound_to 10713
  140.4750  134.1347  155.7208 LP  0  0  0  0  0  0  0  0  0  0  0  0  # atno 17394 bound_to 11000
  141.1632  133.8752  157.1788 LP  0  0  0  0  0  0  0  0  0  0  0  0  # atno 17395 bound_to 11000

$$$$
