AV-unprocessed.smi:21|AV-procd|sdf|168|dock2
  -GOLD-   2262015413D 1   1.00000     0.00000
 Structure written by MMmdl.
 61 64  0  0  0  0  0  0  0  0  1 V2000
  148.5392  129.1638  152.9609 C   0  0  0  0  0  0  0  0  0  0  0  0
  148.9294  129.9626  154.0673 O   0  0  0  0  0  0  0  0  0  0  0  0
  149.3063  131.2816  153.6978 C   0  0  2  0  0  0  0  0  0  0  0  0
  149.7777  132.1070  154.9038 C   0  0  0  0  0  0  0  0  0  0  0  0
  149.0711  133.4575  154.7276 C   0  0  2  0  0  0  0  0  0  0  0  0
  148.9623  134.2880  156.0289 C   0  0  0  0  0  0  0  0  0  0  0  0
  150.2168  134.9298  156.4283 N   0  0  0  0  0  0  0  0  0  0  0  0
  151.4228  134.1071  156.4367 C   0  0  0  0  0  0  0  0  0  0  0  0
  150.1405  135.9634  157.3094 C   0  0  0  0  0  0  0  0  0  0  0  0
  149.4632  135.7910  158.4768 N   0  0  0  0  0  0  0  0  0  0  0  0
  149.3018  136.8101  159.3247 C   0  0  0  0  0  0  0  0  0  0  0  0
  149.7228  138.0692  159.2036 N   0  0  0  0  0  0  0  0  0  0  0  0
  150.4276  138.2459  158.0501 C   0  0  0  0  0  0  0  0  0  0  0  0
  150.7010  137.2517  157.0676 C   0  0  0  0  0  0  0  0  0  0  0  0
  151.4865  137.7970  156.0580 N   0  0  0  0  0  0  0  0  0  0  0  0
  151.6445  139.0429  156.4087 C   0  0  0  0  0  0  0  0  0  0  0  0
  151.0015  139.4100  157.5687 N   0  0  0  0  0  0  0  0  0  0  0  0
  150.9794  140.7334  158.1678 C   0  0  0  0  0  0  0  0  0  0  0  0
  151.5985  141.8497  157.2793 C   0  0  1  0  0  0  0  0  0  0  0  0
  150.7151  142.0564  156.0262 C   0  0  0  0  0  0  0  0  0  0  0  0
  149.3847  142.3715  156.3822 O   0  0  0  0  0  0  0  0  0  0  0  0
  151.8112  143.2013  158.0232 C   0  0  1  0  0  0  0  0  0  0  0  0
  150.6058  143.7859  158.7436 C   0  0  0  0  0  0  0  0  0  0  0  0
  151.2523  144.7574  159.7188 C   0  0  0  0  0  0  0  0  0  0  0  0
  152.4242  144.0902  160.1578 O   0  0  0  0  0  0  0  0  0  0  0  0
  152.8177  143.1269  159.1847 C   0  0  0  0  0  0  0  0  0  0  0  0
  147.7882  133.0953  154.1454 N   0  0  0  0  0  0  0  0  0  0  0  0
  147.0645  134.2149  153.5574 C   0  0  0  0  0  0  0  0  0  0  0  0
  148.0999  132.0672  153.1661 C   0  0  0  0  0  0  0  0  0  0  0  0
  150.0727  131.2541  152.9210 H   0  0  0  0  0  0  0  0  0  0  0  0
  149.6335  134.0335  153.9905 H   0  0  0  0  0  0  0  0  0  0  0  0
  148.2419  128.1747  153.3082 H   0  0  0  0  0  0  0  0  0  0  0  0
  149.3553  129.0358  152.2493 H   0  0  0  0  0  0  0  0  0  0  0  0
  147.6879  129.6027  152.4394 H   0  0  0  0  0  0  0  0  0  0  0  0
  149.4507  131.6358  155.8324 H   0  0  0  0  0  0  0  0  0  0  0  0
  150.8635  132.1969  154.9349 H   0  0  0  0  0  0  0  0  0  0  0  0
  148.2320  135.0849  155.8914 H   0  0  0  0  0  0  0  0  0  0  0  0
  148.5559  133.6669  156.8236 H   0  0  0  0  0  0  0  0  0  0  0  0
  152.3176  134.7296  156.4009 H   0  0  0  0  0  0  0  0  0  0  0  0
  151.4417  133.4482  155.5685 H   0  0  0  0  0  0  0  0  0  0  0  0
  151.4656  133.4877  157.3332 H   0  0  0  0  0  0  0  0  0  0  0  0
  148.7431  136.5882  160.2218 H   0  0  0  0  0  0  0  0  0  0  0  0
  152.2114  139.7402  155.8091 H   0  0  0  0  0  0  0  0  0  0  0  0
  149.9351  140.9532  158.3901 H   0  0  0  0  0  0  0  0  0  0  0  0
  151.4921  140.6944  159.1297 H   0  0  0  0  0  0  0  0  0  0  0  0
  152.5748  141.5143  156.9284 H   0  0  0  0  0  0  0  0  0  0  0  0
  151.1179  142.8491  155.3950 H   0  0  0  0  0  0  0  0  0  0  0  0
  150.6707  141.1557  155.4154 H   0  0  0  0  0  0  0  0  0  0  0  0
  149.2098  143.2662  156.1323 H   0  0  0  0  0  0  0  0  0  0  0  0
  152.1670  143.9466  157.3097 H   0  0  0  0  0  0  0  0  0  0  0  0
  149.9135  144.3025  158.0820 H   0  0  0  0  0  0  0  0  0  0  0  0
  150.0621  143.0102  159.2846 H   0  0  0  0  0  0  0  0  0  0  0  0
  151.5403  145.6761  159.2064 H   0  0  0  0  0  0  0  0  0  0  0  0
  150.5983  145.0222  160.5492 H   0  0  0  0  0  0  0  0  0  0  0  0
  152.7975  142.1458  159.6607 H   0  0  0  0  0  0  0  0  0  0  0  0
  153.8381  143.3161  158.8510 H   0  0  0  0  0  0  0  0  0  0  0  0
  146.1404  133.8708  153.0920 H   0  0  0  0  0  0  0  0  0  0  0  0
  147.6621  134.7158  152.7946 H   0  0  0  0  0  0  0  0  0  0  0  0
  146.7946  134.9494  154.3157 H   0  0  0  0  0  0  0  0  0  0  0  0
  148.3760  132.5280  152.2162 H   0  0  0  0  0  0  0  0  0  0  0  0
  147.2361  131.4289  152.9778 H   0  0  0  0  0  0  0  0  0  0  0  0
  1  2  1  0  0  0  0
  1 32  1  0  0  0  0
  1 33  1  0  0  0  0
  1 34  1  0  0  0  0
  2  3  1  0  0  0  0
  3 30  1  0  0  0  0
  3 29  1  0  0  0  0
  3  4  1  0  0  0  0
  4  5  1  0  0  0  0
  4 35  1  0  0  0  0
  4 36  1  0  0  0  0
  5 31  1  0  0  0  0
  5  6  1  0  0  0  0
  5 27  1  0  0  0  0
  6  7  1  0  0  0  0
  6 37  1  0  0  0  0
  6 38  1  0  0  0  0
  7  8  1  0  0  0  0
  7  9  1  0  0  0  0
  8 39  1  0  0  0  0
  8 40  1  0  0  0  0
  8 41  1  0  0  0  0
  9 14  1  0  0  0  0
  9 10  2  0  0  0  0
 10 11  1  0  0  0  0
 11 12  2  0  0  0  0
 11 42  1  0  0  0  0
 12 13  1  0  0  0  0
 13 17  1  0  0  0  0
 13 14  2  0  0  0  0
 14 15  1  0  0  0  0
 15 16  2  0  0  0  0
 16 17  1  0  0  0  0
 16 43  1  0  0  0  0
 17 18  1  0  0  0  0
 18 19  1  0  0  0  0
 18 44  1  0  0  0  0
 18 45  1  0  0  0  0
 19 20  1  0  0  0  0
 19 22  1  0  0  0  0
 19 46  1  0  0  0  0
 20 21  1  0  0  0  0
 20 47  1  0  0  0  0
 20 48  1  0  0  0  0
 21 49  1  0  0  0  0
 22 26  1  0  0  0  0
 22 23  1  0  0  0  0
 22 50  1  0  0  0  0
 23 24  1  0  0  0  0
 23 51  1  0  0  0  0
 23 52  1  0  0  0  0
 24 25  1  0  0  0  0
 24 53  1  0  0  0  0
 24 54  1  0  0  0  0
 25 26  1  0  0  0  0
 26 55  1  0  0  0  0
 26 56  1  0  0  0  0
 27 28  1  0  0  0  0
 27 29  1  0  0  0  0
 28 57  1  0  0  0  0
 28 58  1  0  0  0  0
 28 59  1  0  0  0  0
 29 60  1  0  0  0  0
 29 61  1  0  0  0  0
M  END
> <s_m_source_file>
AV-unprocessed.smi

> <i_m_source_file_index>
21

> <i_lp_mmshare_version>
43012

> <i_f3d_flags>
0

> <s_epik_input>
W0NIM11PW0NASF0xW0NIMl1bQ0BIXShOKFtDSDNdKVtDSDJdMSlbQ0gyXU4oW0NIM10pYyhuW2NIXW4yKWMoYzIzKW5bY0hdbjNbQ0gyXVtDQEhdKFtDSDJdW09IXSlbQ0BASF00W0NIMl1bQ0gyXU9bQ0gyXTQ=

> <s_epik_cmdline>
J2VwaWtfcHl0aG9uJywgJy1waCcsICc3LjAnLCAnLXRuJywgJzgnLCAnLW1hJywgJzIwMCcsICctbWV0YWxfYmluZGluZycsICctaW1hZScsICc8aW5maWxlLm1hZT4nLCAnLW9tYWUnLCAnPG91dGZpbGUubWFlPic=

> <r_lp_tautomer_probability>
1

> <r_epik_Ionization_Penalty>
2.17574

> <r_epik_Ionization_Penalty_Charging>
0

> <r_epik_Ionization_Penalty_Neutral>
2.17574

> <r_epik_State_Penalty>
2.31336

> <r_epik_Charging_Adjusted_Penalty>
2.31336

> <i_epik_Tot_Q>
0

> <i_epik_Tot_abs_Q>
0

> <r_epik_Metal_State_Penalty>
2.31025

> <b_epik_Metal_Only>
0

> <s_lp_Force_Field>
OPLS_2005

> <r_lp_Energy>
69.8341

> <b_lp_Chiralities_Consistent>
1

> <s_lp_Variant>
AV-unprocessed.smi:21-48

> <Gold.Version>
5.8.1

> <Gold.Id.Protein>
6NUR|6NUR_protein|mol2

> <Gold.PLP.Fitness>
45.4007

> <Gold.PLP.PLP>
-42.2759

> <Gold.PLP.part.hbond>
-2.9468

> <Gold.PLP.part.metal>
0.0000

> <Gold.PLP.part.buried>
-7.0395

> <Gold.PLP.part.nonpolar>
-32.1361

> <Gold.PLP.part.repulsive>
0.1738

> <Gold.PLP.ligand.clash>
0.0000

> <Gold.PLP.ligand.torsion>
1.7131

> <Gold.PLP.Chemscore.Hbond>
1.9500

> <Gold.PLP.Chemscore.CHOScore>
0.0000

> <Gold.PLP.Chemscore.Metal>
0.0000

> <Gold.Chemscore.Hbonds>
donor molecule, donor type, donor heavy atom, donor atom, acceptor molecule, acceptor atom, score
      L1  H    21    49       P1  8028  1.00
      P1  H  6896  6907       L1    10  0.85

> <Gold.PLP.Chemscore.Internal.Correction>
0.7010

> <Gold.Rescore>
     Score         DG    S(hbond)    S(metal)    S(lipo)     H(rot)  DE(clash)    DE(int)     intcor
     10.26     -13.09       0.99        0.00     102.45       3.00       0.00       2.82       ----

> <Gold.Chemscore.Fitness>
10.2610

> <Gold.Chemscore.DG>
-13.0901

> <Gold.Chemscore.ZeroCoef>
-5.4800

> <Gold.Chemscore.Hbond>
0.9915

> <Gold.Chemscore.Metal>
0.0000

> <Gold.Chemscore.Lipo>
102.4474

> <Gold.Chemscore.Internal_Hbond>
0.0000

> <Gold.Chemscore.DEClash>
0.0048

> <Gold.Chemscore.DEInternal>
2.8243

> <Gold.Chemscore.Rot>
3.0031

> <Gold.Chemscore.Internal.Correction>
   9.000000E+99

> <Gold.Chemscore.Hbonds>
donor molecule, donor type, donor heavy atom, donor atom, acceptor molecule, acceptor atom, score
      L1  H    21    49       P1  8028  0.96
      P1  H  6896  6907       L1    10  0.05

> <Gold.Chemscore.Hbond.Weighted>
-3.3117

> <Gold.Chemscore.Metal.Weighted>
-0.0000

> <Gold.Chemscore.Lipo.Weighted>
-11.9863

> <Gold.Chemscore.Internal_Hbond.Weighted>
0.0000

> <Gold.Chemscore.DEClash.Weighted>
0.0048

> <Gold.Chemscore.DEInternal.Weighted>
2.8243

> <Gold.Chemscore.Rot.Weighted>
7.6880

> <Gold.Chemscore.Internal.Correction.Weighted>
   9.000000E+99

> <Gold.Protein.RotatedTorsions>
[ 6907 6896 6895 6894 ] final  -59.53 input  -60.11 | X-H torsion
[ 7974 7965 7964 7962 ] final  -66.19 input  175.53 | X-H torsion
[ 8008 7997 7996 7995 ] final  170.85 input   59.86 | X-H torsion
[ 10167 10162 10161 10158 ] final   22.43 input  -65.29 | X-H torsion
[ 10718 10713 10712 10709 ] final  121.37 input   66.30 | X-H torsion
[ 10763 10752 10751 10750 ] final  -67.64 input  -60.55 | X-H torsion
[ 11005 11000 10999 10996 ] final   84.26 input  -57.11 | X-H torsion

> <Gold.Protein.ActiveResidues>
 VAL166  LYS551  ARG553  GLY616  TRP617  ASP618  TYR619  PRO620  LYS621  CYS622 
 ASP623  PHE694  ASN695  SER759  ASP760  ASP761  ALA762  ILE779  LEU786  VAL792 
 PHE793  MET794  SER795  GLU796  ALA797  LYS798  CYS799  TRP800  GLU811  SER814 

> <Gold.Protein.RotatedAtoms>
  150.7923  134.6957  159.6521 H   0  0  0  0  0  0  0  0  0  0  0  0  # atno 6907 bound_to 6896
  152.4031  134.6250  160.0070 H   0  0  0  0  0  0  0  0  0  0  0  0  # atno 6908 bound_to 6896
  151.6515  133.3284  159.3189 H   0  0  0  0  0  0  0  0  0  0  0  0  # atno 6909 bound_to 6896
  145.7449  140.8936  143.0510 H   0  0  0  0  0  0  0  0  0  0  0  0  # atno 7974 bound_to 7965
  156.1327  140.1527  156.9042 H   0  0  0  0  0  0  0  0  0  0  0  0  # atno 8008 bound_to 7997
  154.4922  140.0848  156.7658 H   0  0  0  0  0  0  0  0  0  0  0  0  # atno 8009 bound_to 7997
  155.4227  140.3423  155.4275 H   0  0  0  0  0  0  0  0  0  0  0  0  # atno 8010 bound_to 7997
  140.5349  143.9778  150.6486 H   0  0  0  0  0  0  0  0  0  0  0  0  # atno 10167 bound_to 10162
  157.5822  131.1073  150.8164 H   0  0  0  0  0  0  0  0  0  0  0  0  # atno 10718 bound_to 10713
  154.3774  135.6081  153.5772 H   0  0  0  0  0  0  0  0  0  0  0  0  # atno 10763 bound_to 10752
  152.9789  135.5852  154.4450 H   0  0  0  0  0  0  0  0  0  0  0  0  # atno 10764 bound_to 10752
  154.4214  135.2846  155.1951 H   0  0  0  0  0  0  0  0  0  0  0  0  # atno 10765 bound_to 10752
  139.9006  134.8203  156.2420 H   0  0  0  0  0  0  0  0  0  0  0  0  # atno 11005 bound_to 11000
  144.6862  139.9511  143.7478 LP  0  0  0  0  0  0  0  0  0  0  0  0  # atno 17320 bound_to 7965
  146.0412  139.3424  143.0696 LP  0  0  0  0  0  0  0  0  0  0  0  0  # atno 17321 bound_to 7965
  140.3162  143.3166  152.0829 LP  0  0  0  0  0  0  0  0  0  0  0  0  # atno 17342 bound_to 10162
  139.4967  144.6603  151.6478 LP  0  0  0  0  0  0  0  0  0  0  0  0  # atno 17343 bound_to 10162
  156.8607  130.5112  149.5304 LP  0  0  0  0  0  0  0  0  0  0  0  0  # atno 17370 bound_to 10713
  156.0869  130.5865  150.9664 LP  0  0  0  0  0  0  0  0  0  0  0  0  # atno 17371 bound_to 10713
  141.0278  133.7005  156.1378 LP  0  0  0  0  0  0  0  0  0  0  0  0  # atno 17394 bound_to 11000
  140.7140  134.4430  157.5580 LP  0  0  0  0  0  0  0  0  0  0  0  0  # atno 17395 bound_to 11000

$$$$
