AV-unprocessed.smi:1787|AV-procd|sdf|7209|dock3
  -GOLD-   22720 8453D 1   1.00000     0.00000
 Structure written by MMmdl.
 45 47  0  0  0  0  0  0  0  0  2 V2000
  147.7424  136.1821  156.2629 O   0  0  0  0  0  0  0  0  0  0  0  0
  148.1426  136.1607  155.1003 C   0  0  0  0  0  0  0  0  0  0  0  0
  147.7261  135.2620  154.1971 N   0  0  0  0  0  0  0  0  0  0  0  0
  146.7431  134.2028  154.4277 C   0  0  0  0  0  0  0  0  0  0  0  0
  146.7390  133.1072  153.3151 C   0  0  2  0  0  0  0  0  0  0  0  0
  145.6672  133.4539  152.3105 N   0  3  0  0  0  0  0  0  0  0  0  0
  145.8355  134.7807  151.6535 C   0  0  0  0  0  0  0  0  0  0  0  0
  144.5879  135.1422  150.8338 C   0  0  0  0  0  0  0  0  0  0  0  0
  144.3707  134.1372  149.8542 O   0  0  0  0  0  0  0  0  0  0  0  0
  144.1136  132.8739  150.4501 C   0  0  0  0  0  0  0  0  0  0  0  0
  145.3201  132.4239  151.2940 C   0  0  0  0  0  0  0  0  0  0  0  0
  146.5623  131.7046  153.9642 C   0  0  0  0  0  0  0  0  0  0  0  0
  147.8496  131.3530  154.7155 C   0  0  0  0  0  0  0  0  0  0  0  0
  149.2218  132.0460  153.7627 S   0  0  0  0  0  0  0  0  0  0  0  0
  148.1401  133.0064  152.6669 C   0  0  0  0  0  0  0  0  0  0  0  0
  149.0452  136.9995  154.5640 N   0  0  0  0  0  0  0  0  0  0  0  0
  149.7520  138.0786  155.1645 C   0  0  0  0  0  0  0  0  0  0  0  0
  149.8407  138.3214  156.5580 C   0  0  0  0  0  0  0  0  0  0  0  0
  150.5777  139.4335  157.0090 C   0  0  0  0  0  0  0  0  0  0  0  0
  151.1987  140.2628  156.0553 C   0  0  0  0  0  0  0  0  0  0  0  0
  151.1245  140.0437  154.7261 N   0  0  0  0  0  0  0  0  0  0  0  0
  150.4166  138.9762  154.3010 C   0  0  0  0  0  0  0  0  0  0  0  0
  148.1090  135.3222  153.2646 H   0  0  0  0  0  0  0  0  0  0  0  0
  146.8966  133.7647  155.4141 H   0  0  0  0  0  0  0  0  0  0  0  0
  145.7710  134.6889  154.5005 H   0  0  0  0  0  0  0  0  0  0  0  0
  146.0110  135.5623  152.3910 H   0  0  0  0  0  0  0  0  0  0  0  0
  146.7009  134.7685  150.9902 H   0  0  0  0  0  0  0  0  0  0  0  0
  143.7106  135.2482  151.4738 H   0  0  0  0  0  0  0  0  0  0  0  0
  144.7333  136.0987  150.3315 H   0  0  0  0  0  0  0  0  0  0  0  0
  143.2124  132.9280  151.0633 H   0  0  0  0  0  0  0  0  0  0  0  0
  143.9159  132.1470  149.6623 H   0  0  0  0  0  0  0  0  0  0  0  0
  146.1813  132.2293  150.6536 H   0  0  0  0  0  0  0  0  0  0  0  0
  145.0381  131.4858  151.7701 H   0  0  0  0  0  0  0  0  0  0  0  0
  145.6858  131.6372  154.6091 H   0  0  0  0  0  0  0  0  0  0  0  0
  146.4536  130.9339  153.2016 H   0  0  0  0  0  0  0  0  0  0  0  0
  147.8513  131.7976  155.7107 H   0  0  0  0  0  0  0  0  0  0  0  0
  147.9682  130.2761  154.8384 H   0  0  0  0  0  0  0  0  0  0  0  0
  148.0845  132.4616  151.7237 H   0  0  0  0  0  0  0  0  0  0  0  0
  148.5824  133.9808  152.4566 H   0  0  0  0  0  0  0  0  0  0  0  0
  149.2586  136.8461  153.5890 H   0  0  0  0  0  0  0  0  0  0  0  0
  149.3676  137.6906  157.2926 H   0  0  0  0  0  0  0  0  0  0  0  0
  150.6646  139.6473  158.0641 H   0  0  0  0  0  0  0  0  0  0  0  0
  151.7703  141.1241  156.3680 H   0  0  0  0  0  0  0  0  0  0  0  0
  150.3798  138.8338  153.2308 H   0  0  0  0  0  0  0  0  0  0  0  0
  144.8290  133.5412  152.8681 H   0  0  0  0  0  0  0  0  0  0  0  0
  1  2  2  0  0  0  0
  2  3  1  0  0  0  0
  2 16  1  0  0  0  0
  3  4  1  0  0  0  0
  3 23  1  0  0  0  0
  4  5  1  0  0  0  0
  4 24  1  0  0  0  0
  4 25  1  0  0  0  0
  5 15  1  0  0  0  0
  5  6  1  0  0  0  0
  5 12  1  0  0  0  0
  6 11  1  0  0  0  0
  6  7  1  0  0  0  0
  6 45  1  0  0  0  0
  7  8  1  0  0  0  0
  7 26  1  0  0  0  0
  7 27  1  0  0  0  0
  8  9  1  0  0  0  0
  8 28  1  0  0  0  0
  8 29  1  0  0  0  0
  9 10  1  0  0  0  0
 10 11  1  0  0  0  0
 10 30  1  0  0  0  0
 10 31  1  0  0  0  0
 11 32  1  0  0  0  0
 11 33  1  0  0  0  0
 12 13  1  0  0  0  0
 12 34  1  0  0  0  0
 12 35  1  0  0  0  0
 13 14  1  0  0  0  0
 13 36  1  0  0  0  0
 13 37  1  0  0  0  0
 14 15  1  0  0  0  0
 15 38  1  0  0  0  0
 15 39  1  0  0  0  0
 16 17  1  0  0  0  0
 16 40  1  0  0  0  0
 17 22  1  0  0  0  0
 17 18  2  0  0  0  0
 18 19  1  0  0  0  0
 18 41  1  0  0  0  0
 19 20  2  0  0  0  0
 19 42  1  0  0  0  0
 20 21  1  0  0  0  0
 20 43  1  0  0  0  0
 21 22  2  0  0  0  0
 22 44  1  0  0  0  0
M  CHG  1   6   1
M  END
> <s_m_source_file>
AV-unprocessed.smi

> <i_m_source_file_index>
1787

> <i_lp_mmshare_version>
43012

> <i_f3d_flags>
0

> <s_epik_input>
W2NIXTFuW2NIXVtjSF1bY0hdYzFbTkhdQyg9TylbTkhdW0NIMl1bQ0BdMihbQ0gyXVtDSDJdU1tDSDJdMilOM1tDSDJdW0NIMl1PW0NIMl1bQ0gyXTM=

> <s_epik_cmdline>
J2VwaWtfcHl0aG9uJywgJy1waCcsICc3LjAnLCAnLXRuJywgJzgnLCAnLW1hJywgJzIwMCcsICctbWV0YWxfYmluZGluZycsICctaW1hZScsICc8aW5maWxlLm1hZT4nLCAnLW9tYWUnLCAnPG91dGZpbGUubWFlPic=

> <r_epik_Ionization_Penalty>
2.03633

> <r_epik_Ionization_Penalty_Charging>
2.03219

> <r_epik_Ionization_Penalty_Neutral>
0.00414252

> <r_epik_State_Penalty>
2.16328

> <r_epik_Charging_Adjusted_Penalty>
4.19546

> <i_epik_Tot_Q>
1

> <i_epik_Tot_abs_Q>
1

> <r_epik_Metal_State_Penalty>
2.16381

> <b_epik_Metal_Only>
0

> <s_lp_Force_Field>
OPLS_2005

> <r_lp_Energy>
44.9439

> <b_lp_Chiralities_Consistent>
1

> <s_lp_Variant>
AV-unprocessed.smi:1787-4

> <Gold.Version>
5.8.1

> <Gold.Id.Protein>
6NUR|6NUR_protein|mol2

> <Gold.PLP.Fitness>
41.3423

> <Gold.PLP.PLP>
-31.0947

> <Gold.PLP.part.hbond>
-2.9909

> <Gold.PLP.part.metal>
0.0000

> <Gold.PLP.part.buried>
-6.8337

> <Gold.PLP.part.nonpolar>
-23.5718

> <Gold.PLP.part.repulsive>
1.6682

> <Gold.PLP.ligand.clash>
0.0000

> <Gold.PLP.ligand.torsion>
0.9536

> <Gold.PLP.Chemscore.Hbond>
3.0000

> <Gold.PLP.Chemscore.CHOScore>
1.0000

> <Gold.PLP.Chemscore.Metal>
0.0000

> <Gold.Chemscore.Hbonds>
donor molecule, donor type, donor heavy atom, donor atom, acceptor molecule, acceptor atom, score
      L1  H     3    23       P1  7948  1.00
      L1  H    16    40       P1  7948  1.00
      P1  H  7989  7998       L1    21  1.00
      L1  C    22    44       P1  7957  1.00

> <Gold.PLP.Chemscore.Internal.Correction>
0.1548

> <Gold.Rescore>
     Score         DG    S(hbond)    S(metal)    S(lipo)     H(rot)  DE(clash)    DE(int)     intcor
     18.29     -20.06       2.82        0.00      76.72       1.49       0.00       1.77       ----

> <Gold.Chemscore.Fitness>
18.2881

> <Gold.Chemscore.DG>
-20.0634

> <Gold.Chemscore.ZeroCoef>
-5.4800

> <Gold.Chemscore.Hbond>
2.8179

> <Gold.Chemscore.Metal>
0.0000

> <Gold.Chemscore.Lipo>
76.7161

> <Gold.Chemscore.Internal_Hbond>
0.0000

> <Gold.Chemscore.DEClash>
0.0048

> <Gold.Chemscore.DEInternal>
1.7706

> <Gold.Chemscore.Rot>
1.4860

> <Gold.Chemscore.Internal.Correction>
   9.000000E+99

> <Gold.Chemscore.Hbonds>
donor molecule, donor type, donor heavy atom, donor atom, acceptor molecule, acceptor atom, score
      L1  H     3    23       P1  7948  0.97
      L1  H    16    40       P1  7948  0.97
      P1  H  7989  7998       L1    21  0.71

> <Gold.Chemscore.Hbond.Weighted>
-9.4119

> <Gold.Chemscore.Metal.Weighted>
-0.0000

> <Gold.Chemscore.Lipo.Weighted>
-8.9758

> <Gold.Chemscore.Internal_Hbond.Weighted>
0.0000

> <Gold.Chemscore.DEClash.Weighted>
0.0048

> <Gold.Chemscore.DEInternal.Weighted>
1.7706

> <Gold.Chemscore.Rot.Weighted>
3.8042

> <Gold.Chemscore.Internal.Correction.Weighted>
   9.000000E+99

> <Gold.Protein.RotatedTorsions>
[ 6907 6896 6895 6894 ] final  -41.00 input  -60.11 | X-H torsion
[ 7974 7965 7964 7962 ] final  140.57 input  175.53 | X-H torsion
[ 8008 7997 7996 7995 ] final   66.85 input   59.86 | X-H torsion
[ 10167 10162 10161 10158 ] final  -20.07 input  -65.29 | X-H torsion
[ 10718 10713 10712 10709 ] final -179.32 input   66.30 | X-H torsion
[ 10763 10752 10751 10750 ] final  -67.10 input  -60.55 | X-H torsion
[ 11005 11000 10999 10996 ] final   23.48 input  -57.11 | X-H torsion

> <Gold.Protein.ActiveResidues>
 VAL166  LYS551  ARG553  GLY616  TRP617  ASP618  TYR619  PRO620  LYS621  CYS622 
 ASP623  PHE694  ASN695  SER759  ASP760  ASP761  ALA762  ILE779  LEU786  VAL792 
 PHE793  MET794  SER795  GLU796  ALA797  LYS798  CYS799  TRP800  GLU811  SER814 

> <Gold.Protein.RotatedAtoms>
  150.9718  134.9090  159.7792 H   0  0  0  0  0  0  0  0  0  0  0  0  # atno 6907 bound_to 6896
  152.5193  134.3530  159.9268 H   0  0  0  0  0  0  0  0  0  0  0  0  # atno 6908 bound_to 6896
  151.3539  133.3874  159.2717 H   0  0  0  0  0  0  0  0  0  0  0  0  # atno 6909 bound_to 6896
  144.9174  139.5212  143.5679 H   0  0  0  0  0  0  0  0  0  0  0  0  # atno 7974 bound_to 7965
  155.6837  140.3496  155.4865 H   0  0  0  0  0  0  0  0  0  0  0  0  # atno 8008 bound_to 7997
  155.9584  140.1132  157.0939 H   0  0  0  0  0  0  0  0  0  0  0  0  # atno 8009 bound_to 7997
  154.4137  140.1180  156.5133 H   0  0  0  0  0  0  0  0  0  0  0  0  # atno 8010 bound_to 7997
  140.7273  143.4758  151.0185 H   0  0  0  0  0  0  0  0  0  0  0  0  # atno 10167 bound_to 10162
  156.8574  130.9740  151.3086 H   0  0  0  0  0  0  0  0  0  0  0  0  # atno 10718 bound_to 10713
  154.3695  135.6098  153.5732 H   0  0  0  0  0  0  0  0  0  0  0  0  # atno 10763 bound_to 10752
  152.9790  135.5834  154.4538 H   0  0  0  0  0  0  0  0  0  0  0  0  # atno 10764 bound_to 10752
  154.4290  135.2847  155.1903 H   0  0  0  0  0  0  0  0  0  0  0  0  # atno 10765 bound_to 10752
  140.3691  134.2042  155.7668 H   0  0  0  0  0  0  0  0  0  0  0  0  # atno 11005 bound_to 11000
  146.3188  139.8028  142.8962 LP  0  0  0  0  0  0  0  0  0  0  0  0  # atno 17320 bound_to 7965
  145.3352  141.0275  143.3423 LP  0  0  0  0  0  0  0  0  0  0  0  0  # atno 17321 bound_to 7965
  139.8453  143.7510  152.3179 LP  0  0  0  0  0  0  0  0  0  0  0  0  # atno 17342 bound_to 10162
  139.7673  144.7488  151.0276 LP  0  0  0  0  0  0  0  0  0  0  0  0  # atno 17343 bound_to 10162
  157.6269  130.8699  149.9206 LP  0  0  0  0  0  0  0  0  0  0  0  0  # atno 17370 bound_to 10713
  156.0795  130.3675  150.0609 LP  0  0  0  0  0  0  0  0  0  0  0  0  # atno 17371 bound_to 10713
  141.1960  133.8092  157.0690 LP  0  0  0  0  0  0  0  0  0  0  0  0  # atno 17394 bound_to 11000
  140.0566  134.9777  157.1231 LP  0  0  0  0  0  0  0  0  0  0  0  0  # atno 17395 bound_to 11000

$$$$
