AV-unprocessed.smi:438|AV-procd|sdf|2564|dock5
  -GOLD-   2262022533D 1   1.00000     0.00000
 Structure written by MMmdl.
 48 49  0  0  0  0  0  0  0  0  1 V2000
  143.3221  135.6159  152.7179 C   0  0  0  0  0  0  0  0  0  0  0  0
  144.3017  134.5669  153.2141 C   0  0  0  0  0  0  0  0  0  0  0  0
  144.6873  134.6862  154.5546 N   0  0  0  0  0  0  0  0  0  0  0  0
  145.5160  133.8363  155.0720 C   0  0  0  0  0  0  0  0  0  0  0  0
  146.1619  133.7382  156.7698 S   0  0  0  0  0  0  0  0  0  0  0  0
  144.6443  133.8134  157.7700 C   0  0  0  0  0  0  0  0  0  0  0  0
  144.8300  133.1877  159.1519 C   0  0  0  0  0  0  0  0  0  0  0  0
  144.9637  131.9695  159.2626 O   0  0  0  0  0  0  0  0  0  0  0  0
  144.8085  134.0322  160.1946 N   0  0  0  0  0  0  0  0  0  0  0  0
  144.8525  133.6701  161.6112 C   0  0  1  0  0  0  0  0  0  0  0  0
  146.1429  132.8810  161.9083 C   0  0  0  0  0  0  0  0  0  0  0  0
  147.3981  133.7650  161.8146 C   0  0  0  0  0  0  0  0  0  0  0  0
  147.2838  134.9933  162.7290 C   0  0  0  0  0  0  0  0  0  0  0  0
  146.0096  135.7989  162.4313 C   0  0  0  0  0  0  0  0  0  0  0  0
  144.7439  134.9211  162.5224 C   0  0  1  0  0  0  0  0  0  0  0  0
  143.4717  135.7475  162.2673 C   0  0  0  0  0  0  0  0  0  0  0  0
  146.0352  132.7975  154.2998 N   0  0  0  0  0  0  0  0  0  0  0  0
  145.7140  132.5849  153.0046 C   0  0  0  0  0  0  0  0  0  0  0  0
  146.1924  131.6296  152.3955 O   0  0  0  0  0  0  0  0  0  0  0  0
  144.7799  133.5649  152.4242 C   0  0  0  0  0  0  0  0  0  0  0  0
  144.3642  133.3866  150.9644 C   0  0  0  0  0  0  0  0  0  0  0  0
  143.6261  132.0629  150.6978 C   0  0  0  0  0  0  0  0  0  0  0  0
  142.8482  132.1383  149.5223 O   0  0  0  0  0  0  0  0  0  0  0  0
  143.6969  136.1056  151.8198 H   0  0  0  0  0  0  0  0  0  0  0  0
  143.1557  136.3877  153.4703 H   0  0  0  0  0  0  0  0  0  0  0  0
  142.3593  135.1592  152.4886 H   0  0  0  0  0  0  0  0  0  0  0  0
  143.8127  133.3434  157.2441 H   0  0  0  0  0  0  0  0  0  0  0  0
  144.3760  134.8628  157.8961 H   0  0  0  0  0  0  0  0  0  0  0  0
  144.6974  135.0152  159.9908 H   0  0  0  0  0  0  0  0  0  0  0  0
  144.0122  133.0119  161.8386 H   0  0  0  0  0  0  0  0  0  0  0  0
  146.0800  132.4573  162.9114 H   0  0  0  0  0  0  0  0  0  0  0  0
  146.2320  132.0334  161.2274 H   0  0  0  0  0  0  0  0  0  0  0  0
  148.2816  133.1850  162.0823 H   0  0  0  0  0  0  0  0  0  0  0  0
  147.5440  134.0869  160.7837 H   0  0  0  0  0  0  0  0  0  0  0  0
  147.2760  134.6719  163.7713 H   0  0  0  0  0  0  0  0  0  0  0  0
  148.1612  135.6293  162.6084 H   0  0  0  0  0  0  0  0  0  0  0  0
  145.9359  136.6309  163.1322 H   0  0  0  0  0  0  0  0  0  0  0  0
  146.0829  136.2451  161.4399 H   0  0  0  0  0  0  0  0  0  0  0  0
  144.6785  134.5587  163.5493 H   0  0  0  0  0  0  0  0  0  0  0  0
  143.4860  136.2183  161.2839 H   0  0  0  0  0  0  0  0  0  0  0  0
  143.3673  136.5414  163.0073 H   0  0  0  0  0  0  0  0  0  0  0  0
  142.5800  135.1231  162.3261 H   0  0  0  0  0  0  0  0  0  0  0  0
  146.6773  132.1501  154.7332 H   0  0  0  0  0  0  0  0  0  0  0  0
  145.2531  133.4263  150.3352 H   0  0  0  0  0  0  0  0  0  0  0  0
  143.7544  134.2294  150.6363 H   0  0  0  0  0  0  0  0  0  0  0  0
  144.3462  131.2528  150.5815 H   0  0  0  0  0  0  0  0  0  0  0  0
  142.9807  131.7986  151.5354 H   0  0  0  0  0  0  0  0  0  0  0  0
  142.3017  132.9076  149.5718 H   0  0  0  0  0  0  0  0  0  0  0  0
  1 24  1  0  0  0  0
  1 25  1  0  0  0  0
  1 26  1  0  0  0  0
  1  2  1  0  0  0  0
  2 20  2  0  0  0  0
  2  3  1  0  0  0  0
  3  4  2  0  0  0  0
  4  5  1  0  0  0  0
  4 17  1  0  0  0  0
  5  6  1  0  0  0  0
  6  7  1  0  0  0  0
  6 27  1  0  0  0  0
  6 28  1  0  0  0  0
  7  8  2  0  0  0  0
  7  9  1  0  0  0  0
  9 10  1  0  0  0  0
  9 29  1  0  0  0  0
 10 15  1  0  0  0  0
 10 11  1  0  0  0  0
 10 30  1  0  0  0  0
 11 12  1  0  0  0  0
 11 31  1  0  0  0  0
 11 32  1  0  0  0  0
 12 13  1  0  0  0  0
 12 33  1  0  0  0  0
 12 34  1  0  0  0  0
 13 14  1  0  0  0  0
 13 35  1  0  0  0  0
 13 36  1  0  0  0  0
 14 15  1  0  0  0  0
 14 37  1  0  0  0  0
 14 38  1  0  0  0  0
 15 16  1  0  0  0  0
 15 39  1  0  0  0  0
 16 40  1  0  0  0  0
 16 41  1  0  0  0  0
 16 42  1  0  0  0  0
 17 43  1  0  0  0  0
 17 18  1  0  0  0  0
 18 19  2  0  0  0  0
 18 20  1  0  0  0  0
 20 21  1  0  0  0  0
 21 22  1  0  0  0  0
 21 44  1  0  0  0  0
 21 45  1  0  0  0  0
 22 23  1  0  0  0  0
 22 46  1  0  0  0  0
 22 47  1  0  0  0  0
 23 48  1  0  0  0  0
M  END
> <s_m_source_file>
AV-unprocessed.smi

> <i_m_source_file_index>
438

> <i_lp_mmshare_version>
43012

> <i_f3d_flags>
0

> <s_epik_input>
W09IXVtDSDJdW0NIMl1jMWMoW09IXSluYyhuYzFbQ0gzXSlTW0NIMl1DKD1PKVtOSF1bQ0BASF0yW0NIMl1bQ0gyXVtDSDJdW0NIMl1bQ0BIXTJbQ0gzXQ==

> <s_epik_cmdline>
J2VwaWtfcHl0aG9uJywgJy1waCcsICc3LjAnLCAnLXRuJywgJzgnLCAnLW1hJywgJzIwMCcsICctbWV0YWxfYmluZGluZycsICctaW1hZScsICc8aW5maWxlLm1hZT4nLCAnLW9tYWUnLCAnPG91dGZpbGUubWFlPic=

> <r_lp_tautomer_probability>
0.660323

> <r_epik_Ionization_Penalty>
0.00860626

> <r_epik_Ionization_Penalty_Charging>
0.00860522

> <r_epik_Ionization_Penalty_Neutral>
1.04215e-06

> <r_epik_State_Penalty>
0.156825

> <r_epik_Charging_Adjusted_Penalty>
0.16543

> <i_epik_Tot_Q>
0

> <i_epik_Tot_abs_Q>
0

> <r_epik_Metal_State_Penalty>
0.752038

> <b_epik_Metal_Only>
0

> <s_lp_Force_Field>
OPLS_2005

> <r_lp_Energy>
10.8925

> <b_lp_Chiralities_Consistent>
1

> <s_lp_Variant>
AV-unprocessed.smi:438-2

> <Gold.Version>
5.8.1

> <Gold.Id.Protein>
6NUR|6NUR_protein|mol2

> <Gold.PLP.Fitness>
38.4875

> <Gold.PLP.PLP>
-33.9338

> <Gold.PLP.part.hbond>
-2.7753

> <Gold.PLP.part.metal>
0.0000

> <Gold.PLP.part.buried>
-6.8841

> <Gold.PLP.part.nonpolar>
-24.4562

> <Gold.PLP.part.repulsive>
0.2225

> <Gold.PLP.ligand.clash>
0.0000

> <Gold.PLP.ligand.torsion>
0.4061

> <Gold.PLP.Chemscore.Hbond>
1.7712

> <Gold.PLP.Chemscore.CHOScore>
0.0000

> <Gold.PLP.Chemscore.Metal>
0.0000

> <Gold.Chemscore.Hbonds>
donor molecule, donor type, donor heavy atom, donor atom, acceptor molecule, acceptor atom, score
      L1  H    23    48       P1 10186  1.00
      P1  H 10785 10796       L1    23  0.65

> <Gold.PLP.Chemscore.Internal.Correction>
0.0522

> <Gold.Rescore>
     Score         DG    S(hbond)    S(metal)    S(lipo)     H(rot)  DE(clash)    DE(int)     intcor
     12.54     -12.90       1.50        0.00      83.23       2.86       0.02       0.34       ----

> <Gold.Chemscore.Fitness>
12.5363

> <Gold.Chemscore.DG>
-12.8978

> <Gold.Chemscore.ZeroCoef>
-5.4800

> <Gold.Chemscore.Hbond>
1.5008

> <Gold.Chemscore.Metal>
0.0000

> <Gold.Chemscore.Lipo>
83.2339

> <Gold.Chemscore.Internal_Hbond>
0.0000

> <Gold.Chemscore.DEClash>
0.0245

> <Gold.Chemscore.DEInternal>
0.3370

> <Gold.Chemscore.Rot>
2.8645

> <Gold.Chemscore.Internal.Correction>
   9.000000E+99

> <Gold.Chemscore.Hbonds>
donor molecule, donor type, donor heavy atom, donor atom, acceptor molecule, acceptor atom, score
      L1  H    23    48       P1 10186  0.97
      P1  H 10785 10796       L1    23  0.17

> <Gold.Chemscore.Hbond.Weighted>
-5.0125

> <Gold.Chemscore.Metal.Weighted>
-0.0000

> <Gold.Chemscore.Lipo.Weighted>
-9.7384

> <Gold.Chemscore.Internal_Hbond.Weighted>
0.0000

> <Gold.Chemscore.DEClash.Weighted>
0.0245

> <Gold.Chemscore.DEInternal.Weighted>
0.3370

> <Gold.Chemscore.Rot.Weighted>
7.3331

> <Gold.Chemscore.Internal.Correction.Weighted>
   9.000000E+99

> <Gold.Protein.RotatedTorsions>
[ 6907 6896 6895 6894 ] final  103.89 input  -60.11 | X-H torsion
[ 7974 7965 7964 7962 ] final  -63.44 input  175.53 | X-H torsion
[ 8008 7997 7996 7995 ] final  -89.41 input   59.86 | X-H torsion
[ 10167 10162 10161 10158 ] final  -14.01 input  -65.29 | X-H torsion
[ 10718 10713 10712 10709 ] final  -52.26 input   66.30 | X-H torsion
[ 10763 10752 10751 10750 ] final -172.73 input  -60.55 | X-H torsion
[ 11005 11000 10999 10996 ] final   78.17 input  -57.11 | X-H torsion

> <Gold.Protein.ActiveResidues>
 VAL166  LYS551  ARG553  GLY616  TRP617  ASP618  TYR619  PRO620  LYS621  CYS622 
 ASP623  PHE694  ASN695  SER759  ASP760  ASP761  ALA762  ILE779  LEU786  VAL792 
 PHE793  MET794  SER795  GLU796  ALA797  LYS798  CYS799  TRP800  GLU811  SER814 

> <Gold.Protein.RotatedAtoms>
  152.5282  133.9759  159.7783 H   0  0  0  0  0  0  0  0  0  0  0  0  # atno 6907 bound_to 6896
  151.0022  133.6037  159.2700 H   0  0  0  0  0  0  0  0  0  0  0  0  # atno 6908 bound_to 6896
  151.3142  135.0808  159.9336 H   0  0  0  0  0  0  0  0  0  0  0  0  # atno 6909 bound_to 6896
  145.7791  140.8772  143.0340 H   0  0  0  0  0  0  0  0  0  0  0  0  # atno 7974 bound_to 7965
  154.6863  140.0542  157.0317 H   0  0  0  0  0  0  0  0  0  0  0  0  # atno 8008 bound_to 7997
  155.0880  140.3216  155.4563 H   0  0  0  0  0  0  0  0  0  0  0  0  # atno 8009 bound_to 7997
  156.2712  140.2053  156.6008 H   0  0  0  0  0  0  0  0  0  0  0  0  # atno 8010 bound_to 7997
  140.7193  143.5366  150.9457 H   0  0  0  0  0  0  0  0  0  0  0  0  # atno 10167 bound_to 10162
  156.1637  130.4149  149.9753 H   0  0  0  0  0  0  0  0  0  0  0  0  # atno 10718 bound_to 10713
  154.6160  135.2870  155.0380 H   0  0  0  0  0  0  0  0  0  0  0  0  # atno 10763 bound_to 10752
  154.1592  135.6491  153.4985 H   0  0  0  0  0  0  0  0  0  0  0  0  # atno 10764 bound_to 10752
  153.0215  135.5374  154.6931 H   0  0  0  0  0  0  0  0  0  0  0  0  # atno 10765 bound_to 10752
  139.9223  134.7742  156.1616 H   0  0  0  0  0  0  0  0  0  0  0  0  # atno 11005 bound_to 11000
  144.6799  139.9963  143.7484 LP  0  0  0  0  0  0  0  0  0  0  0  0  # atno 17320 bound_to 7965
  146.0093  139.3156  143.0880 LP  0  0  0  0  0  0  0  0  0  0  0  0  # atno 17321 bound_to 7965
  139.9088  143.6745  152.3119 LP  0  0  0  0  0  0  0  0  0  0  0  0  # atno 17342 bound_to 10162
  139.7121  144.7618  151.1095 LP  0  0  0  0  0  0  0  0  0  0  0  0  # atno 17343 bound_to 10162
  156.7574  130.9138  151.3640 LP  0  0  0  0  0  0  0  0  0  0  0  0  # atno 17370 bound_to 10713
  157.6752  130.9088  150.0133 LP  0  0  0  0  0  0  0  0  0  0  0  0  # atno 17371 bound_to 10713
  141.0754  133.6777  156.2226 LP  0  0  0  0  0  0  0  0  0  0  0  0  # atno 17394 bound_to 11000
  140.6437  134.5140  157.5572 LP  0  0  0  0  0  0  0  0  0  0  0  0  # atno 17395 bound_to 11000

$$$$
