AV-unprocessed.smi:3100|AV-procd|sdf|11805|dock5
  -GOLD-   2272017183D 1   1.00000     0.00000
 Structure written by MMmdl.
 28 29  0  0  0  0  0  0  0  0  1 V2000
  152.3621  143.6837  161.3846 C   0  0  0  0  0  0  0  0  0  0  0  0
  151.7556  143.9686  160.0069 C   0  0  1  0  0  0  0  0  0  0  0  0
  152.7813  144.0795  158.8847 C   0  0  0  0  0  0  0  0  0  0  0  0
  151.9192  143.8517  157.6596 C   0  0  0  0  0  0  0  0  0  0  0  0
  150.8213  142.8982  158.1648 C   0  0  1  0  0  0  0  0  0  0  0  0
  150.9731  141.4573  157.6630 C   0  0  0  0  0  0  0  0  0  0  0  0
  151.1840  140.5481  158.4668 O   0  0  0  0  0  0  0  0  0  0  0  0
  150.8452  141.2863  156.3343 N   0  0  0  0  0  0  0  0  0  0  0  0
  150.9522  140.0811  155.5915 C   0  0  0  0  0  0  0  0  0  0  0  0
  151.7431  139.0653  156.1784 C   0  0  0  0  0  0  0  0  0  0  0  0
  151.9365  137.8619  155.5941 N   0  0  0  0  0  0  0  0  0  0  0  0
  151.3322  137.6651  154.4029 C   0  0  0  0  0  0  0  0  0  0  0  0
  150.5407  138.6649  153.8034 C   0  0  0  0  0  0  0  0  0  0  0  0
  150.3513  139.8651  154.3933 N   0  0  0  0  0  0  0  0  0  0  0  0
  150.9369  142.8867  159.5871 O   0  0  0  0  0  0  0  0  0  0  0  0
  153.0192  144.4954  161.6980 H   0  0  0  0  0  0  0  0  0  0  0  0
  152.9459  142.7627  161.3769 H   0  0  0  0  0  0  0  0  0  0  0  0
  151.5818  143.5763  162.1381 H   0  0  0  0  0  0  0  0  0  0  0  0
  151.1460  144.8731  160.0425 H   0  0  0  0  0  0  0  0  0  0  0  0
  153.2993  145.0389  158.8713 H   0  0  0  0  0  0  0  0  0  0  0  0
  153.5270  143.2873  158.9678 H   0  0  0  0  0  0  0  0  0  0  0  0
  151.4691  144.7928  157.3410 H   0  0  0  0  0  0  0  0  0  0  0  0
  152.4942  143.4646  156.8169 H   0  0  0  0  0  0  0  0  0  0  0  0
  149.8409  143.2909  157.8898 H   0  0  0  0  0  0  0  0  0  0  0  0
  150.6535  142.1171  155.7934 H   0  0  0  0  0  0  0  0  0  0  0  0
  152.2281  139.2172  157.1318 H   0  0  0  0  0  0  0  0  0  0  0  0
  151.4792  136.7070  153.9266 H   0  0  0  0  0  0  0  0  0  0  0  0
  150.0590  138.5021  152.8505 H   0  0  0  0  0  0  0  0  0  0  0  0
  1  2  1  0  0  0  0
  1 16  1  0  0  0  0
  1 17  1  0  0  0  0
  1 18  1  0  0  0  0
  2 15  1  0  0  0  0
  2  3  1  0  0  0  0
  2 19  1  0  0  0  0
  3  4  1  0  0  0  0
  3 20  1  0  0  0  0
  3 21  1  0  0  0  0
  4  5  1  0  0  0  0
  4 22  1  0  0  0  0
  4 23  1  0  0  0  0
  5  6  1  0  0  0  0
  5 15  1  0  0  0  0
  5 24  1  0  0  0  0
  6  7  2  0  0  0  0
  6  8  1  0  0  0  0
  8  9  1  0  0  0  0
  8 25  1  0  0  0  0
  9 14  1  0  0  0  0
  9 10  2  0  0  0  0
 10 11  1  0  0  0  0
 10 26  1  0  0  0  0
 11 12  2  0  0  0  0
 12 13  1  0  0  0  0
 12 27  1  0  0  0  0
 13 14  2  0  0  0  0
 13 28  1  0  0  0  0
M  END
> <s_m_source_file>
AV-unprocessed.smi

> <i_m_source_file_index>
3100

> <i_lp_mmshare_version>
43012

> <i_f3d_flags>
0

> <s_epik_input>
W0NIM11bQ0BASF0xW0NIMl1bQ0gyXVtDQEhdKE8xKUMoPU8pW05IXWMyW2NIXW5bY0hdW2NIXW4y

> <s_epik_cmdline>
J2VwaWtfcHl0aG9uJywgJy1waCcsICc3LjAnLCAnLXRuJywgJzgnLCAnLW1hJywgJzIwMCcsICctbWV0YWxfYmluZGluZycsICctaW1hZScsICc8aW5maWxlLm1hZT4nLCAnLW9tYWUnLCAnPG91dGZpbGUubWFlPic=

> <r_lp_tautomer_probability>
1

> <r_epik_Ionization_Penalty>
2.81186e-06

> <r_epik_Ionization_Penalty_Charging>
0

> <r_epik_Ionization_Penalty_Neutral>
2.81186e-06

> <r_epik_State_Penalty>
-0

> <r_epik_Charging_Adjusted_Penalty>
0

> <i_epik_Tot_Q>
0

> <i_epik_Tot_abs_Q>
0

> <r_epik_Metal_State_Penalty>
-0

> <b_epik_Metal_Only>
0

> <s_lp_Force_Field>
OPLS_2005

> <r_lp_Energy>
25.9666

> <b_lp_Chiralities_Consistent>
1

> <s_lp_Variant>
AV-unprocessed.smi:3100-2

> <Gold.Version>
5.8.1

> <Gold.Id.Protein>
6NUR|6NUR_protein|mol2

> <Gold.PLP.Fitness>
41.7543

> <Gold.PLP.PLP>
-32.3059

> <Gold.PLP.part.hbond>
-1.7909

> <Gold.PLP.part.metal>
0.0000

> <Gold.PLP.part.buried>
-4.3811

> <Gold.PLP.part.nonpolar>
-26.1548

> <Gold.PLP.part.repulsive>
0.2511

> <Gold.PLP.ligand.clash>
0.0000

> <Gold.PLP.ligand.torsion>
0.1630

> <Gold.PLP.Chemscore.Hbond>
0.6500

> <Gold.PLP.Chemscore.CHOScore>
2.6056

> <Gold.PLP.Chemscore.Metal>
0.0000

> <Gold.Chemscore.Hbonds>
donor molecule, donor type, donor heavy atom, donor atom, acceptor molecule, acceptor atom, score
      P1  H  7989  7998       L1    14  0.65
      L1  C    12    27       P1  7949  0.94
      L1  C    13    28       P1  7948  0.67
      L1  C    13    28       P1  7957  0.99

> <Gold.PLP.Chemscore.Internal.Correction>
0.0076

> <Gold.Rescore>
     Score         DG    S(hbond)    S(metal)    S(lipo)     H(rot)  DE(clash)    DE(int)     intcor
     13.04     -14.96       0.71        0.00      82.59       1.00       0.33       1.58       ----

> <Gold.Chemscore.Fitness>
13.0448

> <Gold.Chemscore.DG>
-14.9580

> <Gold.Chemscore.ZeroCoef>
-5.4800

> <Gold.Chemscore.Hbond>
0.7109

> <Gold.Chemscore.Metal>
0.0000

> <Gold.Chemscore.Lipo>
82.5944

> <Gold.Chemscore.Internal_Hbond>
0.0000

> <Gold.Chemscore.DEClash>
0.3346

> <Gold.Chemscore.DEInternal>
1.5787

> <Gold.Chemscore.Rot>
1.0000

> <Gold.Chemscore.Internal.Correction>
   9.000000E+99

> <Gold.Chemscore.Hbonds>
donor molecule, donor type, donor heavy atom, donor atom, acceptor molecule, acceptor atom, score
      P1  H  7989  7998       L1    14  0.01

> <Gold.Chemscore.Hbond.Weighted>
-2.3745

> <Gold.Chemscore.Metal.Weighted>
-0.0000

> <Gold.Chemscore.Lipo.Weighted>
-9.6636

> <Gold.Chemscore.Internal_Hbond.Weighted>
0.0000

> <Gold.Chemscore.DEClash.Weighted>
0.3346

> <Gold.Chemscore.DEInternal.Weighted>
1.5787

> <Gold.Chemscore.Rot.Weighted>
2.5600

> <Gold.Chemscore.Internal.Correction.Weighted>
   9.000000E+99

> <Gold.Protein.RotatedTorsions>
[ 6907 6896 6895 6894 ] final  -52.02 input  -60.11 | X-H torsion
[ 7974 7965 7964 7962 ] final  168.27 input  175.53 | X-H torsion
[ 8008 7997 7996 7995 ] final   -7.80 input   59.86 | X-H torsion
[ 10167 10162 10161 10158 ] final -173.69 input  -65.29 | X-H torsion
[ 10718 10713 10712 10709 ] final  139.82 input   66.30 | X-H torsion
[ 10763 10752 10751 10750 ] final   79.01 input  -60.55 | X-H torsion
[ 11005 11000 10999 10996 ] final  107.44 input  -57.11 | X-H torsion

> <Gold.Protein.ActiveResidues>
 VAL166  LYS551  ARG553  GLY616  TRP617  ASP618  TYR619  PRO620  LYS621  CYS622 
 ASP623  PHE694  ASN695  SER759  ASP760  ASP761  ALA762  ILE779  LEU786  VAL792 
 PHE793  MET794  SER795  GLU796  ALA797  LYS798  CYS799  TRP800  GLU811  SER814 

> <Gold.Protein.RotatedAtoms>
  150.8556  134.7894  159.7042 H   0  0  0  0  0  0  0  0  0  0  0  0  # atno 6907 bound_to 6896
  152.4609  134.5183  159.9785 H   0  0  0  0  0  0  0  0  0  0  0  0  # atno 6908 bound_to 6896
  151.5296  133.3413  159.2951 H   0  0  0  0  0  0  0  0  0  0  0  0  # atno 6909 bound_to 6896
  144.7394  139.8883  143.6401 H   0  0  0  0  0  0  0  0  0  0  0  0  # atno 7974 bound_to 7965
  154.5802  140.2397  155.8064 H   0  0  0  0  0  0  0  0  0  0  0  0  # atno 8008 bound_to 7997
  156.2174  140.3008  155.9827 H   0  0  0  0  0  0  0  0  0  0  0  0  # atno 8009 bound_to 7997
  155.2554  140.0412  157.2982 H   0  0  0  0  0  0  0  0  0  0  0  0  # atno 8010 bound_to 7997
  139.5675  144.1721  152.1334 H   0  0  0  0  0  0  0  0  0  0  0  0  # atno 10167 bound_to 10162
  157.4102  131.1027  151.0462 H   0  0  0  0  0  0  0  0  0  0  0  0  # atno 10718 bound_to 10713
  153.0919  135.4856  154.8705 H   0  0  0  0  0  0  0  0  0  0  0  0  # atno 10763 bound_to 10752
  154.7279  135.3053  154.8943 H   0  0  0  0  0  0  0  0  0  0  0  0  # atno 10764 bound_to 10752
  153.9588  135.6815  153.4798 H   0  0  0  0  0  0  0  0  0  0  0  0  # atno 10765 bound_to 10752
  139.8828  134.9401  156.5819 H   0  0  0  0  0  0  0  0  0  0  0  0  # atno 11005 bound_to 11000
  146.1161  139.4172  143.0258 LP  0  0  0  0  0  0  0  0  0  0  0  0  # atno 17320 bound_to 7965
  145.7373  141.0021  143.1319 LP  0  0  0  0  0  0  0  0  0  0  0  0  # atno 17321 bound_to 7965
  140.1247  144.5342  150.6840 LP  0  0  0  0  0  0  0  0  0  0  0  0  # atno 17342 bound_to 10162
  140.6958  143.2403  151.5003 LP  0  0  0  0  0  0  0  0  0  0  0  0  # atno 17343 bound_to 10162
  157.1429  130.6151  149.5560 LP  0  0  0  0  0  0  0  0  0  0  0  0  # atno 17370 bound_to 10713
  155.9848  130.4875  150.7002 LP  0  0  0  0  0  0  0  0  0  0  0  0  # atno 17371 bound_to 10713
  140.8020  133.8497  155.8735 LP  0  0  0  0  0  0  0  0  0  0  0  0  # atno 17394 bound_to 11000
  140.9584  134.1688  157.4674 LP  0  0  0  0  0  0  0  0  0  0  0  0  # atno 17395 bound_to 11000

$$$$
