AV-unprocessed.smi:2514|AV-procd|sdf|9894|dock2
  -GOLD-   2272013533D 1   1.00000     0.00000
 Structure written by MMmdl.
 25 26  0  0  0  0  0  0  0  0  2 V2000
  152.3454  138.0884  155.9058 C   0  0  0  0  0  0  0  0  0  0  0  0
  151.6961  138.0726  154.5163 C   0  0  1  0  0  0  0  0  0  0  0  0
  151.1337  136.7995  154.2704 O   0  0  0  0  0  0  0  0  0  0  0  0
  150.5879  139.0802  154.3838 C   0  0  0  0  0  0  0  0  0  0  0  0
  149.2742  138.8666  154.0751 C   0  0  0  0  0  0  0  0  0  0  0  0
  148.7352  140.1359  154.0727 N   0  0  0  0  0  0  0  0  0  0  0  0
  147.3646  140.5039  153.8756 C   0  0  0  0  0  0  0  0  0  0  0  0
  146.9211  141.9576  154.0251 C   0  0  0  0  0  0  0  0  0  0  0  0
  145.6484  141.4551  154.5283 N   0  3  0  0  0  0  0  0  0  0  0  0
  146.2981  140.2147  154.9327 C   0  0  0  0  0  0  0  0  0  0  0  0
  149.6565  141.0704  154.4049 N   0  0  0  0  0  0  0  0  0  0  0  0
  150.7821  140.4513  154.5707 N   0  0  0  0  0  0  0  0  0  0  0  0
  152.7849  139.0629  156.1199 H   0  0  0  0  0  0  0  0  0  0  0  0
  153.1401  137.3450  155.9749 H   0  0  0  0  0  0  0  0  0  0  0  0
  151.6182  137.8718  156.6893 H   0  0  0  0  0  0  0  0  0  0  0  0
  152.4609  138.2533  153.7601 H   0  0  0  0  0  0  0  0  0  0  0  0
  150.9027  136.7452  153.3558 H   0  0  0  0  0  0  0  0  0  0  0  0
  148.7092  137.9700  153.8674 H   0  0  0  0  0  0  0  0  0  0  0  0
  147.0707  140.1021  152.9031 H   0  0  0  0  0  0  0  0  0  0  0  0
  147.4771  142.5074  154.7871 H   0  0  0  0  0  0  0  0  0  0  0  0
  146.8428  142.5139  153.0907 H   0  0  0  0  0  0  0  0  0  0  0  0
  145.2689  141.9903  155.2965 H   0  0  0  0  0  0  0  0  0  0  0  0
  145.7011  139.3202  154.7527 H   0  0  0  0  0  0  0  0  0  0  0  0
  146.6696  140.2627  155.9583 H   0  0  0  0  0  0  0  0  0  0  0  0
  144.9890  141.3000  153.7789 H   0  0  0  0  0  0  0  0  0  0  0  0
  1  2  1  0  0  0  0
  1 13  1  0  0  0  0
  1 14  1  0  0  0  0
  1 15  1  0  0  0  0
  2  3  1  0  0  0  0
  2  4  1  0  0  0  0
  2 16  1  0  0  0  0
  3 17  1  0  0  0  0
  4 12  1  0  0  0  0
  4  5  2  0  0  0  0
  5  6  1  0  0  0  0
  5 18  1  0  0  0  0
  6  7  1  0  0  0  0
  6 11  1  0  0  0  0
  7 10  1  0  0  0  0
  7  8  1  0  0  0  0
  7 19  1  0  0  0  0
  8  9  1  0  0  0  0
  8 20  1  0  0  0  0
  8 21  1  0  0  0  0
  9 10  1  0  0  0  0
  9 22  1  0  0  0  0
  9 25  1  0  0  0  0
 10 23  1  0  0  0  0
 10 24  1  0  0  0  0
 11 12  2  0  0  0  0
M  CHG  1   9   1
M  END
> <s_m_source_file>
AV-unprocessed.smi

> <i_m_source_file_index>
2514

> <i_lp_mmshare_version>
43012

> <i_f3d_flags>
0

> <s_epik_input>
W0NIM11bQ0BIXShbT0hdKWMxW2NIXW4obm4xKVtDSF0yW0NIMl1bTkhdW0NIMl0y

> <s_epik_cmdline>
J2VwaWtfcHl0aG9uJywgJy1waCcsICc3LjAnLCAnLXRuJywgJzgnLCAnLW1hJywgJzIwMCcsICctbWV0YWxfYmluZGluZycsICctaW1hZScsICc8aW5maWxlLm1hZT4nLCAnLW9tYWUnLCAnPG91dGZpbGUubWFlPic=

> <r_lp_tautomer_probability>
1

> <r_epik_Ionization_Penalty>
0.215039

> <r_epik_Ionization_Penalty_Charging>
0.215038

> <r_epik_Ionization_Penalty_Neutral>
9.39085e-07

> <r_epik_State_Penalty>
0.20523

> <r_epik_Charging_Adjusted_Penalty>
0.420268

> <i_epik_Tot_Q>
1

> <i_epik_Tot_abs_Q>
1

> <r_epik_Metal_State_Penalty>
0.205259

> <b_epik_Metal_Only>
0

> <s_lp_Force_Field>
OPLS_2005

> <r_lp_Energy>
12.9729

> <b_lp_Chiralities_Consistent>
1

> <s_lp_Variant>
AV-unprocessed.smi:2514-2

> <Gold.Version>
5.8.1

> <Gold.Id.Protein>
6NUR|6NUR_protein|mol2

> <Gold.PLP.Fitness>
41.4419

> <Gold.PLP.PLP>
-23.5244

> <Gold.PLP.part.hbond>
-5.0159

> <Gold.PLP.part.metal>
0.0000

> <Gold.PLP.part.buried>
-1.4982

> <Gold.PLP.part.nonpolar>
-17.3222

> <Gold.PLP.part.repulsive>
0.2235

> <Gold.PLP.ligand.clash>
0.0000

> <Gold.PLP.ligand.torsion>
0.1788

> <Gold.PLP.Chemscore.Hbond>
5.0000

> <Gold.PLP.Chemscore.CHOScore>
1.0000

> <Gold.PLP.Chemscore.Metal>
0.0000

> <Gold.Chemscore.Hbonds>
donor molecule, donor type, donor heavy atom, donor atom, acceptor molecule, acceptor atom, score
      L1  H     3    17       P1  7949  0.90
      L1  H     9    25       P1 10175  2.00
      P1  H  7989  7998       L1    12  0.75
      P1  H 10752 10765       L1     3  0.67
      L1  C     5    18       P1  7948  0.68

> <Gold.PLP.Chemscore.Internal.Correction>
0.2751

> <Gold.Rescore>
     Score         DG    S(hbond)    S(metal)    S(lipo)     H(rot)  DE(clash)    DE(int)     intcor
     13.12     -13.93       2.40        0.00      43.84       1.83       0.67       0.14       ----

> <Gold.Chemscore.Fitness>
13.1224

> <Gold.Chemscore.DG>
-13.9315

> <Gold.Chemscore.ZeroCoef>
-5.4800

> <Gold.Chemscore.Hbond>
2.3982

> <Gold.Chemscore.Metal>
0.0000

> <Gold.Chemscore.Lipo>
43.8404

> <Gold.Chemscore.Internal_Hbond>
0.0000

> <Gold.Chemscore.DEClash>
0.6681

> <Gold.Chemscore.DEInternal>
0.1410

> <Gold.Chemscore.Rot>
1.8312

> <Gold.Chemscore.Internal.Correction>
   9.000000E+99

> <Gold.Chemscore.Hbonds>
donor molecule, donor type, donor heavy atom, donor atom, acceptor molecule, acceptor atom, score
      L1  H     3    17       P1  7949  0.16
      L1  H     9    25       P1 10175  0.38
      P1  H  7989  7998       L1    12  0.22
      P1  H  8011  8017       L1    11  0.01
      P1  H 10752 10765       L1     3  0.05

> <Gold.Chemscore.Hbond.Weighted>
-8.0102

> <Gold.Chemscore.Metal.Weighted>
-0.0000

> <Gold.Chemscore.Lipo.Weighted>
-5.1293

> <Gold.Chemscore.Internal_Hbond.Weighted>
0.0000

> <Gold.Chemscore.DEClash.Weighted>
0.6681

> <Gold.Chemscore.DEInternal.Weighted>
0.1410

> <Gold.Chemscore.Rot.Weighted>
4.6879

> <Gold.Chemscore.Internal.Correction.Weighted>
   9.000000E+99

> <Gold.Protein.RotatedTorsions>
[ 6907 6896 6895 6894 ] final -140.87 input  -60.11 | X-H torsion
[ 7974 7965 7964 7962 ] final    9.64 input  175.53 | X-H torsion
[ 8008 7997 7996 7995 ] final  178.15 input   59.86 | X-H torsion
[ 10167 10162 10161 10158 ] final   25.06 input  -65.29 | X-H torsion
[ 10718 10713 10712 10709 ] final  -64.73 input   66.30 | X-H torsion
[ 10763 10752 10751 10750 ] final  165.97 input  -60.55 | X-H torsion
[ 11005 11000 10999 10996 ] final  -32.23 input  -57.11 | X-H torsion

> <Gold.Protein.ActiveResidues>
 VAL166  LYS551  ARG553  GLY616  TRP617  ASP618  TYR619  PRO620  LYS621  CYS622 
 ASP623  PHE694  ASN695  SER759  ASP760  ASP761  ALA762  ILE779  LEU786  VAL792 
 PHE793  MET794  SER795  GLU796  ALA797  LYS798  CYS799  TRP800  GLU811  SER814 

> <Gold.Protein.RotatedAtoms>
  151.0663  133.5502  159.2630 H   0  0  0  0  0  0  0  0  0  0  0  0  # atno 6907 bound_to 6896
  151.2459  135.0604  159.9053 H   0  0  0  0  0  0  0  0  0  0  0  0  # atno 6908 bound_to 6896
  152.5405  134.0431  159.8130 H   0  0  0  0  0  0  0  0  0  0  0  0  # atno 6909 bound_to 6896
  146.2400  139.9753  142.8442 H   0  0  0  0  0  0  0  0  0  0  0  0  # atno 7974 bound_to 7965
  156.0578  140.1340  156.9976 H   0  0  0  0  0  0  0  0  0  0  0  0  # atno 8008 bound_to 7997
  154.4466  140.0997  156.6543 H   0  0  0  0  0  0  0  0  0  0  0  0  # atno 8009 bound_to 7997
  155.5424  140.3461  155.4452 H   0  0  0  0  0  0  0  0  0  0  0  0  # atno 8010 bound_to 7997
  140.5137  144.0117  150.6384 H   0  0  0  0  0  0  0  0  0  0  0  0  # atno 10167 bound_to 10162
  156.0711  130.4237  150.1462 H   0  0  0  0  0  0  0  0  0  0  0  0  # atno 10718 bound_to 10713
  154.3320  135.2754  155.2467 H   0  0  0  0  0  0  0  0  0  0  0  0  # atno 10763 bound_to 10752
  154.4774  135.5867  153.6368 H   0  0  0  0  0  0  0  0  0  0  0  0  # atno 10764 bound_to 10752
  152.9865  135.6103  154.3514 H   0  0  0  0  0  0  0  0  0  0  0  0  # atno 10765 bound_to 10752
  140.9534  133.7207  156.1256 H   0  0  0  0  0  0  0  0  0  0  0  0  # atno 11005 bound_to 11000
  145.1643  140.9689  143.4359 LP  0  0  0  0  0  0  0  0  0  0  0  0  # atno 17320 bound_to 7965
  145.0087  139.3530  143.6131 LP  0  0  0  0  0  0  0  0  0  0  0  0  # atno 17321 bound_to 7965
  140.3447  143.2998  152.0551 LP  0  0  0  0  0  0  0  0  0  0  0  0  # atno 17342 bound_to 10162
  139.4903  144.6417  151.6863 LP  0  0  0  0  0  0  0  0  0  0  0  0  # atno 17343 bound_to 10162
  156.9513  130.9775  151.3497 LP  0  0  0  0  0  0  0  0  0  0  0  0  # atno 17370 bound_to 10713
  157.5783  130.8358  149.8486 LP  0  0  0  0  0  0  0  0  0  0  0  0  # atno 17371 bound_to 10713
  140.7570  134.3982  157.5532 LP  0  0  0  0  0  0  0  0  0  0  0  0  # atno 17394 bound_to 11000
  139.8854  134.8937  156.2642 LP  0  0  0  0  0  0  0  0  0  0  0  0  # atno 17395 bound_to 11000

$$$$
