AV-unprocessed.smi:2493|AV-procd|sdf|9819|dock6
  -GOLD-   2272013453D 1   1.00000     0.00000
 Structure written by MMmdl.
 41 42  0  0  0  0  0  0  0  0  1 V2000
  152.1858  144.3927  156.8526 C   0  0  0  0  0  0  0  0  0  0  0  0
  151.7107  143.4492  157.9817 C   0  0  0  0  0  0  0  0  0  0  0  0
  151.2527  142.0973  157.3641 C   0  0  0  0  0  0  0  0  0  0  0  0
  150.2262  142.2435  156.3330 N   0  0  0  0  0  0  0  0  0  0  0  0
  150.0282  141.4124  155.2975 C   0  0  0  0  0  0  0  0  0  0  0  0
  150.7132  140.4122  155.0854 O   0  0  0  0  0  0  0  0  0  0  0  0
  148.8845  141.7693  154.3477 C   0  0  0  0  0  0  0  0  0  0  0  0
  147.9763  140.6009  154.1330 C   0  0  0  0  0  0  0  0  0  0  0  0
  147.1410  139.9375  154.9881 C   0  0  0  0  0  0  0  0  0  0  0  0
  146.5547  138.9195  154.1817 C   0  0  0  0  0  0  0  0  0  0  0  0
  146.9844  138.9451  152.9301 N   0  0  0  0  0  0  0  0  0  0  0  0
  147.8498  139.9762  152.9118 N   0  0  0  0  0  0  0  0  0  0  0  0
  152.9289  143.1784  158.9076 C   0  0  0  0  0  0  0  0  0  0  0  0
  152.6141  142.6587  160.3230 C   0  0  0  0  0  0  0  0  0  0  0  0
  152.4095  143.7920  161.3423 C   0  0  0  0  0  0  0  0  0  0  0  0
  151.0920  144.5642  161.1844 C   0  0  0  0  0  0  0  0  0  0  0  0
  150.8656  145.1691  159.7881 C   0  0  0  0  0  0  0  0  0  0  0  0
  150.5157  144.1090  158.7272 C   0  0  0  0  0  0  0  0  0  0  0  0
  148.3454  140.2370  152.0709 H   0  0  0  0  0  0  0  0  0  0  0  0
  152.9908  143.9399  156.2725 H   0  0  0  0  0  0  0  0  0  0  0  0
  152.5611  145.3365  157.2489 H   0  0  0  0  0  0  0  0  0  0  0  0
  151.3830  144.6392  156.1579 H   0  0  0  0  0  0  0  0  0  0  0  0
  152.1104  141.5473  156.9726 H   0  0  0  0  0  0  0  0  0  0  0  0
  150.8297  141.4593  158.1400 H   0  0  0  0  0  0  0  0  0  0  0  0
  149.6105  143.0390  156.4201 H   0  0  0  0  0  0  0  0  0  0  0  0
  148.3247  142.6100  154.7593 H   0  0  0  0  0  0  0  0  0  0  0  0
  149.2940  142.1061  153.3943 H   0  0  0  0  0  0  0  0  0  0  0  0
  146.9743  140.1456  156.0347 H   0  0  0  0  0  0  0  0  0  0  0  0
  145.8341  138.1675  154.4680 H   0  0  0  0  0  0  0  0  0  0  0  0
  153.5885  142.4623  158.4152 H   0  0  0  0  0  0  0  0  0  0  0  0
  153.5363  144.0797  159.0018 H   0  0  0  0  0  0  0  0  0  0  0  0
  151.7645  141.9756  160.3209 H   0  0  0  0  0  0  0  0  0  0  0  0
  153.4664  142.0670  160.6591 H   0  0  0  0  0  0  0  0  0  0  0  0
  152.4374  143.3680  162.3465 H   0  0  0  0  0  0  0  0  0  0  0  0
  153.2491  144.4864  161.2938 H   0  0  0  0  0  0  0  0  0  0  0  0
  150.2544  143.9162  161.4449 H   0  0  0  0  0  0  0  0  0  0  0  0
  151.0793  145.3691  161.9198 H   0  0  0  0  0  0  0  0  0  0  0  0
  150.0224  145.8565  159.8638 H   0  0  0  0  0  0  0  0  0  0  0  0
  151.7152  145.7788  159.4802 H   0  0  0  0  0  0  0  0  0  0  0  0
  149.8555  144.5697  157.9909 H   0  0  0  0  0  0  0  0  0  0  0  0
  149.9022  143.3398  159.1985 H   0  0  0  0  0  0  0  0  0  0  0  0
  1  2  1  0  0  0  0
  1 20  1  0  0  0  0
  1 21  1  0  0  0  0
  1 22  1  0  0  0  0
  2 18  1  0  0  0  0
  2  3  1  0  0  0  0
  2 13  1  0  0  0  0
  3  4  1  0  0  0  0
  3 23  1  0  0  0  0
  3 24  1  0  0  0  0
  4  5  1  0  0  0  0
  4 25  1  0  0  0  0
  5  6  2  0  0  0  0
  5  7  1  0  0  0  0
  7  8  1  0  0  0  0
  7 26  1  0  0  0  0
  7 27  1  0  0  0  0
  8 12  1  0  0  0  0
  8  9  2  0  0  0  0
  9 10  1  0  0  0  0
  9 28  1  0  0  0  0
 10 11  2  0  0  0  0
 10 29  1  0  0  0  0
 11 12  1  0  0  0  0
 12 19  1  0  0  0  0
 13 14  1  0  0  0  0
 13 30  1  0  0  0  0
 13 31  1  0  0  0  0
 14 15  1  0  0  0  0
 14 32  1  0  0  0  0
 14 33  1  0  0  0  0
 15 16  1  0  0  0  0
 15 34  1  0  0  0  0
 15 35  1  0  0  0  0
 16 17  1  0  0  0  0
 16 36  1  0  0  0  0
 16 37  1  0  0  0  0
 17 18  1  0  0  0  0
 17 38  1  0  0  0  0
 17 39  1  0  0  0  0
 18 40  1  0  0  0  0
 18 41  1  0  0  0  0
M  END
> <s_m_source_file>
AV-unprocessed.smi

> <i_m_source_file_index>
2493

> <i_lp_mmshare_version>
43012

> <i_f3d_flags>
0

> <s_epik_input>
W0NIMl0xW0NIMl1bQ0gyXVtDSDJdW0NIMl1bQ0gyXUMxKFtDSDNdKVtDSDJdW05IXUMoPU8pW0NIMl1jMltjSF1bY0hdbltuSF0y

> <s_epik_cmdline>
J2VwaWtfcHl0aG9uJywgJy1waCcsICc3LjAnLCAnLXRuJywgJzgnLCAnLW1hJywgJzIwMCcsICctbWV0YWxfYmluZGluZycsICctaW1hZScsICc8aW5maWxlLm1hZT4nLCAnLW9tYWUnLCAnPG91dGZpbGUubWFlPic=

> <r_lp_tautomer_probability>
0.5

> <r_epik_Ionization_Penalty>
2.55018e-05

> <r_epik_Ionization_Penalty_Charging>
0

> <r_epik_Ionization_Penalty_Neutral>
2.55018e-05

> <r_epik_State_Penalty>
0.41068

> <r_epik_Charging_Adjusted_Penalty>
0.41068

> <i_epik_Tot_Q>
0

> <i_epik_Tot_abs_Q>
0

> <r_epik_Metal_State_Penalty>
0.410675

> <b_epik_Metal_Only>
0

> <s_lp_Force_Field>
OPLS_2005

> <r_lp_Energy>
19.8643

> <b_lp_Chiralities_Consistent>
1

> <s_lp_Variant>
AV-unprocessed.smi:2493-1

> <Gold.Version>
5.8.1

> <Gold.Id.Protein>
6NUR|6NUR_protein|mol2

> <Gold.PLP.Fitness>
45.4889

> <Gold.PLP.PLP>
-37.1448

> <Gold.PLP.part.hbond>
-2.8446

> <Gold.PLP.part.metal>
0.0000

> <Gold.PLP.part.buried>
-2.9509

> <Gold.PLP.part.nonpolar>
-30.6121

> <Gold.PLP.part.repulsive>
0.5076

> <Gold.PLP.ligand.clash>
0.0000

> <Gold.PLP.ligand.torsion>
0.3197

> <Gold.PLP.Chemscore.Hbond>
2.9920

> <Gold.PLP.Chemscore.CHOScore>
0.0000

> <Gold.PLP.Chemscore.Metal>
0.0000

> <Gold.Chemscore.Hbonds>
donor molecule, donor type, donor heavy atom, donor atom, acceptor molecule, acceptor atom, score
      L1  H     4    25       P1  8028  0.99
      L1  H    12    19       P1  7957  0.98
      P1  H  7989  7998       L1     6  1.00

> <Gold.PLP.Chemscore.Internal.Correction>
0.0074

> <Gold.Rescore>
     Score         DG    S(hbond)    S(metal)    S(lipo)     H(rot)  DE(clash)    DE(int)     intcor
     21.51     -23.79       2.53        0.00     120.54       1.66       1.82       0.46       ----

> <Gold.Chemscore.Fitness>
21.5066

> <Gold.Chemscore.DG>
-23.7884

> <Gold.Chemscore.ZeroCoef>
-5.4800

> <Gold.Chemscore.Hbond>
2.5306

> <Gold.Chemscore.Metal>
0.0000

> <Gold.Chemscore.Lipo>
120.5435

> <Gold.Chemscore.Internal_Hbond>
0.0000

> <Gold.Chemscore.DEClash>
1.8177

> <Gold.Chemscore.DEInternal>
0.4641

> <Gold.Chemscore.Rot>
1.6592

> <Gold.Chemscore.Internal.Correction>
   9.000000E+99

> <Gold.Chemscore.Hbonds>
donor molecule, donor type, donor heavy atom, donor atom, acceptor molecule, acceptor atom, score
      L1  H     4    25       P1  8028  0.91
      L1  H    12    19       P1  7957  0.89
      P1  H  7989  7998       L1     6  0.34

> <Gold.Chemscore.Hbond.Weighted>
-8.4523

> <Gold.Chemscore.Metal.Weighted>
-0.0000

> <Gold.Chemscore.Lipo.Weighted>
-14.1036

> <Gold.Chemscore.Internal_Hbond.Weighted>
0.0000

> <Gold.Chemscore.DEClash.Weighted>
1.8177

> <Gold.Chemscore.DEInternal.Weighted>
0.4641

> <Gold.Chemscore.Rot.Weighted>
4.2475

> <Gold.Chemscore.Internal.Correction.Weighted>
   9.000000E+99

> <Gold.Protein.RotatedTorsions>
[ 6907 6896 6895 6894 ] final -150.23 input  -60.11 | X-H torsion
[ 7974 7965 7964 7962 ] final -121.50 input  175.53 | X-H torsion
[ 8008 7997 7996 7995 ] final -149.20 input   59.86 | X-H torsion
[ 10167 10162 10161 10158 ] final -176.60 input  -65.29 | X-H torsion
[ 10718 10713 10712 10709 ] final -117.95 input   66.30 | X-H torsion
[ 10763 10752 10751 10750 ] final   58.79 input  -60.55 | X-H torsion
[ 11005 11000 10999 10996 ] final   69.12 input  -57.11 | X-H torsion

> <Gold.Protein.ActiveResidues>
 VAL166  LYS551  ARG553  GLY616  TRP617  ASP618  TYR619  PRO620  LYS621  CYS622 
 ASP623  PHE694  ASN695  SER759  ASP760  ASP761  ALA762  ILE779  LEU786  VAL792 
 PHE793  MET794  SER795  GLU796  ALA797  LYS798  CYS799  TRP800  GLU811  SER814 

> <Gold.Protein.RotatedAtoms>
  151.1956  133.4641  159.2595 H   0  0  0  0  0  0  0  0  0  0  0  0  # atno 6907 bound_to 6896
  151.1120  135.0032  159.8508 H   0  0  0  0  0  0  0  0  0  0  0  0  # atno 6908 bound_to 6896
  152.5451  134.1874  159.8713 H   0  0  0  0  0  0  0  0  0  0  0  0  # atno 6909 bound_to 6896
  145.0396  140.8134  143.4274 H   0  0  0  0  0  0  0  0  0  0  0  0  # atno 7974 bound_to 7965
  155.6039  140.0665  157.2725 H   0  0  0  0  0  0  0  0  0  0  0  0  # atno 8008 bound_to 7997
  154.4271  140.1813  156.1249 H   0  0  0  0  0  0  0  0  0  0  0  0  # atno 8009 bound_to 7997
  156.0138  140.3324  155.6971 H   0  0  0  0  0  0  0  0  0  0  0  0  # atno 8010 bound_to 7997
  139.5521  144.2082  152.1096 H   0  0  0  0  0  0  0  0  0  0  0  0  # atno 10167 bound_to 10162
  156.1071  130.6219  150.9229 H   0  0  0  0  0  0  0  0  0  0  0  0  # atno 10718 bound_to 10713
  152.9879  135.5594  154.5608 H   0  0  0  0  0  0  0  0  0  0  0  0  # atno 10763 bound_to 10752
  154.5027  135.2798  155.1409 H   0  0  0  0  0  0  0  0  0  0  0  0  # atno 10764 bound_to 10752
  154.2833  135.6340  153.5408 H   0  0  0  0  0  0  0  0  0  0  0  0  # atno 10765 bound_to 10752
  139.9672  134.6961  156.0521 H   0  0  0  0  0  0  0  0  0  0  0  0  # atno 11005 bound_to 11000
  145.1664  139.2429  143.5365 LP  0  0  0  0  0  0  0  0  0  0  0  0  # atno 17320 bound_to 7965
  146.3508  140.1404  142.8594 LP  0  0  0  0  0  0  0  0  0  0  0  0  # atno 17321 bound_to 7965
  140.1579  144.5053  150.6649 LP  0  0  0  0  0  0  0  0  0  0  0  0  # atno 17342 bound_to 10162
  140.6786  143.2316  151.5442 LP  0  0  0  0  0  0  0  0  0  0  0  0  # atno 17343 bound_to 10162
  157.6248  131.0926  150.8554 LP  0  0  0  0  0  0  0  0  0  0  0  0  # atno 17370 bound_to 10713
  156.8671  130.5133  149.5299 LP  0  0  0  0  0  0  0  0  0  0  0  0  # atno 17371 bound_to 10713
  141.1352  133.6577  156.3573 LP  0  0  0  0  0  0  0  0  0  0  0  0  # atno 17394 bound_to 11000
  140.5371  134.6157  157.5368 LP  0  0  0  0  0  0  0  0  0  0  0  0  # atno 17395 bound_to 11000

$$$$
