AV-unprocessed.smi:1922|AV-procd|sdf|7788|dock2
  -GOLD-   22720 9533D 1   1.00000     0.00000
 Structure written by MMmdl.
 35 36  0  0  0  0  0  0  0  0  1 V2000
  150.1105  141.1974  157.9367 O   0  0  0  0  0  0  0  0  0  0  0  0
  150.7694  141.7253  157.0418 C   0  0  0  0  0  0  0  0  0  0  0  0
  151.1493  140.8996  155.7996 C   0  0  0  0  0  0  0  0  0  0  0  0
  150.0104  140.2949  155.0883 N   0  0  0  0  0  0  0  0  0  0  0  0
  149.9953  138.9084  155.1188 N   0  0  0  0  0  0  0  0  0  0  0  0
  149.0589  138.2600  154.5126 C   0  0  0  0  0  0  0  0  0  0  0  0
  149.0840  136.8880  154.5650 O   0  0  0  0  0  0  0  0  0  0  0  0
  148.0110  138.9536  153.7963 C   0  0  0  0  0  0  0  0  0  0  0  0
  148.0324  140.3042  153.7746 C   0  0  0  0  0  0  0  0  0  0  0  0
  149.0814  141.0707  154.4490 C   0  0  0  0  0  0  0  0  0  0  0  0
  149.1323  142.3001  154.4343 O   0  0  0  0  0  0  0  0  0  0  0  0
  151.1716  143.0046  157.0947 N   0  0  0  0  0  0  0  0  0  0  0  0
  150.8692  143.9356  158.1712 C   0  0  0  0  0  0  0  0  0  0  0  0
  151.9278  143.8365  159.2820 C   0  0  0  0  0  0  0  0  0  0  0  0
  152.3405  142.4020  159.6147 C   0  0  0  0  0  0  0  0  0  0  0  0
  153.0050  142.4983  160.9916 C   0  0  0  0  0  0  0  0  0  0  0  0
  152.4125  143.7443  161.6683 C   0  0  0  0  0  0  0  0  0  0  0  0
  151.4823  144.3960  160.6377 C   0  0  0  0  0  0  0  0  0  0  0  0
  148.9550  136.5988  153.6749 H   0  0  0  0  0  0  0  0  0  0  0  0
  151.7034  141.5520  155.1225 H   0  0  0  0  0  0  0  0  0  0  0  0
  151.8599  140.1265  156.0977 H   0  0  0  0  0  0  0  0  0  0  0  0
  147.2327  138.3975  153.2947 H   0  0  0  0  0  0  0  0  0  0  0  0
  147.2557  140.8355  153.2443 H   0  0  0  0  0  0  0  0  0  0  0  0
  151.7115  143.3626  156.3202 H   0  0  0  0  0  0  0  0  0  0  0  0
  150.8333  144.9493  157.7688 H   0  0  0  0  0  0  0  0  0  0  0  0
  149.8810  143.7151  158.5777 H   0  0  0  0  0  0  0  0  0  0  0  0
  152.8205  144.3800  158.9671 H   0  0  0  0  0  0  0  0  0  0  0  0
  151.4562  141.7665  159.6822 H   0  0  0  0  0  0  0  0  0  0  0  0
  153.0008  141.9702  158.8622 H   0  0  0  0  0  0  0  0  0  0  0  0
  152.8439  141.5942  161.5797 H   0  0  0  0  0  0  0  0  0  0  0  0
  154.0824  142.6230  160.8753 H   0  0  0  0  0  0  0  0  0  0  0  0
  151.8710  143.4908  162.5806 H   0  0  0  0  0  0  0  0  0  0  0  0
  153.2132  144.4313  161.9459 H   0  0  0  0  0  0  0  0  0  0  0  0
  151.5221  145.4854  160.6745 H   0  0  0  0  0  0  0  0  0  0  0  0
  150.4523  144.0986  160.8404 H   0  0  0  0  0  0  0  0  0  0  0  0
  1  2  2  0  0  0  0
  2  3  1  0  0  0  0
  2 12  1  0  0  0  0
  3 20  1  0  0  0  0
  3 21  1  0  0  0  0
  3  4  1  0  0  0  0
  4  5  1  0  0  0  0
  4 10  1  0  0  0  0
  5  6  2  0  0  0  0
  6  7  1  0  0  0  0
  6  8  1  0  0  0  0
  7 19  1  0  0  0  0
  8 22  1  0  0  0  0
  8  9  2  0  0  0  0
  9 23  1  0  0  0  0
  9 10  1  0  0  0  0
 10 11  2  0  0  0  0
 12 13  1  0  0  0  0
 12 24  1  0  0  0  0
 13 14  1  0  0  0  0
 13 25  1  0  0  0  0
 13 26  1  0  0  0  0
 14 18  1  0  0  0  0
 14 15  1  0  0  0  0
 14 27  1  0  0  0  0
 15 16  1  0  0  0  0
 15 28  1  0  0  0  0
 15 29  1  0  0  0  0
 16 17  1  0  0  0  0
 16 30  1  0  0  0  0
 16 31  1  0  0  0  0
 17 18  1  0  0  0  0
 17 32  1  0  0  0  0
 17 33  1  0  0  0  0
 18 34  1  0  0  0  0
 18 35  1  0  0  0  0
M  END
> <s_m_source_file>
AV-unprocessed.smi

> <i_m_source_file_index>
1922

> <i_lp_mmshare_version>
43012

> <i_f3d_flags>
0

> <s_epik_input>
W0NIMl0xW0NIMl1bQ0gyXVtDSDJdW0NIXTFbQ0gyXVtOSF1DKD1PKVtDSDJdbjJbbkhdYyg9TylbY0hdW2NIXWMyPU8=

> <s_epik_cmdline>
J2VwaWtfcHl0aG9uJywgJy1waCcsICc3LjAnLCAnLXRuJywgJzgnLCAnLW1hJywgJzIwMCcsICctbWV0YWxfYmluZGluZycsICctaW1hZScsICc8aW5maWxlLm1hZT4nLCAnLW9tYWUnLCAnPG91dGZpbGUubWFlPic=

> <r_lp_tautomer_probability>
0.9996

> <r_epik_Ionization_Penalty>
2.12182

> <r_epik_Ionization_Penalty_Charging>
3.68417e-08

> <r_epik_Ionization_Penalty_Neutral>
2.12182

> <r_epik_State_Penalty>
1.69868

> <r_epik_Charging_Adjusted_Penalty>
1.69868

> <i_epik_Tot_Q>
0

> <i_epik_Tot_abs_Q>
0

> <r_epik_Metal_State_Penalty>
1.69868

> <b_epik_Metal_Only>
0

> <s_lp_Force_Field>
OPLS_2005

> <r_lp_Energy>
31.2069

> <b_lp_Chiralities_Consistent>
1

> <s_lp_Variant>
AV-unprocessed.smi:1922-2

> <Gold.Version>
5.8.1

> <Gold.Id.Protein>
6NUR|6NUR_protein|mol2

> <Gold.PLP.Fitness>
39.8969

> <Gold.PLP.PLP>
-37.1416

> <Gold.PLP.part.hbond>
-2.4416

> <Gold.PLP.part.metal>
0.0000

> <Gold.PLP.part.buried>
-0.9564

> <Gold.PLP.part.nonpolar>
-34.2989

> <Gold.PLP.part.repulsive>
2.3994

> <Gold.PLP.ligand.clash>
0.0000

> <Gold.PLP.ligand.torsion>
0.4008

> <Gold.PLP.Chemscore.Hbond>
1.1830

> <Gold.PLP.Chemscore.CHOScore>
0.0000

> <Gold.PLP.Chemscore.Metal>
0.0000

> <Gold.Chemscore.Hbonds>
donor molecule, donor type, donor heavy atom, donor atom, acceptor molecule, acceptor atom, score
      L1  H     7    19       P1  7948  1.00
      P1  H  8011  8017       L1    11  0.09

> <Gold.PLP.Chemscore.Internal.Correction>
0.0076

> <Gold.Rescore>
     Score         DG    S(hbond)    S(metal)    S(lipo)     H(rot)  DE(clash)    DE(int)     intcor
     12.15     -13.17       1.21        0.00      87.18       2.56       0.58       0.43       ----

> <Gold.Chemscore.Fitness>
12.1532

> <Gold.Chemscore.DG>
-13.1665

> <Gold.Chemscore.ZeroCoef>
-5.4800

> <Gold.Chemscore.Hbond>
1.2100

> <Gold.Chemscore.Metal>
0.0000

> <Gold.Chemscore.Lipo>
87.1781

> <Gold.Chemscore.Internal_Hbond>
0.0000

> <Gold.Chemscore.DEClash>
0.5831

> <Gold.Chemscore.DEInternal>
0.4302

> <Gold.Chemscore.Rot>
2.5605

> <Gold.Chemscore.Internal.Correction>
   9.000000E+99

> <Gold.Chemscore.Hbonds>
donor molecule, donor type, donor heavy atom, donor atom, acceptor molecule, acceptor atom, score
      L1  H     7    19       P1  7948  1.00
      P1  H  8011  8017       L1    11  0.01

> <Gold.Chemscore.Hbond.Weighted>
-4.0415

> <Gold.Chemscore.Metal.Weighted>
-0.0000

> <Gold.Chemscore.Lipo.Weighted>
-10.1998

> <Gold.Chemscore.Internal_Hbond.Weighted>
0.0000

> <Gold.Chemscore.DEClash.Weighted>
0.5831

> <Gold.Chemscore.DEInternal.Weighted>
0.4302

> <Gold.Chemscore.Rot.Weighted>
6.5548

> <Gold.Chemscore.Internal.Correction.Weighted>
   9.000000E+99

> <Gold.Protein.RotatedTorsions>
[ 6907 6896 6895 6894 ] final   40.09 input  -60.11 | X-H torsion
[ 7974 7965 7964 7962 ] final  -98.78 input  175.53 | X-H torsion
[ 8008 7997 7996 7995 ] final   -4.37 input   59.86 | X-H torsion
[ 10167 10162 10161 10158 ] final   33.94 input  -65.29 | X-H torsion
[ 10718 10713 10712 10709 ] final   11.76 input   66.30 | X-H torsion
[ 10763 10752 10751 10750 ] final  172.02 input  -60.55 | X-H torsion
[ 11005 11000 10999 10996 ] final   -4.05 input  -57.11 | X-H torsion

> <Gold.Protein.ActiveResidues>
 VAL166  LYS551  ARG553  GLY616  TRP617  ASP618  TYR619  PRO620  LYS621  CYS622 
 ASP623  PHE694  ASN695  SER759  ASP760  ASP761  ALA762  ILE779  LEU786  VAL792 
 PHE793  MET794  SER795  GLU796  ALA797  LYS798  CYS799  TRP800  GLU811  SER814 

> <Gold.Protein.RotatedAtoms>
  152.1779  134.8779  160.0528 H   0  0  0  0  0  0  0  0  0  0  0  0  # atno 6907 bound_to 6896
  151.9714  133.3722  159.4080 H   0  0  0  0  0  0  0  0  0  0  0  0  # atno 6908 bound_to 6896
  150.6912  134.4059  159.5184 H   0  0  0  0  0  0  0  0  0  0  0  0  # atno 6909 bound_to 6896
  145.3161  140.9411  143.2742 H   0  0  0  0  0  0  0  0  0  0  0  0  # atno 7974 bound_to 7965
  154.6151  140.2486  155.7620 H   0  0  0  0  0  0  0  0  0  0  0  0  # atno 8008 bound_to 7997
  156.2394  140.2938  156.0350 H   0  0  0  0  0  0  0  0  0  0  0  0  # atno 8009 bound_to 7997
  155.1989  140.0393  157.2904 H   0  0  0  0  0  0  0  0  0  0  0  0  # atno 8010 bound_to 7997
  140.4361  144.1255  150.6166 H   0  0  0  0  0  0  0  0  0  0  0  0  # atno 10167 bound_to 10162
  157.0003  130.6077  149.5695 H   0  0  0  0  0  0  0  0  0  0  0  0  # atno 10718 bound_to 10713
  154.4201  135.2757  155.1981 H   0  0  0  0  0  0  0  0  0  0  0  0  # atno 10763 bound_to 10752
  154.3930  135.6062  153.5857 H   0  0  0  0  0  0  0  0  0  0  0  0  # atno 10764 bound_to 10752
  152.9833  135.5908  154.4496 H   0  0  0  0  0  0  0  0  0  0  0  0  # atno 10765 bound_to 10752
  140.6760  133.9194  155.8525 H   0  0  0  0  0  0  0  0  0  0  0  0  # atno 11005 bound_to 11000
  144.8976  139.4691  143.6648 LP  0  0  0  0  0  0  0  0  0  0  0  0  # atno 17320 bound_to 7965
  146.3100  139.7712  142.9027 LP  0  0  0  0  0  0  0  0  0  0  0  0  # atno 17321 bound_to 7965
  140.4372  143.2542  151.9520 LP  0  0  0  0  0  0  0  0  0  0  0  0  # atno 17342 bound_to 10162
  139.4787  144.5689  151.8120 LP  0  0  0  0  0  0  0  0  0  0  0  0  # atno 17343 bound_to 10162
  156.0173  130.5268  150.8174 LP  0  0  0  0  0  0  0  0  0  0  0  0  # atno 17370 bound_to 10713
  157.5395  131.0940  150.9847 LP  0  0  0  0  0  0  0  0  0  0  0  0  # atno 17371 bound_to 10713
  141.0355  134.0696  157.3965 LP  0  0  0  0  0  0  0  0  0  0  0  0  # atno 17394 bound_to 11000
  139.8966  135.0146  156.7061 LP  0  0  0  0  0  0  0  0  0  0  0  0  # atno 17395 bound_to 11000

$$$$
