AV-unprocessed.smi:13|AV-procd|sdf|69|dock1
  -GOLD-   2262015193D 1   1.00000     0.00000
 Structure written by MMmdl.
 54 58  0  0  0  0  0  0  0  0  1 V2000
  151.6014  141.7913  156.6061 C   0  0  0  0  0  0  0  0  0  0  0  0
  151.3486  141.2319  158.0124 C   0  0  0  0  0  0  0  0  0  0  0  0
  149.9453  140.6266  157.9978 C   0  0  0  0  0  0  0  0  0  0  0  0
  152.4575  140.3315  158.5788 C   0  0  0  0  0  0  0  0  0  0  0  0
  152.9680  141.5088  159.2619 N   0  0  0  0  0  0  0  0  0  0  0  0
  153.4811  141.2776  160.5659 C   0  0  0  0  0  0  0  0  0  0  0  0
  153.0309  142.1010  161.5457 N   0  0  0  0  0  0  0  0  0  0  0  0
  153.4424  141.9624  162.8089 C   0  0  0  0  0  0  0  0  0  0  0  0
  154.2963  141.0723  163.3133 N   0  0  0  0  0  0  0  0  0  0  0  0
  154.7612  140.2368  162.3426 C   0  0  0  0  0  0  0  0  0  0  0  0
  154.4103  140.2683  160.9621 C   0  0  0  0  0  0  0  0  0  0  0  0
  155.0857  139.2570  160.2871 N   0  0  0  0  0  0  0  0  0  0  0  0
  155.7907  138.6652  161.2114 C   0  0  0  0  0  0  0  0  0  0  0  0
  155.6612  139.1940  162.4748 N   0  0  0  0  0  0  0  0  0  0  0  0
  156.3315  138.7375  163.6826 C   0  0  0  0  0  0  0  0  0  0  0  0
  155.3756  138.0602  164.6914 C   0  0  1  0  0  0  0  0  0  0  0  0
  156.1061  137.7221  165.8581 O   0  0  0  0  0  0  0  0  0  0  0  0
  154.1839  138.9210  165.0990 C   0  0  0  0  0  0  0  0  0  0  0  0
  153.1025  137.8877  165.3802 C   0  0  0  0  0  0  0  0  0  0  0  0
  153.3094  136.9337  164.3522 O   0  0  0  0  0  0  0  0  0  0  0  0
  154.7106  136.7814  164.1444 C   0  0  0  0  0  0  0  0  0  0  0  0
  151.6616  142.1537  159.2102 C   0  0  1  0  0  0  0  0  0  0  0  0
  151.7904  143.6691  159.0541 C   0  0  2  0  0  0  0  0  0  0  0  0
  151.8594  144.4283  160.3788 C   0  0  0  0  0  0  0  0  0  0  0  0
  151.3409  145.8116  160.0224 C   0  0  0  0  0  0  0  0  0  0  0  0
  150.6189  145.6043  158.6878 C   0  0  0  0  0  0  0  0  0  0  0  0
  150.6042  144.1980  158.4840 O   0  0  0  0  0  0  0  0  0  0  0  0
  151.5203  141.0135  155.8463 H   0  0  0  0  0  0  0  0  0  0  0  0
  152.5994  142.2213  156.5157 H   0  0  0  0  0  0  0  0  0  0  0  0
  150.8866  142.5748  156.3522 H   0  0  0  0  0  0  0  0  0  0  0  0
  149.6903  140.1864  158.9623 H   0  0  0  0  0  0  0  0  0  0  0  0
  149.8561  139.8376  157.2505 H   0  0  0  0  0  0  0  0  0  0  0  0
  149.1885  141.3801  157.7774 H   0  0  0  0  0  0  0  0  0  0  0  0
  152.0875  139.5510  159.2442 H   0  0  0  0  0  0  0  0  0  0  0  0
  153.1411  139.9342  157.8280 H   0  0  0  0  0  0  0  0  0  0  0  0
  153.0281  142.6662  163.5157 H   0  0  0  0  0  0  0  0  0  0  0  0
  156.4342  137.8251  160.9945 H   0  0  0  0  0  0  0  0  0  0  0  0
  157.1223  138.0443  163.3927 H   0  0  0  0  0  0  0  0  0  0  0  0
  156.8293  139.5913  164.1443 H   0  0  0  0  0  0  0  0  0  0  0  0
  155.8522  136.8527  166.1282 H   0  0  0  0  0  0  0  0  0  0  0  0
  154.3835  139.5808  165.9447 H   0  0  0  0  0  0  0  0  0  0  0  0
  153.8629  139.5417  164.2617 H   0  0  0  0  0  0  0  0  0  0  0  0
  153.2494  137.4193  166.3547 H   0  0  0  0  0  0  0  0  0  0  0  0
  152.0972  138.3076  165.3442 H   0  0  0  0  0  0  0  0  0  0  0  0
  154.8934  136.6451  163.0780 H   0  0  0  0  0  0  0  0  0  0  0  0
  155.0645  135.8825  164.6519 H   0  0  0  0  0  0  0  0  0  0  0  0
  151.0348  141.8790  160.0589 H   0  0  0  0  0  0  0  0  0  0  0  0
  152.6366  143.9403  158.4197 H   0  0  0  0  0  0  0  0  0  0  0  0
  151.1962  143.9677  161.1125 H   0  0  0  0  0  0  0  0  0  0  0  0
  152.8641  144.4473  160.8020 H   0  0  0  0  0  0  0  0  0  0  0  0
  150.6704  146.1897  160.7948 H   0  0  0  0  0  0  0  0  0  0  0  0
  152.1586  146.5240  159.9080 H   0  0  0  0  0  0  0  0  0  0  0  0
  149.6061  146.0077  158.6924 H   0  0  0  0  0  0  0  0  0  0  0  0
  151.1711  146.0792  157.8757 H   0  0  0  0  0  0  0  0  0  0  0  0
  1  2  1  0  0  0  0
  1 28  1  0  0  0  0
  1 29  1  0  0  0  0
  1 30  1  0  0  0  0
  2 22  1  0  0  0  0
  2  3  1  0  0  0  0
  2  4  1  0  0  0  0
  3 31  1  0  0  0  0
  3 32  1  0  0  0  0
  3 33  1  0  0  0  0
  4  5  1  0  0  0  0
  4 34  1  0  0  0  0
  4 35  1  0  0  0  0
  5  6  1  0  0  0  0
  5 22  1  0  0  0  0
  6 11  1  0  0  0  0
  6  7  2  0  0  0  0
  7  8  1  0  0  0  0
  8  9  2  0  0  0  0
  8 36  1  0  0  0  0
  9 10  1  0  0  0  0
 10 14  1  0  0  0  0
 10 11  2  0  0  0  0
 11 12  1  0  0  0  0
 12 13  2  0  0  0  0
 13 14  1  0  0  0  0
 13 37  1  0  0  0  0
 14 15  1  0  0  0  0
 15 16  1  0  0  0  0
 15 38  1  0  0  0  0
 15 39  1  0  0  0  0
 16 21  1  0  0  0  0
 16 17  1  0  0  0  0
 16 18  1  0  0  0  0
 17 40  1  0  0  0  0
 18 19  1  0  0  0  0
 18 41  1  0  0  0  0
 18 42  1  0  0  0  0
 19 20  1  0  0  0  0
 19 43  1  0  0  0  0
 19 44  1  0  0  0  0
 20 21  1  0  0  0  0
 21 45  1  0  0  0  0
 21 46  1  0  0  0  0
 22 23  1  0  0  0  0
 22 47  1  0  0  0  0
 23 27  1  0  0  0  0
 23 24  1  0  0  0  0
 23 48  1  0  0  0  0
 24 25  1  0  0  0  0
 24 49  1  0  0  0  0
 24 50  1  0  0  0  0
 25 26  1  0  0  0  0
 25 51  1  0  0  0  0
 25 52  1  0  0  0  0
 26 27  1  0  0  0  0
 26 53  1  0  0  0  0
 26 54  1  0  0  0  0
M  END
> <s_m_source_file>
AV-unprocessed.smi

> <i_m_source_file_index>
13

> <i_lp_mmshare_version>
43012

> <i_f3d_flags>
0

> <s_epik_input>
TzFbQ0gyXVtDSDJdW0NIMl1bQ0BIXTFbQ0BASF0yTihbQ0gyXUMyKFtDSDNdKVtDSDNdKWMobltjSF1uMyljKGMzNCluW2NIXW40W0NIMl1bQ0BAXTUoW09IXSlbQ0gyXVtDSDJdT1tDSDJdNQ==

> <s_epik_cmdline>
J2VwaWtfcHl0aG9uJywgJy1waCcsICc3LjAnLCAnLXRuJywgJzgnLCAnLW1hJywgJzIwMCcsICctbWV0YWxfYmluZGluZycsICctaW1hZScsICc8aW5maWxlLm1hZT4nLCAnLW9tYWUnLCAnPG91dGZpbGUubWFlPic=

> <r_lp_tautomer_probability>
1

> <r_epik_Ionization_Penalty>
0.00202764

> <r_epik_Ionization_Penalty_Charging>
0

> <r_epik_Ionization_Penalty_Neutral>
0.00202764

> <r_epik_State_Penalty>
0.00134017

> <r_epik_Charging_Adjusted_Penalty>
0.00134017

> <i_epik_Tot_Q>
0

> <i_epik_Tot_abs_Q>
0

> <r_epik_Metal_State_Penalty>
-0

> <b_epik_Metal_Only>
0

> <s_lp_Force_Field>
OPLS_2005

> <r_lp_Energy>
60.4132

> <b_lp_Chiralities_Consistent>
1

> <s_lp_Variant>
AV-unprocessed.smi:13-1

> <Gold.Version>
5.8.1

> <Gold.Id.Protein>
6NUR|6NUR_protein|mol2

> <Gold.PLP.Fitness>
40.2452

> <Gold.PLP.PLP>
-41.5251

> <Gold.PLP.part.hbond>
-0.3858

> <Gold.PLP.part.metal>
0.0000

> <Gold.PLP.part.buried>
-6.1338

> <Gold.PLP.part.nonpolar>
-34.1651

> <Gold.PLP.part.repulsive>
0.1677

> <Gold.PLP.ligand.clash>
0.0000

> <Gold.PLP.ligand.torsion>
0.8996

> <Gold.PLP.Chemscore.Hbond>
0.0000

> <Gold.PLP.Chemscore.CHOScore>
0.0000

> <Gold.PLP.Chemscore.Metal>
0.0000

> <Gold.PLP.Chemscore.Internal.Correction>
0.5192

> <Gold.Rescore>
     Score         DG    S(hbond)    S(metal)    S(lipo)     H(rot)  DE(clash)    DE(int)     intcor
      9.73     -12.33       0.00        0.00     108.83       2.30       0.08       2.51       ----

> <Gold.Chemscore.Fitness>
9.7301

> <Gold.Chemscore.DG>
-12.3262

> <Gold.Chemscore.ZeroCoef>
-5.4800

> <Gold.Chemscore.Hbond>
0.0000

> <Gold.Chemscore.Metal>
0.0000

> <Gold.Chemscore.Lipo>
108.8298

> <Gold.Chemscore.Internal_Hbond>
0.0000

> <Gold.Chemscore.DEClash>
0.0834

> <Gold.Chemscore.DEInternal>
2.5127

> <Gold.Chemscore.Rot>
2.2996

> <Gold.Chemscore.Internal.Correction>
   9.000000E+99

> <Gold.Chemscore.Hbond.Weighted>
-0.0001

> <Gold.Chemscore.Metal.Weighted>
-0.0000

> <Gold.Chemscore.Lipo.Weighted>
-12.7331

> <Gold.Chemscore.Internal_Hbond.Weighted>
0.0000

> <Gold.Chemscore.DEClash.Weighted>
0.0834

> <Gold.Chemscore.DEInternal.Weighted>
2.5127

> <Gold.Chemscore.Rot.Weighted>
5.8869

> <Gold.Chemscore.Internal.Correction.Weighted>
   9.000000E+99

> <Gold.Protein.RotatedTorsions>
[ 6907 6896 6895 6894 ] final  -12.02 input  -60.11 | X-H torsion
[ 7974 7965 7964 7962 ] final  103.95 input  175.53 | X-H torsion
[ 8008 7997 7996 7995 ] final   21.73 input   59.86 | X-H torsion
[ 10167 10162 10161 10158 ] final -157.73 input  -65.29 | X-H torsion
[ 10718 10713 10712 10709 ] final   84.74 input   66.30 | X-H torsion
[ 10763 10752 10751 10750 ] final  -31.17 input  -60.55 | X-H torsion
[ 11005 11000 10999 10996 ] final    3.34 input  -57.11 | X-H torsion

> <Gold.Protein.ActiveResidues>
 VAL166  LYS551  ARG553  GLY616  TRP617  ASP618  TYR619  PRO620  LYS621  CYS622 
 ASP623  PHE694  ASN695  SER759  ASP760  ASP761  ALA762  ILE779  LEU786  VAL792 
 PHE793  MET794  SER795  GLU796  ALA797  LYS798  CYS799  TRP800  GLU811  SER814 

> <Gold.Protein.RotatedAtoms>
  151.3771  135.0933  159.9483 H   0  0  0  0  0  0  0  0  0  0  0  0  # atno 6907 bound_to 6896
  152.5119  133.9108  159.7497 H   0  0  0  0  0  0  0  0  0  0  0  0  # atno 6908 bound_to 6896
  150.9533  133.6470  159.2797 H   0  0  0  0  0  0  0  0  0  0  0  0  # atno 6909 bound_to 6896
  145.3392  139.2467  143.3619 H   0  0  0  0  0  0  0  0  0  0  0  0  # atno 7974 bound_to 7965
  154.9549  140.3070  155.5057 H   0  0  0  0  0  0  0  0  0  0  0  0  # atno 8008 bound_to 7997
  156.2983  140.2312  156.4568 H   0  0  0  0  0  0  0  0  0  0  0  0  # atno 8009 bound_to 7997
  154.8019  140.0433  157.1267 H   0  0  0  0  0  0  0  0  0  0  0  0  # atno 8010 bound_to 7997
  139.6747  143.9684  152.2304 H   0  0  0  0  0  0  0  0  0  0  0  0  # atno 10167 bound_to 10162
  157.6903  131.0146  150.2718 H   0  0  0  0  0  0  0  0  0  0  0  0  # atno 10718 bound_to 10713
  153.7929  135.6896  153.4868 H   0  0  0  0  0  0  0  0  0  0  0  0  # atno 10763 bound_to 10752
  153.1738  135.4532  154.9936 H   0  0  0  0  0  0  0  0  0  0  0  0  # atno 10764 bound_to 10752
  154.8037  135.3348  154.7424 H   0  0  0  0  0  0  0  0  0  0  0  0  # atno 10765 bound_to 10752
  140.5942  133.9896  155.8102 H   0  0  0  0  0  0  0  0  0  0  0  0  # atno 11005 bound_to 11000
  146.3014  140.3985  142.8702 LP  0  0  0  0  0  0  0  0  0  0  0  0  # atno 17320 bound_to 7965
  144.8804  140.7392  143.5990 LP  0  0  0  0  0  0  0  0  0  0  0  0  # atno 17321 bound_to 7965
  139.9458  144.6652  150.8221 LP  0  0  0  0  0  0  0  0  0  0  0  0  # atno 17342 bound_to 10162
  140.7631  143.3215  151.2612 LP  0  0  0  0  0  0  0  0  0  0  0  0  # atno 17343 bound_to 10162
  156.3279  130.3796  149.7517 LP  0  0  0  0  0  0  0  0  0  0  0  0  # atno 17370 bound_to 10713
  156.5066  130.8153  151.3153 LP  0  0  0  0  0  0  0  0  0  0  0  0  # atno 17371 bound_to 10713
  141.0915  133.9909  157.3229 LP  0  0  0  0  0  0  0  0  0  0  0  0  # atno 17394 bound_to 11000
  139.9261  135.0201  156.8237 LP  0  0  0  0  0  0  0  0  0  0  0  0  # atno 17395 bound_to 11000

$$$$
