AV-unprocessed.smi:21|AV-procd|sdf|168|dock10
  -GOLD-   2262015413D 1   1.00000     0.00000
 Structure written by MMmdl.
 61 64  0  0  0  0  0  0  0  0  1 V2000
  148.2925  135.0086  158.7015 C   0  0  0  0  0  0  0  0  0  0  0  0
  149.6587  135.1400  158.3399 O   0  0  0  0  0  0  0  0  0  0  0  0
  149.8463  135.4161  156.9590 C   0  0  2  0  0  0  0  0  0  0  0  0
  148.9831  136.5934  156.4827 C   0  0  0  0  0  0  0  0  0  0  0  0
  148.3837  136.1017  155.1587 C   0  0  2  0  0  0  0  0  0  0  0  0
  147.1083  136.8616  154.7220 C   0  0  0  0  0  0  0  0  0  0  0  0
  147.3785  138.1341  154.0490 N   0  0  0  0  0  0  0  0  0  0  0  0
  146.7392  138.3630  152.7566 C   0  0  0  0  0  0  0  0  0  0  0  0
  148.5818  138.7243  154.2817 C   0  0  0  0  0  0  0  0  0  0  0  0
  149.7156  138.1156  153.8399 N   0  0  0  0  0  0  0  0  0  0  0  0
  150.9158  138.6283  154.1231 C   0  0  0  0  0  0  0  0  0  0  0  0
  151.2095  139.7211  154.8279 N   0  0  0  0  0  0  0  0  0  0  0  0
  150.0792  140.3547  155.2514 C   0  0  0  0  0  0  0  0  0  0  0  0
  148.7383  139.9423  155.0060 C   0  0  0  0  0  0  0  0  0  0  0  0
  147.8576  140.8673  155.5558 N   0  0  0  0  0  0  0  0  0  0  0  0
  148.6301  141.7567  156.1146 C   0  0  0  0  0  0  0  0  0  0  0  0
  149.9791  141.5012  156.0208 N   0  0  0  0  0  0  0  0  0  0  0  0
  151.0554  142.3014  156.5796 C   0  0  0  0  0  0  0  0  0  0  0  0
  151.2946  142.0816  158.1004 C   0  0  1  0  0  0  0  0  0  0  0  0
  152.1278  140.7946  158.3076 C   0  0  0  0  0  0  0  0  0  0  0  0
  151.3833  139.6416  157.9727 O   0  0  0  0  0  0  0  0  0  0  0  0
  151.9736  143.2889  158.8122 C   0  0  1  0  0  0  0  0  0  0  0  0
  151.2230  144.6117  158.7872 C   0  0  0  0  0  0  0  0  0  0  0  0
  151.8734  145.3737  159.9315 C   0  0  0  0  0  0  0  0  0  0  0  0
  152.0904  144.3920  160.9317 O   0  0  0  0  0  0  0  0  0  0  0  0
  152.1545  143.1027  160.3289 C   0  0  0  0  0  0  0  0  0  0  0  0
  148.1788  134.6798  155.3868 N   0  0  0  0  0  0  0  0  0  0  0  0
  147.9454  133.9099  154.1720 C   0  0  0  0  0  0  0  0  0  0  0  0
  149.3695  134.2403  156.0957 C   0  0  0  0  0  0  0  0  0  0  0  0
  150.9019  135.5965  156.7478 H   0  0  0  0  0  0  0  0  0  0  0  0
  149.1444  136.2202  154.3849 H   0  0  0  0  0  0  0  0  0  0  0  0
  148.2119  134.8200  159.7716 H   0  0  0  0  0  0  0  0  0  0  0  0
  147.8163  134.1781  158.1798 H   0  0  0  0  0  0  0  0  0  0  0  0
  147.7379  135.9217  158.4823 H   0  0  0  0  0  0  0  0  0  0  0  0
  148.1850  136.7888  157.2012 H   0  0  0  0  0  0  0  0  0  0  0  0
  149.5678  137.5064  156.3708 H   0  0  0  0  0  0  0  0  0  0  0  0
  146.5430  136.2492  154.0199 H   0  0  0  0  0  0  0  0  0  0  0  0
  146.4502  136.9895  155.5781 H   0  0  0  0  0  0  0  0  0  0  0  0
  146.7151  139.4270  152.5184 H   0  0  0  0  0  0  0  0  0  0  0  0
  145.7106  138.0022  152.7701 H   0  0  0  0  0  0  0  0  0  0  0  0
  147.2712  137.8404  151.9609 H   0  0  0  0  0  0  0  0  0  0  0  0
  151.7620  138.0761  153.7424 H   0  0  0  0  0  0  0  0  0  0  0  0
  148.2327  142.6117  156.6418 H   0  0  0  0  0  0  0  0  0  0  0  0
  151.9508  142.0540  156.0093 H   0  0  0  0  0  0  0  0  0  0  0  0
  150.8518  143.3545  156.3820 H   0  0  0  0  0  0  0  0  0  0  0  0
  150.3314  141.9182  158.5846 H   0  0  0  0  0  0  0  0  0  0  0  0
  153.0392  140.8229  157.7096 H   0  0  0  0  0  0  0  0  0  0  0  0
  152.4332  140.6791  159.3468 H   0  0  0  0  0  0  0  0  0  0  0  0
  150.4909  139.7657  158.2583 H   0  0  0  0  0  0  0  0  0  0  0  0
  152.9568  143.4551  158.3685 H   0  0  0  0  0  0  0  0  0  0  0  0
  151.3295  145.1534  157.8496 H   0  0  0  0  0  0  0  0  0  0  0  0
  150.1613  144.4603  158.9868 H   0  0  0  0  0  0  0  0  0  0  0  0
  152.8368  145.7791  159.6199 H   0  0  0  0  0  0  0  0  0  0  0  0
  151.2596  146.1976  160.2948 H   0  0  0  0  0  0  0  0  0  0  0  0
  151.3502  142.4983  160.7499 H   0  0  0  0  0  0  0  0  0  0  0  0
  153.0999  142.6158  160.5687 H   0  0  0  0  0  0  0  0  0  0  0  0
  147.8537  132.8484  154.4036 H   0  0  0  0  0  0  0  0  0  0  0  0
  148.7645  134.0324  153.4622 H   0  0  0  0  0  0  0  0  0  0  0  0
  147.0217  134.2186  153.6832 H   0  0  0  0  0  0  0  0  0  0  0  0
  150.1571  133.9899  155.3830 H   0  0  0  0  0  0  0  0  0  0  0  0
  149.1683  133.3447  156.6844 H   0  0  0  0  0  0  0  0  0  0  0  0
  1  2  1  0  0  0  0
  1 32  1  0  0  0  0
  1 33  1  0  0  0  0
  1 34  1  0  0  0  0
  2  3  1  0  0  0  0
  3 30  1  0  0  0  0
  3 29  1  0  0  0  0
  3  4  1  0  0  0  0
  4  5  1  0  0  0  0
  4 35  1  0  0  0  0
  4 36  1  0  0  0  0
  5 31  1  0  0  0  0
  5  6  1  0  0  0  0
  5 27  1  0  0  0  0
  6  7  1  0  0  0  0
  6 37  1  0  0  0  0
  6 38  1  0  0  0  0
  7  8  1  0  0  0  0
  7  9  1  0  0  0  0
  8 39  1  0  0  0  0
  8 40  1  0  0  0  0
  8 41  1  0  0  0  0
  9 14  1  0  0  0  0
  9 10  2  0  0  0  0
 10 11  1  0  0  0  0
 11 12  2  0  0  0  0
 11 42  1  0  0  0  0
 12 13  1  0  0  0  0
 13 17  1  0  0  0  0
 13 14  2  0  0  0  0
 14 15  1  0  0  0  0
 15 16  2  0  0  0  0
 16 17  1  0  0  0  0
 16 43  1  0  0  0  0
 17 18  1  0  0  0  0
 18 19  1  0  0  0  0
 18 44  1  0  0  0  0
 18 45  1  0  0  0  0
 19 20  1  0  0  0  0
 19 22  1  0  0  0  0
 19 46  1  0  0  0  0
 20 21  1  0  0  0  0
 20 47  1  0  0  0  0
 20 48  1  0  0  0  0
 21 49  1  0  0  0  0
 22 26  1  0  0  0  0
 22 23  1  0  0  0  0
 22 50  1  0  0  0  0
 23 24  1  0  0  0  0
 23 51  1  0  0  0  0
 23 52  1  0  0  0  0
 24 25  1  0  0  0  0
 24 53  1  0  0  0  0
 24 54  1  0  0  0  0
 25 26  1  0  0  0  0
 26 55  1  0  0  0  0
 26 56  1  0  0  0  0
 27 28  1  0  0  0  0
 27 29  1  0  0  0  0
 28 57  1  0  0  0  0
 28 58  1  0  0  0  0
 28 59  1  0  0  0  0
 29 60  1  0  0  0  0
 29 61  1  0  0  0  0
M  END
> <s_m_source_file>
AV-unprocessed.smi

> <i_m_source_file_index>
21

> <i_lp_mmshare_version>
43012

> <i_f3d_flags>
0

> <s_epik_input>
W0NIM11PW0NASF0xW0NIMl1bQ0BIXShOKFtDSDNdKVtDSDJdMSlbQ0gyXU4oW0NIM10pYyhuW2NIXW4yKWMoYzIzKW5bY0hdbjNbQ0gyXVtDQEhdKFtDSDJdW09IXSlbQ0BASF00W0NIMl1bQ0gyXU9bQ0gyXTQ=

> <s_epik_cmdline>
J2VwaWtfcHl0aG9uJywgJy1waCcsICc3LjAnLCAnLXRuJywgJzgnLCAnLW1hJywgJzIwMCcsICctbWV0YWxfYmluZGluZycsICctaW1hZScsICc8aW5maWxlLm1hZT4nLCAnLW9tYWUnLCAnPG91dGZpbGUubWFlPic=

> <r_lp_tautomer_probability>
1

> <r_epik_Ionization_Penalty>
2.17574

> <r_epik_Ionization_Penalty_Charging>
0

> <r_epik_Ionization_Penalty_Neutral>
2.17574

> <r_epik_State_Penalty>
2.31336

> <r_epik_Charging_Adjusted_Penalty>
2.31336

> <i_epik_Tot_Q>
0

> <i_epik_Tot_abs_Q>
0

> <r_epik_Metal_State_Penalty>
2.31025

> <b_epik_Metal_Only>
0

> <s_lp_Force_Field>
OPLS_2005

> <r_lp_Energy>
69.8341

> <b_lp_Chiralities_Consistent>
1

> <s_lp_Variant>
AV-unprocessed.smi:21-48

> <Gold.Version>
5.8.1

> <Gold.Id.Protein>
6NUR|6NUR_protein|mol2

> <Gold.PLP.Fitness>
44.2260

> <Gold.PLP.PLP>
-40.3293

> <Gold.PLP.part.hbond>
-2.0000

> <Gold.PLP.part.metal>
0.0000

> <Gold.PLP.part.buried>
-6.2269

> <Gold.PLP.part.nonpolar>
-35.5121

> <Gold.PLP.part.repulsive>
2.5924

> <Gold.PLP.ligand.clash>
0.0000

> <Gold.PLP.ligand.torsion>
2.3585

> <Gold.PLP.Chemscore.Hbond>
2.0000

> <Gold.PLP.Chemscore.CHOScore>
0.6375

> <Gold.PLP.Chemscore.Metal>
0.0000

> <Gold.Chemscore.Hbonds>
donor molecule, donor type, donor heavy atom, donor atom, acceptor molecule, acceptor atom, score
      P1  H  6896  6907       L1     2  1.00
      P1  H  7989  7998       L1    12  0.90
      L1  C    16    43       P1  8028  0.68

> <Gold.PLP.Chemscore.Internal.Correction>
0.7010

> <Gold.Rescore>
     Score         DG    S(hbond)    S(metal)    S(lipo)     H(rot)  DE(clash)    DE(int)     intcor
      8.27     -12.34       0.95        0.00      97.16       3.00       0.11       3.96       ----

> <Gold.Chemscore.Fitness>
8.2726

> <Gold.Chemscore.DG>
-12.3427

> <Gold.Chemscore.ZeroCoef>
-5.4800

> <Gold.Chemscore.Hbond>
0.9530

> <Gold.Chemscore.Metal>
0.0000

> <Gold.Chemscore.Lipo>
97.1601

> <Gold.Chemscore.Internal_Hbond>
0.0000

> <Gold.Chemscore.DEClash>
0.1058

> <Gold.Chemscore.DEInternal>
3.9643

> <Gold.Chemscore.Rot>
3.0031

> <Gold.Chemscore.Internal.Correction>
   9.000000E+99

> <Gold.Chemscore.Hbonds>
donor molecule, donor type, donor heavy atom, donor atom, acceptor molecule, acceptor atom, score
      P1  H  6896  6907       L1     2  0.84
      P1  H  7989  7998       L1    12  0.05

> <Gold.Chemscore.Hbond.Weighted>
-3.1830

> <Gold.Chemscore.Metal.Weighted>
-0.0000

> <Gold.Chemscore.Lipo.Weighted>
-11.3677

> <Gold.Chemscore.Internal_Hbond.Weighted>
0.0000

> <Gold.Chemscore.DEClash.Weighted>
0.1058

> <Gold.Chemscore.DEInternal.Weighted>
3.9643

> <Gold.Chemscore.Rot.Weighted>
7.6880

> <Gold.Chemscore.Internal.Correction.Weighted>
   9.000000E+99

> <Gold.Protein.RotatedTorsions>
[ 6907 6896 6895 6894 ] final  -67.50 input  -60.11 | X-H torsion
[ 7974 7965 7964 7962 ] final  134.70 input  175.53 | X-H torsion
[ 8008 7997 7996 7995 ] final -177.00 input   59.86 | X-H torsion
[ 10167 10162 10161 10158 ] final   22.25 input  -65.29 | X-H torsion
[ 10718 10713 10712 10709 ] final  157.66 input   66.30 | X-H torsion
[ 10763 10752 10751 10750 ] final -127.22 input  -60.55 | X-H torsion
[ 11005 11000 10999 10996 ] final  167.62 input  -57.11 | X-H torsion

> <Gold.Protein.ActiveResidues>
 VAL166  LYS551  ARG553  GLY616  TRP617  ASP618  TYR619  PRO620  LYS621  CYS622 
 ASP623  PHE694  ASN695  SER759  ASP760  ASP761  ALA762  ILE779  LEU786  VAL792 
 PHE793  MET794  SER795  GLU796  ALA797  LYS798  CYS799  TRP800  GLU811  SER814 

> <Gold.Protein.RotatedAtoms>
  150.7406  134.5871  159.5968 H   0  0  0  0  0  0  0  0  0  0  0  0  # atno 6907 bound_to 6896
  152.3269  134.7306  160.0308 H   0  0  0  0  0  0  0  0  0  0  0  0  # atno 6908 bound_to 6896
  151.7803  133.3313  159.3506 H   0  0  0  0  0  0  0  0  0  0  0  0  # atno 6909 bound_to 6896
  144.9738  139.4577  143.5420 H   0  0  0  0  0  0  0  0  0  0  0  0  # atno 7974 bound_to 7965
  156.0016  140.1222  157.0541 H   0  0  0  0  0  0  0  0  0  0  0  0  # atno 8008 bound_to 7997
  154.4244  140.1105  156.5774 H   0  0  0  0  0  0  0  0  0  0  0  0  # atno 8009 bound_to 7997
  155.6204  140.3472  155.4652 H   0  0  0  0  0  0  0  0  0  0  0  0  # atno 8010 bound_to 7997
  140.5363  143.9754  150.6494 H   0  0  0  0  0  0  0  0  0  0  0  0  # atno 10167 bound_to 10162
  157.1884  131.0649  151.2093 H   0  0  0  0  0  0  0  0  0  0  0  0  # atno 10718 bound_to 10713
  154.8751  135.3969  154.3558 H   0  0  0  0  0  0  0  0  0  0  0  0  # atno 10763 bound_to 10752
  153.4337  135.7025  153.6219 H   0  0  0  0  0  0  0  0  0  0  0  0  # atno 10764 bound_to 10752
  153.4829  135.3765  155.2421 H   0  0  0  0  0  0  0  0  0  0  0  0  # atno 10765 bound_to 10752
  140.2787  134.7768  157.3739 H   0  0  0  0  0  0  0  0  0  0  0  0  # atno 11005 bound_to 11000
  146.3389  139.8966  142.8801 LP  0  0  0  0  0  0  0  0  0  0  0  0  # atno 17320 bound_to 7965
  145.2521  141.0047  143.3875 LP  0  0  0  0  0  0  0  0  0  0  0  0  # atno 17321 bound_to 7965
  140.3143  143.3178  152.0848 LP  0  0  0  0  0  0  0  0  0  0  0  0  # atno 17342 bound_to 10162
  139.4972  144.6616  151.6452 LP  0  0  0  0  0  0  0  0  0  0  0  0  # atno 17343 bound_to 10162
  157.3884  130.7269  149.6680 LP  0  0  0  0  0  0  0  0  0  0  0  0  # atno 17370 bound_to 10713
  155.9715  130.4153  150.4175 LP  0  0  0  0  0  0  0  0  0  0  0  0  # atno 17371 bound_to 10713
  140.1304  134.5103  155.8110 LP  0  0  0  0  0  0  0  0  0  0  0  0  # atno 17394 bound_to 11000
  141.2166  133.6788  156.7028 LP  0  0  0  0  0  0  0  0  0  0  0  0  # atno 17395 bound_to 11000

$$$$
