AV-unprocessed.smi:2018|AV-procd|sdf|8170|dock2
  -GOLD-   2272010413D 1   1.00000     0.00000
 Structure written by MMmdl.
 34 35  0  0  0  0  0  0  0  0  2 V2000
  151.9735  144.2380  161.5987 C   0  0  0  0  0  0  0  0  0  0  0  0
  151.7188  143.9452  160.1600 C   0  0  0  0  0  0  0  0  0  0  0  0
  151.2169  142.7893  159.7219 N   0  0  0  0  0  0  0  0  0  0  0  0
  151.0412  142.7625  158.3311 C   0  0  0  0  0  0  0  0  0  0  0  0
  150.4580  141.5423  157.6596 C   0  0  0  0  0  0  0  0  0  0  0  0
  151.4419  140.7648  156.7549 C   0  0  0  0  0  0  0  0  0  0  0  0
  152.4374  140.0681  157.5697 N   0  5  0  0  0  0  0  0  0  0  0  0
  152.1641  139.1439  158.5371 C   0  0  0  0  0  0  0  0  0  0  0  0
  151.3294  138.2339  158.4642 O   0  0  0  0  0  0  0  0  0  0  0  0
  152.9164  139.2198  159.8241 C   0  0  0  0  0  0  0  0  0  0  0  0
  152.7360  138.3044  160.7248 N   0  0  0  0  0  0  0  0  0  0  0  0
  153.4270  138.2924  161.9177 N   0  0  0  0  0  0  0  0  0  0  0  0
  153.2994  137.0336  162.6515 C   0  0  0  0  0  0  0  0  0  0  0  0
  154.1490  139.3379  162.3959 C   0  0  0  0  0  0  0  0  0  0  0  0
  154.7819  139.3156  163.4518 O   0  0  0  0  0  0  0  0  0  0  0  0
  154.1298  140.6191  161.5573 C   0  0  0  0  0  0  0  0  0  0  0  0
  153.9203  140.3334  160.0572 C   0  0  0  0  0  0  0  0  0  0  0  0
  151.4597  143.9205  157.7196 C   0  0  0  0  0  0  0  0  0  0  0  0
  152.0498  145.0910  158.8678 S   0  0  0  0  0  0  0  0  0  0  0  0
  151.6571  143.4014  162.2229 H   0  0  0  0  0  0  0  0  0  0  0  0
  151.4194  145.1266  161.9008 H   0  0  0  0  0  0  0  0  0  0  0  0
  153.0371  144.4135  161.7604 H   0  0  0  0  0  0  0  0  0  0  0  0
  150.0828  140.8598  158.4226 H   0  0  0  0  0  0  0  0  0  0  0  0
  149.5817  141.8254  157.0747 H   0  0  0  0  0  0  0  0  0  0  0  0
  150.8724  140.0810  156.1235 H   0  0  0  0  0  0  0  0  0  0  0  0
  151.9187  141.4689  156.0721 H   0  0  0  0  0  0  0  0  0  0  0  0
  153.8047  137.0324  163.6180 H   0  0  0  0  0  0  0  0  0  0  0  0
  153.7157  136.2155  162.0624 H   0  0  0  0  0  0  0  0  0  0  0  0
  152.2473  136.8115  162.8337 H   0  0  0  0  0  0  0  0  0  0  0  0
  153.3145  141.2407  161.9292 H   0  0  0  0  0  0  0  0  0  0  0  0
  155.0504  141.1831  161.7110 H   0  0  0  0  0  0  0  0  0  0  0  0
  154.8691  140.0645  159.5920 H   0  0  0  0  0  0  0  0  0  0  0  0
  153.5916  141.2562  159.5779 H   0  0  0  0  0  0  0  0  0  0  0  0
  151.4424  144.1583  156.6664 H   0  0  0  0  0  0  0  0  0  0  0  0
  1  2  1  0  0  0  0
  1 20  1  0  0  0  0
  1 21  1  0  0  0  0
  1 22  1  0  0  0  0
  2 19  1  0  0  0  0
  2  3  2  0  0  0  0
  3  4  1  0  0  0  0
  4  5  1  0  0  0  0
  4 18  2  0  0  0  0
  5  6  1  0  0  0  0
  5 23  1  0  0  0  0
  5 24  1  0  0  0  0
  6  7  1  0  0  0  0
  6 25  1  0  0  0  0
  6 26  1  0  0  0  0
  7  8  1  0  0  0  0
  8  9  2  0  0  0  0
  8 10  1  0  0  0  0
 10 17  1  0  0  0  0
 10 11  2  0  0  0  0
 11 12  1  0  0  0  0
 12 13  1  0  0  0  0
 12 14  1  0  0  0  0
 13 27  1  0  0  0  0
 13 28  1  0  0  0  0
 13 29  1  0  0  0  0
 14 15  2  0  0  0  0
 14 16  1  0  0  0  0
 16 17  1  0  0  0  0
 16 30  1  0  0  0  0
 16 31  1  0  0  0  0
 17 32  1  0  0  0  0
 17 33  1  0  0  0  0
 18 19  1  0  0  0  0
 18 34  1  0  0  0  0
M  CHG  1   7  -1
M  END
> <s_m_source_file>
AV-unprocessed.smi

> <i_m_source_file_index>
2018

> <i_lp_mmshare_version>
43012

> <i_f3d_flags>
0

> <s_epik_input>
W0NIM11jMW5jKFtjSF1zMSlbQ0gyXVtDSDJdW05IXUMoPU8pQzI9Tk4oW0NIM10pQyg9TylbQ0gyXVtDSDJdMg==

> <s_epik_cmdline>
J2VwaWtfcHl0aG9uJywgJy1waCcsICc3LjAnLCAnLXRuJywgJzgnLCAnLW1hJywgJzIwMCcsICctbWV0YWxfYmluZGluZycsICctaW1hZScsICc8aW5maWxlLm1hZT4nLCAnLW9tYWUnLCAnPG91dGZpbGUubWFlPic=

> <r_epik_Ionization_Penalty>
5.30398

> <r_epik_Ionization_Penalty_Charging>
5.30014

> <r_epik_Ionization_Penalty_Neutral>
0.0038335

> <r_epik_State_Penalty>
5.30046

> <r_epik_Charging_Adjusted_Penalty>
10.6006

> <i_epik_Tot_Q>
-1

> <i_epik_Tot_abs_Q>
1

> <r_epik_Metal_State_Penalty>
1.34504

> <b_epik_Metal_Only>
1

> <s_epik_Chemistry_Notes>
This compound has an imine and may undergo hydrolysis.

> <s_lp_Force_Field>
OPLS_2005

> <r_lp_Energy>
22.7314

> <b_lp_Chiralities_Consistent>
1

> <s_lp_Variant>
AV-unprocessed.smi:2018-2

> <Gold.Version>
5.8.1

> <Gold.Id.Protein>
6NUR|6NUR_protein|mol2

> <Gold.PLP.Fitness>
45.8081

> <Gold.PLP.PLP>
-37.9513

> <Gold.PLP.part.hbond>
-1.4718

> <Gold.PLP.part.metal>
0.0000

> <Gold.PLP.part.buried>
-3.9106

> <Gold.PLP.part.nonpolar>
-32.2044

> <Gold.PLP.part.repulsive>
0.0032

> <Gold.PLP.ligand.clash>
0.0000

> <Gold.PLP.ligand.torsion>
0.4399

> <Gold.PLP.Chemscore.Hbond>
2.0000

> <Gold.PLP.Chemscore.CHOScore>
0.9046

> <Gold.PLP.Chemscore.Metal>
0.0000

> <Gold.Chemscore.Hbonds>
donor molecule, donor type, donor heavy atom, donor atom, acceptor molecule, acceptor atom, score
      P1  H  7997  8009       L1     7  1.46
      L1  C    18    34       P1  8028  0.27

> <Gold.PLP.Chemscore.Internal.Correction>
0.0227

> <Gold.Rescore>
     Score         DG    S(hbond)    S(metal)    S(lipo)     H(rot)  DE(clash)    DE(int)     intcor
     16.39     -16.82       0.87        0.00     102.97       1.42       0.05       0.38       ----

> <Gold.Chemscore.Fitness>
16.3883

> <Gold.Chemscore.DG>
-16.8176

> <Gold.Chemscore.ZeroCoef>
-5.4800

> <Gold.Chemscore.Hbond>
0.8742

> <Gold.Chemscore.Metal>
0.0000

> <Gold.Chemscore.Lipo>
102.9679

> <Gold.Chemscore.Internal_Hbond>
0.0000

> <Gold.Chemscore.DEClash>
0.0461

> <Gold.Chemscore.DEInternal>
0.3832

> <Gold.Chemscore.Rot>
1.4178

> <Gold.Chemscore.Internal.Correction>
   9.000000E+99

> <Gold.Chemscore.Hbonds>
donor molecule, donor type, donor heavy atom, donor atom, acceptor molecule, acceptor atom, score
      P1  H  7997  8009       L1     7  0.56

> <Gold.Chemscore.Hbond.Weighted>
-2.9198

> <Gold.Chemscore.Metal.Weighted>
-0.0000

> <Gold.Chemscore.Lipo.Weighted>
-12.0472

> <Gold.Chemscore.Internal_Hbond.Weighted>
0.0000

> <Gold.Chemscore.DEClash.Weighted>
0.0461

> <Gold.Chemscore.DEInternal.Weighted>
0.3832

> <Gold.Chemscore.Rot.Weighted>
3.6295

> <Gold.Chemscore.Internal.Correction.Weighted>
   9.000000E+99

> <Gold.Protein.RotatedTorsions>
[ 6907 6896 6895 6894 ] final   38.74 input  -60.11 | X-H torsion
[ 7974 7965 7964 7962 ] final  -27.61 input  175.53 | X-H torsion
[ 8008 7997 7996 7995 ] final  179.33 input   59.86 | X-H torsion
[ 10167 10162 10161 10158 ] final  -28.84 input  -65.29 | X-H torsion
[ 10718 10713 10712 10709 ] final   83.88 input   66.30 | X-H torsion
[ 10763 10752 10751 10750 ] final  -65.19 input  -60.55 | X-H torsion
[ 11005 11000 10999 10996 ] final   88.54 input  -57.11 | X-H torsion

> <Gold.Protein.ActiveResidues>
 VAL166  LYS551  ARG553  GLY616  TRP617  ASP618  TYR619  PRO620  LYS621  CYS622 
 ASP623  PHE694  ASN695  SER759  ASP760  ASP761  ALA762  ILE779  LEU786  VAL792 
 PHE793  MET794  SER795  GLU796  ALA797  LYS798  CYS799  TRP800  GLU811  SER814 

> <Gold.Protein.RotatedAtoms>
  152.1604  134.8917  160.0541 H   0  0  0  0  0  0  0  0  0  0  0  0  # atno 6907 bound_to 6896
  151.9915  133.3787  159.4154 H   0  0  0  0  0  0  0  0  0  0  0  0  # atno 6908 bound_to 6896
  150.6887  134.3854  159.5096 H   0  0  0  0  0  0  0  0  0  0  0  0  # atno 6909 bound_to 6896
  146.1346  140.5174  142.8678 H   0  0  0  0  0  0  0  0  0  0  0  0  # atno 7974 bound_to 7965
  156.0446  140.1311  157.0118 H   0  0  0  0  0  0  0  0  0  0  0  0  # atno 8008 bound_to 7997
  154.4406  140.1023  156.6358 H   0  0  0  0  0  0  0  0  0  0  0  0  # atno 8009 bound_to 7997
  155.5615  140.3465  155.4494 H   0  0  0  0  0  0  0  0  0  0  0  0  # atno 8010 bound_to 7997
  140.7266  143.3977  151.1319 H   0  0  0  0  0  0  0  0  0  0  0  0  # atno 10167 bound_to 10162
  157.6887  131.0109  150.2589 H   0  0  0  0  0  0  0  0  0  0  0  0  # atno 10718 bound_to 10713
  154.3414  135.6156  153.5598 H   0  0  0  0  0  0  0  0  0  0  0  0  # atno 10763 bound_to 10752
  152.9804  135.5770  154.4849 H   0  0  0  0  0  0  0  0  0  0  0  0  # atno 10764 bound_to 10752
  154.4553  135.2854  155.1729 H   0  0  0  0  0  0  0  0  0  0  0  0  # atno 10765 bound_to 10752
  139.8894  134.8494  156.3016 H   0  0  0  0  0  0  0  0  0  0  0  0  # atno 11005 bound_to 11000
  144.7726  140.5671  143.6660 LP  0  0  0  0  0  0  0  0  0  0  0  0  # atno 17320 bound_to 7965
  145.5185  139.1477  143.3565 LP  0  0  0  0  0  0  0  0  0  0  0  0  # atno 17321 bound_to 7965
  139.7592  143.8661  152.3096 LP  0  0  0  0  0  0  0  0  0  0  0  0  # atno 17342 bound_to 10162
  139.8541  144.7150  150.9178 LP  0  0  0  0  0  0  0  0  0  0  0  0  # atno 17343 bound_to 10162
  156.3172  130.3780  149.7608 LP  0  0  0  0  0  0  0  0  0  0  0  0  # atno 17370 bound_to 10713
  156.5189  130.8206  151.3196 LP  0  0  0  0  0  0  0  0  0  0  0  0  # atno 17371 bound_to 10713
  140.9910  133.7209  156.0814 LP  0  0  0  0  0  0  0  0  0  0  0  0  # atno 17394 bound_to 11000
  140.7625  134.3923  157.5523 LP  0  0  0  0  0  0  0  0  0  0  0  0  # atno 17395 bound_to 11000

$$$$
