AV-unprocessed.smi:2860|AV-procd|sdf|11006|dock9
  -GOLD-   2272015463D 1   1.00000     0.00000
 Structure written by MMmdl.
 45 46  0  0  0  0  0  0  0  0  1 V2000
  149.1554  134.0389  154.6824 C   0  0  0  0  0  0  0  0  0  0  0  0
  150.0972  135.1353  155.1979 C   0  0  0  0  0  0  0  0  0  0  0  0
  149.9455  136.3681  154.4349 N   0  0  0  0  0  0  0  0  0  0  0  0
  150.5652  137.5266  154.7102 C   0  0  0  0  0  0  0  0  0  0  0  0
  151.3661  137.6654  155.6342 O   0  0  0  0  0  0  0  0  0  0  0  0
  150.2217  138.7143  153.8104 C   0  0  0  0  0  0  0  0  0  0  0  0
  149.9616  139.9048  154.5998 N   0  0  0  0  0  0  0  0  0  0  0  0
  149.1062  140.9521  154.3167 C   0  0  0  0  0  0  0  0  0  0  0  0
  149.1805  141.8365  155.3550 C   0  0  0  0  0  0  0  0  0  0  0  0
  150.1231  141.2327  156.2317 C   0  0  0  0  0  0  0  0  0  0  0  0
  150.4735  141.8565  157.4556 N   0  0  0  0  0  0  0  0  0  0  0  0
  151.2213  141.3513  158.4534 C   0  0  0  0  0  0  0  0  0  0  0  0
  151.8179  140.2759  158.3999 O   0  0  0  0  0  0  0  0  0  0  0  0
  151.3528  142.2745  159.6218 C   0  0  0  0  0  0  0  0  0  0  0  0
  152.0634  143.6172  159.4557 C   0  0  0  0  0  0  0  0  0  0  0  0
  152.6952  144.0764  158.1413 C   0  0  0  0  0  0  0  0  0  0  0  0
  151.4572  144.8353  160.1403 C   0  0  0  0  0  0  0  0  0  0  0  0
  152.7130  142.5021  160.2759 C   0  0  0  0  0  0  0  0  0  0  0  0
  152.7697  142.5848  161.7954 C   0  0  0  0  0  0  0  0  0  0  0  0
  153.9893  141.8172  159.7860 C   0  0  0  0  0  0  0  0  0  0  0  0
  150.5918  140.0769  155.7824 N   0  0  0  0  0  0  0  0  0  0  0  0
  149.2968  133.1132  155.2401 H   0  0  0  0  0  0  0  0  0  0  0  0
  149.3399  133.8245  153.6293 H   0  0  0  0  0  0  0  0  0  0  0  0
  148.1101  134.3315  154.7868 H   0  0  0  0  0  0  0  0  0  0  0  0
  149.9216  135.3206  156.2588 H   0  0  0  0  0  0  0  0  0  0  0  0
  151.1316  134.8039  155.1074 H   0  0  0  0  0  0  0  0  0  0  0  0
  149.3077  136.3449  153.6525 H   0  0  0  0  0  0  0  0  0  0  0  0
  151.0426  138.9087  153.1181 H   0  0  0  0  0  0  0  0  0  0  0  0
  149.3403  138.4900  153.2081 H   0  0  0  0  0  0  0  0  0  0  0  0
  148.5185  140.9770  153.4109 H   0  0  0  0  0  0  0  0  0  0  0  0
  148.6438  142.7667  155.4688 H   0  0  0  0  0  0  0  0  0  0  0  0
  150.0868  142.7768  157.6054 H   0  0  0  0  0  0  0  0  0  0  0  0
  150.4756  142.2909  160.2663 H   0  0  0  0  0  0  0  0  0  0  0  0
  153.5020  144.7821  158.3400 H   0  0  0  0  0  0  0  0  0  0  0  0
  151.9512  144.5729  157.5176 H   0  0  0  0  0  0  0  0  0  0  0  0
  153.1067  143.2530  157.5609 H   0  0  0  0  0  0  0  0  0  0  0  0
  152.2441  145.5144  160.4694 H   0  0  0  0  0  0  0  0  0  0  0  0
  150.8601  144.5539  161.0068 H   0  0  0  0  0  0  0  0  0  0  0  0
  150.8012  145.3715  159.4538 H   0  0  0  0  0  0  0  0  0  0  0  0
  153.5606  143.2677  162.1067 H   0  0  0  0  0  0  0  0  0  0  0  0
  152.9717  141.6026  162.2242 H   0  0  0  0  0  0  0  0  0  0  0  0
  151.8269  142.9343  162.2144 H   0  0  0  0  0  0  0  0  0  0  0  0
  154.8577  142.4354  160.0155 H   0  0  0  0  0  0  0  0  0  0  0  0
  153.9824  141.6312  158.7136 H   0  0  0  0  0  0  0  0  0  0  0  0
  154.1153  140.8531  160.2795 H   0  0  0  0  0  0  0  0  0  0  0  0
  1  2  1  0  0  0  0
  1 22  1  0  0  0  0
  1 23  1  0  0  0  0
  1 24  1  0  0  0  0
  2  3  1  0  0  0  0
  2 25  1  0  0  0  0
  2 26  1  0  0  0  0
  3  4  1  0  0  0  0
  3 27  1  0  0  0  0
  4  5  2  0  0  0  0
  4  6  1  0  0  0  0
  6  7  1  0  0  0  0
  6 28  1  0  0  0  0
  6 29  1  0  0  0  0
  7 21  1  0  0  0  0
  7  8  1  0  0  0  0
  8  9  2  0  0  0  0
  8 30  1  0  0  0  0
  9 10  1  0  0  0  0
  9 31  1  0  0  0  0
 10 11  1  0  0  0  0
 10 21  2  0  0  0  0
 11 12  1  0  0  0  0
 11 32  1  0  0  0  0
 12 13  2  0  0  0  0
 12 14  1  0  0  0  0
 14 18  1  0  0  0  0
 14 15  1  0  0  0  0
 14 33  1  0  0  0  0
 15 16  1  0  0  0  0
 15 17  1  0  0  0  0
 15 18  1  0  0  0  0
 16 34  1  0  0  0  0
 16 35  1  0  0  0  0
 16 36  1  0  0  0  0
 17 37  1  0  0  0  0
 17 38  1  0  0  0  0
 17 39  1  0  0  0  0
 18 19  1  0  0  0  0
 18 20  1  0  0  0  0
 19 40  1  0  0  0  0
 19 41  1  0  0  0  0
 19 42  1  0  0  0  0
 20 43  1  0  0  0  0
 20 44  1  0  0  0  0
 20 45  1  0  0  0  0
M  END
> <s_m_source_file>
AV-unprocessed.smi

> <i_m_source_file_index>
2860

> <i_lp_mmshare_version>
43012

> <i_f3d_flags>
0

> <s_epik_input>
W0NIM11bQ0gyXVtOSF1DKD1PKVtDSDJdbjFbY0hdW2NIXWMobjEpW05IXUMoPU8pW0NIXShDMihbQ0gzXSlbQ0gzXSlDMihbQ0gzXSlbQ0gzXQ==

> <s_epik_cmdline>
J2VwaWtfcHl0aG9uJywgJy1waCcsICc3LjAnLCAnLXRuJywgJzgnLCAnLW1hJywgJzIwMCcsICctbWV0YWxfYmluZGluZycsICctaW1hZScsICc8aW5maWxlLm1hZT4nLCAnLW9tYWUnLCAnPG91dGZpbGUubWFlPic=

> <r_lp_tautomer_probability>
1

> <r_epik_Ionization_Penalty>
1.3586e-05

> <r_epik_Ionization_Penalty_Charging>
0

> <r_epik_Ionization_Penalty_Neutral>
1.3586e-05

> <r_epik_State_Penalty>
-0

> <r_epik_Charging_Adjusted_Penalty>
0

> <i_epik_Tot_Q>
0

> <i_epik_Tot_abs_Q>
0

> <r_epik_Metal_State_Penalty>
-0

> <b_epik_Metal_Only>
0

> <s_lp_Force_Field>
OPLS_2005

> <r_lp_Energy>
28.3378

> <b_lp_Chiralities_Consistent>
1

> <s_lp_Variant>
AV-unprocessed.smi:2860-1

> <Gold.Version>
5.8.1

> <Gold.Id.Protein>
6NUR|6NUR_protein|mol2

> <Gold.PLP.Fitness>
50.5658

> <Gold.PLP.PLP>
-46.2553

> <Gold.PLP.part.hbond>
-1.7421

> <Gold.PLP.part.metal>
0.0000

> <Gold.PLP.part.buried>
-1.4504

> <Gold.PLP.part.nonpolar>
-42.8626

> <Gold.PLP.part.repulsive>
0.1325

> <Gold.PLP.ligand.clash>
0.0000

> <Gold.PLP.ligand.torsion>
0.8298

> <Gold.PLP.Chemscore.Hbond>
1.0000

> <Gold.PLP.Chemscore.CHOScore>
0.9437

> <Gold.PLP.Chemscore.Metal>
0.0000

> <Gold.Chemscore.Hbonds>
donor molecule, donor type, donor heavy atom, donor atom, acceptor molecule, acceptor atom, score
      L1  H     3    27       P1  7948  1.00
      L1  C     8    30       P1  7957  0.52

> <Gold.PLP.Chemscore.Internal.Correction>
0.1389

> <Gold.Rescore>
     Score         DG    S(hbond)    S(metal)    S(lipo)     H(rot)  DE(clash)    DE(int)     intcor
     12.51     -17.76       0.93        0.00     115.11       1.68       0.78       4.47       ----

> <Gold.Chemscore.Fitness>
12.5123

> <Gold.Chemscore.DG>
-17.7643

> <Gold.Chemscore.ZeroCoef>
-5.4800

> <Gold.Chemscore.Hbond>
0.9325

> <Gold.Chemscore.Metal>
0.0000

> <Gold.Chemscore.Lipo>
115.1090

> <Gold.Chemscore.Internal_Hbond>
0.0000

> <Gold.Chemscore.DEClash>
0.7804

> <Gold.Chemscore.DEInternal>
4.4717

> <Gold.Chemscore.Rot>
1.6789

> <Gold.Chemscore.Internal.Correction>
   9.000000E+99

> <Gold.Chemscore.Hbonds>
donor molecule, donor type, donor heavy atom, donor atom, acceptor molecule, acceptor atom, score
      L1  H     3    27       P1  7948  0.83

> <Gold.Chemscore.Hbond.Weighted>
-3.1147

> <Gold.Chemscore.Metal.Weighted>
-0.0000

> <Gold.Chemscore.Lipo.Weighted>
-13.4677

> <Gold.Chemscore.Internal_Hbond.Weighted>
0.0000

> <Gold.Chemscore.DEClash.Weighted>
0.7804

> <Gold.Chemscore.DEInternal.Weighted>
4.4717

> <Gold.Chemscore.Rot.Weighted>
4.2981

> <Gold.Chemscore.Internal.Correction.Weighted>
   9.000000E+99

> <Gold.Protein.RotatedTorsions>
[ 6907 6896 6895 6894 ] final -137.30 input  -60.11 | X-H torsion
[ 7974 7965 7964 7962 ] final -115.59 input  175.53 | X-H torsion
[ 8008 7997 7996 7995 ] final   86.72 input   59.86 | X-H torsion
[ 10167 10162 10161 10158 ] final -143.17 input  -65.29 | X-H torsion
[ 10718 10713 10712 10709 ] final -161.30 input   66.30 | X-H torsion
[ 10763 10752 10751 10750 ] final   56.25 input  -60.55 | X-H torsion
[ 11005 11000 10999 10996 ] final   11.55 input  -57.11 | X-H torsion

> <Gold.Protein.ActiveResidues>
 VAL166  LYS551  ARG553  GLY616  TRP617  ASP618  TYR619  PRO620  LYS621  CYS622 
 ASP623  PHE694  ASN695  SER759  ASP760  ASP761  ALA762  ILE779  LEU786  VAL792 
 PHE793  MET794  SER795  GLU796  ALA797  LYS798  CYS799  TRP800  GLU811  SER814 

> <Gold.Protein.RotatedAtoms>
  151.0207  133.5879  159.2671 H   0  0  0  0  0  0  0  0  0  0  0  0  # atno 6907 bound_to 6896
  151.2997  135.0764  159.9244 H   0  0  0  0  0  0  0  0  0  0  0  0  # atno 6908 bound_to 6896
  152.5322  133.9891  159.7896 H   0  0  0  0  0  0  0  0  0  0  0  0  # atno 6909 bound_to 6896
  145.1067  140.8586  143.3894 H   0  0  0  0  0  0  0  0  0  0  0  0  # atno 7974 bound_to 7965
  155.9663  140.3389  155.6535 H   0  0  0  0  0  0  0  0  0  0  0  0  # atno 8008 bound_to 7997
  155.6733  140.0729  157.2530 H   0  0  0  0  0  0  0  0  0  0  0  0  # atno 8009 bound_to 7997
  154.4155  140.1687  156.1890 H   0  0  0  0  0  0  0  0  0  0  0  0  # atno 8010 bound_to 7997
  139.8019  143.7822  152.2658 H   0  0  0  0  0  0  0  0  0  0  0  0  # atno 10167 bound_to 10162
  156.5944  130.8784  151.2898 H   0  0  0  0  0  0  0  0  0  0  0  0  # atno 10718 bound_to 10713
  152.9829  135.5683  154.5198 H   0  0  0  0  0  0  0  0  0  0  0  0  # atno 10763 bound_to 10752
  154.4688  135.2784  155.1660 H   0  0  0  0  0  0  0  0  0  0  0  0  # atno 10764 bound_to 10752
  154.3217  135.6267  153.5564 H   0  0  0  0  0  0  0  0  0  0  0  0  # atno 10765 bound_to 10752
  140.5020  134.0736  155.7796 H   0  0  0  0  0  0  0  0  0  0  0  0  # atno 11005 bound_to 11000
  145.0894  139.2901  143.5743 LP  0  0  0  0  0  0  0  0  0  0  0  0  # atno 17320 bound_to 7965
  146.3528  140.0426  142.8642 LP  0  0  0  0  0  0  0  0  0  0  0  0  # atno 17321 bound_to 7965
  139.7945  144.7398  150.9910 LP  0  0  0  0  0  0  0  0  0  0  0  0  # atno 17342 bound_to 10162
  140.7820  143.4408  151.0554 LP  0  0  0  0  0  0  0  0  0  0  0  0  # atno 17343 bound_to 10162
  157.7295  130.9673  150.1793 LP  0  0  0  0  0  0  0  0  0  0  0  0  # atno 17370 bound_to 10713
  156.2522  130.3702  149.8219 LP  0  0  0  0  0  0  0  0  0  0  0  0  # atno 17371 bound_to 10713
  141.1430  133.9104  157.2281 LP  0  0  0  0  0  0  0  0  0  0  0  0  # atno 17394 bound_to 11000
  139.9708  135.0129  156.9506 LP  0  0  0  0  0  0  0  0  0  0  0  0  # atno 17395 bound_to 11000

$$$$
