AV-unprocessed.smi:3316|AV-procd|sdf|12753|dock5
  -GOLD-   2272019 93D 1   1.00000     0.00000
 Structure written by MMmdl.
 41 43  0  0  0  0  0  0  0  0  2 V2000
  151.1712  140.1012  155.5829 C   0  0  0  0  0  0  0  0  0  0  0  0
  149.9716  141.0484  155.7427 C   0  0  2  0  0  0  0  0  0  0  0  0
  149.4766  141.0886  157.2012 C   0  0  0  0  0  0  0  0  0  0  0  0
  148.8087  142.3680  157.5164 N   0  3  0  0  0  0  0  0  0  0  0  0
  149.4604  143.1345  158.5957 C   0  0  0  0  0  0  0  0  0  0  0  0
  150.9789  143.2434  158.3642 C   0  0  2  0  0  0  0  0  0  0  0  0
  151.8510  142.4303  159.3713 C   0  0  0  0  0  0  0  0  0  0  0  0
  152.8350  143.4918  159.9151 C   0  0  2  0  0  0  0  0  0  0  0  0
  152.0384  144.4653  160.7564 C   0  0  0  0  0  0  0  0  0  0  0  0
  151.2734  145.1740  159.9247 C   0  0  0  0  0  0  0  0  0  0  0  0
  151.5520  144.6770  158.5196 C   0  0  1  0  0  0  0  0  0  0  0  0
  153.0413  144.3372  158.6538 C   0  0  0  0  0  0  0  0  0  0  0  0
  148.8563  140.6983  154.7650 C   0  0  0  0  0  0  0  0  0  0  0  0
  148.8070  139.4236  154.1616 C   0  0  0  0  0  0  0  0  0  0  0  0
  147.7600  139.1427  153.2609 C   0  0  0  0  0  0  0  0  0  0  0  0
  146.7989  140.0347  152.9405 N   0  0  0  0  0  0  0  0  0  0  0  0
  146.8491  141.2527  153.5204 C   0  0  0  0  0  0  0  0  0  0  0  0
  147.8526  141.6343  154.4333 C   0  0  0  0  0  0  0  0  0  0  0  0
  151.5536  140.1232  154.5620 H   0  0  0  0  0  0  0  0  0  0  0  0
  150.9057  139.0698  155.8172 H   0  0  0  0  0  0  0  0  0  0  0  0
  151.9889  140.3887  156.2443 H   0  0  0  0  0  0  0  0  0  0  0  0
  150.3264  142.0495  155.4926 H   0  0  0  0  0  0  0  0  0  0  0  0
  148.7875  140.2654  157.3948 H   0  0  0  0  0  0  0  0  0  0  0  0
  150.3218  140.9599  157.8788 H   0  0  0  0  0  0  0  0  0  0  0  0
  148.7948  142.9383  156.6829 H   0  0  0  0  0  0  0  0  0  0  0  0
  149.0242  144.1336  158.6277 H   0  0  0  0  0  0  0  0  0  0  0  0
  149.2458  142.6588  159.5535 H   0  0  0  0  0  0  0  0  0  0  0  0
  151.1977  142.9014  157.3507 H   0  0  0  0  0  0  0  0  0  0  0  0
  151.2662  141.9783  160.1739 H   0  0  0  0  0  0  0  0  0  0  0  0
  152.3837  141.6290  158.8575 H   0  0  0  0  0  0  0  0  0  0  0  0
  153.7439  143.1158  160.3853 H   0  0  0  0  0  0  0  0  0  0  0  0
  152.0792  144.5274  161.8338 H   0  0  0  0  0  0  0  0  0  0  0  0
  150.5535  145.9384  160.1778 H   0  0  0  0  0  0  0  0  0  0  0  0
  151.3078  145.3836  157.7261 H   0  0  0  0  0  0  0  0  0  0  0  0
  153.6655  145.2164  158.8274 H   0  0  0  0  0  0  0  0  0  0  0  0
  153.4491  143.7789  157.8085 H   0  0  0  0  0  0  0  0  0  0  0  0
  149.5504  138.6714  154.3818 H   0  0  0  0  0  0  0  0  0  0  0  0
  147.6947  138.1757  152.7842 H   0  0  0  0  0  0  0  0  0  0  0  0
  146.0667  141.9453  153.2476 H   0  0  0  0  0  0  0  0  0  0  0  0
  147.8435  142.6232  154.8674 H   0  0  0  0  0  0  0  0  0  0  0  0
  147.8561  142.1727  157.7901 H   0  0  0  0  0  0  0  0  0  0  0  0
  1  2  1  0  0  0  0
  1 19  1  0  0  0  0
  1 20  1  0  0  0  0
  1 21  1  0  0  0  0
  2  3  1  0  0  0  0
  2 13  1  0  0  0  0
  2 22  1  0  0  0  0
  3  4  1  0  0  0  0
  3 23  1  0  0  0  0
  3 24  1  0  0  0  0
  4  5  1  0  0  0  0
  4 25  1  0  0  0  0
  4 41  1  0  0  0  0
  5  6  1  0  0  0  0
  5 26  1  0  0  0  0
  5 27  1  0  0  0  0
  6 11  1  0  0  0  0
  6  7  1  0  0  0  0
  6 28  1  0  0  0  0
  7  8  1  0  0  0  0
  7 29  1  0  0  0  0
  7 30  1  0  0  0  0
  8 12  1  0  0  0  0
  8  9  1  0  0  0  0
  8 31  1  0  0  0  0
  9 10  2  0  0  0  0
  9 32  1  0  0  0  0
 10 11  1  0  0  0  0
 10 33  1  0  0  0  0
 11 12  1  0  0  0  0
 11 34  1  0  0  0  0
 12 35  1  0  0  0  0
 12 36  1  0  0  0  0
 13 18  1  0  0  0  0
 13 14  2  0  0  0  0
 14 15  1  0  0  0  0
 14 37  1  0  0  0  0
 15 16  2  0  0  0  0
 15 38  1  0  0  0  0
 16 17  1  0  0  0  0
 17 18  2  0  0  0  0
 17 39  1  0  0  0  0
 18 40  1  0  0  0  0
M  CHG  1   4   1
M  END
> <s_m_source_file>
AV-unprocessed.smi

> <i_m_source_file_index>
3316

> <i_lp_mmshare_version>
43012

> <i_f3d_flags>
0

> <s_epik_input>
W2NIXTFbY0hdbltjSF1bY0hdYzFbQ0BIXShbQ0gzXSlbQ0gyXVtOSF1bQ0gyXVtDQEhdKFtDSDJdW0NASF0yMylbQ0BIXShbQ0gyXTMpW0NIXT1bQ0hdMg==

> <s_epik_cmdline>
J2VwaWtfcHl0aG9uJywgJy1waCcsICc3LjAnLCAnLXRuJywgJzgnLCAnLW1hJywgJzIwMCcsICctbWV0YWxfYmluZGluZycsICctaW1hZScsICc8aW5maWxlLm1hZT4nLCAnLW9tYWUnLCAnPG91dGZpbGUubWFlPic=

> <r_lp_tautomer_probability>
1

> <r_epik_Ionization_Penalty>
0.00280406

> <r_epik_Ionization_Penalty_Charging>
0.000446589

> <r_epik_Ionization_Penalty_Neutral>
0.00235747

> <r_epik_State_Penalty>
-0

> <r_epik_Charging_Adjusted_Penalty>
0.000446589

> <i_epik_Tot_Q>
1

> <i_epik_Tot_abs_Q>
1

> <r_epik_Metal_State_Penalty>
-0

> <b_epik_Metal_Only>
0

> <s_lp_Force_Field>
OPLS_2005

> <r_lp_Energy>
65.4585

> <b_lp_Chiralities_Consistent>
1

> <s_lp_Variant>
AV-unprocessed.smi:3316-1

> <Gold.Version>
5.8.1

> <Gold.Id.Protein>
6NUR|6NUR_protein|mol2

> <Gold.PLP.Fitness>
48.3816

> <Gold.PLP.PLP>
-42.7684

> <Gold.PLP.part.hbond>
-1.0000

> <Gold.PLP.part.metal>
0.0000

> <Gold.PLP.part.buried>
-3.4353

> <Gold.PLP.part.nonpolar>
-39.4398

> <Gold.PLP.part.repulsive>
0.3023

> <Gold.PLP.ligand.clash>
0.0000

> <Gold.PLP.ligand.torsion>
1.7844

> <Gold.PLP.Chemscore.Hbond>
2.0000

> <Gold.PLP.Chemscore.CHOScore>
1.0200

> <Gold.PLP.Chemscore.Metal>
0.0000

> <Gold.Chemscore.Hbonds>
donor molecule, donor type, donor heavy atom, donor atom, acceptor molecule, acceptor atom, score
      L1  H     4    25       P1  8028  1.92
      L1  C    15    38       P1  7948  1.00
      L1  C    17    39       P1 10175  0.03

> <Gold.PLP.Chemscore.Internal.Correction>
0.1221

> <Gold.Rescore>
     Score         DG    S(hbond)    S(metal)    S(lipo)     H(rot)  DE(clash)    DE(int)     intcor
     19.55     -21.35       0.91        0.00     139.52       1.36       0.16       1.64       ----

> <Gold.Chemscore.Fitness>
19.5459

> <Gold.Chemscore.DG>
-21.3526

> <Gold.Chemscore.ZeroCoef>
-5.4800

> <Gold.Chemscore.Hbond>
0.9105

> <Gold.Chemscore.Metal>
0.0000

> <Gold.Chemscore.Lipo>
139.5181

> <Gold.Chemscore.Internal_Hbond>
0.0000

> <Gold.Chemscore.DEClash>
0.1639

> <Gold.Chemscore.DEInternal>
1.6428

> <Gold.Chemscore.Rot>
1.3640

> <Gold.Chemscore.Internal.Correction>
   9.000000E+99

> <Gold.Chemscore.Hbonds>
donor molecule, donor type, donor heavy atom, donor atom, acceptor molecule, acceptor atom, score
      L1  H     4    25       P1  8028  0.81

> <Gold.Chemscore.Hbond.Weighted>
-3.0409

> <Gold.Chemscore.Metal.Weighted>
-0.0000

> <Gold.Chemscore.Lipo.Weighted>
-16.3236

> <Gold.Chemscore.Internal_Hbond.Weighted>
0.0000

> <Gold.Chemscore.DEClash.Weighted>
0.1639

> <Gold.Chemscore.DEInternal.Weighted>
1.6428

> <Gold.Chemscore.Rot.Weighted>
3.4919

> <Gold.Chemscore.Internal.Correction.Weighted>
   9.000000E+99

> <Gold.Protein.RotatedTorsions>
[ 6907 6896 6895 6894 ] final  -69.69 input  -60.11 | X-H torsion
[ 7974 7965 7964 7962 ] final -131.85 input  175.53 | X-H torsion
[ 8008 7997 7996 7995 ] final   68.55 input   59.86 | X-H torsion
[ 10167 10162 10161 10158 ] final   54.69 input  -65.29 | X-H torsion
[ 10718 10713 10712 10709 ] final  -79.57 input   66.30 | X-H torsion
[ 10763 10752 10751 10750 ] final   11.01 input  -60.55 | X-H torsion
[ 11005 11000 10999 10996 ] final  110.82 input  -57.11 | X-H torsion

> <Gold.Protein.ActiveResidues>
 VAL166  LYS551  ARG553  GLY616  TRP617  ASP618  TYR619  PRO620  LYS621  CYS622 
 ASP623  PHE694  ASN695  SER759  ASP760  ASP761  ALA762  ILE779  LEU786  VAL792 
 PHE793  MET794  SER795  GLU796  ALA797  LYS798  CYS799  TRP800  GLU811  SER814 

> <Gold.Protein.RotatedAtoms>
  150.7293  134.5561  159.5818 H   0  0  0  0  0  0  0  0  0  0  0  0  # atno 6907 bound_to 6896
  152.3036  134.7578  160.0361 H   0  0  0  0  0  0  0  0  0  0  0  0  # atno 6908 bound_to 6896
  151.8151  133.3351  159.3603 H   0  0  0  0  0  0  0  0  0  0  0  0  # atno 6909 bound_to 6896
  144.9340  140.7162  143.4888 H   0  0  0  0  0  0  0  0  0  0  0  0  # atno 7974 bound_to 7965
  155.7101  140.3494  155.4970 H   0  0  0  0  0  0  0  0  0  0  0  0  # atno 8008 bound_to 7997
  155.9364  140.1093  157.1113 H   0  0  0  0  0  0  0  0  0  0  0  0  # atno 8009 bound_to 7997
  154.4094  140.1221  156.4856 H   0  0  0  0  0  0  0  0  0  0  0  0  # atno 8010 bound_to 7997
  140.2274  144.3723  150.6427 H   0  0  0  0  0  0  0  0  0  0  0  0  # atno 10167 bound_to 10162
  156.0089  130.4549  150.3669 H   0  0  0  0  0  0  0  0  0  0  0  0  # atno 10718 bound_to 10713
  153.1971  135.6851  153.8278 H   0  0  0  0  0  0  0  0  0  0  0  0  # atno 10763 bound_to 10752
  153.7557  135.3217  155.3330 H   0  0  0  0  0  0  0  0  0  0  0  0  # atno 10764 bound_to 10752
  154.8150  135.4691  154.0720 H   0  0  0  0  0  0  0  0  0  0  0  0  # atno 10765 bound_to 10752
  139.8890  134.9493  156.6338 H   0  0  0  0  0  0  0  0  0  0  0  0  # atno 11005 bound_to 11000
  145.3096  139.1823  143.4645 LP  0  0  0  0  0  0  0  0  0  0  0  0  # atno 17320 bound_to 7965
  146.3259  140.3099  142.8626 LP  0  0  0  0  0  0  0  0  0  0  0  0  # atno 17321 bound_to 7965
  140.6210  143.2176  151.6694 LP  0  0  0  0  0  0  0  0  0  0  0  0  # atno 17342 bound_to 10162
  139.5122  144.3484  152.0675 LP  0  0  0  0  0  0  0  0  0  0  0  0  # atno 17343 bound_to 10162
  157.1755  131.0379  151.2774 LP  0  0  0  0  0  0  0  0  0  0  0  0  # atno 17370 bound_to 10713
  157.4191  130.7428  149.6899 LP  0  0  0  0  0  0  0  0  0  0  0  0  # atno 17371 bound_to 10713
  140.7646  133.8789  155.8444 LP  0  0  0  0  0  0  0  0  0  0  0  0  # atno 17394 bound_to 11000
  140.9893  134.1300  157.4423 LP  0  0  0  0  0  0  0  0  0  0  0  0  # atno 17395 bound_to 11000

$$$$
