AV-unprocessed.smi:310|AV-procd|sdf|2295|dock8
  -GOLD-   2262022193D 1   1.00000     0.00000
 Structure written by MMmdl.
 41 43  0  0  0  0  0  0  0  0  1 V2000
  146.5573  131.1545  155.8024 C   0  0  0  0  0  0  0  0  0  0  0  0
  147.0872  132.5447  155.7148 C   0  0  0  0  0  0  0  0  0  0  0  0
  147.7356  133.2335  154.7286 C   0  0  0  0  0  0  0  0  0  0  0  0
  147.9470  134.5096  155.3153 C   0  0  0  0  0  0  0  0  0  0  0  0
  148.6055  135.5405  154.5974 N   0  0  0  0  0  0  0  0  0  0  0  0
  149.3437  136.5459  155.0984 C   0  0  0  0  0  0  0  0  0  0  0  0
  149.5763  136.7276  156.2938 O   0  0  0  0  0  0  0  0  0  0  0  0
  149.8057  137.3433  154.1239 N   0  0  0  0  0  0  0  0  0  0  0  0
  150.6282  138.5324  154.3270 C   0  0  0  0  0  0  0  0  0  0  0  0
  151.9863  138.1246  154.9384 C   0  0  0  0  0  0  0  0  0  0  0  0
  152.8049  139.3639  155.3391 C   0  0  0  0  0  0  0  0  0  0  0  0
  152.0110  140.1691  156.2773 N   0  0  0  0  0  0  0  0  0  0  0  0
  152.2588  140.3286  157.6017 C   0  0  0  0  0  0  0  0  0  0  0  0
  153.1772  139.7372  158.1715 O   0  0  0  0  0  0  0  0  0  0  0  0
  151.3808  141.2850  158.3520 C   0  0  0  0  0  0  0  0  0  0  0  0
  151.2659  142.7118  157.8452 C   0  0  0  0  0  0  0  0  0  0  0  0
  152.0702  142.4169  159.0845 C   0  0  0  0  0  0  0  0  0  0  0  0
  150.8199  140.7230  155.6220 C   0  0  0  0  0  0  0  0  0  0  0  0
  149.8926  139.5616  155.2172 C   0  0  0  0  0  0  0  0  0  0  0  0
  147.4714  134.5922  156.5484 N   0  0  0  0  0  0  0  0  0  0  0  0
  146.9182  133.3332  156.8108 O   0  0  0  0  0  0  0  0  0  0  0  0
  146.6748  130.6315  154.8531 H   0  0  0  0  0  0  0  0  0  0  0  0
  145.4971  131.1603  156.0560 H   0  0  0  0  0  0  0  0  0  0  0  0
  147.0861  130.5875  156.5687 H   0  0  0  0  0  0  0  0  0  0  0  0
  148.0118  132.8791  153.7466 H   0  0  0  0  0  0  0  0  0  0  0  0
  148.4979  135.5125  153.5945 H   0  0  0  0  0  0  0  0  0  0  0  0
  149.5666  137.1158  153.1699 H   0  0  0  0  0  0  0  0  0  0  0  0
  150.8303  138.9977  153.3602 H   0  0  0  0  0  0  0  0  0  0  0  0
  151.8276  137.5002  155.8192 H   0  0  0  0  0  0  0  0  0  0  0  0
  152.5498  137.5199  154.2271 H   0  0  0  0  0  0  0  0  0  0  0  0
  153.7800  139.0708  155.7257 H   0  0  0  0  0  0  0  0  0  0  0  0
  153.0233  139.9619  154.4532 H   0  0  0  0  0  0  0  0  0  0  0  0
  150.4746  140.8740  158.7930 H   0  0  0  0  0  0  0  0  0  0  0  0
  151.8186  143.0088  156.9558 H   0  0  0  0  0  0  0  0  0  0  0  0
  150.3020  143.2013  157.9682 H   0  0  0  0  0  0  0  0  0  0  0  0
  151.6543  142.7070  160.0471 H   0  0  0  0  0  0  0  0  0  0  0  0
  153.1537  142.4943  159.0079 H   0  0  0  0  0  0  0  0  0  0  0  0
  150.2739  141.4251  156.2533 H   0  0  0  0  0  0  0  0  0  0  0  0
  151.1198  141.2903  154.7396 H   0  0  0  0  0  0  0  0  0  0  0  0
  149.0168  139.9515  154.6971 H   0  0  0  0  0  0  0  0  0  0  0  0
  149.5226  139.0718  156.1193 H   0  0  0  0  0  0  0  0  0  0  0  0
  1  2  1  0  0  0  0
  1 22  1  0  0  0  0
  1 23  1  0  0  0  0
  1 24  1  0  0  0  0
  2 21  1  0  0  0  0
  2  3  2  0  0  0  0
  3  4  1  0  0  0  0
  3 25  1  0  0  0  0
  4  5  1  0  0  0  0
  4 20  2  0  0  0  0
  5  6  1  0  0  0  0
  5 26  1  0  0  0  0
  6  7  2  0  0  0  0
  6  8  1  0  0  0  0
  8  9  1  0  0  0  0
  8 27  1  0  0  0  0
  9 19  1  0  0  0  0
  9 10  1  0  0  0  0
  9 28  1  0  0  0  0
 10 11  1  0  0  0  0
 10 29  1  0  0  0  0
 10 30  1  0  0  0  0
 11 12  1  0  0  0  0
 11 31  1  0  0  0  0
 11 32  1  0  0  0  0
 12 13  1  0  0  0  0
 12 18  1  0  0  0  0
 13 14  2  0  0  0  0
 13 15  1  0  0  0  0
 15 17  1  0  0  0  0
 15 16  1  0  0  0  0
 15 33  1  0  0  0  0
 16 17  1  0  0  0  0
 16 34  1  0  0  0  0
 16 35  1  0  0  0  0
 17 36  1  0  0  0  0
 17 37  1  0  0  0  0
 18 19  1  0  0  0  0
 18 38  1  0  0  0  0
 18 39  1  0  0  0  0
 19 40  1  0  0  0  0
 19 41  1  0  0  0  0
 20 21  1  0  0  0  0
M  END
> <s_m_source_file>
AV-unprocessed.smi

> <i_m_source_file_index>
310

> <i_lp_mmshare_version>
43012

> <i_f3d_flags>
0

> <s_epik_input>
W0NIM11jMVtjSF1jKG5vMSlbTkhdQyg9TylbTkhdW0NIXTJbQ0gyXVtDSDJdTihbQ0gyXVtDSDJdMilDKD1PKVtDSF0zW0NIMl1bQ0gyXTM=

> <s_epik_cmdline>
J2VwaWtfcHl0aG9uJywgJy1waCcsICc3LjAnLCAnLXRuJywgJzgnLCAnLW1hJywgJzIwMCcsICctbWV0YWxfYmluZGluZycsICctaW1hZScsICc8aW5maWxlLm1hZT4nLCAnLW9tYWUnLCAnPG91dGZpbGUubWFlPic=

> <r_lp_tautomer_probability>
1

> <r_epik_Ionization_Penalty>
2.91812e-05

> <r_epik_Ionization_Penalty_Charging>
0

> <r_epik_Ionization_Penalty_Neutral>
2.91812e-05

> <r_epik_State_Penalty>
-0

> <r_epik_Charging_Adjusted_Penalty>
0

> <i_epik_Tot_Q>
0

> <i_epik_Tot_abs_Q>
0

> <r_epik_Metal_State_Penalty>
0.00922567

> <b_epik_Metal_Only>
0

> <s_lp_Force_Field>
OPLS_2005

> <r_lp_Energy>
27.9216

> <b_lp_Chiralities_Consistent>
1

> <s_lp_Variant>
AV-unprocessed.smi:310-1

> <Gold.Version>
5.8.1

> <Gold.Id.Protein>
6NUR|6NUR_protein|mol2

> <Gold.PLP.Fitness>
36.8122

> <Gold.PLP.PLP>
-28.5392

> <Gold.PLP.part.hbond>
-3.0000

> <Gold.PLP.part.metal>
0.0000

> <Gold.PLP.part.buried>
-0.5608

> <Gold.PLP.part.nonpolar>
-24.0357

> <Gold.PLP.part.repulsive>
0.0402

> <Gold.PLP.ligand.clash>
0.0000

> <Gold.PLP.ligand.torsion>
0.2442

> <Gold.PLP.Chemscore.Hbond>
2.8800

> <Gold.PLP.Chemscore.CHOScore>
0.0000

> <Gold.PLP.Chemscore.Metal>
0.0000

> <Gold.Chemscore.Hbonds>
donor molecule, donor type, donor heavy atom, donor atom, acceptor molecule, acceptor atom, score
      L1  H     5    26       P1  7948  0.98
      L1  H     8    27       P1  7948  1.00
      P1  H  7997  8009       L1    14  0.80

> <Gold.PLP.Chemscore.Internal.Correction>
0.1214

> <Gold.Rescore>
     Score         DG    S(hbond)    S(metal)    S(lipo)     H(rot)  DE(clash)    DE(int)     intcor
     17.49     -19.28       2.75        0.00      67.08       1.26       0.44       1.34       ----

> <Gold.Chemscore.Fitness>
17.4905

> <Gold.Chemscore.DG>
-19.2754

> <Gold.Chemscore.ZeroCoef>
-5.4800

> <Gold.Chemscore.Hbond>
2.7474

> <Gold.Chemscore.Metal>
0.0000

> <Gold.Chemscore.Lipo>
67.0817

> <Gold.Chemscore.Internal_Hbond>
0.0000

> <Gold.Chemscore.DEClash>
0.4402

> <Gold.Chemscore.DEInternal>
1.3447

> <Gold.Chemscore.Rot>
1.2615

> <Gold.Chemscore.Internal.Correction>
   9.000000E+99

> <Gold.Chemscore.Hbonds>
donor molecule, donor type, donor heavy atom, donor atom, acceptor molecule, acceptor atom, score
      L1  H     5    26       P1  7948  0.92
      L1  H     8    27       P1  7948  0.74
      P1  H  7997  8009       L1    14  0.12

> <Gold.Chemscore.Hbond.Weighted>
-9.1764

> <Gold.Chemscore.Metal.Weighted>
-0.0000

> <Gold.Chemscore.Lipo.Weighted>
-7.8486

> <Gold.Chemscore.Internal_Hbond.Weighted>
0.0000

> <Gold.Chemscore.DEClash.Weighted>
0.4402

> <Gold.Chemscore.DEInternal.Weighted>
1.3447

> <Gold.Chemscore.Rot.Weighted>
3.2295

> <Gold.Chemscore.Internal.Correction.Weighted>
   9.000000E+99

> <Gold.Protein.RotatedTorsions>
[ 6907 6896 6895 6894 ] final   87.45 input  -60.11 | X-H torsion
[ 7974 7965 7964 7962 ] final    7.69 input  175.53 | X-H torsion
[ 8008 7997 7996 7995 ] final  167.15 input   59.86 | X-H torsion
[ 10167 10162 10161 10158 ] final    0.94 input  -65.29 | X-H torsion
[ 10718 10713 10712 10709 ] final  -24.34 input   66.30 | X-H torsion
[ 10763 10752 10751 10750 ] final   32.27 input  -60.55 | X-H torsion
[ 11005 11000 10999 10996 ] final  157.08 input  -57.11 | X-H torsion

> <Gold.Protein.ActiveResidues>
 VAL166  LYS551  ARG553  GLY616  TRP617  ASP618  TYR619  PRO620  LYS621  CYS622 
 ASP623  PHE694  ASN695  SER759  ASP760  ASP761  ALA762  ILE779  LEU786  VAL792 
 PHE793  MET794  SER795  GLU796  ALA797  LYS798  CYS799  TRP800  GLU811  SER814 

> <Gold.Protein.RotatedAtoms>
  152.5411  134.2274  159.8811 H   0  0  0  0  0  0  0  0  0  0  0  0  # atno 6907 bound_to 6896
  151.2248  133.4476  159.2609 H   0  0  0  0  0  0  0  0  0  0  0  0  # atno 6908 bound_to 6896
  151.0771  134.9848  159.8393 H   0  0  0  0  0  0  0  0  0  0  0  0  # atno 6909 bound_to 6896
  146.2424  140.0046  142.8412 H   0  0  0  0  0  0  0  0  0  0  0  0  # atno 7974 bound_to 7965
  156.1658  140.1624  156.8534 H   0  0  0  0  0  0  0  0  0  0  0  0  # atno 8008 bound_to 7997
  154.5206  140.0779  156.8199 H   0  0  0  0  0  0  0  0  0  0  0  0  # atno 8009 bound_to 7997
  155.3615  140.3395  155.4243 H   0  0  0  0  0  0  0  0  0  0  0  0  # atno 8010 bound_to 7997
  140.6706  143.7060  150.7914 H   0  0  0  0  0  0  0  0  0  0  0  0  # atno 10167 bound_to 10162
  156.4789  130.4541  149.6823 H   0  0  0  0  0  0  0  0  0  0  0  0  # atno 10718 bound_to 10713
  153.0271  135.6417  154.1328 H   0  0  0  0  0  0  0  0  0  0  0  0  # atno 10763 bound_to 10752
  154.1056  135.2856  155.3243 H   0  0  0  0  0  0  0  0  0  0  0  0  # atno 10764 bound_to 10752
  154.6368  135.5473  153.7806 H   0  0  0  0  0  0  0  0  0  0  0  0  # atno 10765 bound_to 10752
  140.1735  134.8526  157.2719 H   0  0  0  0  0  0  0  0  0  0  0  0  # atno 11005 bound_to 11000
  145.1384  140.9557  143.4503 LP  0  0  0  0  0  0  0  0  0  0  0  0  # atno 17320 bound_to 7965
  145.0320  139.3333  143.6020 LP  0  0  0  0  0  0  0  0  0  0  0  0  # atno 17321 bound_to 7965
  140.0745  143.5029  152.2563 LP  0  0  0  0  0  0  0  0  0  0  0  0  # atno 17342 bound_to 10162
  139.5972  144.7571  151.3257 LP  0  0  0  0  0  0  0  0  0  0  0  0  # atno 17343 bound_to 10162
  156.3542  130.7448  151.2411 LP  0  0  0  0  0  0  0  0  0  0  0  0  # atno 17370 bound_to 10713
  157.7485  131.0368  150.4429 LP  0  0  0  0  0  0  0  0  0  0  0  0  # atno 17371 bound_to 10713
  140.2349  134.3864  155.7505 LP  0  0  0  0  0  0  0  0  0  0  0  0  # atno 17394 bound_to 11000
  141.2219  133.7234  156.8699 LP  0  0  0  0  0  0  0  0  0  0  0  0  # atno 17395 bound_to 11000

$$$$
