AV-unprocessed.smi:1826|AV-procd|sdf|7417|dock10
  -GOLD-   22720 9 93D 1   1.00000     0.00000
 Structure written by MMmdl.
 40 42  0  0  0  0  0  0  0  0  2 V2000
  150.5539  140.1340  153.8505 O   0  0  0  0  0  0  0  0  0  0  0  0
  149.7768  141.0834  154.5461 C   0  0  0  0  0  0  0  0  0  0  0  0
  150.4310  141.5366  155.8093 C   0  0  0  0  0  0  0  0  0  0  0  0
  150.3587  142.7896  156.3408 N   0  3  0  0  0  0  0  0  0  0  0  0
  151.0897  142.8420  157.5286 C   0  0  0  0  0  0  0  0  0  0  0  0
  151.3113  143.8891  158.4179 C   0  0  0  0  0  0  0  0  0  0  0  0
  152.1120  143.6042  159.5436 C   0  0  0  0  0  0  0  0  0  0  0  0
  152.6567  142.3202  159.7518 C   0  0  0  0  0  0  0  0  0  0  0  0
  152.4247  141.2663  158.8434 C   0  0  0  0  0  0  0  0  0  0  0  0
  151.6328  141.5572  157.7331 C   0  0  0  0  0  0  0  0  0  0  0  0
  151.2014  140.7861  156.6490 N   0  0  0  0  0  0  0  0  0  0  0  0
  151.6043  139.3737  156.5675 C   0  0  0  0  0  0  0  0  0  0  0  0
  150.6980  138.4391  157.3937 C   0  0  2  0  0  0  0  0  0  0  0  0
  151.2565  138.2405  158.6784 O   0  0  0  0  0  0  0  0  0  0  0  0
  150.4492  137.1285  156.6643 C   0  0  0  0  0  0  0  0  0  0  0  0
  151.1006  136.8674  155.4407 C   0  0  0  0  0  0  0  0  0  0  0  0
  150.8819  135.6515  154.7644 C   0  0  0  0  0  0  0  0  0  0  0  0
  150.0136  134.6790  155.3056 C   0  0  0  0  0  0  0  0  0  0  0  0
  149.7700  133.3703  154.5682 C   0  0  0  0  0  0  0  0  0  0  0  0
  149.7193  133.5675  153.2503 F   0  0  0  0  0  0  0  0  0  0  0  0
  150.7636  132.5244  154.8375 F   0  0  0  0  0  0  0  0  0  0  0  0
  148.6190  132.8161  154.9507 F   0  0  0  0  0  0  0  0  0  0  0  0
  149.3602  134.9427  156.5287 C   0  0  0  0  0  0  0  0  0  0  0  0
  149.5790  136.1579  157.2059 C   0  0  0  0  0  0  0  0  0  0  0  0
  150.2069  140.0434  152.9759 H   0  0  0  0  0  0  0  0  0  0  0  0
  149.5970  141.9426  153.8998 H   0  0  0  0  0  0  0  0  0  0  0  0
  148.8044  140.6473  154.7764 H   0  0  0  0  0  0  0  0  0  0  0  0
  150.8948  144.8734  158.2608 H   0  0  0  0  0  0  0  0  0  0  0  0
  152.3124  144.3862  160.2619 H   0  0  0  0  0  0  0  0  0  0  0  0
  153.2651  142.1397  160.6261 H   0  0  0  0  0  0  0  0  0  0  0  0
  152.8462  140.2861  159.0110 H   0  0  0  0  0  0  0  0  0  0  0  0
  151.6127  139.0793  155.5172 H   0  0  0  0  0  0  0  0  0  0  0  0
  152.6370  139.3032  156.9110 H   0  0  0  0  0  0  0  0  0  0  0  0
  149.7355  138.9272  157.5506 H   0  0  0  0  0  0  0  0  0  0  0  0
  152.0418  138.7619  158.7467 H   0  0  0  0  0  0  0  0  0  0  0  0
  151.7715  137.5986  155.0141 H   0  0  0  0  0  0  0  0  0  0  0  0
  151.3838  135.4697  153.8254 H   0  0  0  0  0  0  0  0  0  0  0  0
  148.6863  134.2137  156.9541 H   0  0  0  0  0  0  0  0  0  0  0  0
  149.0765  136.3417  158.1445 H   0  0  0  0  0  0  0  0  0  0  0  0
  149.8430  143.5513  155.9193 H   0  0  0  0  0  0  0  0  0  0  0  0
  1  2  1  0  0  0  0
  1 25  1  0  0  0  0
  2  3  1  0  0  0  0
  2 26  1  0  0  0  0
  2 27  1  0  0  0  0
  3 11  1  0  0  0  0
  3  4  2  0  0  0  0
  4  5  1  0  0  0  0
  4 40  1  0  0  0  0
  5 10  2  0  0  0  0
  5  6  1  0  0  0  0
  6  7  2  0  0  0  0
  6 28  1  0  0  0  0
  7  8  1  0  0  0  0
  7 29  1  0  0  0  0
  8  9  2  0  0  0  0
  8 30  1  0  0  0  0
  9 10  1  0  0  0  0
  9 31  1  0  0  0  0
 10 11  1  0  0  0  0
 11 12  1  0  0  0  0
 12 13  1  0  0  0  0
 12 32  1  0  0  0  0
 12 33  1  0  0  0  0
 13 14  1  0  0  0  0
 13 15  1  0  0  0  0
 13 34  1  0  0  0  0
 14 35  1  0  0  0  0
 15 24  1  0  0  0  0
 15 16  2  0  0  0  0
 16 17  1  0  0  0  0
 16 36  1  0  0  0  0
 17 18  2  0  0  0  0
 17 37  1  0  0  0  0
 18 19  1  0  0  0  0
 18 23  1  0  0  0  0
 19 20  1  0  0  0  0
 19 21  1  0  0  0  0
 19 22  1  0  0  0  0
 23 24  2  0  0  0  0
 23 38  1  0  0  0  0
 24 39  1  0  0  0  0
M  CHG  1   4   1
M  END
> <s_m_source_file>
AV-unprocessed.smi

> <i_m_source_file_index>
1826

> <i_lp_mmshare_version>
43012

> <i_f3d_flags>
0

> <s_epik_input>
W2NIXTFbY0hdW2NIXVtjSF1jKGMxMiluKGMobjIpW0NIMl1bT0hdKVtDSDJdW0NASF0oW09IXSljM1tjSF1bY0hdYyhDKEYpKEYpRilbY0hdW2NIXTM=

> <s_epik_cmdline>
J2VwaWtfcHl0aG9uJywgJy1waCcsICc3LjAnLCAnLXRuJywgJzgnLCAnLW1hJywgJzIwMCcsICctbWV0YWxfYmluZGluZycsICctaW1hZScsICc8aW5maWxlLm1hZT4nLCAnLW9tYWUnLCAnPG91dGZpbGUubWFlPic=

> <r_epik_Ionization_Penalty>
1.35643

> <r_epik_Ionization_Penalty_Charging>
1.35557

> <r_epik_Ionization_Penalty_Neutral>
0.000856405

> <r_epik_State_Penalty>
1.43401

> <r_epik_Charging_Adjusted_Penalty>
2.78958

> <i_epik_Tot_Q>
1

> <i_epik_Tot_abs_Q>
1

> <r_epik_Metal_State_Penalty>
5.47166

> <b_epik_Metal_Only>
0

> <s_lp_Force_Field>
OPLS_2005

> <r_lp_Energy>
15.9337

> <b_lp_Chiralities_Consistent>
1

> <s_lp_Variant>
AV-unprocessed.smi:1826-3

> <Gold.Version>
5.8.1

> <Gold.Id.Protein>
6NUR|6NUR_protein|mol2

> <Gold.PLP.Fitness>
53.9143

> <Gold.PLP.PLP>
-44.8109

> <Gold.PLP.part.hbond>
-3.0000

> <Gold.PLP.part.metal>
0.0000

> <Gold.PLP.part.buried>
-5.6265

> <Gold.PLP.part.nonpolar>
-36.1885

> <Gold.PLP.part.repulsive>
0.0907

> <Gold.PLP.ligand.clash>
0.0022

> <Gold.PLP.ligand.torsion>
2.1289

> <Gold.PLP.Chemscore.Hbond>
3.9920

> <Gold.PLP.Chemscore.CHOScore>
0.0000

> <Gold.PLP.Chemscore.Metal>
0.0000

> <Gold.Chemscore.Hbonds>
donor molecule, donor type, donor heavy atom, donor atom, acceptor molecule, acceptor atom, score
      L1  H     1    25       P1  7957  1.00
      L1  H     4    40       P1  8028  1.98
      P1  H  7989  7998       L1     1  0.36

> <Gold.PLP.Chemscore.Internal.Correction>
1.3875

> <Gold.Rescore>
     Score         DG    S(hbond)    S(metal)    S(lipo)     H(rot)  DE(clash)    DE(int)     intcor
     17.40     -18.23       2.50        0.00     102.92       2.98       0.01       0.83       ----

> <Gold.Chemscore.Fitness>
17.3982

> <Gold.Chemscore.DG>
-18.2339

> <Gold.Chemscore.ZeroCoef>
-5.4800

> <Gold.Chemscore.Hbond>
2.4990

> <Gold.Chemscore.Metal>
0.0000

> <Gold.Chemscore.Lipo>
102.9206

> <Gold.Chemscore.Internal_Hbond>
0.0000

> <Gold.Chemscore.DEClash>
0.0096

> <Gold.Chemscore.DEInternal>
0.8261

> <Gold.Chemscore.Rot>
2.9822

> <Gold.Chemscore.Internal.Correction>
   9.000000E+99

> <Gold.Chemscore.Hbonds>
donor molecule, donor type, donor heavy atom, donor atom, acceptor molecule, acceptor atom, score
      L1  H     1    25       P1  7957  1.00
      L1  H     4    40       P1  8028  0.92
      P1  H  7989  7998       L1     1  0.01

> <Gold.Chemscore.Hbond.Weighted>
-8.3465

> <Gold.Chemscore.Metal.Weighted>
-0.0000

> <Gold.Chemscore.Lipo.Weighted>
-12.0417

> <Gold.Chemscore.Internal_Hbond.Weighted>
0.0000

> <Gold.Chemscore.DEClash.Weighted>
0.0096

> <Gold.Chemscore.DEInternal.Weighted>
0.8261

> <Gold.Chemscore.Rot.Weighted>
7.6343

> <Gold.Chemscore.Internal.Correction.Weighted>
   9.000000E+99

> <Gold.Protein.RotatedTorsions>
[ 6907 6896 6895 6894 ] final -126.34 input  -60.11 | X-H torsion
[ 7974 7965 7964 7962 ] final   87.83 input  175.53 | X-H torsion
[ 8008 7997 7996 7995 ] final  -77.72 input   59.86 | X-H torsion
[ 10167 10162 10161 10158 ] final -145.06 input  -65.29 | X-H torsion
[ 10718 10713 10712 10709 ] final -176.58 input   66.30 | X-H torsion
[ 10763 10752 10751 10750 ] final  179.03 input  -60.55 | X-H torsion
[ 11005 11000 10999 10996 ] final   39.08 input  -57.11 | X-H torsion

> <Gold.Protein.ActiveResidues>
 VAL166  LYS551  ARG553  GLY616  TRP617  ASP618  TYR619  PRO620  LYS621  CYS622 
 ASP623  PHE694  ASN695  SER759  ASP760  ASP761  ALA762  ILE779  LEU786  VAL792 
 PHE793  MET794  SER795  GLU796  ALA797  LYS798  CYS799  TRP800  GLU811  SER814 

> <Gold.Protein.RotatedAtoms>
  150.8959  133.7181  159.2891 H   0  0  0  0  0  0  0  0  0  0  0  0  # atno 6907 bound_to 6896
  151.4716  135.1045  159.9762 H   0  0  0  0  0  0  0  0  0  0  0  0  # atno 6908 bound_to 6896
  152.4848  133.8298  159.7152 H   0  0  0  0  0  0  0  0  0  0  0  0  # atno 6909 bound_to 6896
  145.5538  139.2298  143.2498 H   0  0  0  0  0  0  0  0  0  0  0  0  # atno 7974 bound_to 7965
  154.5622  140.0706  156.8836 H   0  0  0  0  0  0  0  0  0  0  0  0  # atno 8008 bound_to 7997
  155.2790  140.3370  155.4241 H   0  0  0  0  0  0  0  0  0  0  0  0  # atno 8009 bound_to 7997
  156.2051  140.1737  156.7802 H   0  0  0  0  0  0  0  0  0  0  0  0  # atno 8010 bound_to 7997
  139.7841  143.8059  152.2642 H   0  0  0  0  0  0  0  0  0  0  0  0  # atno 10167 bound_to 10162
  156.8167  130.9605  151.3113 H   0  0  0  0  0  0  0  0  0  0  0  0  # atno 10718 bound_to 10713
  154.5154  135.2791  155.1307 H   0  0  0  0  0  0  0  0  0  0  0  0  # atno 10763 bound_to 10752
  154.2886  135.6271  153.5379 H   0  0  0  0  0  0  0  0  0  0  0  0  # atno 10764 bound_to 10752
  152.9926  135.5668  154.5630 H   0  0  0  0  0  0  0  0  0  0  0  0  # atno 10765 bound_to 10752
  140.2063  134.3810  155.8071 H   0  0  0  0  0  0  0  0  0  0  0  0  # atno 11005 bound_to 11000
  146.1898  140.6362  142.9151 LP  0  0  0  0  0  0  0  0  0  0  0  0  # atno 17320 bound_to 7965
  144.7516  140.5205  143.6798 LP  0  0  0  0  0  0  0  0  0  0  0  0  # atno 17321 bound_to 7965
  139.8130  144.7328  150.9672 LP  0  0  0  0  0  0  0  0  0  0  0  0  # atno 17342 bound_to 10162
  140.7819  143.4232  151.0809 LP  0  0  0  0  0  0  0  0  0  0  0  0  # atno 17343 bound_to 10162
  157.6478  130.8859  149.9572 LP  0  0  0  0  0  0  0  0  0  0  0  0  # atno 17370 bound_to 10713
  156.1012  130.3655  150.0214 LP  0  0  0  0  0  0  0  0  0  0  0  0  # atno 17371 bound_to 10713
  141.2227  133.7119  156.8342 LP  0  0  0  0  0  0  0  0  0  0  0  0  # atno 17394 bound_to 11000
  140.2000  134.8904  157.3158 LP  0  0  0  0  0  0  0  0  0  0  0  0  # atno 17395 bound_to 11000

$$$$
