AV-unprocessed.smi:693|AV-procd|sdf|3375|dock5
  -GOLD-   22720 0353D 1   1.00000     0.00000
 Structure written by MMmdl.
 47 48  0  0  0  0  0  0  0  0  2 V2000
  151.5396  143.4453  157.1819 C   0  0  0  0  0  0  0  0  0  0  0  0
  151.2162  142.2064  156.3736 C   0  0  0  0  0  0  0  0  0  0  0  0
  151.7701  140.9468  156.6860 C   0  0  0  0  0  0  0  0  0  0  0  0
  151.4289  139.8288  155.8963 C   0  0  0  0  0  0  0  0  0  0  0  0
  150.5411  139.9935  154.8107 C   0  0  0  0  0  0  0  0  0  0  0  0
  150.1437  138.8124  153.9473 C   0  0  0  0  0  0  0  0  0  0  0  0
  150.9716  137.5582  154.2710 C   0  0  0  0  0  0  0  0  0  0  0  0
  150.1306  136.3718  154.3794 N   0  0  0  0  0  0  0  0  0  0  0  0
  150.3494  135.3448  155.2186 C   0  0  0  0  0  0  0  0  0  0  0  0
  151.2973  135.3377  156.0058 O   0  0  0  0  0  0  0  0  0  0  0  0
  149.4350  134.3443  155.1468 N   0  0  0  0  0  0  0  0  0  0  0  0
  148.4329  134.1548  154.0856 C   0  0  0  0  0  0  0  0  0  0  0  0
  148.8998  133.0064  153.1759 C   0  0  0  0  0  0  0  0  0  0  0  0
  149.1375  131.7183  153.9871 C   0  0  0  0  0  0  0  0  0  0  0  0
  150.0336  131.9597  155.2287 C   0  0  2  0  0  0  0  0  0  0  0  0
  150.1658  130.7212  156.1444 C   0  0  0  0  0  0  0  0  0  0  0  0
  150.9809  129.5785  155.5295 C   0  0  0  0  0  0  0  0  0  0  0  0
  150.4291  128.9204  154.5070 N   0  0  0  0  0  0  0  0  0  0  0  0
  152.1020  129.3068  155.9538 O   0  0  0  0  0  0  0  0  0  0  0  0
  149.4997  133.1706  156.0270 C   0  0  0  0  0  0  0  0  0  0  0  0
  150.0190  141.2774  154.5447 C   0  0  0  0  0  0  0  0  0  0  0  0
  150.3712  142.3230  155.3242 N   0  3  0  0  0  0  0  0  0  0  0  0
  151.3924  143.2532  158.2450 H   0  0  0  0  0  0  0  0  0  0  0  0
  150.9031  144.2839  156.8970 H   0  0  0  0  0  0  0  0  0  0  0  0
  152.5789  143.7358  157.0266 H   0  0  0  0  0  0  0  0  0  0  0  0
  152.4472  140.8373  157.5209 H   0  0  0  0  0  0  0  0  0  0  0  0
  151.8426  138.8574  156.1250 H   0  0  0  0  0  0  0  0  0  0  0  0
  149.0809  138.6146  154.0944 H   0  0  0  0  0  0  0  0  0  0  0  0
  150.2632  139.0796  152.8964 H   0  0  0  0  0  0  0  0  0  0  0  0
  151.7086  137.3844  153.4862 H   0  0  0  0  0  0  0  0  0  0  0  0
  151.5324  137.6985  155.1968 H   0  0  0  0  0  0  0  0  0  0  0  0
  149.3299  136.3188  153.7664 H   0  0  0  0  0  0  0  0  0  0  0  0
  147.4730  133.9026  154.5388 H   0  0  0  0  0  0  0  0  0  0  0  0
  148.2433  135.0470  153.4894 H   0  0  0  0  0  0  0  0  0  0  0  0
  148.1623  132.8228  152.3941 H   0  0  0  0  0  0  0  0  0  0  0  0
  149.8220  133.2949  152.6694 H   0  0  0  0  0  0  0  0  0  0  0  0
  148.1744  131.3222  154.3116 H   0  0  0  0  0  0  0  0  0  0  0  0
  149.5748  130.9649  153.3323 H   0  0  0  0  0  0  0  0  0  0  0  0
  151.0328  132.2191  154.8736 H   0  0  0  0  0  0  0  0  0  0  0  0
  150.6311  131.0115  157.0877 H   0  0  0  0  0  0  0  0  0  0  0  0
  149.1762  130.3427  156.4036 H   0  0  0  0  0  0  0  0  0  0  0  0
  150.9282  128.1608  154.0672 H   0  0  0  0  0  0  0  0  0  0  0  0
  149.5133  129.1870  154.1757 H   0  0  0  0  0  0  0  0  0  0  0  0
  150.1218  133.3492  156.9055 H   0  0  0  0  0  0  0  0  0  0  0  0
  148.5034  132.9553  156.4164 H   0  0  0  0  0  0  0  0  0  0  0  0
  149.3324  141.4978  153.7400 H   0  0  0  0  0  0  0  0  0  0  0  0
  149.9805  143.2412  155.1121 H   0  0  0  0  0  0  0  0  0  0  0  0
  1  2  1  0  0  0  0
  1 23  1  0  0  0  0
  1 24  1  0  0  0  0
  1 25  1  0  0  0  0
  2 22  1  0  0  0  0
  2  3  2  0  0  0  0
  3  4  1  0  0  0  0
  3 26  1  0  0  0  0
  4  5  2  0  0  0  0
  4 27  1  0  0  0  0
  5  6  1  0  0  0  0
  5 21  1  0  0  0  0
  6  7  1  0  0  0  0
  6 28  1  0  0  0  0
  6 29  1  0  0  0  0
  7  8  1  0  0  0  0
  7 30  1  0  0  0  0
  7 31  1  0  0  0  0
  8  9  1  0  0  0  0
  8 32  1  0  0  0  0
  9 10  2  0  0  0  0
  9 11  1  0  0  0  0
 11 20  1  0  0  0  0
 11 12  1  0  0  0  0
 12 13  1  0  0  0  0
 12 33  1  0  0  0  0
 12 34  1  0  0  0  0
 13 14  1  0  0  0  0
 13 35  1  0  0  0  0
 13 36  1  0  0  0  0
 14 15  1  0  0  0  0
 14 37  1  0  0  0  0
 14 38  1  0  0  0  0
 15 16  1  0  0  0  0
 15 20  1  0  0  0  0
 15 39  1  0  0  0  0
 16 17  1  0  0  0  0
 16 40  1  0  0  0  0
 16 41  1  0  0  0  0
 17 18  1  0  0  0  0
 17 19  2  0  0  0  0
 18 42  1  0  0  0  0
 18 43  1  0  0  0  0
 20 44  1  0  0  0  0
 20 45  1  0  0  0  0
 21 22  2  0  0  0  0
 21 46  1  0  0  0  0
 22 47  1  0  0  0  0
M  CHG  1  22   1
M  END
> <s_m_source_file>
AV-unprocessed.smi

> <i_m_source_file_index>
693

> <i_lp_mmshare_version>
43012

> <i_f3d_flags>
0

> <s_epik_input>
W0NIM11jMVtjSF1bY0hdYyhbY0hdbjEpW0NIMl1bQ0gyXVtOSF1DKD1PKU4yW0NIMl1bQ0gyXVtDSDJdW0NASF0oW0NIMl0yKVtDSDJdQyg9TylbTkgyXQ==

> <s_epik_cmdline>
J2VwaWtfcHl0aG9uJywgJy1waCcsICc3LjAnLCAnLXRuJywgJzgnLCAnLW1hJywgJzIwMCcsICctbWV0YWxfYmluZGluZycsICctaW1hZScsICc8aW5maWxlLm1hZT4nLCAnLW9tYWUnLCAnPG91dGZpbGUubWFlPic=

> <r_epik_Ionization_Penalty>
1.41666

> <r_epik_Ionization_Penalty_Charging>
1.4166

> <r_epik_Ionization_Penalty_Neutral>
5.77403e-05

> <r_epik_State_Penalty>
1.50002

> <r_epik_Charging_Adjusted_Penalty>
2.91662

> <i_epik_Tot_Q>
1

> <i_epik_Tot_abs_Q>
1

> <r_epik_Metal_State_Penalty>
1.55252

> <b_epik_Metal_Only>
0

> <s_lp_Force_Field>
OPLS_2005

> <r_lp_Energy>
32.8

> <b_lp_Chiralities_Consistent>
1

> <s_lp_Variant>
AV-unprocessed.smi:693-4

> <Gold.Version>
5.8.1

> <Gold.Id.Protein>
6NUR|6NUR_protein|mol2

> <Gold.PLP.Fitness>
55.3009

> <Gold.PLP.PLP>
-43.1495

> <Gold.PLP.part.hbond>
-4.4734

> <Gold.PLP.part.metal>
0.0000

> <Gold.PLP.part.buried>
-3.1623

> <Gold.PLP.part.nonpolar>
-36.0534

> <Gold.PLP.part.repulsive>
0.3458

> <Gold.PLP.ligand.clash>
0.0000

> <Gold.PLP.ligand.torsion>
0.7795

> <Gold.PLP.Chemscore.Hbond>
4.5307

> <Gold.PLP.Chemscore.CHOScore>
0.0000

> <Gold.PLP.Chemscore.Metal>
0.0000

> <Gold.Chemscore.Hbonds>
donor molecule, donor type, donor heavy atom, donor atom, acceptor molecule, acceptor atom, score
      L1  H     8    32       P1  7948  0.74
      L1  H    22    47       P1  8028  1.98
      P1  H 10752 10763       L1    10  0.93

> <Gold.PLP.Chemscore.Internal.Correction>
0.1183

> <Gold.Rescore>
     Score         DG    S(hbond)    S(metal)    S(lipo)     H(rot)  DE(clash)    DE(int)     intcor
     19.89     -20.92       3.19        0.00      92.16       2.34       0.06       0.97       ----

> <Gold.Chemscore.Fitness>
19.8923

> <Gold.Chemscore.DG>
-20.9224

> <Gold.Chemscore.ZeroCoef>
-5.4800

> <Gold.Chemscore.Hbond>
3.1851

> <Gold.Chemscore.Metal>
0.0000

> <Gold.Chemscore.Lipo>
92.1588

> <Gold.Chemscore.Internal_Hbond>
0.0000

> <Gold.Chemscore.DEClash>
0.0612

> <Gold.Chemscore.DEInternal>
0.9689

> <Gold.Chemscore.Rot>
2.3354

> <Gold.Chemscore.Internal.Correction>
   9.000000E+99

> <Gold.Chemscore.Hbonds>
donor molecule, donor type, donor heavy atom, donor atom, acceptor molecule, acceptor atom, score
      L1  H     8    32       P1  7948  0.65
      L1  H    22    47       P1  8028  0.94
      P1  H 10752 10763       L1    10  0.65

> <Gold.Chemscore.Hbond.Weighted>
-10.6383

> <Gold.Chemscore.Metal.Weighted>
-0.0000

> <Gold.Chemscore.Lipo.Weighted>
-10.7826

> <Gold.Chemscore.Internal_Hbond.Weighted>
0.0000

> <Gold.Chemscore.DEClash.Weighted>
0.0612

> <Gold.Chemscore.DEInternal.Weighted>
0.9689

> <Gold.Chemscore.Rot.Weighted>
5.9785

> <Gold.Chemscore.Internal.Correction.Weighted>
   9.000000E+99

> <Gold.Protein.RotatedTorsions>
[ 6907 6896 6895 6894 ] final  -82.45 input  -60.11 | X-H torsion
[ 7974 7965 7964 7962 ] final   41.50 input  175.53 | X-H torsion
[ 8008 7997 7996 7995 ] final   17.83 input   59.86 | X-H torsion
[ 10167 10162 10161 10158 ] final  -68.93 input  -65.29 | X-H torsion
[ 10718 10713 10712 10709 ] final  -55.38 input   66.30 | X-H torsion
[ 10763 10752 10751 10750 ] final   83.32 input  -60.55 | X-H torsion
[ 11005 11000 10999 10996 ] final   19.79 input  -57.11 | X-H torsion

> <Gold.Protein.ActiveResidues>
 VAL166  LYS551  ARG553  GLY616  TRP617  ASP618  TYR619  PRO620  LYS621  CYS622 
 ASP623  PHE694  ASN695  SER759  ASP760  ASP761  ALA762  ILE779  LEU786  VAL792 
 PHE793  MET794  SER795  GLU796  ALA797  LYS798  CYS799  TRP800  GLU811  SER814 

> <Gold.Protein.RotatedAtoms>
  150.6897  134.3664  159.4972 H   0  0  0  0  0  0  0  0  0  0  0  0  # atno 6907 bound_to 6896
  152.1485  134.9004  160.0558 H   0  0  0  0  0  0  0  0  0  0  0  0  # atno 6908 bound_to 6896
  152.0110  133.3827  159.4257 H   0  0  0  0  0  0  0  0  0  0  0  0  # atno 6909 bound_to 6896
  146.0818  139.5408  142.9532 H   0  0  0  0  0  0  0  0  0  0  0  0  # atno 7974 bound_to 7965
  154.8971  140.2995  155.5338 H   0  0  0  0  0  0  0  0  0  0  0  0  # atno 8008 bound_to 7997
  156.3019  140.2414  156.3929 H   0  0  0  0  0  0  0  0  0  0  0  0  # atno 8009 bound_to 7997
  154.8559  140.0407  157.1623 H   0  0  0  0  0  0  0  0  0  0  0  0  # atno 8010 bound_to 7997
  140.5469  143.2313  151.6984 H   0  0  0  0  0  0  0  0  0  0  0  0  # atno 10167 bound_to 10162
  156.1374  130.4156  150.0163 H   0  0  0  0  0  0  0  0  0  0  0  0  # atno 10718 bound_to 10713
  153.1281  135.4695  154.9304 H   0  0  0  0  0  0  0  0  0  0  0  0  # atno 10763 bound_to 10752
  154.7639  135.3139  154.8328 H   0  0  0  0  0  0  0  0  0  0  0  0  # atno 10764 bound_to 10752
  153.8876  135.6888  153.4816 H   0  0  0  0  0  0  0  0  0  0  0  0  # atno 10765 bound_to 10752
  140.4098  134.1630  155.7667 H   0  0  0  0  0  0  0  0  0  0  0  0  # atno 11005 bound_to 11000
  145.6204  141.0323  143.1918 LP  0  0  0  0  0  0  0  0  0  0  0  0  # atno 17320 bound_to 7965
  144.7298  139.7760  143.7351 LP  0  0  0  0  0  0  0  0  0  0  0  0  # atno 17321 bound_to 7965
  139.5011  144.3880  152.0309 LP  0  0  0  0  0  0  0  0  0  0  0  0  # atno 17342 bound_to 10162
  140.2993  144.3664  150.6065 LP  0  0  0  0  0  0  0  0  0  0  0  0  # atno 17343 bound_to 10162
  156.8058  130.9307  151.3645 LP  0  0  0  0  0  0  0  0  0  0  0  0  # atno 17370 bound_to 10713
  157.6544  130.8912  149.9699 LP  0  0  0  0  0  0  0  0  0  0  0  0  # atno 17371 bound_to 10713
  141.1825  133.8383  157.1206 LP  0  0  0  0  0  0  0  0  0  0  0  0  # atno 17394 bound_to 11000
  140.0275  134.9917  157.0716 LP  0  0  0  0  0  0  0  0  0  0  0  0  # atno 17395 bound_to 11000

$$$$
