AV-unprocessed.smi:1426|AV-procd|sdf|5806|dock5
  -GOLD-   22720 5463D 1   1.00000     0.00000
 Structure written by MMmdl.
 43 45  0  0  0  0  0  0  0  0  1 V2000
  150.1045  133.1832  155.2435 O   0  0  0  0  0  0  0  0  0  0  0  0
  149.7033  133.9834  154.3984 C   0  0  0  0  0  0  0  0  0  0  0  0
  150.0540  135.2769  154.3748 N   0  0  0  0  0  0  0  0  0  0  0  0
  150.9226  135.9367  155.3447 C   0  0  0  0  0  0  0  0  0  0  0  0
  150.6237  137.4446  155.4421 C   0  0  1  0  0  0  0  0  0  0  0  0
  150.9336  138.2483  154.1936 C   0  0  0  0  0  0  0  0  0  0  0  0
  150.1134  139.5144  154.4200 C   0  0  0  0  0  0  0  0  0  0  0  0
  148.9844  139.1160  155.1926 O   0  0  0  0  0  0  0  0  0  0  0  0
  149.1432  137.7708  155.6329 C   0  0  0  0  0  0  0  0  0  0  0  0
  148.8464  133.6968  153.4044 N   0  0  0  0  0  0  0  0  0  0  0  0
  148.1919  132.4610  153.1365 C   0  0  0  0  0  0  0  0  0  0  0  0
  148.6170  131.2368  153.7074 C   0  0  0  0  0  0  0  0  0  0  0  0
  147.9275  130.0539  153.3871 C   0  0  0  0  0  0  0  0  0  0  0  0
  146.8411  130.1345  152.4984 C   0  0  0  0  0  0  0  0  0  0  0  0
  146.4356  131.2890  151.9320 N   0  0  0  0  0  0  0  0  0  0  0  0
  147.0914  132.4353  152.2383 C   0  0  0  0  0  0  0  0  0  0  0  0
  146.6687  133.6211  151.6032 N   0  0  0  0  0  0  0  0  0  0  0  0
  145.7377  133.3857  150.5029 C   0  0  0  0  0  0  0  0  0  0  0  0
  144.7162  134.5240  150.5474 C   0  0  0  0  0  0  0  0  0  0  0  0
  144.7046  134.9170  152.0194 C   0  0  0  0  0  0  0  0  0  0  0  0
  146.1650  134.7219  152.4231 C   0  0  0  0  0  0  0  0  0  0  0  0
  149.6717  135.8569  153.6422 H   0  0  0  0  0  0  0  0  0  0  0  0
  150.8440  135.4633  156.3250 H   0  0  0  0  0  0  0  0  0  0  0  0
  151.9529  135.7912  155.0195 H   0  0  0  0  0  0  0  0  0  0  0  0
  151.1815  137.8707  156.2780 H   0  0  0  0  0  0  0  0  0  0  0  0
  151.9969  138.4523  154.0640 H   0  0  0  0  0  0  0  0  0  0  0  0
  150.5758  137.7247  153.3058 H   0  0  0  0  0  0  0  0  0  0  0  0
  150.6878  140.2409  154.9960 H   0  0  0  0  0  0  0  0  0  0  0  0
  149.8110  139.9867  153.4850 H   0  0  0  0  0  0  0  0  0  0  0  0
  148.5219  137.1292  155.0065 H   0  0  0  0  0  0  0  0  0  0  0  0
  148.8185  137.6499  156.6666 H   0  0  0  0  0  0  0  0  0  0  0  0
  148.5364  134.4783  152.8457 H   0  0  0  0  0  0  0  0  0  0  0  0
  149.4657  131.1829  154.3718 H   0  0  0  0  0  0  0  0  0  0  0  0
  148.2281  129.1066  153.8094 H   0  0  0  0  0  0  0  0  0  0  0  0
  146.2889  129.2470  152.2269 H   0  0  0  0  0  0  0  0  0  0  0  0
  146.2603  133.3578  149.5463 H   0  0  0  0  0  0  0  0  0  0  0  0
  145.2319  132.4272  150.6343 H   0  0  0  0  0  0  0  0  0  0  0  0
  145.0682  135.3628  149.9450 H   0  0  0  0  0  0  0  0  0  0  0  0
  143.7348  134.2280  150.1756 H   0  0  0  0  0  0  0  0  0  0  0  0
  144.3487  135.9335  152.1897 H   0  0  0  0  0  0  0  0  0  0  0  0
  144.0677  134.2332  152.5825 H   0  0  0  0  0  0  0  0  0  0  0  0
  146.2735  134.5691  153.4972 H   0  0  0  0  0  0  0  0  0  0  0  0
  146.7417  135.6124  152.1710 H   0  0  0  0  0  0  0  0  0  0  0  0
  1  2  2  0  0  0  0
  2  3  1  0  0  0  0
  2 10  1  0  0  0  0
  3  4  1  0  0  0  0
  3 22  1  0  0  0  0
  4  5  1  0  0  0  0
  4 23  1  0  0  0  0
  4 24  1  0  0  0  0
  5  9  1  0  0  0  0
  5  6  1  0  0  0  0
  5 25  1  0  0  0  0
  6  7  1  0  0  0  0
  6 26  1  0  0  0  0
  6 27  1  0  0  0  0
  7  8  1  0  0  0  0
  7 28  1  0  0  0  0
  7 29  1  0  0  0  0
  8  9  1  0  0  0  0
  9 30  1  0  0  0  0
  9 31  1  0  0  0  0
 10 11  1  0  0  0  0
 10 32  1  0  0  0  0
 11 16  1  0  0  0  0
 11 12  2  0  0  0  0
 12 13  1  0  0  0  0
 12 33  1  0  0  0  0
 13 14  2  0  0  0  0
 13 34  1  0  0  0  0
 14 15  1  0  0  0  0
 14 35  1  0  0  0  0
 15 16  2  0  0  0  0
 16 17  1  0  0  0  0
 17 21  1  0  0  0  0
 17 18  1  0  0  0  0
 18 19  1  0  0  0  0
 18 36  1  0  0  0  0
 18 37  1  0  0  0  0
 19 20  1  0  0  0  0
 19 38  1  0  0  0  0
 19 39  1  0  0  0  0
 20 21  1  0  0  0  0
 20 40  1  0  0  0  0
 20 41  1  0  0  0  0
 21 42  1  0  0  0  0
 21 43  1  0  0  0  0
M  END
> <s_m_source_file>
AV-unprocessed.smi

> <i_m_source_file_index>
1426

> <i_lp_mmshare_version>
43012

> <i_f3d_flags>
0

> <s_epik_input>
W0NIMl0xT1tDSDJdW0NIMl1bQ0BIXTFbQ0gyXVtOSF1DKD1PKVtOSF1jMltjSF1bY0hdW2NIXW5jMk4zW0NIMl1bQ0gyXVtDSDJdW0NIMl0z

> <s_epik_cmdline>
J2VwaWtfcHl0aG9uJywgJy1waCcsICc3LjAnLCAnLXRuJywgJzgnLCAnLW1hJywgJzIwMCcsICctbWV0YWxfYmluZGluZycsICctaW1hZScsICc8aW5maWxlLm1hZT4nLCAnLW9tYWUnLCAnPG91dGZpbGUubWFlPic=

> <r_lp_tautomer_probability>
1

> <r_epik_Ionization_Penalty>
0.0999657

> <r_epik_Ionization_Penalty_Charging>
0

> <r_epik_Ionization_Penalty_Neutral>
0.0999657

> <r_epik_State_Penalty>
0.0894442

> <r_epik_Charging_Adjusted_Penalty>
0.0894442

> <i_epik_Tot_Q>
0

> <i_epik_Tot_abs_Q>
0

> <r_epik_Metal_State_Penalty>
0.076486

> <b_epik_Metal_Only>
0

> <s_lp_Force_Field>
OPLS_2005

> <r_lp_Energy>
46.9111

> <b_lp_Chiralities_Consistent>
1

> <s_lp_Variant>
AV-unprocessed.smi:1426-2

> <Gold.Version>
5.8.1

> <Gold.Id.Protein>
6NUR|6NUR_protein|mol2

> <Gold.PLP.Fitness>
37.4799

> <Gold.PLP.PLP>
-32.3907

> <Gold.PLP.part.hbond>
-2.4464

> <Gold.PLP.part.metal>
0.0000

> <Gold.PLP.part.buried>
-1.5233

> <Gold.PLP.part.nonpolar>
-26.9739

> <Gold.PLP.part.repulsive>
0.4791

> <Gold.PLP.ligand.clash>
0.0000

> <Gold.PLP.ligand.torsion>
0.4052

> <Gold.PLP.Chemscore.Hbond>
1.9272

> <Gold.PLP.Chemscore.CHOScore>
0.0000

> <Gold.PLP.Chemscore.Metal>
0.0000

> <Gold.Chemscore.Hbonds>
donor molecule, donor type, donor heavy atom, donor atom, acceptor molecule, acceptor atom, score
      L1  H     3    22       P1  7948  0.95
      L1  H    10    32       P1  7948  0.83

> <Gold.PLP.Chemscore.Internal.Correction>
0.1180

> <Gold.Rescore>
     Score         DG    S(hbond)    S(metal)    S(lipo)     H(rot)  DE(clash)    DE(int)     intcor
     12.39     -14.20       1.33        0.00      66.82       1.38       0.01       1.80       ----

> <Gold.Chemscore.Fitness>
12.3881

> <Gold.Chemscore.DG>
-14.1965

> <Gold.Chemscore.ZeroCoef>
-5.4800

> <Gold.Chemscore.Hbond>
1.3264

> <Gold.Chemscore.Metal>
0.0000

> <Gold.Chemscore.Lipo>
66.8200

> <Gold.Chemscore.Internal_Hbond>
0.0000

> <Gold.Chemscore.DEClash>
0.0089

> <Gold.Chemscore.DEInternal>
1.7995

> <Gold.Chemscore.Rot>
1.3796

> <Gold.Chemscore.Internal.Correction>
   9.000000E+99

> <Gold.Chemscore.Hbonds>
donor molecule, donor type, donor heavy atom, donor atom, acceptor molecule, acceptor atom, score
      L1  H     3    22       P1  7948  0.21
      L1  H    10    32       P1  7948  0.13

> <Gold.Chemscore.Hbond.Weighted>
-4.4302

> <Gold.Chemscore.Metal.Weighted>
-0.0000

> <Gold.Chemscore.Lipo.Weighted>
-7.8179

> <Gold.Chemscore.Internal_Hbond.Weighted>
0.0000

> <Gold.Chemscore.DEClash.Weighted>
0.0089

> <Gold.Chemscore.DEInternal.Weighted>
1.7995

> <Gold.Chemscore.Rot.Weighted>
3.5317

> <Gold.Chemscore.Internal.Correction.Weighted>
   9.000000E+99

> <Gold.Protein.RotatedTorsions>
[ 6907 6896 6895 6894 ] final  -71.25 input  -60.11 | X-H torsion
[ 7974 7965 7964 7962 ] final -110.92 input  175.53 | X-H torsion
[ 8008 7997 7996 7995 ] final  -33.30 input   59.86 | X-H torsion
[ 10167 10162 10161 10158 ] final -116.94 input  -65.29 | X-H torsion
[ 10718 10713 10712 10709 ] final  151.42 input   66.30 | X-H torsion
[ 10763 10752 10751 10750 ] final -113.61 input  -60.55 | X-H torsion
[ 11005 11000 10999 10996 ] final  -51.27 input  -57.11 | X-H torsion

> <Gold.Protein.ActiveResidues>
 VAL166  LYS551  ARG553  GLY616  TRP617  ASP618  TYR619  PRO620  LYS621  CYS622 
 ASP623  PHE694  ASN695  SER759  ASP760  ASP761  ALA762  ILE779  LEU786  VAL792 
 PHE793  MET794  SER795  GLU796  ALA797  LYS798  CYS799  TRP800  GLU811  SER814 

> <Gold.Protein.RotatedAtoms>
  150.7221  134.5336  159.5712 H   0  0  0  0  0  0  0  0  0  0  0  0  # atno 6907 bound_to 6896
  152.2863  134.7769  160.0396 H   0  0  0  0  0  0  0  0  0  0  0  0  # atno 6908 bound_to 6896
  151.8398  133.3386  159.3676 H   0  0  0  0  0  0  0  0  0  0  0  0  # atno 6909 bound_to 6896
  145.1624  140.8885  143.3583 H   0  0  0  0  0  0  0  0  0  0  0  0  # atno 7974 bound_to 7965
  154.4153  140.1714  156.1866 H   0  0  0  0  0  0  0  0  0  0  0  0  # atno 8008 bound_to 7997
  155.9638  140.3391  155.6490 H   0  0  0  0  0  0  0  0  0  0  0  0  # atno 8009 bound_to 7997
  155.6714  140.0712  157.2509 H   0  0  0  0  0  0  0  0  0  0  0  0  # atno 8010 bound_to 7997
  140.0737  143.4853  152.1965 H   0  0  0  0  0  0  0  0  0  0  0  0  # atno 10167 bound_to 10162
  157.2709  131.0817  151.1600 H   0  0  0  0  0  0  0  0  0  0  0  0  # atno 10718 bound_to 10713
  154.8404  135.4448  154.1377 H   0  0  0  0  0  0  0  0  0  0  0  0  # atno 10763 bound_to 10752
  153.2570  135.6932  153.7624 H   0  0  0  0  0  0  0  0  0  0  0  0  # atno 10764 bound_to 10752
  153.6915  135.3386  155.3179 H   0  0  0  0  0  0  0  0  0  0  0  0  # atno 10765 bound_to 10752
  141.0862  133.6642  156.3853 H   0  0  0  0  0  0  0  0  0  0  0  0  # atno 11005 bound_to 11000
  145.0317  139.3335  143.6021 LP  0  0  0  0  0  0  0  0  0  0  0  0  # atno 17320 bound_to 7965
  146.3480  139.9657  142.8712 LP  0  0  0  0  0  0  0  0  0  0  0  0  # atno 17321 bound_to 7965
  139.5820  144.7515  151.3615 LP  0  0  0  0  0  0  0  0  0  0  0  0  # atno 17342 bound_to 10162
  140.7112  143.7384  150.7571 LP  0  0  0  0  0  0  0  0  0  0  0  0  # atno 17343 bound_to 10162
  157.3072  130.6872  149.6196 LP  0  0  0  0  0  0  0  0  0  0  0  0  # atno 17370 bound_to 10713
  155.9663  130.4374  150.5175 LP  0  0  0  0  0  0  0  0  0  0  0  0  # atno 17371 bound_to 10713
  140.5358  134.6169  157.5364 LP  0  0  0  0  0  0  0  0  0  0  0  0  # atno 17394 bound_to 11000
  139.9680  134.7340  156.0098 LP  0  0  0  0  0  0  0  0  0  0  0  0  # atno 17395 bound_to 11000

$$$$
