AV-unprocessed.smi:1240|AV-procd|sdf|5213|dock6
  -GOLD-   22720 4303D 1   1.00000     0.00000
 Structure written by MMmdl.
 48 50  0  0  0  0  0  0  0  0  4 V2000
  149.1783  137.1789  154.9087 O   0  0  0  0  0  0  0  0  0  0  0  0
  150.4064  137.0365  154.9008 C   0  0  0  0  0  0  0  0  0  0  0  0
  151.1078  135.8834  154.7365 N   0  5  0  0  0  0  0  0  0  0  0  0
  150.5889  134.6766  154.0927 C   0  0  0  0  0  0  0  0  0  0  0  0
  149.1860  134.2817  154.6766 C   0  0  2  0  0  0  0  0  0  0  0  0
  149.2558  133.1467  155.7478 C   0  0  1  0  0  0  0  0  0  0  0  0
  150.1470  131.9522  155.4167 C   0  0  0  0  0  0  0  0  0  0  0  0
  150.3849  131.3229  156.7851 C   0  0  0  0  0  0  0  0  0  0  0  0
  150.3351  132.3950  157.7188 O   0  0  0  0  0  0  0  0  0  0  0  0
  149.9070  133.5845  157.0668 C   0  0  0  0  0  0  0  0  0  0  0  0
  148.1273  133.9341  153.6607 N   0  3  0  0  0  0  0  0  0  0  0  0
  148.3874  132.7419  152.8125 C   0  0  0  0  0  0  0  0  0  0  0  0
  147.4238  132.7365  151.6151 C   0  0  0  0  0  0  0  0  0  0  0  0
  146.0789  132.7670  152.0805 O   0  0  0  0  0  0  0  0  0  0  0  0
  145.7950  133.9416  152.8325 C   0  0  0  0  0  0  0  0  0  0  0  0
  146.6978  133.9938  154.0757 C   0  0  0  0  0  0  0  0  0  0  0  0
  151.2123  138.0945  155.1012 N   0  0  0  0  0  0  0  0  0  0  0  0
  150.8643  139.4632  155.2553 C   0  0  0  0  0  0  0  0  0  0  0  0
  149.6882  139.9191  154.6199 C   0  0  0  0  0  0  0  0  0  0  0  0
  149.2956  141.2646  154.7696 C   0  0  0  0  0  0  0  0  0  0  0  0
  150.0364  142.1013  155.5280 N   0  3  0  0  0  0  0  0  0  0  0  0
  151.1577  141.7062  156.1689 C   0  0  0  0  0  0  0  0  0  0  0  0
  151.6005  140.3729  156.0555 C   0  0  0  0  0  0  0  0  0  0  0  0
  150.5021  134.7824  153.0106 H   0  0  0  0  0  0  0  0  0  0  0  0
  151.2792  133.8472  154.2432 H   0  0  0  0  0  0  0  0  0  0  0  0
  148.8135  135.1562  155.2127 H   0  0  0  0  0  0  0  0  0  0  0  0
  148.2553  132.7735  155.9767 H   0  0  0  0  0  0  0  0  0  0  0  0
  149.6937  131.2488  154.7175 H   0  0  0  0  0  0  0  0  0  0  0  0
  151.0940  132.2895  154.9923 H   0  0  0  0  0  0  0  0  0  0  0  0
  149.5869  130.6192  157.0243 H   0  0  0  0  0  0  0  0  0  0  0  0
  151.3346  130.7901  156.8380 H   0  0  0  0  0  0  0  0  0  0  0  0
  150.7842  134.2048  156.8767 H   0  0  0  0  0  0  0  0  0  0  0  0
  149.2266  134.1516  157.7026 H   0  0  0  0  0  0  0  0  0  0  0  0
  149.4173  132.7502  152.4548 H   0  0  0  0  0  0  0  0  0  0  0  0
  148.2503  131.8253  153.3860 H   0  0  0  0  0  0  0  0  0  0  0  0
  147.6133  133.5876  150.9587 H   0  0  0  0  0  0  0  0  0  0  0  0
  147.5710  131.8359  151.0190 H   0  0  0  0  0  0  0  0  0  0  0  0
  145.9363  134.8280  152.2119 H   0  0  0  0  0  0  0  0  0  0  0  0
  144.7464  133.9258  153.1300 H   0  0  0  0  0  0  0  0  0  0  0  0
  146.4545  133.1554  154.7300 H   0  0  0  0  0  0  0  0  0  0  0  0
  146.4990  134.9091  154.6328 H   0  0  0  0  0  0  0  0  0  0  0  0
  152.1935  137.8792  155.1996 H   0  0  0  0  0  0  0  0  0  0  0  0
  149.0948  139.2468  154.0173 H   0  0  0  0  0  0  0  0  0  0  0  0
  148.4160  141.6922  154.3113 H   0  0  0  0  0  0  0  0  0  0  0  0
  151.6603  142.4607  156.7559 H   0  0  0  0  0  0  0  0  0  0  0  0
  152.4857  140.0660  156.5921 H   0  0  0  0  0  0  0  0  0  0  0  0
  148.2132  134.6947  153.0028 H   0  0  0  0  0  0  0  0  0  0  0  0
  149.7334  143.0706  155.6256 H   0  0  0  0  0  0  0  0  0  0  0  0
  1  2  2  0  0  0  0
  2  3  1  0  0  0  0
  2 17  1  0  0  0  0
  3  4  1  0  0  0  0
  4  5  1  0  0  0  0
  4 24  1  0  0  0  0
  4 25  1  0  0  0  0
  5  6  1  0  0  0  0
  5 11  1  0  0  0  0
  5 26  1  0  0  0  0
  6 10  1  0  0  0  0
  6  7  1  0  0  0  0
  6 27  1  0  0  0  0
  7  8  1  0  0  0  0
  7 28  1  0  0  0  0
  7 29  1  0  0  0  0
  8  9  1  0  0  0  0
  8 30  1  0  0  0  0
  8 31  1  0  0  0  0
  9 10  1  0  0  0  0
 10 32  1  0  0  0  0
 10 33  1  0  0  0  0
 11 16  1  0  0  0  0
 11 12  1  0  0  0  0
 11 47  1  0  0  0  0
 12 13  1  0  0  0  0
 12 34  1  0  0  0  0
 12 35  1  0  0  0  0
 13 14  1  0  0  0  0
 13 36  1  0  0  0  0
 13 37  1  0  0  0  0
 14 15  1  0  0  0  0
 15 16  1  0  0  0  0
 15 38  1  0  0  0  0
 15 39  1  0  0  0  0
 16 40  1  0  0  0  0
 16 41  1  0  0  0  0
 17 18  1  0  0  0  0
 17 42  1  0  0  0  0
 18 23  1  0  0  0  0
 18 19  2  0  0  0  0
 19 20  1  0  0  0  0
 19 43  1  0  0  0  0
 20 21  2  0  0  0  0
 20 44  1  0  0  0  0
 21 22  1  0  0  0  0
 21 48  1  0  0  0  0
 22 23  2  0  0  0  0
 22 45  1  0  0  0  0
 23 46  1  0  0  0  0
M  CHG  1   3  -1
M  CHG  1  11   1
M  CHG  1  21   1
M  END
> <s_m_source_file>
AV-unprocessed.smi

> <i_m_source_file_index>
1240

> <i_lp_mmshare_version>
43012

> <i_f3d_flags>
0

> <s_epik_input>
W2NIXTFbY0hdbltjSF1bY0hdYzFbTkhdQyg9TylbTkhdW0NIMl1bQ0BIXShbQ0BASF0yW0NIMl1bQ0gyXU9bQ0gyXTIpTjNbQ0gyXVtDSDJdT1tDSDJdW0NIMl0z

> <s_epik_cmdline>
J2VwaWtfcHl0aG9uJywgJy1waCcsICc3LjAnLCAnLXRuJywgJzgnLCAnLW1hJywgJzIwMCcsICctbWV0YWxfYmluZGluZycsICctaW1hZScsICc8aW5maWxlLm1hZT4nLCAnLW9tYWUnLCAnPG91dGZpbGUubWFlPic=

> <r_epik_Ionization_Penalty>
8.41087

> <r_epik_Ionization_Penalty_Charging>
8.41087

> <r_epik_Ionization_Penalty_Neutral>
3.12936e-06

> <r_epik_State_Penalty>
8.81894

> <r_epik_Charging_Adjusted_Penalty>
17.2298

> <i_epik_Tot_Q>
1

> <i_epik_Tot_abs_Q>
3

> <r_epik_Metal_State_Penalty>
4.82983

> <b_epik_Metal_Only>
1

> <s_lp_Force_Field>
OPLS_2005

> <r_lp_Energy>
48.3521

> <b_lp_Chiralities_Consistent>
1

> <s_lp_Variant>
AV-unprocessed.smi:1240-19

> <Gold.Version>
5.8.1

> <Gold.Id.Protein>
6NUR|6NUR_protein|mol2

> <Gold.PLP.Fitness>
43.9839

> <Gold.PLP.PLP>
-26.7930

> <Gold.PLP.part.hbond>
-4.0000

> <Gold.PLP.part.metal>
0.0000

> <Gold.PLP.part.buried>
0.3453

> <Gold.PLP.part.nonpolar>
-23.8865

> <Gold.PLP.part.repulsive>
0.6844

> <Gold.PLP.ligand.clash>
0.0000

> <Gold.PLP.ligand.torsion>
1.4007

> <Gold.PLP.Chemscore.Hbond>
6.5000

> <Gold.PLP.Chemscore.CHOScore>
0.0000

> <Gold.PLP.Chemscore.Metal>
0.0000

> <Gold.Chemscore.Hbonds>
donor molecule, donor type, donor heavy atom, donor atom, acceptor molecule, acceptor atom, score
      L1  H    11    47       P1  7948  2.00
      L1  H    21    48       P1  8028  2.00
      P1  H  6896  6908       L1     9  0.70
      P1  H 10752 10764       L1     3  1.90

> <Gold.PLP.Chemscore.Internal.Correction>
0.4923

> <Gold.Rescore>
     Score         DG    S(hbond)    S(metal)    S(lipo)     H(rot)  DE(clash)    DE(int)     intcor
     12.67     -17.45       2.07        0.00      80.59       1.70       0.33       4.45       ----

> <Gold.Chemscore.Fitness>
12.6731

> <Gold.Chemscore.DG>
-17.4534

> <Gold.Chemscore.ZeroCoef>
-5.4800

> <Gold.Chemscore.Hbond>
2.0663

> <Gold.Chemscore.Metal>
0.0000

> <Gold.Chemscore.Lipo>
80.5944

> <Gold.Chemscore.Internal_Hbond>
0.0000

> <Gold.Chemscore.DEClash>
0.3294

> <Gold.Chemscore.DEInternal>
4.4509

> <Gold.Chemscore.Rot>
1.7021

> <Gold.Chemscore.Internal.Correction>
   9.000000E+99

> <Gold.Chemscore.Hbonds>
donor molecule, donor type, donor heavy atom, donor atom, acceptor molecule, acceptor atom, score
      L1  H    11    47       P1  7948  0.66
      L1  H    21    48       P1  8028  1.00
      P1  H  6896  6908       L1     9  0.07
      P1  H 10752 10764       L1     3  0.22

> <Gold.Chemscore.Hbond.Weighted>
-6.9013

> <Gold.Chemscore.Metal.Weighted>
-0.0000

> <Gold.Chemscore.Lipo.Weighted>
-9.4295

> <Gold.Chemscore.Internal_Hbond.Weighted>
0.0000

> <Gold.Chemscore.DEClash.Weighted>
0.3294

> <Gold.Chemscore.DEInternal.Weighted>
4.4509

> <Gold.Chemscore.Rot.Weighted>
4.3575

> <Gold.Chemscore.Internal.Correction.Weighted>
   9.000000E+99

> <Gold.Protein.RotatedTorsions>
[ 6907 6896 6895 6894 ] final   81.95 input  -60.11 | X-H torsion
[ 7974 7965 7964 7962 ] final   58.87 input  175.53 | X-H torsion
[ 8008 7997 7996 7995 ] final  171.06 input   59.86 | X-H torsion
[ 10167 10162 10161 10158 ] final  -65.25 input  -65.29 | X-H torsion
[ 10718 10713 10712 10709 ] final   99.07 input   66.30 | X-H torsion
[ 10763 10752 10751 10750 ] final  -66.33 input  -60.55 | X-H torsion
[ 11005 11000 10999 10996 ] final   21.21 input  -57.11 | X-H torsion

> <Gold.Protein.ActiveResidues>
 VAL166  LYS551  ARG553  GLY616  TRP617  ASP618  TYR619  PRO620  LYS621  CYS622 
 ASP623  PHE694  ASN695  SER759  ASP760  ASP761  ALA762  ILE779  LEU786  VAL792 
 PHE793  MET794  SER795  GLU796  ALA797  LYS798  CYS799  TRP800  GLU811  SER814 

> <Gold.Protein.RotatedAtoms>
  152.5284  134.3126  159.9118 H   0  0  0  0  0  0  0  0  0  0  0  0  # atno 6907 bound_to 6896
  151.3075  133.4088  159.2652 H   0  0  0  0  0  0  0  0  0  0  0  0  # atno 6908 bound_to 6896
  151.0066  134.9381  159.8041 H   0  0  0  0  0  0  0  0  0  0  0  0  # atno 6909 bound_to 6896
  145.9134  139.3672  143.0522 H   0  0  0  0  0  0  0  0  0  0  0  0  # atno 7974 bound_to 7965
  156.1307  140.1522  156.9070 H   0  0  0  0  0  0  0  0  0  0  0  0  # atno 8008 bound_to 7997
  154.4907  140.0852  156.7627 H   0  0  0  0  0  0  0  0  0  0  0  0  # atno 8009 bound_to 7997
  155.4261  140.3425  155.4278 H   0  0  0  0  0  0  0  0  0  0  0  0  # atno 8010 bound_to 7997
  140.5743  143.2320  151.6474 H   0  0  0  0  0  0  0  0  0  0  0  0  # atno 10167 bound_to 10162
  157.6883  131.0659  150.4893 H   0  0  0  0  0  0  0  0  0  0  0  0  # atno 10718 bound_to 10713
  154.3582  135.6122  153.5677 H   0  0  0  0  0  0  0  0  0  0  0  0  # atno 10763 bound_to 10752
  152.9795  135.5809  154.4664 H   0  0  0  0  0  0  0  0  0  0  0  0  # atno 10764 bound_to 10752
  154.4397  135.2850  155.1833 H   0  0  0  0  0  0  0  0  0  0  0  0  # atno 10765 bound_to 10752
  140.3941  134.1788  155.7663 H   0  0  0  0  0  0  0  0  0  0  0  0  # atno 11005 bound_to 11000
  145.8642  140.9457  143.0684 LP  0  0  0  0  0  0  0  0  0  0  0  0  # atno 17320 bound_to 7965
  144.6745  140.0570  143.7477 LP  0  0  0  0  0  0  0  0  0  0  0  0  # atno 17321 bound_to 7965
  139.5134  144.3443  152.0711 LP  0  0  0  0  0  0  0  0  0  0  0  0  # atno 17342 bound_to 10162
  140.2585  144.4093  150.6194 LP  0  0  0  0  0  0  0  0  0  0  0  0  # atno 17343 bound_to 10162
  156.5220  130.4164  149.6245 LP  0  0  0  0  0  0  0  0  0  0  0  0  # atno 17370 bound_to 10713
  156.3146  130.7247  151.2147 LP  0  0  0  0  0  0  0  0  0  0  0  0  # atno 17371 bound_to 10713
  141.1880  133.8268  157.1009 LP  0  0  0  0  0  0  0  0  0  0  0  0  # atno 17394 bound_to 11000
  140.0385  134.9866  157.0917 LP  0  0  0  0  0  0  0  0  0  0  0  0  # atno 17395 bound_to 11000

$$$$
