AV-unprocessed.smi:793|AV-procd|sdf|3753|dock4
  -GOLD-   22720 1183D 1   1.00000     0.00000
 Structure written by MMmdl.
 39 40  0  0  0  0  0  0  0  0  1 V2000
  150.2869  137.2974  156.1199 C   0  0  0  0  0  0  0  0  0  0  0  0
  150.5140  137.8735  154.7167 C   0  0  0  0  0  0  0  0  0  0  0  0
  150.3543  139.4047  154.6686 C   0  0  1  0  0  0  0  0  0  0  0  0
  149.0035  139.7132  155.0096 O   0  0  0  0  0  0  0  0  0  0  0  0
  148.1864  140.2267  153.9594 C   0  0  0  0  0  0  0  0  0  0  0  0
  148.0883  141.7526  154.0682 C   0  0  0  0  0  0  0  0  0  0  0  0
  147.0045  142.0287  155.1192 C   0  0  0  0  0  0  0  0  0  0  0  0
  146.2193  140.7199  155.2889 C   0  0  0  0  0  0  0  0  0  0  0  0
  146.7520  139.7662  154.2164 C   0  0  0  0  0  0  0  0  0  0  0  0
  151.3224  140.1024  155.6389 C   0  0  0  0  0  0  0  0  0  0  0  0
  152.5283  139.8700  155.5603 O   0  0  0  0  0  0  0  0  0  0  0  0
  150.7464  140.9321  156.5309 N   0  0  0  0  0  0  0  0  0  0  0  0
  151.3333  141.6926  157.5555 C   0  0  0  0  0  0  0  0  0  0  0  0
  151.2552  143.0415  157.6913 C   0  0  0  0  0  0  0  0  0  0  0  0
  151.8555  143.7501  158.7225 N   0  0  0  0  0  0  0  0  0  0  0  0
  152.5813  143.0578  159.6783 C   0  0  0  0  0  0  0  0  0  0  0  0
  152.7397  141.7199  159.6584 C   0  0  0  0  0  0  0  0  0  0  0  0
  152.1155  140.9329  158.5711 C   0  0  0  0  0  0  0  0  0  0  0  0
  152.2442  139.7097  158.5199 O   0  0  0  0  0  0  0  0  0  0  0  0
  150.3944  136.2126  156.1153 H   0  0  0  0  0  0  0  0  0  0  0  0
  149.2864  137.5311  156.4845 H   0  0  0  0  0  0  0  0  0  0  0  0
  151.0064  137.6996  156.8338 H   0  0  0  0  0  0  0  0  0  0  0  0
  151.5084  137.5898  154.3691 H   0  0  0  0  0  0  0  0  0  0  0  0
  149.8048  137.4077  154.0308 H   0  0  0  0  0  0  0  0  0  0  0  0
  150.5560  139.7383  153.6486 H   0  0  0  0  0  0  0  0  0  0  0  0
  148.5284  139.9018  152.9752 H   0  0  0  0  0  0  0  0  0  0  0  0
  149.0375  142.2278  154.3156 H   0  0  0  0  0  0  0  0  0  0  0  0
  147.7660  142.1584  153.1083 H   0  0  0  0  0  0  0  0  0  0  0  0
  147.4558  142.3189  156.0686 H   0  0  0  0  0  0  0  0  0  0  0  0
  146.3568  142.8470  154.8028 H   0  0  0  0  0  0  0  0  0  0  0  0
  146.4155  140.3043  156.2781 H   0  0  0  0  0  0  0  0  0  0  0  0
  145.1425  140.8676  155.2046 H   0  0  0  0  0  0  0  0  0  0  0  0
  146.1653  139.8831  153.3043 H   0  0  0  0  0  0  0  0  0  0  0  0
  146.6910  138.7191  154.5148 H   0  0  0  0  0  0  0  0  0  0  0  0
  149.7443  141.0345  156.4580 H   0  0  0  0  0  0  0  0  0  0  0  0
  150.7254  143.6889  157.0119 H   0  0  0  0  0  0  0  0  0  0  0  0
  153.0124  143.6841  160.4457 H   0  0  0  0  0  0  0  0  0  0  0  0
  153.3118  141.2078  160.4180 H   0  0  0  0  0  0  0  0  0  0  0  0
  151.7639  144.7549  158.7747 H   0  0  0  0  0  0  0  0  0  0  0  0
  1  2  1  0  0  0  0
  1 20  1  0  0  0  0
  1 21  1  0  0  0  0
  1 22  1  0  0  0  0
  2  3  1  0  0  0  0
  2 23  1  0  0  0  0
  2 24  1  0  0  0  0
  3  4  1  0  0  0  0
  3 10  1  0  0  0  0
  3 25  1  0  0  0  0
  4  5  1  0  0  0  0
  5  9  1  0  0  0  0
  5  6  1  0  0  0  0
  5 26  1  0  0  0  0
  6  7  1  0  0  0  0
  6 27  1  0  0  0  0
  6 28  1  0  0  0  0
  7  8  1  0  0  0  0
  7 29  1  0  0  0  0
  7 30  1  0  0  0  0
  8  9  1  0  0  0  0
  8 31  1  0  0  0  0
  8 32  1  0  0  0  0
  9 33  1  0  0  0  0
  9 34  1  0  0  0  0
 10 11  2  0  0  0  0
 10 12  1  0  0  0  0
 12 35  1  0  0  0  0
 12 13  1  0  0  0  0
 13 18  1  0  0  0  0
 13 14  2  0  0  0  0
 14 36  1  0  0  0  0
 14 15  1  0  0  0  0
 15 39  1  0  0  0  0
 15 16  1  0  0  0  0
 16 37  1  0  0  0  0
 16 17  2  0  0  0  0
 17 18  1  0  0  0  0
 17 38  1  0  0  0  0
 18 19  2  0  0  0  0
M  END
> <s_m_source_file>
AV-unprocessed.smi

> <i_m_source_file_index>
793

> <i_lp_mmshare_version>
43012

> <i_f3d_flags>
0

> <s_epik_input>
W0NIMl0xW0NIMl1bQ0gyXVtDSDJdW0NIXTFPW0NAQEhdKFtDSDJdW0NIM10pQyg9TylbTkhdYzJbY0hdbltjSF1bY0hdYzJbT0hd

> <s_epik_cmdline>
J2VwaWtfcHl0aG9uJywgJy1waCcsICc3LjAnLCAnLXRuJywgJzgnLCAnLW1hJywgJzIwMCcsICctbWV0YWxfYmluZGluZycsICctaW1hZScsICc8aW5maWxlLm1hZT4nLCAnLW9tYWUnLCAnPG91dGZpbGUubWFlPic=

> <r_lp_tautomer_probability>
1

> <r_epik_Ionization_Penalty>
0.000234492

> <r_epik_Ionization_Penalty_Charging>
0.000234447

> <r_epik_Ionization_Penalty_Neutral>
4.48517e-08

> <r_epik_State_Penalty>
-0

> <r_epik_Charging_Adjusted_Penalty>
0.000234447

> <i_epik_Tot_Q>
0

> <i_epik_Tot_abs_Q>
0

> <r_epik_Metal_State_Penalty>
0.110344

> <b_epik_Metal_Only>
0

> <s_lp_Force_Field>
OPLS_2005

> <r_lp_Energy>
26.0672

> <b_lp_Chiralities_Consistent>
1

> <s_lp_Variant>
AV-unprocessed.smi:793-2

> <Gold.Version>
5.8.1

> <Gold.Id.Protein>
6NUR|6NUR_protein|mol2

> <Gold.PLP.Fitness>
36.5644

> <Gold.PLP.PLP>
-34.0385

> <Gold.PLP.part.hbond>
-1.5503

> <Gold.PLP.part.metal>
0.0000

> <Gold.PLP.part.buried>
-3.1660

> <Gold.PLP.part.nonpolar>
-29.0833

> <Gold.PLP.part.repulsive>
0.1756

> <Gold.PLP.ligand.clash>
0.0000

> <Gold.PLP.ligand.torsion>
1.7943

> <Gold.PLP.Chemscore.Hbond>
1.0000

> <Gold.PLP.Chemscore.CHOScore>
1.0000

> <Gold.PLP.Chemscore.Metal>
0.0000

> <Gold.Chemscore.Hbonds>
donor molecule, donor type, donor heavy atom, donor atom, acceptor molecule, acceptor atom, score
      P1  H  7997  8010       L1    11  1.00
      L1  C    14    36       P1  8028  1.00

> <Gold.PLP.Chemscore.Internal.Correction>
0.1146

> <Gold.Rescore>
     Score         DG    S(hbond)    S(metal)    S(lipo)     H(rot)  DE(clash)    DE(int)     intcor
     12.39     -14.44       1.00        0.00      83.28       1.61       0.04       2.02       ----

> <Gold.Chemscore.Fitness>
12.3868

> <Gold.Chemscore.DG>
-14.4442

> <Gold.Chemscore.ZeroCoef>
-5.4800

> <Gold.Chemscore.Hbond>
0.9975

> <Gold.Chemscore.Metal>
0.0000

> <Gold.Chemscore.Lipo>
83.2825

> <Gold.Chemscore.Internal_Hbond>
0.0000

> <Gold.Chemscore.DEClash>
0.0386

> <Gold.Chemscore.DEInternal>
2.0188

> <Gold.Chemscore.Rot>
1.6061

> <Gold.Chemscore.Internal.Correction>
   9.000000E+99

> <Gold.Chemscore.Hbonds>
donor molecule, donor type, donor heavy atom, donor atom, acceptor molecule, acceptor atom, score
      P1  H  7997  8010       L1    11  0.97

> <Gold.Chemscore.Hbond.Weighted>
-3.3318

> <Gold.Chemscore.Metal.Weighted>
-0.0000

> <Gold.Chemscore.Lipo.Weighted>
-9.7440

> <Gold.Chemscore.Internal_Hbond.Weighted>
0.0000

> <Gold.Chemscore.DEClash.Weighted>
0.0386

> <Gold.Chemscore.DEInternal.Weighted>
2.0188

> <Gold.Chemscore.Rot.Weighted>
4.1116

> <Gold.Chemscore.Internal.Correction.Weighted>
   9.000000E+99

> <Gold.Protein.RotatedTorsions>
[ 6907 6896 6895 6894 ] final  -45.76 input  -60.11 | X-H torsion
[ 7974 7965 7964 7962 ] final -173.38 input  175.53 | X-H torsion
[ 8008 7997 7996 7995 ] final  103.90 input   59.86 | X-H torsion
[ 10167 10162 10161 10158 ] final  133.89 input  -65.29 | X-H torsion
[ 10718 10713 10712 10709 ] final  168.27 input   66.30 | X-H torsion
[ 10763 10752 10751 10750 ] final   31.67 input  -60.55 | X-H torsion
[ 11005 11000 10999 10996 ] final   61.78 input  -57.11 | X-H torsion

> <Gold.Protein.ActiveResidues>
 VAL166  LYS551  ARG553  GLY616  TRP617  ASP618  TYR619  PRO620  LYS621  CYS622 
 ASP623  PHE694  ASN695  SER759  ASP760  ASP761  ALA762  ILE779  LEU786  VAL792 
 PHE793  MET794  SER795  GLU796  ALA797  LYS798  CYS799  TRP800  GLU811  SER814 

> <Gold.Protein.RotatedAtoms>
  150.9185  134.8602  159.7472 H   0  0  0  0  0  0  0  0  0  0  0  0  # atno 6907 bound_to 6896
  152.4980  134.4254  159.9504 H   0  0  0  0  0  0  0  0  0  0  0  0  # atno 6908 bound_to 6896
  151.4290  133.3636  159.2801 H   0  0  0  0  0  0  0  0  0  0  0  0  # atno 6909 bound_to 6896
  144.7138  140.1631  143.6374 H   0  0  0  0  0  0  0  0  0  0  0  0  # atno 7974 bound_to 7965
  156.1525  140.3157  155.8672 H   0  0  0  0  0  0  0  0  0  0  0  0  # atno 8008 bound_to 7997
  155.3942  140.0495  157.3056 H   0  0  0  0  0  0  0  0  0  0  0  0  # atno 8009 bound_to 7997
  154.5071  140.2151  155.9240 H   0  0  0  0  0  0  0  0  0  0  0  0  # atno 8010 bound_to 7997
  139.5278  144.6594  151.5061 H   0  0  0  0  0  0  0  0  0  0  0  0  # atno 10167 bound_to 10162
  157.0396  131.0282  151.2718 H   0  0  0  0  0  0  0  0  0  0  0  0  # atno 10718 bound_to 10713
  153.0303  135.6433  154.1235 H   0  0  0  0  0  0  0  0  0  0  0  0  # atno 10763 bound_to 10752
  154.0958  135.2863  155.3263 H   0  0  0  0  0  0  0  0  0  0  0  0  # atno 10764 bound_to 10752
  154.6433  135.5452  153.7878 H   0  0  0  0  0  0  0  0  0  0  0  0  # atno 10765 bound_to 10752
  140.0138  134.6256  155.9741 H   0  0  0  0  0  0  0  0  0  0  0  0  # atno 11005 bound_to 11000
  145.9012  139.2432  143.1492 LP  0  0  0  0  0  0  0  0  0  0  0  0  # atno 17320 bound_to 7965
  145.9808  140.8684  143.0115 LP  0  0  0  0  0  0  0  0  0  0  0  0  # atno 17321 bound_to 7965
  140.6435  143.8842  150.6714 LP  0  0  0  0  0  0  0  0  0  0  0  0  # atno 17342 bound_to 10162
  140.2184  143.3828  152.1663 LP  0  0  0  0  0  0  0  0  0  0  0  0  # atno 17343 bound_to 10162
  157.5115  130.7941  149.7710 LP  0  0  0  0  0  0  0  0  0  0  0  0  # atno 17370 bound_to 10713
  156.0042  130.3864  150.2491 LP  0  0  0  0  0  0  0  0  0  0  0  0  # atno 17371 bound_to 10713
  141.1729  133.6538  156.4718 LP  0  0  0  0  0  0  0  0  0  0  0  0  # atno 17394 bound_to 11000
  140.4508  134.6931  157.5038 LP  0  0  0  0  0  0  0  0  0  0  0  0  # atno 17395 bound_to 11000

$$$$
