AV-unprocessed.smi:2624|AV-procd|sdf|10234|dock10
  -GOLD-   2272014243D 1   1.00000     0.00000
 Structure written by MMmdl.
 38 39  0  0  0  0  0  0  0  0  2 V2000
  147.7505  142.0054  153.7704 C   0  0  0  0  0  0  0  0  0  0  0  0
  149.0641  141.4981  153.9265 O   0  0  0  0  0  0  0  0  0  0  0  0
  149.2103  140.7230  155.1042 C   0  0  0  0  0  0  0  0  0  0  0  0
  150.6993  140.4059  155.3071 C   0  0  0  0  0  0  0  0  0  0  0  0
  150.9440  139.7973  156.6215 N   0  0  0  0  0  0  0  0  0  0  0  0
  152.0018  140.3317  157.3817 C   0  0  0  0  0  0  0  0  0  0  0  0
  152.3194  139.8592  158.6018 C   0  0  0  0  0  0  0  0  0  0  0  0
  153.4465  140.4481  159.3651 C   0  0  0  0  0  0  0  0  0  0  0  0
  154.5813  139.9743  159.2881 O   0  0  0  0  0  0  0  0  0  0  0  0
  153.1677  141.6501  160.2081 C   0  0  0  0  0  0  0  0  0  0  0  0
  152.3661  142.6876  159.6756 C   0  0  0  0  0  0  0  0  0  0  0  0
  152.0857  143.8452  160.4278 C   0  0  0  0  0  0  0  0  0  0  0  0
  151.2278  144.9415  159.8308 C   0  0  0  0  0  0  0  0  0  0  0  0
  152.6069  143.9745  161.7293 C   0  0  0  0  0  0  0  0  0  0  0  0
  153.4020  142.9492  162.2729 C   0  0  0  0  0  0  0  0  0  0  0  0
  153.6864  141.7891  161.5240 C   0  0  0  0  0  0  0  0  0  0  0  0
  154.4467  140.8167  162.1142 O   0  5  0  0  0  0  0  0  0  0  0  0
  151.5383  138.7519  159.1184 C   0  0  0  0  0  0  0  0  0  0  0  0
  150.5318  138.2287  158.3907 C   0  0  0  0  0  0  0  0  0  0  0  0
  149.7577  137.1342  158.8751 C   0  0  0  0  0  0  0  0  0  0  0  0
  149.1454  136.2327  159.2655 N   0  0  0  0  0  0  0  0  0  0  0  0
  150.1832  138.7495  157.0613 C   0  0  0  0  0  0  0  0  0  0  0  0
  149.2708  138.2777  156.3805 O   0  0  0  0  0  0  0  0  0  0  0  0
  147.6920  142.5948  152.8555 H   0  0  0  0  0  0  0  0  0  0  0  0
  147.4753  142.6515  154.6050 H   0  0  0  0  0  0  0  0  0  0  0  0
  147.0215  141.1974  153.6972 H   0  0  0  0  0  0  0  0  0  0  0  0
  148.8191  141.2734  155.9614 H   0  0  0  0  0  0  0  0  0  0  0  0
  148.6373  139.7984  155.0155 H   0  0  0  0  0  0  0  0  0  0  0  0
  151.0400  139.7378  154.5147 H   0  0  0  0  0  0  0  0  0  0  0  0
  151.2933  141.3132  155.1848 H   0  0  0  0  0  0  0  0  0  0  0  0
  152.5313  141.1454  156.9057 H   0  0  0  0  0  0  0  0  0  0  0  0
  151.9664  142.6048  158.6750 H   0  0  0  0  0  0  0  0  0  0  0  0
  151.1224  145.7825  160.5168 H   0  0  0  0  0  0  0  0  0  0  0  0
  150.2325  144.5593  159.6037 H   0  0  0  0  0  0  0  0  0  0  0  0
  151.6743  145.3097  158.9068 H   0  0  0  0  0  0  0  0  0  0  0  0
  152.3995  144.8566  162.3168 H   0  0  0  0  0  0  0  0  0  0  0  0
  153.7926  143.0543  163.2747 H   0  0  0  0  0  0  0  0  0  0  0  0
  151.7652  138.3260  160.0855 H   0  0  0  0  0  0  0  0  0  0  0  0
  1  2  1  0  0  0  0
  1 24  1  0  0  0  0
  1 25  1  0  0  0  0
  1 26  1  0  0  0  0
  2  3  1  0  0  0  0
  3  4  1  0  0  0  0
  3 27  1  0  0  0  0
  3 28  1  0  0  0  0
  4  5  1  0  0  0  0
  4 29  1  0  0  0  0
  4 30  1  0  0  0  0
  5 22  1  0  0  0  0
  5  6  1  0  0  0  0
  6  7  2  0  0  0  0
  6 31  1  0  0  0  0
  7  8  1  0  0  0  0
  7 18  1  0  0  0  0
  8  9  2  0  0  0  0
  8 10  1  0  0  0  0
 10 16  1  0  0  0  0
 10 11  2  0  0  0  0
 11 12  1  0  0  0  0
 11 32  1  0  0  0  0
 12 13  1  0  0  0  0
 12 14  2  0  0  0  0
 13 33  1  0  0  0  0
 13 34  1  0  0  0  0
 13 35  1  0  0  0  0
 14 15  1  0  0  0  0
 14 36  1  0  0  0  0
 15 16  2  0  0  0  0
 15 37  1  0  0  0  0
 16 17  1  0  0  0  0
 18 19  2  0  0  0  0
 18 38  1  0  0  0  0
 19 20  1  0  0  0  0
 19 22  1  0  0  0  0
 20 21  3  0  0  0  0
 22 23  2  0  0  0  0
M  CHG  1  17  -1
M  END
> <s_m_source_file>
AV-unprocessed.smi

> <i_m_source_file_index>
2624

> <i_lp_mmshare_version>
43012

> <i_f3d_flags>
0

> <s_epik_input>
W0NIM11PW0NIMl1bQ0gyXW4xW2NIXWMoW2NIXWMoQyNOKWMxPU8pQyg9TyljMltjSF1jKFtDSDNdKVtjSF1bY0hdYzJbT0hd

> <s_epik_cmdline>
J2VwaWtfcHl0aG9uJywgJy1waCcsICc3LjAnLCAnLXRuJywgJzgnLCAnLW1hJywgJzIwMCcsICctbWV0YWxfYmluZGluZycsICctaW1hZScsICc8aW5maWxlLm1hZT4nLCAnLW9tYWUnLCAnPG91dGZpbGUubWFlPic=

> <r_epik_Ionization_Penalty>
0.985482

> <r_epik_Ionization_Penalty_Charging>
0.985482

> <r_epik_Ionization_Penalty_Neutral>
1.08437e-11

> <r_epik_State_Penalty>
1.03272

> <r_epik_Charging_Adjusted_Penalty>
2.0182

> <i_epik_Tot_Q>
-1

> <i_epik_Tot_abs_Q>
1

> <r_epik_Metal_State_Penalty>
1.03272

> <b_epik_Metal_Only>
0

> <s_lp_Force_Field>
OPLS_2005

> <r_lp_Energy>
23.2451

> <b_lp_Chiralities_Consistent>
1

> <s_lp_Variant>
AV-unprocessed.smi:2624-2

> <Gold.Version>
5.8.1

> <Gold.Id.Protein>
6NUR|6NUR_protein|mol2

> <Gold.PLP.Fitness>
53.6847

> <Gold.PLP.PLP>
-48.8895

> <Gold.PLP.part.hbond>
-3.5886

> <Gold.PLP.part.metal>
0.0000

> <Gold.PLP.part.buried>
-5.1393

> <Gold.PLP.part.nonpolar>
-38.5437

> <Gold.PLP.part.repulsive>
0.1909

> <Gold.PLP.ligand.clash>
0.0000

> <Gold.PLP.ligand.torsion>
2.3855

> <Gold.PLP.Chemscore.Hbond>
2.6177

> <Gold.PLP.Chemscore.CHOScore>
0.0000

> <Gold.PLP.Chemscore.Metal>
0.0000

> <Gold.Chemscore.Hbonds>
donor molecule, donor type, donor heavy atom, donor atom, acceptor molecule, acceptor atom, score
      P1  H  6896  6907       L1    21  0.34
      P1  H  7997  8009       L1     9  1.00
      P1  H  8011  8017       L1     2  0.53

> <Gold.PLP.Chemscore.Internal.Correction>
1.7130

> <Gold.Rescore>
     Score         DG    S(hbond)    S(metal)    S(lipo)     H(rot)  DE(clash)    DE(int)     intcor
     16.19     -21.38       1.71        0.00     117.82       1.41       0.33       4.85       ----

> <Gold.Chemscore.Fitness>
16.1946

> <Gold.Chemscore.DG>
-21.3757

> <Gold.Chemscore.ZeroCoef>
-5.4800

> <Gold.Chemscore.Hbond>
1.7104

> <Gold.Chemscore.Metal>
0.0000

> <Gold.Chemscore.Lipo>
117.8217

> <Gold.Chemscore.Internal_Hbond>
0.0000

> <Gold.Chemscore.DEClash>
0.3350

> <Gold.Chemscore.DEInternal>
4.8461

> <Gold.Chemscore.Rot>
1.4071

> <Gold.Chemscore.Internal.Correction>
   9.000000E+99

> <Gold.Chemscore.Hbonds>
donor molecule, donor type, donor heavy atom, donor atom, acceptor molecule, acceptor atom, score
      P1  H  6896  6907       L1    21  0.17
      P1  H  7997  8009       L1     9  0.64
      P1  H  8011  8017       L1     2  0.06

> <Gold.Chemscore.Hbond.Weighted>
-5.7127

> <Gold.Chemscore.Metal.Weighted>
-0.0000

> <Gold.Chemscore.Lipo.Weighted>
-13.7851

> <Gold.Chemscore.Internal_Hbond.Weighted>
0.0000

> <Gold.Chemscore.DEClash.Weighted>
0.3350

> <Gold.Chemscore.DEInternal.Weighted>
4.8461

> <Gold.Chemscore.Rot.Weighted>
3.6022

> <Gold.Chemscore.Internal.Correction.Weighted>
   9.000000E+99

> <Gold.Protein.RotatedTorsions>
[ 6907 6896 6895 6894 ] final  -75.05 input  -60.11 | X-H torsion
[ 7974 7965 7964 7962 ] final  -31.38 input  175.53 | X-H torsion
[ 8008 7997 7996 7995 ] final  115.13 input   59.86 | X-H torsion
[ 10167 10162 10161 10158 ] final -176.87 input  -65.29 | X-H torsion
[ 10718 10713 10712 10709 ] final   48.74 input   66.30 | X-H torsion
[ 10763 10752 10751 10750 ] final   97.76 input  -60.55 | X-H torsion
[ 11005 11000 10999 10996 ] final  -90.69 input  -57.11 | X-H torsion

> <Gold.Protein.ActiveResidues>
 VAL166  LYS551  ARG553  GLY616  TRP617  ASP618  TYR619  PRO620  LYS621  CYS622 
 ASP623  PHE694  ASN695  SER759  ASP760  ASP761  ALA762  ILE779  LEU786  VAL792 
 PHE793  MET794  SER795  GLU796  ALA797  LYS798  CYS799  TRP800  GLU811  SER814 

> <Gold.Protein.RotatedAtoms>
  150.7072  134.4778  159.5455 H   0  0  0  0  0  0  0  0  0  0  0  0  # atno 6907 bound_to 6896
  152.2422  134.8214  160.0468 H   0  0  0  0  0  0  0  0  0  0  0  0  # atno 6908 bound_to 6896
  151.8992  133.3499  159.3862 H   0  0  0  0  0  0  0  0  0  0  0  0  # atno 6909 bound_to 6896
  146.1072  140.5660  142.8794 H   0  0  0  0  0  0  0  0  0  0  0  0  # atno 7974 bound_to 7965
  156.2363  140.2945  156.0321 H   0  0  0  0  0  0  0  0  0  0  0  0  # atno 8008 bound_to 7997
  155.2082  140.0411  157.2946 H   0  0  0  0  0  0  0  0  0  0  0  0  # atno 8009 bound_to 7997
  154.6085  140.2445  155.7707 H   0  0  0  0  0  0  0  0  0  0  0  0  # atno 8010 bound_to 7997
  139.5508  144.2114  152.1073 H   0  0  0  0  0  0  0  0  0  0  0  0  # atno 10167 bound_to 10162
  157.4716  130.8259  149.7994 H   0  0  0  0  0  0  0  0  0  0  0  0  # atno 10718 bound_to 10713
  153.2808  135.4172  155.1077 H   0  0  0  0  0  0  0  0  0  0  0  0  # atno 10763 bound_to 10752
  154.8488  135.3495  154.6115 H   0  0  0  0  0  0  0  0  0  0  0  0  # atno 10764 bound_to 10752
  153.6535  135.7051  153.5258 H   0  0  0  0  0  0  0  0  0  0  0  0  # atno 10765 bound_to 10752
  141.1560  133.7708  156.9774 H   0  0  0  0  0  0  0  0  0  0  0  0  # atno 11005 bound_to 11000
  144.7480  140.5119  143.6822 LP  0  0  0  0  0  0  0  0  0  0  0  0  # atno 17320 bound_to 7965
  145.5738  139.1485  143.3274 LP  0  0  0  0  0  0  0  0  0  0  0  0  # atno 17321 bound_to 7965
  140.1609  144.5027  150.6633 LP  0  0  0  0  0  0  0  0  0  0  0  0  # atno 17342 bound_to 10162
  140.6770  143.2309  151.5482 LP  0  0  0  0  0  0  0  0  0  0  0  0  # atno 17343 bound_to 10162
  156.0076  130.3848  150.2375 LP  0  0  0  0  0  0  0  0  0  0  0  0  # atno 17370 bound_to 10713
  157.0558  131.0075  151.3239 LP  0  0  0  0  0  0  0  0  0  0  0  0  # atno 17371 bound_to 10713
  140.1089  134.9489  157.2035 LP  0  0  0  0  0  0  0  0  0  0  0  0  # atno 17394 bound_to 11000
  140.3220  134.2906  155.7244 LP  0  0  0  0  0  0  0  0  0  0  0  0  # atno 17395 bound_to 11000

$$$$
