AV-unprocessed.smi:3331|AV-procd|sdf|12818|dock7
  -GOLD-   2272019193D 1   1.00000     0.00000
 Structure written by MMmdl.
 47 48  0  0  0  0  0  0  0  0  2 V2000
  146.6906  141.3058  153.5768 C   0  0  0  0  0  0  0  0  0  0  0  0
  147.6839  140.5034  154.4287 C   0  0  2  0  0  0  0  0  0  0  0  0
  148.8510  141.3882  154.9234 C   0  0  0  0  0  0  0  0  0  0  0  0
  149.9342  140.5760  155.6692 C   0  0  2  0  0  0  0  0  0  0  0  0
  151.1399  141.4504  156.0389 C   0  0  0  0  0  0  0  0  0  0  0  0
  150.3511  139.3587  154.8192 C   0  0  0  0  0  0  0  0  0  0  0  0
  149.1544  138.5538  154.5442 N   0  0  0  0  0  0  0  0  0  0  0  0
  148.8290  137.3745  155.1309 C   0  0  0  0  0  0  0  0  0  0  0  0
  149.5607  136.8369  155.9645 O   0  0  0  0  0  0  0  0  0  0  0  0
  147.5092  136.6639  154.7614 C   0  0  2  0  0  0  0  0  0  0  0  0
  146.7335  136.2929  156.0357 C   0  0  0  0  0  0  0  0  0  0  0  0
  147.7493  135.4428  153.9567 N   0  3  0  0  0  0  0  0  0  0  0  0
  146.5275  134.7361  153.5156 C   0  0  0  0  0  0  0  0  0  0  0  0
  146.8790  133.5017  152.6738 C   0  0  0  0  0  0  0  0  0  0  0  0
  145.7569  133.0672  151.8645 N   0  0  0  0  0  0  0  0  0  0  0  0
  145.7252  132.0842  150.8977 C   0  0  0  0  0  0  0  0  0  0  0  0
  144.4498  132.0335  150.4126 C   0  0  0  0  0  0  0  0  0  0  0  0
  143.7646  133.0342  151.1568 C   0  0  0  0  0  0  0  0  0  0  0  0
  144.5497  133.6505  152.0261 N   0  0  0  0  0  0  0  0  0  0  0  0
  148.2270  139.2765  153.6650 C   0  0  0  0  0  0  0  0  0  0  0  0
  147.1648  141.6955  152.6756 H   0  0  0  0  0  0  0  0  0  0  0  0
  146.2893  142.1521  154.1348 H   0  0  0  0  0  0  0  0  0  0  0  0
  145.8485  140.6856  153.2685 H   0  0  0  0  0  0  0  0  0  0  0  0
  147.1446  140.1402  155.3050 H   0  0  0  0  0  0  0  0  0  0  0  0
  149.3073  141.8863  154.0666 H   0  0  0  0  0  0  0  0  0  0  0  0
  148.4690  142.1800  155.5690 H   0  0  0  0  0  0  0  0  0  0  0  0
  149.4997  140.2061  156.5994 H   0  0  0  0  0  0  0  0  0  0  0  0
  151.6264  141.8517  155.1494 H   0  0  0  0  0  0  0  0  0  0  0  0
  151.8827  140.8794  156.5966 H   0  0  0  0  0  0  0  0  0  0  0  0
  150.8366  142.2928  156.6615 H   0  0  0  0  0  0  0  0  0  0  0  0
  150.7797  139.6965  153.8741 H   0  0  0  0  0  0  0  0  0  0  0  0
  151.1524  138.8023  155.3012 H   0  0  0  0  0  0  0  0  0  0  0  0
  146.8864  137.3119  154.1457 H   0  0  0  0  0  0  0  0  0  0  0  0
  146.5307  137.1684  156.6533 H   0  0  0  0  0  0  0  0  0  0  0  0
  147.2871  135.5792  156.6475 H   0  0  0  0  0  0  0  0  0  0  0  0
  145.7721  135.8411  155.7894 H   0  0  0  0  0  0  0  0  0  0  0  0
  148.2959  135.6972  153.1459 H   0  0  0  0  0  0  0  0  0  0  0  0
  145.9515  134.4394  154.3933 H   0  0  0  0  0  0  0  0  0  0  0  0
  145.8996  135.4111  152.9328 H   0  0  0  0  0  0  0  0  0  0  0  0
  147.7191  133.7202  152.0131 H   0  0  0  0  0  0  0  0  0  0  0  0
  147.1849  132.6732  153.3143 H   0  0  0  0  0  0  0  0  0  0  0  0
  146.6019  131.5097  150.6370 H   0  0  0  0  0  0  0  0  0  0  0  0
  144.0643  131.3801  149.6437 H   0  0  0  0  0  0  0  0  0  0  0  0
  142.7275  133.3286  151.0912 H   0  0  0  0  0  0  0  0  0  0  0  0
  147.4009  138.6529  153.3201 H   0  0  0  0  0  0  0  0  0  0  0  0
  148.7513  139.5924  152.7618 H   0  0  0  0  0  0  0  0  0  0  0  0
  148.2863  134.7989  154.5196 H   0  0  0  0  0  0  0  0  0  0  0  0
  1  2  1  0  0  0  0
  1 21  1  0  0  0  0
  1 22  1  0  0  0  0
  1 23  1  0  0  0  0
  2 20  1  0  0  0  0
  2  3  1  0  0  0  0
  2 24  1  0  0  0  0
  3  4  1  0  0  0  0
  3 25  1  0  0  0  0
  3 26  1  0  0  0  0
  4  5  1  0  0  0  0
  4  6  1  0  0  0  0
  4 27  1  0  0  0  0
  5 28  1  0  0  0  0
  5 29  1  0  0  0  0
  5 30  1  0  0  0  0
  6  7  1  0  0  0  0
  6 31  1  0  0  0  0
  6 32  1  0  0  0  0
  7  8  1  0  0  0  0
  7 20  1  0  0  0  0
  8  9  2  0  0  0  0
  8 10  1  0  0  0  0
 10 11  1  0  0  0  0
 10 12  1  0  0  0  0
 10 33  1  0  0  0  0
 11 34  1  0  0  0  0
 11 35  1  0  0  0  0
 11 36  1  0  0  0  0
 12 13  1  0  0  0  0
 12 37  1  0  0  0  0
 12 47  1  0  0  0  0
 13 14  1  0  0  0  0
 13 38  1  0  0  0  0
 13 39  1  0  0  0  0
 14 15  1  0  0  0  0
 14 40  1  0  0  0  0
 14 41  1  0  0  0  0
 15 19  1  0  0  0  0
 15 16  1  0  0  0  0
 16 17  2  0  0  0  0
 16 42  1  0  0  0  0
 17 18  1  0  0  0  0
 17 43  1  0  0  0  0
 18 19  2  0  0  0  0
 18 44  1  0  0  0  0
 20 45  1  0  0  0  0
 20 46  1  0  0  0  0
M  CHG  1  12   1
M  END
> <s_m_source_file>
AV-unprocessed.smi

> <i_m_source_file_index>
3331

> <i_lp_mmshare_version>
43012

> <i_f3d_flags>
0

> <s_epik_input>
W0NIM11bQ0BASF0xW0NIMl1bQ0BASF0oW0NIM10pW0NIMl1OKFtDSDJdMSlDKD1PKVtDQEhdKFtDSDNdKVtOSF1bQ0gyXVtDSDJdbjJbY0hdW2NIXVtjSF1uMg==

> <s_epik_cmdline>
J2VwaWtfcHl0aG9uJywgJy1waCcsICc3LjAnLCAnLXRuJywgJzgnLCAnLW1hJywgJzIwMCcsICctbWV0YWxfYmluZGluZycsICctaW1hZScsICc8aW5maWxlLm1hZT4nLCAnLW9tYWUnLCAnPG91dGZpbGUubWFlPic=

> <r_lp_tautomer_probability>
1

> <r_epik_Ionization_Penalty>
0.189706

> <r_epik_Ionization_Penalty_Charging>
0.189703

> <r_epik_Ionization_Penalty_Neutral>
2.45875e-06

> <r_epik_State_Penalty>
0.179341

> <r_epik_Charging_Adjusted_Penalty>
0.369044

> <i_epik_Tot_Q>
1

> <i_epik_Tot_abs_Q>
1

> <r_epik_Metal_State_Penalty>
0.179578

> <b_epik_Metal_Only>
0

> <s_lp_Force_Field>
OPLS_2005

> <r_lp_Energy>
26.1648

> <b_lp_Chiralities_Consistent>
1

> <s_lp_Variant>
AV-unprocessed.smi:3331-2

> <Gold.Version>
5.8.1

> <Gold.Id.Protein>
6NUR|6NUR_protein|mol2

> <Gold.PLP.Fitness>
42.5149

> <Gold.PLP.PLP>
-31.1523

> <Gold.PLP.part.hbond>
-1.0000

> <Gold.PLP.part.metal>
0.0000

> <Gold.PLP.part.buried>
-3.6063

> <Gold.PLP.part.nonpolar>
-27.2938

> <Gold.PLP.part.repulsive>
0.1440

> <Gold.PLP.ligand.clash>
0.0000

> <Gold.PLP.ligand.torsion>
0.3554

> <Gold.PLP.Chemscore.Hbond>
2.0000

> <Gold.PLP.Chemscore.CHOScore>
2.0000

> <Gold.PLP.Chemscore.Metal>
0.0000

> <Gold.Chemscore.Hbonds>
donor molecule, donor type, donor heavy atom, donor atom, acceptor molecule, acceptor atom, score
      L1  H    12    37       P1  7948  1.98
      L1  C    16    42       P1 10747  1.00
      L1  C    18    44       P1 10186  0.96

> <Gold.PLP.Chemscore.Internal.Correction>
0.0734

> <Gold.Rescore>
     Score         DG    S(hbond)    S(metal)    S(lipo)     H(rot)  DE(clash)    DE(int)     intcor
     13.39     -13.82       0.99        0.00      80.74       1.73       0.15       0.29       ----

> <Gold.Chemscore.Fitness>
13.3905

> <Gold.Chemscore.DG>
-13.8236

> <Gold.Chemscore.ZeroCoef>
-5.4800

> <Gold.Chemscore.Hbond>
0.9922

> <Gold.Chemscore.Metal>
0.0000

> <Gold.Chemscore.Lipo>
80.7401

> <Gold.Chemscore.Internal_Hbond>
0.0000

> <Gold.Chemscore.DEClash>
0.1461

> <Gold.Chemscore.DEInternal>
0.2870

> <Gold.Chemscore.Rot>
1.7254

> <Gold.Chemscore.Internal.Correction>
   9.000000E+99

> <Gold.Chemscore.Hbonds>
donor molecule, donor type, donor heavy atom, donor atom, acceptor molecule, acceptor atom, score
      L1  H    12    37       P1  7948  0.92

> <Gold.Chemscore.Hbond.Weighted>
-3.3141

> <Gold.Chemscore.Metal.Weighted>
-0.0000

> <Gold.Chemscore.Lipo.Weighted>
-9.4466

> <Gold.Chemscore.Internal_Hbond.Weighted>
0.0000

> <Gold.Chemscore.DEClash.Weighted>
0.1461

> <Gold.Chemscore.DEInternal.Weighted>
0.2870

> <Gold.Chemscore.Rot.Weighted>
4.4170

> <Gold.Chemscore.Internal.Correction.Weighted>
   9.000000E+99

> <Gold.Protein.RotatedTorsions>
[ 6907 6896 6895 6894 ] final   -4.47 input  -60.11 | X-H torsion
[ 7974 7965 7964 7962 ] final  -45.25 input  175.53 | X-H torsion
[ 8008 7997 7996 7995 ] final   91.17 input   59.86 | X-H torsion
[ 10167 10162 10161 10158 ] final  168.46 input  -65.29 | X-H torsion
[ 10718 10713 10712 10709 ] final  -26.54 input   66.30 | X-H torsion
[ 10763 10752 10751 10750 ] final -143.68 input  -60.55 | X-H torsion
[ 11005 11000 10999 10996 ] final   97.76 input  -57.11 | X-H torsion

> <Gold.Protein.ActiveResidues>
 VAL166  LYS551  ARG553  GLY616  TRP617  ASP618  TYR619  PRO620  LYS621  CYS622 
 ASP623  PHE694  ASN695  SER759  ASP760  ASP761  ALA762  ILE779  LEU786  VAL792 
 PHE793  MET794  SER795  GLU796  ALA797  LYS798  CYS799  TRP800  GLU811  SER814 

> <Gold.Protein.RotatedAtoms>
  151.4971  135.1060  159.9818 H   0  0  0  0  0  0  0  0  0  0  0  0  # atno 6907 bound_to 6896
  152.4717  133.8041  159.6979 H   0  0  0  0  0  0  0  0  0  0  0  0  # atno 6908 bound_to 6896
  150.8730  133.7416  159.2981 H   0  0  0  0  0  0  0  0  0  0  0  0  # atno 6909 bound_to 6896
  145.9839  140.7254  142.9350 H   0  0  0  0  0  0  0  0  0  0  0  0  # atno 7974 bound_to 7965
  156.0206  140.3341  155.7035 H   0  0  0  0  0  0  0  0  0  0  0  0  # atno 8008 bound_to 7997
  155.6028  140.0657  157.2746 H   0  0  0  0  0  0  0  0  0  0  0  0  # atno 8009 bound_to 7997
  154.4314  140.1807  156.1178 H   0  0  0  0  0  0  0  0  0  0  0  0  # atno 8010 bound_to 7997
  139.4968  144.3812  151.9620 H   0  0  0  0  0  0  0  0  0  0  0  0  # atno 10167 bound_to 10162
  156.4499  130.4482  149.6997 H   0  0  0  0  0  0  0  0  0  0  0  0  # atno 10718 bound_to 10713
  154.8460  135.3461  154.6225 H   0  0  0  0  0  0  0  0  0  0  0  0  # atno 10763 bound_to 10752
  153.6834  135.6979  153.5116 H   0  0  0  0  0  0  0  0  0  0  0  0  # atno 10764 bound_to 10752
  153.2650  135.4311  155.0888 H   0  0  0  0  0  0  0  0  0  0  0  0  # atno 10765 bound_to 10752
  139.8774  134.9016  156.4355 H   0  0  0  0  0  0  0  0  0  0  0  0  # atno 11005 bound_to 11000
  144.6869  140.2955  143.7271 LP  0  0  0  0  0  0  0  0  0  0  0  0  # atno 17320 bound_to 7965
  145.7729  139.1864  143.2202 LP  0  0  0  0  0  0  0  0  0  0  0  0  # atno 17321 bound_to 7965
  140.3249  144.3385  150.6001 LP  0  0  0  0  0  0  0  0  0  0  0  0  # atno 17342 bound_to 10162
  140.5693  143.2182  151.7628 LP  0  0  0  0  0  0  0  0  0  0  0  0  # atno 17343 bound_to 10162
  156.3827  130.7587  151.2581 LP  0  0  0  0  0  0  0  0  0  0  0  0  # atno 17370 bound_to 10713
  157.7503  131.0291  150.4077 LP  0  0  0  0  0  0  0  0  0  0  0  0  # atno 17371 bound_to 10713
  140.9036  133.7762  155.9709 LP  0  0  0  0  0  0  0  0  0  0  0  0  # atno 17394 bound_to 11000
  140.8624  134.2825  157.5228 LP  0  0  0  0  0  0  0  0  0  0  0  0  # atno 17395 bound_to 11000

$$$$
