AV-unprocessed.smi:3251|AV-procd|sdf|12437|dock5
  -GOLD-   2272018323D 1   1.00000     0.00000
 Structure written by MMmdl.
 40 41  0  0  0  0  0  0  0  0  1 V2000
  148.2346  141.3493  154.4744 C   0  0  0  0  0  0  0  0  0  0  0  0
  149.3746  140.5192  154.9887 C   0  0  0  0  0  0  0  0  0  0  0  0
  149.9333  139.3454  154.4077 C   0  0  0  0  0  0  0  0  0  0  0  0
  150.9407  138.8528  155.1098 N   0  0  0  0  0  0  0  0  0  0  0  0
  151.0616  139.6926  156.1596 N   0  0  0  0  0  0  0  0  0  0  0  0
  152.1046  139.4688  157.1447 C   0  0  0  0  0  0  0  0  0  0  0  0
  152.0884  140.5430  158.2435 C   0  0  0  0  0  0  0  0  0  0  0  0
  153.0475  140.1989  159.2892 N   0  0  0  0  0  0  0  0  0  0  0  0
  153.9117  141.3237  159.6850 C   0  0  2  0  0  0  0  0  0  0  0  0
  155.2221  140.7811  160.2756 C   0  0  0  0  0  0  0  0  0  0  0  0
  153.2312  142.2668  160.7034 C   0  0  0  0  0  0  0  0  0  0  0  0
  153.2822  141.9825  161.9017 O   0  0  0  0  0  0  0  0  0  0  0  0
  152.5957  143.3744  160.2635 N   0  0  0  0  0  0  0  0  0  0  0  0
  151.8740  144.3460  161.0847 C   0  0  0  0  0  0  0  0  0  0  0  0
  151.1326  145.2532  160.1026 C   0  0  0  0  0  0  0  0  0  0  0  0
  151.9534  145.1661  158.8242 C   0  0  0  0  0  0  0  0  0  0  0  0
  152.5358  143.7532  158.8525 C   0  0  0  0  0  0  0  0  0  0  0  0
  150.1290  140.7069  156.1120 C   0  0  0  0  0  0  0  0  0  0  0  0
  147.5874  140.7791  153.8076 H   0  0  0  0  0  0  0  0  0  0  0  0
  148.5903  142.2149  153.9153 H   0  0  0  0  0  0  0  0  0  0  0  0
  147.6097  141.7238  155.2853 H   0  0  0  0  0  0  0  0  0  0  0  0
  149.6387  138.8406  153.4995 H   0  0  0  0  0  0  0  0  0  0  0  0
  151.9847  138.4714  157.5697 H   0  0  0  0  0  0  0  0  0  0  0  0
  153.0679  139.4759  156.6329 H   0  0  0  0  0  0  0  0  0  0  0  0
  152.3631  141.5113  157.8242 H   0  0  0  0  0  0  0  0  0  0  0  0
  151.0749  140.6436  158.6332 H   0  0  0  0  0  0  0  0  0  0  0  0
  153.5841  139.3928  159.0034 H   0  0  0  0  0  0  0  0  0  0  0  0
  154.1639  141.8663  158.7744 H   0  0  0  0  0  0  0  0  0  0  0  0
  155.8948  141.5907  160.5612 H   0  0  0  0  0  0  0  0  0  0  0  0
  155.7501  140.1609  159.5507 H   0  0  0  0  0  0  0  0  0  0  0  0
  155.0406  140.1715  161.1620 H   0  0  0  0  0  0  0  0  0  0  0  0
  151.1782  143.8684  161.7757 H   0  0  0  0  0  0  0  0  0  0  0  0
  152.5936  144.9248  161.6657 H   0  0  0  0  0  0  0  0  0  0  0  0
  150.1330  144.8560  159.9208 H   0  0  0  0  0  0  0  0  0  0  0  0
  151.0251  146.2746  160.4686 H   0  0  0  0  0  0  0  0  0  0  0  0
  151.3647  145.3634  157.9278 H   0  0  0  0  0  0  0  0  0  0  0  0
  152.7631  145.8962  158.8601 H   0  0  0  0  0  0  0  0  0  0  0  0
  153.5171  143.7203  158.3762 H   0  0  0  0  0  0  0  0  0  0  0  0
  151.8801  143.0579  158.3265 H   0  0  0  0  0  0  0  0  0  0  0  0
  150.0857  141.4755  156.8698 H   0  0  0  0  0  0  0  0  0  0  0  0
  1  2  1  0  0  0  0
  1 19  1  0  0  0  0
  1 20  1  0  0  0  0
  1 21  1  0  0  0  0
  2 18  2  0  0  0  0
  2  3  1  0  0  0  0
  3  4  2  0  0  0  0
  3 22  1  0  0  0  0
  4  5  1  0  0  0  0
  5  6  1  0  0  0  0
  5 18  1  0  0  0  0
  6  7  1  0  0  0  0
  6 23  1  0  0  0  0
  6 24  1  0  0  0  0
  7  8  1  0  0  0  0
  7 25  1  0  0  0  0
  7 26  1  0  0  0  0
  8  9  1  0  0  0  0
  8 27  1  0  0  0  0
  9 10  1  0  0  0  0
  9 11  1  0  0  0  0
  9 28  1  0  0  0  0
 10 29  1  0  0  0  0
 10 30  1  0  0  0  0
 10 31  1  0  0  0  0
 11 12  2  0  0  0  0
 11 13  1  0  0  0  0
 13 17  1  0  0  0  0
 13 14  1  0  0  0  0
 14 15  1  0  0  0  0
 14 32  1  0  0  0  0
 14 33  1  0  0  0  0
 15 16  1  0  0  0  0
 15 34  1  0  0  0  0
 15 35  1  0  0  0  0
 16 17  1  0  0  0  0
 16 36  1  0  0  0  0
 16 37  1  0  0  0  0
 17 38  1  0  0  0  0
 17 39  1  0  0  0  0
 18 40  1  0  0  0  0
M  END
> <s_m_source_file>
AV-unprocessed.smi

> <i_m_source_file_index>
3251

> <i_lp_mmshare_version>
43012

> <i_f3d_flags>
0

> <s_epik_input>
W0NIM11jMVtjSF1ubihbY0hdMSlbQ0gyXVtDSDJdW05IXVtDQEhdKFtDSDNdKUMoPU8pTjJbQ0gyXVtDSDJdW0NIMl1bQ0gyXTI=

> <s_epik_cmdline>
J2VwaWtfcHl0aG9uJywgJy1waCcsICc3LjAnLCAnLXRuJywgJzgnLCAnLW1hJywgJzIwMCcsICctbWV0YWxfYmluZGluZycsICctaW1hZScsICc8aW5maWxlLm1hZT4nLCAnLW9tYWUnLCAnPG91dGZpbGUubWFlPic=

> <r_lp_tautomer_probability>
1

> <r_epik_Ionization_Penalty>
0.734676

> <r_epik_Ionization_Penalty_Charging>
0

> <r_epik_Ionization_Penalty_Neutral>
0.734676

> <r_epik_State_Penalty>
0.75825

> <r_epik_Charging_Adjusted_Penalty>
0.75825

> <i_epik_Tot_Q>
0

> <i_epik_Tot_abs_Q>
0

> <r_epik_Metal_State_Penalty>
0.756914

> <b_epik_Metal_Only>
0

> <s_lp_Force_Field>
OPLS_2005

> <r_lp_Energy>
32.0163

> <b_lp_Chiralities_Consistent>
1

> <s_lp_Variant>
AV-unprocessed.smi:3251-3

> <Gold.Version>
5.8.1

> <Gold.Id.Protein>
6NUR|6NUR_protein|mol2

> <Gold.PLP.Fitness>
48.0947

> <Gold.PLP.PLP>
-47.5684

> <Gold.PLP.part.hbond>
0.0000

> <Gold.PLP.part.metal>
0.0000

> <Gold.PLP.part.buried>
-3.9844

> <Gold.PLP.part.nonpolar>
-43.6815

> <Gold.PLP.part.repulsive>
0.1071

> <Gold.PLP.ligand.clash>
0.0000

> <Gold.PLP.ligand.torsion>
1.2606

> <Gold.PLP.Chemscore.Hbond>
0.0000

> <Gold.PLP.Chemscore.CHOScore>
0.9930

> <Gold.PLP.Chemscore.Metal>
0.0000

> <Gold.Chemscore.Hbonds>
donor molecule, donor type, donor heavy atom, donor atom, acceptor molecule, acceptor atom, score
      L1  C     3    22       P1  7957  0.67

> <Gold.PLP.Chemscore.Internal.Correction>
0.0684

> <Gold.Rescore>
     Score         DG    S(hbond)    S(metal)    S(lipo)     H(rot)  DE(clash)    DE(int)     intcor
     13.25     -14.42       0.00        0.00     113.50       1.70       0.08       1.08       ----

> <Gold.Chemscore.Fitness>
13.2548

> <Gold.Chemscore.DG>
-14.4205

> <Gold.Chemscore.ZeroCoef>
-5.4800

> <Gold.Chemscore.Hbond>
0.0000

> <Gold.Chemscore.Metal>
0.0000

> <Gold.Chemscore.Lipo>
113.5043

> <Gold.Chemscore.Internal_Hbond>
0.0000

> <Gold.Chemscore.DEClash>
0.0849

> <Gold.Chemscore.DEInternal>
1.0807

> <Gold.Chemscore.Rot>
1.6951

> <Gold.Chemscore.Internal.Correction>
   9.000000E+99

> <Gold.Chemscore.Hbond.Weighted>
-0.0000

> <Gold.Chemscore.Metal.Weighted>
-0.0000

> <Gold.Chemscore.Lipo.Weighted>
-13.2800

> <Gold.Chemscore.Internal_Hbond.Weighted>
0.0000

> <Gold.Chemscore.DEClash.Weighted>
0.0849

> <Gold.Chemscore.DEInternal.Weighted>
1.0807

> <Gold.Chemscore.Rot.Weighted>
4.3395

> <Gold.Chemscore.Internal.Correction.Weighted>
   9.000000E+99

> <Gold.Protein.RotatedTorsions>
[ 6907 6896 6895 6894 ] final  -82.53 input  -60.11 | X-H torsion
[ 7974 7965 7964 7962 ] final  143.48 input  175.53 | X-H torsion
[ 8008 7997 7996 7995 ] final  -87.10 input   59.86 | X-H torsion
[ 10167 10162 10161 10158 ] final  -49.46 input  -65.29 | X-H torsion
[ 10718 10713 10712 10709 ] final   90.20 input   66.30 | X-H torsion
[ 10763 10752 10751 10750 ] final -172.40 input  -60.55 | X-H torsion
[ 11005 11000 10999 10996 ] final -130.14 input  -57.11 | X-H torsion

> <Gold.Protein.ActiveResidues>
 VAL166  LYS551  ARG553  GLY616  TRP617  ASP618  TYR619  PRO620  LYS621  CYS622 
 ASP623  PHE694  ASN695  SER759  ASP760  ASP761  ALA762  ILE779  LEU786  VAL792 
 PHE793  MET794  SER795  GLU796  ALA797  LYS798  CYS799  TRP800  GLU811  SER814 

> <Gold.Protein.RotatedAtoms>
  150.6896  134.3651  159.4967 H   0  0  0  0  0  0  0  0  0  0  0  0  # atno 6907 bound_to 6896
  152.1475  134.9012  160.0559 H   0  0  0  0  0  0  0  0  0  0  0  0  # atno 6908 bound_to 6896
  152.0122  133.3831  159.4261 H   0  0  0  0  0  0  0  0  0  0  0  0  # atno 6909 bound_to 6896
  144.8917  139.5548  143.5795 H   0  0  0  0  0  0  0  0  0  0  0  0  # atno 7974 bound_to 7965
  154.6594  140.0570  157.0045 H   0  0  0  0  0  0  0  0  0  0  0  0  # atno 8008 bound_to 7997
  155.1252  140.3251  155.4469 H   0  0  0  0  0  0  0  0  0  0  0  0  # atno 8009 bound_to 7997
  156.2611  140.1990  156.6373 H   0  0  0  0  0  0  0  0  0  0  0  0  # atno 8010 bound_to 7997
  140.6684  143.2697  151.4218 H   0  0  0  0  0  0  0  0  0  0  0  0  # atno 10167 bound_to 10162
  157.6958  131.0362  150.3542 H   0  0  0  0  0  0  0  0  0  0  0  0  # atno 10718 bound_to 10713
  154.6197  135.2874  155.0340 H   0  0  0  0  0  0  0  0  0  0  0  0  # atno 10763 bound_to 10752
  154.1539  135.6499  153.4974 H   0  0  0  0  0  0  0  0  0  0  0  0  # atno 10764 bound_to 10752
  153.0230  135.5362  154.6982 H   0  0  0  0  0  0  0  0  0  0  0  0  # atno 10765 bound_to 10752
  140.9371  134.1242  157.4183 H   0  0  0  0  0  0  0  0  0  0  0  0  # atno 11005 bound_to 11000
  146.3058  139.7574  142.9057 LP  0  0  0  0  0  0  0  0  0  0  0  0  # atno 17320 bound_to 7965
  145.3771  141.0352  143.3198 LP  0  0  0  0  0  0  0  0  0  0  0  0  # atno 17321 bound_to 7965
  139.5942  144.1434  152.2124 LP  0  0  0  0  0  0  0  0  0  0  0  0  # atno 17342 bound_to 10162
  140.0798  144.5710  150.7131 LP  0  0  0  0  0  0  0  0  0  0  0  0  # atno 17343 bound_to 10162
  156.3986  130.3911  149.6976 LP  0  0  0  0  0  0  0  0  0  0  0  0  # atno 17370 bound_to 10713
  156.4301  130.7811  151.2830 LP  0  0  0  0  0  0  0  0  0  0  0  0  # atno 17371 bound_to 10713
  139.8811  135.0024  156.6127 LP  0  0  0  0  0  0  0  0  0  0  0  0  # atno 17394 bound_to 11000
  140.7784  133.8680  155.8548 LP  0  0  0  0  0  0  0  0  0  0  0  0  # atno 17395 bound_to 11000

$$$$
