AV-unprocessed.smi:1107|AV-procd|sdf|4783|dock4
  -GOLD-   22720 3323D 1   1.00000     0.00000
 Structure written by MMmdl.
 49 50  0  0  0  0  0  0  0  0  2 V2000
  151.1534  143.4621  157.5223 C   0  0  0  0  0  0  0  0  0  0  0  0
  151.0596  142.1458  156.7818 C   0  0  0  0  0  0  0  0  0  0  0  0
  149.9923  142.0781  155.9014 N   0  0  0  0  0  0  0  0  0  0  0  0
  149.8249  140.9125  155.1750 C   0  0  0  0  0  0  0  0  0  0  0  0
  148.6255  140.9141  154.2439 C   0  0  0  0  0  0  0  0  0  0  0  0
  150.6793  139.8679  155.3182 C   0  0  0  0  0  0  0  0  0  0  0  0
  150.5223  138.5525  154.5532 C   0  0  0  0  0  0  0  0  0  0  0  0
  150.1171  137.3174  155.3657 C   0  0  0  0  0  0  0  0  0  0  0  0
  150.0864  137.3857  156.5933 O   0  0  0  0  0  0  0  0  0  0  0  0
  149.7818  136.2083  154.6844 N   0  0  0  0  0  0  0  0  0  0  0  0
  149.3161  134.9462  155.2566 C   0  0  2  0  0  0  0  0  0  0  0  0
  150.3187  134.4810  156.3212 C   0  0  0  0  0  0  0  0  0  0  0  0
  149.1276  133.8777  154.1555 C   0  0  0  0  0  0  0  0  0  0  0  0
  147.9834  134.1704  153.2543 N   0  3  0  0  0  0  0  0  0  0  0  0
  147.6619  133.0434  152.3418 C   0  0  0  0  0  0  0  0  0  0  0  0
  146.5867  133.4524  151.3207 C   0  0  0  0  0  0  0  0  0  0  0  0
  145.3242  133.9669  152.0250 C   0  0  0  0  0  0  0  0  0  0  0  0
  145.6877  135.1016  152.9918 C   0  0  0  0  0  0  0  0  0  0  0  0
  146.7786  134.6542  153.9785 C   0  0  0  0  0  0  0  0  0  0  0  0
  151.7967  139.9951  156.2832 C   0  0  0  0  0  0  0  0  0  0  0  0
  152.5864  139.0715  156.4760 O   0  0  0  0  0  0  0  0  0  0  0  0
  151.9246  141.2003  156.9920 N   0  0  0  0  0  0  0  0  0  0  0  0
  149.3357  142.8330  155.7623 H   0  0  0  0  0  0  0  0  0  0  0  0
  152.0065  143.4678  158.2019 H   0  0  0  0  0  0  0  0  0  0  0  0
  150.2499  143.6344  158.1081 H   0  0  0  0  0  0  0  0  0  0  0  0
  151.2733  144.2864  156.8187 H   0  0  0  0  0  0  0  0  0  0  0  0
  148.9491  140.8267  153.2066 H   0  0  0  0  0  0  0  0  0  0  0  0
  148.0450  141.8331  154.3367 H   0  0  0  0  0  0  0  0  0  0  0  0
  147.9650  140.0769  154.4719 H   0  0  0  0  0  0  0  0  0  0  0  0
  151.4453  138.3241  154.0187 H   0  0  0  0  0  0  0  0  0  0  0  0
  149.7769  138.6841  153.7688 H   0  0  0  0  0  0  0  0  0  0  0  0
  149.8445  136.2475  153.6770 H   0  0  0  0  0  0  0  0  0  0  0  0
  148.3657  135.1094  155.7662 H   0  0  0  0  0  0  0  0  0  0  0  0
  149.9912  133.5521  156.7891 H   0  0  0  0  0  0  0  0  0  0  0  0
  150.4274  135.2255  157.1106 H   0  0  0  0  0  0  0  0  0  0  0  0
  151.3054  134.3066  155.8906 H   0  0  0  0  0  0  0  0  0  0  0  0
  150.0455  133.8388  153.5666 H   0  0  0  0  0  0  0  0  0  0  0  0
  149.0085  132.8852  154.5930 H   0  0  0  0  0  0  0  0  0  0  0  0
  148.5602  132.7342  151.8059 H   0  0  0  0  0  0  0  0  0  0  0  0
  147.3257  132.1847  152.9249 H   0  0  0  0  0  0  0  0  0  0  0  0
  146.9825  134.2295  150.6652 H   0  0  0  0  0  0  0  0  0  0  0  0
  146.3374  132.6056  150.6806 H   0  0  0  0  0  0  0  0  0  0  0  0
  144.5972  134.3149  151.2907 H   0  0  0  0  0  0  0  0  0  0  0  0
  144.8499  133.1521  152.5737 H   0  0  0  0  0  0  0  0  0  0  0  0
  146.0380  135.9673  152.4280 H   0  0  0  0  0  0  0  0  0  0  0  0
  144.8008  135.4254  153.5372 H   0  0  0  0  0  0  0  0  0  0  0  0
  146.3980  133.8632  154.6265 H   0  0  0  0  0  0  0  0  0  0  0  0
  147.0381  135.4924  154.6246 H   0  0  0  0  0  0  0  0  0  0  0  0
  148.2874  134.9286  152.6598 H   0  0  0  0  0  0  0  0  0  0  0  0
  1 24  1  0  0  0  0
  1 25  1  0  0  0  0
  1 26  1  0  0  0  0
  1  2  1  0  0  0  0
  2  3  1  0  0  0  0
  2 22  2  0  0  0  0
  3  4  1  0  0  0  0
  3 23  1  0  0  0  0
  4  6  2  0  0  0  0
  4  5  1  0  0  0  0
  5 27  1  0  0  0  0
  5 28  1  0  0  0  0
  5 29  1  0  0  0  0
  6 20  1  0  0  0  0
  6  7  1  0  0  0  0
  7  8  1  0  0  0  0
  7 30  1  0  0  0  0
  7 31  1  0  0  0  0
  8  9  2  0  0  0  0
  8 10  1  0  0  0  0
 10 11  1  0  0  0  0
 10 32  1  0  0  0  0
 11 12  1  0  0  0  0
 11 13  1  0  0  0  0
 11 33  1  0  0  0  0
 12 34  1  0  0  0  0
 12 35  1  0  0  0  0
 12 36  1  0  0  0  0
 13 14  1  0  0  0  0
 13 37  1  0  0  0  0
 13 38  1  0  0  0  0
 14 19  1  0  0  0  0
 14 15  1  0  0  0  0
 14 49  1  0  0  0  0
 15 16  1  0  0  0  0
 15 39  1  0  0  0  0
 15 40  1  0  0  0  0
 16 17  1  0  0  0  0
 16 41  1  0  0  0  0
 16 42  1  0  0  0  0
 17 18  1  0  0  0  0
 17 43  1  0  0  0  0
 17 44  1  0  0  0  0
 18 19  1  0  0  0  0
 18 45  1  0  0  0  0
 18 46  1  0  0  0  0
 19 47  1  0  0  0  0
 19 48  1  0  0  0  0
 20 21  2  0  0  0  0
 20 22  1  0  0  0  0
M  CHG  1  14   1
M  END
> <s_m_source_file>
AV-unprocessed.smi

> <i_m_source_file_index>
1107

> <i_lp_mmshare_version>
43012

> <i_f3d_flags>
0

> <s_epik_input>
W0NIM11jMW5jKFtDSDNdKWMoYyg9TylbbkhdMSlbQ0gyXUMoPU8pW05IXVtDQEhdKFtDSDNdKVtDSDJdTjJbQ0gyXVtDSDJdW0NIMl1bQ0gyXVtDSDJdMg==

> <s_epik_cmdline>
J2VwaWtfcHl0aG9uJywgJy1waCcsICc3LjAnLCAnLXRuJywgJzgnLCAnLW1hJywgJzIwMCcsICctbWV0YWxfYmluZGluZycsICctaW1hZScsICc8aW5maWxlLm1hZT4nLCAnLW9tYWUnLCAnPG91dGZpbGUubWFlPic=

> <r_lp_tautomer_probability>
0.156392

> <r_epik_Ionization_Penalty>
0.0190033

> <r_epik_Ionization_Penalty_Charging>
0.0189172

> <r_epik_Ionization_Penalty_Neutral>
8.60838e-05

> <r_epik_State_Penalty>
1.15342

> <r_epik_Charging_Adjusted_Penalty>
1.17233

> <i_epik_Tot_Q>
1

> <i_epik_Tot_abs_Q>
1

> <r_epik_Metal_State_Penalty>
1.34593

> <b_epik_Metal_Only>
0

> <s_lp_Force_Field>
OPLS_2005

> <r_lp_Energy>
27.2894

> <b_lp_Chiralities_Consistent>
1

> <s_lp_Variant>
AV-unprocessed.smi:1107-3

> <Gold.Version>
5.8.1

> <Gold.Id.Protein>
6NUR|6NUR_protein|mol2

> <Gold.PLP.Fitness>
50.1314

> <Gold.PLP.PLP>
-36.0408

> <Gold.PLP.part.hbond>
-3.9895

> <Gold.PLP.part.metal>
0.0000

> <Gold.PLP.part.buried>
0.8390

> <Gold.PLP.part.nonpolar>
-32.1278

> <Gold.PLP.part.repulsive>
0.1846

> <Gold.PLP.ligand.clash>
0.0000

> <Gold.PLP.ligand.torsion>
0.3328

> <Gold.PLP.Chemscore.Hbond>
4.8928

> <Gold.PLP.Chemscore.CHOScore>
0.0000

> <Gold.PLP.Chemscore.Metal>
0.0000

> <Gold.Chemscore.Hbonds>
donor molecule, donor type, donor heavy atom, donor atom, acceptor molecule, acceptor atom, score
      L1  H     3    23       P1  8028  1.00
      L1  H    10    32       P1  7948  0.95
      L1  H    14    49       P1  7948  2.00
      P1  H  7997  8010       L1    21  0.99

> <Gold.PLP.Chemscore.Internal.Correction>
0.0778

> <Gold.Rescore>
     Score         DG    S(hbond)    S(metal)    S(lipo)     H(rot)  DE(clash)    DE(int)     intcor
     16.24     -18.44       3.12        0.00      65.01       1.98       0.77       1.44       ----

> <Gold.Chemscore.Fitness>
16.2372

> <Gold.Chemscore.DG>
-18.4436

> <Gold.Chemscore.ZeroCoef>
-5.4800

> <Gold.Chemscore.Hbond>
3.1244

> <Gold.Chemscore.Metal>
0.0000

> <Gold.Chemscore.Lipo>
65.0125

> <Gold.Chemscore.Internal_Hbond>
0.0000

> <Gold.Chemscore.DEClash>
0.7651

> <Gold.Chemscore.DEInternal>
1.4413

> <Gold.Chemscore.Rot>
1.9837

> <Gold.Chemscore.Internal.Correction>
   9.000000E+99

> <Gold.Chemscore.Hbonds>
donor molecule, donor type, donor heavy atom, donor atom, acceptor molecule, acceptor atom, score
      L1  H     3    23       P1  8028  0.95
      L1  H    10    32       P1  7948  0.20
      L1  H    14    49       P1  7948  0.65
      P1  H  7997  8010       L1    21  0.24

> <Gold.Chemscore.Hbond.Weighted>
-10.4354

> <Gold.Chemscore.Metal.Weighted>
-0.0000

> <Gold.Chemscore.Lipo.Weighted>
-7.6065

> <Gold.Chemscore.Internal_Hbond.Weighted>
0.0000

> <Gold.Chemscore.DEClash.Weighted>
0.7651

> <Gold.Chemscore.DEInternal.Weighted>
1.4413

> <Gold.Chemscore.Rot.Weighted>
5.0783

> <Gold.Chemscore.Internal.Correction.Weighted>
   9.000000E+99

> <Gold.Protein.RotatedTorsions>
[ 6907 6896 6895 6894 ] final  -20.30 input  -60.11 | X-H torsion
[ 7974 7965 7964 7962 ] final  122.82 input  175.53 | X-H torsion
[ 8008 7997 7996 7995 ] final   73.21 input   59.86 | X-H torsion
[ 10167 10162 10161 10158 ] final  -72.79 input  -65.29 | X-H torsion
[ 10718 10713 10712 10709 ] final   58.31 input   66.30 | X-H torsion
[ 10763 10752 10751 10750 ] final  135.27 input  -60.55 | X-H torsion
[ 11005 11000 10999 10996 ] final  129.37 input  -57.11 | X-H torsion

> <Gold.Protein.ActiveResidues>
 VAL166  LYS551  ARG553  GLY616  TRP617  ASP618  TYR619  PRO620  LYS621  CYS622 
 ASP623  PHE694  ASN695  SER759  ASP760  ASP761  ALA762  ILE779  LEU786  VAL792 
 PHE793  MET794  SER795  GLU796  ALA797  LYS798  CYS799  TRP800  GLU811  SER814 

> <Gold.Protein.RotatedAtoms>
  151.2502  135.0619  159.9058 H   0  0  0  0  0  0  0  0  0  0  0  0  # atno 6907 bound_to 6896
  152.5381  134.0340  159.8048 H   0  0  0  0  0  0  0  0  0  0  0  0  # atno 6908 bound_to 6896
  151.0547  133.5545  159.2670 H   0  0  0  0  0  0  0  0  0  0  0  0  # atno 6909 bound_to 6896
  145.1031  139.3505  143.4802 H   0  0  0  0  0  0  0  0  0  0  0  0  # atno 7974 bound_to 7965
  155.7803  140.3482  155.5294 H   0  0  0  0  0  0  0  0  0  0  0  0  # atno 8008 bound_to 7997
  155.8735  140.0990  157.1554 H   0  0  0  0  0  0  0  0  0  0  0  0  # atno 8009 bound_to 7997
  154.4019  140.1336  156.4095 H   0  0  0  0  0  0  0  0  0  0  0  0  # atno 8010 bound_to 7997
  140.5163  143.2337  151.7507 H   0  0  0  0  0  0  0  0  0  0  0  0  # atno 10167 bound_to 10162
  157.5585  130.8818  149.9074 H   0  0  0  0  0  0  0  0  0  0  0  0  # atno 10718 bound_to 10713
  153.8372  135.3096  155.3423 H   0  0  0  0  0  0  0  0  0  0  0  0  # atno 10763 bound_to 10752
  154.7948  135.4762  154.0138 H   0  0  0  0  0  0  0  0  0  0  0  0  # atno 10764 bound_to 10752
  153.1598  135.6859  153.8851 H   0  0  0  0  0  0  0  0  0  0  0  0  # atno 10765 bound_to 10752
  139.9612  134.9602  156.9138 H   0  0  0  0  0  0  0  0  0  0  0  0  # atno 11005 bound_to 11000
  146.3529  140.0916  142.8612 LP  0  0  0  0  0  0  0  0  0  0  0  0  # atno 17320 bound_to 7965
  145.0933  140.9298  143.4756 LP  0  0  0  0  0  0  0  0  0  0  0  0  # atno 17321 bound_to 7965
  139.4910  144.4319  151.9863 LP  0  0  0  0  0  0  0  0  0  0  0  0  # atno 17342 bound_to 10162
  140.3413  144.3200  150.5967 LP  0  0  0  0  0  0  0  0  0  0  0  0  # atno 17343 bound_to 10162
  156.0641  130.3695  150.0917 LP  0  0  0  0  0  0  0  0  0  0  0  0  # atno 17370 bound_to 10713
  156.9083  130.9643  151.3566 LP  0  0  0  0  0  0  0  0  0  0  0  0  # atno 17371 bound_to 10713
  140.5497  134.0639  155.7365 LP  0  0  0  0  0  0  0  0  0  0  0  0  # atno 17394 bound_to 11000
  141.1289  133.9336  157.2578 LP  0  0  0  0  0  0  0  0  0  0  0  0  # atno 17395 bound_to 11000

$$$$
