AV-unprocessed.smi:261|AV-procd|sdf|1985|dock9
  -GOLD-   2262021163D 1   1.00000     0.00000
 Structure written by MMmdl.
 51 54  0  0  0  0  0  0  0  0  1 V2000
  151.2951  145.0876  159.4302 C   0  0  0  0  0  0  0  0  0  0  0  0
  152.5380  144.5688  158.9858 O   0  0  0  0  0  0  0  0  0  0  0  0
  152.4339  143.2803  158.3982 C   0  0  1  0  0  0  0  0  0  0  0  0
  151.9752  142.1999  159.3789 C   0  0  0  0  0  0  0  0  0  0  0  0
  151.3118  141.1285  158.4922 C   0  0  2  0  0  0  0  0  0  0  0  0
  152.2702  139.9705  158.1733 C   0  0  0  0  0  0  0  0  0  0  0  0
  151.7964  138.9949  157.3948 N   0  0  0  0  0  0  0  0  0  0  0  0
  153.4114  139.9419  158.6320 O   0  0  0  0  0  0  0  0  0  0  0  0
  150.9413  141.8404  157.2657 N   0  0  0  0  0  0  0  0  0  0  0  0
  149.7173  141.5872  156.7551 C   0  0  0  0  0  0  0  0  0  0  0  0
  148.6075  142.0620  157.3793 N   0  0  0  0  0  0  0  0  0  0  0  0
  147.3977  141.8050  156.8716 C   0  0  0  0  0  0  0  0  0  0  0  0
  147.0815  141.1098  155.7759 N   0  0  0  0  0  0  0  0  0  0  0  0
  148.1979  140.6360  155.1508 C   0  0  0  0  0  0  0  0  0  0  0  0
  149.5432  140.8284  155.5697 C   0  0  0  0  0  0  0  0  0  0  0  0
  150.4140  140.2008  154.6882 N   0  0  0  0  0  0  0  0  0  0  0  0
  149.6258  139.6641  153.7963 C   0  0  0  0  0  0  0  0  0  0  0  0
  148.2801  139.8759  153.9986 N   0  0  0  0  0  0  0  0  0  0  0  0
  147.1865  139.3959  153.1735 C   0  0  0  0  0  0  0  0  0  0  0  0
  146.5138  138.1423  153.7651 C   0  0  2  0  0  0  0  0  0  0  0  0
  147.4832  137.1634  154.0883 O   0  0  0  0  0  0  0  0  0  0  0  0
  145.4341  137.5507  152.8367 C   0  0  2  0  0  0  0  0  0  0  0  0
  144.6711  136.3330  153.3648 C   0  0  0  0  0  0  0  0  0  0  0  0
  144.1779  135.7154  152.0756 C   0  0  0  0  0  0  0  0  0  0  0  0
  145.3647  135.9478  151.1432 C   0  0  0  0  0  0  0  0  0  0  0  0
  145.9703  137.1644  151.5733 O   0  0  0  0  0  0  0  0  0  0  0  0
  151.3161  143.2442  157.3613 C   0  0  0  0  0  0  0  0  0  0  0  0
  153.3731  142.9879  157.9240 H   0  0  0  0  0  0  0  0  0  0  0  0
  150.4370  140.7236  159.0055 H   0  0  0  0  0  0  0  0  0  0  0  0
  151.4521  146.0623  159.8919 H   0  0  0  0  0  0  0  0  0  0  0  0
  150.8385  144.4341  160.1747 H   0  0  0  0  0  0  0  0  0  0  0  0
  150.5962  145.2191  158.6037 H   0  0  0  0  0  0  0  0  0  0  0  0
  152.7920  141.8156  159.9917 H   0  0  0  0  0  0  0  0  0  0  0  0
  151.2286  142.6150  160.0576 H   0  0  0  0  0  0  0  0  0  0  0  0
  152.3837  138.2091  157.1561 H   0  0  0  0  0  0  0  0  0  0  0  0
  150.8491  139.0466  157.0490 H   0  0  0  0  0  0  0  0  0  0  0  0
  146.5636  142.2149  157.4217 H   0  0  0  0  0  0  0  0  0  0  0  0
  150.0068  139.0914  152.9633 H   0  0  0  0  0  0  0  0  0  0  0  0
  146.4584  140.2017  153.0718 H   0  0  0  0  0  0  0  0  0  0  0  0
  147.5692  139.1923  152.1725 H   0  0  0  0  0  0  0  0  0  0  0  0
  146.0300  138.4192  154.7026 H   0  0  0  0  0  0  0  0  0  0  0  0
  147.8306  136.8118  153.2828 H   0  0  0  0  0  0  0  0  0  0  0  0
  144.7027  138.3321  152.6231 H   0  0  0  0  0  0  0  0  0  0  0  0
  145.3324  135.6317  153.8747 H   0  0  0  0  0  0  0  0  0  0  0  0
  143.8649  136.6000  154.0485 H   0  0  0  0  0  0  0  0  0  0  0  0
  143.9137  134.6623  152.1764 H   0  0  0  0  0  0  0  0  0  0  0  0
  143.3022  136.2552  151.7123 H   0  0  0  0  0  0  0  0  0  0  0  0
  146.0936  135.1434  151.2497 H   0  0  0  0  0  0  0  0  0  0  0  0
  145.0678  135.9985  150.0953 H   0  0  0  0  0  0  0  0  0  0  0  0
  150.4701  143.8494  157.6924 H   0  0  0  0  0  0  0  0  0  0  0  0
  151.6501  143.6302  156.3977 H   0  0  0  0  0  0  0  0  0  0  0  0
  1  2  1  0  0  0  0
  1 30  1  0  0  0  0
  1 31  1  0  0  0  0
  1 32  1  0  0  0  0
  2  3  1  0  0  0  0
  3 28  1  0  0  0  0
  3 27  1  0  0  0  0
  3  4  1  0  0  0  0
  4  5  1  0  0  0  0
  4 33  1  0  0  0  0
  4 34  1  0  0  0  0
  5 29  1  0  0  0  0
  5  6  1  0  0  0  0
  5  9  1  0  0  0  0
  6  7  1  0  0  0  0
  6  8  2  0  0  0  0
  7 35  1  0  0  0  0
  7 36  1  0  0  0  0
  9 10  1  0  0  0  0
  9 27  1  0  0  0  0
 10 15  1  0  0  0  0
 10 11  2  0  0  0  0
 11 12  1  0  0  0  0
 12 13  2  0  0  0  0
 12 37  1  0  0  0  0
 13 14  1  0  0  0  0
 14 18  1  0  0  0  0
 14 15  2  0  0  0  0
 15 16  1  0  0  0  0
 16 17  2  0  0  0  0
 17 18  1  0  0  0  0
 17 38  1  0  0  0  0
 18 19  1  0  0  0  0
 19 20  1  0  0  0  0
 19 39  1  0  0  0  0
 19 40  1  0  0  0  0
 20 21  1  0  0  0  0
 20 22  1  0  0  0  0
 20 41  1  0  0  0  0
 21 42  1  0  0  0  0
 22 26  1  0  0  0  0
 22 23  1  0  0  0  0
 22 43  1  0  0  0  0
 23 24  1  0  0  0  0
 23 44  1  0  0  0  0
 23 45  1  0  0  0  0
 24 25  1  0  0  0  0
 24 46  1  0  0  0  0
 24 47  1  0  0  0  0
 25 26  1  0  0  0  0
 25 48  1  0  0  0  0
 25 49  1  0  0  0  0
 27 50  1  0  0  0  0
 27 51  1  0  0  0  0
M  END
> <s_m_source_file>
AV-unprocessed.smi

> <i_m_source_file_index>
261

> <i_lp_mmshare_version>
43012

> <i_f3d_flags>
0

> <s_epik_input>
W0NIM11PW0NASF0xW0NIMl1bQ0BASF0oQyg9TylbTkgyXSlOKFtDSDJdMSljKG5bY0hdbjIpYyhjMjMpbltjSF1uM1tDSDJdW0NASF0oW09IXSlbQ0BASF00W0NIMl1bQ0gyXVtDSDJdTzQ=

> <s_epik_cmdline>
J2VwaWtfcHl0aG9uJywgJy1waCcsICc3LjAnLCAnLXRuJywgJzgnLCAnLW1hJywgJzIwMCcsICctbWV0YWxfYmluZGluZycsICctaW1hZScsICc8aW5maWxlLm1hZT4nLCAnLW9tYWUnLCAnPG91dGZpbGUubWFlPic=

> <r_lp_tautomer_probability>
1

> <r_epik_Ionization_Penalty>
0.000713824

> <r_epik_Ionization_Penalty_Charging>
0

> <r_epik_Ionization_Penalty_Neutral>
0.000713824

> <r_epik_State_Penalty>
0.000402132

> <r_epik_Charging_Adjusted_Penalty>
0.000402132

> <i_epik_Tot_Q>
0

> <i_epik_Tot_abs_Q>
0

> <r_epik_Metal_State_Penalty>
-0

> <b_epik_Metal_Only>
0

> <s_lp_Force_Field>
OPLS_2005

> <r_lp_Energy>
48.1487

> <b_lp_Chiralities_Consistent>
1

> <s_lp_Variant>
AV-unprocessed.smi:261-3

> <Gold.Version>
5.8.1

> <Gold.Id.Protein>
6NUR|6NUR_protein|mol2

> <Gold.PLP.Fitness>
47.8118

> <Gold.PLP.PLP>
-37.9163

> <Gold.PLP.part.hbond>
-3.0000

> <Gold.PLP.part.metal>
0.0000

> <Gold.PLP.part.buried>
-4.6811

> <Gold.PLP.part.nonpolar>
-31.6743

> <Gold.PLP.part.repulsive>
1.1044

> <Gold.PLP.ligand.clash>
0.0000

> <Gold.PLP.ligand.torsion>
0.4925

> <Gold.PLP.Chemscore.Hbond>
2.8500

> <Gold.PLP.Chemscore.CHOScore>
0.6901

> <Gold.PLP.Chemscore.Metal>
0.0000

> <Gold.Chemscore.Hbonds>
donor molecule, donor type, donor heavy atom, donor atom, acceptor molecule, acceptor atom, score
      L1  H    21    42       P1  7948  1.00
      P1  H  7989  7998       L1    16  0.80
      P1  H  7997  8009       L1     8  1.00
      L1  C    17    38       P1  7957  0.64

> <Gold.PLP.Chemscore.Internal.Correction>
0.2601

> <Gold.Rescore>
     Score         DG    S(hbond)    S(metal)    S(lipo)     H(rot)  DE(clash)    DE(int)     intcor
     11.56     -13.63       2.44        0.00      78.23       3.57       1.55       0.51       ----

> <Gold.Chemscore.Fitness>
11.5647

> <Gold.Chemscore.DG>
-13.6298

> <Gold.Chemscore.ZeroCoef>
-5.4800

> <Gold.Chemscore.Hbond>
2.4389

> <Gold.Chemscore.Metal>
0.0000

> <Gold.Chemscore.Lipo>
78.2326

> <Gold.Chemscore.Internal_Hbond>
0.0000

> <Gold.Chemscore.DEClash>
1.5507

> <Gold.Chemscore.DEInternal>
0.5144

> <Gold.Chemscore.Rot>
3.5740

> <Gold.Chemscore.Internal.Correction>
   9.000000E+99

> <Gold.Chemscore.Hbonds>
donor molecule, donor type, donor heavy atom, donor atom, acceptor molecule, acceptor atom, score
      L1  H    21    42       P1  7948  1.00
      P1  H  7989  7998       L1    16  0.12
      P1  H  7997  8009       L1     8  0.47

> <Gold.Chemscore.Hbond.Weighted>
-8.1460

> <Gold.Chemscore.Metal.Weighted>
-0.0000

> <Gold.Chemscore.Lipo.Weighted>
-9.1532

> <Gold.Chemscore.Internal_Hbond.Weighted>
0.0000

> <Gold.Chemscore.DEClash.Weighted>
1.5507

> <Gold.Chemscore.DEInternal.Weighted>
0.5144

> <Gold.Chemscore.Rot.Weighted>
9.1495

> <Gold.Chemscore.Internal.Correction.Weighted>
   9.000000E+99

> <Gold.Protein.RotatedTorsions>
[ 6907 6896 6895 6894 ] final  159.98 input  -60.11 | X-H torsion
[ 7974 7965 7964 7962 ] final  -57.06 input  175.53 | X-H torsion
[ 8008 7997 7996 7995 ] final  154.98 input   59.86 | X-H torsion
[ 10167 10162 10161 10158 ] final   46.56 input  -65.29 | X-H torsion
[ 10718 10713 10712 10709 ] final  156.20 input   66.30 | X-H torsion
[ 10763 10752 10751 10750 ] final   60.81 input  -60.55 | X-H torsion
[ 11005 11000 10999 10996 ] final  -44.65 input  -57.11 | X-H torsion

> <Gold.Protein.ActiveResidues>
 VAL166  LYS551  ARG553  GLY616  TRP617  ASP618  TYR619  PRO620  LYS621  CYS622 
 ASP623  PHE694  ASN695  SER759  ASP760  ASP761  ALA762  ILE779  LEU786  VAL792 
 PHE793  MET794  SER795  GLU796  ALA797  LYS798  CYS799  TRP800  GLU811  SER814 

> <Gold.Protein.RotatedAtoms>
  151.9775  133.3746  159.4094 H   0  0  0  0  0  0  0  0  0  0  0  0  # atno 6907 bound_to 6896
  150.6939  134.4074  159.5155 H   0  0  0  0  0  0  0  0  0  0  0  0  # atno 6908 bound_to 6896
  152.1788  134.8772  160.0579 H   0  0  0  0  0  0  0  0  0  0  0  0  # atno 6909 bound_to 6896
  145.8555  140.8322  142.9964 H   0  0  0  0  0  0  0  0  0  0  0  0  # atno 7974 bound_to 7965
  156.2503  140.1952  156.6730 H   0  0  0  0  0  0  0  0  0  0  0  0  # atno 8008 bound_to 7997
  154.6379  140.0587  156.9836 H   0  0  0  0  0  0  0  0  0  0  0  0  # atno 8009 bound_to 7997
  155.1609  140.3259  155.4414 H   0  0  0  0  0  0  0  0  0  0  0  0  # atno 8010 bound_to 7997
  140.3126  144.2802  150.6197 H   0  0  0  0  0  0  0  0  0  0  0  0  # atno 10167 bound_to 10162
  157.2082  131.0691  151.1985 H   0  0  0  0  0  0  0  0  0  0  0  0  # atno 10718 bound_to 10713
  152.9932  135.5523  154.5933 H   0  0  0  0  0  0  0  0  0  0  0  0  # atno 10763 bound_to 10752
  154.5290  135.2812  155.1199 H   0  0  0  0  0  0  0  0  0  0  0  0  # atno 10764 bound_to 10752
  154.2522  135.6396  153.5297 H   0  0  0  0  0  0  0  0  0  0  0  0  # atno 10765 bound_to 10752
  141.0464  133.6759  156.2902 H   0  0  0  0  0  0  0  0  0  0  0  0  # atno 11005 bound_to 11000
  144.6728  140.1017  143.7460 LP  0  0  0  0  0  0  0  0  0  0  0  0  # atno 17320 bound_to 7965
  145.9308  139.2605  143.1326 LP  0  0  0  0  0  0  0  0  0  0  0  0  # atno 17321 bound_to 7965
  140.5554  143.2200  151.7856 LP  0  0  0  0  0  0  0  0  0  0  0  0  # atno 17342 bound_to 10162
  139.4890  144.4420  151.9753 LP  0  0  0  0  0  0  0  0  0  0  0  0  # atno 17343 bound_to 10162
  157.3699  130.7175  149.6558 LP  0  0  0  0  0  0  0  0  0  0  0  0  # atno 17370 bound_to 10713
  155.9693  130.4202  150.4410 LP  0  0  0  0  0  0  0  0  0  0  0  0  # atno 17371 bound_to 10713
  140.6138  134.5431  157.5537 LP  0  0  0  0  0  0  0  0  0  0  0  0  # atno 17394 bound_to 11000
  139.9315  134.7954  156.0918 LP  0  0  0  0  0  0  0  0  0  0  0  0  # atno 17395 bound_to 11000

$$$$
