AV-unprocessed.smi:649|AV-procd|sdf|3180|dock2
  -GOLD-   22720 0103D 1   1.00000     0.00000
 Structure written by MMmdl.
 34 35  0  0  0  0  0  0  0  0  2 V2000
  144.3263  135.3716  150.8008 C   0  0  0  0  0  0  0  0  0  0  0  0
  144.7632  133.9276  150.9331 C   0  0  0  0  0  0  0  0  0  0  0  0
  144.1886  132.9324  150.1221 C   0  0  0  0  0  0  0  0  0  0  0  0
  144.5895  131.5923  150.2662 C   0  0  0  0  0  0  0  0  0  0  0  0
  145.5636  131.2263  151.2206 C   0  0  0  0  0  0  0  0  0  0  0  0
  145.9308  129.7554  151.3315 C   0  0  0  0  0  0  0  0  0  0  0  0
  146.1530  132.2296  152.0406 C   0  0  0  0  0  0  0  0  0  0  0  0
  147.1979  131.9359  153.1225 C   0  0  2  0  0  0  0  0  0  0  0  0
  146.6758  131.9431  154.4352 O   0  0  0  0  0  0  0  0  0  0  0  0
  148.4564  132.8346  153.0581 C   0  0  0  0  0  0  0  0  0  0  0  0
  149.2864  132.7323  154.2692 N   0  0  0  0  0  0  0  0  0  0  0  0
  149.9302  131.5045  154.4965 C   0  0  0  0  0  0  0  0  0  0  0  0
  150.7416  131.3054  155.5528 C   0  0  0  0  0  0  0  0  0  0  0  0
  151.5264  129.7863  155.7994 Cl  0  0  0  0  0  0  0  0  0  0  0  0
  150.9414  132.4152  156.4822 C   0  0  0  0  0  0  0  0  0  0  0  0
  151.6782  132.2683  157.4563 O   0  0  0  0  0  0  0  0  0  0  0  0
  150.2886  133.5854  156.2216 N   0  5  0  0  0  0  0  0  0  0  0  0
  149.4702  133.7703  155.1401 C   0  0  0  0  0  0  0  0  0  0  0  0
  148.9014  134.8407  154.9250 O   0  0  0  0  0  0  0  0  0  0  0  0
  145.7403  133.5725  151.8818 C   0  0  0  0  0  0  0  0  0  0  0  0
  143.8366  135.5492  149.8428 H   0  0  0  0  0  0  0  0  0  0  0  0
  145.1846  136.0404  150.8715 H   0  0  0  0  0  0  0  0  0  0  0  0
  143.6260  135.6248  151.5970 H   0  0  0  0  0  0  0  0  0  0  0  0
  143.4353  133.1903  149.3923 H   0  0  0  0  0  0  0  0  0  0  0  0
  144.1345  130.8394  149.6399 H   0  0  0  0  0  0  0  0  0  0  0  0
  146.9315  129.5790  150.9381 H   0  0  0  0  0  0  0  0  0  0  0  0
  145.2395  129.1334  150.7628 H   0  0  0  0  0  0  0  0  0  0  0  0
  145.8929  129.4134  152.3637 H   0  0  0  0  0  0  0  0  0  0  0  0
  147.5321  130.9089  152.9698 H   0  0  0  0  0  0  0  0  0  0  0  0
  147.1489  131.3047  154.9464 H   0  0  0  0  0  0  0  0  0  0  0  0
  149.0410  132.6099  152.1668 H   0  0  0  0  0  0  0  0  0  0  0  0
  148.1523  133.8739  152.9247 H   0  0  0  0  0  0  0  0  0  0  0  0
  149.7293  130.7431  153.7569 H   0  0  0  0  0  0  0  0  0  0  0  0
  146.1663  134.3427  152.5083 H   0  0  0  0  0  0  0  0  0  0  0  0
  1  2  1  0  0  0  0
  1 21  1  0  0  0  0
  1 22  1  0  0  0  0
  1 23  1  0  0  0  0
  2 20  1  0  0  0  0
  2  3  2  0  0  0  0
  3  4  1  0  0  0  0
  3 24  1  0  0  0  0
  4  5  2  0  0  0  0
  4 25  1  0  0  0  0
  5  6  1  0  0  0  0
  5  7  1  0  0  0  0
  6 26  1  0  0  0  0
  6 27  1  0  0  0  0
  6 28  1  0  0  0  0
  7  8  1  0  0  0  0
  7 20  2  0  0  0  0
  8  9  1  0  0  0  0
  8 10  1  0  0  0  0
  8 29  1  0  0  0  0
  9 30  1  0  0  0  0
 10 11  1  0  0  0  0
 10 31  1  0  0  0  0
 10 32  1  0  0  0  0
 11 18  1  0  0  0  0
 11 12  1  0  0  0  0
 12 13  2  0  0  0  0
 12 33  1  0  0  0  0
 13 14  1  0  0  0  0
 13 15  1  0  0  0  0
 15 16  2  0  0  0  0
 15 17  1  0  0  0  0
 17 18  1  0  0  0  0
 18 19  2  0  0  0  0
 20 34  1  0  0  0  0
M  CHG  1  17  -1
M  END
> <s_m_source_file>
AV-unprocessed.smi

> <i_m_source_file_index>
649

> <i_lp_mmshare_version>
43012

> <i_f3d_flags>
0

> <s_epik_input>
W0NIM11jMVtjSF1bY0hdYyhbQ0gzXSljKFtjSF0xKVtDQEhdKFtPSF0pW0NIMl1uMltjSF1jKENsKWMoPU8pW25IXWMyPU8=

> <s_epik_cmdline>
J2VwaWtfcHl0aG9uJywgJy1waCcsICc3LjAnLCAnLXRuJywgJzgnLCAnLW1hJywgJzIwMCcsICctbWV0YWxfYmluZGluZycsICctaW1hZScsICc8aW5maWxlLm1hZT4nLCAnLW9tYWUnLCAnPG91dGZpbGUubWFlPic=

> <r_epik_Ionization_Penalty>
1.7979

> <r_epik_Ionization_Penalty_Charging>
3.23819e-08

> <r_epik_Ionization_Penalty_Neutral>
1.7979

> <r_epik_State_Penalty>
1.91135

> <r_epik_Charging_Adjusted_Penalty>
1.91135

> <i_epik_Tot_Q>
-1

> <i_epik_Tot_abs_Q>
1

> <r_epik_Metal_State_Penalty>
0.014155

> <b_epik_Metal_Only>
0

> <s_lp_Force_Field>
OPLS_2005

> <r_lp_Energy>
21.5696

> <b_lp_Chiralities_Consistent>
1

> <s_lp_Variant>
AV-unprocessed.smi:649-3

> <Gold.Version>
5.8.1

> <Gold.Id.Protein>
6NUR|6NUR_protein|mol2

> <Gold.PLP.Fitness>
41.3630

> <Gold.PLP.PLP>
-39.3166

> <Gold.PLP.part.hbond>
-1.0000

> <Gold.PLP.part.metal>
0.0000

> <Gold.PLP.part.buried>
-6.8424

> <Gold.PLP.part.nonpolar>
-32.8953

> <Gold.PLP.part.repulsive>
0.3965

> <Gold.PLP.ligand.clash>
0.0000

> <Gold.PLP.ligand.torsion>
0.5157

> <Gold.PLP.Chemscore.Hbond>
1.0000

> <Gold.PLP.Chemscore.CHOScore>
0.0000

> <Gold.PLP.Chemscore.Metal>
0.0000

> <Gold.Chemscore.Hbonds>
donor molecule, donor type, donor heavy atom, donor atom, acceptor molecule, acceptor atom, score
      P1  H  6896  6909       L1    16  0.80

> <Gold.PLP.Chemscore.Internal.Correction>
0.0777

> <Gold.Rescore>
     Score         DG    S(hbond)    S(metal)    S(lipo)     H(rot)  DE(clash)    DE(int)     intcor
     13.75     -14.09       0.97        0.00      91.60       2.09       0.01       0.32       ----

> <Gold.Chemscore.Fitness>
13.7540

> <Gold.Chemscore.DG>
-14.0887

> <Gold.Chemscore.ZeroCoef>
-5.4800

> <Gold.Chemscore.Hbond>
0.9681

> <Gold.Chemscore.Metal>
0.0000

> <Gold.Chemscore.Lipo>
91.6020

> <Gold.Chemscore.Internal_Hbond>
0.0000

> <Gold.Chemscore.DEClash>
0.0135

> <Gold.Chemscore.DEInternal>
0.3212

> <Gold.Chemscore.Rot>
2.0868

> <Gold.Chemscore.Internal.Correction>
   9.000000E+99

> <Gold.Chemscore.Hbonds>
donor molecule, donor type, donor heavy atom, donor atom, acceptor molecule, acceptor atom, score
      P1  H  6896  6909       L1    16  0.75

> <Gold.Chemscore.Hbond.Weighted>
-3.2335

> <Gold.Chemscore.Metal.Weighted>
-0.0000

> <Gold.Chemscore.Lipo.Weighted>
-10.7174

> <Gold.Chemscore.Internal_Hbond.Weighted>
0.0000

> <Gold.Chemscore.DEClash.Weighted>
0.0135

> <Gold.Chemscore.DEInternal.Weighted>
0.3212

> <Gold.Chemscore.Rot.Weighted>
5.3423

> <Gold.Chemscore.Internal.Correction.Weighted>
   9.000000E+99

> <Gold.Protein.RotatedTorsions>
[ 6907 6896 6895 6894 ] final  -68.99 input  -60.11 | X-H torsion
[ 7974 7965 7964 7962 ] final -176.24 input  175.53 | X-H torsion
[ 8008 7997 7996 7995 ] final   87.36 input   59.86 | X-H torsion
[ 10167 10162 10161 10158 ] final -152.37 input  -65.29 | X-H torsion
[ 10718 10713 10712 10709 ] final  -39.05 input   66.30 | X-H torsion
[ 10763 10752 10751 10750 ] final  150.11 input  -60.55 | X-H torsion
[ 11005 11000 10999 10996 ] final  175.59 input  -57.11 | X-H torsion

> <Gold.Protein.ActiveResidues>
 VAL166  LYS551  ARG553  GLY616  TRP617  ASP618  TYR619  PRO620  LYS621  CYS622 
 ASP623  PHE694  ASN695  SER759  ASP760  ASP761  ALA762  ILE779  LEU786  VAL792 
 PHE793  MET794  SER795  GLU796  ALA797  LYS798  CYS799  TRP800  GLU811  SER814 

> <Gold.Protein.RotatedAtoms>
  150.7328  134.5660  159.5865 H   0  0  0  0  0  0  0  0  0  0  0  0  # atno 6907 bound_to 6896
  152.3111  134.7493  160.0345 H   0  0  0  0  0  0  0  0  0  0  0  0  # atno 6908 bound_to 6896
  151.8040  133.3338  159.3572 H   0  0  0  0  0  0  0  0  0  0  0  0  # atno 6909 bound_to 6896
  144.7127  140.1200  143.6406 H   0  0  0  0  0  0  0  0  0  0  0  0  # atno 7974 bound_to 7965
  155.9744  140.3383  155.6605 H   0  0  0  0  0  0  0  0  0  0  0  0  # atno 8008 bound_to 7997
  155.6632  140.0718  157.2565 H   0  0  0  0  0  0  0  0  0  0  0  0  # atno 8009 bound_to 7997
  154.4175  140.1705  156.1786 H   0  0  0  0  0  0  0  0  0  0  0  0  # atno 8010 bound_to 7997
  139.7188  143.8991  152.2495 H   0  0  0  0  0  0  0  0  0  0  0  0  # atno 10167 bound_to 10162
  156.2969  130.4235  149.8182 H   0  0  0  0  0  0  0  0  0  0  0  0  # atno 10718 bound_to 10713
  154.0821  135.2858  155.3288 H   0  0  0  0  0  0  0  0  0  0  0  0  # atno 10763 bound_to 10752
  154.6676  135.5311  153.8101 H   0  0  0  0  0  0  0  0  0  0  0  0  # atno 10764 bound_to 10752
  153.0445  135.6549  154.0996 H   0  0  0  0  0  0  0  0  0  0  0  0  # atno 10765 bound_to 10752
  140.3638  134.7089  157.4348 H   0  0  0  0  0  0  0  0  0  0  0  0  # atno 11005 bound_to 11000
  145.9380  139.2650  143.1286 LP  0  0  0  0  0  0  0  0  0  0  0  0  # atno 17320 bound_to 7965
  145.9454  140.8949  143.0286 LP  0  0  0  0  0  0  0  0  0  0  0  0  # atno 17321 bound_to 7965
  139.8881  144.6981  150.8801 LP  0  0  0  0  0  0  0  0  0  0  0  0  # atno 17342 bound_to 10162
  140.7749  143.3608  151.1832 LP  0  0  0  0  0  0  0  0  0  0  0  0  # atno 17343 bound_to 10162
  156.5575  130.8369  151.3318 LP  0  0  0  0  0  0  0  0  0  0  0  0  # atno 17370 bound_to 10713
  157.7357  130.9767  150.2099 LP  0  0  0  0  0  0  0  0  0  0  0  0  # atno 17371 bound_to 10713
  140.0605  134.6002  155.8754 LP  0  0  0  0  0  0  0  0  0  0  0  0  # atno 17394 bound_to 11000
  141.1976  133.6597  156.5748 LP  0  0  0  0  0  0  0  0  0  0  0  0  # atno 17395 bound_to 11000

$$$$
