AV-unprocessed.smi:148|AV-procd|sdf|1214|dock10
  -GOLD-   2262018393D 1   1.00000     0.00000
 Structure written by MMmdl.
 63 67  0  0  0  0  0  0  0  0  1 V2000
  146.4571  134.1901  156.8216 O   0  0  0  0  0  0  0  0  0  0  0  0
  146.2183  134.0414  158.2057 C   0  0  0  0  0  0  0  0  0  0  0  0
  146.8412  135.2066  159.0108 C   0  0  2  0  0  0  0  0  0  0  0  0
  148.3808  135.2670  158.8287 C   0  0  0  0  0  0  0  0  0  0  0  0
  148.8806  136.6290  158.7599 N   0  0  0  0  0  0  0  0  0  0  0  0
  148.1323  137.7814  158.8354 C   0  0  0  0  0  0  0  0  0  0  0  0
  148.8104  138.8915  158.7333 N   0  0  0  0  0  0  0  0  0  0  0  0
  150.1265  138.4725  158.5767 C   0  0  0  0  0  0  0  0  0  0  0  0
  151.3711  139.1404  158.3930 C   0  0  0  0  0  0  0  0  0  0  0  0
  151.5291  140.4819  158.3119 N   0  0  0  0  0  0  0  0  0  0  0  0
  152.2369  140.9594  159.5008 C   0  0  0  0  0  0  0  0  0  0  0  0
  152.6539  142.4295  159.3599 C   0  0  0  0  0  0  0  0  0  0  0  0
  151.4385  143.2999  159.0251 C   0  0  0  0  0  0  0  0  0  0  0  0
  150.7566  142.7656  157.7595 C   0  0  0  0  0  0  0  0  0  0  0  0
  150.3508  141.2766  157.9147 C   0  0  1  0  0  0  0  0  0  0  0  0
  149.5995  140.7137  156.6639 C   0  0  1  0  0  0  0  0  0  0  0  0
  148.1493  141.2169  156.5166 C   0  0  0  0  0  0  0  0  0  0  0  0
  147.8650  141.3114  155.0092 C   0  0  0  0  0  0  0  0  0  0  0  0
  149.0855  140.7105  154.3099 C   0  0  0  0  0  0  0  0  0  0  0  0
  150.2357  140.9617  155.2835 C   0  0  2  0  0  0  0  0  0  0  0  0
  151.3169  140.0944  155.0148 O   0  0  0  0  0  0  0  0  0  0  0  0
  152.4916  138.3824  158.3025 N   0  0  0  0  0  0  0  0  0  0  0  0
  152.4036  137.0501  158.3533 C   0  0  0  0  0  0  0  0  0  0  0  0
  151.3156  136.2897  158.4946 N   0  0  0  0  0  0  0  0  0  0  0  0
  150.1896  137.0512  158.6082 C   0  0  0  0  0  0  0  0  0  0  0  0
  146.3948  135.1817  160.4993 C   0  0  2  0  0  0  0  0  0  0  0  0
  146.6982  136.4459  161.3062 C   0  0  0  0  0  0  0  0  0  0  0  0
  147.3697  135.9256  162.5773 C   0  0  0  0  0  0  0  0  0  0  0  0
  146.9283  134.5813  162.6749 O   0  0  0  0  0  0  0  0  0  0  0  0
  146.9691  134.0490  161.3616 C   0  0  0  0  0  0  0  0  0  0  0  0
  146.1659  133.4066  156.3807 H   0  0  0  0  0  0  0  0  0  0  0  0
  145.1447  133.9755  158.3836 H   0  0  0  0  0  0  0  0  0  0  0  0
  146.6464  133.0838  158.5004 H   0  0  0  0  0  0  0  0  0  0  0  0
  146.4413  136.1293  158.5869 H   0  0  0  0  0  0  0  0  0  0  0  0
  148.8982  134.7725  159.6497 H   0  0  0  0  0  0  0  0  0  0  0  0
  148.6842  134.7482  157.9199 H   0  0  0  0  0  0  0  0  0  0  0  0
  147.0593  137.7714  158.9604 H   0  0  0  0  0  0  0  0  0  0  0  0
  151.5911  140.8439  160.3727 H   0  0  0  0  0  0  0  0  0  0  0  0
  153.1233  140.3486  159.6804 H   0  0  0  0  0  0  0  0  0  0  0  0
  153.1225  142.7751  160.2815 H   0  0  0  0  0  0  0  0  0  0  0  0
  153.4037  142.5243  158.5732 H   0  0  0  0  0  0  0  0  0  0  0  0
  150.7341  143.2949  159.8579 H   0  0  0  0  0  0  0  0  0  0  0  0
  151.7461  144.3358  158.8794 H   0  0  0  0  0  0  0  0  0  0  0  0
  149.8927  143.3888  157.5330 H   0  0  0  0  0  0  0  0  0  0  0  0
  151.4508  142.8859  156.9284 H   0  0  0  0  0  0  0  0  0  0  0  0
  149.6515  141.2324  158.7497 H   0  0  0  0  0  0  0  0  0  0  0  0
  149.4922  139.6334  156.7660 H   0  0  0  0  0  0  0  0  0  0  0  0
  147.4587  140.5278  157.0046 H   0  0  0  0  0  0  0  0  0  0  0  0
  147.9940  142.1902  156.9796 H   0  0  0  0  0  0  0  0  0  0  0  0
  146.9430  140.8012  154.7287 H   0  0  0  0  0  0  0  0  0  0  0  0
  147.7583  142.3589  154.7242 H   0  0  0  0  0  0  0  0  0  0  0  0
  148.9333  139.6381  154.1776 H   0  0  0  0  0  0  0  0  0  0  0  0
  149.2630  141.1447  153.3255 H   0  0  0  0  0  0  0  0  0  0  0  0
  150.5648  141.9936  155.1722 H   0  0  0  0  0  0  0  0  0  0  0  0
  151.1753  139.2842  155.4812 H   0  0  0  0  0  0  0  0  0  0  0  0
  153.3387  136.5173  158.2636 H   0  0  0  0  0  0  0  0  0  0  0  0
  145.3096  135.0733  160.5254 H   0  0  0  0  0  0  0  0  0  0  0  0
  147.3274  137.1680  160.7871 H   0  0  0  0  0  0  0  0  0  0  0  0
  145.7665  136.9558  161.5549 H   0  0  0  0  0  0  0  0  0  0  0  0
  148.4558  135.9413  162.4725 H   0  0  0  0  0  0  0  0  0  0  0  0
  147.1030  136.5030  163.4626 H   0  0  0  0  0  0  0  0  0  0  0  0
  146.3883  133.1296  161.2853 H   0  0  0  0  0  0  0  0  0  0  0  0
  148.0041  133.8162  161.1148 H   0  0  0  0  0  0  0  0  0  0  0  0
  1  2  1  0  0  0  0
  1 31  1  0  0  0  0
  2  3  1  0  0  0  0
  2 32  1  0  0  0  0
  2 33  1  0  0  0  0
  3  4  1  0  0  0  0
  3 26  1  0  0  0  0
  3 34  1  0  0  0  0
  4  5  1  0  0  0  0
  4 35  1  0  0  0  0
  4 36  1  0  0  0  0
  5 25  1  0  0  0  0
  5  6  1  0  0  0  0
  6  7  2  0  0  0  0
  6 37  1  0  0  0  0
  7  8  1  0  0  0  0
  8 25  2  0  0  0  0
  8  9  1  0  0  0  0
  9 10  1  0  0  0  0
  9 22  2  0  0  0  0
 10 15  1  0  0  0  0
 10 11  1  0  0  0  0
 11 12  1  0  0  0  0
 11 38  1  0  0  0  0
 11 39  1  0  0  0  0
 12 13  1  0  0  0  0
 12 40  1  0  0  0  0
 12 41  1  0  0  0  0
 13 14  1  0  0  0  0
 13 42  1  0  0  0  0
 13 43  1  0  0  0  0
 14 15  1  0  0  0  0
 14 44  1  0  0  0  0
 14 45  1  0  0  0  0
 15 16  1  0  0  0  0
 15 46  1  0  0  0  0
 16 20  1  0  0  0  0
 16 17  1  0  0  0  0
 16 47  1  0  0  0  0
 17 18  1  0  0  0  0
 17 48  1  0  0  0  0
 17 49  1  0  0  0  0
 18 19  1  0  0  0  0
 18 50  1  0  0  0  0
 18 51  1  0  0  0  0
 19 20  1  0  0  0  0
 19 52  1  0  0  0  0
 19 53  1  0  0  0  0
 20 21  1  0  0  0  0
 20 54  1  0  0  0  0
 21 55  1  0  0  0  0
 22 23  1  0  0  0  0
 23 24  2  0  0  0  0
 23 56  1  0  0  0  0
 24 25  1  0  0  0  0
 26 30  1  0  0  0  0
 26 27  1  0  0  0  0
 26 57  1  0  0  0  0
 27 28  1  0  0  0  0
 27 58  1  0  0  0  0
 27 59  1  0  0  0  0
 28 29  1  0  0  0  0
 28 60  1  0  0  0  0
 28 61  1  0  0  0  0
 29 30  1  0  0  0  0
 30 62  1  0  0  0  0
 30 63  1  0  0  0  0
M  END
> <s_m_source_file>
AV-unprocessed.smi

> <i_m_source_file_index>
148

> <i_lp_mmshare_version>
43012

> <i_f3d_flags>
0

> <s_epik_input>
W0NIMl0xT1tDSDJdW0NIMl1bQ0BIXTFbQ0BIXShbQ0gyXVtPSF0pW0NIMl1uKFtjSF1uMiljKGMyMyluW2NIXW5jM040W0NIMl1bQ0gyXVtDSDJdW0NIMl1bQ0BIXTRbQ0BASF01W0NIMl1bQ0gyXVtDSDJdW0NASF01W09IXQ==

> <s_epik_cmdline>
J2VwaWtfcHl0aG9uJywgJy1waCcsICc3LjAnLCAnLXRuJywgJzgnLCAnLW1hJywgJzIwMCcsICctbWV0YWxfYmluZGluZycsICctaW1hZScsICc8aW5maWxlLm1hZT4nLCAnLW9tYWUnLCAnPG91dGZpbGUubWFlPic=

> <r_lp_tautomer_probability>
1

> <r_epik_Ionization_Penalty>
0.00556303

> <r_epik_Ionization_Penalty_Charging>
0

> <r_epik_Ionization_Penalty_Neutral>
0.00556303

> <r_epik_State_Penalty>
0.00401767

> <r_epik_Charging_Adjusted_Penalty>
0.00401767

> <i_epik_Tot_Q>
0

> <i_epik_Tot_abs_Q>
0

> <r_epik_Metal_State_Penalty>
-0

> <b_epik_Metal_Only>
0

> <s_lp_Force_Field>
OPLS_2005

> <r_lp_Energy>
68.8384

> <b_lp_Chiralities_Consistent>
1

> <s_lp_Variant>
AV-unprocessed.smi:148-13

> <Gold.Version>
5.8.1

> <Gold.Id.Protein>
6NUR|6NUR_protein|mol2

> <Gold.PLP.Fitness>
46.6562

> <Gold.PLP.PLP>
-43.8916

> <Gold.PLP.part.hbond>
-3.5752

> <Gold.PLP.part.metal>
0.0000

> <Gold.PLP.part.buried>
-4.0414

> <Gold.PLP.part.nonpolar>
-37.0317

> <Gold.PLP.part.repulsive>
0.0000

> <Gold.PLP.ligand.clash>
0.2237

> <Gold.PLP.ligand.torsion>
1.1672

> <Gold.PLP.Chemscore.Hbond>
1.6400

> <Gold.PLP.Chemscore.CHOScore>
0.0000

> <Gold.PLP.Chemscore.Metal>
0.0000

> <Gold.Chemscore.Hbonds>
donor molecule, donor type, donor heavy atom, donor atom, acceptor molecule, acceptor atom, score
      P1  H  6896  6909       L1    24  0.62
      P1  H  7989  7998       L1    21  0.60

> <Gold.PLP.Chemscore.Internal.Correction>
0.4027

> <Gold.Rescore>
     Score         DG    S(hbond)    S(metal)    S(lipo)     H(rot)  DE(clash)    DE(int)     intcor
      7.02     -12.67       0.98        0.00     106.07       3.32       0.56       5.09       ----

> <Gold.Chemscore.Fitness>
7.0169

> <Gold.Chemscore.DG>
-12.6713

> <Gold.Chemscore.ZeroCoef>
-5.4800

> <Gold.Chemscore.Hbond>
0.9824

> <Gold.Chemscore.Metal>
0.0000

> <Gold.Chemscore.Lipo>
106.0701

> <Gold.Chemscore.Internal_Hbond>
0.0000

> <Gold.Chemscore.DEClash>
0.5637

> <Gold.Chemscore.DEInternal>
5.0908

> <Gold.Chemscore.Rot>
3.3203

> <Gold.Chemscore.Internal.Correction>
   9.000000E+99

> <Gold.Chemscore.Hbonds>
donor molecule, donor type, donor heavy atom, donor atom, acceptor molecule, acceptor atom, score
      P1  H  6896  6909       L1    24  0.33
      P1  H  7989  7998       L1    21  0.04

> <Gold.Chemscore.Hbond.Weighted>
-3.2811

> <Gold.Chemscore.Metal.Weighted>
-0.0000

> <Gold.Chemscore.Lipo.Weighted>
-12.4102

> <Gold.Chemscore.Internal_Hbond.Weighted>
0.0000

> <Gold.Chemscore.DEClash.Weighted>
0.5637

> <Gold.Chemscore.DEInternal.Weighted>
5.0908

> <Gold.Chemscore.Rot.Weighted>
8.5000

> <Gold.Chemscore.Internal.Correction.Weighted>
   9.000000E+99

> <Gold.Protein.RotatedTorsions>
[ 6907 6896 6895 6894 ] final  100.32 input  -60.11 | X-H torsion
[ 7974 7965 7964 7962 ] final  -66.50 input  175.53 | X-H torsion
[ 8008 7997 7996 7995 ] final   85.30 input   59.86 | X-H torsion
[ 10167 10162 10161 10158 ] final -113.63 input  -65.29 | X-H torsion
[ 10718 10713 10712 10709 ] final -122.20 input   66.30 | X-H torsion
[ 10763 10752 10751 10750 ] final  -25.91 input  -60.55 | X-H torsion
[ 11005 11000 10999 10996 ] final  143.59 input  -57.11 | X-H torsion

> <Gold.Protein.ActiveResidues>
 VAL166  LYS551  ARG553  GLY616  TRP617  ASP618  TYR619  PRO620  LYS621  CYS622 
 ASP623  PHE694  ASN695  SER759  ASP760  ASP761  ALA762  ILE779  LEU786  VAL792 
 PHE793  MET794  SER795  GLU796  ALA797  LYS798  CYS799  TRP800  GLU811  SER814 

> <Gold.Protein.RotatedAtoms>
  152.5374  134.0295  159.8018 H   0  0  0  0  0  0  0  0  0  0  0  0  # atno 6907 bound_to 6896
  151.0468  133.5650  159.2653 H   0  0  0  0  0  0  0  0  0  0  0  0  # atno 6908 bound_to 6896
  151.2599  135.0658  159.9148 H   0  0  0  0  0  0  0  0  0  0  0  0  # atno 6909 bound_to 6896
  145.7410  140.8953  143.0530 H   0  0  0  0  0  0  0  0  0  0  0  0  # atno 7974 bound_to 7965
  155.9482  140.3403  155.6385 H   0  0  0  0  0  0  0  0  0  0  0  0  # atno 8008 bound_to 7997
  155.6953  140.0754  157.2450 H   0  0  0  0  0  0  0  0  0  0  0  0  # atno 8009 bound_to 7997
  154.4116  140.1650  156.2119 H   0  0  0  0  0  0  0  0  0  0  0  0  # atno 8010 bound_to 7997
  140.1097  143.4538  152.1760 H   0  0  0  0  0  0  0  0  0  0  0  0  # atno 10167 bound_to 10162
  156.1399  130.6458  150.9755 H   0  0  0  0  0  0  0  0  0  0  0  0  # atno 10718 bound_to 10713
  153.7074  135.6953  153.5046 H   0  0  0  0  0  0  0  0  0  0  0  0  # atno 10763 bound_to 10752
  153.2298  135.4341  155.0581 H   0  0  0  0  0  0  0  0  0  0  0  0  # atno 10764 bound_to 10752
  154.8325  135.3481  154.6611 H   0  0  0  0  0  0  0  0  0  0  0  0  # atno 10765 bound_to 10752
  140.0566  134.9227  157.1111 H   0  0  0  0  0  0  0  0  0  0  0  0  # atno 11005 bound_to 11000
  144.6870  139.9461  143.7476 LP  0  0  0  0  0  0  0  0  0  0  0  0  # atno 17320 bound_to 7965
  146.0448  139.3455  143.0675 LP  0  0  0  0  0  0  0  0  0  0  0  0  # atno 17321 bound_to 7965
  139.5626  144.7415  151.4113 LP  0  0  0  0  0  0  0  0  0  0  0  0  # atno 17342 bound_to 10162
  140.6932  143.7811  150.7287 LP  0  0  0  0  0  0  0  0  0  0  0  0  # atno 17343 bound_to 10162
  157.6566  131.0888  150.7933 LP  0  0  0  0  0  0  0  0  0  0  0  0  # atno 17370 bound_to 10713
  156.8009  130.4921  149.5370 LP  0  0  0  0  0  0  0  0  0  0  0  0  # atno 17371 bound_to 10713
  140.3835  134.2261  155.7169 LP  0  0  0  0  0  0  0  0  0  0  0  0  # atno 17394 bound_to 11000
  141.1954  133.8105  157.0714 LP  0  0  0  0  0  0  0  0  0  0  0  0  # atno 17395 bound_to 11000

$$$$
