AV-unprocessed.smi:109|AV-procd|sdf|1057|dock8
  -GOLD-   2262018123D 1   1.00000     0.00000
 Structure written by MMmdl.
 58 61  0  0  0  0  0  0  0  0  1 V2000
  149.6213  140.8980  153.3528 O   0  0  0  0  0  0  0  0  0  0  0  0
  149.7257  140.2658  154.6105 C   0  0  0  0  0  0  0  0  0  0  0  0
  150.4634  141.1860  155.5977 C   0  0  0  0  0  0  0  0  0  0  0  0
  151.0156  140.4685  156.8552 C   0  0  2  0  0  0  0  0  0  0  0  0
  149.9042  139.9080  157.6284 N   0  0  0  0  0  0  0  0  0  0  0  0
  149.8411  138.5982  157.9602 C   0  0  0  0  0  0  0  0  0  0  0  0
  150.0259  138.1790  159.2389 N   0  0  0  0  0  0  0  0  0  0  0  0
  149.9721  136.8765  159.5319 C   0  0  0  0  0  0  0  0  0  0  0  0
  149.7493  135.8461  158.7133 N   0  0  0  0  0  0  0  0  0  0  0  0
  149.5570  136.2606  157.4276 C   0  0  0  0  0  0  0  0  0  0  0  0
  149.5862  137.6094  156.9748 C   0  0  0  0  0  0  0  0  0  0  0  0
  149.3522  137.6510  155.6066 N   0  0  0  0  0  0  0  0  0  0  0  0
  149.1974  136.3973  155.2741 C   0  0  0  0  0  0  0  0  0  0  0  0
  149.3036  135.4941  156.3086 N   0  0  0  0  0  0  0  0  0  0  0  0
  149.1946  134.0059  156.2346 C   0  0  1  0  0  0  0  0  0  0  0  0
  149.0252  133.6556  154.8933 O   0  0  0  0  0  0  0  0  0  0  0  0
  149.7585  132.4711  154.6035 C   0  0  2  0  0  0  0  0  0  0  0  0
  148.8566  131.2496  154.8835 C   0  0  0  0  0  0  0  0  0  0  0  0
  149.5779  130.0468  154.7176 O   0  0  0  0  0  0  0  0  0  0  0  0
  150.9974  132.6259  155.4964 C   0  0  2  0  0  0  0  0  0  0  0  0
  151.7094  131.4272  155.7472 O   0  0  0  0  0  0  0  0  0  0  0  0
  150.4726  133.3211  156.7519 C   0  0  2  0  0  0  0  0  0  0  0  0
  150.1734  132.3987  157.7835 O   0  0  0  0  0  0  0  0  0  0  0  0
  151.8663  141.3969  157.7704 C   0  0  0  0  0  0  0  0  0  0  0  0
  152.5466  140.6433  158.9419 C   0  0  0  0  0  0  0  0  0  0  0  0
  153.3525  141.5806  159.8566 C   0  0  0  0  0  0  0  0  0  0  0  0
  152.4820  142.7187  160.4019 C   0  0  0  0  0  0  0  0  0  0  0  0
  151.8257  143.4923  159.2525 C   0  0  0  0  0  0  0  0  0  0  0  0
  151.0112  142.5548  158.3473 C   0  0  0  0  0  0  0  0  0  0  0  0
  148.3020  133.7596  156.8119 H   0  0  0  0  0  0  0  0  0  0  0  0
  150.0339  132.4835  153.5481 H   0  0  0  0  0  0  0  0  0  0  0  0
  151.6856  133.3055  154.9937 H   0  0  0  0  0  0  0  0  0  0  0  0
  151.1894  134.0505  157.1318 H   0  0  0  0  0  0  0  0  0  0  0  0
  149.5840  140.2319  152.6835 H   0  0  0  0  0  0  0  0  0  0  0  0
  148.7214  140.0301  154.9624 H   0  0  0  0  0  0  0  0  0  0  0  0
  150.2617  139.3242  154.4891 H   0  0  0  0  0  0  0  0  0  0  0  0
  151.2822  141.6404  155.0428 H   0  0  0  0  0  0  0  0  0  0  0  0
  149.8065  142.0028  155.8997 H   0  0  0  0  0  0  0  0  0  0  0  0
  151.6828  139.6756  156.5174 H   0  0  0  0  0  0  0  0  0  0  0  0
  149.1830  140.5663  157.8869 H   0  0  0  0  0  0  0  0  0  0  0  0
  150.1328  136.6237  160.5697 H   0  0  0  0  0  0  0  0  0  0  0  0
  149.0014  136.0949  154.2555 H   0  0  0  0  0  0  0  0  0  0  0  0
  148.4165  131.2834  155.8796 H   0  0  0  0  0  0  0  0  0  0  0  0
  148.0296  131.2333  154.1733 H   0  0  0  0  0  0  0  0  0  0  0  0
  149.7044  129.8981  153.7928 H   0  0  0  0  0  0  0  0  0  0  0  0
  151.5924  130.8495  155.0081 H   0  0  0  0  0  0  0  0  0  0  0  0
  150.8094  131.7001  157.7468 H   0  0  0  0  0  0  0  0  0  0  0  0
  152.6563  141.8372  157.1596 H   0  0  0  0  0  0  0  0  0  0  0  0
  151.7920  140.1197  159.5303 H   0  0  0  0  0  0  0  0  0  0  0  0
  153.2340  139.8851  158.5712 H   0  0  0  0  0  0  0  0  0  0  0  0
  153.7810  141.0134  160.6834 H   0  0  0  0  0  0  0  0  0  0  0  0
  154.1932  141.9976  159.3006 H   0  0  0  0  0  0  0  0  0  0  0  0
  151.7124  142.3110  161.0584 H   0  0  0  0  0  0  0  0  0  0  0  0
  153.0857  143.3926  161.0102 H   0  0  0  0  0  0  0  0  0  0  0  0
  151.1805  144.2744  159.6536 H   0  0  0  0  0  0  0  0  0  0  0  0
  152.5927  143.9960  158.6628 H   0  0  0  0  0  0  0  0  0  0  0  0
  150.5739  143.1504  157.5461 H   0  0  0  0  0  0  0  0  0  0  0  0
  150.1731  142.1444  158.9125 H   0  0  0  0  0  0  0  0  0  0  0  0
  1  2  1  0  0  0  0
  1 34  1  0  0  0  0
  2  3  1  0  0  0  0
  2 35  1  0  0  0  0
  2 36  1  0  0  0  0
  3  4  1  0  0  0  0
  3 37  1  0  0  0  0
  3 38  1  0  0  0  0
  4  5  1  0  0  0  0
  4 24  1  0  0  0  0
  4 39  1  0  0  0  0
  5  6  1  0  0  0  0
  5 40  1  0  0  0  0
  6 11  1  0  0  0  0
  6  7  2  0  0  0  0
  7  8  1  0  0  0  0
  8  9  2  0  0  0  0
  8 41  1  0  0  0  0
  9 10  1  0  0  0  0
 10 14  1  0  0  0  0
 10 11  2  0  0  0  0
 11 12  1  0  0  0  0
 12 13  2  0  0  0  0
 13 14  1  0  0  0  0
 13 42  1  0  0  0  0
 14 15  1  0  0  0  0
 15 30  1  0  0  0  0
 15 22  1  0  0  0  0
 15 16  1  0  0  0  0
 16 17  1  0  0  0  0
 17 31  1  0  0  0  0
 17 18  1  0  0  0  0
 17 20  1  0  0  0  0
 18 19  1  0  0  0  0
 18 43  1  0  0  0  0
 18 44  1  0  0  0  0
 19 45  1  0  0  0  0
 20 32  1  0  0  0  0
 20 21  1  0  0  0  0
 20 22  1  0  0  0  0
 21 46  1  0  0  0  0
 22 33  1  0  0  0  0
 22 23  1  0  0  0  0
 23 47  1  0  0  0  0
 24 29  1  0  0  0  0
 24 25  1  0  0  0  0
 24 48  1  0  0  0  0
 25 26  1  0  0  0  0
 25 49  1  0  0  0  0
 25 50  1  0  0  0  0
 26 27  1  0  0  0  0
 26 51  1  0  0  0  0
 26 52  1  0  0  0  0
 27 28  1  0  0  0  0
 27 53  1  0  0  0  0
 27 54  1  0  0  0  0
 28 29  1  0  0  0  0
 28 55  1  0  0  0  0
 28 56  1  0  0  0  0
 29 57  1  0  0  0  0
 29 58  1  0  0  0  0
M  END
> <s_m_source_file>
AV-unprocessed.smi

> <i_m_source_file_index>
109

> <i_lp_mmshare_version>
43012

> <i_f3d_flags>
0

> <s_epik_input>
W0NIMl0xW0NIMl1bQ0gyXVtDSDJdW0NIMl1bQ0hdMVtDQEhdKFtDSDJdW0NIMl1bT0hdKVtOSF1jKG5bY0hdbjIpYyhjMjMpbltjSF1uM1tDQEBIXTRPW0NASF0oW0NIMl1bT0hdKVtDQEBIXShbT0hdKVtDQEhdNFtPSF0=

> <s_epik_cmdline>
J2VwaWtfcHl0aG9uJywgJy1waCcsICc3LjAnLCAnLXRuJywgJzgnLCAnLW1hJywgJzIwMCcsICctbWV0YWxfYmluZGluZycsICctaW1hZScsICc8aW5maWxlLm1hZT4nLCAnLW9tYWUnLCAnPG91dGZpbGUubWFlPic=

> <r_lp_tautomer_probability>
1

> <r_epik_Ionization_Penalty>
0.000793976

> <r_epik_Ionization_Penalty_Charging>
0

> <r_epik_Ionization_Penalty_Neutral>
0.000793976

> <r_epik_State_Penalty>
-0

> <r_epik_Charging_Adjusted_Penalty>
0

> <i_epik_Tot_Q>
0

> <i_epik_Tot_abs_Q>
0

> <r_epik_Metal_State_Penalty>
-0

> <b_epik_Metal_Only>
0

> <s_epik_Chemistry_Notes>
This compound contains an acetal/aminal-like group ( X-CH(R)-Y where X, Y are N, S, or O) that may be acid/base labile, releasing an aldehyde.

> <s_lp_Force_Field>
OPLS_2005

> <r_lp_Energy>
58.5181

> <b_lp_Chiralities_Consistent>
1

> <s_lp_Variant>
AV-unprocessed.smi:109-27

> <Gold.Version>
5.8.1

> <Gold.Id.Protein>
6NUR|6NUR_protein|mol2

> <Gold.PLP.Fitness>
51.4503

> <Gold.PLP.PLP>
-41.3144

> <Gold.PLP.part.hbond>
-5.4011

> <Gold.PLP.part.metal>
0.0000

> <Gold.PLP.part.buried>
-5.2802

> <Gold.PLP.part.nonpolar>
-30.8739

> <Gold.PLP.part.repulsive>
0.2270

> <Gold.PLP.ligand.clash>
0.0000

> <Gold.PLP.ligand.torsion>
0.8459

> <Gold.PLP.Chemscore.Hbond>
2.8689

> <Gold.PLP.Chemscore.CHOScore>
1.0000

> <Gold.PLP.Chemscore.Metal>
0.0000

> <Gold.Chemscore.Hbonds>
donor molecule, donor type, donor heavy atom, donor atom, acceptor molecule, acceptor atom, score
      L1  H     1    34       P1  7957  0.83
      P1  H  6896  6909       L1     9  1.00
      P1  H  7989  7998       L1     1  0.03
      P1  H  8011  8017       L1     1  1.00
      L1  C    13    42       P1  7948  1.00

> <Gold.PLP.Chemscore.Internal.Correction>
0.2211

> <Gold.Rescore>
     Score         DG    S(hbond)    S(metal)    S(lipo)     H(rot)  DE(clash)    DE(int)     intcor
      7.26      -9.53       2.02        0.00      96.57       5.47       0.06       2.21       ----

> <Gold.Chemscore.Fitness>
7.2613

> <Gold.Chemscore.DG>
-9.5267

> <Gold.Chemscore.ZeroCoef>
-5.4800

> <Gold.Chemscore.Hbond>
2.0185

> <Gold.Chemscore.Metal>
0.0000

> <Gold.Chemscore.Lipo>
96.5670

> <Gold.Chemscore.Internal_Hbond>
0.0000

> <Gold.Chemscore.DEClash>
0.0557

> <Gold.Chemscore.DEInternal>
2.2097

> <Gold.Chemscore.Rot>
5.4662

> <Gold.Chemscore.Internal.Correction>
   9.000000E+99

> <Gold.Chemscore.Hbonds>
donor molecule, donor type, donor heavy atom, donor atom, acceptor molecule, acceptor atom, score
      L1  H     1    34       P1  7957  0.78
      P1  H  6896  6909       L1     9  0.33
      P1  H  8011  8017       L1     1  0.30

> <Gold.Chemscore.Hbond.Weighted>
-6.7418

> <Gold.Chemscore.Metal.Weighted>
-0.0000

> <Gold.Chemscore.Lipo.Weighted>
-11.2983

> <Gold.Chemscore.Internal_Hbond.Weighted>
0.0000

> <Gold.Chemscore.DEClash.Weighted>
0.0557

> <Gold.Chemscore.DEInternal.Weighted>
2.2097

> <Gold.Chemscore.Rot.Weighted>
13.9935

> <Gold.Chemscore.Internal.Correction.Weighted>
   9.000000E+99

> <Gold.Protein.RotatedTorsions>
[ 6907 6896 6895 6894 ] final   44.26 input  -60.11 | X-H torsion
[ 7974 7965 7964 7962 ] final   48.54 input  175.53 | X-H torsion
[ 8008 7997 7996 7995 ] final  161.06 input   59.86 | X-H torsion
[ 10167 10162 10161 10158 ] final  130.25 input  -65.29 | X-H torsion
[ 10718 10713 10712 10709 ] final  -85.61 input   66.30 | X-H torsion
[ 10763 10752 10751 10750 ] final -123.78 input  -60.55 | X-H torsion
[ 11005 11000 10999 10996 ] final  128.43 input  -57.11 | X-H torsion

> <Gold.Protein.ActiveResidues>
 VAL166  LYS551  ARG553  GLY616  TRP617  ASP618  TYR619  PRO620  LYS621  CYS622 
 ASP623  PHE694  ASN695  SER759  ASP760  ASP761  ALA762  ILE779  LEU786  VAL792 
 PHE793  MET794  SER795  GLU796  ALA797  LYS798  CYS799  TRP800  GLU811  SER814 

> <Gold.Protein.RotatedAtoms>
  152.2303  134.8328  160.0474 H   0  0  0  0  0  0  0  0  0  0  0  0  # atno 6907 bound_to 6896
  151.9079  133.3549  159.3861 H   0  0  0  0  0  0  0  0  0  0  0  0  # atno 6908 bound_to 6896
  150.7024  134.4687  159.5459 H   0  0  0  0  0  0  0  0  0  0  0  0  # atno 6909 bound_to 6896
  146.0194  139.4634  142.9906 H   0  0  0  0  0  0  0  0  0  0  0  0  # atno 7974 bound_to 7965
  156.2130  140.1787  156.7653 H   0  0  0  0  0  0  0  0  0  0  0  0  # atno 8008 bound_to 7997
  154.5749  140.0676  156.9049 H   0  0  0  0  0  0  0  0  0  0  0  0  # atno 8009 bound_to 7997
  155.2605  140.3335  155.4276 H   0  0  0  0  0  0  0  0  0  0  0  0  # atno 8010 bound_to 7997
  139.5438  144.6755  151.4537 H   0  0  0  0  0  0  0  0  0  0  0  0  # atno 10167 bound_to 10162
  155.9995  130.4737  150.4588 H   0  0  0  0  0  0  0  0  0  0  0  0  # atno 10718 bound_to 10713
  154.8713  135.4086  154.2999 H   0  0  0  0  0  0  0  0  0  0  0  0  # atno 10763 bound_to 10752
  153.3860  135.7013  153.6535 H   0  0  0  0  0  0  0  0  0  0  0  0  # atno 10764 bound_to 10752
  153.5338  135.3662  155.2659 H   0  0  0  0  0  0  0  0  0  0  0  0  # atno 10765 bound_to 10752
  139.9560  134.9613  156.9000 H   0  0  0  0  0  0  0  0  0  0  0  0  # atno 11005 bound_to 11000
  145.7217  141.0073  143.1399 LP  0  0  0  0  0  0  0  0  0  0  0  0  # atno 17320 bound_to 7965
  144.6984  139.8878  143.7451 LP  0  0  0  0  0  0  0  0  0  0  0  0  # atno 17321 bound_to 7965
  140.6679  143.8357  150.6964 LP  0  0  0  0  0  0  0  0  0  0  0  0  # atno 17342 bound_to 10162
  140.1772  143.4145  152.1959 LP  0  0  0  0  0  0  0  0  0  0  0  0  # atno 17343 bound_to 10162
  157.2614  131.0568  151.2318 LP  0  0  0  0  0  0  0  0  0  0  0  0  # atno 17370 bound_to 10713
  157.3431  130.7043  149.6394 LP  0  0  0  0  0  0  0  0  0  0  0  0  # atno 17371 bound_to 10713
  140.5608  134.0536  155.7398 LP  0  0  0  0  0  0  0  0  0  0  0  0  # atno 17394 bound_to 11000
  141.1231  133.9428  157.2689 LP  0  0  0  0  0  0  0  0  0  0  0  0  # atno 17395 bound_to 11000

$$$$
