AV-unprocessed.smi:1667|AV-procd|sdf|6677|dock6
  -GOLD-   22720 7393D 1   1.00000     0.00000
 Structure written by MMmdl.
 46 48  0  0  0  0  0  0  0  0  2 V2000
  149.5653  134.0163  154.2320 C   0  0  0  0  0  0  0  0  0  0  0  0
  149.9063  135.3101  154.9629 C   0  0  0  0  0  0  0  0  0  0  0  0
  149.4665  135.5163  156.0935 O   0  0  0  0  0  0  0  0  0  0  0  0
  150.6890  136.1773  154.3023 N   0  0  0  0  0  0  0  0  0  0  0  0
  151.1331  137.4674  154.8214 C   0  0  1  0  0  0  0  0  0  0  0  0
  152.4932  137.8345  154.2118 C   0  0  0  0  0  0  0  0  0  0  0  0
  150.1278  138.5516  154.5636 C   0  0  0  0  0  0  0  0  0  0  0  0
  148.9960  138.4274  153.8131 N   0  3  0  0  0  0  0  0  0  0  0  0
  148.3071  139.6393  153.7893 C   0  0  0  0  0  0  0  0  0  0  0  0
  147.1214  139.9979  153.1559 C   0  0  0  0  0  0  0  0  0  0  0  0
  146.6905  141.3296  153.3266 C   0  0  0  0  0  0  0  0  0  0  0  0
  147.4290  142.2454  154.1035 C   0  0  0  0  0  0  0  0  0  0  0  0
  148.6274  141.8683  154.7441 C   0  0  0  0  0  0  0  0  0  0  0  0
  149.0488  140.5495  154.5700 C   0  0  0  0  0  0  0  0  0  0  0  0
  150.1620  139.8339  155.0306 N   0  0  0  0  0  0  0  0  0  0  0  0
  151.1585  140.5055  155.8820 C   0  0  0  0  0  0  0  0  0  0  0  0
  150.8709  140.3144  157.3845 C   0  0  2  0  0  0  0  0  0  0  0  0
  149.5020  140.5794  157.6090 O   0  0  0  0  0  0  0  0  0  0  0  0
  151.7784  141.1662  158.2611 C   0  0  0  0  0  0  0  0  0  0  0  0
  152.6034  140.5713  159.2414 C   0  0  0  0  0  0  0  0  0  0  0  0
  153.4182  141.3729  160.0643 C   0  0  0  0  0  0  0  0  0  0  0  0
  153.4115  142.7728  159.9138 C   0  0  0  0  0  0  0  0  0  0  0  0
  152.5895  143.3714  158.9400 C   0  0  0  0  0  0  0  0  0  0  0  0
  152.5773  144.7179  158.7983 F   0  0  0  0  0  0  0  0  0  0  0  0
  151.7768  142.5704  158.1153 C   0  0  0  0  0  0  0  0  0  0  0  0
  151.2742  137.3638  155.8977 H   0  0  0  0  0  0  0  0  0  0  0  0
  149.0141  134.2308  153.3161 H   0  0  0  0  0  0  0  0  0  0  0  0
  148.9495  133.3685  154.8568 H   0  0  0  0  0  0  0  0  0  0  0  0
  150.4743  133.4737  153.9709 H   0  0  0  0  0  0  0  0  0  0  0  0
  151.0075  135.9209  153.3790 H   0  0  0  0  0  0  0  0  0  0  0  0
  152.8602  138.7782  154.6168 H   0  0  0  0  0  0  0  0  0  0  0  0
  152.4330  137.9388  153.1278 H   0  0  0  0  0  0  0  0  0  0  0  0
  153.2399  137.0707  154.4310 H   0  0  0  0  0  0  0  0  0  0  0  0
  146.5553  139.2981  152.5588 H   0  0  0  0  0  0  0  0  0  0  0  0
  145.7764  141.6553  152.8514 H   0  0  0  0  0  0  0  0  0  0  0  0
  147.0697  143.2586  154.2104 H   0  0  0  0  0  0  0  0  0  0  0  0
  149.1831  142.5834  155.3316 H   0  0  0  0  0  0  0  0  0  0  0  0
  152.1601  140.1647  155.6213 H   0  0  0  0  0  0  0  0  0  0  0  0
  151.1322  141.5657  155.6274 H   0  0  0  0  0  0  0  0  0  0  0  0
  151.0253  139.2666  157.6448 H   0  0  0  0  0  0  0  0  0  0  0  0
  148.9932  140.0773  156.9907 H   0  0  0  0  0  0  0  0  0  0  0  0
  152.6083  139.4989  159.3718 H   0  0  0  0  0  0  0  0  0  0  0  0
  154.0465  140.9135  160.8130 H   0  0  0  0  0  0  0  0  0  0  0  0
  154.0357  143.3870  160.5462 H   0  0  0  0  0  0  0  0  0  0  0  0
  151.1434  143.0382  157.3759 H   0  0  0  0  0  0  0  0  0  0  0  0
  148.7198  137.5719  153.3489 H   0  0  0  0  0  0  0  0  0  0  0  0
  1  2  1  0  0  0  0
  1 27  1  0  0  0  0
  1 28  1  0  0  0  0
  1 29  1  0  0  0  0
  2  3  2  0  0  0  0
  2  4  1  0  0  0  0
  4  5  1  0  0  0  0
  4 30  1  0  0  0  0
  5 26  1  0  0  0  0
  5  6  1  0  0  0  0
  5  7  1  0  0  0  0
  6 31  1  0  0  0  0
  6 32  1  0  0  0  0
  6 33  1  0  0  0  0
  7 15  1  0  0  0  0
  7  8  2  0  0  0  0
  8  9  1  0  0  0  0
  8 46  1  0  0  0  0
  9 14  2  0  0  0  0
  9 10  1  0  0  0  0
 10 11  2  0  0  0  0
 10 34  1  0  0  0  0
 11 12  1  0  0  0  0
 11 35  1  0  0  0  0
 12 13  2  0  0  0  0
 12 36  1  0  0  0  0
 13 14  1  0  0  0  0
 13 37  1  0  0  0  0
 14 15  1  0  0  0  0
 15 16  1  0  0  0  0
 16 17  1  0  0  0  0
 16 38  1  0  0  0  0
 16 39  1  0  0  0  0
 17 18  1  0  0  0  0
 17 19  1  0  0  0  0
 17 40  1  0  0  0  0
 18 41  1  0  0  0  0
 19 25  1  0  0  0  0
 19 20  2  0  0  0  0
 20 21  1  0  0  0  0
 20 42  1  0  0  0  0
 21 22  2  0  0  0  0
 21 43  1  0  0  0  0
 22 23  1  0  0  0  0
 22 44  1  0  0  0  0
 23 24  1  0  0  0  0
 23 25  2  0  0  0  0
 25 45  1  0  0  0  0
M  CHG  1   8   1
M  END
> <s_m_source_file>
AV-unprocessed.smi

> <i_m_source_file_index>
1667

> <i_lp_mmshare_version>
43012

> <i_f3d_flags>
0

> <s_epik_input>
W0NIM11DKD1PKVtOSF1bQ0BASF0oW0NIM10pYyhuMSluKGMoYzEyKVtjSF1bY0hdW2NIXVtjSF0yKVtDSDJdW0NASF0oW09IXSljM1tjSF1bY0hdW2NIXWMoRilbY0hdMw==

> <s_epik_cmdline>
J2VwaWtfcHl0aG9uJywgJy1waCcsICc3LjAnLCAnLXRuJywgJzgnLCAnLW1hJywgJzIwMCcsICctbWV0YWxfYmluZGluZycsICctaW1hZScsICc8aW5maWxlLm1hZT4nLCAnLW9tYWUnLCAnPG91dGZpbGUubWFlPic=

> <r_epik_Ionization_Penalty>
0.950383

> <r_epik_Ionization_Penalty_Charging>
0.950379

> <r_epik_Ionization_Penalty_Neutral>
3.60962e-06

> <r_epik_State_Penalty>
0.994584

> <r_epik_Charging_Adjusted_Penalty>
1.94496

> <i_epik_Tot_Q>
1

> <i_epik_Tot_abs_Q>
1

> <r_epik_Metal_State_Penalty>
1.10485

> <b_epik_Metal_Only>
0

> <s_lp_Force_Field>
OPLS_2005

> <r_lp_Energy>
12.0521

> <b_lp_Chiralities_Consistent>
1

> <s_lp_Variant>
AV-unprocessed.smi:1667-5

> <Gold.Version>
5.8.1

> <Gold.Id.Protein>
6NUR|6NUR_protein|mol2

> <Gold.PLP.Fitness>
63.6710

> <Gold.PLP.PLP>
-56.3536

> <Gold.PLP.part.hbond>
-3.4198

> <Gold.PLP.part.metal>
0.0000

> <Gold.PLP.part.buried>
-1.1671

> <Gold.PLP.part.nonpolar>
-53.0526

> <Gold.PLP.part.repulsive>
0.1660

> <Gold.PLP.ligand.clash>
0.0000

> <Gold.PLP.ligand.torsion>
0.8741

> <Gold.PLP.Chemscore.Hbond>
3.0000

> <Gold.PLP.Chemscore.CHOScore>
0.0000

> <Gold.PLP.Chemscore.Metal>
0.0000

> <Gold.Chemscore.Hbonds>
donor molecule, donor type, donor heavy atom, donor atom, acceptor molecule, acceptor atom, score
      L1  H     4    30       P1  7949  0.90
      L1  H     8    46       P1  7948  1.95

> <Gold.PLP.Chemscore.Internal.Correction>
0.0655

> <Gold.Rescore>
     Score         DG    S(hbond)    S(metal)    S(lipo)     H(rot)  DE(clash)    DE(int)     intcor
     17.05     -18.56       1.26        0.00     131.35       2.53       0.69       0.81       ----

> <Gold.Chemscore.Fitness>
17.0546

> <Gold.Chemscore.DG>
-18.5600

> <Gold.Chemscore.ZeroCoef>
-5.4800

> <Gold.Chemscore.Hbond>
1.2570

> <Gold.Chemscore.Metal>
0.0000

> <Gold.Chemscore.Lipo>
131.3450

> <Gold.Chemscore.Internal_Hbond>
0.0000

> <Gold.Chemscore.DEClash>
0.6922

> <Gold.Chemscore.DEInternal>
0.8132

> <Gold.Chemscore.Rot>
2.5335

> <Gold.Chemscore.Internal.Correction>
   9.000000E+99

> <Gold.Chemscore.Hbonds>
donor molecule, donor type, donor heavy atom, donor atom, acceptor molecule, acceptor atom, score
      L1  H     4    30       P1  7949  0.18
      L1  H     8    46       P1  7948  0.90

> <Gold.Chemscore.Hbond.Weighted>
-4.1983

> <Gold.Chemscore.Metal.Weighted>
-0.0000

> <Gold.Chemscore.Lipo.Weighted>
-15.3674

> <Gold.Chemscore.Internal_Hbond.Weighted>
0.0000

> <Gold.Chemscore.DEClash.Weighted>
0.6922

> <Gold.Chemscore.DEInternal.Weighted>
0.8132

> <Gold.Chemscore.Rot.Weighted>
6.4856

> <Gold.Chemscore.Internal.Correction.Weighted>
   9.000000E+99

> <Gold.Protein.RotatedTorsions>
[ 6907 6896 6895 6894 ] final   19.49 input  -60.11 | X-H torsion
[ 7974 7965 7964 7962 ] final   34.15 input  175.53 | X-H torsion
[ 8008 7997 7996 7995 ] final   39.64 input   59.86 | X-H torsion
[ 10167 10162 10161 10158 ] final -173.38 input  -65.29 | X-H torsion
[ 10718 10713 10712 10709 ] final  153.71 input   66.30 | X-H torsion
[ 10763 10752 10751 10750 ] final  -83.96 input  -60.55 | X-H torsion
[ 11005 11000 10999 10996 ] final   45.96 input  -57.11 | X-H torsion

> <Gold.Protein.ActiveResidues>
 VAL166  LYS551  ARG553  GLY616  TRP617  ASP618  TYR619  PRO620  LYS621  CYS622 
 ASP623  PHE694  ASN695  SER759  ASP760  ASP761  ALA762  ILE779  LEU786  VAL792 
 PHE793  MET794  SER795  GLU796  ALA797  LYS798  CYS799  TRP800  GLU811  SER814 

> <Gold.Protein.RotatedAtoms>
  151.8817  135.0451  160.0489 H   0  0  0  0  0  0  0  0  0  0  0  0  # atno 6907 bound_to 6896
  152.2507  133.5208  159.5332 H   0  0  0  0  0  0  0  0  0  0  0  0  # atno 6908 bound_to 6896
  150.7083  134.0880  159.3964 H   0  0  0  0  0  0  0  0  0  0  0  0  # atno 6909 bound_to 6896
  146.1372  139.6305  142.9187 H   0  0  0  0  0  0  0  0  0  0  0  0  # atno 7974 bound_to 7965
  155.2400  140.3344  155.4293 H   0  0  0  0  0  0  0  0  0  0  0  0  # atno 8008 bound_to 7997
  156.2260  140.1829  156.7407 H   0  0  0  0  0  0  0  0  0  0  0  0  # atno 8009 bound_to 7997
  154.5899  140.0639  156.9209 H   0  0  0  0  0  0  0  0  0  0  0  0  # atno 8010 bound_to 7997
  139.5692  144.1683  152.1358 H   0  0  0  0  0  0  0  0  0  0  0  0  # atno 10167 bound_to 10162
  157.2412  131.0759  151.1791 H   0  0  0  0  0  0  0  0  0  0  0  0  # atno 10718 bound_to 10713
  154.5938  135.5538  153.7305 H   0  0  0  0  0  0  0  0  0  0  0  0  # atno 10763 bound_to 10752
  153.0127  135.6350  154.1811 H   0  0  0  0  0  0  0  0  0  0  0  0  # atno 10764 bound_to 10752
  154.1751  135.2890  155.3049 H   0  0  0  0  0  0  0  0  0  0  0  0  # atno 10765 bound_to 10752
  140.1412  134.4580  155.8448 H   0  0  0  0  0  0  0  0  0  0  0  0  # atno 11005 bound_to 11000
  145.5129  141.0435  143.2478 LP  0  0  0  0  0  0  0  0  0  0  0  0  # atno 17320 bound_to 7965
  144.7753  139.6645  143.7177 LP  0  0  0  0  0  0  0  0  0  0  0  0  # atno 17321 bound_to 7965
  140.1212  144.5371  150.6861 LP  0  0  0  0  0  0  0  0  0  0  0  0  # atno 17342 bound_to 10162
  140.6976  143.2413  151.4957 LP  0  0  0  0  0  0  0  0  0  0  0  0  # atno 17343 bound_to 10162
  157.3377  130.7017  149.6362 LP  0  0  0  0  0  0  0  0  0  0  0  0  # atno 17370 bound_to 10713
  155.9670  130.4289  150.4809 LP  0  0  0  0  0  0  0  0  0  0  0  0  # atno 17371 bound_to 10713
  141.2186  133.6834  156.7250 LP  0  0  0  0  0  0  0  0  0  0  0  0  # atno 17394 bound_to 11000
  140.2720  134.8385  157.3855 LP  0  0  0  0  0  0  0  0  0  0  0  0  # atno 17395 bound_to 11000

$$$$
