AV-unprocessed.smi:414|AV-procd|sdf|2516|dock4
  -GOLD-   2262022463D 1   1.00000     0.00000
 Structure written by MMmdl.
 37 38  0  0  0  0  0  0  0  0  2 V2000
  153.2681  142.6020  160.4049 C   0  0  0  0  0  0  0  0  0  0  0  0
  152.1033  142.4962  159.4106 C   0  0  2  0  0  0  0  0  0  0  0  0
  152.0957  141.1320  158.6947 C   0  0  0  0  0  0  0  0  0  0  0  0
  150.9310  141.0240  157.6975 C   0  0  0  0  0  0  0  0  0  0  0  0
  150.9658  142.1671  156.6671 C   0  0  1  0  0  0  0  0  0  0  0  0
  149.8149  142.0575  155.7765 N   0  0  0  0  0  0  0  0  0  0  0  0
  149.6245  141.0891  154.8675 C   0  0  0  0  0  0  0  0  0  0  0  0
  150.4338  140.1831  154.6649 O   0  0  0  0  0  0  0  0  0  0  0  0
  148.3354  141.1819  154.0406 C   0  0  0  0  0  0  0  0  0  0  0  0
  147.2088  141.7381  154.8065 N   0  0  0  0  0  0  0  0  0  0  0  0
  146.4429  142.7519  154.2041 C   0  0  0  0  0  0  0  0  0  0  0  0
  145.3927  143.3159  154.8305 C   0  0  0  0  0  0  0  0  0  0  0  0
  145.0561  142.8495  156.1700 C   0  0  0  0  0  0  0  0  0  0  0  0
  144.1032  143.3561  156.7590 O   0  0  0  0  0  0  0  0  0  0  0  0
  145.8266  141.8604  156.7099 N   0  5  0  0  0  0  0  0  0  0  0  0
  146.8900  141.2937  156.0597 C   0  0  0  0  0  0  0  0  0  0  0  0
  147.5704  140.3993  156.5641 O   0  0  0  0  0  0  0  0  0  0  0  0
  150.9776  143.5367  157.3752 C   0  0  0  0  0  0  0  0  0  0  0  0
  152.1365  143.6412  158.3802 C   0  0  0  0  0  0  0  0  0  0  0  0
  154.2304  142.5210  159.8984 H   0  0  0  0  0  0  0  0  0  0  0  0
  153.2183  141.8113  161.1540 H   0  0  0  0  0  0  0  0  0  0  0  0
  153.2486  143.5561  160.9323 H   0  0  0  0  0  0  0  0  0  0  0  0
  151.1766  142.5827  159.9800 H   0  0  0  0  0  0  0  0  0  0  0  0
  153.0391  140.9866  158.1667 H   0  0  0  0  0  0  0  0  0  0  0  0
  152.0250  140.3265  159.4263 H   0  0  0  0  0  0  0  0  0  0  0  0
  150.9733  140.0605  157.1881 H   0  0  0  0  0  0  0  0  0  0  0  0
  149.9859  141.0441  158.2425 H   0  0  0  0  0  0  0  0  0  0  0  0
  151.8813  142.0646  156.0809 H   0  0  0  0  0  0  0  0  0  0  0  0
  149.0971  142.7611  155.8710 H   0  0  0  0  0  0  0  0  0  0  0  0
  148.5078  141.7769  153.1415 H   0  0  0  0  0  0  0  0  0  0  0  0
  148.0937  140.1816  153.6792 H   0  0  0  0  0  0  0  0  0  0  0  0
  146.7541  143.0346  153.2092 H   0  0  0  0  0  0  0  0  0  0  0  0
  144.8120  144.0910  154.3527 H   0  0  0  0  0  0  0  0  0  0  0  0
  151.0596  144.3393  156.6414 H   0  0  0  0  0  0  0  0  0  0  0  0
  150.0320  143.6918  157.8968 H   0  0  0  0  0  0  0  0  0  0  0  0
  152.0898  144.6038  158.8908 H   0  0  0  0  0  0  0  0  0  0  0  0
  153.0847  143.6242  157.8410 H   0  0  0  0  0  0  0  0  0  0  0  0
  1  2  1  0  0  0  0
  1 20  1  0  0  0  0
  1 21  1  0  0  0  0
  1 22  1  0  0  0  0
  2 19  1  0  0  0  0
  2  3  1  0  0  0  0
  2 23  1  0  0  0  0
  3  4  1  0  0  0  0
  3 24  1  0  0  0  0
  3 25  1  0  0  0  0
  4  5  1  0  0  0  0
  4 26  1  0  0  0  0
  4 27  1  0  0  0  0
  5  6  1  0  0  0  0
  5 18  1  0  0  0  0
  5 28  1  0  0  0  0
  6  7  1  0  0  0  0
  6 29  1  0  0  0  0
  7  8  2  0  0  0  0
  7  9  1  0  0  0  0
  9 10  1  0  0  0  0
  9 30  1  0  0  0  0
  9 31  1  0  0  0  0
 10 16  1  0  0  0  0
 10 11  1  0  0  0  0
 11 12  2  0  0  0  0
 11 32  1  0  0  0  0
 12 13  1  0  0  0  0
 12 33  1  0  0  0  0
 13 14  2  0  0  0  0
 13 15  1  0  0  0  0
 15 16  1  0  0  0  0
 16 17  2  0  0  0  0
 18 19  1  0  0  0  0
 18 34  1  0  0  0  0
 18 35  1  0  0  0  0
 19 36  1  0  0  0  0
 19 37  1  0  0  0  0
M  CHG  1  15  -1
M  END
> <s_m_source_file>
AV-unprocessed.smi

> <i_m_source_file_index>
414

> <i_lp_mmshare_version>
43012

> <i_f3d_flags>
0

> <s_epik_input>
W0NIM11bQ0BASF0xW0NIMl1bQ0gyXVtDQEhdKFtDSDJdW0NIMl0xKVtOSF1DKD1PKVtDSDJdbjJbY0hdW2NIXWMoPU8pW25IXWMyPU8=

> <s_epik_cmdline>
J2VwaWtfcHl0aG9uJywgJy1waCcsICc3LjAnLCAnLXRuJywgJzgnLCAnLW1hJywgJzIwMCcsICctbWV0YWxfYmluZGluZycsICctaW1hZScsICc8aW5maWxlLm1hZT4nLCAnLW9tYWUnLCAnPG91dGZpbGUubWFlPic=

> <r_lp_tautomer_probability>
0.999537

> <r_epik_Ionization_Penalty>
3.11551

> <r_epik_Ionization_Penalty_Charging>
2.90498e-08

> <r_epik_Ionization_Penalty_Neutral>
3.11551

> <r_epik_State_Penalty>
3.11459

> <r_epik_Charging_Adjusted_Penalty>
3.11459

> <i_epik_Tot_Q>
-1

> <i_epik_Tot_abs_Q>
1

> <r_epik_Metal_State_Penalty>
0.463083

> <b_epik_Metal_Only>
1

> <s_lp_Force_Field>
OPLS_2005

> <r_lp_Energy>
17.7967

> <b_lp_Chiralities_Consistent>
1

> <s_lp_Variant>
AV-unprocessed.smi:414-3

> <Gold.Version>
5.8.1

> <Gold.Id.Protein>
6NUR|6NUR_protein|mol2

> <Gold.PLP.Fitness>
43.8655

> <Gold.PLP.PLP>
-39.3003

> <Gold.PLP.part.hbond>
-2.0000

> <Gold.PLP.part.metal>
0.0000

> <Gold.PLP.part.buried>
-3.0107

> <Gold.PLP.part.nonpolar>
-34.7427

> <Gold.PLP.part.repulsive>
0.3847

> <Gold.PLP.ligand.clash>
0.0000

> <Gold.PLP.ligand.torsion>
0.5888

> <Gold.PLP.Chemscore.Hbond>
1.9120

> <Gold.PLP.Chemscore.CHOScore>
0.0000

> <Gold.PLP.Chemscore.Metal>
0.0000

> <Gold.Chemscore.Hbonds>
donor molecule, donor type, donor heavy atom, donor atom, acceptor molecule, acceptor atom, score
      L1  H     6    29       P1  8028  0.78
      P1  H  7989  7998       L1     8  1.00

> <Gold.PLP.Chemscore.Internal.Correction>
0.0069

> <Gold.Rescore>
     Score         DG    S(hbond)    S(metal)    S(lipo)     H(rot)  DE(clash)    DE(int)     intcor
     14.12     -17.10       1.53        0.00      91.73       1.65       1.51       1.47       ----

> <Gold.Chemscore.Fitness>
14.1230

> <Gold.Chemscore.DG>
-17.1014

> <Gold.Chemscore.ZeroCoef>
-5.4800

> <Gold.Chemscore.Hbond>
1.5346

> <Gold.Chemscore.Metal>
0.0000

> <Gold.Chemscore.Lipo>
91.7296

> <Gold.Chemscore.Internal_Hbond>
0.0000

> <Gold.Chemscore.DEClash>
1.5122

> <Gold.Chemscore.DEInternal>
1.4662

> <Gold.Chemscore.Rot>
1.6549

> <Gold.Chemscore.Internal.Correction>
   9.000000E+99

> <Gold.Chemscore.Hbonds>
donor molecule, donor type, donor heavy atom, donor atom, acceptor molecule, acceptor atom, score
      L1  H     6    29       P1  8028  0.76
      P1  H  7989  7998       L1     8  0.50

> <Gold.Chemscore.Hbond.Weighted>
-5.1254

> <Gold.Chemscore.Metal.Weighted>
-0.0000

> <Gold.Chemscore.Lipo.Weighted>
-10.7324

> <Gold.Chemscore.Internal_Hbond.Weighted>
0.0000

> <Gold.Chemscore.DEClash.Weighted>
1.5122

> <Gold.Chemscore.DEInternal.Weighted>
1.4662

> <Gold.Chemscore.Rot.Weighted>
4.2364

> <Gold.Chemscore.Internal.Correction.Weighted>
   9.000000E+99

> <Gold.Protein.RotatedTorsions>
[ 6907 6896 6895 6894 ] final   33.78 input  -60.11 | X-H torsion
[ 7974 7965 7964 7962 ] final    7.72 input  175.53 | X-H torsion
[ 8008 7997 7996 7995 ] final -161.73 input   59.86 | X-H torsion
[ 10167 10162 10161 10158 ] final   66.13 input  -65.29 | X-H torsion
[ 10718 10713 10712 10709 ] final  114.73 input   66.30 | X-H torsion
[ 10763 10752 10751 10750 ] final   57.18 input  -60.55 | X-H torsion
[ 11005 11000 10999 10996 ] final  160.35 input  -57.11 | X-H torsion

> <Gold.Protein.ActiveResidues>
 VAL166  LYS551  ARG553  GLY616  TRP617  ASP618  TYR619  PRO620  LYS621  CYS622 
 ASP623  PHE694  ASN695  SER759  ASP760  ASP761  ALA762  ILE779  LEU786  VAL792 
 PHE793  MET794  SER795  GLU796  ALA797  LYS798  CYS799  TRP800  GLU811  SER814 

> <Gold.Protein.RotatedAtoms>
  152.0932  134.9393  160.0571 H   0  0  0  0  0  0  0  0  0  0  0  0  # atno 6907 bound_to 6896
  152.0636  133.4068  159.4437 H   0  0  0  0  0  0  0  0  0  0  0  0  # atno 6908 bound_to 6896
  150.6837  134.3092  159.4783 H   0  0  0  0  0  0  0  0  0  0  0  0  # atno 6909 bound_to 6896
  146.2424  140.0041  142.8413 H   0  0  0  0  0  0  0  0  0  0  0  0  # atno 7974 bound_to 7965
  155.7964  140.0885  157.1981 H   0  0  0  0  0  0  0  0  0  0  0  0  # atno 8008 bound_to 7997
  154.3983  140.1480  156.3282 H   0  0  0  0  0  0  0  0  0  0  0  0  # atno 8009 bound_to 7997
  155.8507  140.3435  155.5694 H   0  0  0  0  0  0  0  0  0  0  0  0  # atno 8010 bound_to 7997
  140.1038  144.4880  150.7020 H   0  0  0  0  0  0  0  0  0  0  0  0  # atno 10167 bound_to 10162
  157.6264  131.1003  150.7228 H   0  0  0  0  0  0  0  0  0  0  0  0  # atno 10718 bound_to 10713
  152.9845  135.5650  154.5349 H   0  0  0  0  0  0  0  0  0  0  0  0  # atno 10763 bound_to 10752
  154.4814  135.2789  155.1570 H   0  0  0  0  0  0  0  0  0  0  0  0  # atno 10764 bound_to 10752
  154.3077  135.6295  153.5505 H   0  0  0  0  0  0  0  0  0  0  0  0  # atno 10765 bound_to 10752
  140.2051  134.8309  157.3060 H   0  0  0  0  0  0  0  0  0  0  0  0  # atno 11005 bound_to 11000
  145.1388  140.9559  143.4501 LP  0  0  0  0  0  0  0  0  0  0  0  0  # atno 17320 bound_to 7965
  145.0316  139.3336  143.6022 LP  0  0  0  0  0  0  0  0  0  0  0  0  # atno 17321 bound_to 7965
  140.6963  143.2406  151.4991 LP  0  0  0  0  0  0  0  0  0  0  0  0  # atno 17342 bound_to 10162
  139.5656  144.2049  152.1760 LP  0  0  0  0  0  0  0  0  0  0  0  0  # atno 17343 bound_to 10162
  156.7575  130.4788  149.5443 LP  0  0  0  0  0  0  0  0  0  0  0  0  # atno 17370 bound_to 10713
  156.1439  130.6263  151.0504 LP  0  0  0  0  0  0  0  0  0  0  0  0  # atno 17371 bound_to 10713
  140.2012  134.4253  155.7662 LP  0  0  0  0  0  0  0  0  0  0  0  0  # atno 17394 bound_to 11000
  141.2227  133.7073  156.8186 LP  0  0  0  0  0  0  0  0  0  0  0  0  # atno 17395 bound_to 11000

$$$$
