AV-unprocessed.smi:2198|AV-procd|sdf|8922|dock2
  -GOLD-   2272012133D 1   1.00000     0.00000
 Structure written by MMmdl.
 42 43  0  0  0  0  0  0  0  0  2 V2000
  151.5555  134.2432  156.4107 C   0  0  0  0  0  0  0  0  0  0  0  0
  151.3318  135.7041  156.7389 C   0  0  0  0  0  0  0  0  0  0  0  0
  151.7767  136.5990  155.9418 N   0  0  0  0  0  0  0  0  0  0  0  0
  151.5753  137.9566  156.2437 C   0  0  0  0  0  0  0  0  0  0  0  0
  152.1440  138.9473  155.2426 C   0  0  0  0  0  0  0  0  0  0  0  0
  150.9087  138.3379  157.3713 C   0  0  0  0  0  0  0  0  0  0  0  0
  150.6704  139.7996  157.7487 C   0  0  0  0  0  0  0  0  0  0  0  0
  151.9232  140.5904  158.1284 C   0  0  0  0  0  0  0  0  0  0  0  0
  152.9793  140.0011  158.3564 O   0  0  0  0  0  0  0  0  0  0  0  0
  151.7919  141.9243  158.1938 N   0  0  0  0  0  0  0  0  0  0  0  0
  152.8526  142.8673  158.5428 C   0  0  1  0  0  0  0  0  0  0  0  0
  152.3491  144.3253  158.4907 C   0  0  0  0  0  0  0  0  0  0  0  0
  151.3623  144.6365  159.6284 C   0  0  0  0  0  0  0  0  0  0  0  0
  151.9722  144.3108  161.0005 C   0  0  0  0  0  0  0  0  0  0  0  0
  152.4431  142.8460  161.0786 C   0  0  2  0  0  0  0  0  0  0  0  0
  153.0571  142.5280  162.4495 C   0  0  0  0  0  0  0  0  0  0  0  0
  153.4290  142.5316  159.9330 C   0  0  0  0  0  0  0  0  0  0  0  0
  150.4046  137.2747  158.2597 C   0  0  0  0  0  0  0  0  0  0  0  0
  149.7831  137.5611  159.2822 O   0  0  0  0  0  0  0  0  0  0  0  0
  150.6508  135.9819  157.9025 N   0  5  0  0  0  0  0  0  0  0  0  0
  151.9321  134.1222  155.3943 H   0  0  0  0  0  0  0  0  0  0  0  0
  150.6218  133.6860  156.4958 H   0  0  0  0  0  0  0  0  0  0  0  0
  152.2808  133.8100  157.0997 H   0  0  0  0  0  0  0  0  0  0  0  0
  152.8564  139.6169  155.7247 H   0  0  0  0  0  0  0  0  0  0  0  0
  151.3470  139.5439  154.7994 H   0  0  0  0  0  0  0  0  0  0  0  0
  152.6651  138.4347  154.4332 H   0  0  0  0  0  0  0  0  0  0  0  0
  150.1662  140.3310  156.9411 H   0  0  0  0  0  0  0  0  0  0  0  0
  149.9601  139.8316  158.5753 H   0  0  0  0  0  0  0  0  0  0  0  0
  150.8848  142.3181  157.9902 H   0  0  0  0  0  0  0  0  0  0  0  0
  153.6576  142.7525  157.8147 H   0  0  0  0  0  0  0  0  0  0  0  0
  153.2032  144.9992  158.5679 H   0  0  0  0  0  0  0  0  0  0  0  0
  151.8862  144.5367  157.5260 H   0  0  0  0  0  0  0  0  0  0  0  0
  151.0746  145.6875  159.5908 H   0  0  0  0  0  0  0  0  0  0  0  0
  150.4456  144.0623  159.4890 H   0  0  0  0  0  0  0  0  0  0  0  0
  152.8129  144.9794  161.1912 H   0  0  0  0  0  0  0  0  0  0  0  0
  151.2374  144.5087  161.7819 H   0  0  0  0  0  0  0  0  0  0  0  0
  151.5678  142.2059  160.9595 H   0  0  0  0  0  0  0  0  0  0  0  0
  153.9397  143.1392  162.6407 H   0  0  0  0  0  0  0  0  0  0  0  0
  153.3565  141.4816  162.5128 H   0  0  0  0  0  0  0  0  0  0  0  0
  152.3428  142.7144  163.2521 H   0  0  0  0  0  0  0  0  0  0  0  0
  153.7227  141.4814  159.9678 H   0  0  0  0  0  0  0  0  0  0  0  0
  154.3450  143.1051  160.0822 H   0  0  0  0  0  0  0  0  0  0  0  0
  1  2  1  0  0  0  0
  1 21  1  0  0  0  0
  1 22  1  0  0  0  0
  1 23  1  0  0  0  0
  2 20  1  0  0  0  0
  2  3  2  0  0  0  0
  3  4  1  0  0  0  0
  4  5  1  0  0  0  0
  4  6  2  0  0  0  0
  5 24  1  0  0  0  0
  5 25  1  0  0  0  0
  5 26  1  0  0  0  0
  6  7  1  0  0  0  0
  6 18  1  0  0  0  0
  7  8  1  0  0  0  0
  7 27  1  0  0  0  0
  7 28  1  0  0  0  0
  8  9  2  0  0  0  0
  8 10  1  0  0  0  0
 10 11  1  0  0  0  0
 10 29  1  0  0  0  0
 11 17  1  0  0  0  0
 11 12  1  0  0  0  0
 11 30  1  0  0  0  0
 12 13  1  0  0  0  0
 12 31  1  0  0  0  0
 12 32  1  0  0  0  0
 13 14  1  0  0  0  0
 13 33  1  0  0  0  0
 13 34  1  0  0  0  0
 14 15  1  0  0  0  0
 14 35  1  0  0  0  0
 14 36  1  0  0  0  0
 15 16  1  0  0  0  0
 15 17  1  0  0  0  0
 15 37  1  0  0  0  0
 16 38  1  0  0  0  0
 16 39  1  0  0  0  0
 16 40  1  0  0  0  0
 17 41  1  0  0  0  0
 17 42  1  0  0  0  0
 18 19  2  0  0  0  0
 18 20  1  0  0  0  0
M  CHG  1  20  -1
M  END
> <s_m_source_file>
AV-unprocessed.smi

> <i_m_source_file_index>
2198

> <i_lp_mmshare_version>
43012

> <i_f3d_flags>
0

> <s_epik_input>
W0NIM11jMW5jKFtDSDNdKWMoYyg9TylbbkhdMSlbQ0gyXUMoPU8pW05IXVtDQEBIXTJbQ0gyXVtDSDJdW0NIMl1bQ0BASF0oW0NIM10pW0NIMl0y

> <s_epik_cmdline>
J2VwaWtfcHl0aG9uJywgJy1waCcsICc3LjAnLCAnLXRuJywgJzgnLCAnLW1hJywgJzIwMCcsICctbWV0YWxfYmluZGluZycsICctaW1hZScsICc8aW5maWxlLm1hZT4nLCAnLW9tYWUnLCAnPG91dGZpbGUubWFlPic=

> <r_lp_tautomer_probability>
0.839158

> <r_epik_Ionization_Penalty>
6.67193

> <r_epik_Ionization_Penalty_Charging>
7.66837e-08

> <r_epik_Ionization_Penalty_Neutral>
6.67193

> <r_epik_State_Penalty>
4.51643

> <r_epik_Charging_Adjusted_Penalty>
4.51643

> <i_epik_Tot_Q>
-1

> <i_epik_Tot_abs_Q>
1

> <r_epik_Metal_State_Penalty>
0.851582

> <b_epik_Metal_Only>
1

> <s_lp_Force_Field>
OPLS_2005

> <r_lp_Energy>
13.9181

> <b_lp_Chiralities_Consistent>
1

> <s_lp_Variant>
AV-unprocessed.smi:2198-12

> <Gold.Version>
5.8.1

> <Gold.Id.Protein>
6NUR|6NUR_protein|mol2

> <Gold.PLP.Fitness>
51.1798

> <Gold.PLP.PLP>
-42.2930

> <Gold.PLP.part.hbond>
-3.8986

> <Gold.PLP.part.metal>
0.0000

> <Gold.PLP.part.buried>
-5.5977

> <Gold.PLP.part.nonpolar>
-31.8865

> <Gold.PLP.part.repulsive>
0.0902

> <Gold.PLP.ligand.clash>
0.0000

> <Gold.PLP.ligand.torsion>
0.2190

> <Gold.PLP.Chemscore.Hbond>
3.1058

> <Gold.PLP.Chemscore.CHOScore>
0.0000

> <Gold.PLP.Chemscore.Metal>
0.0000

> <Gold.Chemscore.Hbonds>
donor molecule, donor type, donor heavy atom, donor atom, acceptor molecule, acceptor atom, score
      P1  H  6896  6908       L1    20  0.99
      P1  H  7997  8009       L1     9  0.86
      P1  H 10752 10764       L1     3  1.00

> <Gold.PLP.Chemscore.Internal.Correction>
0.0073

> <Gold.Rescore>
     Score         DG    S(hbond)    S(metal)    S(lipo)     H(rot)  DE(clash)    DE(int)     intcor
     20.42     -21.13       1.97        0.00     109.27       1.45       0.42       0.29       ----

> <Gold.Chemscore.Fitness>
20.4242

> <Gold.Chemscore.DG>
-21.1324

> <Gold.Chemscore.ZeroCoef>
-5.4800

> <Gold.Chemscore.Hbond>
1.9660

> <Gold.Chemscore.Metal>
0.0000

> <Gold.Chemscore.Lipo>
109.2736

> <Gold.Chemscore.Internal_Hbond>
0.0000

> <Gold.Chemscore.DEClash>
0.4212

> <Gold.Chemscore.DEInternal>
0.2870

> <Gold.Chemscore.Rot>
1.4450

> <Gold.Chemscore.Internal.Correction>
   9.000000E+99

> <Gold.Chemscore.Hbonds>
donor molecule, donor type, donor heavy atom, donor atom, acceptor molecule, acceptor atom, score
      P1  H  6896  6908       L1    20  0.32
      P1  H  7997  8009       L1     9  0.81
      P1  H 10752 10764       L1     3  0.38

> <Gold.Chemscore.Hbond.Weighted>
-6.5666

> <Gold.Chemscore.Metal.Weighted>
-0.0000

> <Gold.Chemscore.Lipo.Weighted>
-12.7850

> <Gold.Chemscore.Internal_Hbond.Weighted>
0.0000

> <Gold.Chemscore.DEClash.Weighted>
0.4212

> <Gold.Chemscore.DEInternal.Weighted>
0.2870

> <Gold.Chemscore.Rot.Weighted>
3.6992

> <Gold.Chemscore.Internal.Correction.Weighted>
   9.000000E+99

> <Gold.Protein.RotatedTorsions>
[ 6907 6896 6895 6894 ] final -168.68 input  -60.11 | X-H torsion
[ 7974 7965 7964 7962 ] final  -88.84 input  175.53 | X-H torsion
[ 8008 7997 7996 7995 ] final  156.93 input   59.86 | X-H torsion
[ 10167 10162 10161 10158 ] final   97.66 input  -65.29 | X-H torsion
[ 10718 10713 10712 10709 ] final  -30.35 input   66.30 | X-H torsion
[ 10763 10752 10751 10750 ] final  -52.72 input  -60.55 | X-H torsion
[ 11005 11000 10999 10996 ] final  -90.47 input  -57.11 | X-H torsion

> <Gold.Protein.ActiveResidues>
 VAL166  LYS551  ARG553  GLY616  TRP617  ASP618  TYR619  PRO620  LYS621  CYS622 
 ASP623  PHE694  ASN695  SER759  ASP760  ASP761  ALA762  ILE779  LEU786  VAL792 
 PHE793  MET794  SER795  GLU796  ALA797  LYS798  CYS799  TRP800  GLU811  SER814 

> <Gold.Protein.RotatedAtoms>
  151.4794  133.3550  159.2835 H   0  0  0  0  0  0  0  0  0  0  0  0  # atno 6907 bound_to 6896
  150.8907  134.8312  159.7302 H   0  0  0  0  0  0  0  0  0  0  0  0  # atno 6908 bound_to 6896
  152.4821  134.4703  159.9685 H   0  0  0  0  0  0  0  0  0  0  0  0  # atno 6909 bound_to 6896
  145.4478  140.9560  143.2039 H   0  0  0  0  0  0  0  0  0  0  0  0  # atno 7974 bound_to 7965
  156.2393  140.1899  156.7031 H   0  0  0  0  0  0  0  0  0  0  0  0  # atno 8008 bound_to 7997
  154.6167  140.0614  156.9590 H   0  0  0  0  0  0  0  0  0  0  0  0  # atno 8009 bound_to 7997
  155.1928  140.3286  155.4358 H   0  0  0  0  0  0  0  0  0  0  0  0  # atno 8010 bound_to 7997
  139.7780  144.6898  151.0062 H   0  0  0  0  0  0  0  0  0  0  0  0  # atno 10167 bound_to 10162
  156.4008  130.4390  149.7324 H   0  0  0  0  0  0  0  0  0  0  0  0  # atno 10718 bound_to 10713
  154.1472  135.6496  153.4955 H   0  0  0  0  0  0  0  0  0  0  0  0  # atno 10763 bound_to 10752
  153.0148  135.5329  154.6845 H   0  0  0  0  0  0  0  0  0  0  0  0  # atno 10764 bound_to 10752
  154.6123  135.2955  155.0390 H   0  0  0  0  0  0  0  0  0  0  0  0  # atno 10765 bound_to 10752
  141.1565  133.7694  156.9742 H   0  0  0  0  0  0  0  0  0  0  0  0  # atno 11005 bound_to 11000
  144.8080  139.6014  143.7042 LP  0  0  0  0  0  0  0  0  0  0  0  0  # atno 17320 bound_to 7965
  146.2521  139.6222  142.9420 LP  0  0  0  0  0  0  0  0  0  0  0  0  # atno 17321 bound_to 7965
  140.7817  143.4514  151.0407 LP  0  0  0  0  0  0  0  0  0  0  0  0  # atno 17342 bound_to 10162
  139.8196  143.7839  152.3176 LP  0  0  0  0  0  0  0  0  0  0  0  0  # atno 17343 bound_to 10162
  156.4340  130.7829  151.2849 LP  0  0  0  0  0  0  0  0  0  0  0  0  # atno 17370 bound_to 10713
  157.7504  131.0145  150.3467 LP  0  0  0  0  0  0  0  0  0  0  0  0  # atno 17371 bound_to 10713
  140.1109  134.9477  157.2064 LP  0  0  0  0  0  0  0  0  0  0  0  0  # atno 17394 bound_to 11000
  140.3195  134.2932  155.7249 LP  0  0  0  0  0  0  0  0  0  0  0  0  # atno 17395 bound_to 11000

$$$$
