AV-unprocessed.smi:2212|AV-procd|sdf|8951|dock8
  -GOLD-   2272012163D 1   1.00000     0.00000
 Structure written by MMmdl.
 31 32  0  0  0  0  0  0  0  0  1 V2000
  152.7718  143.1098  162.2007 C   0  0  0  0  0  0  0  0  0  0  0  0
  151.7427  143.5065  161.3035 O   0  0  0  0  0  0  0  0  0  0  0  0
  151.9692  143.2156  159.9238 C   0  0  0  0  0  0  0  0  0  0  0  0
  152.4423  141.7705  159.7136 C   0  0  0  0  0  0  0  0  0  0  0  0
  152.4558  141.4323  158.2968 N   0  0  0  0  0  0  0  0  0  0  0  0
  151.8844  140.3397  157.7748 C   0  0  0  0  0  0  0  0  0  0  0  0
  151.2895  139.4964  158.4467 O   0  0  0  0  0  0  0  0  0  0  0  0
  152.0444  140.2900  156.4436 N   0  0  0  0  0  0  0  0  0  0  0  0
  151.5668  139.2774  155.5799 C   0  0  0  0  0  0  0  0  0  0  0  0
  151.7073  137.9814  155.8445 N   0  0  0  0  0  0  0  0  0  0  0  0
  151.1124  137.3432  154.7649 C   0  0  0  0  0  0  0  0  0  0  0  0
  150.6428  138.3021  153.9037 C   0  0  0  0  0  0  0  0  0  0  0  0
  150.9248  139.5426  154.4096 O   0  0  0  0  0  0  0  0  0  0  0  0
  150.7371  143.6884  159.1292 C   0  0  0  0  0  0  0  0  0  0  0  0
  151.6850  144.3385  158.1197 C   0  0  0  0  0  0  0  0  0  0  0  0
  152.7383  144.3570  159.2285 C   0  0  0  0  0  0  0  0  0  0  0  0
  152.5367  143.4786  163.1989 H   0  0  0  0  0  0  0  0  0  0  0  0
  153.7413  143.5195  161.9170 H   0  0  0  0  0  0  0  0  0  0  0  0
  152.8547  142.0253  162.2680 H   0  0  0  0  0  0  0  0  0  0  0  0
  153.4498  141.6415  160.1121 H   0  0  0  0  0  0  0  0  0  0  0  0
  151.8127  141.0646  160.2562 H   0  0  0  0  0  0  0  0  0  0  0  0
  152.9220  142.0792  157.6773 H   0  0  0  0  0  0  0  0  0  0  0  0
  152.5525  141.0445  156.0065 H   0  0  0  0  0  0  0  0  0  0  0  0
  151.0697  136.2664  154.6937 H   0  0  0  0  0  0  0  0  0  0  0  0
  150.1231  138.2710  152.9575 H   0  0  0  0  0  0  0  0  0  0  0  0
  150.1196  142.8896  158.7173 H   0  0  0  0  0  0  0  0  0  0  0  0
  150.1330  144.4222  159.6662 H   0  0  0  0  0  0  0  0  0  0  0  0
  151.9475  143.6747  157.2944 H   0  0  0  0  0  0  0  0  0  0  0  0
  151.3738  145.3224  157.7677 H   0  0  0  0  0  0  0  0  0  0  0  0
  152.7296  145.2918  159.7919 H   0  0  0  0  0  0  0  0  0  0  0  0
  153.7450  144.0969  158.9000 H   0  0  0  0  0  0  0  0  0  0  0  0
  1  2  1  0  0  0  0
  1 17  1  0  0  0  0
  1 18  1  0  0  0  0
  1 19  1  0  0  0  0
  2  3  1  0  0  0  0
  3 16  1  0  0  0  0
  3  4  1  0  0  0  0
  3 14  1  0  0  0  0
  4  5  1  0  0  0  0
  4 20  1  0  0  0  0
  4 21  1  0  0  0  0
  5  6  1  0  0  0  0
  5 22  1  0  0  0  0
  6  7  2  0  0  0  0
  6  8  1  0  0  0  0
  8  9  1  0  0  0  0
  8 23  1  0  0  0  0
  9 13  1  0  0  0  0
  9 10  2  0  0  0  0
 10 11  1  0  0  0  0
 11 12  2  0  0  0  0
 11 24  1  0  0  0  0
 12 13  1  0  0  0  0
 12 25  1  0  0  0  0
 14 15  1  0  0  0  0
 14 26  1  0  0  0  0
 14 27  1  0  0  0  0
 15 16  1  0  0  0  0
 15 28  1  0  0  0  0
 15 29  1  0  0  0  0
 16 30  1  0  0  0  0
 16 31  1  0  0  0  0
M  END
> <s_m_source_file>
AV-unprocessed.smi

> <i_m_source_file_index>
2212

> <i_lp_mmshare_version>
43012

> <i_f3d_flags>
0

> <s_epik_input>
W0NIMl0xW0NIMl1bQ0gyXUMxKE9bQ0gzXSlbQ0gyXVtOSF1DKD1PKVtOSF1jMm5bY0hdW2NIXW8y

> <s_epik_cmdline>
J2VwaWtfcHl0aG9uJywgJy1waCcsICc3LjAnLCAnLXRuJywgJzgnLCAnLW1hJywgJzIwMCcsICctbWV0YWxfYmluZGluZycsICctaW1hZScsICc8aW5maWxlLm1hZT4nLCAnLW9tYWUnLCAnPG91dGZpbGUubWFlPic=

> <r_lp_tautomer_probability>
0.785861

> <r_epik_Ionization_Penalty>
4.58897e-05

> <r_epik_Ionization_Penalty_Charging>
0

> <r_epik_Ionization_Penalty_Neutral>
4.58897e-05

> <r_epik_State_Penalty>
0.0380021

> <r_epik_Charging_Adjusted_Penalty>
0.0380021

> <i_epik_Tot_Q>
0

> <i_epik_Tot_abs_Q>
0

> <r_epik_Metal_State_Penalty>
0.0585611

> <b_epik_Metal_Only>
0

> <s_lp_Force_Field>
OPLS_2005

> <r_lp_Energy>
14.4029

> <b_lp_Chiralities_Consistent>
1

> <s_lp_Variant>
AV-unprocessed.smi:2212-1

> <Gold.Version>
5.8.1

> <Gold.Id.Protein>
6NUR|6NUR_protein|mol2

> <Gold.PLP.Fitness>
41.3019

> <Gold.PLP.PLP>
-33.6332

> <Gold.PLP.part.hbond>
-1.2384

> <Gold.PLP.part.metal>
0.0000

> <Gold.PLP.part.buried>
-3.8689

> <Gold.PLP.part.nonpolar>
-27.5848

> <Gold.PLP.part.repulsive>
0.5269

> <Gold.PLP.ligand.clash>
0.0000

> <Gold.PLP.ligand.torsion>
0.7214

> <Gold.PLP.Chemscore.Hbond>
1.0000

> <Gold.PLP.Chemscore.CHOScore>
1.9490

> <Gold.PLP.Chemscore.Metal>
0.0000

> <Gold.Chemscore.Hbonds>
donor molecule, donor type, donor heavy atom, donor atom, acceptor molecule, acceptor atom, score
      P1  H  7989  7998       L1    13  1.00
      L1  C    12    25       P1  7948  0.94
      L1  C    12    25       P1  7949  0.01
      L1  C    12    25       P1  7957  0.95

> <Gold.PLP.Chemscore.Internal.Correction>
0.2646

> <Gold.Rescore>
     Score         DG    S(hbond)    S(metal)    S(lipo)     H(rot)  DE(clash)    DE(int)     intcor
     11.99     -14.67       0.98        0.00      86.39       1.64       0.02       2.66       ----

> <Gold.Chemscore.Fitness>
11.9921

> <Gold.Chemscore.DG>
-14.6730

> <Gold.Chemscore.ZeroCoef>
-5.4800

> <Gold.Chemscore.Hbond>
0.9839

> <Gold.Chemscore.Metal>
0.0000

> <Gold.Chemscore.Lipo>
86.3912

> <Gold.Chemscore.Internal_Hbond>
0.0000

> <Gold.Chemscore.DEClash>
0.0199

> <Gold.Chemscore.DEInternal>
2.6610

> <Gold.Chemscore.Rot>
1.6411

> <Gold.Chemscore.Internal.Correction>
   9.000000E+99

> <Gold.Chemscore.Hbonds>
donor molecule, donor type, donor heavy atom, donor atom, acceptor molecule, acceptor atom, score
      P1  H  7989  7998       L1    13  0.88

> <Gold.Chemscore.Hbond.Weighted>
-3.2864

> <Gold.Chemscore.Metal.Weighted>
-0.0000

> <Gold.Chemscore.Lipo.Weighted>
-10.1078

> <Gold.Chemscore.Internal_Hbond.Weighted>
0.0000

> <Gold.Chemscore.DEClash.Weighted>
0.0199

> <Gold.Chemscore.DEInternal.Weighted>
2.6610

> <Gold.Chemscore.Rot.Weighted>
4.2011

> <Gold.Chemscore.Internal.Correction.Weighted>
   9.000000E+99

> <Gold.Protein.RotatedTorsions>
[ 6907 6896 6895 6894 ] final  136.73 input  -60.11 | X-H torsion
[ 7974 7965 7964 7962 ] final   59.83 input  175.53 | X-H torsion
[ 8008 7997 7996 7995 ] final   10.31 input   59.86 | X-H torsion
[ 10167 10162 10161 10158 ] final  117.40 input  -65.29 | X-H torsion
[ 10718 10713 10712 10709 ] final  129.29 input   66.30 | X-H torsion
[ 10763 10752 10751 10750 ] final    3.34 input  -60.55 | X-H torsion
[ 11005 11000 10999 10996 ] final -135.51 input  -57.11 | X-H torsion

> <Gold.Protein.ActiveResidues>
 VAL166  LYS551  ARG553  GLY616  TRP617  ASP618  TYR619  PRO620  LYS621  CYS622 
 ASP623  PHE694  ASN695  SER759  ASP760  ASP761  ALA762  ILE779  LEU786  VAL792 
 PHE793  MET794  SER795  GLU796  ALA797  LYS798  CYS799  TRP800  GLU811  SER814 

> <Gold.Protein.RotatedAtoms>
  152.2861  133.5516  159.5527 H   0  0  0  0  0  0  0  0  0  0  0  0  # atno 6907 bound_to 6896
  150.7216  134.0495  159.3802 H   0  0  0  0  0  0  0  0  0  0  0  0  # atno 6908 bound_to 6896
  151.8403  135.0592  160.0498 H   0  0  0  0  0  0  0  0  0  0  0  0  # atno 6909 bound_to 6896
  145.9028  139.3594  143.0582 H   0  0  0  0  0  0  0  0  0  0  0  0  # atno 7974 bound_to 7965
  154.7916  140.2836  155.5987 H   0  0  0  0  0  0  0  0  0  0  0  0  # atno 8008 bound_to 7997
  156.2965  140.2603  156.2694 H   0  0  0  0  0  0  0  0  0  0  0  0  # atno 8009 bound_to 7997
  154.9663  140.0377  157.2203 H   0  0  0  0  0  0  0  0  0  0  0  0  # atno 8010 bound_to 7997
  139.6181  144.7096  151.2694 H   0  0  0  0  0  0  0  0  0  0  0  0  # atno 10167 bound_to 10162
  157.5168  131.1097  150.9213 H   0  0  0  0  0  0  0  0  0  0  0  0  # atno 10718 bound_to 10713
  153.2845  135.6943  153.7352 H   0  0  0  0  0  0  0  0  0  0  0  0  # atno 10763 bound_to 10752
  153.6327  135.3407  155.3047 H   0  0  0  0  0  0  0  0  0  0  0  0  # atno 10764 bound_to 10752
  154.8505  135.4413  154.1909 H   0  0  0  0  0  0  0  0  0  0  0  0  # atno 10765 bound_to 10752
  140.8891  134.1834  157.4539 H   0  0  0  0  0  0  0  0  0  0  0  0  # atno 11005 bound_to 11000
  145.8769  140.9386  143.0621 LP  0  0  0  0  0  0  0  0  0  0  0  0  # atno 17320 bound_to 7965
  144.6737  140.0728  143.7472 LP  0  0  0  0  0  0  0  0  0  0  0  0  # atno 17321 bound_to 7965
  140.7364  143.6707  150.8084 LP  0  0  0  0  0  0  0  0  0  0  0  0  # atno 17342 bound_to 10162
  140.0314  143.5440  152.2758 LP  0  0  0  0  0  0  0  0  0  0  0  0  # atno 17343 bound_to 10162
  156.9836  130.5536  149.5298 LP  0  0  0  0  0  0  0  0  0  0  0  0  # atno 17370 bound_to 10713
  156.0326  130.5416  150.8572 LP  0  0  0  0  0  0  0  0  0  0  0  0  # atno 17371 bound_to 10713
  139.8727  134.9851  156.5267 LP  0  0  0  0  0  0  0  0  0  0  0  0  # atno 17394 bound_to 11000
  140.8368  133.8236  155.9036 LP  0  0  0  0  0  0  0  0  0  0  0  0  # atno 17395 bound_to 11000

$$$$
