AV-unprocessed.smi:2978|AV-procd|sdf|11368|dock6
  -GOLD-   2272016283D 1   1.00000     0.00000
 Structure written by MMmdl.
 32 33  0  0  0  0  0  0  0  0  1 V2000
  151.2194  135.7047  156.1064 O   0  0  0  0  0  0  0  0  0  0  0  0
  150.6411  136.1438  155.1112 C   0  0  0  0  0  0  0  0  0  0  0  0
  151.0147  137.5138  154.5263 C   0  0  0  0  0  0  0  0  0  0  0  0
  151.2236  138.5474  155.5511 N   0  0  0  0  0  0  0  0  0  0  0  0
  151.7439  138.0663  156.7400 N   0  0  0  0  0  0  0  0  0  0  0  0
  151.9856  138.8861  157.7041 C   0  0  0  0  0  0  0  0  0  0  0  0
  151.7276  140.3048  157.5922 C   0  0  0  0  0  0  0  0  0  0  0  0
  152.0736  141.3560  158.9199 Cl  0  0  0  0  0  0  0  0  0  0  0  0
  151.2105  140.7649  156.4254 C   0  0  0  0  0  0  0  0  0  0  0  0
  150.8717  142.4491  156.2177 Cl  0  0  0  0  0  0  0  0  0  0  0  0
  150.9215  139.8595  155.3046 C   0  0  0  0  0  0  0  0  0  0  0  0
  150.4497  140.2373  154.2312 O   0  0  0  0  0  0  0  0  0  0  0  0
  149.6488  135.4901  154.4881 N   0  0  0  0  0  0  0  0  0  0  0  0
  149.1216  134.1845  154.8715 C   0  0  0  0  0  0  0  0  0  0  0  0
  148.6496  133.3776  153.6502 C   0  0  2  0  0  0  0  0  0  0  0  0
  147.2728  133.7650  153.1077 C   0  0  0  0  0  0  0  0  0  0  0  0
  146.8461  132.4892  152.4200 C   0  0  0  0  0  0  0  0  0  0  0  0
  147.3835  131.4279  153.3753 C   0  0  0  0  0  0  0  0  0  0  0  0
  148.5383  131.9973  153.9877 O   0  0  0  0  0  0  0  0  0  0  0  0
  151.9090  137.4172  153.9076 H   0  0  0  0  0  0  0  0  0  0  0  0
  150.2186  137.8151  153.8433 H   0  0  0  0  0  0  0  0  0  0  0  0
  152.3973  138.5533  158.6570 H   0  0  0  0  0  0  0  0  0  0  0  0
  149.2271  135.9296  153.6828 H   0  0  0  0  0  0  0  0  0  0  0  0
  149.9213  133.6417  155.3761 H   0  0  0  0  0  0  0  0  0  0  0  0
  148.3157  134.2826  155.6009 H   0  0  0  0  0  0  0  0  0  0  0  0
  149.3849  133.4553  152.8473 H   0  0  0  0  0  0  0  0  0  0  0  0
  146.5864  133.9934  153.9244 H   0  0  0  0  0  0  0  0  0  0  0  0
  147.3043  134.6235  152.4363 H   0  0  0  0  0  0  0  0  0  0  0  0
  145.7683  132.4210  152.2695 H   0  0  0  0  0  0  0  0  0  0  0  0
  147.3352  132.4055  151.4485 H   0  0  0  0  0  0  0  0  0  0  0  0
  146.6515  131.2117  154.1543 H   0  0  0  0  0  0  0  0  0  0  0  0
  147.6220  130.4937  152.8664 H   0  0  0  0  0  0  0  0  0  0  0  0
  1  2  2  0  0  0  0
  2  3  1  0  0  0  0
  2 13  1  0  0  0  0
  3  4  1  0  0  0  0
  3 20  1  0  0  0  0
  3 21  1  0  0  0  0
  4 11  1  0  0  0  0
  4  5  1  0  0  0  0
  5  6  2  0  0  0  0
  6  7  1  0  0  0  0
  6 22  1  0  0  0  0
  7  8  1  0  0  0  0
  7  9  2  0  0  0  0
  9 10  1  0  0  0  0
  9 11  1  0  0  0  0
 11 12  2  0  0  0  0
 13 14  1  0  0  0  0
 13 23  1  0  0  0  0
 14 15  1  0  0  0  0
 14 24  1  0  0  0  0
 14 25  1  0  0  0  0
 15 19  1  0  0  0  0
 15 16  1  0  0  0  0
 15 26  1  0  0  0  0
 16 17  1  0  0  0  0
 16 27  1  0  0  0  0
 16 28  1  0  0  0  0
 17 18  1  0  0  0  0
 17 29  1  0  0  0  0
 17 30  1  0  0  0  0
 18 19  1  0  0  0  0
 18 31  1  0  0  0  0
 18 32  1  0  0  0  0
M  END
> <s_m_source_file>
AV-unprocessed.smi

> <i_m_source_file_index>
2978

> <i_lp_mmshare_version>
43012

> <i_f3d_flags>
0

> <s_epik_input>
TzFbQ0gyXVtDSDJdW0NIMl1bQ0BIXTFbQ0gyXVtOSF1DKD1PKVtDSDJdbjJuW2NIXWMoQ2wpYyhDbCljMj1P

> <s_epik_cmdline>
J2VwaWtfcHl0aG9uJywgJy1waCcsICc3LjAnLCAnLXRuJywgJzgnLCAnLW1hJywgJzIwMCcsICctbWV0YWxfYmluZGluZycsICctaW1hZScsICc8aW5maWxlLm1hZT4nLCAnLW9tYWUnLCAnPG91dGZpbGUubWFlPic=

> <r_lp_tautomer_probability>
1

> <r_epik_Ionization_Penalty>
2.68881e-08

> <r_epik_Ionization_Penalty_Charging>
2.90862e-11

> <r_epik_Ionization_Penalty_Neutral>
2.6859e-08

> <r_epik_State_Penalty>
-0

> <r_epik_Charging_Adjusted_Penalty>
2.90862e-11

> <i_epik_Tot_Q>
0

> <i_epik_Tot_abs_Q>
0

> <r_epik_Metal_State_Penalty>
-0

> <b_epik_Metal_Only>
0

> <s_lp_Force_Field>
OPLS_2005

> <r_lp_Energy>
31.3125

> <b_lp_Chiralities_Consistent>
1

> <s_lp_Variant>
AV-unprocessed.smi:2978-1

> <Gold.Version>
5.8.1

> <Gold.Id.Protein>
6NUR|6NUR_protein|mol2

> <Gold.PLP.Fitness>
39.9397

> <Gold.PLP.PLP>
-32.8246

> <Gold.PLP.part.hbond>
-3.3930

> <Gold.PLP.part.metal>
0.0000

> <Gold.PLP.part.buried>
-0.9012

> <Gold.PLP.part.nonpolar>
-27.3960

> <Gold.PLP.part.repulsive>
0.2836

> <Gold.PLP.ligand.clash>
0.0000

> <Gold.PLP.ligand.torsion>
0.9463

> <Gold.PLP.Chemscore.Hbond>
3.0000

> <Gold.PLP.Chemscore.CHOScore>
0.0000

> <Gold.PLP.Chemscore.Metal>
0.0000

> <Gold.Chemscore.Hbonds>
donor molecule, donor type, donor heavy atom, donor atom, acceptor molecule, acceptor atom, score
      L1  H    13    23       P1  7948  1.00
      P1  H  7989  7998       L1    12  0.98
      P1  H 10752 10763       L1     1  0.39

> <Gold.PLP.Chemscore.Internal.Correction>
0.0076

> <Gold.Rescore>
     Score         DG    S(hbond)    S(metal)    S(lipo)     H(rot)  DE(clash)    DE(int)     intcor
     13.05     -15.58       2.19        0.00      63.96       1.83       0.20       2.33       ----

> <Gold.Chemscore.Fitness>
13.0463

> <Gold.Chemscore.DG>
-15.5783

> <Gold.Chemscore.ZeroCoef>
-5.4800

> <Gold.Chemscore.Hbond>
2.1872

> <Gold.Chemscore.Metal>
0.0000

> <Gold.Chemscore.Lipo>
63.9561

> <Gold.Chemscore.Internal_Hbond>
0.0000

> <Gold.Chemscore.DEClash>
0.2037

> <Gold.Chemscore.DEInternal>
2.3283

> <Gold.Chemscore.Rot>
1.8320

> <Gold.Chemscore.Internal.Correction>
   9.000000E+99

> <Gold.Chemscore.Hbonds>
donor molecule, donor type, donor heavy atom, donor atom, acceptor molecule, acceptor atom, score
      L1  H    13    23       P1  7948  0.77
      P1  H  7989  7998       L1    12  0.45
      P1  H 10752 10763       L1     1  0.04

> <Gold.Chemscore.Hbond.Weighted>
-7.3054

> <Gold.Chemscore.Metal.Weighted>
-0.0000

> <Gold.Chemscore.Lipo.Weighted>
-7.4829

> <Gold.Chemscore.Internal_Hbond.Weighted>
0.0000

> <Gold.Chemscore.DEClash.Weighted>
0.2037

> <Gold.Chemscore.DEInternal.Weighted>
2.3283

> <Gold.Chemscore.Rot.Weighted>
4.6900

> <Gold.Chemscore.Internal.Correction.Weighted>
   9.000000E+99

> <Gold.Protein.RotatedTorsions>
[ 6907 6896 6895 6894 ] final -154.37 input  -60.11 | X-H torsion
[ 7974 7965 7964 7962 ] final  -46.71 input  175.53 | X-H torsion
[ 8008 7997 7996 7995 ] final   61.60 input   59.86 | X-H torsion
[ 10167 10162 10161 10158 ] final  138.58 input  -65.29 | X-H torsion
[ 10718 10713 10712 10709 ] final -117.32 input   66.30 | X-H torsion
[ 10763 10752 10751 10750 ] final   91.88 input  -60.55 | X-H torsion
[ 11005 11000 10999 10996 ] final -130.47 input  -57.11 | X-H torsion

> <Gold.Protein.ActiveResidues>
 VAL166  LYS551  ARG553  GLY616  TRP617  ASP618  TYR619  PRO620  LYS621  CYS622 
 ASP623  PHE694  ASN695  SER759  ASP760  ASP761  ALA762  ILE779  LEU786  VAL792 
 PHE793  MET794  SER795  GLU796  ALA797  LYS798  CYS799  TRP800  GLU811  SER814 

> <Gold.Protein.RotatedAtoms>
  151.2565  133.4323  159.2613 H   0  0  0  0  0  0  0  0  0  0  0  0  # atno 6907 bound_to 6896
  151.0570  134.9711  159.8251 H   0  0  0  0  0  0  0  0  0  0  0  0  # atno 6908 bound_to 6896
  152.5392  134.2517  159.8954 H   0  0  0  0  0  0  0  0  0  0  0  0  # atno 6909 bound_to 6896
  145.9691  140.7401  142.9419 H   0  0  0  0  0  0  0  0  0  0  0  0  # atno 7974 bound_to 7965
  155.6010  140.3494  155.4594 H   0  0  0  0  0  0  0  0  0  0  0  0  # atno 8008 bound_to 7997
  156.0228  140.1257  157.0364 H   0  0  0  0  0  0  0  0  0  0  0  0  # atno 8009 bound_to 7997
  154.4322  140.1059  156.5974 H   0  0  0  0  0  0  0  0  0  0  0  0  # atno 8010 bound_to 7997
  139.5106  144.6345  151.5732 H   0  0  0  0  0  0  0  0  0  0  0  0  # atno 10167 bound_to 10162
  156.1025  130.6184  150.9149 H   0  0  0  0  0  0  0  0  0  0  0  0  # atno 10718 bound_to 10713
  153.2131  135.4381  155.0402 H   0  0  0  0  0  0  0  0  0  0  0  0  # atno 10763 bound_to 10752
  154.8210  135.3338  154.7039 H   0  0  0  0  0  0  0  0  0  0  0  0  # atno 10764 bound_to 10752
  153.7476  135.7000  153.5008 H   0  0  0  0  0  0  0  0  0  0  0  0  # atno 10765 bound_to 10752
  140.9343  134.1278  157.4208 H   0  0  0  0  0  0  0  0  0  0  0  0  # atno 11005 bound_to 11000
  144.6832  140.2719  143.7304 LP  0  0  0  0  0  0  0  0  0  0  0  0  # atno 17320 bound_to 7965
  145.7931  139.1935  143.2091 LP  0  0  0  0  0  0  0  0  0  0  0  0  # atno 17321 bound_to 7965
  140.6089  143.9472  150.6439 LP  0  0  0  0  0  0  0  0  0  0  0  0  # atno 17342 bound_to 10162
  140.2709  143.3457  152.1239 LP  0  0  0  0  0  0  0  0  0  0  0  0  # atno 17343 bound_to 10162
  157.6198  131.0930  150.8644 LP  0  0  0  0  0  0  0  0  0  0  0  0  # atno 17370 bound_to 10713
  156.8769  130.5165  149.5293 LP  0  0  0  0  0  0  0  0  0  0  0  0  # atno 17371 bound_to 10713
  139.8804  135.0015  156.6074 LP  0  0  0  0  0  0  0  0  0  0  0  0  # atno 17394 bound_to 11000
  140.7821  133.8651  155.8576 LP  0  0  0  0  0  0  0  0  0  0  0  0  # atno 17395 bound_to 11000

$$$$
