AV-unprocessed.smi:1249|AV-procd|sdf|5253|dock1
  -GOLD-   22720 4363D 1   1.00000     0.00000
 Structure written by MMmdl.
 42 43  0  0  0  0  0  0  0  0  1 V2000
  144.6581  131.8835  151.0105 C   0  0  0  0  0  0  0  0  0  0  0  0
  143.6052  132.7251  151.4680 O   0  0  0  0  0  0  0  0  0  0  0  0
  143.9159  134.0151  151.8470 C   0  0  0  0  0  0  0  0  0  0  0  0
  142.8802  134.8492  152.3125 C   0  0  0  0  0  0  0  0  0  0  0  0
  143.1924  136.1660  152.6997 C   0  0  0  0  0  0  0  0  0  0  0  0
  144.5250  136.6144  152.6021 C   0  0  0  0  0  0  0  0  0  0  0  0
  144.8148  137.9419  153.0177 N   0  0  0  0  0  0  0  0  0  0  0  0
  145.8830  138.3887  153.7000 C   0  0  0  0  0  0  0  0  0  0  0  0
  146.8418  137.7016  154.0513 O   0  0  0  0  0  0  0  0  0  0  0  0
  145.7911  139.7051  153.9365 N   0  0  0  0  0  0  0  0  0  0  0  0
  146.7900  140.5035  154.6412 C   0  0  0  0  0  0  0  0  0  0  0  0
  148.0934  140.5448  153.8301 C   0  0  0  0  0  0  0  0  0  0  0  0
  149.1913  141.3281  154.5714 C   0  0  0  0  0  0  0  0  0  0  0  0
  149.4063  140.8076  155.9366 N   0  0  0  0  0  0  0  0  0  0  0  0
  150.7632  139.7699  156.2694 S   0  0  0  0  0  0  0  0  0  0  0  0
  151.6400  140.6058  157.6539 C   0  0  0  0  0  0  0  0  0  0  0  0
  150.2389  138.4884  156.7657 O   0  0  0  0  0  0  0  0  0  0  0  0
  151.6437  139.7902  155.0914 O   0  0  0  0  0  0  0  0  0  0  0  0
  148.1826  140.7065  156.7569 C   0  0  0  0  0  0  0  0  0  0  0  0
  147.0767  139.9178  156.0340 C   0  0  0  0  0  0  0  0  0  0  0  0
  145.4962  135.6962  152.1335 C   0  0  0  0  0  0  0  0  0  0  0  0
  145.2035  134.4315  151.7629 N   0  0  0  0  0  0  0  0  0  0  0  0
  144.2509  130.9079  150.7450 H   0  0  0  0  0  0  0  0  0  0  0  0
  145.4097  131.7283  151.7860 H   0  0  0  0  0  0  0  0  0  0  0  0
  145.1400  132.2935  150.1216 H   0  0  0  0  0  0  0  0  0  0  0  0
  141.8652  134.4848  152.3728 H   0  0  0  0  0  0  0  0  0  0  0  0
  142.4148  136.8222  153.0632 H   0  0  0  0  0  0  0  0  0  0  0  0
  144.1527  138.6430  152.7194 H   0  0  0  0  0  0  0  0  0  0  0  0
  144.9707  140.1915  153.6058 H   0  0  0  0  0  0  0  0  0  0  0  0
  146.4207  141.5252  154.7504 H   0  0  0  0  0  0  0  0  0  0  0  0
  148.4360  139.5311  153.6244 H   0  0  0  0  0  0  0  0  0  0  0  0
  147.9120  141.0072  152.8591 H   0  0  0  0  0  0  0  0  0  0  0  0
  150.1218  141.3057  154.0050 H   0  0  0  0  0  0  0  0  0  0  0  0
  148.9026  142.3771  154.6457 H   0  0  0  0  0  0  0  0  0  0  0  0
  152.5141  140.0157  157.9282 H   0  0  0  0  0  0  0  0  0  0  0  0
  150.9815  140.6844  158.5172 H   0  0  0  0  0  0  0  0  0  0  0  0
  151.9674  141.5957  157.3415 H   0  0  0  0  0  0  0  0  0  0  0  0
  148.4073  140.2491  157.7200 H   0  0  0  0  0  0  0  0  0  0  0  0
  147.8284  141.7153  156.9713 H   0  0  0  0  0  0  0  0  0  0  0  0
  146.1706  139.9313  156.6407 H   0  0  0  0  0  0  0  0  0  0  0  0
  147.3644  138.8710  155.9434 H   0  0  0  0  0  0  0  0  0  0  0  0
  146.5417  135.9529  152.0668 H   0  0  0  0  0  0  0  0  0  0  0  0
  1  2  1  0  0  0  0
  1 23  1  0  0  0  0
  1 24  1  0  0  0  0
  1 25  1  0  0  0  0
  2  3  1  0  0  0  0
  3 22  1  0  0  0  0
  3  4  2  0  0  0  0
  4  5  1  0  0  0  0
  4 26  1  0  0  0  0
  5  6  2  0  0  0  0
  5 27  1  0  0  0  0
  6  7  1  0  0  0  0
  6 21  1  0  0  0  0
  7  8  1  0  0  0  0
  7 28  1  0  0  0  0
  8  9  2  0  0  0  0
  8 10  1  0  0  0  0
 10 11  1  0  0  0  0
 10 29  1  0  0  0  0
 11 20  1  0  0  0  0
 11 12  1  0  0  0  0
 11 30  1  0  0  0  0
 12 13  1  0  0  0  0
 12 31  1  0  0  0  0
 12 32  1  0  0  0  0
 13 14  1  0  0  0  0
 13 33  1  0  0  0  0
 13 34  1  0  0  0  0
 14 15  1  0  0  0  0
 14 19  1  0  0  0  0
 15 16  1  0  0  0  0
 15 17  2  0  0  0  0
 15 18  2  0  0  0  0
 16 35  1  0  0  0  0
 16 36  1  0  0  0  0
 16 37  1  0  0  0  0
 19 20  1  0  0  0  0
 19 38  1  0  0  0  0
 19 39  1  0  0  0  0
 20 40  1  0  0  0  0
 20 41  1  0  0  0  0
 21 22  2  0  0  0  0
 21 42  1  0  0  0  0
M  END
> <s_m_source_file>
AV-unprocessed.smi

> <i_m_source_file_index>
1249

> <i_lp_mmshare_version>
43012

> <i_f3d_flags>
0

> <s_epik_input>
W0NIM11PYzFbY0hdW2NIXWMoW2NIXW4xKVtOSF1DKD1PKVtOSF1bQ0hdMltDSDJdW0NIMl1OKFMoPU8pKD1PKVtDSDNdKVtDSDJdW0NIMl0y

> <s_epik_cmdline>
J2VwaWtfcHl0aG9uJywgJy1waCcsICc3LjAnLCAnLXRuJywgJzgnLCAnLW1hJywgJzIwMCcsICctbWV0YWxfYmluZGluZycsICctaW1hZScsICc8aW5maWxlLm1hZT4nLCAnLW9tYWUnLCAnPG91dGZpbGUubWFlPic=

> <r_lp_tautomer_probability>
1

> <r_epik_Ionization_Penalty>
9.27424e-05

> <r_epik_Ionization_Penalty_Charging>
0

> <r_epik_Ionization_Penalty_Neutral>
9.27424e-05

> <r_epik_State_Penalty>
-0

> <r_epik_Charging_Adjusted_Penalty>
0

> <i_epik_Tot_Q>
0

> <i_epik_Tot_abs_Q>
0

> <r_epik_Metal_State_Penalty>
-0

> <b_epik_Metal_Only>
0

> <s_lp_Force_Field>
OPLS_2005

> <r_lp_Energy>
2.02988

> <b_lp_Chiralities_Consistent>
1

> <s_lp_Variant>
AV-unprocessed.smi:1249-1

> <Gold.Version>
5.8.1

> <Gold.Id.Protein>
6NUR|6NUR_protein|mol2

> <Gold.PLP.Fitness>
41.3620

> <Gold.PLP.PLP>
-30.0927

> <Gold.PLP.part.hbond>
-2.8630

> <Gold.PLP.part.metal>
0.0000

> <Gold.PLP.part.buried>
-4.4906

> <Gold.PLP.part.nonpolar>
-22.9468

> <Gold.PLP.part.repulsive>
0.5421

> <Gold.PLP.ligand.clash>
0.0000

> <Gold.PLP.ligand.torsion>
1.3720

> <Gold.PLP.Chemscore.Hbond>
2.9760

> <Gold.PLP.Chemscore.CHOScore>
1.0000

> <Gold.PLP.Chemscore.Metal>
0.0000

> <Gold.Chemscore.Hbonds>
donor molecule, donor type, donor heavy atom, donor atom, acceptor molecule, acceptor atom, score
      L1  H     7    28       P1 10175  1.00
      L1  H    10    29       P1 10175  1.00
      P1  H  7989  7998       L1    18  1.00
      L1  C    21    42       P1  7948  1.00

> <Gold.PLP.Chemscore.Internal.Correction>
2.0854

> <Gold.Rescore>
     Score         DG    S(hbond)    S(metal)    S(lipo)     H(rot)  DE(clash)    DE(int)     intcor
     14.43     -17.97       2.84        0.00      53.73       1.29       0.06       3.48       ----

> <Gold.Chemscore.Fitness>
14.4334

> <Gold.Chemscore.DG>
-17.9673

> <Gold.Chemscore.ZeroCoef>
-5.4800

> <Gold.Chemscore.Hbond>
2.8444

> <Gold.Chemscore.Metal>
0.0000

> <Gold.Chemscore.Lipo>
53.7336

> <Gold.Chemscore.Internal_Hbond>
0.0000

> <Gold.Chemscore.DEClash>
0.0554

> <Gold.Chemscore.DEInternal>
3.4785

> <Gold.Chemscore.Rot>
1.2890

> <Gold.Chemscore.Internal.Correction>
   9.000000E+99

> <Gold.Chemscore.Hbonds>
donor molecule, donor type, donor heavy atom, donor atom, acceptor molecule, acceptor atom, score
      L1  H     7    28       P1 10175  0.96
      L1  H    10    29       P1 10175  0.98
      P1  H  7989  7998       L1    18  0.97

> <Gold.Chemscore.Hbond.Weighted>
-9.5004

> <Gold.Chemscore.Metal.Weighted>
-0.0000

> <Gold.Chemscore.Lipo.Weighted>
-6.2868

> <Gold.Chemscore.Internal_Hbond.Weighted>
0.0000

> <Gold.Chemscore.DEClash.Weighted>
0.0554

> <Gold.Chemscore.DEInternal.Weighted>
3.4785

> <Gold.Chemscore.Rot.Weighted>
3.2999

> <Gold.Chemscore.Internal.Correction.Weighted>
   9.000000E+99

> <Gold.Protein.RotatedTorsions>
[ 6907 6896 6895 6894 ] final -160.69 input  -60.11 | X-H torsion
[ 7974 7965 7964 7962 ] final  158.95 input  175.53 | X-H torsion
[ 8008 7997 7996 7995 ] final  -32.23 input   59.86 | X-H torsion
[ 10167 10162 10161 10158 ] final  170.45 input  -65.29 | X-H torsion
[ 10718 10713 10712 10709 ] final  -64.76 input   66.30 | X-H torsion
[ 10763 10752 10751 10750 ] final  -92.95 input  -60.55 | X-H torsion
[ 11005 11000 10999 10996 ] final  -86.99 input  -57.11 | X-H torsion

> <Gold.Protein.ActiveResidues>
 VAL166  LYS551  ARG553  GLY616  TRP617  ASP618  TYR619  PRO620  LYS621  CYS622 
 ASP623  PHE694  ASN695  SER759  ASP760  ASP761  ALA762  ILE779  LEU786  VAL792 
 PHE793  MET794  SER795  GLU796  ALA797  LYS798  CYS799  TRP800  GLU811  SER814 

> <Gold.Protein.RotatedAtoms>
  151.3530  133.3918  159.2681 H   0  0  0  0  0  0  0  0  0  0  0  0  # atno 6907 bound_to 6896
  150.9786  134.9147  159.7841 H   0  0  0  0  0  0  0  0  0  0  0  0  # atno 6908 bound_to 6896
  152.5209  134.3493  159.9297 H   0  0  0  0  0  0  0  0  0  0  0  0  # atno 6909 bound_to 6896
  144.7817  139.7550  143.6257 H   0  0  0  0  0  0  0  0  0  0  0  0  # atno 7974 bound_to 7965
  154.4187  140.1743  156.1694 H   0  0  0  0  0  0  0  0  0  0  0  0  # atno 8008 bound_to 7997
  155.9773  140.3380  155.6606 H   0  0  0  0  0  0  0  0  0  0  0  0  # atno 8009 bound_to 7997
  155.6547  140.0694  157.2566 H   0  0  0  0  0  0  0  0  0  0  0  0  # atno 8010 bound_to 7997
  139.5019  144.3595  151.9840 H   0  0  0  0  0  0  0  0  0  0  0  0  # atno 10167 bound_to 10162
  156.0709  130.4238  150.1467 H   0  0  0  0  0  0  0  0  0  0  0  0  # atno 10718 bound_to 10713
  154.6911  135.5212  153.8394 H   0  0  0  0  0  0  0  0  0  0  0  0  # atno 10763 bound_to 10752
  153.0633  135.6576  154.0422 H   0  0  0  0  0  0  0  0  0  0  0  0  # atno 10764 bound_to 10752
  154.0296  135.2986  155.3350 H   0  0  0  0  0  0  0  0  0  0  0  0  # atno 10765 bound_to 10752
  141.1623  133.7485  156.9241 H   0  0  0  0  0  0  0  0  0  0  0  0  # atno 11005 bound_to 11000
  146.2028  139.5333  142.9732 LP  0  0  0  0  0  0  0  0  0  0  0  0  # atno 17320 bound_to 7965
  145.6033  141.0352  143.2006 LP  0  0  0  0  0  0  0  0  0  0  0  0  # atno 17321 bound_to 7965
  140.3031  144.3624  150.6054 LP  0  0  0  0  0  0  0  0  0  0  0  0  # atno 17342 bound_to 10162
  140.5858  143.2170  151.7345 LP  0  0  0  0  0  0  0  0  0  0  0  0  # atno 17343 bound_to 10162
  156.9518  130.9777  151.3497 LP  0  0  0  0  0  0  0  0  0  0  0  0  # atno 17370 bound_to 10713
  157.5780  130.8356  149.8482 LP  0  0  0  0  0  0  0  0  0  0  0  0  # atno 17371 bound_to 10713
  140.1431  134.9280  157.2493 LP  0  0  0  0  0  0  0  0  0  0  0  0  # atno 17394 bound_to 11000
  140.2812  134.3347  155.7342 LP  0  0  0  0  0  0  0  0  0  0  0  0  # atno 17395 bound_to 11000

$$$$
