AV-unprocessed.smi:2853|AV-procd|sdf|10973|dock8
  -GOLD-   2272015423D 1   1.00000     0.00000
 Structure written by MMmdl.
 43 44  0  0  0  0  0  0  0  0  1 V2000
  149.0744  129.3388  155.2441 C   0  0  0  0  0  0  0  0  0  0  0  0
  148.7767  130.7201  154.7706 C   0  0  0  0  0  0  0  0  0  0  0  0
  147.8969  131.0003  153.8106 N   0  0  0  0  0  0  0  0  0  0  0  0
  147.8034  132.3695  153.5439 C   0  0  0  0  0  0  0  0  0  0  0  0
  146.8512  132.8345  152.4764 C   0  0  0  0  0  0  0  0  0  0  0  0
  145.5651  131.9871  152.3885 C   0  0  0  0  0  0  0  0  0  0  0  0
  145.8479  130.5302  151.9829 C   0  0  0  0  0  0  0  0  0  0  0  0
  144.5505  132.6311  151.4319 C   0  0  0  0  0  0  0  0  0  0  0  0
  148.6329  133.1538  154.3164 C   0  0  0  0  0  0  0  0  0  0  0  0
  148.7328  134.5058  154.2118 N   0  0  0  0  0  0  0  0  0  0  0  0
  149.1457  135.4018  155.1248 C   0  0  0  0  0  0  0  0  0  0  0  0
  149.4146  135.1521  156.2994 O   0  0  0  0  0  0  0  0  0  0  0  0
  149.2138  136.6312  154.5862 N   0  0  0  0  0  0  0  0  0  0  0  0
  149.6173  137.8914  155.2253 C   0  0  1  0  0  0  0  0  0  0  0  0
  148.6680  138.1294  156.4143 C   0  0  0  0  0  0  0  0  0  0  0  0
  151.0812  137.8817  155.6992 C   0  0  0  0  0  0  0  0  0  0  0  0
  151.7494  138.9881  154.8851 C   0  0  0  0  0  0  0  0  0  0  0  0
  150.6859  139.8835  154.6107 O   0  0  0  0  0  0  0  0  0  0  0  0
  149.5665  139.0892  154.2515 C   0  0  0  0  0  0  0  0  0  0  0  0
  149.5601  132.1487  155.4199 S   0  0  0  0  0  0  0  0  0  0  0  0
  148.3924  128.6203  154.7885 H   0  0  0  0  0  0  0  0  0  0  0  0
  148.9662  129.2843  156.3275 H   0  0  0  0  0  0  0  0  0  0  0  0
  150.0965  129.0674  154.9797 H   0  0  0  0  0  0  0  0  0  0  0  0
  146.5794  133.8728  152.6718 H   0  0  0  0  0  0  0  0  0  0  0  0
  147.3456  132.8479  151.5043 H   0  0  0  0  0  0  0  0  0  0  0  0
  145.1052  131.9724  153.3778 H   0  0  0  0  0  0  0  0  0  0  0  0
  146.3434  130.4781  151.0128 H   0  0  0  0  0  0  0  0  0  0  0  0
  144.9235  129.9557  151.9151 H   0  0  0  0  0  0  0  0  0  0  0  0
  146.4858  130.0282  152.7104 H   0  0  0  0  0  0  0  0  0  0  0  0
  144.9413  132.6817  150.4150 H   0  0  0  0  0  0  0  0  0  0  0  0
  144.3034  133.6460  151.7448 H   0  0  0  0  0  0  0  0  0  0  0  0
  143.6206  132.0624  151.4031 H   0  0  0  0  0  0  0  0  0  0  0  0
  148.4938  134.8809  153.3057 H   0  0  0  0  0  0  0  0  0  0  0  0
  148.9619  136.7078  153.6118 H   0  0  0  0  0  0  0  0  0  0  0  0
  148.8921  139.0700  156.9193 H   0  0  0  0  0  0  0  0  0  0  0  0
  148.7487  137.3309  157.1529 H   0  0  0  0  0  0  0  0  0  0  0  0
  147.6278  138.1740  156.0889 H   0  0  0  0  0  0  0  0  0  0  0  0
  151.1455  138.1298  156.7594 H   0  0  0  0  0  0  0  0  0  0  0  0
  151.5862  136.9237  155.5711 H   0  0  0  0  0  0  0  0  0  0  0  0
  152.5588  139.4779  155.4266 H   0  0  0  0  0  0  0  0  0  0  0  0
  152.1505  138.5986  153.9483 H   0  0  0  0  0  0  0  0  0  0  0  0
  149.6792  138.7923  153.2084 H   0  0  0  0  0  0  0  0  0  0  0  0
  148.6415  139.6618  154.3248 H   0  0  0  0  0  0  0  0  0  0  0  0
  1  2  1  0  0  0  0
  1 21  1  0  0  0  0
  1 22  1  0  0  0  0
  1 23  1  0  0  0  0
  2 20  1  0  0  0  0
  2  3  2  0  0  0  0
  3  4  1  0  0  0  0
  4  5  1  0  0  0  0
  4  9  2  0  0  0  0
  5  6  1  0  0  0  0
  5 24  1  0  0  0  0
  5 25  1  0  0  0  0
  6  7  1  0  0  0  0
  6  8  1  0  0  0  0
  6 26  1  0  0  0  0
  7 27  1  0  0  0  0
  7 28  1  0  0  0  0
  7 29  1  0  0  0  0
  8 30  1  0  0  0  0
  8 31  1  0  0  0  0
  8 32  1  0  0  0  0
  9 10  1  0  0  0  0
  9 20  1  0  0  0  0
 10 11  1  0  0  0  0
 10 33  1  0  0  0  0
 11 12  2  0  0  0  0
 11 13  1  0  0  0  0
 13 14  1  0  0  0  0
 13 34  1  0  0  0  0
 14 19  1  0  0  0  0
 14 15  1  0  0  0  0
 14 16  1  0  0  0  0
 15 35  1  0  0  0  0
 15 36  1  0  0  0  0
 15 37  1  0  0  0  0
 16 17  1  0  0  0  0
 16 38  1  0  0  0  0
 16 39  1  0  0  0  0
 17 18  1  0  0  0  0
 17 40  1  0  0  0  0
 17 41  1  0  0  0  0
 18 19  1  0  0  0  0
 19 42  1  0  0  0  0
 19 43  1  0  0  0  0
M  END
> <s_m_source_file>
AV-unprocessed.smi

> <i_m_source_file_index>
2853

> <i_lp_mmshare_version>
43012

> <i_f3d_flags>
0

> <s_epik_input>
W0NIM11jMW5jKFtDSDJdW0NIXShbQ0gzXSlbQ0gzXSljKHMxKVtOSF1DKD1PKVtOSF1bQ0BAXTIoW0NIM10pW0NIMl1bQ0gyXU9bQ0gyXTI=

> <s_epik_cmdline>
J2VwaWtfcHl0aG9uJywgJy1waCcsICc3LjAnLCAnLXRuJywgJzgnLCAnLW1hJywgJzIwMCcsICctbWV0YWxfYmluZGluZycsICctaW1hZScsICc8aW5maWxlLm1hZT4nLCAnLW9tYWUnLCAnPG91dGZpbGUubWFlPic=

> <r_epik_Ionization_Penalty>
0.000723394

> <r_epik_Ionization_Penalty_Charging>
0

> <r_epik_Ionization_Penalty_Neutral>
0.000723394

> <r_epik_State_Penalty>
0.000446791

> <r_epik_Charging_Adjusted_Penalty>
0.000446791

> <i_epik_Tot_Q>
0

> <i_epik_Tot_abs_Q>
0

> <r_epik_Metal_State_Penalty>
-0

> <b_epik_Metal_Only>
0

> <s_lp_Force_Field>
OPLS_2005

> <r_lp_Energy>
15.1609

> <b_lp_Chiralities_Consistent>
1

> <s_lp_Variant>
AV-unprocessed.smi:2853-1

> <Gold.Version>
5.8.1

> <Gold.Id.Protein>
6NUR|6NUR_protein|mol2

> <Gold.PLP.Fitness>
43.5483

> <Gold.PLP.PLP>
-35.7596

> <Gold.PLP.part.hbond>
-3.0000

> <Gold.PLP.part.metal>
0.0000

> <Gold.PLP.part.buried>
-5.6672

> <Gold.PLP.part.nonpolar>
-28.4512

> <Gold.PLP.part.repulsive>
0.3393

> <Gold.PLP.ligand.clash>
0.0000

> <Gold.PLP.ligand.torsion>
0.5072

> <Gold.PLP.Chemscore.Hbond>
2.9280

> <Gold.PLP.Chemscore.CHOScore>
0.0000

> <Gold.PLP.Chemscore.Metal>
0.0000

> <Gold.Chemscore.Hbonds>
donor molecule, donor type, donor heavy atom, donor atom, acceptor molecule, acceptor atom, score
      L1  H    10    33       P1  7948  0.93
      L1  H    13    34       P1  7948  1.00
      P1  H  7989  7998       L1    18  0.70

> <Gold.PLP.Chemscore.Internal.Correction>
0.0192

> <Gold.Rescore>
     Score         DG    S(hbond)    S(metal)    S(lipo)     H(rot)  DE(clash)    DE(int)     intcor
     14.35     -17.60       1.83        0.00      79.12       1.28       0.05       3.20       ----

> <Gold.Chemscore.Fitness>
14.3542

> <Gold.Chemscore.DG>
-17.5989

> <Gold.Chemscore.ZeroCoef>
-5.4800

> <Gold.Chemscore.Hbond>
1.8343

> <Gold.Chemscore.Metal>
0.0000

> <Gold.Chemscore.Lipo>
79.1198

> <Gold.Chemscore.Internal_Hbond>
0.0000

> <Gold.Chemscore.DEClash>
0.0452

> <Gold.Chemscore.DEInternal>
3.1995

> <Gold.Chemscore.Rot>
1.2753

> <Gold.Chemscore.Internal.Correction>
   9.000000E+99

> <Gold.Chemscore.Hbonds>
donor molecule, donor type, donor heavy atom, donor atom, acceptor molecule, acceptor atom, score
      L1  H    10    33       P1  7948  0.60
      L1  H    13    34       P1  7948  0.98
      P1  H  7989  7998       L1    18  0.07

> <Gold.Chemscore.Hbond.Weighted>
-6.1265

> <Gold.Chemscore.Metal.Weighted>
-0.0000

> <Gold.Chemscore.Lipo.Weighted>
-9.2570

> <Gold.Chemscore.Internal_Hbond.Weighted>
0.0000

> <Gold.Chemscore.DEClash.Weighted>
0.0452

> <Gold.Chemscore.DEInternal.Weighted>
3.1995

> <Gold.Chemscore.Rot.Weighted>
3.2646

> <Gold.Chemscore.Internal.Correction.Weighted>
   9.000000E+99

> <Gold.Protein.RotatedTorsions>
[ 6907 6896 6895 6894 ] final  -86.48 input  -60.11 | X-H torsion
[ 7974 7965 7964 7962 ] final -113.14 input  175.53 | X-H torsion
[ 8008 7997 7996 7995 ] final   -5.45 input   59.86 | X-H torsion
[ 10167 10162 10161 10158 ] final   54.39 input  -65.29 | X-H torsion
[ 10718 10713 10712 10709 ] final  171.71 input   66.30 | X-H torsion
[ 10763 10752 10751 10750 ] final   60.72 input  -60.55 | X-H torsion
[ 11005 11000 10999 10996 ] final    5.18 input  -57.11 | X-H torsion

> <Gold.Protein.ActiveResidues>
 VAL166  LYS551  ARG553  GLY616  TRP617  ASP618  TYR619  PRO620  LYS621  CYS622 
 ASP623  PHE694  ASN695  SER759  ASP760  ASP761  ALA762  ILE779  LEU786  VAL792 
 PHE793  MET794  SER795  GLU796  ALA797  LYS798  CYS799  TRP800  GLU811  SER814 

> <Gold.Protein.RotatedAtoms>
  150.6867  134.3044  159.4719 H   0  0  0  0  0  0  0  0  0  0  0  0  # atno 6907 bound_to 6896
  152.0937  134.9387  160.0580 H   0  0  0  0  0  0  0  0  0  0  0  0  # atno 6908 bound_to 6896
  152.0693  133.4064  159.4489 H   0  0  0  0  0  0  0  0  0  0  0  0  # atno 6909 bound_to 6896
  145.1356  140.8749  143.3732 H   0  0  0  0  0  0  0  0  0  0  0  0  # atno 7974 bound_to 7965
  154.6038  140.2458  155.7758 H   0  0  0  0  0  0  0  0  0  0  0  0  # atno 8008 bound_to 7997
  156.2328  140.2961  156.0184 H   0  0  0  0  0  0  0  0  0  0  0  0  # atno 8009 bound_to 7997
  155.2166  140.0399  157.2932 H   0  0  0  0  0  0  0  0  0  0  0  0  # atno 8010 bound_to 7997
  140.2306  144.3690  150.6416 H   0  0  0  0  0  0  0  0  0  0  0  0  # atno 10167 bound_to 10162
  156.9896  131.0144  151.2860 H   0  0  0  0  0  0  0  0  0  0  0  0  # atno 10718 bound_to 10713
  152.9929  135.5526  154.5919 H   0  0  0  0  0  0  0  0  0  0  0  0  # atno 10763 bound_to 10752
  154.5278  135.2811  155.1208 H   0  0  0  0  0  0  0  0  0  0  0  0  # atno 10764 bound_to 10752
  154.2535  135.6394  153.5301 H   0  0  0  0  0  0  0  0  0  0  0  0  # atno 10765 bound_to 10752
  140.5736  134.0079  155.8018 H   0  0  0  0  0  0  0  0  0  0  0  0  # atno 11005 bound_to 11000
  145.0588  139.3122  143.5891 LP  0  0  0  0  0  0  0  0  0  0  0  0  # atno 17320 bound_to 7965
  146.3510  140.0022  142.8675 LP  0  0  0  0  0  0  0  0  0  0  0  0  # atno 17321 bound_to 7965
  140.6187  143.2174  151.6738 LP  0  0  0  0  0  0  0  0  0  0  0  0  # atno 17342 bound_to 10162
  139.5111  144.3520  152.0643 LP  0  0  0  0  0  0  0  0  0  0  0  0  # atno 17343 bound_to 10162
  157.5468  130.8156  149.8096 LP  0  0  0  0  0  0  0  0  0  0  0  0  # atno 17370 bound_to 10713
  156.0212  130.3795  150.1956 LP  0  0  0  0  0  0  0  0  0  0  0  0  # atno 17371 bound_to 10713
  141.1041  133.9722  157.3028 LP  0  0  0  0  0  0  0  0  0  0  0  0  # atno 17394 bound_to 11000
  139.9350  135.0197  156.8527 LP  0  0  0  0  0  0  0  0  0  0  0  0  # atno 17395 bound_to 11000

$$$$
