AV-unprocessed.smi:3056|AV-procd|sdf|11658|dock8
  -GOLD-   2272017 63D 1   1.00000     0.00000
 Structure written by MMmdl.
 47 48  0  0  0  0  0  0  0  0  1 V2000
  151.6934  142.1758  157.9696 C   0  0  0  0  0  0  0  0  0  0  0  0
  150.9856  141.5015  156.8301 C   0  0  0  0  0  0  0  0  0  0  0  0
  151.5061  140.5314  155.9281 C   0  0  0  0  0  0  0  0  0  0  0  0
  150.6164  140.1315  155.0350 N   0  0  0  0  0  0  0  0  0  0  0  0
  149.4980  140.8349  155.3251 N   0  0  0  0  0  0  0  0  0  0  0  0
  148.2705  140.6407  154.5561 C   0  0  1  0  0  0  0  0  0  0  0  0
  147.6666  141.9752  154.0752 C   0  0  0  0  0  0  0  0  0  0  0  0
  148.4120  139.5894  153.4214 C   0  0  2  0  0  0  0  0  0  0  0  0
  147.0472  139.1630  152.8426 C   0  0  0  0  0  0  0  0  0  0  0  0
  149.1322  138.4176  153.9141 N   0  0  0  0  0  0  0  0  0  0  0  0
  148.3560  137.6249  154.8761 C   0  0  0  0  0  0  0  0  0  0  0  0
  148.6699  136.1296  154.7540 C   0  0  0  0  0  0  0  0  0  0  0  0
  147.7306  135.3634  154.5379 O   0  0  0  0  0  0  0  0  0  0  0  0
  149.9470  135.6946  154.8877 N   0  0  0  0  0  0  0  0  0  0  0  0
  151.1211  136.5210  155.1859 C   0  0  0  0  0  0  0  0  0  0  0  0
  151.6803  136.0917  156.5531 C   0  0  0  0  0  0  0  0  0  0  0  0
  151.9978  134.7020  156.5274 O   0  0  0  0  0  0  0  0  0  0  0  0
  150.8808  133.8713  156.2145 C   0  0  2  0  0  0  0  0  0  0  0  0
  151.3461  132.4115  156.2433 C   0  0  0  0  0  0  0  0  0  0  0  0
  150.3189  134.2780  154.8374 C   0  0  0  0  0  0  0  0  0  0  0  0
  149.6962  141.6646  156.4099 C   0  0  0  0  0  0  0  0  0  0  0  0
  152.5228  141.5746  158.3430 H   0  0  0  0  0  0  0  0  0  0  0  0
  151.0242  142.3556  158.8112 H   0  0  0  0  0  0  0  0  0  0  0  0
  152.1033  143.1409  157.6720 H   0  0  0  0  0  0  0  0  0  0  0  0
  152.4983  140.1059  155.8983 H   0  0  0  0  0  0  0  0  0  0  0  0
  147.5448  140.2312  155.2604 H   0  0  0  0  0  0  0  0  0  0  0  0
  146.7020  141.8149  153.5933 H   0  0  0  0  0  0  0  0  0  0  0  0
  148.3118  142.4837  153.3583 H   0  0  0  0  0  0  0  0  0  0  0  0
  147.5055  142.6540  154.9130 H   0  0  0  0  0  0  0  0  0  0  0  0
  148.9979  140.0537  152.6264 H   0  0  0  0  0  0  0  0  0  0  0  0
  146.4541  140.0356  152.5678 H   0  0  0  0  0  0  0  0  0  0  0  0
  146.4671  138.5826  153.5611 H   0  0  0  0  0  0  0  0  0  0  0  0
  147.1549  138.5589  151.9424 H   0  0  0  0  0  0  0  0  0  0  0  0
  149.4062  137.8522  153.1228 H   0  0  0  0  0  0  0  0  0  0  0  0
  148.5372  137.9492  155.9000 H   0  0  0  0  0  0  0  0  0  0  0  0
  147.2917  137.7773  154.6896 H   0  0  0  0  0  0  0  0  0  0  0  0
  151.8721  136.3689  154.4097 H   0  0  0  0  0  0  0  0  0  0  0  0
  150.9203  137.5903  155.1954 H   0  0  0  0  0  0  0  0  0  0  0  0
  152.5841  136.6554  156.7847 H   0  0  0  0  0  0  0  0  0  0  0  0
  150.9622  136.2969  157.3486 H   0  0  0  0  0  0  0  0  0  0  0  0
  150.1128  134.0073  156.9782 H   0  0  0  0  0  0  0  0  0  0  0  0
  150.5216  131.7326  156.0242 H   0  0  0  0  0  0  0  0  0  0  0  0
  151.7409  132.1480  157.2248 H   0  0  0  0  0  0  0  0  0  0  0  0
  152.1317  132.2328  155.5088 H   0  0  0  0  0  0  0  0  0  0  0  0
  149.4813  133.6305  154.5744 H   0  0  0  0  0  0  0  0  0  0  0  0
  151.0699  134.1298  154.0599 H   0  0  0  0  0  0  0  0  0  0  0  0
  148.9077  142.2958  156.7925 H   0  0  0  0  0  0  0  0  0  0  0  0
  1  2  1  0  0  0  0
  1 22  1  0  0  0  0
  1 23  1  0  0  0  0
  1 24  1  0  0  0  0
  2 21  2  0  0  0  0
  2  3  1  0  0  0  0
  3  4  2  0  0  0  0
  3 25  1  0  0  0  0
  4  5  1  0  0  0  0
  5  6  1  0  0  0  0
  5 21  1  0  0  0  0
  6  7  1  0  0  0  0
  6  8  1  0  0  0  0
  6 26  1  0  0  0  0
  7 27  1  0  0  0  0
  7 28  1  0  0  0  0
  7 29  1  0  0  0  0
  8  9  1  0  0  0  0
  8 10  1  0  0  0  0
  8 30  1  0  0  0  0
  9 31  1  0  0  0  0
  9 32  1  0  0  0  0
  9 33  1  0  0  0  0
 10 11  1  0  0  0  0
 10 34  1  0  0  0  0
 11 12  1  0  0  0  0
 11 35  1  0  0  0  0
 11 36  1  0  0  0  0
 12 13  2  0  0  0  0
 12 14  1  0  0  0  0
 14 20  1  0  0  0  0
 14 15  1  0  0  0  0
 15 16  1  0  0  0  0
 15 37  1  0  0  0  0
 15 38  1  0  0  0  0
 16 17  1  0  0  0  0
 16 39  1  0  0  0  0
 16 40  1  0  0  0  0
 17 18  1  0  0  0  0
 18 19  1  0  0  0  0
 18 20  1  0  0  0  0
 18 41  1  0  0  0  0
 19 42  1  0  0  0  0
 19 43  1  0  0  0  0
 19 44  1  0  0  0  0
 20 45  1  0  0  0  0
 20 46  1  0  0  0  0
 21 47  1  0  0  0  0
M  END
> <s_m_source_file>
AV-unprocessed.smi

> <i_m_source_file_index>
3056

> <i_lp_mmshare_version>
43012

> <i_f3d_flags>
0

> <s_epik_input>
W0NIM11jMVtjSF1ubihbY0hdMSlbQ0BIXShbQ0gzXSlbQ0BIXShbQ0gzXSlbTkhdW0NIMl1DKD1PKU4yW0NIMl1bQ0gyXU9bQ0BASF0oW0NIM10pW0NIMl0y

> <s_epik_cmdline>
J2VwaWtfcHl0aG9uJywgJy1waCcsICc3LjAnLCAnLXRuJywgJzgnLCAnLW1hJywgJzIwMCcsICctbWV0YWxfYmluZGluZycsICctaW1hZScsICc8aW5maWxlLm1hZT4nLCAnLW9tYWUnLCAnPG91dGZpbGUubWFlPic=

> <r_lp_tautomer_probability>
1

> <r_epik_Ionization_Penalty>
0.667689

> <r_epik_Ionization_Penalty_Charging>
0

> <r_epik_Ionization_Penalty_Neutral>
0.667689

> <r_epik_State_Penalty>
0.684601

> <r_epik_Charging_Adjusted_Penalty>
0.684601

> <i_epik_Tot_Q>
0

> <i_epik_Tot_abs_Q>
0

> <r_epik_Metal_State_Penalty>
0.681448

> <b_epik_Metal_Only>
0

> <s_lp_Force_Field>
OPLS_2005

> <r_lp_Energy>
30.4655

> <b_lp_Chiralities_Consistent>
1

> <s_lp_Variant>
AV-unprocessed.smi:3056-14

> <Gold.Version>
5.8.1

> <Gold.Id.Protein>
6NUR|6NUR_protein|mol2

> <Gold.PLP.Fitness>
38.0254

> <Gold.PLP.PLP>
-31.8790

> <Gold.PLP.part.hbond>
-3.0593

> <Gold.PLP.part.metal>
0.0000

> <Gold.PLP.part.buried>
1.0689

> <Gold.PLP.part.nonpolar>
-28.5347

> <Gold.PLP.part.repulsive>
0.1442

> <Gold.PLP.ligand.clash>
0.0000

> <Gold.PLP.ligand.torsion>
0.4727

> <Gold.PLP.Chemscore.Hbond>
1.5564

> <Gold.PLP.Chemscore.CHOScore>
0.7479

> <Gold.PLP.Chemscore.Metal>
0.0000

> <Gold.Chemscore.Hbonds>
donor molecule, donor type, donor heavy atom, donor atom, acceptor molecule, acceptor atom, score
      L1  H    10    34       P1  7948  0.89
      P1  H  7989  7998       L1     4  0.70
      P1  H 10752 10764       L1    17  0.08
      L1  C    21    47       P1  8028  0.43

> <Gold.PLP.Chemscore.Internal.Correction>
0.1787

> <Gold.Rescore>
     Score         DG    S(hbond)    S(metal)    S(lipo)     H(rot)  DE(clash)    DE(int)     intcor
     12.70     -13.63       1.03        0.00      77.02       1.68       0.49       0.43       ----

> <Gold.Chemscore.Fitness>
12.7050

> <Gold.Chemscore.DG>
-13.6250

> <Gold.Chemscore.ZeroCoef>
-5.4800

> <Gold.Chemscore.Hbond>
1.0277

> <Gold.Chemscore.Metal>
0.0000

> <Gold.Chemscore.Lipo>
77.0222

> <Gold.Chemscore.Internal_Hbond>
0.0000

> <Gold.Chemscore.DEClash>
0.4857

> <Gold.Chemscore.DEInternal>
0.4343

> <Gold.Chemscore.Rot>
1.6793

> <Gold.Chemscore.Internal.Correction>
   9.000000E+99

> <Gold.Chemscore.Hbonds>
donor molecule, donor type, donor heavy atom, donor atom, acceptor molecule, acceptor atom, score
      L1  H    10    34       P1  7948  0.77
      P1  H  7989  7998       L1     4  0.06

> <Gold.Chemscore.Hbond.Weighted>
-3.4325

> <Gold.Chemscore.Metal.Weighted>
-0.0000

> <Gold.Chemscore.Lipo.Weighted>
-9.0116

> <Gold.Chemscore.Internal_Hbond.Weighted>
0.0000

> <Gold.Chemscore.DEClash.Weighted>
0.4857

> <Gold.Chemscore.DEInternal.Weighted>
0.4343

> <Gold.Chemscore.Rot.Weighted>
4.2990

> <Gold.Chemscore.Internal.Correction.Weighted>
   9.000000E+99

> <Gold.Protein.RotatedTorsions>
[ 6907 6896 6895 6894 ] final  174.73 input  -60.11 | X-H torsion
[ 7974 7965 7964 7962 ] final  -73.21 input  175.53 | X-H torsion
[ 8008 7997 7996 7995 ] final  -45.26 input   59.86 | X-H torsion
[ 10167 10162 10161 10158 ] final  -42.51 input  -65.29 | X-H torsion
[ 10718 10713 10712 10709 ] final  -10.19 input   66.30 | X-H torsion
[ 10763 10752 10751 10750 ] final   -4.78 input  -60.55 | X-H torsion
[ 11005 11000 10999 10996 ] final  -99.17 input  -57.11 | X-H torsion

> <Gold.Protein.ActiveResidues>
 VAL166  LYS551  ARG553  GLY616  TRP617  ASP618  TYR619  PRO620  LYS621  CYS622 
 ASP623  PHE694  ASN695  SER759  ASP760  ASP761  ALA762  ILE779  LEU786  VAL792 
 PHE793  MET794  SER795  GLU796  ALA797  LYS798  CYS799  TRP800  GLU811  SER814 

> <Gold.Protein.RotatedAtoms>
  151.7475  133.3325  159.3382 H   0  0  0  0  0  0  0  0  0  0  0  0  # atno 6907 bound_to 6896
  150.7548  134.6222  159.6151 H   0  0  0  0  0  0  0  0  0  0  0  0  # atno 6908 bound_to 6896
  152.3490  134.7034  160.0293 H   0  0  0  0  0  0  0  0  0  0  0  0  # atno 6909 bound_to 6896
  145.6551  140.9270  143.0964 H   0  0  0  0  0  0  0  0  0  0  0  0  # atno 7974 bound_to 7965
  154.4000  140.1401  156.3818 H   0  0  0  0  0  0  0  0  0  0  0  0  # atno 8008 bound_to 7997
  155.7997  140.3476  155.5375 H   0  0  0  0  0  0  0  0  0  0  0  0  # atno 8009 bound_to 7997
  155.8496  140.0939  157.1673 H   0  0  0  0  0  0  0  0  0  0  0  0  # atno 8010 bound_to 7997
  140.6966  143.3033  151.3220 H   0  0  0  0  0  0  0  0  0  0  0  0  # atno 10167 bound_to 10162
  156.6770  130.5026  149.5982 H   0  0  0  0  0  0  0  0  0  0  0  0  # atno 10718 bound_to 10713
  153.3895  135.7001  153.6505 H   0  0  0  0  0  0  0  0  0  0  0  0  # atno 10763 bound_to 10752
  153.5083  135.3637  155.2574 H   0  0  0  0  0  0  0  0  0  0  0  0  # atno 10764 bound_to 10752
  154.8701  135.4128  154.3209 H   0  0  0  0  0  0  0  0  0  0  0  0  # atno 10765 bound_to 10752
  141.1318  133.8301  157.0936 H   0  0  0  0  0  0  0  0  0  0  0  0  # atno 11005 bound_to 11000
  144.7109  139.8376  143.7415 LP  0  0  0  0  0  0  0  0  0  0  0  0  # atno 17320 bound_to 7965
  146.1172  139.4185  143.0251 LP  0  0  0  0  0  0  0  0  0  0  0  0  # atno 17321 bound_to 7965
  139.6430  144.0504  152.2569 LP  0  0  0  0  0  0  0  0  0  0  0  0  # atno 17342 bound_to 10162
  140.0015  144.6289  150.7725 LP  0  0  0  0  0  0  0  0  0  0  0  0  # atno 17343 bound_to 10162
  156.1896  130.6551  151.1045 LP  0  0  0  0  0  0  0  0  0  0  0  0  # atno 17370 bound_to 10713
  157.7057  131.0757  150.6675 LP  0  0  0  0  0  0  0  0  0  0  0  0  # atno 17371 bound_to 10713
  140.0377  134.9870  157.0902 LP  0  0  0  0  0  0  0  0  0  0  0  0  # atno 17394 bound_to 11000
  140.4185  134.1906  155.7164 LP  0  0  0  0  0  0  0  0  0  0  0  0  # atno 17395 bound_to 11000

$$$$
