AV-unprocessed.smi:176|AV-procd|sdf|1435|dock1
  -GOLD-   2262019213D 1   1.00000     0.00000
 Structure written by MMmdl.
 57 61  0  0  0  0  0  0  0  0  1 V2000
  146.7693  132.0674  150.3700 O   0  0  0  0  0  0  0  0  0  0  0  0
  145.7473  132.1059  149.3938 C   0  0  0  0  0  0  0  0  0  0  0  0
  144.5034  132.8856  149.8603 C   0  0  0  0  0  0  0  0  0  0  0  0
  143.4961  132.7650  148.6973 C   0  0  0  0  0  0  0  0  0  0  0  0
  143.4331  133.9188  147.8839 O   0  0  0  0  0  0  0  0  0  0  0  0
  143.9674  132.5471  151.2708 C   0  0  0  0  0  0  0  0  0  0  0  0
  143.8059  134.0415  151.5764 C   0  0  0  0  0  0  0  0  0  0  0  0
  144.0843  134.5717  152.8796 N   0  0  0  0  0  0  0  0  0  0  0  0
  143.2827  135.4101  153.6214 C   0  0  0  0  0  0  0  0  0  0  0  0
  143.7825  135.7901  154.7656 N   0  0  0  0  0  0  0  0  0  0  0  0
  145.0376  135.1937  154.8041 C   0  0  0  0  0  0  0  0  0  0  0  0
  146.1087  135.1951  155.7431 C   0  0  0  0  0  0  0  0  0  0  0  0
  146.0435  135.8465  156.9333 N   0  0  0  0  0  0  0  0  0  0  0  0
  146.8907  137.0263  157.1078 C   0  0  0  0  0  0  0  0  0  0  0  0
  146.4397  137.8473  158.3265 C   0  0  0  0  0  0  0  0  0  0  0  0
  146.3506  136.9978  159.6138 C   0  0  2  0  0  0  0  0  0  0  0  0
  145.6964  137.8099  160.5728 O   0  0  0  0  0  0  0  0  0  0  0  0
  147.7445  136.6345  160.1827 C   0  0  0  0  0  0  0  0  0  0  0  0
  147.6568  135.7198  161.4177 C   0  0  0  0  0  0  0  0  0  0  0  0
  146.8337  134.4565  161.1260 C   0  0  0  0  0  0  0  0  0  0  0  0
  145.4352  134.8101  160.5919 C   0  0  0  0  0  0  0  0  0  0  0  0
  145.4886  135.7318  159.3536 C   0  0  2  0  0  0  0  0  0  0  0  0
  145.9701  134.9685  158.0998 C   0  0  0  0  0  0  0  0  0  0  0  0
  147.2317  134.5042  155.4079 N   0  0  0  0  0  0  0  0  0  0  0  0
  147.3021  133.8498  154.2452 C   0  0  0  0  0  0  0  0  0  0  0  0
  146.3802  133.7517  153.2862 N   0  0  0  0  0  0  0  0  0  0  0  0
  145.2518  134.4446  153.6121 C   0  0  0  0  0  0  0  0  0  0  0  0
  144.7532  134.3115  150.4017 C   0  0  0  0  0  0  0  0  0  0  0  0
  147.5116  131.6057  150.0109 H   0  0  0  0  0  0  0  0  0  0  0  0
  146.1673  132.5520  148.4917 H   0  0  0  0  0  0  0  0  0  0  0  0
  145.4889  131.0764  149.1439 H   0  0  0  0  0  0  0  0  0  0  0  0
  143.7510  131.9223  148.0536 H   0  0  0  0  0  0  0  0  0  0  0  0
  142.4911  132.5748  149.0753 H   0  0  0  0  0  0  0  0  0  0  0  0
  144.2800  134.3383  147.8902 H   0  0  0  0  0  0  0  0  0  0  0  0
  143.0317  131.9873  151.2816 H   0  0  0  0  0  0  0  0  0  0  0  0
  144.7074  132.0694  151.9141 H   0  0  0  0  0  0  0  0  0  0  0  0
  142.7955  134.3734  151.3351 H   0  0  0  0  0  0  0  0  0  0  0  0
  142.3058  135.7304  153.2900 H   0  0  0  0  0  0  0  0  0  0  0  0
  147.9295  136.7150  157.2228 H   0  0  0  0  0  0  0  0  0  0  0  0
  146.8427  137.6546  156.2174 H   0  0  0  0  0  0  0  0  0  0  0  0
  147.1113  138.6942  158.4728 H   0  0  0  0  0  0  0  0  0  0  0  0
  145.4601  138.2731  158.1030 H   0  0  0  0  0  0  0  0  0  0  0  0
  144.8512  137.4314  160.7604 H   0  0  0  0  0  0  0  0  0  0  0  0
  148.3379  136.1280  159.4212 H   0  0  0  0  0  0  0  0  0  0  0  0
  148.2964  137.5406  160.4363 H   0  0  0  0  0  0  0  0  0  0  0  0
  148.6596  135.4409  161.7423 H   0  0  0  0  0  0  0  0  0  0  0  0
  147.2080  136.2635  162.2499 H   0  0  0  0  0  0  0  0  0  0  0  0
  147.3625  133.8319  160.4058 H   0  0  0  0  0  0  0  0  0  0  0  0
  146.7406  133.8595  162.0335 H   0  0  0  0  0  0  0  0  0  0  0  0
  144.8859  133.8978  160.3565 H   0  0  0  0  0  0  0  0  0  0  0  0
  144.8692  135.3027  161.3836 H   0  0  0  0  0  0  0  0  0  0  0  0
  144.4672  136.0543  159.1433 H   0  0  0  0  0  0  0  0  0  0  0  0
  145.3036  134.1262  157.9187 H   0  0  0  0  0  0  0  0  0  0  0  0
  146.9603  134.5431  158.2643 H   0  0  0  0  0  0  0  0  0  0  0  0
  148.2287  133.3274  154.0581 H   0  0  0  0  0  0  0  0  0  0  0  0
  145.7788  134.4806  150.7325 H   0  0  0  0  0  0  0  0  0  0  0  0
  144.4263  135.1154  149.7414 H   0  0  0  0  0  0  0  0  0  0  0  0
  1  2  1  0  0  0  0
  1 29  1  0  0  0  0
  2  3  1  0  0  0  0
  2 30  1  0  0  0  0
  2 31  1  0  0  0  0
  3 28  1  0  0  0  0
  3  4  1  0  0  0  0
  3  6  1  0  0  0  0
  4  5  1  0  0  0  0
  4 32  1  0  0  0  0
  4 33  1  0  0  0  0
  5 34  1  0  0  0  0
  6  7  1  0  0  0  0
  6 35  1  0  0  0  0
  6 36  1  0  0  0  0
  7  8  1  0  0  0  0
  7 28  1  0  0  0  0
  7 37  1  0  0  0  0
  8 27  1  0  0  0  0
  8  9  1  0  0  0  0
  9 10  2  0  0  0  0
  9 38  1  0  0  0  0
 10 11  1  0  0  0  0
 11 27  2  0  0  0  0
 11 12  1  0  0  0  0
 12 13  1  0  0  0  0
 12 24  2  0  0  0  0
 13 23  1  0  0  0  0
 13 14  1  0  0  0  0
 14 15  1  0  0  0  0
 14 39  1  0  0  0  0
 14 40  1  0  0  0  0
 15 16  1  0  0  0  0
 15 41  1  0  0  0  0
 15 42  1  0  0  0  0
 16 22  1  0  0  0  0
 16 17  1  0  0  0  0
 16 18  1  0  0  0  0
 17 43  1  0  0  0  0
 18 19  1  0  0  0  0
 18 44  1  0  0  0  0
 18 45  1  0  0  0  0
 19 20  1  0  0  0  0
 19 46  1  0  0  0  0
 19 47  1  0  0  0  0
 20 21  1  0  0  0  0
 20 48  1  0  0  0  0
 20 49  1  0  0  0  0
 21 22  1  0  0  0  0
 21 50  1  0  0  0  0
 21 51  1  0  0  0  0
 22 23  1  0  0  0  0
 22 52  1  0  0  0  0
 23 53  1  0  0  0  0
 23 54  1  0  0  0  0
 24 25  1  0  0  0  0
 25 26  2  0  0  0  0
 25 55  1  0  0  0  0
 26 27  1  0  0  0  0
 28 56  1  0  0  0  0
 28 57  1  0  0  0  0
M  END
> <s_m_source_file>
AV-unprocessed.smi

> <i_m_source_file_index>
176

> <i_lp_mmshare_version>
43012

> <i_f3d_flags>
0

> <s_epik_input>
W09IXVtDSDJdQzEoW0NIMl1bT0hdKVtDSDJdW0NIXShbQ0gyXTEpbihbY0hdbjIpYyhjMjMpbltjSF1uYzNOKFtDSDJdW0NIMl00KVtDSDJdW0NAQEhdKFtDQF00NVtPSF0pW0NIMl1bQ0gyXVtDSDJdW0NIMl01

> <s_epik_cmdline>
J2VwaWtfcHl0aG9uJywgJy1waCcsICc3LjAnLCAnLXRuJywgJzgnLCAnLW1hJywgJzIwMCcsICctbWV0YWxfYmluZGluZycsICctaW1hZScsICc8aW5maWxlLm1hZT4nLCAnLW9tYWUnLCAnPG91dGZpbGUubWFlPic=

> <r_lp_tautomer_probability>
1

> <r_epik_Ionization_Penalty>
0.00642876

> <r_epik_Ionization_Penalty_Charging>
0

> <r_epik_Ionization_Penalty_Neutral>
0.00642876

> <r_epik_State_Penalty>
0.00467813

> <r_epik_Charging_Adjusted_Penalty>
0.00467813

> <i_epik_Tot_Q>
0

> <i_epik_Tot_abs_Q>
0

> <r_epik_Metal_State_Penalty>
-0

> <b_epik_Metal_Only>
0

> <s_lp_Force_Field>
OPLS_2005

> <r_lp_Energy>
56.0126

> <b_lp_Chiralities_Consistent>
1

> <s_lp_Variant>
AV-unprocessed.smi:176-3

> <Gold.Version>
5.8.1

> <Gold.Id.Protein>
6NUR|6NUR_protein|mol2

> <Gold.PLP.Fitness>
47.7974

> <Gold.PLP.PLP>
-37.3943

> <Gold.PLP.part.hbond>
-5.8669

> <Gold.PLP.part.metal>
0.0000

> <Gold.PLP.part.buried>
-5.0670

> <Gold.PLP.part.nonpolar>
-25.8012

> <Gold.PLP.part.repulsive>
0.1672

> <Gold.PLP.ligand.clash>
0.0000

> <Gold.PLP.ligand.torsion>
1.1729

> <Gold.PLP.Chemscore.Hbond>
3.9920

> <Gold.PLP.Chemscore.CHOScore>
0.0000

> <Gold.PLP.Chemscore.Metal>
0.0000

> <Gold.Chemscore.Hbonds>
donor molecule, donor type, donor heavy atom, donor atom, acceptor molecule, acceptor atom, score
      L1  H     1    29       P1 10747  0.99
      L1  H     5    34       P1  7921  1.00
      P1  H  6934  6947       L1    17  0.90
      P1  H 10192 10197       L1     5  1.00

> <Gold.PLP.Chemscore.Internal.Correction>
0.7729

> <Gold.Rescore>
     Score         DG    S(hbond)    S(metal)    S(lipo)     H(rot)  DE(clash)    DE(int)     intcor
     16.21     -18.13       3.72        0.00      83.19       3.71       0.73       1.19       ----

> <Gold.Chemscore.Fitness>
16.2109

> <Gold.Chemscore.DG>
-18.1341

> <Gold.Chemscore.ZeroCoef>
-5.4800

> <Gold.Chemscore.Hbond>
3.7187

> <Gold.Chemscore.Metal>
0.0000

> <Gold.Chemscore.Lipo>
83.1927

> <Gold.Chemscore.Internal_Hbond>
0.0000

> <Gold.Chemscore.DEClash>
0.7334

> <Gold.Chemscore.DEInternal>
1.1898

> <Gold.Chemscore.Rot>
3.7109

> <Gold.Chemscore.Internal.Correction>
   9.000000E+99

> <Gold.Chemscore.Hbonds>
donor molecule, donor type, donor heavy atom, donor atom, acceptor molecule, acceptor atom, score
      L1  H     1    29       P1 10747  0.94
      L1  H     5    34       P1  7921  1.00
      P1  H  6934  6947       L1    17  0.17
      P1  H 10192 10197       L1     5  0.74

> <Gold.Chemscore.Hbond.Weighted>
-12.4205

> <Gold.Chemscore.Metal.Weighted>
-0.0000

> <Gold.Chemscore.Lipo.Weighted>
-9.7336

> <Gold.Chemscore.Internal_Hbond.Weighted>
0.0000

> <Gold.Chemscore.DEClash.Weighted>
0.7334

> <Gold.Chemscore.DEInternal.Weighted>
1.1898

> <Gold.Chemscore.Rot.Weighted>
9.5000

> <Gold.Chemscore.Internal.Correction.Weighted>
   9.000000E+99

> <Gold.Protein.RotatedTorsions>
[ 6907 6896 6895 6894 ] final  -56.30 input  -60.11 | X-H torsion
[ 7974 7965 7964 7962 ] final  127.28 input  175.53 | X-H torsion
[ 8008 7997 7996 7995 ] final  158.95 input   59.86 | X-H torsion
[ 10167 10162 10161 10158 ] final -136.62 input  -65.29 | X-H torsion
[ 10718 10713 10712 10709 ] final  -99.99 input   66.30 | X-H torsion
[ 10763 10752 10751 10750 ] final  -52.80 input  -60.55 | X-H torsion
[ 11005 11000 10999 10996 ] final  -78.98 input  -57.11 | X-H torsion

> <Gold.Protein.ActiveResidues>
 VAL166  LYS551  ARG553  GLY616  TRP617  ASP618  TYR619  PRO620  LYS621  CYS622 
 ASP623  PHE694  ASN695  SER759  ASP760  ASP761  ALA762  ILE779  LEU786  VAL792 
 PHE793  MET794  SER795  GLU796  ALA797  LYS798  CYS799  TRP800  GLU811  SER814 

> <Gold.Protein.RotatedAtoms>
  150.8179  134.7371  159.6746 H   0  0  0  0  0  0  0  0  0  0  0  0  # atno 6907 bound_to 6896
  152.4297  134.5798  159.9954 H   0  0  0  0  0  0  0  0  0  0  0  0  # atno 6908 bound_to 6896
  151.5990  133.3321  159.3079 H   0  0  0  0  0  0  0  0  0  0  0  0  # atno 6909 bound_to 6896
  145.0523  139.3872  143.5047 H   0  0  0  0  0  0  0  0  0  0  0  0  # atno 7974 bound_to 7965
  156.2270  140.1844  156.7337 H   0  0  0  0  0  0  0  0  0  0  0  0  # atno 8008 bound_to 7997
  154.5958  140.0643  156.9330 H   0  0  0  0  0  0  0  0  0  0  0  0  # atno 8009 bound_to 7997
  155.2258  140.3311  155.4312 H   0  0  0  0  0  0  0  0  0  0  0  0  # atno 8010 bound_to 7997
  139.8660  143.7017  152.2645 H   0  0  0  0  0  0  0  0  0  0  0  0  # atno 10167 bound_to 10162
  156.0150  130.5307  150.6751 H   0  0  0  0  0  0  0  0  0  0  0  0  # atno 10718 bound_to 10713
  154.1486  135.6494  153.4958 H   0  0  0  0  0  0  0  0  0  0  0  0  # atno 10763 bound_to 10752
  153.0144  135.5332  154.6832 H   0  0  0  0  0  0  0  0  0  0  0  0  # atno 10764 bound_to 10752
  154.6113  135.2954  155.0400 H   0  0  0  0  0  0  0  0  0  0  0  0  # atno 10765 bound_to 10752
  141.1666  133.7086  156.8053 H   0  0  0  0  0  0  0  0  0  0  0  0  # atno 11005 bound_to 11000
  146.3519  140.0180  142.8661 LP  0  0  0  0  0  0  0  0  0  0  0  0  # atno 17320 bound_to 7965
  145.1511  140.9623  143.4432 LP  0  0  0  0  0  0  0  0  0  0  0  0  # atno 17321 bound_to 7965
  139.7329  144.7578  151.0774 LP  0  0  0  0  0  0  0  0  0  0  0  0  # atno 17342 bound_to 10162
  140.7768  143.5066  150.9704 LP  0  0  0  0  0  0  0  0  0  0  0  0  # atno 17343 bound_to 10162
  157.4465  131.0867  151.0890 LP  0  0  0  0  0  0  0  0  0  0  0  0  # atno 17370 bound_to 10713
  157.1418  130.6146  149.5557 LP  0  0  0  0  0  0  0  0  0  0  0  0  # atno 17371 bound_to 10713
  140.2227  134.8745  157.3394 LP  0  0  0  0  0  0  0  0  0  0  0  0  # atno 17394 bound_to 11000
  140.1972  134.4299  155.7683 LP  0  0  0  0  0  0  0  0  0  0  0  0  # atno 17395 bound_to 11000

$$$$
