AV-unprocessed.smi:2124|AV-procd|sdf|8663|dock7
  -GOLD-   2272011413D 1   1.00000     0.00000
 Structure written by MMmdl.
 47 49  0  0  0  0  0  0  0  0  1 V2000
  151.3181  143.1037  157.2120 C   0  0  0  0  0  0  0  0  0  0  0  0
  150.8442  141.9277  156.3862 C   0  0  0  0  0  0  0  0  0  0  0  0
  149.7136  142.1973  155.6326 N   0  0  0  0  0  0  0  0  0  0  0  0
  149.2053  141.1821  154.8419 C   0  0  0  0  0  0  0  0  0  0  0  0
  147.9647  141.5592  154.0510 C   0  0  0  0  0  0  0  0  0  0  0  0
  149.7926  139.9589  154.8059 C   0  0  0  0  0  0  0  0  0  0  0  0
  149.2582  138.8083  153.9535 C   0  0  0  0  0  0  0  0  0  0  0  0
  147.8147  138.3770  154.2269 C   0  0  0  0  0  0  0  0  0  0  0  0
  147.1027  139.0186  155.0002 O   0  0  0  0  0  0  0  0  0  0  0  0
  147.3967  137.2801  153.5773 N   0  0  0  0  0  0  0  0  0  0  0  0
  146.0687  136.6808  153.6918 C   0  0  1  0  0  0  0  0  0  0  0  0
  145.0042  137.7811  153.5283 C   0  0  0  0  0  0  0  0  0  0  0  0
  145.9077  135.5501  152.6465 C   0  0  2  0  0  0  0  0  0  0  0  0
  145.7290  136.0671  151.1979 C   0  0  0  0  0  0  0  0  0  0  0  0
  144.4322  135.3811  150.7319 C   0  0  1  0  0  0  0  0  0  0  0  0
  144.6812  133.8723  150.5562 C   0  0  0  0  0  0  0  0  0  0  0  0
  144.8045  133.3798  152.0100 C   0  0  0  0  0  0  0  0  0  0  0  0
  144.6376  134.6774  152.8245 C   0  0  2  0  0  0  0  0  0  0  0  0
  143.5911  135.4203  152.0003 C   0  0  0  0  0  0  0  0  0  0  0  0
  150.9969  139.7290  155.6382 C   0  0  0  0  0  0  0  0  0  0  0  0
  151.5673  138.6392  155.6579 O   0  0  0  0  0  0  0  0  0  0  0  0
  151.4761  140.7939  156.4182 N   0  0  0  0  0  0  0  0  0  0  0  0
  149.2435  143.0911  155.6327 H   0  0  0  0  0  0  0  0  0  0  0  0
  152.1752  142.8281  157.8278 H   0  0  0  0  0  0  0  0  0  0  0  0
  150.5227  143.4500  157.8727 H   0  0  0  0  0  0  0  0  0  0  0  0
  151.6149  143.9281  156.5631 H   0  0  0  0  0  0  0  0  0  0  0  0
  147.1388  140.8903  154.2943 H   0  0  0  0  0  0  0  0  0  0  0  0
  148.1605  141.4908  152.9807 H   0  0  0  0  0  0  0  0  0  0  0  0
  147.6444  142.5792  154.2681 H   0  0  0  0  0  0  0  0  0  0  0  0
  149.9037  137.9339  154.0451 H   0  0  0  0  0  0  0  0  0  0  0  0
  149.3279  139.0953  152.9041 H   0  0  0  0  0  0  0  0  0  0  0  0
  148.0510  136.8177  152.9628 H   0  0  0  0  0  0  0  0  0  0  0  0
  145.9639  136.2455  154.6871 H   0  0  0  0  0  0  0  0  0  0  0  0
  143.9954  137.3866  153.6469 H   0  0  0  0  0  0  0  0  0  0  0  0
  145.0640  138.2471  152.5442 H   0  0  0  0  0  0  0  0  0  0  0  0
  145.1316  138.5663  154.2742 H   0  0  0  0  0  0  0  0  0  0  0  0
  146.7922  134.9131  152.7029 H   0  0  0  0  0  0  0  0  0  0  0  0
  145.6005  137.1500  151.1707 H   0  0  0  0  0  0  0  0  0  0  0  0
  146.5802  135.8209  150.5621 H   0  0  0  0  0  0  0  0  0  0  0  0
  143.9764  135.8540  149.8616 H   0  0  0  0  0  0  0  0  0  0  0  0
  143.8364  133.3934  150.0596 H   0  0  0  0  0  0  0  0  0  0  0  0
  145.5766  133.6669  149.9683 H   0  0  0  0  0  0  0  0  0  0  0  0
  144.0077  132.6720  152.2428 H   0  0  0  0  0  0  0  0  0  0  0  0
  145.7561  132.8833  152.2031 H   0  0  0  0  0  0  0  0  0  0  0  0
  144.3520  134.4907  153.8596 H   0  0  0  0  0  0  0  0  0  0  0  0
  143.3899  136.4316  152.3573 H   0  0  0  0  0  0  0  0  0  0  0  0
  142.6471  134.8794  151.9103 H   0  0  0  0  0  0  0  0  0  0  0  0
  1 24  1  0  0  0  0
  1 25  1  0  0  0  0
  1 26  1  0  0  0  0
  1  2  1  0  0  0  0
  2  3  1  0  0  0  0
  2 22  2  0  0  0  0
  3  4  1  0  0  0  0
  3 23  1  0  0  0  0
  4  6  2  0  0  0  0
  4  5  1  0  0  0  0
  5 27  1  0  0  0  0
  5 28  1  0  0  0  0
  5 29  1  0  0  0  0
  6 20  1  0  0  0  0
  6  7  1  0  0  0  0
  7  8  1  0  0  0  0
  7 30  1  0  0  0  0
  7 31  1  0  0  0  0
  8  9  2  0  0  0  0
  8 10  1  0  0  0  0
 10 11  1  0  0  0  0
 10 32  1  0  0  0  0
 11 12  1  0  0  0  0
 11 13  1  0  0  0  0
 11 33  1  0  0  0  0
 12 34  1  0  0  0  0
 12 35  1  0  0  0  0
 12 36  1  0  0  0  0
 13 18  1  0  0  0  0
 13 14  1  0  0  0  0
 13 37  1  0  0  0  0
 14 15  1  0  0  0  0
 14 38  1  0  0  0  0
 14 39  1  0  0  0  0
 15 19  1  0  0  0  0
 15 16  1  0  0  0  0
 15 40  1  0  0  0  0
 16 17  1  0  0  0  0
 16 41  1  0  0  0  0
 16 42  1  0  0  0  0
 17 18  1  0  0  0  0
 17 43  1  0  0  0  0
 17 44  1  0  0  0  0
 18 19  1  0  0  0  0
 18 45  1  0  0  0  0
 19 46  1  0  0  0  0
 19 47  1  0  0  0  0
 20 21  2  0  0  0  0
 20 22  1  0  0  0  0
M  END
> <s_m_source_file>
AV-unprocessed.smi

> <i_m_source_file_index>
2124

> <i_lp_mmshare_version>
43012

> <i_f3d_flags>
0

> <s_epik_input>
W0NIM11jMW5jKFtDSDNdKWMoYyg9TylbbkhdMSlbQ0gyXUMoPU8pW05IXVtDQEhdKFtDSDNdKVtDQEhdKFtDSDJdW0NASF0yMylbQ0BIXShbQ0gyXTMpW0NIMl1bQ0gyXTI=

> <s_epik_cmdline>
J2VwaWtfcHl0aG9uJywgJy1waCcsICc3LjAnLCAnLXRuJywgJzgnLCAnLW1hJywgJzIwMCcsICctbWV0YWxfYmluZGluZycsICctaW1hZScsICc8aW5maWxlLm1hZT4nLCAnLW9tYWUnLCAnPG91dGZpbGUubWFlPic=

> <r_lp_tautomer_probability>
0.156392

> <r_epik_Ionization_Penalty>
0.0139374

> <r_epik_Ionization_Penalty_Charging>
0.0138122

> <r_epik_Ionization_Penalty_Neutral>
0.000125146

> <r_epik_State_Penalty>
1.15342

> <r_epik_Charging_Adjusted_Penalty>
1.16723

> <i_epik_Tot_Q>
0

> <i_epik_Tot_abs_Q>
0

> <r_epik_Metal_State_Penalty>
1.3173

> <b_epik_Metal_Only>
0

> <s_lp_Force_Field>
OPLS_2005

> <r_lp_Energy>
55.952

> <b_lp_Chiralities_Consistent>
1

> <s_lp_Variant>
AV-unprocessed.smi:2124-14

> <Gold.Version>
5.8.1

> <Gold.Id.Protein>
6NUR|6NUR_protein|mol2

> <Gold.PLP.Fitness>
41.2681

> <Gold.PLP.PLP>
-35.7708

> <Gold.PLP.part.hbond>
-2.0000

> <Gold.PLP.part.metal>
0.0000

> <Gold.PLP.part.buried>
-3.8671

> <Gold.PLP.part.nonpolar>
-30.5635

> <Gold.PLP.part.repulsive>
0.2349

> <Gold.PLP.ligand.clash>
0.0000

> <Gold.PLP.ligand.torsion>
0.2618

> <Gold.PLP.Chemscore.Hbond>
2.0000

> <Gold.PLP.Chemscore.CHOScore>
0.0000

> <Gold.PLP.Chemscore.Metal>
0.0000

> <Gold.Chemscore.Hbonds>
donor molecule, donor type, donor heavy atom, donor atom, acceptor molecule, acceptor atom, score
      L1  H     3    23       P1  8028  1.00
      L1  H    10    32       P1  7948  1.00

> <Gold.PLP.Chemscore.Internal.Correction>
0.0209

> <Gold.Rescore>
     Score         DG    S(hbond)    S(metal)    S(lipo)     H(rot)  DE(clash)    DE(int)     intcor
     15.39     -16.99       1.99        0.00      77.66       1.65       0.09       1.51       ----

> <Gold.Chemscore.Fitness>
15.3880

> <Gold.Chemscore.DG>
-16.9857

> <Gold.Chemscore.ZeroCoef>
-5.4800

> <Gold.Chemscore.Hbond>
1.9918

> <Gold.Chemscore.Metal>
0.0000

> <Gold.Chemscore.Lipo>
77.6564

> <Gold.Chemscore.Internal_Hbond>
0.0000

> <Gold.Chemscore.DEClash>
0.0868

> <Gold.Chemscore.DEInternal>
1.5110

> <Gold.Chemscore.Rot>
1.6534

> <Gold.Chemscore.Internal.Correction>
   9.000000E+99

> <Gold.Chemscore.Hbonds>
donor molecule, donor type, donor heavy atom, donor atom, acceptor molecule, acceptor atom, score
      L1  H     3    23       P1  8028  1.00
      L1  H    10    32       P1  7948  0.94

> <Gold.Chemscore.Hbond.Weighted>
-6.6525

> <Gold.Chemscore.Metal.Weighted>
-0.0000

> <Gold.Chemscore.Lipo.Weighted>
-9.0858

> <Gold.Chemscore.Internal_Hbond.Weighted>
0.0000

> <Gold.Chemscore.DEClash.Weighted>
0.0868

> <Gold.Chemscore.DEInternal.Weighted>
1.5110

> <Gold.Chemscore.Rot.Weighted>
4.2326

> <Gold.Chemscore.Internal.Correction.Weighted>
   9.000000E+99

> <Gold.Protein.RotatedTorsions>
[ 6907 6896 6895 6894 ] final  -11.02 input  -60.11 | X-H torsion
[ 7974 7965 7964 7962 ] final   47.26 input  175.53 | X-H torsion
[ 8008 7997 7996 7995 ] final -139.29 input   59.86 | X-H torsion
[ 10167 10162 10161 10158 ] final  -99.63 input  -65.29 | X-H torsion
[ 10718 10713 10712 10709 ] final   79.00 input   66.30 | X-H torsion
[ 10763 10752 10751 10750 ] final   76.73 input  -60.55 | X-H torsion
[ 11005 11000 10999 10996 ] final  -52.87 input  -57.11 | X-H torsion

> <Gold.Protein.ActiveResidues>
 VAL166  LYS551  ARG553  GLY616  TRP617  ASP618  TYR619  PRO620  LYS621  CYS622 
 ASP623  PHE694  ASN695  SER759  ASP760  ASP761  ALA762  ILE779  LEU786  VAL792 
 PHE793  MET794  SER795  GLU796  ALA797  LYS798  CYS799  TRP800  GLU811  SER814 

> <Gold.Protein.RotatedAtoms>
  151.3928  135.0958  159.9531 H   0  0  0  0  0  0  0  0  0  0  0  0  # atno 6907 bound_to 6896
  152.5074  133.8963  159.7429 H   0  0  0  0  0  0  0  0  0  0  0  0  # atno 6908 bound_to 6896
  150.9420  133.6589  159.2817 H   0  0  0  0  0  0  0  0  0  0  0  0  # atno 6909 bound_to 6896
  146.0314  139.4769  142.9835 H   0  0  0  0  0  0  0  0  0  0  0  0  # atno 7974 bound_to 7965
  155.4425  140.0533  157.3009 H   0  0  0  0  0  0  0  0  0  0  0  0  # atno 8008 bound_to 7997
  154.4812  140.2082  155.9716 H   0  0  0  0  0  0  0  0  0  0  0  0  # atno 8009 bound_to 7997
  156.1208  140.3188  155.8210 H   0  0  0  0  0  0  0  0  0  0  0  0  # atno 8010 bound_to 7997
  140.2604  143.3411  152.0631 H   0  0  0  0  0  0  0  0  0  0  0  0  # atno 10167 bound_to 10162
  157.6763  130.9894  150.1868 H   0  0  0  0  0  0  0  0  0  0  0  0  # atno 10718 bound_to 10713
  153.0747  135.4940  154.8379 H   0  0  0  0  0  0  0  0  0  0  0  0  # atno 10763 bound_to 10752
  154.7071  135.3012  154.9257 H   0  0  0  0  0  0  0  0  0  0  0  0  # atno 10764 bound_to 10752
  153.9962  135.6772  153.4809 H   0  0  0  0  0  0  0  0  0  0  0  0  # atno 10765 bound_to 10752
  141.0947  133.6626  156.4089 H   0  0  0  0  0  0  0  0  0  0  0  0  # atno 11005 bound_to 11000
  145.7034  141.0129  143.1492 LP  0  0  0  0  0  0  0  0  0  0  0  0  # atno 17320 bound_to 7965
  144.7032  139.8671  143.7438 LP  0  0  0  0  0  0  0  0  0  0  0  0  # atno 17321 bound_to 7965
  139.5018  144.6722  151.6215 LP  0  0  0  0  0  0  0  0  0  0  0  0  # atno 17342 bound_to 10162
  140.5970  143.9678  150.6361 LP  0  0  0  0  0  0  0  0  0  0  0  0  # atno 17343 bound_to 10162
  156.2588  130.3708  149.8153 LP  0  0  0  0  0  0  0  0  0  0  0  0  # atno 17370 bound_to 10713
  156.5904  130.8504  151.3406 LP  0  0  0  0  0  0  0  0  0  0  0  0  # atno 17371 bound_to 10713
  140.5169  134.6342  157.5304 LP  0  0  0  0  0  0  0  0  0  0  0  0  # atno 17394 bound_to 11000
  139.9781  134.7182  155.9912 LP  0  0  0  0  0  0  0  0  0  0  0  0  # atno 17395 bound_to 11000

$$$$
