AV-unprocessed.smi:1867|AV-procd|sdf|7566|dock5
  -GOLD-   22720 9283D 1   1.00000     0.00000
 Structure written by MMmdl.
 52 55  0  0  0  0  0  0  0  0  2 V2000
  149.1361  137.0602  156.8804 O   0  0  0  0  0  0  0  0  0  0  0  0
  149.2027  137.4021  155.7022 C   0  0  0  0  0  0  0  0  0  0  0  0
  149.6480  138.5996  155.2747 N   0  0  0  0  0  0  0  0  0  0  0  0
  150.1847  139.6687  156.0396 C   0  0  0  0  0  0  0  0  0  0  0  0
  150.1689  140.9591  155.4762 C   0  0  0  0  0  0  0  0  0  0  0  0
  150.7115  142.0352  156.2032 C   0  0  0  0  0  0  0  0  0  0  0  0
  151.2679  141.7899  157.4813 C   0  0  0  0  0  0  0  0  0  0  0  0
  151.8264  142.8344  158.2450 N   0  0  0  0  0  0  0  0  0  0  0  0
  151.5099  144.2314  157.9957 C   0  0  0  0  0  0  0  0  0  0  0  0
  152.1996  144.9954  159.1256 C   0  0  0  0  0  0  0  0  0  0  0  0
  152.1591  144.0073  160.2911 C   0  0  0  0  0  0  0  0  0  0  0  0
  152.2721  142.6349  159.6186 C   0  0  0  0  0  0  0  0  0  0  0  0
  151.3026  140.5454  158.0140 N   0  0  0  0  0  0  0  0  0  0  0  0
  150.7778  139.5169  157.3151 C   0  0  0  0  0  0  0  0  0  0  0  0
  148.8050  136.5758  154.7172 N   0  0  0  0  0  0  0  0  0  0  0  0
  148.2717  135.2139  154.8229 C   0  0  2  0  0  0  0  0  0  0  0  0
  149.2867  134.1430  154.3776 C   0  0  0  0  0  0  0  0  0  0  0  0
  148.4565  133.1229  153.5923 C   0  0  0  0  0  0  0  0  0  0  0  0
  147.4287  133.9567  152.9597 N   0  3  1  0  0  0  0  0  0  0  0  0
  146.2853  133.2914  152.3028 C   0  0  0  0  0  0  0  0  0  0  0  0
  145.4603  134.3632  151.5583 C   0  0  0  0  0  0  0  0  0  0  0  0
  145.0724  135.5449  152.4758 C   0  0  0  0  0  0  0  0  0  0  0  0
  146.2937  136.1104  153.2333 C   0  0  0  0  0  0  0  0  0  0  0  0
  147.0126  134.9573  153.9577 C   0  0  2  0  0  0  0  0  0  0  0  0
  149.5527  138.7818  154.2866 H   0  0  0  0  0  0  0  0  0  0  0  0
  149.7426  141.1277  154.4979 H   0  0  0  0  0  0  0  0  0  0  0  0
  150.6943  143.0242  155.7707 H   0  0  0  0  0  0  0  0  0  0  0  0
  151.8652  144.5590  157.0183 H   0  0  0  0  0  0  0  0  0  0  0  0
  150.4291  144.3719  158.0387 H   0  0  0  0  0  0  0  0  0  0  0  0
  153.2361  145.2004  158.8540 H   0  0  0  0  0  0  0  0  0  0  0  0
  151.7152  145.9456  159.3524 H   0  0  0  0  0  0  0  0  0  0  0  0
  152.9440  144.1829  161.0274 H   0  0  0  0  0  0  0  0  0  0  0  0
  151.1979  144.0865  160.8008 H   0  0  0  0  0  0  0  0  0  0  0  0
  151.6759  141.8911  160.1485 H   0  0  0  0  0  0  0  0  0  0  0  0
  153.3082  142.2950  159.6037 H   0  0  0  0  0  0  0  0  0  0  0  0
  150.8648  138.5549  157.7954 H   0  0  0  0  0  0  0  0  0  0  0  0
  148.8838  136.9408  153.7787 H   0  0  0  0  0  0  0  0  0  0  0  0
  148.0230  135.0026  155.8645 H   0  0  0  0  0  0  0  0  0  0  0  0
  150.0350  134.5818  153.7153 H   0  0  0  0  0  0  0  0  0  0  0  0
  149.8167  133.6906  155.2164 H   0  0  0  0  0  0  0  0  0  0  0  0
  149.0471  132.5743  152.8577 H   0  0  0  0  0  0  0  0  0  0  0  0
  147.9872  132.4056  154.2676 H   0  0  0  0  0  0  0  0  0  0  0  0
  146.6490  132.5412  151.5999 H   0  0  0  0  0  0  0  0  0  0  0  0
  145.6744  132.7735  153.0435 H   0  0  0  0  0  0  0  0  0  0  0  0
  146.0448  134.7433  150.7193 H   0  0  0  0  0  0  0  0  0  0  0  0
  144.5649  133.9138  151.1276 H   0  0  0  0  0  0  0  0  0  0  0  0
  144.5972  136.3330  151.8910 H   0  0  0  0  0  0  0  0  0  0  0  0
  144.3272  135.2076  153.1975 H   0  0  0  0  0  0  0  0  0  0  0  0
  146.9716  136.6035  152.5353 H   0  0  0  0  0  0  0  0  0  0  0  0
  145.9624  136.8669  153.9446 H   0  0  0  0  0  0  0  0  0  0  0  0
  146.2859  134.4774  154.6172 H   0  0  0  0  0  0  0  0  0  0  0  0
  147.9115  134.4717  152.2372 H   0  0  0  0  0  0  0  0  0  0  0  0
  1  2  2  0  0  0  0
  2  3  1  0  0  0  0
  2 15  1  0  0  0  0
  3  4  1  0  0  0  0
  3 25  1  0  0  0  0
  4 14  1  0  0  0  0
  4  5  2  0  0  0  0
  5  6  1  0  0  0  0
  5 26  1  0  0  0  0
  6  7  2  0  0  0  0
  6 27  1  0  0  0  0
  7  8  1  0  0  0  0
  7 13  1  0  0  0  0
  8 12  1  0  0  0  0
  8  9  1  0  0  0  0
  9 10  1  0  0  0  0
  9 28  1  0  0  0  0
  9 29  1  0  0  0  0
 10 11  1  0  0  0  0
 10 30  1  0  0  0  0
 10 31  1  0  0  0  0
 11 12  1  0  0  0  0
 11 32  1  0  0  0  0
 11 33  1  0  0  0  0
 12 34  1  0  0  0  0
 12 35  1  0  0  0  0
 13 14  2  0  0  0  0
 14 36  1  0  0  0  0
 15 16  1  0  0  0  0
 15 37  1  0  0  0  0
 16 24  1  0  0  0  0
 16 17  1  0  0  0  0
 16 38  1  0  0  0  0
 17 18  1  0  0  0  0
 17 39  1  0  0  0  0
 17 40  1  0  0  0  0
 18 19  1  0  0  0  0
 18 41  1  0  0  0  0
 18 42  1  0  0  0  0
 19 24  1  0  0  0  0
 19 20  1  0  0  0  0
 19 52  1  0  0  0  0
 20 21  1  0  0  0  0
 20 43  1  0  0  0  0
 20 44  1  0  0  0  0
 21 22  1  0  0  0  0
 21 45  1  0  0  0  0
 21 46  1  0  0  0  0
 22 23  1  0  0  0  0
 22 47  1  0  0  0  0
 22 48  1  0  0  0  0
 23 24  1  0  0  0  0
 23 49  1  0  0  0  0
 23 50  1  0  0  0  0
 24 51  1  0  0  0  0
M  CHG  1  19   1
M  END
> <s_m_source_file>
AV-unprocessed.smi

> <i_m_source_file_index>
1867

> <i_lp_mmshare_version>
43012

> <i_f3d_flags>
0

> <s_epik_input>
W0NIMl0xW0NIMl1bQ0gyXVtDSDJdW0NASF0oTjEyKVtDQEBIXShbQ0gyXVtDSDJdMilbTkhdQyg9TylbTkhdYzNbY0hdW2NIXWMobltjSF0zKU40W0NIMl1bQ0gyXVtDSDJdW0NIMl00

> <s_epik_cmdline>
J2VwaWtfcHl0aG9uJywgJy1waCcsICc3LjAnLCAnLXRuJywgJzgnLCAnLW1hJywgJzIwMCcsICctbWV0YWxfYmluZGluZycsICctaW1hZScsICc8aW5maWxlLm1hZT4nLCAnLW9tYWUnLCAnPG91dGZpbGUubWFlPic=

> <r_lp_tautomer_probability>
1

> <r_epik_Ionization_Penalty>
0.0751123

> <r_epik_Ionization_Penalty_Charging>
0.000974069

> <r_epik_Ionization_Penalty_Neutral>
0.0741382

> <r_epik_State_Penalty>
0.0647261

> <r_epik_Charging_Adjusted_Penalty>
0.0657002

> <i_epik_Tot_Q>
1

> <i_epik_Tot_abs_Q>
1

> <r_epik_Metal_State_Penalty>
0.0580571

> <b_epik_Metal_Only>
0

> <s_lp_Force_Field>
OPLS_2005

> <r_lp_Energy>
77.2507

> <b_lp_Chiralities_Consistent>
1

> <s_lp_Variant>
AV-unprocessed.smi:1867-7

> <Gold.Version>
5.8.1

> <Gold.Id.Protein>
6NUR|6NUR_protein|mol2

> <Gold.PLP.Fitness>
47.9810

> <Gold.PLP.PLP>
-40.8606

> <Gold.PLP.part.hbond>
-2.0000

> <Gold.PLP.part.metal>
0.0000

> <Gold.PLP.part.buried>
-1.3360

> <Gold.PLP.part.nonpolar>
-37.3102

> <Gold.PLP.part.repulsive>
0.0246

> <Gold.PLP.ligand.clash>
0.0000

> <Gold.PLP.ligand.torsion>
0.3615

> <Gold.PLP.Chemscore.Hbond>
2.5600

> <Gold.PLP.Chemscore.CHOScore>
0.0000

> <Gold.PLP.Chemscore.Metal>
0.0000

> <Gold.Chemscore.Hbonds>
donor molecule, donor type, donor heavy atom, donor atom, acceptor molecule, acceptor atom, score
      L1  H    15    37       P1  7948  0.76
      L1  H    19    52       P1  7948  1.79

> <Gold.PLP.Chemscore.Internal.Correction>
0.1634

> <Gold.Rescore>
     Score         DG    S(hbond)    S(metal)    S(lipo)     H(rot)  DE(clash)    DE(int)     intcor
     17.98     -19.30       1.23        0.00     104.91       1.00       0.08       1.25       ----

> <Gold.Chemscore.Fitness>
17.9770

> <Gold.Chemscore.DG>
-19.3027

> <Gold.Chemscore.ZeroCoef>
-5.4800

> <Gold.Chemscore.Hbond>
1.2301

> <Gold.Chemscore.Metal>
0.0000

> <Gold.Chemscore.Lipo>
104.9074

> <Gold.Chemscore.Internal_Hbond>
0.0000

> <Gold.Chemscore.DEClash>
0.0773

> <Gold.Chemscore.DEInternal>
1.2484

> <Gold.Chemscore.Rot>
1.0000

> <Gold.Chemscore.Internal.Correction>
   9.000000E+99

> <Gold.Chemscore.Hbonds>
donor molecule, donor type, donor heavy atom, donor atom, acceptor molecule, acceptor atom, score
      L1  H    15    37       P1  7948  0.72
      L1  H    19    52       P1  7948  0.29

> <Gold.Chemscore.Hbond.Weighted>
-4.1085

> <Gold.Chemscore.Metal.Weighted>
-0.0000

> <Gold.Chemscore.Lipo.Weighted>
-12.2742

> <Gold.Chemscore.Internal_Hbond.Weighted>
0.0000

> <Gold.Chemscore.DEClash.Weighted>
0.0773

> <Gold.Chemscore.DEInternal.Weighted>
1.2484

> <Gold.Chemscore.Rot.Weighted>
2.5600

> <Gold.Chemscore.Internal.Correction.Weighted>
   9.000000E+99

> <Gold.Protein.RotatedTorsions>
[ 6907 6896 6895 6894 ] final -177.48 input  -60.11 | X-H torsion
[ 7974 7965 7964 7962 ] final -137.99 input  175.53 | X-H torsion
[ 8008 7997 7996 7995 ] final -176.42 input   59.86 | X-H torsion
[ 10167 10162 10161 10158 ] final   -4.17 input  -65.29 | X-H torsion
[ 10718 10713 10712 10709 ] final   81.68 input   66.30 | X-H torsion
[ 10763 10752 10751 10750 ] final -102.89 input  -60.55 | X-H torsion
[ 11005 11000 10999 10996 ] final  -22.26 input  -57.11 | X-H torsion

> <Gold.Protein.ActiveResidues>
 VAL166  LYS551  ARG553  GLY616  TRP617  ASP618  TYR619  PRO620  LYS621  CYS622 
 ASP623  PHE694  ASN695  SER759  ASP760  ASP761  ALA762  ILE779  LEU786  VAL792 
 PHE793  MET794  SER795  GLU796  ALA797  LYS798  CYS799  TRP800  GLU811  SER814 

> <Gold.Protein.RotatedAtoms>
  151.6217  133.3338  159.3089 H   0  0  0  0  0  0  0  0  0  0  0  0  # atno 6907 bound_to 6896
  150.8103  134.7257  159.6693 H   0  0  0  0  0  0  0  0  0  0  0  0  # atno 6908 bound_to 6896
  152.4199  134.5979  160.0043 H   0  0  0  0  0  0  0  0  0  0  0  0  # atno 6909 bound_to 6896
  144.8796  140.6487  143.5215 H   0  0  0  0  0  0  0  0  0  0  0  0  # atno 7974 bound_to 7965
  155.9947  140.1208  157.0605 H   0  0  0  0  0  0  0  0  0  0  0  0  # atno 8008 bound_to 7997
  154.4222  140.1119  156.5682 H   0  0  0  0  0  0  0  0  0  0  0  0  # atno 8009 bound_to 7997
  155.6295  140.3473  155.4680 H   0  0  0  0  0  0  0  0  0  0  0  0  # atno 8010 bound_to 7997
  140.6917  143.6455  150.8397 H   0  0  0  0  0  0  0  0  0  0  0  0  # atno 10167 bound_to 10162
  157.6839  131.0015  150.2263 H   0  0  0  0  0  0  0  0  0  0  0  0  # atno 10718 bound_to 10713
  154.7767  135.4844  153.9759 H   0  0  0  0  0  0  0  0  0  0  0  0  # atno 10763 bound_to 10752
  153.1438  135.6778  153.8993 H   0  0  0  0  0  0  0  0  0  0  0  0  # atno 10764 bound_to 10752
  153.8659  135.3149  155.3418 H   0  0  0  0  0  0  0  0  0  0  0  0  # atno 10765 bound_to 10752
  140.8640  133.7767  156.0108 H   0  0  0  0  0  0  0  0  0  0  0  0  # atno 11005 bound_to 11000
  145.3979  139.1603  143.4193 LP  0  0  0  0  0  0  0  0  0  0  0  0  # atno 17320 bound_to 7965
  146.2985  140.4074  142.8712 LP  0  0  0  0  0  0  0  0  0  0  0  0  # atno 17321 bound_to 7965
  140.0168  143.5584  152.2817 LP  0  0  0  0  0  0  0  0  0  0  0  0  # atno 17342 bound_to 10162
  139.6328  144.7646  151.2500 LP  0  0  0  0  0  0  0  0  0  0  0  0  # atno 17343 bound_to 10162
  156.2904  130.3745  149.7847 LP  0  0  0  0  0  0  0  0  0  0  0  0  # atno 17370 bound_to 10713
  156.5508  130.8341  151.3299 LP  0  0  0  0  0  0  0  0  0  0  0  0  # atno 17371 bound_to 10713
  140.8650  134.2795  157.5217 LP  0  0  0  0  0  0  0  0  0  0  0  0  # atno 17394 bound_to 11000
  139.8708  134.9538  156.4155 LP  0  0  0  0  0  0  0  0  0  0  0  0  # atno 17395 bound_to 11000

$$$$
