AV-unprocessed.smi:1273|AV-procd|sdf|5339|dock5
  -GOLD-   22720 4473D 1   1.00000     0.00000
 Structure written by MMmdl.
 40 41  0  0  0  0  0  0  0  0  1 V2000
  155.2565  134.0183  161.7209 C   0  0  0  0  0  0  0  0  0  0  0  0
  155.4882  135.4692  162.1738 C   0  0  1  0  0  0  0  0  0  0  0  0
  154.7771  136.4719  161.2546 C   0  0  0  0  0  0  0  0  0  0  0  0
  154.1989  136.0746  160.2430 O   0  0  0  0  0  0  0  0  0  0  0  0
  154.8246  137.7596  161.6443 N   0  0  0  0  0  0  0  0  0  0  0  0
  154.2776  138.8947  160.9898 C   0  0  0  0  0  0  0  0  0  0  0  0
  154.3042  140.1309  161.6636 C   0  0  0  0  0  0  0  0  0  0  0  0
  153.7905  141.2745  161.0233 C   0  0  0  0  0  0  0  0  0  0  0  0
  153.2691  141.1563  159.7131 C   0  0  0  0  0  0  0  0  0  0  0  0
  152.7488  142.2888  159.0496 N   0  0  0  0  0  0  0  0  0  0  0  0
  152.7044  143.5185  159.8373 C   0  0  0  0  0  0  0  0  0  0  0  0
  152.4120  144.7267  158.9304 C   0  0  0  0  0  0  0  0  0  0  0  0
  151.2171  144.4986  158.1910 O   0  0  0  0  0  0  0  0  0  0  0  0
  151.3285  143.3595  157.3446 C   0  0  0  0  0  0  0  0  0  0  0  0
  151.5752  142.1040  158.1976 C   0  0  0  0  0  0  0  0  0  0  0  0
  153.2651  139.9696  159.0576 N   0  0  0  0  0  0  0  0  0  0  0  0
  153.7542  138.8746  159.6760 C   0  0  0  0  0  0  0  0  0  0  0  0
  154.9109  135.6838  163.9230 S   0  0  0  0  0  0  0  0  0  0  0  0
  154.3387  133.9948  164.3860 C   0  0  0  0  0  0  0  0  0  0  0  0
  156.0648  136.0220  164.7707 O   0  0  0  0  0  0  0  0  0  0  0  0
  153.7415  136.5760  163.9092 O   0  0  0  0  0  0  0  0  0  0  0  0
  155.5449  133.8763  160.6787 H   0  0  0  0  0  0  0  0  0  0  0  0
  154.2096  133.7293  161.8218 H   0  0  0  0  0  0  0  0  0  0  0  0
  155.8470  133.3260  162.3211 H   0  0  0  0  0  0  0  0  0  0  0  0
  156.5606  135.6678  162.1624 H   0  0  0  0  0  0  0  0  0  0  0  0
  155.2479  137.9386  162.5431 H   0  0  0  0  0  0  0  0  0  0  0  0
  154.7119  140.2062  162.6612 H   0  0  0  0  0  0  0  0  0  0  0  0
  153.8180  142.2251  161.5347 H   0  0  0  0  0  0  0  0  0  0  0  0
  151.9240  143.4230  160.5933 H   0  0  0  0  0  0  0  0  0  0  0  0
  153.6395  143.6929  160.3675 H   0  0  0  0  0  0  0  0  0  0  0  0
  152.2893  145.6266  159.5332 H   0  0  0  0  0  0  0  0  0  0  0  0
  153.2441  144.9113  158.2490 H   0  0  0  0  0  0  0  0  0  0  0  0
  150.4068  143.2495  156.7731 H   0  0  0  0  0  0  0  0  0  0  0  0
  152.1349  143.5052  156.6238 H   0  0  0  0  0  0  0  0  0  0  0  0
  151.7157  141.2441  157.5412 H   0  0  0  0  0  0  0  0  0  0  0  0
  150.7039  141.9001  158.8216 H   0  0  0  0  0  0  0  0  0  0  0  0
  153.7411  137.9746  159.0810 H   0  0  0  0  0  0  0  0  0  0  0  0
  153.8889  134.0289  165.3781 H   0  0  0  0  0  0  0  0  0  0  0  0
  155.1836  133.3069  164.4038 H   0  0  0  0  0  0  0  0  0  0  0  0
  153.5973  133.6481  163.6667 H   0  0  0  0  0  0  0  0  0  0  0  0
  1  2  1  0  0  0  0
  1 22  1  0  0  0  0
  1 23  1  0  0  0  0
  1 24  1  0  0  0  0
  2  3  1  0  0  0  0
  2 18  1  0  0  0  0
  2 25  1  0  0  0  0
  3  4  2  0  0  0  0
  3  5  1  0  0  0  0
  5  6  1  0  0  0  0
  5 26  1  0  0  0  0
  6 17  1  0  0  0  0
  6  7  2  0  0  0  0
  7  8  1  0  0  0  0
  7 27  1  0  0  0  0
  8  9  2  0  0  0  0
  8 28  1  0  0  0  0
  9 10  1  0  0  0  0
  9 16  1  0  0  0  0
 10 15  1  0  0  0  0
 10 11  1  0  0  0  0
 11 12  1  0  0  0  0
 11 29  1  0  0  0  0
 11 30  1  0  0  0  0
 12 13  1  0  0  0  0
 12 31  1  0  0  0  0
 12 32  1  0  0  0  0
 13 14  1  0  0  0  0
 14 15  1  0  0  0  0
 14 33  1  0  0  0  0
 14 34  1  0  0  0  0
 15 35  1  0  0  0  0
 15 36  1  0  0  0  0
 16 17  2  0  0  0  0
 17 37  1  0  0  0  0
 18 19  1  0  0  0  0
 18 20  2  0  0  0  0
 18 21  2  0  0  0  0
 19 38  1  0  0  0  0
 19 39  1  0  0  0  0
 19 40  1  0  0  0  0
M  END
> <s_m_source_file>
AV-unprocessed.smi

> <i_m_source_file_index>
1273

> <i_lp_mmshare_version>
43012

> <i_f3d_flags>
0

> <s_epik_input>
W0NIM11TKD1PKSg9TylbQ0BIXShbQ0gzXSlDKD1PKVtOSF1jMVtjSF1bY0hdYyhuW2NIXTEpTjJbQ0gyXVtDSDJdT1tDSDJdW0NIMl0y

> <s_epik_cmdline>
J2VwaWtfcHl0aG9uJywgJy1waCcsICc3LjAnLCAnLXRuJywgJzgnLCAnLW1hJywgJzIwMCcsICctbWV0YWxfYmluZGluZycsICctaW1hZScsICc8aW5maWxlLm1hZT4nLCAnLW9tYWUnLCAnPG91dGZpbGUubWFlPic=

> <r_lp_tautomer_probability>
1

> <r_epik_Ionization_Penalty>
0.000253983

> <r_epik_Ionization_Penalty_Charging>
0

> <r_epik_Ionization_Penalty_Neutral>
0.000253983

> <r_epik_State_Penalty>
-0

> <r_epik_Charging_Adjusted_Penalty>
0

> <i_epik_Tot_Q>
0

> <i_epik_Tot_abs_Q>
0

> <r_epik_Metal_State_Penalty>
-0

> <b_epik_Metal_Only>
0

> <s_lp_Force_Field>
OPLS_2005

> <r_lp_Energy>
19.0029

> <b_lp_Chiralities_Consistent>
1

> <s_lp_Variant>
AV-unprocessed.smi:1273-2

> <Gold.Version>
5.8.1

> <Gold.Id.Protein>
6NUR|6NUR_protein|mol2

> <Gold.PLP.Fitness>
40.3340

> <Gold.PLP.PLP>
-37.9382

> <Gold.PLP.part.hbond>
-0.9906

> <Gold.PLP.part.metal>
0.0000

> <Gold.PLP.part.buried>
-6.1985

> <Gold.PLP.part.nonpolar>
-30.9508

> <Gold.PLP.part.repulsive>
0.2993

> <Gold.PLP.ligand.clash>
0.0000

> <Gold.PLP.ligand.torsion>
0.5489

> <Gold.PLP.Chemscore.Hbond>
1.0000

> <Gold.PLP.Chemscore.CHOScore>
0.0000

> <Gold.PLP.Chemscore.Metal>
0.0000

> <Gold.Chemscore.Hbonds>
donor molecule, donor type, donor heavy atom, donor atom, acceptor molecule, acceptor atom, score
      P1  H  6896  6909       L1     4  0.46

> <Gold.PLP.Chemscore.Internal.Correction>
0.4935

> <Gold.Rescore>
     Score         DG    S(hbond)    S(metal)    S(lipo)     H(rot)  DE(clash)    DE(int)     intcor
     12.43     -15.51       1.00        0.00      91.39       1.56       0.01       3.08       ----

> <Gold.Chemscore.Fitness>
12.4274

> <Gold.Chemscore.DG>
-15.5133

> <Gold.Chemscore.ZeroCoef>
-5.4800

> <Gold.Chemscore.Hbond>
1.0000

> <Gold.Chemscore.Metal>
0.0000

> <Gold.Chemscore.Lipo>
91.3925

> <Gold.Chemscore.Internal_Hbond>
0.0000

> <Gold.Chemscore.DEClash>
0.0059

> <Gold.Chemscore.DEInternal>
3.0800

> <Gold.Chemscore.Rot>
1.5624

> <Gold.Chemscore.Internal.Correction>
   9.000000E+99

> <Gold.Chemscore.Hbonds>
donor molecule, donor type, donor heavy atom, donor atom, acceptor molecule, acceptor atom, score
      P1  H  6896  6909       L1     4  0.46

> <Gold.Chemscore.Hbond.Weighted>
-3.3400

> <Gold.Chemscore.Metal.Weighted>
-0.0000

> <Gold.Chemscore.Lipo.Weighted>
-10.6929

> <Gold.Chemscore.Internal_Hbond.Weighted>
0.0000

> <Gold.Chemscore.DEClash.Weighted>
0.0059

> <Gold.Chemscore.DEInternal.Weighted>
3.0800

> <Gold.Chemscore.Rot.Weighted>
3.9996

> <Gold.Chemscore.Internal.Correction.Weighted>
   9.000000E+99

> <Gold.Protein.RotatedTorsions>
[ 6907 6896 6895 6894 ] final  168.64 input  -60.11 | X-H torsion
[ 7974 7965 7964 7962 ] final    8.68 input  175.53 | X-H torsion
[ 8008 7997 7996 7995 ] final  124.91 input   59.86 | X-H torsion
[ 10167 10162 10161 10158 ] final  -37.12 input  -65.29 | X-H torsion
[ 10718 10713 10712 10709 ] final  -51.91 input   66.30 | X-H torsion
[ 10763 10752 10751 10750 ] final   96.67 input  -60.55 | X-H torsion
[ 11005 11000 10999 10996 ] final  -69.49 input  -57.11 | X-H torsion

> <Gold.Protein.ActiveResidues>
 VAL166  LYS551  ARG553  GLY616  TRP617  ASP618  TYR619  PRO620  LYS621  CYS622 
 ASP623  PHE694  ASN695  SER759  ASP760  ASP761  ALA762  ILE779  LEU786  VAL792 
 PHE793  MET794  SER795  GLU796  ALA797  LYS798  CYS799  TRP800  GLU811  SER814 

> <Gold.Protein.RotatedAtoms>
  151.8444  133.3429  159.3653 H   0  0  0  0  0  0  0  0  0  0  0  0  # atno 6907 bound_to 6896
  150.7225  134.5360  159.5733 H   0  0  0  0  0  0  0  0  0  0  0  0  # atno 6908 bound_to 6896
  152.2840  134.7797  160.0442 H   0  0  0  0  0  0  0  0  0  0  0  0  # atno 6909 bound_to 6896
  146.2413  139.9897  142.8427 H   0  0  0  0  0  0  0  0  0  0  0  0  # atno 7974 bound_to 7965
  156.2817  140.2728  156.1864 H   0  0  0  0  0  0  0  0  0  0  0  0  # atno 8008 bound_to 7997
  155.0503  140.0386  157.2559 H   0  0  0  0  0  0  0  0  0  0  0  0  # atno 8009 bound_to 7997
  154.7200  140.2686  155.6555 H   0  0  0  0  0  0  0  0  0  0  0  0  # atno 8010 bound_to 7997
  140.7126  143.3363  151.2456 H   0  0  0  0  0  0  0  0  0  0  0  0  # atno 10167 bound_to 10162
  156.1668  130.4149  149.9708 H   0  0  0  0  0  0  0  0  0  0  0  0  # atno 10718 bound_to 10713
  153.2677  135.4210  155.0957 H   0  0  0  0  0  0  0  0  0  0  0  0  # atno 10763 bound_to 10752
  154.8444  135.3464  154.6288 H   0  0  0  0  0  0  0  0  0  0  0  0  # atno 10764 bound_to 10752
  153.6708  135.7044  153.5205 H   0  0  0  0  0  0  0  0  0  0  0  0  # atno 10765 bound_to 10752
  141.1555  133.6766  156.6607 H   0  0  0  0  0  0  0  0  0  0  0  0  # atno 11005 bound_to 11000
  145.1514  140.9625  143.4430 LP  0  0  0  0  0  0  0  0  0  0  0  0  # atno 17320 bound_to 7965
  145.0201  139.3431  143.6076 LP  0  0  0  0  0  0  0  0  0  0  0  0  # atno 17321 bound_to 7965
  139.6858  143.9775  152.2833 LP  0  0  0  0  0  0  0  0  0  0  0  0  # atno 17342 bound_to 10162
  139.9421  144.6675  150.8256 LP  0  0  0  0  0  0  0  0  0  0  0  0  # atno 17343 bound_to 10162
  156.7521  130.9119  151.3638 LP  0  0  0  0  0  0  0  0  0  0  0  0  # atno 17370 bound_to 10713
  157.6773  130.9107  150.0182 LP  0  0  0  0  0  0  0  0  0  0  0  0  # atno 17371 bound_to 10713
  140.3250  134.7976  157.4282 LP  0  0  0  0  0  0  0  0  0  0  0  0  # atno 17394 bound_to 11000
  140.1065  134.5403  155.8305 LP  0  0  0  0  0  0  0  0  0  0  0  0  # atno 17395 bound_to 11000

$$$$
