AV-unprocessed.smi:1830|AV-procd|sdf|7443|dock10
  -GOLD-   22720 9133D 1   1.00000     0.00000
 Structure written by MMmdl.
 52 55  0  0  0  0  0  0  0  0  1 V2000
  148.3384  140.2589  155.1323 O   0  0  0  0  0  0  0  0  0  0  0  0
  148.5506  141.4661  155.2439 C   0  0  0  0  0  0  0  0  0  0  0  0
  147.9001  142.4009  154.5373 N   0  0  0  0  0  0  0  0  0  0  0  0
  146.8635  142.1462  153.5401 C   0  0  0  0  0  0  0  0  0  0  0  0
  145.6049  143.0031  153.7669 C   0  0  1  0  0  0  0  0  0  0  0  0
  145.3399  143.3594  155.2502 C   0  0  0  0  0  0  0  0  0  0  0  0
  144.1785  144.2223  155.3441 N   0  0  0  0  0  0  0  0  0  0  0  0
  143.8315  144.7128  156.6575 C   0  0  0  0  0  0  0  0  0  0  0  0
  142.8658  145.8788  156.3820 C   0  0  0  0  0  0  0  0  0  0  0  0
  143.1590  146.2848  154.9202 C   0  0  0  0  0  0  0  0  0  0  0  0
  144.3652  145.4145  154.5617 C   0  0  2  0  0  0  0  0  0  0  0  0
  144.5753  145.0661  153.0805 C   0  0  0  0  0  0  0  0  0  0  0  0
  145.7075  144.1975  152.9807 O   0  0  0  0  0  0  0  0  0  0  0  0
  149.4555  142.0255  156.0645 N   0  0  0  0  0  0  0  0  0  0  0  0
  150.3686  141.3901  156.9557 C   0  0  0  0  0  0  0  0  0  0  0  0
  150.6559  140.0040  156.8997 C   0  0  0  0  0  0  0  0  0  0  0  0
  151.5630  139.4519  157.8217 C   0  0  0  0  0  0  0  0  0  0  0  0
  152.1454  140.3029  158.7765 C   0  0  0  0  0  0  0  0  0  0  0  0
  151.8694  141.6200  158.8552 N   0  0  0  0  0  0  0  0  0  0  0  0
  151.0002  142.1630  157.9678 C   0  0  0  0  0  0  0  0  0  0  0  0
  150.7032  143.5356  158.1007 N   0  0  0  0  0  0  0  0  0  0  0  0
  149.9362  143.8478  159.3041 C   0  0  0  0  0  0  0  0  0  0  0  0
  150.4711  145.1826  159.8271 C   0  0  0  0  0  0  0  0  0  0  0  0
  151.9063  145.2036  159.3154 C   0  0  0  0  0  0  0  0  0  0  0  0
  151.7806  144.5138  157.9586 C   0  0  0  0  0  0  0  0  0  0  0  0
  148.1390  143.3683  154.6992 H   0  0  0  0  0  0  0  0  0  0  0  0
  147.2832  142.3725  152.5596 H   0  0  0  0  0  0  0  0  0  0  0  0
  146.5959  141.0887  153.5149 H   0  0  0  0  0  0  0  0  0  0  0  0
  144.7500  142.4368  153.3930 H   0  0  0  0  0  0  0  0  0  0  0  0
  145.1792  142.4524  155.8335 H   0  0  0  0  0  0  0  0  0  0  0  0
  146.2058  143.8643  155.6796 H   0  0  0  0  0  0  0  0  0  0  0  0
  143.3844  143.9327  157.2742 H   0  0  0  0  0  0  0  0  0  0  0  0
  144.7218  145.0815  157.1698 H   0  0  0  0  0  0  0  0  0  0  0  0
  141.8284  145.5582  156.4837 H   0  0  0  0  0  0  0  0  0  0  0  0
  143.0324  146.7012  157.0782 H   0  0  0  0  0  0  0  0  0  0  0  0
  142.3054  146.0439  154.2851 H   0  0  0  0  0  0  0  0  0  0  0  0
  143.3724  147.3486  154.8134 H   0  0  0  0  0  0  0  0  0  0  0  0
  145.2607  145.9309  154.9150 H   0  0  0  0  0  0  0  0  0  0  0  0
  143.6940  144.5770  152.6626 H   0  0  0  0  0  0  0  0  0  0  0  0
  144.7580  145.9668  152.4943 H   0  0  0  0  0  0  0  0  0  0  0  0
  149.5664  143.0254  155.9806 H   0  0  0  0  0  0  0  0  0  0  0  0
  150.1898  139.3504  156.1790 H   0  0  0  0  0  0  0  0  0  0  0  0
  151.8027  138.3991  157.7998 H   0  0  0  0  0  0  0  0  0  0  0  0
  152.8448  139.9152  159.5020 H   0  0  0  0  0  0  0  0  0  0  0  0
  148.8700  143.9061  159.0850 H   0  0  0  0  0  0  0  0  0  0  0  0
  150.0797  143.0700  160.0565 H   0  0  0  0  0  0  0  0  0  0  0  0
  149.9099  146.0066  159.3839 H   0  0  0  0  0  0  0  0  0  0  0  0
  150.4026  145.2708  160.9117 H   0  0  0  0  0  0  0  0  0  0  0  0
  152.3220  146.2092  159.2445 H   0  0  0  0  0  0  0  0  0  0  0  0
  152.5459  144.6150  159.9748 H   0  0  0  0  0  0  0  0  0  0  0  0
  152.7301  144.0942  157.6259 H   0  0  0  0  0  0  0  0  0  0  0  0
  151.4726  145.2366  157.2024 H   0  0  0  0  0  0  0  0  0  0  0  0
  1  2  2  0  0  0  0
  2  3  1  0  0  0  0
  2 14  1  0  0  0  0
  3  4  1  0  0  0  0
  3 26  1  0  0  0  0
  4  5  1  0  0  0  0
  4 27  1  0  0  0  0
  4 28  1  0  0  0  0
  5 13  1  0  0  0  0
  5  6  1  0  0  0  0
  5 29  1  0  0  0  0
  6  7  1  0  0  0  0
  6 30  1  0  0  0  0
  6 31  1  0  0  0  0
  7 11  1  0  0  0  0
  7  8  1  0  0  0  0
  8  9  1  0  0  0  0
  8 32  1  0  0  0  0
  8 33  1  0  0  0  0
  9 10  1  0  0  0  0
  9 34  1  0  0  0  0
  9 35  1  0  0  0  0
 10 11  1  0  0  0  0
 10 36  1  0  0  0  0
 10 37  1  0  0  0  0
 11 12  1  0  0  0  0
 11 38  1  0  0  0  0
 12 13  1  0  0  0  0
 12 39  1  0  0  0  0
 12 40  1  0  0  0  0
 14 15  1  0  0  0  0
 14 41  1  0  0  0  0
 15 20  1  0  0  0  0
 15 16  2  0  0  0  0
 16 17  1  0  0  0  0
 16 42  1  0  0  0  0
 17 18  2  0  0  0  0
 17 43  1  0  0  0  0
 18 19  1  0  0  0  0
 18 44  1  0  0  0  0
 19 20  2  0  0  0  0
 20 21  1  0  0  0  0
 21 25  1  0  0  0  0
 21 22  1  0  0  0  0
 22 23  1  0  0  0  0
 22 45  1  0  0  0  0
 22 46  1  0  0  0  0
 23 24  1  0  0  0  0
 23 47  1  0  0  0  0
 23 48  1  0  0  0  0
 24 25  1  0  0  0  0
 24 49  1  0  0  0  0
 24 50  1  0  0  0  0
 25 51  1  0  0  0  0
 25 52  1  0  0  0  0
M  END
> <s_m_source_file>
AV-unprocessed.smi

> <i_m_source_file_index>
1830

> <i_lp_mmshare_version>
43012

> <i_f3d_flags>
0

> <s_epik_input>
W0NIMl0xW0NIMl1bQ0gyXVtDQEhdKE4xMilbQ0gyXU9bQ0BASF0oW0NIMl0yKVtDSDJdW05IXUMoPU8pW05IXWMzW2NIXVtjSF1bY0hdbmMzTjRbQ0gyXVtDSDJdW0NIMl1bQ0gyXTQ=

> <s_epik_cmdline>
J2VwaWtfcHl0aG9uJywgJy1waCcsICc3LjAnLCAnLXRuJywgJzgnLCAnLW1hJywgJzIwMCcsICctbWV0YWxfYmluZGluZycsICctaW1hZScsICc8aW5maWxlLm1hZT4nLCAnLW9tYWUnLCAnPG91dGZpbGUubWFlPic=

> <r_lp_tautomer_probability>
1

> <r_epik_Ionization_Penalty>
1.16487

> <r_epik_Ionization_Penalty_Charging>
0

> <r_epik_Ionization_Penalty_Neutral>
1.16487

> <r_epik_State_Penalty>
1.21807

> <r_epik_Charging_Adjusted_Penalty>
1.21807

> <i_epik_Tot_Q>
0

> <i_epik_Tot_abs_Q>
0

> <r_epik_Metal_State_Penalty>
1.19922

> <b_epik_Metal_Only>
0

> <s_lp_Force_Field>
OPLS_2005

> <r_lp_Energy>
78.4181

> <b_lp_Chiralities_Consistent>
1

> <s_lp_Variant>
AV-unprocessed.smi:1830-12

> <Gold.Version>
5.8.1

> <Gold.Id.Protein>
6NUR|6NUR_protein|mol2

> <Gold.PLP.Fitness>
51.0779

> <Gold.PLP.PLP>
-46.1370

> <Gold.PLP.part.hbond>
-2.6483

> <Gold.PLP.part.metal>
0.0000

> <Gold.PLP.part.buried>
-9.6536

> <Gold.PLP.part.nonpolar>
-36.2878

> <Gold.PLP.part.repulsive>
0.7418

> <Gold.PLP.ligand.clash>
0.0000

> <Gold.PLP.ligand.torsion>
0.5879

> <Gold.PLP.Chemscore.Hbond>
2.0000

> <Gold.PLP.Chemscore.CHOScore>
0.0000

> <Gold.PLP.Chemscore.Metal>
0.0000

> <Gold.Chemscore.Hbonds>
donor molecule, donor type, donor heavy atom, donor atom, acceptor molecule, acceptor atom, score
      L1  H     3    26       P1  8028  1.00
      L1  H    14    41       P1  8028  1.00

> <Gold.PLP.Chemscore.Internal.Correction>
0.1168

> <Gold.Rescore>
     Score         DG    S(hbond)    S(metal)    S(lipo)     H(rot)  DE(clash)    DE(int)     intcor
     19.43     -21.53       1.87        0.00     113.95       1.37       0.21       1.89       ----

> <Gold.Chemscore.Fitness>
19.4273

> <Gold.Chemscore.DG>
-21.5271

> <Gold.Chemscore.ZeroCoef>
-5.4800

> <Gold.Chemscore.Hbond>
1.8665

> <Gold.Chemscore.Metal>
0.0000

> <Gold.Chemscore.Lipo>
113.9473

> <Gold.Chemscore.Internal_Hbond>
0.0000

> <Gold.Chemscore.DEClash>
0.2085

> <Gold.Chemscore.DEInternal>
1.8914

> <Gold.Chemscore.Rot>
1.3746

> <Gold.Chemscore.Internal.Correction>
   9.000000E+99

> <Gold.Chemscore.Hbonds>
donor molecule, donor type, donor heavy atom, donor atom, acceptor molecule, acceptor atom, score
      L1  H     3    26       P1  8028  0.91
      L1  H    14    41       P1  8028  0.96

> <Gold.Chemscore.Hbond.Weighted>
-6.2342

> <Gold.Chemscore.Metal.Weighted>
-0.0000

> <Gold.Chemscore.Lipo.Weighted>
-13.3318

> <Gold.Chemscore.Internal_Hbond.Weighted>
0.0000

> <Gold.Chemscore.DEClash.Weighted>
0.2085

> <Gold.Chemscore.DEInternal.Weighted>
1.8914

> <Gold.Chemscore.Rot.Weighted>
3.5189

> <Gold.Chemscore.Internal.Correction.Weighted>
   9.000000E+99

> <Gold.Protein.RotatedTorsions>
[ 6907 6896 6895 6894 ] final -107.59 input  -60.11 | X-H torsion
[ 7974 7965 7964 7962 ] final -173.21 input  175.53 | X-H torsion
[ 8008 7997 7996 7995 ] final    2.07 input   59.86 | X-H torsion
[ 10167 10162 10161 10158 ] final -116.32 input  -65.29 | X-H torsion
[ 10718 10713 10712 10709 ] final -107.48 input   66.30 | X-H torsion
[ 10763 10752 10751 10750 ] final  -24.04 input  -60.55 | X-H torsion
[ 11005 11000 10999 10996 ] final -106.90 input  -57.11 | X-H torsion

> <Gold.Protein.ActiveResidues>
 VAL166  LYS551  ARG553  GLY616  TRP617  ASP618  TYR619  PRO620  LYS621  CYS622 
 ASP623  PHE694  ASN695  SER759  ASP760  ASP761  ALA762  ILE779  LEU786  VAL792 
 PHE793  MET794  SER795  GLU796  ALA797  LYS798  CYS799  TRP800  GLU811  SER814 

> <Gold.Protein.RotatedAtoms>
  150.7452  133.9804  159.3574 H   0  0  0  0  0  0  0  0  0  0  0  0  # atno 6907 bound_to 6896
  151.7745  135.0776  160.0374 H   0  0  0  0  0  0  0  0  0  0  0  0  # atno 6908 bound_to 6896
  152.3316  133.5928  159.5850 H   0  0  0  0  0  0  0  0  0  0  0  0  # atno 6909 bound_to 6896
  144.7140  140.1656  143.6372 H   0  0  0  0  0  0  0  0  0  0  0  0  # atno 7974 bound_to 7965
  154.6872  140.2645  155.6849 H   0  0  0  0  0  0  0  0  0  0  0  0  # atno 8008 bound_to 7997
  156.2719  140.2798  156.1360 H   0  0  0  0  0  0  0  0  0  0  0  0  # atno 8009 bound_to 7997
  155.0948  140.0374  157.2669 H   0  0  0  0  0  0  0  0  0  0  0  0  # atno 8010 bound_to 7997
  140.0805  143.4792  152.1928 H   0  0  0  0  0  0  0  0  0  0  0  0  # atno 10167 bound_to 10162
  156.0438  130.5664  150.7827 H   0  0  0  0  0  0  0  0  0  0  0  0  # atno 10718 bound_to 10713
  153.6775  135.6968  153.5128 H   0  0  0  0  0  0  0  0  0  0  0  0  # atno 10763 bound_to 10752
  153.2511  135.4275  155.0797 H   0  0  0  0  0  0  0  0  0  0  0  0  # atno 10764 bound_to 10752
  154.8409  135.3531  154.6318 H   0  0  0  0  0  0  0  0  0  0  0  0  # atno 10765 bound_to 10752
  141.0981  133.8934  157.1911 H   0  0  0  0  0  0  0  0  0  0  0  0  # atno 11005 bound_to 11000
  145.8990  139.2419  143.1505 LP  0  0  0  0  0  0  0  0  0  0  0  0  # atno 17320 bound_to 7965
  145.9829  140.8667  143.0105 LP  0  0  0  0  0  0  0  0  0  0  0  0  # atno 17321 bound_to 7965
  139.5782  144.7498  151.3708 LP  0  0  0  0  0  0  0  0  0  0  0  0  # atno 17342 bound_to 10162
  140.7080  143.7464  150.7516 LP  0  0  0  0  0  0  0  0  0  0  0  0  # atno 17343 bound_to 10162
  157.5290  131.0935  150.9980 LP  0  0  0  0  0  0  0  0  0  0  0  0  # atno 17370 bound_to 10713
  157.0291  130.5704  149.5341 LP  0  0  0  0  0  0  0  0  0  0  0  0  # atno 17371 bound_to 10713
  139.9824  135.0093  156.9781 LP  0  0  0  0  0  0  0  0  0  0  0  0  # atno 17394 bound_to 11000
  140.5089  134.1022  155.7266 LP  0  0  0  0  0  0  0  0  0  0  0  0  # atno 17395 bound_to 11000

$$$$
