AV-unprocessed.smi:1110|AV-procd|sdf|4791|dock10
  -GOLD-   22720 3333D 1   1.00000     0.00000
 Structure written by MMmdl.
 44 45  0  0  0  0  0  0  0  0  2 V2000
  147.4720  141.6274  154.1271 C   0  0  0  0  0  0  0  0  0  0  0  0
  148.5283  140.6929  154.7343 C   0  0  0  0  0  0  0  0  0  0  0  0
  149.0358  139.5811  153.7763 C   0  0  1  0  0  0  0  0  0  0  0  0
  150.3408  138.9274  154.2998 C   0  0  0  0  0  0  0  0  0  0  0  0
  150.4058  138.9588  155.7566 N   0  0  0  0  0  0  0  0  0  0  0  0
  151.4178  139.4542  156.4867 C   0  0  0  0  0  0  0  0  0  0  0  0
  152.4230  139.9505  155.9806 O   0  0  0  0  0  0  0  0  0  0  0  0
  151.3088  139.3794  158.0197 C   0  0  0  0  0  0  0  0  0  0  0  0
  151.9959  140.4661  158.7419 N   0  0  0  0  0  0  0  0  0  0  0  0
  153.0671  140.0957  159.5792 C   0  0  0  0  0  0  0  0  0  0  0  0
  153.7558  140.9998  160.2936 C   0  0  0  0  0  0  0  0  0  0  0  0
  153.3744  142.3881  160.1859 C   0  0  0  0  0  0  0  0  0  0  0  0
  152.3481  142.7529  159.3918 C   0  0  0  0  0  0  0  0  0  0  0  0
  151.5870  141.7669  158.6161 C   0  0  0  0  0  0  0  0  0  0  0  0
  150.6335  142.0876  157.9071 O   0  0  0  0  0  0  0  0  0  0  0  0
  147.9654  138.5636  153.5460 N   0  3  0  0  0  0  0  0  0  0  0  0
  147.4463  137.8967  154.7681 C   0  0  0  0  0  0  0  0  0  0  0  0
  145.9345  137.7101  154.5800 C   0  0  0  0  0  0  0  0  0  0  0  0
  145.6854  138.0225  153.1097 C   0  0  0  0  0  0  0  0  0  0  0  0
  146.7831  139.0282  152.7863 C   0  0  0  0  0  0  0  0  0  0  0  0
  147.0633  142.2905  154.8900 H   0  0  0  0  0  0  0  0  0  0  0  0
  146.6420  141.0635  153.7008 H   0  0  0  0  0  0  0  0  0  0  0  0
  147.8912  142.2605  153.3452 H   0  0  0  0  0  0  0  0  0  0  0  0
  149.3665  141.2876  155.0998 H   0  0  0  0  0  0  0  0  0  0  0  0
  148.0793  140.2439  155.6197 H   0  0  0  0  0  0  0  0  0  0  0  0
  149.2629  140.0400  152.8126 H   0  0  0  0  0  0  0  0  0  0  0  0
  150.4199  137.9029  153.9340 H   0  0  0  0  0  0  0  0  0  0  0  0
  151.2186  139.4345  153.9010 H   0  0  0  0  0  0  0  0  0  0  0  0
  149.6114  138.5830  156.2545 H   0  0  0  0  0  0  0  0  0  0  0  0
  150.2500  139.3708  158.2830 H   0  0  0  0  0  0  0  0  0  0  0  0
  151.6846  138.4077  158.3450 H   0  0  0  0  0  0  0  0  0  0  0  0
  153.2856  139.0379  159.6050 H   0  0  0  0  0  0  0  0  0  0  0  0
  154.5735  140.6974  160.9314 H   0  0  0  0  0  0  0  0  0  0  0  0
  153.9162  143.1386  160.7429 H   0  0  0  0  0  0  0  0  0  0  0  0
  152.0780  143.7967  159.3225 H   0  0  0  0  0  0  0  0  0  0  0  0
  147.9501  136.9375  154.8919 H   0  0  0  0  0  0  0  0  0  0  0  0
  147.6330  138.4894  155.6649 H   0  0  0  0  0  0  0  0  0  0  0  0
  145.5962  136.7114  154.8578 H   0  0  0  0  0  0  0  0  0  0  0  0
  145.3967  138.4268  155.2024 H   0  0  0  0  0  0  0  0  0  0  0  0
  145.8186  137.1210  152.5099 H   0  0  0  0  0  0  0  0  0  0  0  0
  144.6838  138.4102  152.9202 H   0  0  0  0  0  0  0  0  0  0  0  0
  146.4868  140.0196  153.1336 H   0  0  0  0  0  0  0  0  0  0  0  0
  146.9786  139.0846  151.7151 H   0  0  0  0  0  0  0  0  0  0  0  0
  148.3744  137.8314  152.9834 H   0  0  0  0  0  0  0  0  0  0  0  0
  1  2  1  0  0  0  0
  1 21  1  0  0  0  0
  1 22  1  0  0  0  0
  1 23  1  0  0  0  0
  2  3  1  0  0  0  0
  2 24  1  0  0  0  0
  2 25  1  0  0  0  0
  3  4  1  0  0  0  0
  3 16  1  0  0  0  0
  3 26  1  0  0  0  0
  4  5  1  0  0  0  0
  4 27  1  0  0  0  0
  4 28  1  0  0  0  0
  5  6  1  0  0  0  0
  5 29  1  0  0  0  0
  6  7  2  0  0  0  0
  6  8  1  0  0  0  0
  8  9  1  0  0  0  0
  8 30  1  0  0  0  0
  8 31  1  0  0  0  0
  9 14  1  0  0  0  0
  9 10  1  0  0  0  0
 10 11  2  0  0  0  0
 10 32  1  0  0  0  0
 11 12  1  0  0  0  0
 11 33  1  0  0  0  0
 12 13  2  0  0  0  0
 12 34  1  0  0  0  0
 13 14  1  0  0  0  0
 13 35  1  0  0  0  0
 14 15  2  0  0  0  0
 16 20  1  0  0  0  0
 16 17  1  0  0  0  0
 16 44  1  0  0  0  0
 17 18  1  0  0  0  0
 17 36  1  0  0  0  0
 17 37  1  0  0  0  0
 18 19  1  0  0  0  0
 18 38  1  0  0  0  0
 18 39  1  0  0  0  0
 19 20  1  0  0  0  0
 19 40  1  0  0  0  0
 19 41  1  0  0  0  0
 20 42  1  0  0  0  0
 20 43  1  0  0  0  0
M  CHG  1  16   1
M  END
> <s_m_source_file>
AV-unprocessed.smi

> <i_m_source_file_index>
1110

> <i_lp_mmshare_version>
43012

> <i_f3d_flags>
0

> <s_epik_input>
W0NIMl0xW0NIMl1bQ0gyXVtDSDJdTjFbQ0BIXShbQ0gyXVtDSDNdKVtDSDJdW05IXUMoPU8pW0NIMl1uMltjSF1bY0hdW2NIXVtjSF1jMj1P

> <s_epik_cmdline>
J2VwaWtfcHl0aG9uJywgJy1waCcsICc3LjAnLCAnLXRuJywgJzgnLCAnLW1hJywgJzIwMCcsICctbWV0YWxfYmluZGluZycsICctaW1hZScsICc8aW5maWxlLm1hZT4nLCAnLW9tYWUnLCAnPG91dGZpbGUubWFlPic=

> <r_lp_tautomer_probability>
1

> <r_epik_Ionization_Penalty>
0.00361135

> <r_epik_Ionization_Penalty_Charging>
0.00361127

> <r_epik_Ionization_Penalty_Neutral>
7.8489e-08

> <r_epik_State_Penalty>
0.00256751

> <r_epik_Charging_Adjusted_Penalty>
0.00617878

> <i_epik_Tot_Q>
1

> <i_epik_Tot_abs_Q>
1

> <r_epik_Metal_State_Penalty>
-0

> <b_epik_Metal_Only>
0

> <s_lp_Force_Field>
OPLS_2005

> <r_lp_Energy>
49.2182

> <b_lp_Chiralities_Consistent>
1

> <s_lp_Variant>
AV-unprocessed.smi:1110-2

> <Gold.Version>
5.8.1

> <Gold.Id.Protein>
6NUR|6NUR_protein|mol2

> <Gold.PLP.Fitness>
43.7005

> <Gold.PLP.PLP>
-36.4975

> <Gold.PLP.part.hbond>
-3.0000

> <Gold.PLP.part.metal>
0.0000

> <Gold.PLP.part.buried>
0.9251

> <Gold.PLP.part.nonpolar>
-34.3927

> <Gold.PLP.part.repulsive>
0.1486

> <Gold.PLP.ligand.clash>
0.0000

> <Gold.PLP.ligand.torsion>
0.9802

> <Gold.PLP.Chemscore.Hbond>
3.0000

> <Gold.PLP.Chemscore.CHOScore>
0.0000

> <Gold.PLP.Chemscore.Metal>
0.0000

> <Gold.Chemscore.Hbonds>
donor molecule, donor type, donor heavy atom, donor atom, acceptor molecule, acceptor atom, score
      L1  H    16    44       P1  7948  2.00
      P1  H  7997  8010       L1     7  1.00

> <Gold.PLP.Chemscore.Internal.Correction>
0.1632

> <Gold.Rescore>
     Score         DG    S(hbond)    S(metal)    S(lipo)     H(rot)  DE(clash)    DE(int)     intcor
     15.09     -17.49       2.00        0.00      89.14       1.99       1.39       1.01       ----

> <Gold.Chemscore.Fitness>
15.0896

> <Gold.Chemscore.DG>
-17.4931

> <Gold.Chemscore.ZeroCoef>
-5.4800

> <Gold.Chemscore.Hbond>
1.9989

> <Gold.Chemscore.Metal>
0.0000

> <Gold.Chemscore.Lipo>
89.1391

> <Gold.Chemscore.Internal_Hbond>
0.0000

> <Gold.Chemscore.DEClash>
1.3946

> <Gold.Chemscore.DEInternal>
1.0089

> <Gold.Chemscore.Rot>
1.9893

> <Gold.Chemscore.Internal.Correction>
   9.000000E+99

> <Gold.Chemscore.Hbonds>
donor molecule, donor type, donor heavy atom, donor atom, acceptor molecule, acceptor atom, score
      L1  H    16    44       P1  7948  0.94
      P1  H  7997  8010       L1     7  0.95

> <Gold.Chemscore.Hbond.Weighted>
-6.6765

> <Gold.Chemscore.Metal.Weighted>
-0.0000

> <Gold.Chemscore.Lipo.Weighted>
-10.4293

> <Gold.Chemscore.Internal_Hbond.Weighted>
0.0000

> <Gold.Chemscore.DEClash.Weighted>
1.3946

> <Gold.Chemscore.DEInternal.Weighted>
1.0089

> <Gold.Chemscore.Rot.Weighted>
5.0927

> <Gold.Chemscore.Internal.Correction.Weighted>
   9.000000E+99

> <Gold.Protein.RotatedTorsions>
[ 6907 6896 6895 6894 ] final   55.10 input  -60.11 | X-H torsion
[ 7974 7965 7964 7962 ] final  132.64 input  175.53 | X-H torsion
[ 8008 7997 7996 7995 ] final   97.59 input   59.86 | X-H torsion
[ 10167 10162 10161 10158 ] final  -49.87 input  -65.29 | X-H torsion
[ 10718 10713 10712 10709 ] final  -12.79 input   66.30 | X-H torsion
[ 10763 10752 10751 10750 ] final  -61.07 input  -60.55 | X-H torsion
[ 11005 11000 10999 10996 ] final   34.38 input  -57.11 | X-H torsion

> <Gold.Protein.ActiveResidues>
 VAL166  LYS551  ARG553  GLY616  TRP617  ASP618  TYR619  PRO620  LYS621  CYS622 
 ASP623  PHE694  ASN695  SER759  ASP760  ASP761  ALA762  ILE779  LEU786  VAL792 
 PHE793  MET794  SER795  GLU796  ALA797  LYS798  CYS799  TRP800  GLU811  SER814 

> <Gold.Protein.RotatedAtoms>
  152.3505  134.7012  160.0237 H   0  0  0  0  0  0  0  0  0  0  0  0  # atno 6907 bound_to 6896
  151.7368  133.3314  159.3363 H   0  0  0  0  0  0  0  0  0  0  0  0  # atno 6908 bound_to 6896
  150.7537  134.6247  159.6199 H   0  0  0  0  0  0  0  0  0  0  0  0  # atno 6909 bound_to 6896
  144.9947  139.4371  143.5322 H   0  0  0  0  0  0  0  0  0  0  0  0  # atno 7974 bound_to 7965
  156.0917  140.3256  155.7825 H   0  0  0  0  0  0  0  0  0  0  0  0  # atno 8008 bound_to 7997
  155.4985  140.0567  157.2960 H   0  0  0  0  0  0  0  0  0  0  0  0  # atno 8009 bound_to 7997
  154.4642  140.1981  156.0179 H   0  0  0  0  0  0  0  0  0  0  0  0  # atno 8010 bound_to 7997
  140.6665  143.2680  151.4277 H   0  0  0  0  0  0  0  0  0  0  0  0  # atno 10167 bound_to 10162
  156.6396  130.4924  149.6100 H   0  0  0  0  0  0  0  0  0  0  0  0  # atno 10718 bound_to 10713
  154.2790  135.6275  153.5339 H   0  0  0  0  0  0  0  0  0  0  0  0  # atno 10763 bound_to 10752
  152.9868  135.5628  154.5516 H   0  0  0  0  0  0  0  0  0  0  0  0  # atno 10764 bound_to 10752
  154.5103  135.2876  155.1324 H   0  0  0  0  0  0  0  0  0  0  0  0  # atno 10765 bound_to 10752
  140.2535  134.3276  155.7882 H   0  0  0  0  0  0  0  0  0  0  0  0  # atno 11005 bound_to 11000
  146.3439  139.9300  142.8755 LP  0  0  0  0  0  0  0  0  0  0  0  0  # atno 17320 bound_to 7965
  145.2236  140.9945  143.4031 LP  0  0  0  0  0  0  0  0  0  0  0  0  # atno 17321 bound_to 7965
  139.5916  144.1488  152.2094 LP  0  0  0  0  0  0  0  0  0  0  0  0  # atno 17342 bound_to 10162
  140.0844  144.5674  150.7099 LP  0  0  0  0  0  0  0  0  0  0  0  0  # atno 17343 bound_to 10162
  156.2170  130.6713  151.1328 LP  0  0  0  0  0  0  0  0  0  0  0  0  # atno 17370 bound_to 10713
  157.7175  131.0701  150.6269 LP  0  0  0  0  0  0  0  0  0  0  0  0  # atno 17371 bound_to 10713
  141.2199  133.7367  156.9074 LP  0  0  0  0  0  0  0  0  0  0  0  0  # atno 17394 bound_to 11000
  140.1535  134.9214  157.2623 LP  0  0  0  0  0  0  0  0  0  0  0  0  # atno 17395 bound_to 11000

$$$$
