AV-unprocessed.smi:490|AV-procd|sdf|2703|dock7
  -GOLD-   2262023143D 1   1.00000     0.00000
 Structure written by MMmdl.
 49 51  0  0  0  0  0  0  0  0  1 V2000
  145.8256  132.4483  159.8017 C   0  0  0  0  0  0  0  0  0  0  0  0
  146.4429  133.5498  160.6461 C   0  0  0  0  0  0  0  0  0  0  0  0
  146.4609  133.4059  162.0482 C   0  0  0  0  0  0  0  0  0  0  0  0
  147.0258  134.4051  162.8596 C   0  0  0  0  0  0  0  0  0  0  0  0
  147.5693  135.5664  162.2775 C   0  0  0  0  0  0  0  0  0  0  0  0
  148.1773  136.6366  163.1648 C   0  0  0  0  0  0  0  0  0  0  0  0
  147.5408  135.7285  160.8734 C   0  0  0  0  0  0  0  0  0  0  0  0
  148.0629  136.8699  160.3213 O   0  0  0  0  0  0  0  0  0  0  0  0
  149.2178  136.6400  159.5268 C   0  0  0  0  0  0  0  0  0  0  0  0
  149.2699  137.6901  158.4089 C   0  0  2  0  0  0  0  0  0  0  0  0
  148.1884  137.4628  157.5273 O   0  0  0  0  0  0  0  0  0  0  0  0
  150.6026  137.6556  157.6332 C   0  0  0  0  0  0  0  0  0  0  0  0
  150.7860  138.8210  156.7790 N   0  0  0  0  0  0  0  0  0  0  0  0
  150.8215  138.8628  155.4232 C   0  0  0  0  0  0  0  0  0  0  0  0
  150.6508  137.6188  154.5974 C   0  0  0  0  0  0  0  0  0  0  0  0
  151.7325  137.3539  153.7271 O   0  0  0  0  0  0  0  0  0  0  0  0
  151.0012  140.0731  154.8887 N   0  0  0  0  0  0  0  0  0  0  0  0
  151.0926  140.8886  155.9993 C   0  0  0  0  0  0  0  0  0  0  0  0
  151.2880  142.2846  156.0998 C   0  0  0  0  0  0  0  0  0  0  0  0
  151.3457  142.9084  157.3633 C   0  0  0  0  0  0  0  0  0  0  0  0
  151.2088  142.1468  158.5419 C   0  0  0  0  0  0  0  0  0  0  0  0
  151.0146  140.7542  158.4641 C   0  0  0  0  0  0  0  0  0  0  0  0
  150.9584  140.1362  157.2002 C   0  0  0  0  0  0  0  0  0  0  0  0
  146.9967  134.7105  160.0499 C   0  0  0  0  0  0  0  0  0  0  0  0
  147.0069  134.8635  158.5347 C   0  0  0  0  0  0  0  0  0  0  0  0
  145.3141  131.7116  160.4220 H   0  0  0  0  0  0  0  0  0  0  0  0
  146.5961  131.9295  159.2313 H   0  0  0  0  0  0  0  0  0  0  0  0
  145.0946  132.8603  159.1056 H   0  0  0  0  0  0  0  0  0  0  0  0
  146.0439  132.5231  162.5103 H   0  0  0  0  0  0  0  0  0  0  0  0
  147.0372  134.2761  163.9320 H   0  0  0  0  0  0  0  0  0  0  0  0
  149.1428  136.9579  162.7732 H   0  0  0  0  0  0  0  0  0  0  0  0
  148.3324  136.2689  164.1793 H   0  0  0  0  0  0  0  0  0  0  0  0
  147.5199  137.5044  163.2149 H   0  0  0  0  0  0  0  0  0  0  0  0
  150.1255  136.6806  160.1313 H   0  0  0  0  0  0  0  0  0  0  0  0
  149.1626  135.6390  159.0959 H   0  0  0  0  0  0  0  0  0  0  0  0
  149.1232  138.6766  158.8490 H   0  0  0  0  0  0  0  0  0  0  0  0
  147.4194  137.8840  157.8792 H   0  0  0  0  0  0  0  0  0  0  0  0
  151.4437  137.5952  158.3243 H   0  0  0  0  0  0  0  0  0  0  0  0
  150.6587  136.7582  157.0159 H   0  0  0  0  0  0  0  0  0  0  0  0
  150.5275  136.7578  155.2534 H   0  0  0  0  0  0  0  0  0  0  0  0
  149.7398  137.7106  154.0056 H   0  0  0  0  0  0  0  0  0  0  0  0
  151.3893  137.1938  152.8616 H   0  0  0  0  0  0  0  0  0  0  0  0
  151.3938  142.8762  155.2024 H   0  0  0  0  0  0  0  0  0  0  0  0
  151.4961  143.9761  157.4281 H   0  0  0  0  0  0  0  0  0  0  0  0
  151.2541  142.6324  159.5057 H   0  0  0  0  0  0  0  0  0  0  0  0
  150.9129  140.1683  159.3652 H   0  0  0  0  0  0  0  0  0  0  0  0
  147.7118  135.6253  158.2037 H   0  0  0  0  0  0  0  0  0  0  0  0
  146.0147  135.1421  158.1796 H   0  0  0  0  0  0  0  0  0  0  0  0
  147.2978  133.9324  158.0491 H   0  0  0  0  0  0  0  0  0  0  0  0
  1  2  1  0  0  0  0
  1 26  1  0  0  0  0
  1 27  1  0  0  0  0
  1 28  1  0  0  0  0
  2 24  1  0  0  0  0
  2  3  2  0  0  0  0
  3  4  1  0  0  0  0
  3 29  1  0  0  0  0
  4  5  2  0  0  0  0
  4 30  1  0  0  0  0
  5  6  1  0  0  0  0
  5  7  1  0  0  0  0
  6 31  1  0  0  0  0
  6 32  1  0  0  0  0
  6 33  1  0  0  0  0
  7  8  1  0  0  0  0
  7 24  2  0  0  0  0
  8  9  1  0  0  0  0
  9 10  1  0  0  0  0
  9 34  1  0  0  0  0
  9 35  1  0  0  0  0
 10 11  1  0  0  0  0
 10 12  1  0  0  0  0
 10 36  1  0  0  0  0
 11 37  1  0  0  0  0
 12 13  1  0  0  0  0
 12 38  1  0  0  0  0
 12 39  1  0  0  0  0
 13 23  1  0  0  0  0
 13 14  1  0  0  0  0
 14 15  1  0  0  0  0
 14 17  2  0  0  0  0
 15 16  1  0  0  0  0
 15 40  1  0  0  0  0
 15 41  1  0  0  0  0
 16 42  1  0  0  0  0
 17 18  1  0  0  0  0
 18 23  2  0  0  0  0
 18 19  1  0  0  0  0
 19 20  2  0  0  0  0
 19 43  1  0  0  0  0
 20 21  1  0  0  0  0
 20 44  1  0  0  0  0
 21 22  2  0  0  0  0
 21 45  1  0  0  0  0
 22 23  1  0  0  0  0
 22 46  1  0  0  0  0
 24 25  1  0  0  0  0
 25 47  1  0  0  0  0
 25 48  1  0  0  0  0
 25 49  1  0  0  0  0
M  END
> <s_m_source_file>
AV-unprocessed.smi

> <i_m_source_file_index>
490

> <i_lp_mmshare_version>
43012

> <i_f3d_flags>
0

> <s_epik_input>
W0NIM11jMVtjSF1bY0hdYyhbQ0gzXSljKGMxW0NIM10pT1tDSDJdW0NASF0oW09IXSlbQ0gyXW4oYyhuMilbQ0gyXVtPSF0pYyhjMjMpW2NIXVtjSF1bY0hdW2NIXTM=

> <s_epik_cmdline>
J2VwaWtfcHl0aG9uJywgJy1waCcsICc3LjAnLCAnLXRuJywgJzgnLCAnLW1hJywgJzIwMCcsICctbWV0YWxfYmluZGluZycsICctaW1hZScsICc8aW5maWxlLm1hZT4nLCAnLW9tYWUnLCAnPG91dGZpbGUubWFlPic=

> <r_lp_tautomer_probability>
1

> <r_epik_Ionization_Penalty>
0.0555874

> <r_epik_Ionization_Penalty_Charging>
0

> <r_epik_Ionization_Penalty_Neutral>
0.0555874

> <r_epik_State_Penalty>
0.0478234

> <r_epik_Charging_Adjusted_Penalty>
0.0478234

> <i_epik_Tot_Q>
0

> <i_epik_Tot_abs_Q>
0

> <r_epik_Metal_State_Penalty>
4.98044e-05

> <b_epik_Metal_Only>
0

> <s_lp_Force_Field>
OPLS_2005

> <r_lp_Energy>
19.7492

> <b_lp_Chiralities_Consistent>
1

> <s_lp_Variant>
AV-unprocessed.smi:490-1

> <Gold.Version>
5.8.1

> <Gold.Id.Protein>
6NUR|6NUR_protein|mol2

> <Gold.PLP.Fitness>
53.0839

> <Gold.PLP.PLP>
-42.1085

> <Gold.PLP.part.hbond>
-5.0000

> <Gold.PLP.part.metal>
0.0000

> <Gold.PLP.part.buried>
-4.6481

> <Gold.PLP.part.nonpolar>
-33.5628

> <Gold.PLP.part.repulsive>
0.0455

> <Gold.PLP.ligand.clash>
0.0000

> <Gold.PLP.ligand.torsion>
0.3752

> <Gold.PLP.Chemscore.Hbond>
3.8749

> <Gold.PLP.Chemscore.CHOScore>
0.0000

> <Gold.PLP.Chemscore.Metal>
0.0000

> <Gold.Chemscore.Hbonds>
donor molecule, donor type, donor heavy atom, donor atom, acceptor molecule, acceptor atom, score
      L1  H    16    42       P1  7949  0.94
      P1  H  6931  6943       L1     8  0.21
      P1  H  6934  6947       L1     8  0.06
      P1  H  7989  7998       L1    17  1.00
      P1  H 10752 10764       L1    16  0.60

> <Gold.PLP.Chemscore.Internal.Correction>
0.1012

> <Gold.Rescore>
     Score         DG    S(hbond)    S(metal)    S(lipo)     H(rot)  DE(clash)    DE(int)     intcor
     17.90     -19.20       2.20        0.00     118.41       2.93       0.80       0.50       ----

> <Gold.Chemscore.Fitness>
17.8996

> <Gold.Chemscore.DG>
-19.2009

> <Gold.Chemscore.ZeroCoef>
-5.4800

> <Gold.Chemscore.Hbond>
2.2042

> <Gold.Chemscore.Metal>
0.0000

> <Gold.Chemscore.Lipo>
118.4134

> <Gold.Chemscore.Internal_Hbond>
0.0000

> <Gold.Chemscore.DEClash>
0.8017

> <Gold.Chemscore.DEInternal>
0.4996

> <Gold.Chemscore.Rot>
2.9279

> <Gold.Chemscore.Internal.Correction>
   9.000000E+99

> <Gold.Chemscore.Hbonds>
donor molecule, donor type, donor heavy atom, donor atom, acceptor molecule, acceptor atom, score
      L1  H    16    42       P1  7949  0.75
      P1  H  6931  6943       L1     8  0.03
      P1  H  6934  6947       L1     8  0.09
      P1  H  7989  7998       L1    17  0.74
      P1  H 10752 10764       L1    16  0.35

> <Gold.Chemscore.Hbond.Weighted>
-7.3620

> <Gold.Chemscore.Metal.Weighted>
-0.0000

> <Gold.Chemscore.Lipo.Weighted>
-13.8544

> <Gold.Chemscore.Internal_Hbond.Weighted>
0.0000

> <Gold.Chemscore.DEClash.Weighted>
0.8017

> <Gold.Chemscore.DEInternal.Weighted>
0.4996

> <Gold.Chemscore.Rot.Weighted>
7.4954

> <Gold.Chemscore.Internal.Correction.Weighted>
   9.000000E+99

> <Gold.Protein.RotatedTorsions>
[ 6907 6896 6895 6894 ] final   55.34 input  -60.11 | X-H torsion
[ 7974 7965 7964 7962 ] final   -2.77 input  175.53 | X-H torsion
[ 8008 7997 7996 7995 ] final -171.92 input   59.86 | X-H torsion
[ 10167 10162 10161 10158 ] final   73.27 input  -65.29 | X-H torsion
[ 10718 10713 10712 10709 ] final  -34.99 input   66.30 | X-H torsion
[ 10763 10752 10751 10750 ] final  -72.82 input  -60.55 | X-H torsion
[ 11005 11000 10999 10996 ] final -143.35 input  -57.11 | X-H torsion

> <Gold.Protein.ActiveResidues>
 VAL166  LYS551  ARG553  GLY616  TRP617  ASP618  TYR619  PRO620  LYS621  CYS622 
 ASP623  PHE694  ASN695  SER759  ASP760  ASP761  ALA762  ILE779  LEU786  VAL792 
 PHE793  MET794  SER795  GLU796  ALA797  LYS798  CYS799  TRP800  GLU811  SER814 

> <Gold.Protein.RotatedAtoms>
  152.3528  134.6981  160.0230 H   0  0  0  0  0  0  0  0  0  0  0  0  # atno 6907 bound_to 6896
  151.7329  133.3313  159.3353 H   0  0  0  0  0  0  0  0  0  0  0  0  # atno 6908 bound_to 6896
  150.7552  134.6280  159.6216 H   0  0  0  0  0  0  0  0  0  0  0  0  # atno 6909 bound_to 6896
  146.2399  140.1621  142.8332 H   0  0  0  0  0  0  0  0  0  0  0  0  # atno 7974 bound_to 7965
  155.9379  140.1103  157.1080 H   0  0  0  0  0  0  0  0  0  0  0  0  # atno 8008 bound_to 7997
  154.4083  140.1225  156.4954 H   0  0  0  0  0  0  0  0  0  0  0  0  # atno 8009 bound_to 7997
  155.6999  140.3472  155.4931 H   0  0  0  0  0  0  0  0  0  0  0  0  # atno 8010 bound_to 7997
  140.0263  144.5501  150.7542 H   0  0  0  0  0  0  0  0  0  0  0  0  # atno 10167 bound_to 10162
  156.3439  130.4298  149.7763 H   0  0  0  0  0  0  0  0  0  0  0  0  # atno 10718 bound_to 10713
  154.4510  135.5917  153.6192 H   0  0  0  0  0  0  0  0  0  0  0  0  # atno 10763 bound_to 10752
  152.9813  135.6021  154.3604 H   0  0  0  0  0  0  0  0  0  0  0  0  # atno 10764 bound_to 10752
  154.3465  135.2841  155.2373 H   0  0  0  0  0  0  0  0  0  0  0  0  # atno 10765 bound_to 10752
  140.8134  134.2717  157.4931 H   0  0  0  0  0  0  0  0  0  0  0  0  # atno 11005 bound_to 11000
  145.0081  140.8690  143.5241 LP  0  0  0  0  0  0  0  0  0  0  0  0  # atno 17320 bound_to 7965
  145.1650  139.2436  143.5371 LP  0  0  0  0  0  0  0  0  0  0  0  0  # atno 17321 bound_to 7965
  140.7321  143.2702  151.3914 LP  0  0  0  0  0  0  0  0  0  0  0  0  # atno 17342 bound_to 10162
  139.6106  144.1107  152.2294 LP  0  0  0  0  0  0  0  0  0  0  0  0  # atno 17343 bound_to 10162
  156.4989  130.8119  151.3124 LP  0  0  0  0  0  0  0  0  0  0  0  0  # atno 17370 bound_to 10713
  157.7451  130.9951  150.2732 LP  0  0  0  0  0  0  0  0  0  0  0  0  # atno 17371 bound_to 10713
  139.8712  134.9496  156.4030 LP  0  0  0  0  0  0  0  0  0  0  0  0  # atno 17394 bound_to 11000
  140.9174  133.7669  155.9864 LP  0  0  0  0  0  0  0  0  0  0  0  0  # atno 17395 bound_to 11000

$$$$
