AV-unprocessed.smi:216|AV-procd|sdf|1659|dock8
  -GOLD-   2262020 53D 1   1.00000     0.00000
 Structure written by MMmdl.
 65 69  0  0  0  0  0  0  0  0  1 V2000
  149.8660  141.5402  157.8896 C   0  0  0  0  0  0  0  0  0  0  0  0
  149.1766  140.1737  157.6852 C   0  0  1  0  0  0  0  0  0  0  0  0
  147.6789  140.3940  157.3916 C   0  0  0  0  0  0  0  0  0  0  0  0
  146.9242  139.0659  157.2920 C   0  0  0  0  0  0  0  0  0  0  0  0
  147.5600  138.1865  156.3155 N   0  0  0  0  0  0  0  0  0  0  0  0
  146.8489  137.1048  155.9042 C   0  0  0  0  0  0  0  0  0  0  0  0
  146.9401  135.9316  156.5873 N   0  0  0  0  0  0  0  0  0  0  0  0
  146.2486  134.8605  156.1884 C   0  0  0  0  0  0  0  0  0  0  0  0
  145.4150  134.7441  155.1537 N   0  0  0  0  0  0  0  0  0  0  0  0
  145.3117  135.9179  154.4673 C   0  0  0  0  0  0  0  0  0  0  0  0
  145.9916  137.1324  154.7679 C   0  0  0  0  0  0  0  0  0  0  0  0
  145.6358  138.1100  153.8475 N   0  0  0  0  0  0  0  0  0  0  0  0
  144.8050  137.5065  153.0428 C   0  0  0  0  0  0  0  0  0  0  0  0
  144.5357  136.1928  153.3541 N   0  0  0  0  0  0  0  0  0  0  0  0
  143.6427  135.2911  152.6400 C   0  0  0  0  0  0  0  0  0  0  0  0
  144.3092  134.5016  151.4733 C   0  0  0  0  0  0  0  0  0  0  0  0
  144.3820  135.3723  150.1858 C   0  0  0  0  0  0  0  0  0  0  0  0
  145.4051  136.3458  150.2537 O   0  0  0  0  0  0  0  0  0  0  0  0
  145.7203  134.0528  151.9295 C   0  0  0  0  0  0  0  0  0  0  0  0
  146.3613  133.0252  150.9790 C   0  0  0  0  0  0  0  0  0  0  0  0
  145.5091  131.8961  150.8387 O   0  0  0  0  0  0  0  0  0  0  0  0
  144.2486  132.2238  150.2694 C   0  0  0  0  0  0  0  0  0  0  0  0
  143.4989  133.2136  151.1797 C   0  0  0  0  0  0  0  0  0  0  0  0
  148.9765  137.9199  156.5677 C   0  0  0  0  0  0  0  0  0  0  0  0
  149.8377  139.2176  156.6300 C   0  0  0  0  0  0  0  0  0  0  0  0
  149.9370  139.8801  155.2224 C   0  0  0  0  0  0  0  0  0  0  0  0
  150.7345  139.0526  154.1964 C   0  0  0  0  0  0  0  0  0  0  0  0
  152.1347  138.7056  154.7172 C   0  0  0  0  0  0  0  0  0  0  0  0
  152.0538  137.9898  156.0714 C   0  0  0  0  0  0  0  0  0  0  0  0
  151.2719  138.8329  157.0950 C   0  0  0  0  0  0  0  0  0  0  0  0
  149.8227  142.1607  156.9951 H   0  0  0  0  0  0  0  0  0  0  0  0
  150.9085  141.4458  158.1876 H   0  0  0  0  0  0  0  0  0  0  0  0
  149.3701  142.0996  158.6833 H   0  0  0  0  0  0  0  0  0  0  0  0
  149.2297  139.6638  158.6486 H   0  0  0  0  0  0  0  0  0  0  0  0
  147.2280  141.0000  158.1784 H   0  0  0  0  0  0  0  0  0  0  0  0
  147.5536  140.9580  156.4671 H   0  0  0  0  0  0  0  0  0  0  0  0
  146.9081  138.5748  158.2661 H   0  0  0  0  0  0  0  0  0  0  0  0
  145.8884  139.2579  157.0080 H   0  0  0  0  0  0  0  0  0  0  0  0
  146.3820  133.9693  156.7836 H   0  0  0  0  0  0  0  0  0  0  0  0
  144.3530  138.0110  152.2013 H   0  0  0  0  0  0  0  0  0  0  0  0
  143.2083  134.6034  153.3669 H   0  0  0  0  0  0  0  0  0  0  0  0
  142.8063  135.8819  152.2638 H   0  0  0  0  0  0  0  0  0  0  0  0
  144.5665  134.7676  149.2997 H   0  0  0  0  0  0  0  0  0  0  0  0
  143.4344  135.8795  150.0050 H   0  0  0  0  0  0  0  0  0  0  0  0
  145.0103  137.2014  150.1809 H   0  0  0  0  0  0  0  0  0  0  0  0
  146.3807  134.9124  152.0462 H   0  0  0  0  0  0  0  0  0  0  0  0
  145.6522  133.5958  152.9177 H   0  0  0  0  0  0  0  0  0  0  0  0
  146.5789  133.4597  150.0029 H   0  0  0  0  0  0  0  0  0  0  0  0
  147.3145  132.6893  151.3875 H   0  0  0  0  0  0  0  0  0  0  0  0
  144.3812  132.6227  149.2631 H   0  0  0  0  0  0  0  0  0  0  0  0
  143.6679  131.3073  150.1643 H   0  0  0  0  0  0  0  0  0  0  0  0
  143.2770  132.7038  152.1180 H   0  0  0  0  0  0  0  0  0  0  0  0
  142.5350  133.4577  150.7317 H   0  0  0  0  0  0  0  0  0  0  0  0
  149.0457  137.3922  157.5201 H   0  0  0  0  0  0  0  0  0  0  0  0
  149.3700  137.2306  155.8234 H   0  0  0  0  0  0  0  0  0  0  0  0
  148.9447  140.0810  154.8187 H   0  0  0  0  0  0  0  0  0  0  0  0
  150.4280  140.8489  155.3018 H   0  0  0  0  0  0  0  0  0  0  0  0
  150.2016  138.1365  153.9496 H   0  0  0  0  0  0  0  0  0  0  0  0
  150.8187  139.6098  153.2632 H   0  0  0  0  0  0  0  0  0  0  0  0
  152.6581  138.0797  153.9939 H   0  0  0  0  0  0  0  0  0  0  0  0
  152.7224  139.6188  154.8197 H   0  0  0  0  0  0  0  0  0  0  0  0
  151.5914  137.0103  155.9487 H   0  0  0  0  0  0  0  0  0  0  0  0
  153.0605  137.8019  156.4454 H   0  0  0  0  0  0  0  0  0  0  0  0
  151.8622  139.7282  157.2817 H   0  0  0  0  0  0  0  0  0  0  0  0
  151.2291  138.3015  158.0464 H   0  0  0  0  0  0  0  0  0  0  0  0
  1  2  1  0  0  0  0
  1 31  1  0  0  0  0
  1 32  1  0  0  0  0
  1 33  1  0  0  0  0
  2 25  1  0  0  0  0
  2  3  1  0  0  0  0
  2 34  1  0  0  0  0
  3  4  1  0  0  0  0
  3 35  1  0  0  0  0
  3 36  1  0  0  0  0
  4  5  1  0  0  0  0
  4 37  1  0  0  0  0
  4 38  1  0  0  0  0
  5  6  1  0  0  0  0
  5 24  1  0  0  0  0
  6 11  1  0  0  0  0
  6  7  2  0  0  0  0
  7  8  1  0  0  0  0
  8  9  2  0  0  0  0
  8 39  1  0  0  0  0
  9 10  1  0  0  0  0
 10 14  1  0  0  0  0
 10 11  2  0  0  0  0
 11 12  1  0  0  0  0
 12 13  2  0  0  0  0
 13 14  1  0  0  0  0
 13 40  1  0  0  0  0
 14 15  1  0  0  0  0
 15 16  1  0  0  0  0
 15 41  1  0  0  0  0
 15 42  1  0  0  0  0
 16 23  1  0  0  0  0
 16 17  1  0  0  0  0
 16 19  1  0  0  0  0
 17 18  1  0  0  0  0
 17 43  1  0  0  0  0
 17 44  1  0  0  0  0
 18 45  1  0  0  0  0
 19 20  1  0  0  0  0
 19 46  1  0  0  0  0
 19 47  1  0  0  0  0
 20 21  1  0  0  0  0
 20 48  1  0  0  0  0
 20 49  1  0  0  0  0
 21 22  1  0  0  0  0
 22 23  1  0  0  0  0
 22 50  1  0  0  0  0
 22 51  1  0  0  0  0
 23 52  1  0  0  0  0
 23 53  1  0  0  0  0
 24 25  1  0  0  0  0
 24 54  1  0  0  0  0
 24 55  1  0  0  0  0
 25 30  1  0  0  0  0
 25 26  1  0  0  0  0
 26 27  1  0  0  0  0
 26 56  1  0  0  0  0
 26 57  1  0  0  0  0
 27 28  1  0  0  0  0
 27 58  1  0  0  0  0
 27 59  1  0  0  0  0
 28 29  1  0  0  0  0
 28 60  1  0  0  0  0
 28 61  1  0  0  0  0
 29 30  1  0  0  0  0
 29 62  1  0  0  0  0
 29 63  1  0  0  0  0
 30 64  1  0  0  0  0
 30 65  1  0  0  0  0
M  END
> <s_m_source_file>
AV-unprocessed.smi

> <i_m_source_file_index>
216

> <i_lp_mmshare_version>
43012

> <i_f3d_flags>
0

> <s_epik_input>
W0NIMl0xW0NIMl1bQ0gyXVtDSDJdW0NIMl1DMTJbQ0BIXShbQ0gzXSlbQ0gyXVtDSDJdTihbQ0gyXTIpYyhuW2NIXW4zKWMoYzM0KW5bY0hdbjRbQ0gyXUM1KFtDSDJdW09IXSlbQ0gyXVtDSDJdT1tDSDJdW0NIMl01

> <s_epik_cmdline>
J2VwaWtfcHl0aG9uJywgJy1waCcsICc3LjAnLCAnLXRuJywgJzgnLCAnLW1hJywgJzIwMCcsICctbWV0YWxfYmluZGluZycsICctaW1hZScsICc8aW5maWxlLm1hZT4nLCAnLW9tYWUnLCAnPG91dGZpbGUubWFlPic=

> <r_lp_tautomer_probability>
1

> <r_epik_Ionization_Penalty>
0.00291566

> <r_epik_Ionization_Penalty_Charging>
0

> <r_epik_Ionization_Penalty_Neutral>
0.00291566

> <r_epik_State_Penalty>
0.00199166

> <r_epik_Charging_Adjusted_Penalty>
0.00199166

> <i_epik_Tot_Q>
0

> <i_epik_Tot_abs_Q>
0

> <r_epik_Metal_State_Penalty>
-0

> <b_epik_Metal_Only>
0

> <s_lp_Force_Field>
OPLS_2005

> <r_lp_Energy>
50.0726

> <b_lp_Chiralities_Consistent>
1

> <s_lp_Variant>
AV-unprocessed.smi:216-2

> <Gold.Version>
5.8.1

> <Gold.Id.Protein>
6NUR|6NUR_protein|mol2

> <Gold.PLP.Fitness>
40.5890

> <Gold.PLP.PLP>
-34.7806

> <Gold.PLP.part.hbond>
-1.7660

> <Gold.PLP.part.metal>
0.0000

> <Gold.PLP.part.buried>
-5.1653

> <Gold.PLP.part.nonpolar>
-27.1488

> <Gold.PLP.part.repulsive>
0.3051

> <Gold.PLP.ligand.clash>
0.0000

> <Gold.PLP.ligand.torsion>
1.3641

> <Gold.PLP.Chemscore.Hbond>
1.0000

> <Gold.PLP.Chemscore.CHOScore>
1.7376

> <Gold.PLP.Chemscore.Metal>
0.0000

> <Gold.Chemscore.Hbonds>
donor molecule, donor type, donor heavy atom, donor atom, acceptor molecule, acceptor atom, score
      L1  H    18    45       P1 10171  1.00
      L1  C    13    40       P1 10171  1.00
      L1  C    13    40       P1 10175  0.78

> <Gold.PLP.Chemscore.Internal.Correction>
0.3239

> <Gold.Rescore>
     Score         DG    S(hbond)    S(metal)    S(lipo)     H(rot)  DE(clash)    DE(int)     intcor
     12.27     -13.70       1.00        0.00      89.88       2.20       0.01       1.42       ----

> <Gold.Chemscore.Fitness>
12.2726

> <Gold.Chemscore.DG>
-13.6995

> <Gold.Chemscore.ZeroCoef>
-5.4800

> <Gold.Chemscore.Hbond>
1.0000

> <Gold.Chemscore.Metal>
0.0000

> <Gold.Chemscore.Lipo>
89.8846

> <Gold.Chemscore.Internal_Hbond>
0.0000

> <Gold.Chemscore.DEClash>
0.0096

> <Gold.Chemscore.DEInternal>
1.4173

> <Gold.Chemscore.Rot>
2.2019

> <Gold.Chemscore.Internal.Correction>
   9.000000E+99

> <Gold.Chemscore.Hbonds>
donor molecule, donor type, donor heavy atom, donor atom, acceptor molecule, acceptor atom, score
      L1  H    18    45       P1 10171  1.00

> <Gold.Chemscore.Hbond.Weighted>
-3.3400

> <Gold.Chemscore.Metal.Weighted>
-0.0000

> <Gold.Chemscore.Lipo.Weighted>
-10.5165

> <Gold.Chemscore.Internal_Hbond.Weighted>
0.0000

> <Gold.Chemscore.DEClash.Weighted>
0.0096

> <Gold.Chemscore.DEInternal.Weighted>
1.4173

> <Gold.Chemscore.Rot.Weighted>
5.6370

> <Gold.Chemscore.Internal.Correction.Weighted>
   9.000000E+99

> <Gold.Protein.RotatedTorsions>
[ 6907 6896 6895 6894 ] final  -44.77 input  -60.11 | X-H torsion
[ 7974 7965 7964 7962 ] final  107.53 input  175.53 | X-H torsion
[ 8008 7997 7996 7995 ] final -143.88 input   59.86 | X-H torsion
[ 10167 10162 10161 10158 ] final  119.57 input  -65.29 | X-H torsion
[ 10718 10713 10712 10709 ] final   83.92 input   66.30 | X-H torsion
[ 10763 10752 10751 10750 ] final  160.11 input  -60.55 | X-H torsion
[ 11005 11000 10999 10996 ] final  128.27 input  -57.11 | X-H torsion

> <Gold.Protein.ActiveResidues>
 VAL166  LYS551  ARG553  GLY616  TRP617  ASP618  TYR619  PRO620  LYS621  CYS622 
 ASP623  PHE694  ASN695  SER759  ASP760  ASP761  ALA762  ILE779  LEU786  VAL792 
 PHE793  MET794  SER795  GLU796  ALA797  LYS798  CYS799  TRP800  GLU811  SER814 

> <Gold.Protein.RotatedAtoms>
  150.9291  134.8707  159.7539 H   0  0  0  0  0  0  0  0  0  0  0  0  # atno 6907 bound_to 6896
  152.5029  134.4105  159.9457 H   0  0  0  0  0  0  0  0  0  0  0  0  # atno 6908 bound_to 6896
  151.4133  133.3681  159.2781 H   0  0  0  0  0  0  0  0  0  0  0  0  # atno 6909 bound_to 6896
  145.2925  139.2596  143.3857 H   0  0  0  0  0  0  0  0  0  0  0  0  # atno 7974 bound_to 7965
  155.5177  140.0589  157.2912 H   0  0  0  0  0  0  0  0  0  0  0  0  # atno 8008 bound_to 7997
  154.4529  140.1958  156.0413 H   0  0  0  0  0  0  0  0  0  0  0  0  # atno 8009 bound_to 7997
  156.0740  140.3256  155.7615 H   0  0  0  0  0  0  0  0  0  0  0  0  # atno 8010 bound_to 7997
  139.6038  144.7064  151.3002 H   0  0  0  0  0  0  0  0  0  0  0  0  # atno 10167 bound_to 10162
  157.6888  131.0111  150.2596 H   0  0  0  0  0  0  0  0  0  0  0  0  # atno 10718 bound_to 10713
  154.2424  135.2774  155.2849 H   0  0  0  0  0  0  0  0  0  0  0  0  # atno 10763 bound_to 10752
  154.5534  135.5668  153.6946 H   0  0  0  0  0  0  0  0  0  0  0  0  # atno 10764 bound_to 10752
  152.9997  135.6280  154.2568 H   0  0  0  0  0  0  0  0  0  0  0  0  # atno 10765 bound_to 10752
  139.9552  134.9614  156.8978 H   0  0  0  0  0  0  0  0  0  0  0  0  # atno 11005 bound_to 11000
  146.3180  140.3419  142.8649 LP  0  0  0  0  0  0  0  0  0  0  0  0  # atno 17320 bound_to 7965
  144.9161  140.7814  143.5777 LP  0  0  0  0  0  0  0  0  0  0  0  0  # atno 17321 bound_to 7965
  140.7269  143.6977  150.7870 LP  0  0  0  0  0  0  0  0  0  0  0  0  # atno 17342 bound_to 10162
  140.0558  143.5203  152.2651 LP  0  0  0  0  0  0  0  0  0  0  0  0  # atno 17343 bound_to 10162
  156.3178  130.3781  149.7603 LP  0  0  0  0  0  0  0  0  0  0  0  0  # atno 17370 bound_to 10713
  156.5183  130.8203  151.3194 LP  0  0  0  0  0  0  0  0  0  0  0  0  # atno 17371 bound_to 10713
  140.5626  134.0520  155.7404 LP  0  0  0  0  0  0  0  0  0  0  0  0  # atno 17394 bound_to 11000
  141.1222  133.9442  157.2707 LP  0  0  0  0  0  0  0  0  0  0  0  0  # atno 17395 bound_to 11000

$$$$
