AV-unprocessed.smi:1934|AV-procd|sdf|7826|dock1
  -GOLD-   22720 9573D 1   1.00000     0.00000
 Structure written by MMmdl.
 46 47  0  0  0  0  0  0  0  0  2 V2000
  152.0289  141.4717  158.5186 C   0  0  0  0  0  0  0  0  0  0  0  0
  151.8003  140.7950  157.1992 C   0  0  0  0  0  0  0  0  0  0  0  0
  150.6691  140.9096  156.3402 C   0  0  0  0  0  0  0  0  0  0  0  0
  150.9964  140.0843  155.2993 C   0  0  0  0  0  0  0  0  0  0  0  0
  150.2824  139.7994  154.1779 N   0  0  0  0  0  0  0  0  0  0  0  0
  148.9608  139.9316  153.9696 C   0  0  0  0  0  0  0  0  0  0  0  0
  148.1460  140.3586  154.7879 O   0  0  0  0  0  0  0  0  0  0  0  0
  148.6195  139.5246  152.7384 N   0  0  0  0  0  0  0  0  0  0  0  0
  147.2613  139.5267  152.2071 C   0  0  0  0  0  0  0  0  0  0  0  0
  147.1264  138.5798  150.9983 C   0  0  0  0  0  0  0  0  0  0  0  0
  146.7399  137.2015  151.3928 N   0  3  2  0  0  0  0  0  0  0  0  0
  146.4054  136.3588  150.2153 C   0  0  0  0  0  0  0  0  0  0  0  0
  146.1391  134.9035  150.6304 C   0  0  0  0  0  0  0  0  0  0  0  0
  145.0286  134.8285  151.6854 C   0  0  0  0  0  0  0  0  0  0  0  0
  145.3753  135.7232  152.8869 C   0  0  2  0  0  0  0  0  0  0  0  0
  144.2673  135.6882  153.9490 C   0  0  0  0  0  0  0  0  0  0  0  0
  145.6596  137.1639  152.4158 C   0  0  0  0  0  0  0  0  0  0  0  0
  152.2376  139.5368  155.5389 N   0  0  0  0  0  0  0  0  0  0  0  0
  153.0070  138.6068  154.7349 C   0  0  0  0  0  0  0  0  0  0  0  0
  152.7291  139.9764  156.7176 N   0  0  0  0  0  0  0  0  0  0  0  0
  151.1985  142.1314  158.7715 H   0  0  0  0  0  0  0  0  0  0  0  0
  152.9369  142.0750  158.4991 H   0  0  0  0  0  0  0  0  0  0  0  0
  152.1285  140.7418  159.3223 H   0  0  0  0  0  0  0  0  0  0  0  0
  149.7792  141.5035  156.4842 H   0  0  0  0  0  0  0  0  0  0  0  0
  150.8195  139.4205  153.4119 H   0  0  0  0  0  0  0  0  0  0  0  0
  149.3501  139.1902  152.1266 H   0  0  0  0  0  0  0  0  0  0  0  0
  146.5546  139.2504  152.9915 H   0  0  0  0  0  0  0  0  0  0  0  0
  147.0286  140.5532  151.9270 H   0  0  0  0  0  0  0  0  0  0  0  0
  146.4100  138.9731  150.2750 H   0  0  0  0  0  0  0  0  0  0  0  0
  148.0884  138.5404  150.4851 H   0  0  0  0  0  0  0  0  0  0  0  0
  145.5327  136.7719  149.7066 H   0  0  0  0  0  0  0  0  0  0  0  0
  147.2284  136.3784  149.4999 H   0  0  0  0  0  0  0  0  0  0  0  0
  145.8632  134.3118  149.7569 H   0  0  0  0  0  0  0  0  0  0  0  0
  147.0541  134.4611  151.0271 H   0  0  0  0  0  0  0  0  0  0  0  0
  144.0823  135.1459  151.2446 H   0  0  0  0  0  0  0  0  0  0  0  0
  144.8924  133.7955  152.0077 H   0  0  0  0  0  0  0  0  0  0  0  0
  146.2843  135.3329  153.3480 H   0  0  0  0  0  0  0  0  0  0  0  0
  143.3279  136.0789  153.5562 H   0  0  0  0  0  0  0  0  0  0  0  0
  144.5384  136.2863  154.8195 H   0  0  0  0  0  0  0  0  0  0  0  0
  144.0854  134.6697  154.2936 H   0  0  0  0  0  0  0  0  0  0  0  0
  145.9409  137.7658  153.2791 H   0  0  0  0  0  0  0  0  0  0  0  0
  144.7538  137.6115  152.0028 H   0  0  0  0  0  0  0  0  0  0  0  0
  153.0117  138.9330  153.6947 H   0  0  0  0  0  0  0  0  0  0  0  0
  152.5590  137.6148  154.7964 H   0  0  0  0  0  0  0  0  0  0  0  0
  154.0371  138.5541  155.0906 H   0  0  0  0  0  0  0  0  0  0  0  0
  147.5585  136.7837  151.8119 H   0  0  0  0  0  0  0  0  0  0  0  0
  1  2  1  0  0  0  0
  1 21  1  0  0  0  0
  1 22  1  0  0  0  0
  1 23  1  0  0  0  0
  2 20  2  0  0  0  0
  2  3  1  0  0  0  0
  3  4  2  0  0  0  0
  3 24  1  0  0  0  0
  4  5  1  0  0  0  0
  4 18  1  0  0  0  0
  5  6  1  0  0  0  0
  5 25  1  0  0  0  0
  6  7  2  0  0  0  0
  6  8  1  0  0  0  0
  8  9  1  0  0  0  0
  8 26  1  0  0  0  0
  9 10  1  0  0  0  0
  9 27  1  0  0  0  0
  9 28  1  0  0  0  0
 10 11  1  0  0  0  0
 10 29  1  0  0  0  0
 10 30  1  0  0  0  0
 11 17  1  0  0  0  0
 11 12  1  0  0  0  0
 11 46  1  0  0  0  0
 12 13  1  0  0  0  0
 12 31  1  0  0  0  0
 12 32  1  0  0  0  0
 13 14  1  0  0  0  0
 13 33  1  0  0  0  0
 13 34  1  0  0  0  0
 14 15  1  0  0  0  0
 14 35  1  0  0  0  0
 14 36  1  0  0  0  0
 15 16  1  0  0  0  0
 15 17  1  0  0  0  0
 15 37  1  0  0  0  0
 16 38  1  0  0  0  0
 16 39  1  0  0  0  0
 16 40  1  0  0  0  0
 17 41  1  0  0  0  0
 17 42  1  0  0  0  0
 18 19  1  0  0  0  0
 18 20  1  0  0  0  0
 19 43  1  0  0  0  0
 19 44  1  0  0  0  0
 19 45  1  0  0  0  0
M  CHG  1  11   1
M  END
> <s_m_source_file>
AV-unprocessed.smi

> <i_m_source_file_index>
1934

> <i_lp_mmshare_version>
43012

> <i_f3d_flags>
0

> <s_epik_input>
W0NIM11jMVtjSF1jKG4objEpW0NIM10pW05IXUMoPU8pW05IXVtDSDJdW0NIMl1OMltDSDJdW0NIMl1bQ0gyXVtDQEBIXShbQ0gzXSlbQ0gyXTI=

> <s_epik_cmdline>
J2VwaWtfcHl0aG9uJywgJy1waCcsICc3LjAnLCAnLXRuJywgJzgnLCAnLW1hJywgJzIwMCcsICctbWV0YWxfYmluZGluZycsICctaW1hZScsICc8aW5maWxlLm1hZT4nLCAnLW9tYWUnLCAnPG91dGZpbGUubWFlPic=

> <r_lp_tautomer_probability>
1

> <r_epik_Ionization_Penalty>
0.00202955

> <r_epik_Ionization_Penalty_Charging>
0.00195276

> <r_epik_Ionization_Penalty_Neutral>
7.67968e-05

> <r_epik_State_Penalty>
0.00133177

> <r_epik_Charging_Adjusted_Penalty>
0.00328452

> <i_epik_Tot_Q>
1

> <i_epik_Tot_abs_Q>
1

> <r_epik_Metal_State_Penalty>
-0

> <b_epik_Metal_Only>
0

> <s_lp_Force_Field>
OPLS_2005

> <r_lp_Energy>
17.6546

> <b_lp_Chiralities_Consistent>
1

> <s_lp_Variant>
AV-unprocessed.smi:1934-4

> <Gold.Version>
5.8.1

> <Gold.Id.Protein>
6NUR|6NUR_protein|mol2

> <Gold.PLP.Fitness>
46.0542

> <Gold.PLP.PLP>
-35.4580

> <Gold.PLP.part.hbond>
-2.8412

> <Gold.PLP.part.metal>
0.0000

> <Gold.PLP.part.buried>
0.6496

> <Gold.PLP.part.nonpolar>
-34.1396

> <Gold.PLP.part.repulsive>
1.1288

> <Gold.PLP.ligand.clash>
0.0000

> <Gold.PLP.ligand.torsion>
0.5041

> <Gold.PLP.Chemscore.Hbond>
3.8320

> <Gold.PLP.Chemscore.CHOScore>
0.0000

> <Gold.PLP.Chemscore.Metal>
0.0000

> <Gold.Chemscore.Hbonds>
donor molecule, donor type, donor heavy atom, donor atom, acceptor molecule, acceptor atom, score
      L1  H     8    26       P1  7957  0.11
      L1  H    11    46       P1  7948  1.72
      P1  H  7997  8010       L1    20  0.96

> <Gold.PLP.Chemscore.Internal.Correction>
0.1083

> <Gold.Rescore>
     Score         DG    S(hbond)    S(metal)    S(lipo)     H(rot)  DE(clash)    DE(int)     intcor
     16.55     -19.95       2.78        0.00      76.83       1.48       1.89       1.51       ----

> <Gold.Chemscore.Fitness>
16.5536

> <Gold.Chemscore.DG>
-19.9531

> <Gold.Chemscore.ZeroCoef>
-5.4800

> <Gold.Chemscore.Hbond>
2.7793

> <Gold.Chemscore.Metal>
0.0000

> <Gold.Chemscore.Lipo>
76.8269

> <Gold.Chemscore.Internal_Hbond>
0.0000

> <Gold.Chemscore.DEClash>
1.8911

> <Gold.Chemscore.DEInternal>
1.5083

> <Gold.Chemscore.Rot>
1.4838

> <Gold.Chemscore.Internal.Correction>
   9.000000E+99

> <Gold.Chemscore.Hbonds>
donor molecule, donor type, donor heavy atom, donor atom, acceptor molecule, acceptor atom, score
      L1  H     8    26       P1  7957  0.10
      L1  H    11    46       P1  7948  0.82
      P1  H  7997  8010       L1    20  0.81

> <Gold.Chemscore.Hbond.Weighted>
-9.2828

> <Gold.Chemscore.Metal.Weighted>
-0.0000

> <Gold.Chemscore.Lipo.Weighted>
-8.9888

> <Gold.Chemscore.Internal_Hbond.Weighted>
0.0000

> <Gold.Chemscore.DEClash.Weighted>
1.8911

> <Gold.Chemscore.DEInternal.Weighted>
1.5083

> <Gold.Chemscore.Rot.Weighted>
3.7985

> <Gold.Chemscore.Internal.Correction.Weighted>
   9.000000E+99

> <Gold.Protein.RotatedTorsions>
[ 6907 6896 6895 6894 ] final  134.90 input  -60.11 | X-H torsion
[ 7974 7965 7964 7962 ] final    4.90 input  175.53 | X-H torsion
[ 8008 7997 7996 7995 ] final   51.01 input   59.86 | X-H torsion
[ 10167 10162 10161 10158 ] final    9.56 input  -65.29 | X-H torsion
[ 10718 10713 10712 10709 ] final  152.61 input   66.30 | X-H torsion
[ 10763 10752 10751 10750 ] final  -80.78 input  -60.55 | X-H torsion
[ 11005 11000 10999 10996 ] final  176.31 input  -57.11 | X-H torsion

> <Gold.Protein.ActiveResidues>
 VAL166  LYS551  ARG553  GLY616  TRP617  ASP618  TYR619  PRO620  LYS621  CYS622 
 ASP623  PHE694  ASN695  SER759  ASP760  ASP761  ALA762  ILE779  LEU786  VAL792 
 PHE793  MET794  SER795  GLU796  ALA797  LYS798  CYS799  TRP800  GLU811  SER814 

> <Gold.Protein.RotatedAtoms>
  152.3063  133.5707  159.5651 H   0  0  0  0  0  0  0  0  0  0  0  0  # atno 6907 bound_to 6896
  150.7301  134.0217  159.3712 H   0  0  0  0  0  0  0  0  0  0  0  0  # atno 6908 bound_to 6896
  151.8113  135.0680  160.0464 H   0  0  0  0  0  0  0  0  0  0  0  0  # atno 6909 bound_to 6896
  146.2442  140.0465  142.8378 H   0  0  0  0  0  0  0  0  0  0  0  0  # atno 7974 bound_to 7965
  155.4282  140.3449  155.4277 H   0  0  0  0  0  0  0  0  0  0  0  0  # atno 8008 bound_to 7997
  156.1352  140.1526  156.9036 H   0  0  0  0  0  0  0  0  0  0  0  0  # atno 8009 bound_to 7997
  154.4926  140.0837  156.7608 H   0  0  0  0  0  0  0  0  0  0  0  0  # atno 8010 bound_to 7997
  140.6248  143.8126  150.7219 H   0  0  0  0  0  0  0  0  0  0  0  0  # atno 10167 bound_to 10162
  157.2555  131.0787  151.1701 H   0  0  0  0  0  0  0  0  0  0  0  0  # atno 10718 bound_to 10713
  154.5554  135.5649  153.6959 H   0  0  0  0  0  0  0  0  0  0  0  0  # atno 10763 bound_to 10752
  153.0002  135.6261  154.2317 H   0  0  0  0  0  0  0  0  0  0  0  0  # atno 10764 bound_to 10752
  154.2253  135.2868  155.2889 H   0  0  0  0  0  0  0  0  0  0  0  0  # atno 10765 bound_to 10752
  140.3718  134.7023  157.4397 H   0  0  0  0  0  0  0  0  0  0  0  0  # atno 11005 bound_to 11000
  145.1022  140.9353  143.4705 LP  0  0  0  0  0  0  0  0  0  0  0  0  # atno 17320 bound_to 7965
  145.0660  139.3068  143.5856 LP  0  0  0  0  0  0  0  0  0  0  0  0  # atno 17321 bound_to 7965
  140.1724  143.4183  152.1991 LP  0  0  0  0  0  0  0  0  0  0  0  0  # atno 17342 bound_to 10162
  139.5470  144.7306  151.4553 LP  0  0  0  0  0  0  0  0  0  0  0  0  # atno 17343 bound_to 10162
  157.3232  130.6947  149.6281 LP  0  0  0  0  0  0  0  0  0  0  0  0  # atno 17370 bound_to 10713
  155.9665  130.4329  150.4984 LP  0  0  0  0  0  0  0  0  0  0  0  0  # atno 17371 bound_to 10713
  140.0546  134.6082  155.8820 LP  0  0  0  0  0  0  0  0  0  0  0  0  # atno 17394 bound_to 11000
  141.1952  133.6586  156.5632 LP  0  0  0  0  0  0  0  0  0  0  0  0  # atno 17395 bound_to 11000

$$$$
