AV-unprocessed.smi:49|AV-procd|sdf|468|dock10
  -GOLD-   2262016333D 1   1.00000     0.00000
 Structure written by MMmdl.
 28 29  0  0  0  0  0  0  0  0  2 V2000
  144.4561  132.0941  150.1797 C   0  0  0  0  0  0  0  0  0  0  0  0
  143.7520  132.8904  151.2841 C   0  0  0  0  0  0  0  0  0  0  0  0
  144.1704  134.3234  151.3010 C   0  0  0  0  0  0  0  0  0  0  0  0
  144.6348  134.9449  152.4266 N   0  0  0  0  0  0  0  0  0  0  0  0
  144.8211  136.1776  151.9587 C   0  0  0  0  0  0  0  0  0  0  0  0
  145.3178  137.3541  152.7448 C   0  0  1  0  0  0  0  0  0  0  0  0
  146.7203  137.1894  153.3344 C   0  0  0  0  0  0  0  0  0  0  0  0
  147.2453  138.6218  153.3197 C   0  0  1  0  0  0  0  0  0  0  0  0
  148.6559  138.6711  153.3437 O   0  0  0  0  0  0  0  0  0  0  0  0
  146.6673  139.1950  152.0205 C   0  0  0  0  0  0  0  0  0  0  0  0
  145.4054  138.4676  151.7762 N   0  3  0  0  0  0  0  0  0  0  0  0
  144.4830  136.2859  150.6716 N   0  0  0  0  0  0  0  0  0  0  0  0
  144.0493  135.0909  150.2193 N   0  0  0  0  0  0  0  0  0  0  0  0
  144.6028  137.6237  153.5238 H   0  0  0  0  0  0  0  0  0  0  0  0
  146.8461  139.1688  154.1754 H   0  0  0  0  0  0  0  0  0  0  0  0
  144.5193  137.1125  150.0920 H   0  0  0  0  0  0  0  0  0  0  0  0
  144.1337  131.0529  150.1865 H   0  0  0  0  0  0  0  0  0  0  0  0
  145.5382  132.1088  150.3132 H   0  0  0  0  0  0  0  0  0  0  0  0
  144.2337  132.5058  149.1948 H   0  0  0  0  0  0  0  0  0  0  0  0
  142.6714  132.8362  151.1470 H   0  0  0  0  0  0  0  0  0  0  0  0
  143.9632  132.4423  152.2559 H   0  0  0  0  0  0  0  0  0  0  0  0
  146.7200  136.7300  154.3234 H   0  0  0  0  0  0  0  0  0  0  0  0
  147.3336  136.5706  152.6763 H   0  0  0  0  0  0  0  0  0  0  0  0
  148.9596  139.0802  152.5473 H   0  0  0  0  0  0  0  0  0  0  0  0
  146.5074  140.2720  152.0742 H   0  0  0  0  0  0  0  0  0  0  0  0
  147.3329  138.9952  151.1793 H   0  0  0  0  0  0  0  0  0  0  0  0
  145.4207  138.0916  150.8383 H   0  0  0  0  0  0  0  0  0  0  0  0
  144.6110  139.0813  151.8853 H   0  0  0  0  0  0  0  0  0  0  0  0
  1  2  1  0  0  0  0
  1 17  1  0  0  0  0
  1 18  1  0  0  0  0
  1 19  1  0  0  0  0
  2 20  1  0  0  0  0
  2 21  1  0  0  0  0
  2  3  1  0  0  0  0
  3  4  1  0  0  0  0
  3 13  2  0  0  0  0
  4  5  2  0  0  0  0
  5  6  1  0  0  0  0
  5 12  1  0  0  0  0
  6 14  1  0  0  0  0
  6 11  1  0  0  0  0
  6  7  1  0  0  0  0
  7  8  1  0  0  0  0
  7 22  1  0  0  0  0
  7 23  1  0  0  0  0
  8 15  1  0  0  0  0
  8  9  1  0  0  0  0
  8 10  1  0  0  0  0
  9 24  1  0  0  0  0
 10 11  1  0  0  0  0
 10 25  1  0  0  0  0
 10 26  1  0  0  0  0
 11 27  1  0  0  0  0
 11 28  1  0  0  0  0
 12 13  1  0  0  0  0
 12 16  1  0  0  0  0
M  CHG  1  11   1
M  END
> <s_m_source_file>
AV-unprocessed.smi

> <i_m_source_file_index>
49

> <i_lp_mmshare_version>
43012

> <i_f3d_flags>
0

> <s_epik_input>
W0NIM11bQ0gyXWMxbmMobltuSF0xKVtDQEBIXTJbQ0gyXVtDQEBIXShbT0hdKVtDSDJdW05IXTI=

> <s_epik_cmdline>
J2VwaWtfcHl0aG9uJywgJy1waCcsICc3LjAnLCAnLXRuJywgJzgnLCAnLW1hJywgJzIwMCcsICctbWV0YWxfYmluZGluZycsICctaW1hZScsICc8aW5maWxlLm1hZT4nLCAnLW9tYWUnLCAnPG91dGZpbGUubWFlPic=

> <r_epik_Ionization_Penalty>
0.372103

> <r_epik_Ionization_Penalty_Charging>
0.0688988

> <r_epik_Ionization_Penalty_Neutral>
0.303204

> <r_epik_State_Penalty>
0.737493

> <r_epik_Charging_Adjusted_Penalty>
0.806392

> <i_epik_Tot_Q>
1

> <i_epik_Tot_abs_Q>
1

> <r_epik_Metal_State_Penalty>
1.01235

> <b_epik_Metal_Only>
0

> <s_lp_Force_Field>
OPLS_2005

> <r_lp_Energy>
17.828

> <b_lp_Chiralities_Consistent>
1

> <s_lp_Variant>
AV-unprocessed.smi:49-6

> <Gold.Version>
5.8.1

> <Gold.Id.Protein>
6NUR|6NUR_protein|mol2

> <Gold.PLP.Fitness>
34.3930

> <Gold.PLP.PLP>
-21.8557

> <Gold.PLP.part.hbond>
-4.8890

> <Gold.PLP.part.metal>
0.0000

> <Gold.PLP.part.buried>
-2.1400

> <Gold.PLP.part.nonpolar>
-16.2574

> <Gold.PLP.part.repulsive>
0.4622

> <Gold.PLP.ligand.clash>
0.0000

> <Gold.PLP.ligand.torsion>
0.0411

> <Gold.PLP.Chemscore.Hbond>
4.2000

> <Gold.PLP.Chemscore.CHOScore>
0.0000

> <Gold.PLP.Chemscore.Metal>
0.0000

> <Gold.Chemscore.Hbonds>
donor molecule, donor type, donor heavy atom, donor atom, acceptor molecule, acceptor atom, score
      L1  H     9    24       P1  7957  1.00
      L1  H    11    27       P1 10171  0.26
      L1  H    11    28       P1 10175  2.00
      L1  H    12    16       P1 10171  0.93

> <Gold.PLP.Chemscore.Internal.Correction>
0.0195

> <Gold.Rescore>
     Score         DG    S(hbond)    S(metal)    S(lipo)     H(rot)  DE(clash)    DE(int)     intcor
     16.12     -16.50       3.40        0.00      38.38       1.89       0.29       0.08       ----

> <Gold.Chemscore.Fitness>
16.1231

> <Gold.Chemscore.DG>
-16.4975

> <Gold.Chemscore.ZeroCoef>
-5.4800

> <Gold.Chemscore.Hbond>
3.4014

> <Gold.Chemscore.Metal>
0.0000

> <Gold.Chemscore.Lipo>
38.3845

> <Gold.Chemscore.Internal_Hbond>
0.0000

> <Gold.Chemscore.DEClash>
0.2895

> <Gold.Chemscore.DEInternal>
0.0849

> <Gold.Chemscore.Rot>
1.8883

> <Gold.Chemscore.Internal.Correction>
   9.000000E+99

> <Gold.Chemscore.Hbonds>
donor molecule, donor type, donor heavy atom, donor atom, acceptor molecule, acceptor atom, score
      L1  H     9    24       P1  7957  1.00
      L1  H    11    27       P1 10171  0.26
      L1  H    11    28       P1 10175  0.99
      L1  H    12    16       P1 10171  0.89

> <Gold.Chemscore.Hbond.Weighted>
-11.3605

> <Gold.Chemscore.Metal.Weighted>
-0.0000

> <Gold.Chemscore.Lipo.Weighted>
-4.4910

> <Gold.Chemscore.Internal_Hbond.Weighted>
0.0000

> <Gold.Chemscore.DEClash.Weighted>
0.2895

> <Gold.Chemscore.DEInternal.Weighted>
0.0849

> <Gold.Chemscore.Rot.Weighted>
4.8340

> <Gold.Chemscore.Internal.Correction.Weighted>
   9.000000E+99

> <Gold.Protein.RotatedTorsions>
[ 6907 6896 6895 6894 ] final  -81.91 input  -60.11 | X-H torsion
[ 7974 7965 7964 7962 ] final  114.83 input  175.53 | X-H torsion
[ 8008 7997 7996 7995 ] final  -42.29 input   59.86 | X-H torsion
[ 10167 10162 10161 10158 ] final  149.57 input  -65.29 | X-H torsion
[ 10718 10713 10712 10709 ] final -104.74 input   66.30 | X-H torsion
[ 10763 10752 10751 10750 ] final -105.96 input  -60.55 | X-H torsion
[ 11005 11000 10999 10996 ] final   84.32 input  -57.11 | X-H torsion

> <Gold.Protein.ActiveResidues>
 VAL166  LYS551  ARG553  GLY616  TRP617  ASP618  TYR619  PRO620  LYS621  CYS622 
 ASP623  PHE694  ASN695  SER759  ASP760  ASP761  ALA762  ILE779  LEU786  VAL792 
 PHE793  MET794  SER795  GLU796  ALA797  LYS798  CYS799  TRP800  GLU811  SER814 

> <Gold.Protein.RotatedAtoms>
  150.6905  134.3746  159.5006 H   0  0  0  0  0  0  0  0  0  0  0  0  # atno 6907 bound_to 6896
  152.1557  134.8950  160.0554 H   0  0  0  0  0  0  0  0  0  0  0  0  # atno 6908 bound_to 6896
  152.0031  133.3798  159.4226 H   0  0  0  0  0  0  0  0  0  0  0  0  # atno 6909 bound_to 6896
  145.1995  139.2959  143.4326 H   0  0  0  0  0  0  0  0  0  0  0  0  # atno 7974 bound_to 7965
  154.3999  140.1477  156.3331 H   0  0  0  0  0  0  0  0  0  0  0  0  # atno 8008 bound_to 7997
  155.8425  140.3461  155.5620 H   0  0  0  0  0  0  0  0  0  0  0  0  # atno 8009 bound_to 7997
  155.8071  140.0878  157.1915 H   0  0  0  0  0  0  0  0  0  0  0  0  # atno 8010 bound_to 7997
  139.4860  144.5591  151.7264 H   0  0  0  0  0  0  0  0  0  0  0  0  # atno 10167 bound_to 10162
  156.0317  130.5530  150.7440 H   0  0  0  0  0  0  0  0  0  0  0  0  # atno 10718 bound_to 10713
  154.7981  135.4729  154.0209 H   0  0  0  0  0  0  0  0  0  0  0  0  # atno 10763 bound_to 10752
  153.1736  135.6829  153.8580 H   0  0  0  0  0  0  0  0  0  0  0  0  # atno 10764 bound_to 10752
  153.8154  135.3211  155.3383 H   0  0  0  0  0  0  0  0  0  0  0  0  # atno 10765 bound_to 10752
  139.9004  134.8208  156.2429 H   0  0  0  0  0  0  0  0  0  0  0  0  # atno 11005 bound_to 11000
  146.3420  140.2235  142.8592 LP  0  0  0  0  0  0  0  0  0  0  0  0  # atno 17320 bound_to 7965
  144.9962  140.8591  143.5309 LP  0  0  0  0  0  0  0  0  0  0  0  0  # atno 17321 bound_to 7965
  140.5158  144.0956  150.6008 LP  0  0  0  0  0  0  0  0  0  0  0  0  # atno 17342 bound_to 10162
  140.3897  143.2759  152.0075 LP  0  0  0  0  0  0  0  0  0  0  0  0  # atno 17343 bound_to 10162
  157.5001  131.0918  151.0324 LP  0  0  0  0  0  0  0  0  0  0  0  0  # atno 17370 bound_to 10713
  157.0707  130.5863  149.5402 LP  0  0  0  0  0  0  0  0  0  0  0  0  # atno 17371 bound_to 10713
  141.0273  133.7008  156.1370 LP  0  0  0  0  0  0  0  0  0  0  0  0  # atno 17394 bound_to 11000
  140.7147  134.4423  157.5579 LP  0  0  0  0  0  0  0  0  0  0  0  0  # atno 17395 bound_to 11000

$$$$
