AV-unprocessed.smi:2143|AV-procd|sdf|8729|dock8
  -GOLD-   2272011493D 1   1.00000     0.00000
 Structure written by MMmdl.
 44 45  0  0  0  0  0  0  0  0  1 V2000
  151.5324  141.4122  158.3795 C   0  0  0  0  0  0  0  0  0  0  0  0
  150.8647  140.6261  157.2367 C   0  0  1  0  0  0  0  0  0  0  0  0
  150.1326  141.6019  156.2922 C   0  0  0  0  0  0  0  0  0  0  0  0
  149.4338  140.8741  155.1363 C   0  0  0  0  0  0  0  0  0  0  0  0
  150.4320  140.0180  154.3445 C   0  0  0  0  0  0  0  0  0  0  0  0
  151.1795  139.0228  155.2539 C   0  0  2  0  0  0  0  0  0  0  0  0
  150.2771  137.9700  155.7224 N   0  0  0  0  0  0  0  0  0  0  0  0
  150.3653  136.6686  155.4104 C   0  0  0  0  0  0  0  0  0  0  0  0
  151.2232  136.2092  154.6558 O   0  0  0  0  0  0  0  0  0  0  0  0
  149.3021  135.7539  156.0313 C   0  0  0  0  0  0  0  0  0  0  0  0
  149.4289  134.3595  155.5901 N   0  0  0  0  0  0  0  0  0  0  0  0
  149.0848  134.0139  154.2960 C   0  0  0  0  0  0  0  0  0  0  0  0
  149.1893  132.7587  153.8077 C   0  0  0  0  0  0  0  0  0  0  0  0
  149.6812  131.6687  154.6417 C   0  0  0  0  0  0  0  0  0  0  0  0
  149.8060  130.5146  154.2303 O   0  0  0  0  0  0  0  0  0  0  0  0
  150.0151  132.0477  155.9645 N   0  0  0  0  0  0  0  0  0  0  0  0
  150.5268  131.0424  156.8726 C   0  0  0  0  0  0  0  0  0  0  0  0
  149.9174  133.3651  156.4643 C   0  0  0  0  0  0  0  0  0  0  0  0
  150.2490  133.6495  157.6183 O   0  0  0  0  0  0  0  0  0  0  0  0
  151.8675  139.7415  156.4436 C   0  0  2  0  0  0  0  0  0  0  0  0
  152.6274  138.7388  157.3362 C   0  0  0  0  0  0  0  0  0  0  0  0
  152.3472  142.0355  158.0096 H   0  0  0  0  0  0  0  0  0  0  0  0
  151.9361  140.7499  159.1449 H   0  0  0  0  0  0  0  0  0  0  0  0
  150.8146  142.0664  158.8748 H   0  0  0  0  0  0  0  0  0  0  0  0
  150.1145  139.9747  157.6869 H   0  0  0  0  0  0  0  0  0  0  0  0
  149.3964  142.1802  156.8515 H   0  0  0  0  0  0  0  0  0  0  0  0
  150.8434  142.3229  155.8862 H   0  0  0  0  0  0  0  0  0  0  0  0
  148.6320  140.2464  155.5271 H   0  0  0  0  0  0  0  0  0  0  0  0
  148.9610  141.5992  154.4731 H   0  0  0  0  0  0  0  0  0  0  0  0
  149.9175  139.4894  153.5411 H   0  0  0  0  0  0  0  0  0  0  0  0
  151.1565  140.6724  153.8585 H   0  0  0  0  0  0  0  0  0  0  0  0
  151.9662  138.5552  154.6585 H   0  0  0  0  0  0  0  0  0  0  0  0
  149.5354  138.2561  156.3445 H   0  0  0  0  0  0  0  0  0  0  0  0
  149.3504  135.8076  157.1206 H   0  0  0  0  0  0  0  0  0  0  0  0
  148.3195  136.1432  155.7610 H   0  0  0  0  0  0  0  0  0  0  0  0
  148.7193  134.7875  153.6364 H   0  0  0  0  0  0  0  0  0  0  0  0
  148.9077  132.5584  152.7842 H   0  0  0  0  0  0  0  0  0  0  0  0
  150.0125  131.1560  157.8288 H   0  0  0  0  0  0  0  0  0  0  0  0
  151.5984  131.2207  156.9722 H   0  0  0  0  0  0  0  0  0  0  0  0
  150.3329  130.0393  156.4929 H   0  0  0  0  0  0  0  0  0  0  0  0
  152.6178  140.4079  156.0146 H   0  0  0  0  0  0  0  0  0  0  0  0
  151.9451  138.1122  157.9114 H   0  0  0  0  0  0  0  0  0  0  0  0
  153.2860  139.2465  158.0405 H   0  0  0  0  0  0  0  0  0  0  0  0
  153.2552  138.0798  156.7356 H   0  0  0  0  0  0  0  0  0  0  0  0
  1  2  1  0  0  0  0
  1 22  1  0  0  0  0
  1 23  1  0  0  0  0
  1 24  1  0  0  0  0
  2 20  1  0  0  0  0
  2  3  1  0  0  0  0
  2 25  1  0  0  0  0
  3  4  1  0  0  0  0
  3 26  1  0  0  0  0
  3 27  1  0  0  0  0
  4  5  1  0  0  0  0
  4 28  1  0  0  0  0
  4 29  1  0  0  0  0
  5  6  1  0  0  0  0
  5 30  1  0  0  0  0
  5 31  1  0  0  0  0
  6  7  1  0  0  0  0
  6 20  1  0  0  0  0
  6 32  1  0  0  0  0
  7  8  1  0  0  0  0
  7 33  1  0  0  0  0
  8  9  2  0  0  0  0
  8 10  1  0  0  0  0
 10 11  1  0  0  0  0
 10 34  1  0  0  0  0
 10 35  1  0  0  0  0
 11 18  1  0  0  0  0
 11 12  1  0  0  0  0
 12 13  2  0  0  0  0
 12 36  1  0  0  0  0
 13 14  1  0  0  0  0
 13 37  1  0  0  0  0
 14 15  2  0  0  0  0
 14 16  1  0  0  0  0
 16 17  1  0  0  0  0
 16 18  1  0  0  0  0
 17 38  1  0  0  0  0
 17 39  1  0  0  0  0
 17 40  1  0  0  0  0
 18 19  2  0  0  0  0
 20 21  1  0  0  0  0
 20 41  1  0  0  0  0
 21 42  1  0  0  0  0
 21 43  1  0  0  0  0
 21 44  1  0  0  0  0
M  END
> <s_m_source_file>
AV-unprocessed.smi

> <i_m_source_file_index>
2143

> <i_lp_mmshare_version>
43012

> <i_f3d_flags>
0

> <s_epik_input>
W0NIM11bQ0BASF0xW0NIMl1bQ0gyXVtDSDJdW0NASF0oW0NASF0xW0NIM10pW05IXUMoPU8pW0NIMl1uMltjSF1bY0hdYyg9TyluKFtDSDNdKWMyPU8=

> <s_epik_cmdline>
J2VwaWtfcHl0aG9uJywgJy1waCcsICc3LjAnLCAnLXRuJywgJzgnLCAnLW1hJywgJzIwMCcsICctbWV0YWxfYmluZGluZycsICctaW1hZScsICc8aW5maWxlLm1hZT4nLCAnLW9tYWUnLCAnPG91dGZpbGUubWFlPic=

> <r_lp_tautomer_probability>
1

> <r_epik_Ionization_Penalty>
3.18445e-08

> <r_epik_Ionization_Penalty_Charging>
1.27977e-08

> <r_epik_Ionization_Penalty_Neutral>
1.90469e-08

> <r_epik_State_Penalty>
-0

> <r_epik_Charging_Adjusted_Penalty>
1.27977e-08

> <i_epik_Tot_Q>
0

> <i_epik_Tot_abs_Q>
0

> <r_epik_Metal_State_Penalty>
-0

> <b_epik_Metal_Only>
0

> <s_lp_Force_Field>
OPLS_2005

> <r_lp_Energy>
18.9337

> <b_lp_Chiralities_Consistent>
1

> <s_lp_Variant>
AV-unprocessed.smi:2143-8

> <Gold.Version>
5.8.1

> <Gold.Id.Protein>
6NUR|6NUR_protein|mol2

> <Gold.PLP.Fitness>
40.4845

> <Gold.PLP.PLP>
-31.8608

> <Gold.PLP.part.hbond>
-2.0000

> <Gold.PLP.part.metal>
0.0000

> <Gold.PLP.part.buried>
-1.2836

> <Gold.PLP.part.nonpolar>
-30.2603

> <Gold.PLP.part.repulsive>
0.3299

> <Gold.PLP.ligand.clash>
0.0000

> <Gold.PLP.ligand.torsion>
0.1588

> <Gold.PLP.Chemscore.Hbond>
1.9760

> <Gold.PLP.Chemscore.CHOScore>
1.0000

> <Gold.PLP.Chemscore.Metal>
0.0000

> <Gold.Chemscore.Hbonds>
donor molecule, donor type, donor heavy atom, donor atom, acceptor molecule, acceptor atom, score
      P1  H  6896  6907       L1    19  0.99
      P1  H 10752 10764       L1     9  1.00
      L1  C    12    36       P1  7948  1.00

> <Gold.PLP.Chemscore.Internal.Correction>
0.0133

> <Gold.Rescore>
     Score         DG    S(hbond)    S(metal)    S(lipo)     H(rot)  DE(clash)    DE(int)     intcor
     14.82     -16.44       1.95        0.00      71.14       1.51       1.40       0.22       ----

> <Gold.Chemscore.Fitness>
14.8243

> <Gold.Chemscore.DG>
-16.4396

> <Gold.Chemscore.ZeroCoef>
-5.4800

> <Gold.Chemscore.Hbond>
1.9491

> <Gold.Chemscore.Metal>
0.0000

> <Gold.Chemscore.Lipo>
71.1356

> <Gold.Chemscore.Internal_Hbond>
0.0000

> <Gold.Chemscore.DEClash>
1.3992

> <Gold.Chemscore.DEInternal>
0.2161

> <Gold.Chemscore.Rot>
1.5131

> <Gold.Chemscore.Internal.Correction>
   9.000000E+99

> <Gold.Chemscore.Hbonds>
donor molecule, donor type, donor heavy atom, donor atom, acceptor molecule, acceptor atom, score
      P1  H  6896  6907       L1    19  0.93
      P1  H 10752 10764       L1     9  1.00

> <Gold.Chemscore.Hbond.Weighted>
-6.5101

> <Gold.Chemscore.Metal.Weighted>
-0.0000

> <Gold.Chemscore.Lipo.Weighted>
-8.3229

> <Gold.Chemscore.Internal_Hbond.Weighted>
0.0000

> <Gold.Chemscore.DEClash.Weighted>
1.3992

> <Gold.Chemscore.DEInternal.Weighted>
0.2161

> <Gold.Chemscore.Rot.Weighted>
3.8734

> <Gold.Chemscore.Internal.Correction.Weighted>
   9.000000E+99

> <Gold.Protein.RotatedTorsions>
[ 6907 6896 6895 6894 ] final -130.78 input  -60.11 | X-H torsion
[ 7974 7965 7964 7962 ] final -154.31 input  175.53 | X-H torsion
[ 8008 7997 7996 7995 ] final   56.59 input   59.86 | X-H torsion
[ 10167 10162 10161 10158 ] final   60.22 input  -65.29 | X-H torsion
[ 10718 10713 10712 10709 ] final -140.76 input   66.30 | X-H torsion
[ 10763 10752 10751 10750 ] final  -77.28 input  -60.55 | X-H torsion
[ 11005 11000 10999 10996 ] final  117.16 input  -57.11 | X-H torsion

> <Gold.Protein.ActiveResidues>
 VAL166  LYS551  ARG553  GLY616  TRP617  ASP618  TYR619  PRO620  LYS621  CYS622 
 ASP623  PHE694  ASN695  SER759  ASP760  ASP761  ALA762  ILE779  LEU786  VAL792 
 PHE793  MET794  SER795  GLU796  ALA797  LYS798  CYS799  TRP800  GLU811  SER814 

> <Gold.Protein.RotatedAtoms>
  150.9436  133.6628  159.2785 H   0  0  0  0  0  0  0  0  0  0  0  0  # atno 6907 bound_to 6896
  151.4009  135.0969  159.9565 H   0  0  0  0  0  0  0  0  0  0  0  0  # atno 6908 bound_to 6896
  152.5080  133.8930  159.7458 H   0  0  0  0  0  0  0  0  0  0  0  0  # atno 6909 bound_to 6896
  144.7696  140.4405  143.5917 H   0  0  0  0  0  0  0  0  0  0  0  0  # atno 7974 bound_to 7965
  155.5199  140.3479  155.4405 H   0  0  0  0  0  0  0  0  0  0  0  0  # atno 8008 bound_to 7997
  156.0791  140.1382  156.9761 H   0  0  0  0  0  0  0  0  0  0  0  0  # atno 8009 bound_to 7997
  154.4570  140.0949  156.6761 H   0  0  0  0  0  0  0  0  0  0  0  0  # atno 8010 bound_to 7997
  140.1680  144.4305  150.6675 H   0  0  0  0  0  0  0  0  0  0  0  0  # atno 10167 bound_to 10162
  156.3261  130.7561  151.1669 H   0  0  0  0  0  0  0  0  0  0  0  0  # atno 10718 bound_to 10713
  154.5109  135.5769  153.6604 H   0  0  0  0  0  0  0  0  0  0  0  0  # atno 10763 bound_to 10752
  152.9897  135.6158  154.2880 H   0  0  0  0  0  0  0  0  0  0  0  0  # atno 10764 bound_to 10752
  154.2794  135.2851  155.2683 H   0  0  0  0  0  0  0  0  0  0  0  0  # atno 10765 bound_to 10752
  139.9065  134.9607  156.7308 H   0  0  0  0  0  0  0  0  0  0  0  0  # atno 11005 bound_to 11000
  145.6365  139.1544  143.2939 LP  0  0  0  0  0  0  0  0  0  0  0  0  # atno 17320 bound_to 7965
  146.1831  140.6465  142.9180 LP  0  0  0  0  0  0  0  0  0  0  0  0  # atno 17321 bound_to 7965
  140.6600  143.2249  151.5877 LP  0  0  0  0  0  0  0  0  0  0  0  0  # atno 17342 bound_to 10162
  139.5351  144.2805  152.1233 LP  0  0  0  0  0  0  0  0  0  0  0  0  # atno 17343 bound_to 10162
  157.7421  131.0494  150.5046 LP  0  0  0  0  0  0  0  0  0  0  0  0  # atno 17370 bound_to 10713
  156.5205  130.4160  149.6253 LP  0  0  0  0  0  0  0  0  0  0  0  0  # atno 17371 bound_to 10713
  140.6926  133.9376  155.7975 LP  0  0  0  0  0  0  0  0  0  0  0  0  # atno 17394 bound_to 11000
  141.0430  134.0594  157.3878 LP  0  0  0  0  0  0  0  0  0  0  0  0  # atno 17395 bound_to 11000

$$$$
