AV-unprocessed.smi:1701|AV-procd|sdf|6823|dock8
  -GOLD-   22720 8 03D 1   1.00000     0.00000
 Structure written by MMmdl.
 55 57  0  0  0  0  0  0  0  0  3 V2000
  145.0601  132.1666  149.8999 C   0  0  0  0  0  0  0  0  0  0  0  0
  145.8547  132.0958  151.2133 C   0  0  0  0  0  0  0  0  0  0  0  0
  146.5412  133.3476  151.5312 N   0  0  0  0  0  0  0  0  0  0  0  0
  147.8090  133.2444  152.2575 C   0  0  0  0  0  0  0  0  0  0  0  0
  147.6455  132.6784  153.6774 C   0  0  0  0  0  0  0  0  0  0  0  0
  145.6888  134.4412  151.8054 C   0  0  0  0  0  0  0  0  0  0  0  0
  144.2873  134.2917  151.9255 C   0  0  0  0  0  0  0  0  0  0  0  0
  143.4848  135.4124  152.2200 C   0  0  0  0  0  0  0  0  0  0  0  0
  144.0815  136.6780  152.4000 C   0  0  0  0  0  0  0  0  0  0  0  0
  143.2201  137.7713  152.6934 N   0  0  0  0  0  0  0  0  0  0  0  0
  142.0738  137.7908  153.4032 C   0  0  0  0  0  0  0  0  0  0  0  0
  141.5665  136.8139  153.9478 O   0  0  0  0  0  0  0  0  0  0  0  0
  141.4929  139.0017  153.4764 N   0  0  0  0  0  0  0  0  0  0  0  0
  140.2530  139.3692  154.1615 C   0  0  2  0  0  0  0  0  0  0  0  0
  139.0068  138.6151  153.6559 C   0  0  0  0  0  0  0  0  0  0  0  0
  137.8708  139.6578  153.6490 C   0  0  0  0  0  0  0  0  0  0  0  0
  138.4571  140.8761  154.2390 N   0  3  2  0  0  0  0  0  0  0  0  0
  137.8260  142.1674  153.8895 C   0  0  0  0  0  0  0  0  0  0  0  0
  138.5304  143.3020  154.6608 C   0  0  0  0  0  0  0  0  0  0  0  0
  140.0570  143.2830  154.4404 C   0  0  0  0  0  0  0  0  0  0  0  0
  140.6439  141.8880  154.7307 C   0  0  0  0  0  0  0  0  0  0  0  0
  139.8892  140.8319  153.9069 C   0  0  1  0  0  0  0  0  0  0  0  0
  145.4873  136.7776  152.2623 C   0  0  0  0  0  0  0  0  0  0  0  0
  146.2172  135.6776  151.9782 N   0  3  0  0  0  0  0  0  0  0  0  0
  144.5468  131.2238  149.7107 H   0  0  0  0  0  0  0  0  0  0  0  0
  145.7128  132.3622  149.0485 H   0  0  0  0  0  0  0  0  0  0  0  0
  144.3052  132.9527  149.9315 H   0  0  0  0  0  0  0  0  0  0  0  0
  145.1734  131.8594  152.0312 H   0  0  0  0  0  0  0  0  0  0  0  0
  146.5588  131.2656  151.1755 H   0  0  0  0  0  0  0  0  0  0  0  0
  148.5143  132.6376  151.6883 H   0  0  0  0  0  0  0  0  0  0  0  0
  148.2576  134.2359  152.3293 H   0  0  0  0  0  0  0  0  0  0  0  0
  148.6064  132.6514  154.1915 H   0  0  0  0  0  0  0  0  0  0  0  0
  147.2486  131.6636  153.6764 H   0  0  0  0  0  0  0  0  0  0  0  0
  146.9728  133.2993  154.2698 H   0  0  0  0  0  0  0  0  0  0  0  0
  143.8157  133.3305  151.7836 H   0  0  0  0  0  0  0  0  0  0  0  0
  142.4145  135.2946  152.3081 H   0  0  0  0  0  0  0  0  0  0  0  0
  143.4930  138.6524  152.2840 H   0  0  0  0  0  0  0  0  0  0  0  0
  141.9758  139.7556  153.0087 H   0  0  0  0  0  0  0  0  0  0  0  0
  140.3567  139.2186  155.2381 H   0  0  0  0  0  0  0  0  0  0  0  0
  139.1570  138.2275  152.6472 H   0  0  0  0  0  0  0  0  0  0  0  0
  138.7737  137.7671  154.3008 H   0  0  0  0  0  0  0  0  0  0  0  0
  137.5514  139.8543  152.6243 H   0  0  0  0  0  0  0  0  0  0  0  0
  137.0003  139.3309  154.2184 H   0  0  0  0  0  0  0  0  0  0  0  0
  137.8943  142.3366  152.8138 H   0  0  0  0  0  0  0  0  0  0  0  0
  136.7664  142.1390  154.1458 H   0  0  0  0  0  0  0  0  0  0  0  0
  138.1209  144.2673  154.3620 H   0  0  0  0  0  0  0  0  0  0  0  0
  138.3211  143.1968  155.7262 H   0  0  0  0  0  0  0  0  0  0  0  0
  140.2769  143.5614  153.4091 H   0  0  0  0  0  0  0  0  0  0  0  0
  140.5370  144.0318  155.0713 H   0  0  0  0  0  0  0  0  0  0  0  0
  141.7068  141.8704  154.4869 H   0  0  0  0  0  0  0  0  0  0  0  0
  140.5615  141.6658  155.7955 H   0  0  0  0  0  0  0  0  0  0  0  0
  140.0046  141.0511  152.8425 H   0  0  0  0  0  0  0  0  0  0  0  0
  146.0665  137.6826  152.3608 H   0  0  0  0  0  0  0  0  0  0  0  0
  138.3920  140.7714  155.2415 H   0  0  0  0  0  0  0  0  0  0  0  0
  147.2280  135.7847  151.8906 H   0  0  0  0  0  0  0  0  0  0  0  0
  1  2  1  0  0  0  0
  1 25  1  0  0  0  0
  1 26  1  0  0  0  0
  1 27  1  0  0  0  0
  2  3  1  0  0  0  0
  2 28  1  0  0  0  0
  2 29  1  0  0  0  0
  3  4  1  0  0  0  0
  3  6  1  0  0  0  0
  4  5  1  0  0  0  0
  4 30  1  0  0  0  0
  4 31  1  0  0  0  0
  5 32  1  0  0  0  0
  5 33  1  0  0  0  0
  5 34  1  0  0  0  0
  6 24  1  0  0  0  0
  6  7  2  0  0  0  0
  7  8  1  0  0  0  0
  7 35  1  0  0  0  0
  8  9  2  0  0  0  0
  8 36  1  0  0  0  0
  9 10  1  0  0  0  0
  9 23  1  0  0  0  0
 10 11  1  0  0  0  0
 10 37  1  0  0  0  0
 11 12  2  0  0  0  0
 11 13  1  0  0  0  0
 13 14  1  0  0  0  0
 13 38  1  0  0  0  0
 14 22  1  0  0  0  0
 14 15  1  0  0  0  0
 14 39  1  0  0  0  0
 15 16  1  0  0  0  0
 15 40  1  0  0  0  0
 15 41  1  0  0  0  0
 16 17  1  0  0  0  0
 16 42  1  0  0  0  0
 16 43  1  0  0  0  0
 17 22  1  0  0  0  0
 17 18  1  0  0  0  0
 17 54  1  0  0  0  0
 18 19  1  0  0  0  0
 18 44  1  0  0  0  0
 18 45  1  0  0  0  0
 19 20  1  0  0  0  0
 19 46  1  0  0  0  0
 19 47  1  0  0  0  0
 20 21  1  0  0  0  0
 20 48  1  0  0  0  0
 20 49  1  0  0  0  0
 21 22  1  0  0  0  0
 21 50  1  0  0  0  0
 21 51  1  0  0  0  0
 22 52  1  0  0  0  0
 23 24  2  0  0  0  0
 23 53  1  0  0  0  0
 24 55  1  0  0  0  0
M  CHG  1  17   1
M  CHG  1  24   1
M  END
> <s_m_source_file>
AV-unprocessed.smi

> <i_m_source_file_index>
1701

> <i_lp_mmshare_version>
43012

> <i_f3d_flags>
0

> <s_epik_input>
W0NIM11bQ0gyXU4oW0NIMl1bQ0gzXSljMVtjSF1bY0hdYyhbY0hdbjEpW05IXUMoPU8pW05IXVtDQEhdKFtDSDJdW0NIMl0yKVtDQEBIXShOMjMpW0NIMl1bQ0gyXVtDSDJdW0NIMl0z

> <s_epik_cmdline>
J2VwaWtfcHl0aG9uJywgJy1waCcsICc3LjAnLCAnLXRuJywgJzgnLCAnLW1hJywgJzIwMCcsICctbWV0YWxfYmluZGluZycsICctaW1hZScsICc8aW5maWxlLm1hZT4nLCAnLW9tYWUnLCAnPG91dGZpbGUubWFlPic=

> <r_lp_tautomer_probability>
0.999994

> <r_epik_Ionization_Penalty>
0.302862

> <r_epik_Ionization_Penalty_Charging>
0.302842

> <r_epik_Ionization_Penalty_Neutral>
1.95166e-05

> <r_epik_State_Penalty>
0.019791

> <r_epik_Charging_Adjusted_Penalty>
0.322633

> <i_epik_Tot_Q>
2

> <i_epik_Tot_abs_Q>
2

> <r_epik_Metal_State_Penalty>
0.0536763

> <b_epik_Metal_Only>
0

> <s_lp_Force_Field>
OPLS_2005

> <r_lp_Energy>
62.5639

> <b_lp_Chiralities_Consistent>
1

> <s_lp_Variant>
AV-unprocessed.smi:1701-3

> <Gold.Version>
5.8.1

> <Gold.Id.Protein>
6NUR|6NUR_protein|mol2

> <Gold.PLP.Fitness>
52.1720

> <Gold.PLP.PLP>
-41.2736

> <Gold.PLP.part.hbond>
-4.8156

> <Gold.PLP.part.metal>
0.0000

> <Gold.PLP.part.buried>
-3.1074

> <Gold.PLP.part.nonpolar>
-32.5454

> <Gold.PLP.part.repulsive>
0.2005

> <Gold.PLP.ligand.clash>
0.0000

> <Gold.PLP.ligand.torsion>
0.9301

> <Gold.PLP.Chemscore.Hbond>
3.9600

> <Gold.PLP.Chemscore.CHOScore>
0.0000

> <Gold.PLP.Chemscore.Metal>
0.0000

> <Gold.Chemscore.Hbonds>
donor molecule, donor type, donor heavy atom, donor atom, acceptor molecule, acceptor atom, score
      L1  H    10    37       P1 10175  0.98
      L1  H    13    38       P1 10175  0.96
      L1  H    24    55       P1  7948  2.00

> <Gold.PLP.Chemscore.Internal.Correction>
0.8786

> <Gold.Rescore>
     Score         DG    S(hbond)    S(metal)    S(lipo)     H(rot)  DE(clash)    DE(int)     intcor
     19.94     -21.94       2.81        0.00      89.00       1.30       0.03       1.97       ----

> <Gold.Chemscore.Fitness>
19.9446

> <Gold.Chemscore.DG>
-21.9417

> <Gold.Chemscore.ZeroCoef>
-5.4800

> <Gold.Chemscore.Hbond>
2.8088

> <Gold.Chemscore.Metal>
0.0000

> <Gold.Chemscore.Lipo>
89.0022

> <Gold.Chemscore.Internal_Hbond>
0.0000

> <Gold.Chemscore.DEClash>
0.0318

> <Gold.Chemscore.DEInternal>
1.9653

> <Gold.Chemscore.Rot>
1.3020

> <Gold.Chemscore.Internal.Correction>
   9.000000E+99

> <Gold.Chemscore.Hbonds>
donor molecule, donor type, donor heavy atom, donor atom, acceptor molecule, acceptor atom, score
      L1  H    10    37       P1 10175  0.92
      L1  H    13    38       P1 10175  0.51
      L1  H    24    55       P1  7948  1.00

> <Gold.Chemscore.Hbond.Weighted>
-9.3815

> <Gold.Chemscore.Metal.Weighted>
-0.0000

> <Gold.Chemscore.Lipo.Weighted>
-10.4133

> <Gold.Chemscore.Internal_Hbond.Weighted>
0.0000

> <Gold.Chemscore.DEClash.Weighted>
0.0318

> <Gold.Chemscore.DEInternal.Weighted>
1.9653

> <Gold.Chemscore.Rot.Weighted>
3.3330

> <Gold.Chemscore.Internal.Correction.Weighted>
   9.000000E+99

> <Gold.Protein.RotatedTorsions>
[ 6907 6896 6895 6894 ] final -161.58 input  -60.11 | X-H torsion
[ 7974 7965 7964 7962 ] final  -64.16 input  175.53 | X-H torsion
[ 8008 7997 7996 7995 ] final  -34.35 input   59.86 | X-H torsion
[ 10167 10162 10161 10158 ] final   65.46 input  -65.29 | X-H torsion
[ 10718 10713 10712 10709 ] final  106.22 input   66.30 | X-H torsion
[ 10763 10752 10751 10750 ] final -153.51 input  -60.55 | X-H torsion
[ 11005 11000 10999 10996 ] final  -18.43 input  -57.11 | X-H torsion

> <Gold.Protein.ActiveResidues>
 VAL166  LYS551  ARG553  GLY616  TRP617  ASP618  TYR619  PRO620  LYS621  CYS622 
 ASP623  PHE694  ASN695  SER759  ASP760  ASP761  ALA762  ILE779  LEU786  VAL792 
 PHE793  MET794  SER795  GLU796  ALA797  LYS798  CYS799  TRP800  GLU811  SER814 

> <Gold.Protein.RotatedAtoms>
  151.3668  133.3869  159.2695 H   0  0  0  0  0  0  0  0  0  0  0  0  # atno 6907 bound_to 6896
  150.9682  134.9060  159.7782 H   0  0  0  0  0  0  0  0  0  0  0  0  # atno 6908 bound_to 6896
  152.5175  134.3630  159.9343 H   0  0  0  0  0  0  0  0  0  0  0  0  # atno 6909 bound_to 6896
  145.7701  140.8817  143.0384 H   0  0  0  0  0  0  0  0  0  0  0  0  # atno 7974 bound_to 7965
  154.4123  140.1686  156.2036 H   0  0  0  0  0  0  0  0  0  0  0  0  # atno 8008 bound_to 7997
  155.9503  140.3401  155.6379 H   0  0  0  0  0  0  0  0  0  0  0  0  # atno 8009 bound_to 7997
  155.6878  140.0730  157.2451 H   0  0  0  0  0  0  0  0  0  0  0  0  # atno 8010 bound_to 7997
  140.1110  144.4818  150.6978 H   0  0  0  0  0  0  0  0  0  0  0  0  # atno 10167 bound_to 10162
  157.6676  131.0846  150.5974 H   0  0  0  0  0  0  0  0  0  0  0  0  # atno 10718 bound_to 10713
  154.7923  135.3211  154.7749 H   0  0  0  0  0  0  0  0  0  0  0  0  # atno 10763 bound_to 10752
  153.8435  135.6869  153.4804 H   0  0  0  0  0  0  0  0  0  0  0  0  # atno 10764 bound_to 10752
  153.1598  135.4665  154.9697 H   0  0  0  0  0  0  0  0  0  0  0  0  # atno 10765 bound_to 10752
  140.8267  133.8028  155.9715 H   0  0  0  0  0  0  0  0  0  0  0  0  # atno 11005 bound_to 11000
  144.6814  139.9843  143.7484 LP  0  0  0  0  0  0  0  0  0  0  0  0  # atno 17320 bound_to 7965
  146.0178  139.3225  143.0831 LP  0  0  0  0  0  0  0  0  0  0  0  0  # atno 17321 bound_to 7965
  140.6926  143.2384  151.5090 LP  0  0  0  0  0  0  0  0  0  0  0  0  # atno 17342 bound_to 10162
  139.5619  144.2135  152.1705 LP  0  0  0  0  0  0  0  0  0  0  0  0  # atno 17343 bound_to 10162
  156.6274  130.4422  149.5799 LP  0  0  0  0  0  0  0  0  0  0  0  0  # atno 17370 bound_to 10713
  156.2308  130.6793  151.1461 LP  0  0  0  0  0  0  0  0  0  0  0  0  # atno 17371 bound_to 10713
  140.9042  134.2341  157.5024 LP  0  0  0  0  0  0  0  0  0  0  0  0  # atno 17394 bound_to 11000
  139.8706  134.9720  156.4759 LP  0  0  0  0  0  0  0  0  0  0  0  0  # atno 17395 bound_to 11000

$$$$
