AV-unprocessed.smi:1|AV-procd|sdf|16|dock8
  -GOLD-   2262015113D 1   1.00000     0.00000
 Structure written by MMmdl.
 57 62  0  0  0  0  0  0  0  0  1 V2000
  151.7743  144.1328  156.5058 O   0  0  0  0  0  0  0  0  0  0  0  0
  151.7911  143.2599  157.3780 C   0  0  0  0  0  0  0  0  0  0  0  0
  151.7317  141.8802  157.2297 N   0  0  0  0  0  0  0  0  0  0  0  0
  150.8214  141.3443  156.4742 C   0  0  0  0  0  0  0  0  0  0  0  0
  149.7965  141.8927  155.6920 N   0  0  0  0  0  0  0  0  0  0  0  0
  148.8888  141.1714  154.9006 C   0  0  0  0  0  0  0  0  0  0  0  0
  148.8683  139.8703  154.7844 N   0  0  0  0  0  0  0  0  0  0  0  0
  149.8603  139.2765  155.5520 C   0  0  0  0  0  0  0  0  0  0  0  0
  150.8036  139.8700  156.3622 C   0  0  0  0  0  0  0  0  0  0  0  0
  151.6113  138.9111  156.9637 N   0  0  0  0  0  0  0  0  0  0  0  0
  151.1143  137.7721  156.4883 C   0  0  0  0  0  0  0  0  0  0  0  0
  150.0692  137.9042  155.6471 N   0  0  0  0  0  0  0  0  0  0  0  0
  149.2944  136.8260  154.9485 C   0  0  1  0  0  0  0  0  0  0  0  0
  150.1485  135.7474  154.7043 O   0  0  0  0  0  0  0  0  0  0  0  0
  149.9162  134.7300  155.6686 C   0  0  2  0  0  0  0  0  0  0  0  0
  150.4564  133.3755  155.1906 C   0  0  0  0  0  0  0  0  0  0  0  0
  149.5404  132.7664  154.2942 O   0  0  0  0  0  0  0  0  0  0  0  0
  149.5800  131.4367  154.0864 C   0  0  0  0  0  0  0  0  0  0  0  0
  150.4787  130.7063  154.5087 O   0  0  0  0  0  0  0  0  0  0  0  0
  148.4181  130.9398  153.2944 C   0  0  0  0  0  0  0  0  0  0  0  0
  148.3069  129.5567  153.0202 C   0  0  0  0  0  0  0  0  0  0  0  0
  147.2190  129.0575  152.2780 C   0  0  0  0  0  0  0  0  0  0  0  0
  146.2293  129.9358  151.7997 C   0  0  0  0  0  0  0  0  0  0  0  0
  146.3290  131.3141  152.0645 C   0  0  0  0  0  0  0  0  0  0  0  0
  147.4158  131.8151  152.8073 C   0  0  0  0  0  0  0  0  0  0  0  0
  148.4065  134.7949  155.9075 C   0  0  1  0  0  0  0  0  0  0  0  0
  148.0497  134.3267  157.1961 O   0  0  0  0  0  0  0  0  0  0  0  0
  147.9777  135.6256  158.2439 S   0  0  0  0  0  0  0  0  0  0  0  0
  146.6163  135.6975  158.7958 O   0  0  0  0  0  0  0  0  0  0  0  0
  149.1775  135.6001  159.0942 O   0  0  0  0  0  0  0  0  0  0  0  0
  148.1575  136.8553  157.1302 O   0  0  0  0  0  0  0  0  0  0  0  0
  148.1311  136.3036  155.8217 C   0  0  1  0  0  0  0  0  0  0  0  0
  151.9434  143.6942  158.7997 C   0  0  0  0  0  0  0  0  0  0  0  0
  152.3205  142.7595  159.7875 C   0  0  0  0  0  0  0  0  0  0  0  0
  152.4575  143.1662  161.1293 C   0  0  0  0  0  0  0  0  0  0  0  0
  152.2162  144.5067  161.4877 C   0  0  0  0  0  0  0  0  0  0  0  0
  151.8359  145.4409  160.5046 C   0  0  0  0  0  0  0  0  0  0  0  0
  151.6991  145.0360  159.1622 C   0  0  0  0  0  0  0  0  0  0  0  0
  148.1726  141.7972  154.3659 H   0  0  0  0  0  0  0  0  0  0  0  0
  151.5280  136.8137  156.7647 H   0  0  0  0  0  0  0  0  0  0  0  0
  148.9747  137.2815  154.0107 H   0  0  0  0  0  0  0  0  0  0  0  0
  150.4411  135.0151  156.5813 H   0  0  0  0  0  0  0  0  0  0  0  0
  151.4207  133.5089  154.6988 H   0  0  0  0  0  0  0  0  0  0  0  0
  150.6151  132.7222  156.0498 H   0  0  0  0  0  0  0  0  0  0  0  0
  149.0545  128.8629  153.3772 H   0  0  0  0  0  0  0  0  0  0  0  0
  147.1441  127.9991  152.0760 H   0  0  0  0  0  0  0  0  0  0  0  0
  145.3950  129.5531  151.2306 H   0  0  0  0  0  0  0  0  0  0  0  0
  145.5701  131.9895  151.6977 H   0  0  0  0  0  0  0  0  0  0  0  0
  147.4615  132.8784  152.9922 H   0  0  0  0  0  0  0  0  0  0  0  0
  147.8504  134.2676  155.1320 H   0  0  0  0  0  0  0  0  0  0  0  0
  147.1734  136.5213  155.3482 H   0  0  0  0  0  0  0  0  0  0  0  0
  152.5050  141.7289  159.5207 H   0  0  0  0  0  0  0  0  0  0  0  0
  152.7463  142.4493  161.8839 H   0  0  0  0  0  0  0  0  0  0  0  0
  152.3207  144.8174  162.5168 H   0  0  0  0  0  0  0  0  0  0  0  0
  151.6483  146.4683  160.7798 H   0  0  0  0  0  0  0  0  0  0  0  0
  151.4051  145.7582  158.4142 H   0  0  0  0  0  0  0  0  0  0  0  0
  149.7077  142.8987  155.6940 H   0  0  0  0  0  0  0  0  0  0  0  0
  1  2  2  0  0  0  0
  2  3  1  0  0  0  0
  2 33  1  0  0  0  0
  3  4  2  0  0  0  0
  4  9  1  0  0  0  0
  4  5  1  0  0  0  0
  5  6  1  0  0  0  0
  5 57  1  0  0  0  0
  6  7  2  0  0  0  0
  6 39  1  0  0  0  0
  7  8  1  0  0  0  0
  8 12  1  0  0  0  0
  8  9  2  0  0  0  0
  9 10  1  0  0  0  0
 10 11  2  0  0  0  0
 11 12  1  0  0  0  0
 11 40  1  0  0  0  0
 12 13  1  0  0  0  0
 13 32  1  0  0  0  0
 13 14  1  0  0  0  0
 13 41  1  0  0  0  0
 14 15  1  0  0  0  0
 15 16  1  0  0  0  0
 15 26  1  0  0  0  0
 15 42  1  0  0  0  0
 16 17  1  0  0  0  0
 16 43  1  0  0  0  0
 16 44  1  0  0  0  0
 17 18  1  0  0  0  0
 18 19  2  0  0  0  0
 18 20  1  0  0  0  0
 20 25  1  0  0  0  0
 20 21  2  0  0  0  0
 21 22  1  0  0  0  0
 21 45  1  0  0  0  0
 22 23  2  0  0  0  0
 22 46  1  0  0  0  0
 23 24  1  0  0  0  0
 23 47  1  0  0  0  0
 24 25  2  0  0  0  0
 24 48  1  0  0  0  0
 25 49  1  0  0  0  0
 26 32  1  0  0  0  0
 26 27  1  0  0  0  0
 26 50  1  0  0  0  0
 27 28  1  0  0  0  0
 28 29  2  0  0  0  0
 28 30  2  0  0  0  0
 28 31  1  0  0  0  0
 31 32  1  0  0  0  0
 32 51  1  0  0  0  0
 33 38  1  0  0  0  0
 33 34  2  0  0  0  0
 34 35  1  0  0  0  0
 34 52  1  0  0  0  0
 35 36  2  0  0  0  0
 35 53  1  0  0  0  0
 36 37  1  0  0  0  0
 36 54  1  0  0  0  0
 37 38  2  0  0  0  0
 37 55  1  0  0  0  0
 38 56  1  0  0  0  0
M  END
> <s_m_source_file>
AV-unprocessed.smi

> <i_m_source_file_index>
1

> <i_lp_mmshare_version>
43012

> <i_f3d_flags>
0

> <s_epik_input>
W2NIXTFbY0hdW2NIXVtjSF1bY0hdYzFDKD1PKVtOSF1jKG5bY0hdbjIpYyhjMjMpbltjSF1uM1tDQEBIXShbQ0BIXShbQ0BIXTQ1KU9TKE81KSg9Tyk9TylPW0NASF00W0NIMl1PQyg9TyljNltjSF1bY0hdW2NIXVtjSF1bY0hdNg==

> <s_epik_cmdline>
J2VwaWtfcHl0aG9uJywgJy1waCcsICc3LjAnLCAnLXRuJywgJzgnLCAnLW1hJywgJzIwMCcsICctbWV0YWxfYmluZGluZycsICctaW1hZScsICc8aW5maWxlLm1hZT4nLCAnLW9tYWUnLCAnPG91dGZpbGUubWFlPic=

> <r_epik_Ionization_Penalty>
0.122545

> <r_epik_Ionization_Penalty_Charging>
0.122545

> <r_epik_Ionization_Penalty_Neutral>
7.8935e-16

> <r_epik_State_Penalty>
2.69178

> <r_epik_Charging_Adjusted_Penalty>
2.81433

> <i_epik_Tot_Q>
0

> <i_epik_Tot_abs_Q>
0

> <r_epik_Metal_State_Penalty>
3.02665

> <b_epik_Metal_Only>
0

> <s_epik_Chemistry_Notes>
This compound has an ester and may undergo hydrolysis at high or low pH. This compound contains an acetal/aminal-like group ( X-CH(R)-Y where X, Y are N, S, or O) that may be acid/base labile, releasing an aldehyde.

> <s_lp_Force_Field>
OPLS_2005

> <r_lp_Energy>
59.1261

> <b_lp_Chiralities_Consistent>
1

> <s_lp_Variant>
AV-unprocessed.smi:1-16

> <Gold.Version>
5.8.1

> <Gold.Id.Protein>
6NUR|6NUR_protein|mol2

> <Gold.PLP.Fitness>
53.1777

> <Gold.PLP.PLP>
-50.1173

> <Gold.PLP.part.hbond>
-2.0000

> <Gold.PLP.part.metal>
0.0000

> <Gold.PLP.part.buried>
-2.2357

> <Gold.PLP.part.nonpolar>
-46.3157

> <Gold.PLP.part.repulsive>
1.1492

> <Gold.PLP.ligand.clash>
0.0000

> <Gold.PLP.ligand.torsion>
1.6696

> <Gold.PLP.Chemscore.Hbond>
2.0000

> <Gold.PLP.Chemscore.CHOScore>
0.0000

> <Gold.PLP.Chemscore.Metal>
0.0000

> <Gold.Chemscore.Hbonds>
donor molecule, donor type, donor heavy atom, donor atom, acceptor molecule, acceptor atom, score
      L1  H     5    57       P1  8028  1.00
      P1  H  6896  6909       L1    30  1.00

> <Gold.PLP.Chemscore.Internal.Correction>
0.3996

> <Gold.Rescore>
     Score         DG    S(hbond)    S(metal)    S(lipo)     H(rot)  DE(clash)    DE(int)     intcor
     17.80     -21.60       1.98        0.00     127.82       2.13       2.13       1.68       ----

> <Gold.Chemscore.Fitness>
17.7988

> <Gold.Chemscore.DG>
-21.6034

> <Gold.Chemscore.ZeroCoef>
-5.4800

> <Gold.Chemscore.Hbond>
1.9848

> <Gold.Chemscore.Metal>
0.0000

> <Gold.Chemscore.Lipo>
127.8237

> <Gold.Chemscore.Internal_Hbond>
0.0000

> <Gold.Chemscore.DEClash>
2.1258

> <Gold.Chemscore.DEInternal>
1.6788

> <Gold.Chemscore.Rot>
2.1333

> <Gold.Chemscore.Internal.Correction>
   9.000000E+99

> <Gold.Chemscore.Hbonds>
donor molecule, donor type, donor heavy atom, donor atom, acceptor molecule, acceptor atom, score
      L1  H     5    57       P1  8028  0.96
      P1  H  6896  6909       L1    30  1.00

> <Gold.Chemscore.Hbond.Weighted>
-6.6294

> <Gold.Chemscore.Metal.Weighted>
-0.0000

> <Gold.Chemscore.Lipo.Weighted>
-14.9554

> <Gold.Chemscore.Internal_Hbond.Weighted>
0.0000

> <Gold.Chemscore.DEClash.Weighted>
2.1258

> <Gold.Chemscore.DEInternal.Weighted>
1.6788

> <Gold.Chemscore.Rot.Weighted>
5.4614

> <Gold.Chemscore.Internal.Correction.Weighted>
   9.000000E+99

> <Gold.Protein.RotatedTorsions>
[ 6907 6896 6895 6894 ] final   64.12 input  -60.11 | X-H torsion
[ 7974 7965 7964 7962 ] final -104.12 input  175.53 | X-H torsion
[ 8008 7997 7996 7995 ] final  160.11 input   59.86 | X-H torsion
[ 10167 10162 10161 10158 ] final  -74.28 input  -65.29 | X-H torsion
[ 10718 10713 10712 10709 ] final -154.18 input   66.30 | X-H torsion
[ 10763 10752 10751 10750 ] final  148.86 input  -60.55 | X-H torsion
[ 11005 11000 10999 10996 ] final   24.15 input  -57.11 | X-H torsion

> <Gold.Protein.ActiveResidues>
 VAL166  LYS551  ARG553  GLY616  TRP617  ASP618  TYR619  PRO620  LYS621  CYS622 
 ASP623  PHE694  ASN695  SER759  ASP760  ASP761  ALA762  ILE779  LEU786  VAL792 
 PHE793  MET794  SER795  GLU796  ALA797  LYS798  CYS799  TRP800  GLU811  SER814 

> <Gold.Protein.RotatedAtoms>
  152.4307  134.5783  159.9940 H   0  0  0  0  0  0  0  0  0  0  0  0  # atno 6907 bound_to 6896
  151.5907  133.3361  159.3035 H   0  0  0  0  0  0  0  0  0  0  0  0  # atno 6908 bound_to 6896
  150.8199  134.7438  159.6828 H   0  0  0  0  0  0  0  0  0  0  0  0  # atno 6909 bound_to 6896
  145.2472  140.9226  143.3116 H   0  0  0  0  0  0  0  0  0  0  0  0  # atno 7974 bound_to 7965
  156.2194  140.1813  156.7512 H   0  0  0  0  0  0  0  0  0  0  0  0  # atno 8008 bound_to 7997
  154.5842  140.0661  156.9176 H   0  0  0  0  0  0  0  0  0  0  0  0  # atno 8009 bound_to 7997
  155.2449  140.3324  155.4290 H   0  0  0  0  0  0  0  0  0  0  0  0  # atno 8010 bound_to 7997
  140.5040  143.2356  151.7705 H   0  0  0  0  0  0  0  0  0  0  0  0  # atno 10167 bound_to 10162
  156.4958  130.8368  151.2589 H   0  0  0  0  0  0  0  0  0  0  0  0  # atno 10718 bound_to 10713
  154.0617  135.2873  155.3324 H   0  0  0  0  0  0  0  0  0  0  0  0  # atno 10763 bound_to 10752
  154.6804  135.5265  153.8259 H   0  0  0  0  0  0  0  0  0  0  0  0  # atno 10764 bound_to 10752
  153.0520  135.6580  154.0805 H   0  0  0  0  0  0  0  0  0  0  0  0  # atno 10765 bound_to 10752
  140.3618  134.2117  155.7672 H   0  0  0  0  0  0  0  0  0  0  0  0  # atno 11005 bound_to 11000
  144.9535  139.4056  143.6391 LP  0  0  0  0  0  0  0  0  0  0  0  0  # atno 17320 bound_to 7965
  146.3312  139.8554  142.8865 LP  0  0  0  0  0  0  0  0  0  0  0  0  # atno 17321 bound_to 7965
  139.4879  144.4483  151.9684 LP  0  0  0  0  0  0  0  0  0  0  0  0  # atno 17342 bound_to 10162
  140.3573  144.3016  150.5939 LP  0  0  0  0  0  0  0  0  0  0  0  0  # atno 17343 bound_to 10162
  157.7468  130.9998  150.2903 LP  0  0  0  0  0  0  0  0  0  0  0  0  # atno 17370 bound_to 10713
  156.3381  130.3811  149.7432 LP  0  0  0  0  0  0  0  0  0  0  0  0  # atno 17371 bound_to 10713
  141.1982  133.8042  157.0595 LP  0  0  0  0  0  0  0  0  0  0  0  0  # atno 17394 bound_to 11000
  140.0621  134.9749  157.1322 LP  0  0  0  0  0  0  0  0  0  0  0  0  # atno 17395 bound_to 11000

$$$$
