AV-unprocessed.smi:1574|AV-procd|sdf|6338|dock5
  -GOLD-   22720 6553D 1   1.00000     0.00000
 Structure written by MMmdl.
 40 41  0  0  0  0  0  0  0  0  1 V2000
  152.7415  140.9714  159.7587 C   0  0  0  0  0  0  0  0  0  0  0  0
  152.0325  142.3338  159.6950 C   0  0  1  0  0  0  0  0  0  0  0  0
  152.8680  143.4175  160.4070 C   0  0  0  0  0  0  0  0  0  0  0  0
  152.1867  144.7937  160.3500 C   0  0  0  0  0  0  0  0  0  0  0  0
  151.8935  145.2046  158.9005 C   0  0  0  0  0  0  0  0  0  0  0  0
  151.0526  144.1364  158.1893 C   0  0  0  0  0  0  0  0  0  0  0  0
  151.7268  142.7499  158.2388 C   0  0  2  0  0  0  0  0  0  0  0  0
  150.8301  141.7986  157.6818 O   0  0  0  0  0  0  0  0  0  0  0  0
  150.7337  141.8492  156.2658 C   0  0  0  0  0  0  0  0  0  0  0  0
  149.3185  141.4205  155.8545 C   0  0  0  0  0  0  0  0  0  0  0  0
  148.3093  142.2506  156.5036 N   0  0  0  0  0  0  0  0  0  0  0  0
  147.4091  141.8106  157.3968 C   0  0  0  0  0  0  0  0  0  0  0  0
  147.3807  140.6545  157.8175 O   0  0  0  0  0  0  0  0  0  0  0  0
  146.3712  142.8233  157.8802 C   0  0  0  0  0  0  0  0  0  0  0  0
  146.5942  143.1756  159.2703 N   0  0  0  0  0  0  0  0  0  0  0  0
  146.8105  144.3573  159.8512 C   0  0  0  0  0  0  0  0  0  0  0  0
  146.9692  144.2374  161.1607 N   0  0  0  0  0  0  0  0  0  0  0  0
  146.8310  142.8756  161.3708 N   0  0  0  0  0  0  0  0  0  0  0  0
  146.6103  142.2402  160.2528 N   0  0  0  0  0  0  0  0  0  0  0  0
  153.6942  140.9950  159.2288 H   0  0  0  0  0  0  0  0  0  0  0  0
  152.1320  140.1861  159.3110 H   0  0  0  0  0  0  0  0  0  0  0  0
  152.9418  140.6811  160.7904 H   0  0  0  0  0  0  0  0  0  0  0  0
  151.0848  142.2403  160.2276 H   0  0  0  0  0  0  0  0  0  0  0  0
  153.0328  143.1375  161.4480 H   0  0  0  0  0  0  0  0  0  0  0  0
  153.8549  143.4836  159.9467 H   0  0  0  0  0  0  0  0  0  0  0  0
  151.2557  144.7654  160.9177 H   0  0  0  0  0  0  0  0  0  0  0  0
  152.8189  145.5425  160.8282 H   0  0  0  0  0  0  0  0  0  0  0  0
  151.3694  146.1606  158.8832 H   0  0  0  0  0  0  0  0  0  0  0  0
  152.8303  145.3527  158.3619 H   0  0  0  0  0  0  0  0  0  0  0  0
  150.0758  144.0737  158.6680 H   0  0  0  0  0  0  0  0  0  0  0  0
  150.8689  144.4433  157.1598 H   0  0  0  0  0  0  0  0  0  0  0  0
  152.6630  142.7690  157.6765 H   0  0  0  0  0  0  0  0  0  0  0  0
  150.9463  142.8476  155.8816 H   0  0  0  0  0  0  0  0  0  0  0  0
  151.4770  141.1780  155.8339 H   0  0  0  0  0  0  0  0  0  0  0  0
  149.2063  141.4769  154.7706 H   0  0  0  0  0  0  0  0  0  0  0  0
  149.1470  140.3802  156.1323 H   0  0  0  0  0  0  0  0  0  0  0  0
  148.2616  143.2166  156.2140 H   0  0  0  0  0  0  0  0  0  0  0  0
  146.4167  143.7276  157.2713 H   0  0  0  0  0  0  0  0  0  0  0  0
  145.3660  142.4128  157.7740 H   0  0  0  0  0  0  0  0  0  0  0  0
  146.8507  145.2967  159.3203 H   0  0  0  0  0  0  0  0  0  0  0  0
  1  2  1  0  0  0  0
  1 20  1  0  0  0  0
  1 21  1  0  0  0  0
  1 22  1  0  0  0  0
  2  7  1  0  0  0  0
  2  3  1  0  0  0  0
  2 23  1  0  0  0  0
  3  4  1  0  0  0  0
  3 24  1  0  0  0  0
  3 25  1  0  0  0  0
  4  5  1  0  0  0  0
  4 26  1  0  0  0  0
  4 27  1  0  0  0  0
  5  6  1  0  0  0  0
  5 28  1  0  0  0  0
  5 29  1  0  0  0  0
  6  7  1  0  0  0  0
  6 30  1  0  0  0  0
  6 31  1  0  0  0  0
  7  8  1  0  0  0  0
  7 32  1  0  0  0  0
  8  9  1  0  0  0  0
  9 10  1  0  0  0  0
  9 33  1  0  0  0  0
  9 34  1  0  0  0  0
 10 11  1  0  0  0  0
 10 35  1  0  0  0  0
 10 36  1  0  0  0  0
 11 12  1  0  0  0  0
 11 37  1  0  0  0  0
 12 13  2  0  0  0  0
 12 14  1  0  0  0  0
 14 15  1  0  0  0  0
 14 38  1  0  0  0  0
 14 39  1  0  0  0  0
 15 19  1  0  0  0  0
 15 16  1  0  0  0  0
 16 17  2  0  0  0  0
 16 40  1  0  0  0  0
 17 18  1  0  0  0  0
 18 19  2  0  0  0  0
M  END
> <s_m_source_file>
AV-unprocessed.smi

> <i_m_source_file_index>
1574

> <i_lp_mmshare_version>
43012

> <i_f3d_flags>
0

> <s_epik_input>
W0NIM11bQ0BASF0xW0NIMl1bQ0gyXVtDSDJdW0NIMl1bQ0BIXTFPW0NIMl1bQ0gyXVtOSF1DKD1PKVtDSDJdbjJbY0hdbm5uMg==

> <s_epik_cmdline>
J2VwaWtfcHl0aG9uJywgJy1waCcsICc3LjAnLCAnLXRuJywgJzgnLCAnLW1hJywgJzIwMCcsICctbWV0YWxfYmluZGluZycsICctaW1hZScsICc8aW5maWxlLm1hZT4nLCAnLW9tYWUnLCAnPG91dGZpbGUubWFlPic=

> <r_lp_tautomer_probability>
1

> <r_epik_Ionization_Penalty>
1.44269e-06

> <r_epik_Ionization_Penalty_Charging>
0

> <r_epik_Ionization_Penalty_Neutral>
1.44269e-06

> <r_epik_State_Penalty>
-0

> <r_epik_Charging_Adjusted_Penalty>
0

> <i_epik_Tot_Q>
0

> <i_epik_Tot_abs_Q>
0

> <r_epik_Metal_State_Penalty>
-0

> <b_epik_Metal_Only>
0

> <s_lp_Force_Field>
OPLS_2005

> <r_lp_Energy>
11.2802

> <b_lp_Chiralities_Consistent>
1

> <s_lp_Variant>
AV-unprocessed.smi:1574-4

> <Gold.Version>
5.8.1

> <Gold.Id.Protein>
6NUR|6NUR_protein|mol2

> <Gold.PLP.Fitness>
46.1943

> <Gold.PLP.PLP>
-36.2746

> <Gold.PLP.part.hbond>
-5.1322

> <Gold.PLP.part.metal>
0.0000

> <Gold.PLP.part.buried>
-5.0526

> <Gold.PLP.part.nonpolar>
-27.2090

> <Gold.PLP.part.repulsive>
0.2125

> <Gold.PLP.ligand.clash>
0.0000

> <Gold.PLP.ligand.torsion>
0.4210

> <Gold.PLP.Chemscore.Hbond>
2.5568

> <Gold.PLP.Chemscore.CHOScore>
1.0000

> <Gold.PLP.Chemscore.Metal>
0.0000

> <Gold.Chemscore.Hbonds>
donor molecule, donor type, donor heavy atom, donor atom, acceptor molecule, acceptor atom, score
      L1  H    11    37       P1  8028  1.00
      P1  H  6933  6944       L1    18  0.55
      P1  H  6934  6946       L1    19  0.79
      L1  C    16    40       P1  8029  1.00

> <Gold.PLP.Chemscore.Internal.Correction>
0.0913

> <Gold.Rescore>
     Score         DG    S(hbond)    S(metal)    S(lipo)     H(rot)  DE(clash)    DE(int)     intcor
     12.70     -14.80       1.78        0.00      92.27       2.90       1.43       0.66       ----

> <Gold.Chemscore.Fitness>
12.7018

> <Gold.Chemscore.DG>
-14.7964

> <Gold.Chemscore.ZeroCoef>
-5.4800

> <Gold.Chemscore.Hbond>
1.7837

> <Gold.Chemscore.Metal>
0.0000

> <Gold.Chemscore.Lipo>
92.2692

> <Gold.Chemscore.Internal_Hbond>
0.0000

> <Gold.Chemscore.DEClash>
1.4308

> <Gold.Chemscore.DEInternal>
0.6639

> <Gold.Chemscore.Rot>
2.9050

> <Gold.Chemscore.Internal.Correction>
   9.000000E+99

> <Gold.Chemscore.Hbonds>
donor molecule, donor type, donor heavy atom, donor atom, acceptor molecule, acceptor atom, score
      L1  H    11    37       P1  8028  0.65
      P1  H  6933  6944       L1    18  0.02
      P1  H  6934  6946       L1    19  0.15

> <Gold.Chemscore.Hbond.Weighted>
-5.9576

> <Gold.Chemscore.Metal.Weighted>
-0.0000

> <Gold.Chemscore.Lipo.Weighted>
-10.7955

> <Gold.Chemscore.Internal_Hbond.Weighted>
0.0000

> <Gold.Chemscore.DEClash.Weighted>
1.4308

> <Gold.Chemscore.DEInternal.Weighted>
0.6639

> <Gold.Chemscore.Rot.Weighted>
7.4367

> <Gold.Chemscore.Internal.Correction.Weighted>
   9.000000E+99

> <Gold.Protein.RotatedTorsions>
[ 6907 6896 6895 6894 ] final  133.51 input  -60.11 | X-H torsion
[ 7974 7965 7964 7962 ] final   77.74 input  175.53 | X-H torsion
[ 8008 7997 7996 7995 ] final   46.32 input   59.86 | X-H torsion
[ 10167 10162 10161 10158 ] final  115.75 input  -65.29 | X-H torsion
[ 10718 10713 10712 10709 ] final  -34.92 input   66.30 | X-H torsion
[ 10763 10752 10751 10750 ] final -159.29 input  -60.55 | X-H torsion
[ 11005 11000 10999 10996 ] final  -10.83 input  -57.11 | X-H torsion

> <Gold.Protein.ActiveResidues>
 VAL166  LYS551  ARG553  GLY616  TRP617  ASP618  TYR619  PRO620  LYS621  CYS622 
 ASP623  PHE694  ASN695  SER759  ASP760  ASP761  ALA762  ILE779  LEU786  VAL792 
 PHE793  MET794  SER795  GLU796  ALA797  LYS798  CYS799  TRP800  GLU811  SER814 

> <Gold.Protein.RotatedAtoms>
  152.3212  133.5856  159.5745 H   0  0  0  0  0  0  0  0  0  0  0  0  # atno 6907 bound_to 6896
  150.7372  134.0008  159.3646 H   0  0  0  0  0  0  0  0  0  0  0  0  # atno 6908 bound_to 6896
  151.7892  135.0741  160.0436 H   0  0  0  0  0  0  0  0  0  0  0  0  # atno 6909 bound_to 6896
  145.6861  139.2538  143.1786 H   0  0  0  0  0  0  0  0  0  0  0  0  # atno 7974 bound_to 7965
  155.3505  140.3413  155.4239 H   0  0  0  0  0  0  0  0  0  0  0  0  # atno 8008 bound_to 7997
  156.1766  140.1650  156.8386 H   0  0  0  0  0  0  0  0  0  0  0  0  # atno 8009 bound_to 7997
  154.5289  140.0750  156.8291 H   0  0  0  0  0  0  0  0  0  0  0  0  # atno 8010 bound_to 7997
  139.6295  144.7113  151.2463 H   0  0  0  0  0  0  0  0  0  0  0  0  # atno 10167 bound_to 10162
  156.3448  130.4299  149.7755 H   0  0  0  0  0  0  0  0  0  0  0  0  # atno 10718 bound_to 10713
  154.7487  135.3086  154.8598 H   0  0  0  0  0  0  0  0  0  0  0  0  # atno 10763 bound_to 10752
  153.9392  135.6776  153.4748 H   0  0  0  0  0  0  0  0  0  0  0  0  # atno 10764 bound_to 10752
  153.1083  135.4879  154.8917 H   0  0  0  0  0  0  0  0  0  0  0  0  # atno 10765 bound_to 10752
  140.7489  133.8609  155.9028 H   0  0  0  0  0  0  0  0  0  0  0  0  # atno 11005 bound_to 11000
  146.0922  140.7642  142.9589 LP  0  0  0  0  0  0  0  0  0  0  0  0  # atno 17320 bound_to 7965
  144.7011  140.3656  143.7155 LP  0  0  0  0  0  0  0  0  0  0  0  0  # atno 17321 bound_to 7965
  140.7430  143.6506  150.8251 LP  0  0  0  0  0  0  0  0  0  0  0  0  # atno 17342 bound_to 10162
  140.0129  143.5623  152.2831 LP  0  0  0  0  0  0  0  0  0  0  0  0  # atno 17343 bound_to 10162
  156.4978  130.8115  151.3120 LP  0  0  0  0  0  0  0  0  0  0  0  0  # atno 17370 bound_to 10713
  157.7452  130.9954  150.2744 LP  0  0  0  0  0  0  0  0  0  0  0  0  # atno 17371 bound_to 10713
  140.9769  134.1457  157.4528 LP  0  0  0  0  0  0  0  0  0  0  0  0  # atno 17394 bound_to 11000
  139.8791  134.9997  156.5972 LP  0  0  0  0  0  0  0  0  0  0  0  0  # atno 17395 bound_to 11000

$$$$
