AV-unprocessed.smi:1346|AV-procd|sdf|5515|dock6
  -GOLD-   22720 5103D 1   1.00000     0.00000
 Structure written by MMmdl.
 47 48  0  0  0  0  0  0  0  0  1 V2000
  148.7659  136.6465  153.5114 C   0  0  0  0  0  0  0  0  0  0  0  0
  150.0214  137.4707  153.4873 C   0  0  0  0  0  0  0  0  0  0  0  0
  151.1903  136.8684  153.6264 N   0  0  0  0  0  0  0  0  0  0  0  0
  152.1525  137.8813  153.5767 O   0  0  0  0  0  0  0  0  0  0  0  0
  151.5171  139.0690  153.4111 C   0  0  0  0  0  0  0  0  0  0  0  0
  152.3771  140.2851  153.3412 C   0  0  0  0  0  0  0  0  0  0  0  0
  150.1639  138.8822  153.3433 C   0  0  0  0  0  0  0  0  0  0  0  0
  149.0854  139.9210  153.1672 C   0  0  0  0  0  0  0  0  0  0  0  0
  149.2655  141.0266  154.2071 C   0  0  0  0  0  0  0  0  0  0  0  0
  149.5236  142.1758  153.8503 O   0  0  0  0  0  0  0  0  0  0  0  0
  149.1445  140.6586  155.4897 N   0  0  0  0  0  0  0  0  0  0  0  0
  149.3714  141.5300  156.6332 C   0  0  0  0  0  0  0  0  0  0  0  0
  150.8175  142.0362  156.6277 C   0  0  0  0  0  0  0  0  0  0  0  0
  151.5247  141.3920  157.6777 O   0  0  0  0  0  0  0  0  0  0  0  0
  151.9971  142.2588  158.7008 C   0  0  1  0  0  0  0  0  0  0  0  0
  150.8818  143.2524  159.0934 C   0  0  0  0  0  0  0  0  0  0  0  0
  151.2894  144.1151  160.2966 C   0  0  0  0  0  0  0  0  0  0  0  0
  151.6833  143.2388  161.4933 C   0  0  0  0  0  0  0  0  0  0  0  0
  152.8018  142.2577  161.1119 C   0  0  0  0  0  0  0  0  0  0  0  0
  152.4072  141.3814  159.9059 C   0  0  2  0  0  0  0  0  0  0  0  0
  153.5452  140.4127  159.5453 C   0  0  0  0  0  0  0  0  0  0  0  0
  147.9489  137.1503  152.9954 H   0  0  0  0  0  0  0  0  0  0  0  0
  148.4459  136.4601  154.5364 H   0  0  0  0  0  0  0  0  0  0  0  0
  148.9127  135.6803  153.0281 H   0  0  0  0  0  0  0  0  0  0  0  0
  151.9237  141.1112  153.8894 H   0  0  0  0  0  0  0  0  0  0  0  0
  152.5146  140.6001  152.3070 H   0  0  0  0  0  0  0  0  0  0  0  0
  153.3605  140.0957  153.7722 H   0  0  0  0  0  0  0  0  0  0  0  0
  149.1201  140.3665  152.1724 H   0  0  0  0  0  0  0  0  0  0  0  0
  148.0909  139.4837  153.2650 H   0  0  0  0  0  0  0  0  0  0  0  0
  148.9322  139.6920  155.6894 H   0  0  0  0  0  0  0  0  0  0  0  0
  148.6809  142.3745  156.6045 H   0  0  0  0  0  0  0  0  0  0  0  0
  149.1708  140.9770  157.5515 H   0  0  0  0  0  0  0  0  0  0  0  0
  151.2879  141.8047  155.6710 H   0  0  0  0  0  0  0  0  0  0  0  0
  150.8314  143.1198  156.7452 H   0  0  0  0  0  0  0  0  0  0  0  0
  152.8751  142.8071  158.3537 H   0  0  0  0  0  0  0  0  0  0  0  0
  150.6330  143.9045  158.2570 H   0  0  0  0  0  0  0  0  0  0  0  0
  149.9713  142.7031  159.3357 H   0  0  0  0  0  0  0  0  0  0  0  0
  152.1265  144.7573  160.0199 H   0  0  0  0  0  0  0  0  0  0  0  0
  150.4690  144.7772  160.5747 H   0  0  0  0  0  0  0  0  0  0  0  0
  152.0063  143.8669  162.3240 H   0  0  0  0  0  0  0  0  0  0  0  0
  150.8124  142.6838  161.8443 H   0  0  0  0  0  0  0  0  0  0  0  0
  153.7098  142.8162  160.8806 H   0  0  0  0  0  0  0  0  0  0  0  0
  153.0388  141.6268  161.9692 H   0  0  0  0  0  0  0  0  0  0  0  0
  151.5435  140.7821  160.1989 H   0  0  0  0  0  0  0  0  0  0  0  0
  154.4386  140.9515  159.2283 H   0  0  0  0  0  0  0  0  0  0  0  0
  153.2560  139.7430  158.7349 H   0  0  0  0  0  0  0  0  0  0  0  0
  153.8165  139.7912  160.3989 H   0  0  0  0  0  0  0  0  0  0  0  0
  1  2  1  0  0  0  0
  1 22  1  0  0  0  0
  1 23  1  0  0  0  0
  1 24  1  0  0  0  0
  2  7  1  0  0  0  0
  2  3  2  0  0  0  0
  3  4  1  0  0  0  0
  4  5  1  0  0  0  0
  5  6  1  0  0  0  0
  5  7  2  0  0  0  0
  6 25  1  0  0  0  0
  6 26  1  0  0  0  0
  6 27  1  0  0  0  0
  7  8  1  0  0  0  0
  8  9  1  0  0  0  0
  8 28  1  0  0  0  0
  8 29  1  0  0  0  0
  9 10  2  0  0  0  0
  9 11  1  0  0  0  0
 11 12  1  0  0  0  0
 11 30  1  0  0  0  0
 12 13  1  0  0  0  0
 12 31  1  0  0  0  0
 12 32  1  0  0  0  0
 13 14  1  0  0  0  0
 13 33  1  0  0  0  0
 13 34  1  0  0  0  0
 14 15  1  0  0  0  0
 15 20  1  0  0  0  0
 15 16  1  0  0  0  0
 15 35  1  0  0  0  0
 16 17  1  0  0  0  0
 16 36  1  0  0  0  0
 16 37  1  0  0  0  0
 17 18  1  0  0  0  0
 17 38  1  0  0  0  0
 17 39  1  0  0  0  0
 18 19  1  0  0  0  0
 18 40  1  0  0  0  0
 18 41  1  0  0  0  0
 19 20  1  0  0  0  0
 19 42  1  0  0  0  0
 19 43  1  0  0  0  0
 20 21  1  0  0  0  0
 20 44  1  0  0  0  0
 21 45  1  0  0  0  0
 21 46  1  0  0  0  0
 21 47  1  0  0  0  0
M  END
> <s_m_source_file>
AV-unprocessed.smi

> <i_m_source_file_index>
1346

> <i_lp_mmshare_version>
43012

> <i_f3d_flags>
0

> <s_epik_input>
W0NIM11jMW5vYyhbQ0gzXSljMVtDSDJdQyg9TylbTkhdW0NIMl1bQ0gyXU9bQ0BASF0yW0NIMl1bQ0gyXVtDSDJdW0NIMl1bQ0BIXTJbQ0gzXQ==

> <s_epik_cmdline>
J2VwaWtfcHl0aG9uJywgJy1waCcsICc3LjAnLCAnLXRuJywgJzgnLCAnLW1hJywgJzIwMCcsICctbWV0YWxfYmluZGluZycsICctaW1hZScsICc8aW5maWxlLm1hZT4nLCAnLW9tYWUnLCAnPG91dGZpbGUubWFlPic=

> <r_lp_tautomer_probability>
1

> <r_epik_Ionization_Penalty>
3.26154e-08

> <r_epik_Ionization_Penalty_Charging>
0

> <r_epik_Ionization_Penalty_Neutral>
3.26154e-08

> <r_epik_State_Penalty>
-0

> <r_epik_Charging_Adjusted_Penalty>
0

> <i_epik_Tot_Q>
0

> <i_epik_Tot_abs_Q>
0

> <r_epik_Metal_State_Penalty>
-0

> <b_epik_Metal_Only>
0

> <s_lp_Force_Field>
OPLS_2005

> <r_lp_Energy>
4.3429

> <b_lp_Chiralities_Consistent>
1

> <s_lp_Variant>
AV-unprocessed.smi:1346-4

> <Gold.Version>
5.8.1

> <Gold.Id.Protein>
6NUR|6NUR_protein|mol2

> <Gold.PLP.Fitness>
46.9703

> <Gold.PLP.PLP>
-42.0327

> <Gold.PLP.part.hbond>
-2.8757

> <Gold.PLP.part.metal>
0.0000

> <Gold.PLP.part.buried>
-4.9475

> <Gold.PLP.part.nonpolar>
-34.8847

> <Gold.PLP.part.repulsive>
1.7197

> <Gold.PLP.ligand.clash>
0.0000

> <Gold.PLP.ligand.torsion>
0.8901

> <Gold.PLP.Chemscore.Hbond>
2.2124

> <Gold.PLP.Chemscore.CHOScore>
0.0000

> <Gold.PLP.Chemscore.Metal>
0.0000

> <Gold.Chemscore.Hbonds>
donor molecule, donor type, donor heavy atom, donor atom, acceptor molecule, acceptor atom, score
      P1  H  8011  8017       L1    10  0.30

> <Gold.PLP.Chemscore.Internal.Correction>
0.0807

> <Gold.Rescore>
     Score         DG    S(hbond)    S(metal)    S(lipo)     H(rot)  DE(clash)    DE(int)     intcor
     18.36     -21.65       2.10        0.00     116.34       1.74       1.47       1.82       ----

> <Gold.Chemscore.Fitness>
18.3616

> <Gold.Chemscore.DG>
-21.6500

> <Gold.Chemscore.ZeroCoef>
-5.4800

> <Gold.Chemscore.Hbond>
2.0959

> <Gold.Chemscore.Metal>
0.0000

> <Gold.Chemscore.Lipo>
116.3405

> <Gold.Chemscore.Internal_Hbond>
0.0000

> <Gold.Chemscore.DEClash>
1.4724

> <Gold.Chemscore.DEInternal>
1.8161

> <Gold.Chemscore.Rot>
1.7352

> <Gold.Chemscore.Internal.Correction>
   9.000000E+99

> <Gold.Chemscore.Hbonds>
donor molecule, donor type, donor heavy atom, donor atom, acceptor molecule, acceptor atom, score
      P1  H  8011  8017       L1    10  0.28

> <Gold.Chemscore.Hbond.Weighted>
-7.0003

> <Gold.Chemscore.Metal.Weighted>
-0.0000

> <Gold.Chemscore.Lipo.Weighted>
-13.6118

> <Gold.Chemscore.Internal_Hbond.Weighted>
0.0000

> <Gold.Chemscore.DEClash.Weighted>
1.4724

> <Gold.Chemscore.DEInternal.Weighted>
1.8161

> <Gold.Chemscore.Rot.Weighted>
4.4420

> <Gold.Chemscore.Internal.Correction.Weighted>
   9.000000E+99

> <Gold.Protein.RotatedTorsions>
[ 6907 6896 6895 6894 ] final  -23.00 input  -60.11 | X-H torsion
[ 7974 7965 7964 7962 ] final -111.40 input  175.53 | X-H torsion
[ 8008 7997 7996 7995 ] final  -74.23 input   59.86 | X-H torsion
[ 10167 10162 10161 10158 ] final   76.47 input  -65.29 | X-H torsion
[ 10718 10713 10712 10709 ] final  -60.65 input   66.30 | X-H torsion
[ 10763 10752 10751 10750 ] final  -34.23 input  -60.55 | X-H torsion
[ 11005 11000 10999 10996 ] final   39.06 input  -57.11 | X-H torsion

> <Gold.Protein.ActiveResidues>
 VAL166  LYS551  ARG553  GLY616  TRP617  ASP618  TYR619  PRO620  LYS621  CYS622 
 ASP623  PHE694  ASN695  SER759  ASP760  ASP761  ALA762  ILE779  LEU786  VAL792 
 PHE793  MET794  SER795  GLU796  ALA797  LYS798  CYS799  TRP800  GLU811  SER814 

> <Gold.Protein.RotatedAtoms>
  151.2104  135.0479  159.8908 H   0  0  0  0  0  0  0  0  0  0  0  0  # atno 6907 bound_to 6896
  152.5425  134.0752  159.8221 H   0  0  0  0  0  0  0  0  0  0  0  0  # atno 6908 bound_to 6896
  151.0904  133.5272  159.2647 H   0  0  0  0  0  0  0  0  0  0  0  0  # atno 6909 bound_to 6896
  145.1565  140.8856  143.3615 H   0  0  0  0  0  0  0  0  0  0  0  0  # atno 7974 bound_to 7965
  154.5313  140.0765  156.8350 H   0  0  0  0  0  0  0  0  0  0  0  0  # atno 8008 bound_to 7997
  155.3368  140.3405  155.4221 H   0  0  0  0  0  0  0  0  0  0  0  0  # atno 8009 bound_to 7997
  156.1784  140.1644  156.8306 H   0  0  0  0  0  0  0  0  0  0  0  0  # atno 8010 bound_to 7997
  139.9919  144.5751  150.7811 H   0  0  0  0  0  0  0  0  0  0  0  0  # atno 10167 bound_to 10162
  156.0976  130.4191  150.0884 H   0  0  0  0  0  0  0  0  0  0  0  0  # atno 10718 bound_to 10713
  153.8434  135.6855  153.4800 H   0  0  0  0  0  0  0  0  0  0  0  0  # atno 10763 bound_to 10752
  153.1440  135.4645  154.9537 H   0  0  0  0  0  0  0  0  0  0  0  0  # atno 10764 bound_to 10752
  154.7835  135.3277  154.7885 H   0  0  0  0  0  0  0  0  0  0  0  0  # atno 10765 bound_to 10752
  140.2065  134.3807  155.8070 H   0  0  0  0  0  0  0  0  0  0  0  0  # atno 11005 bound_to 11000
  145.0375  139.3288  143.5993 LP  0  0  0  0  0  0  0  0  0  0  0  0  # atno 17320 bound_to 7965
  146.3488  139.9736  142.8703 LP  0  0  0  0  0  0  0  0  0  0  0  0  # atno 17321 bound_to 7965
  140.7451  143.2871  151.3432 LP  0  0  0  0  0  0  0  0  0  0  0  0  # atno 17342 bound_to 10162
  139.6334  144.0677  152.2495 LP  0  0  0  0  0  0  0  0  0  0  0  0  # atno 17343 bound_to 10162
  156.8879  130.9578  151.3592 LP  0  0  0  0  0  0  0  0  0  0  0  0  # atno 17370 bound_to 10713
  157.6140  130.8604  149.8997 LP  0  0  0  0  0  0  0  0  0  0  0  0  # atno 17371 bound_to 10713
  141.2227  133.7120  156.8345 LP  0  0  0  0  0  0  0  0  0  0  0  0  # atno 17394 bound_to 11000
  140.1998  134.8905  157.3155 LP  0  0  0  0  0  0  0  0  0  0  0  0  # atno 17395 bound_to 11000

$$$$
