AV-unprocessed.smi:2895|AV-procd|sdf|11134|dock1
  -GOLD-   2272016 03D 1   1.00000     0.00000
 Structure written by MMmdl.
 54 57  0  0  0  0  0  0  0  0  3 V2000
  151.6236  136.5885  158.5016 O   0  0  0  0  0  0  0  0  0  0  0  0
  150.7754  137.4150  158.1635 C   0  0  0  0  0  0  0  0  0  0  0  0
  149.7157  137.0791  157.4079 N   0  0  0  0  0  0  0  0  0  0  0  0
  149.4414  135.7423  156.8928 C   0  0  0  0  0  0  0  0  0  0  0  0
  150.3306  135.4042  155.6847 C   0  0  0  0  0  0  0  0  0  0  0  0
  149.9927  134.0511  155.0886 C   0  0  0  0  0  0  0  0  0  0  0  0
  149.1606  133.9601  153.9510 C   0  0  0  0  0  0  0  0  0  0  0  0
  148.8653  132.6904  153.4139 C   0  0  0  0  0  0  0  0  0  0  0  0
  149.3782  131.5807  153.9896 N   0  3  0  0  0  0  0  0  0  0  0  0
  150.1781  131.6237  155.0778 C   0  0  0  0  0  0  0  0  0  0  0  0
  150.5084  132.8659  155.6579 C   0  0  0  0  0  0  0  0  0  0  0  0
  150.7971  138.7097  158.5693 N   0  0  0  0  0  0  0  0  0  0  0  0
  149.9341  139.7881  158.0621 C   0  0  0  0  0  0  0  0  0  0  0  0
  150.7776  140.7666  157.2162 C   0  0  0  0  0  0  0  0  0  0  0  0
  151.9489  141.3073  157.9702 N   0  3  0  0  0  0  0  0  0  0  0  0
  151.5839  142.3993  158.9294 C   0  0  2  0  0  0  0  0  0  0  0  0
  150.6812  143.4831  158.2781 C   0  0  0  0  0  0  0  0  0  0  0  0
  151.4101  144.8010  158.5828 C   0  0  1  0  0  0  0  0  0  0  0  0
  151.3401  145.0972  160.0903 C   0  0  0  0  0  0  0  0  0  0  0  0
  152.3085  144.0566  160.6791 C   0  0  0  0  0  0  0  0  0  0  0  0
  152.7702  143.2712  159.4355 C   0  0  2  0  0  0  0  0  0  0  0  0
  152.8615  144.3838  158.3974 C   0  0  0  0  0  0  0  0  0  0  0  0
  152.7503  140.1908  158.5520 C   0  0  0  0  0  0  0  0  0  0  0  0
  151.8826  139.2415  159.4002 C   0  0  0  0  0  0  0  0  0  0  0  0
  149.0415  137.7987  157.1902 H   0  0  0  0  0  0  0  0  0  0  0  0
  149.5747  135.0043  157.6859 H   0  0  0  0  0  0  0  0  0  0  0  0
  148.3907  135.7001  156.6042 H   0  0  0  0  0  0  0  0  0  0  0  0
  150.2252  136.1711  154.9161 H   0  0  0  0  0  0  0  0  0  0  0  0
  151.3821  135.4039  155.9747 H   0  0  0  0  0  0  0  0  0  0  0  0
  148.7552  134.8514  153.4937 H   0  0  0  0  0  0  0  0  0  0  0  0
  148.2401  132.5304  152.5475 H   0  0  0  0  0  0  0  0  0  0  0  0
  150.5276  130.6708  155.4479 H   0  0  0  0  0  0  0  0  0  0  0  0
  151.1498  132.9058  156.5265 H   0  0  0  0  0  0  0  0  0  0  0  0
  149.0959  139.4362  157.4612 H   0  0  0  0  0  0  0  0  0  0  0  0
  149.4811  140.3058  158.9081 H   0  0  0  0  0  0  0  0  0  0  0  0
  151.1592  140.2379  156.3415 H   0  0  0  0  0  0  0  0  0  0  0  0
  150.1416  141.5573  156.8219 H   0  0  0  0  0  0  0  0  0  0  0  0
  151.0734  141.9527  159.7828 H   0  0  0  0  0  0  0  0  0  0  0  0
  150.6191  143.3678  157.1952 H   0  0  0  0  0  0  0  0  0  0  0  0
  149.6641  143.4683  158.6715 H   0  0  0  0  0  0  0  0  0  0  0  0
  151.0868  145.6337  157.9574 H   0  0  0  0  0  0  0  0  0  0  0  0
  151.6855  146.1089  160.3067 H   0  0  0  0  0  0  0  0  0  0  0  0
  150.3280  144.9958  160.4841 H   0  0  0  0  0  0  0  0  0  0  0  0
  153.1538  144.5530  161.1576 H   0  0  0  0  0  0  0  0  0  0  0  0
  151.8342  143.4193  161.4265 H   0  0  0  0  0  0  0  0  0  0  0  0
  153.7092  142.7577  159.6242 H   0  0  0  0  0  0  0  0  0  0  0  0
  153.0859  144.0216  157.3926 H   0  0  0  0  0  0  0  0  0  0  0  0
  153.5735  145.1675  158.6631 H   0  0  0  0  0  0  0  0  0  0  0  0
  153.1765  139.6251  157.7222 H   0  0  0  0  0  0  0  0  0  0  0  0
  153.6101  140.5343  159.1198 H   0  0  0  0  0  0  0  0  0  0  0  0
  151.4581  139.7693  160.2549 H   0  0  0  0  0  0  0  0  0  0  0  0
  152.5080  138.4562  159.8271 H   0  0  0  0  0  0  0  0  0  0  0  0
  152.5457  141.7510  157.2866 H   0  0  0  0  0  0  0  0  0  0  0  0
  149.1520  130.6716  153.5850 H   0  0  0  0  0  0  0  0  0  0  0  0
  1  2  2  0  0  0  0
  2  3  1  0  0  0  0
  2 12  1  0  0  0  0
  3  4  1  0  0  0  0
  3 25  1  0  0  0  0
  4  5  1  0  0  0  0
  4 26  1  0  0  0  0
  4 27  1  0  0  0  0
  5  6  1  0  0  0  0
  5 28  1  0  0  0  0
  5 29  1  0  0  0  0
  6 11  1  0  0  0  0
  6  7  2  0  0  0  0
  7  8  1  0  0  0  0
  7 30  1  0  0  0  0
  8  9  2  0  0  0  0
  8 31  1  0  0  0  0
  9 10  1  0  0  0  0
  9 54  1  0  0  0  0
 10 11  2  0  0  0  0
 10 32  1  0  0  0  0
 11 33  1  0  0  0  0
 12 24  1  0  0  0  0
 12 13  1  0  0  0  0
 13 14  1  0  0  0  0
 13 34  1  0  0  0  0
 13 35  1  0  0  0  0
 14 15  1  0  0  0  0
 14 36  1  0  0  0  0
 14 37  1  0  0  0  0
 15 16  1  0  0  0  0
 15 23  1  0  0  0  0
 15 53  1  0  0  0  0
 16 21  1  0  0  0  0
 16 17  1  0  0  0  0
 16 38  1  0  0  0  0
 17 18  1  0  0  0  0
 17 39  1  0  0  0  0
 17 40  1  0  0  0  0
 18 22  1  0  0  0  0
 18 19  1  0  0  0  0
 18 41  1  0  0  0  0
 19 20  1  0  0  0  0
 19 42  1  0  0  0  0
 19 43  1  0  0  0  0
 20 21  1  0  0  0  0
 20 44  1  0  0  0  0
 20 45  1  0  0  0  0
 21 22  1  0  0  0  0
 21 46  1  0  0  0  0
 22 47  1  0  0  0  0
 22 48  1  0  0  0  0
 23 24  1  0  0  0  0
 23 49  1  0  0  0  0
 23 50  1  0  0  0  0
 24 51  1  0  0  0  0
 24 52  1  0  0  0  0
M  CHG  1   9   1
M  CHG  1  15   1
M  END
> <s_m_source_file>
AV-unprocessed.smi

> <i_m_source_file_index>
2895

> <i_lp_mmshare_version>
43012

> <i_f3d_flags>
0

> <s_epik_input>
W0NIMl0xW0NIMl1bQ0BASF0oW0NIMl0yKVtDQEBIXShbQ0gyXVtDQEhdMTIpTihbQ0gyXVtDSDJdMylbQ0gyXVtDSDJdTjNDKD1PKVtOSF1bQ0gyXVtDSDJdYzRbY0hdW2NIXW5bY0hdW2NIXTQ=

> <s_epik_cmdline>
J2VwaWtfcHl0aG9uJywgJy1waCcsICc3LjAnLCAnLXRuJywgJzgnLCAnLW1hJywgJzIwMCcsICctbWV0YWxfYmluZGluZycsICctaW1hZScsICc8aW5maWxlLm1hZT4nLCAnLW9tYWUnLCAnPG91dGZpbGUubWFlPic=

> <r_epik_Ionization_Penalty>
1.44916

> <r_epik_Ionization_Penalty_Charging>
1.44913

> <r_epik_Ionization_Penalty_Neutral>
2.64641e-05

> <r_epik_State_Penalty>
1.53218

> <r_epik_Charging_Adjusted_Penalty>
2.98131

> <i_epik_Tot_Q>
2

> <i_epik_Tot_abs_Q>
2

> <r_epik_Metal_State_Penalty>
1.58241

> <b_epik_Metal_Only>
0

> <s_lp_Force_Field>
OPLS_2005

> <r_lp_Energy>
108.082

> <b_lp_Chiralities_Consistent>
1

> <s_lp_Variant>
AV-unprocessed.smi:2895-7

> <Gold.Version>
5.8.1

> <Gold.Id.Protein>
6NUR|6NUR_protein|mol2

> <Gold.PLP.Fitness>
48.2371

> <Gold.PLP.PLP>
-47.3293

> <Gold.PLP.part.hbond>
-1.0000

> <Gold.PLP.part.metal>
0.0000

> <Gold.PLP.part.buried>
-6.4672

> <Gold.PLP.part.nonpolar>
-40.1914

> <Gold.PLP.part.repulsive>
0.1292

> <Gold.PLP.ligand.clash>
0.0000

> <Gold.PLP.ligand.torsion>
0.5753

> <Gold.PLP.Chemscore.Hbond>
0.6400

> <Gold.PLP.Chemscore.CHOScore>
0.0000

> <Gold.PLP.Chemscore.Metal>
0.0000

> <Gold.Chemscore.Hbonds>
donor molecule, donor type, donor heavy atom, donor atom, acceptor molecule, acceptor atom, score
      P1  H  6896  6907       L1     1  0.65

> <Gold.PLP.Chemscore.Internal.Correction>
0.1384

> <Gold.Rescore>
     Score         DG    S(hbond)    S(metal)    S(lipo)     H(rot)  DE(clash)    DE(int)     intcor
     19.99     -20.93       0.88        0.00     138.82       1.46       0.25       0.69       ----

> <Gold.Chemscore.Fitness>
19.9903

> <Gold.Chemscore.DG>
-20.9328

> <Gold.Chemscore.ZeroCoef>
-5.4800

> <Gold.Chemscore.Hbond>
0.8807

> <Gold.Chemscore.Metal>
0.0000

> <Gold.Chemscore.Lipo>
138.8189

> <Gold.Chemscore.Internal_Hbond>
0.0000

> <Gold.Chemscore.DEClash>
0.2482

> <Gold.Chemscore.DEInternal>
0.6942

> <Gold.Chemscore.Rot>
1.4572

> <Gold.Chemscore.Internal.Correction>
   9.000000E+99

> <Gold.Chemscore.Hbonds>
donor molecule, donor type, donor heavy atom, donor atom, acceptor molecule, acceptor atom, score
      P1  H  6896  6907       L1     1  0.61

> <Gold.Chemscore.Hbond.Weighted>
-2.9415

> <Gold.Chemscore.Metal.Weighted>
-0.0000

> <Gold.Chemscore.Lipo.Weighted>
-16.2418

> <Gold.Chemscore.Internal_Hbond.Weighted>
0.0000

> <Gold.Chemscore.DEClash.Weighted>
0.2482

> <Gold.Chemscore.DEInternal.Weighted>
0.6942

> <Gold.Chemscore.Rot.Weighted>
3.7305

> <Gold.Chemscore.Internal.Correction.Weighted>
   9.000000E+99

> <Gold.Protein.RotatedTorsions>
[ 6907 6896 6895 6894 ] final  -19.52 input  -60.11 | X-H torsion
[ 7974 7965 7964 7962 ] final  139.18 input  175.53 | X-H torsion
[ 8008 7997 7996 7995 ] final   38.00 input   59.86 | X-H torsion
[ 10167 10162 10161 10158 ] final  -90.97 input  -65.29 | X-H torsion
[ 10718 10713 10712 10709 ] final -103.16 input   66.30 | X-H torsion
[ 10763 10752 10751 10750 ] final -124.76 input  -60.55 | X-H torsion
[ 11005 11000 10999 10996 ] final  122.83 input  -57.11 | X-H torsion

> <Gold.Protein.ActiveResidues>
 VAL166  LYS551  ARG553  GLY616  TRP617  ASP618  TYR619  PRO620  LYS621  CYS622 
 ASP623  PHE694  ASN695  SER759  ASP760  ASP761  ALA762  ILE779  LEU786  VAL792 
 PHE793  MET794  SER795  GLU796  ALA797  LYS798  CYS799  TRP800  GLU811  SER814 

> <Gold.Protein.RotatedAtoms>
  151.2619  135.0656  159.9101 H   0  0  0  0  0  0  0  0  0  0  0  0  # atno 6907 bound_to 6896
  152.5364  134.0222  159.7997 H   0  0  0  0  0  0  0  0  0  0  0  0  # atno 6908 bound_to 6896
  151.0446  133.5626  159.2679 H   0  0  0  0  0  0  0  0  0  0  0  0  # atno 6909 bound_to 6896
  144.9303  139.5056  143.5621 H   0  0  0  0  0  0  0  0  0  0  0  0  # atno 7974 bound_to 7965
  155.2130  140.3325  155.4326 H   0  0  0  0  0  0  0  0  0  0  0  0  # atno 8008 bound_to 7997
  156.2363  140.1874  156.7159 H   0  0  0  0  0  0  0  0  0  0  0  0  # atno 8009 bound_to 7997
  154.6065  140.0615  156.9423 H   0  0  0  0  0  0  0  0  0  0  0  0  # atno 8010 bound_to 7997
  140.3495  143.2898  151.9742 H   0  0  0  0  0  0  0  0  0  0  0  0  # atno 10167 bound_to 10162
  156.0255  130.5454  150.7213 H   0  0  0  0  0  0  0  0  0  0  0  0  # atno 10718 bound_to 10713
  154.8727  135.4053  154.3158 H   0  0  0  0  0  0  0  0  0  0  0  0  # atno 10763 bound_to 10752
  153.3994  135.7017  153.6442 H   0  0  0  0  0  0  0  0  0  0  0  0  # atno 10764 bound_to 10752
  153.5191  135.3691  155.2594 H   0  0  0  0  0  0  0  0  0  0  0  0  # atno 10765 bound_to 10752
  139.9285  134.9641  156.8168 H   0  0  0  0  0  0  0  0  0  0  0  0  # atno 11005 bound_to 11000
  146.3244  139.8248  142.8919 LP  0  0  0  0  0  0  0  0  0  0  0  0  # atno 17320 bound_to 7965
  145.3153  141.0230  143.3531 LP  0  0  0  0  0  0  0  0  0  0  0  0  # atno 17321 bound_to 7965
  139.4828  144.6088  151.7472 LP  0  0  0  0  0  0  0  0  0  0  0  0  # atno 17342 bound_to 10162
  140.5232  144.0846  150.6029 LP  0  0  0  0  0  0  0  0  0  0  0  0  # atno 17343 bound_to 10162
  157.4828  131.0904  151.0517 LP  0  0  0  0  0  0  0  0  0  0  0  0  # atno 17370 bound_to 10713
  157.0945  130.5956  149.5447 LP  0  0  0  0  0  0  0  0  0  0  0  0  # atno 17371 bound_to 10713
  140.6267  133.9944  155.7643 LP  0  0  0  0  0  0  0  0  0  0  0  0  # atno 17394 bound_to 11000
  141.0859  133.9991  157.3313 LP  0  0  0  0  0  0  0  0  0  0  0  0  # atno 17395 bound_to 11000

$$$$
