AV-unprocessed.smi:91|AV-procd|sdf|838|dock2
  -GOLD-   2262017263D 1   1.00000     0.00000
 Structure written by MMmdl.
 60 63  0  0  0  0  0  0  0  0  1 V2000
  148.4473  131.4855  159.4809 C   0  0  0  0  0  0  0  0  0  0  0  0
  147.5473  132.5409  159.1821 O   0  0  0  0  0  0  0  0  0  0  0  0
  148.1670  133.8114  159.0258 C   0  0  0  0  0  0  0  0  0  0  0  0
  148.9064  133.9482  157.6832 C   0  0  1  0  0  0  0  0  0  0  0  0
  149.5044  135.3543  157.4962 C   0  0  0  0  0  0  0  0  0  0  0  0
  150.3294  135.3870  156.2995 N   0  0  0  0  0  0  0  0  0  0  0  0
  150.6728  136.6359  155.9182 C   0  0  0  0  0  0  0  0  0  0  0  0
  151.0739  136.7911  154.6324 N   0  0  0  0  0  0  0  0  0  0  0  0
  151.4173  138.0003  154.1791 C   0  0  0  0  0  0  0  0  0  0  0  0
  151.4204  139.1655  154.8297 N   0  0  0  0  0  0  0  0  0  0  0  0
  151.0023  139.0154  156.1190 C   0  0  0  0  0  0  0  0  0  0  0  0
  150.6136  137.7959  156.7431 C   0  0  0  0  0  0  0  0  0  0  0  0
  150.2375  138.0399  158.0590 N   0  0  0  0  0  0  0  0  0  0  0  0
  150.3970  139.3267  158.2052 C   0  0  0  0  0  0  0  0  0  0  0  0
  150.8460  139.9915  157.0877 N   0  0  0  0  0  0  0  0  0  0  0  0
  151.0945  141.4181  156.9722 C   0  0  0  0  0  0  0  0  0  0  0  0
  151.0691  142.1513  158.3366 C   0  0  2  0  0  0  0  0  0  0  0  0
  150.5007  143.5878  158.2323 C   0  0  0  0  0  0  0  0  0  0  0  0
  149.0881  143.5848  158.2197 O   0  0  0  0  0  0  0  0  0  0  0  0
  152.4557  142.1141  159.0277 C   0  0  1  0  0  0  0  0  0  0  0  0
  152.4706  142.6103  160.4629 C   0  0  0  0  0  0  0  0  0  0  0  0
  153.7776  142.0285  160.9885 C   0  0  0  0  0  0  0  0  0  0  0  0
  153.9397  140.7863  160.3142 O   0  0  0  0  0  0  0  0  0  0  0  0
  153.0397  140.7089  159.2128 C   0  0  0  0  0  0  0  0  0  0  0  0
  151.3879  134.3866  156.3144 C   0  0  0  0  0  0  0  0  0  0  0  0
  150.7955  132.9737  156.5084 C   0  0  0  0  0  0  0  0  0  0  0  0
  150.0214  132.4926  155.2623 C   0  0  0  0  0  0  0  0  0  0  0  0
  151.9218  131.9755  156.8185 C   0  0  0  0  0  0  0  0  0  0  0  0
  149.9568  132.9784  157.6707 O   0  0  0  0  0  0  0  0  0  0  0  0
  147.8840  130.5672  159.6464 H   0  0  0  0  0  0  0  0  0  0  0  0
  149.0172  131.6949  160.3870 H   0  0  0  0  0  0  0  0  0  0  0  0
  149.1434  131.3006  158.6630 H   0  0  0  0  0  0  0  0  0  0  0  0
  147.3833  134.5677  159.0793 H   0  0  0  0  0  0  0  0  0  0  0  0
  148.8402  134.0105  159.8610 H   0  0  0  0  0  0  0  0  0  0  0  0
  148.2142  133.7305  156.8715 H   0  0  0  0  0  0  0  0  0  0  0  0
  148.7051  136.0933  157.4233 H   0  0  0  0  0  0  0  0  0  0  0  0
  150.1152  135.6243  158.3592 H   0  0  0  0  0  0  0  0  0  0  0  0
  151.7329  138.0403  153.1471 H   0  0  0  0  0  0  0  0  0  0  0  0
  150.1822  139.8316  159.1358 H   0  0  0  0  0  0  0  0  0  0  0  0
  152.0627  141.5429  156.4872 H   0  0  0  0  0  0  0  0  0  0  0  0
  150.3556  141.8494  156.2960 H   0  0  0  0  0  0  0  0  0  0  0  0
  150.3795  141.5978  158.9758 H   0  0  0  0  0  0  0  0  0  0  0  0
  150.8417  144.2059  159.0627 H   0  0  0  0  0  0  0  0  0  0  0  0
  150.8568  144.0823  157.3289 H   0  0  0  0  0  0  0  0  0  0  0  0
  148.7860  144.4700  158.0831 H   0  0  0  0  0  0  0  0  0  0  0  0
  153.1674  142.7081  158.4517 H   0  0  0  0  0  0  0  0  0  0  0  0
  152.4379  143.6972  160.5443 H   0  0  0  0  0  0  0  0  0  0  0  0
  151.6269  142.1990  161.0192 H   0  0  0  0  0  0  0  0  0  0  0  0
  154.6145  142.6772  160.7269 H   0  0  0  0  0  0  0  0  0  0  0  0
  153.7734  141.8996  162.0710 H   0  0  0  0  0  0  0  0  0  0  0  0
  152.2562  139.9933  159.4653 H   0  0  0  0  0  0  0  0  0  0  0  0
  153.5482  140.3486  158.3182 H   0  0  0  0  0  0  0  0  0  0  0  0
  151.9672  134.4373  155.3912 H   0  0  0  0  0  0  0  0  0  0  0  0
  152.0716  134.6011  157.1359 H   0  0  0  0  0  0  0  0  0  0  0  0
  150.6910  132.3746  154.4099 H   0  0  0  0  0  0  0  0  0  0  0  0
  149.2435  133.1918  154.9570 H   0  0  0  0  0  0  0  0  0  0  0  0
  149.5466  131.5281  155.4437 H   0  0  0  0  0  0  0  0  0  0  0  0
  152.6352  131.9135  155.9961 H   0  0  0  0  0  0  0  0  0  0  0  0
  151.5253  130.9742  156.9900 H   0  0  0  0  0  0  0  0  0  0  0  0
  152.4730  132.2669  157.7133 H   0  0  0  0  0  0  0  0  0  0  0  0
  1  2  1  0  0  0  0
  1 30  1  0  0  0  0
  1 31  1  0  0  0  0
  1 32  1  0  0  0  0
  2  3  1  0  0  0  0
  3  4  1  0  0  0  0
  3 33  1  0  0  0  0
  3 34  1  0  0  0  0
  4 29  1  0  0  0  0
  4  5  1  0  0  0  0
  4 35  1  0  0  0  0
  5  6  1  0  0  0  0
  5 36  1  0  0  0  0
  5 37  1  0  0  0  0
  6  7  1  0  0  0  0
  6 25  1  0  0  0  0
  7 12  1  0  0  0  0
  7  8  2  0  0  0  0
  8  9  1  0  0  0  0
  9 10  2  0  0  0  0
  9 38  1  0  0  0  0
 10 11  1  0  0  0  0
 11 15  1  0  0  0  0
 11 12  2  0  0  0  0
 12 13  1  0  0  0  0
 13 14  2  0  0  0  0
 14 15  1  0  0  0  0
 14 39  1  0  0  0  0
 15 16  1  0  0  0  0
 16 17  1  0  0  0  0
 16 40  1  0  0  0  0
 16 41  1  0  0  0  0
 17 18  1  0  0  0  0
 17 20  1  0  0  0  0
 17 42  1  0  0  0  0
 18 19  1  0  0  0  0
 18 43  1  0  0  0  0
 18 44  1  0  0  0  0
 19 45  1  0  0  0  0
 20 24  1  0  0  0  0
 20 21  1  0  0  0  0
 20 46  1  0  0  0  0
 21 22  1  0  0  0  0
 21 47  1  0  0  0  0
 21 48  1  0  0  0  0
 22 23  1  0  0  0  0
 22 49  1  0  0  0  0
 22 50  1  0  0  0  0
 23 24  1  0  0  0  0
 24 51  1  0  0  0  0
 24 52  1  0  0  0  0
 25 26  1  0  0  0  0
 25 53  1  0  0  0  0
 25 54  1  0  0  0  0
 26 27  1  0  0  0  0
 26 28  1  0  0  0  0
 26 29  1  0  0  0  0
 27 55  1  0  0  0  0
 27 56  1  0  0  0  0
 27 57  1  0  0  0  0
 28 58  1  0  0  0  0
 28 59  1  0  0  0  0
 28 60  1  0  0  0  0
M  END
> <s_m_source_file>
AV-unprocessed.smi

> <i_m_source_file_index>
91

> <i_lp_mmshare_version>
43012

> <i_f3d_flags>
0

> <s_epik_input>
W0NIM11PW0NIMl1bQ0BASF0oTzEpW0NIMl1OKFtDSDJdQzEoW0NIM10pW0NIM10pYyhuW2NIXW4yKWMoYzIzKW5bY0hdbjNbQ0gyXVtDQEhdKFtDSDJdW09IXSlbQ0BASF00W0NIMl1bQ0gyXU9bQ0gyXTQ=

> <s_epik_cmdline>
J2VwaWtfcHl0aG9uJywgJy1waCcsICc3LjAnLCAnLXRuJywgJzgnLCAnLW1hJywgJzIwMCcsICctbWV0YWxfYmluZGluZycsICctaW1hZScsICc8aW5maWxlLm1hZT4nLCAnLW9tYWUnLCAnPG91dGZpbGUubWFlPic=

> <r_lp_tautomer_probability>
1

> <r_epik_Ionization_Penalty>
8.63591e-05

> <r_epik_Ionization_Penalty_Charging>
0

> <r_epik_Ionization_Penalty_Neutral>
8.63591e-05

> <r_epik_State_Penalty>
-0

> <r_epik_Charging_Adjusted_Penalty>
0

> <i_epik_Tot_Q>
0

> <i_epik_Tot_abs_Q>
0

> <r_epik_Metal_State_Penalty>
-0

> <b_epik_Metal_Only>
0

> <s_lp_Force_Field>
OPLS_2005

> <r_lp_Energy>
49.535

> <b_lp_Chiralities_Consistent>
1

> <s_lp_Variant>
AV-unprocessed.smi:91-6

> <Gold.Version>
5.8.1

> <Gold.Id.Protein>
6NUR|6NUR_protein|mol2

> <Gold.PLP.Fitness>
48.9742

> <Gold.PLP.PLP>
-39.8192

> <Gold.PLP.part.hbond>
-3.9748

> <Gold.PLP.part.metal>
0.0000

> <Gold.PLP.part.buried>
-5.7653

> <Gold.PLP.part.nonpolar>
-30.0567

> <Gold.PLP.part.repulsive>
0.2753

> <Gold.PLP.ligand.clash>
0.0000

> <Gold.PLP.ligand.torsion>
1.1389

> <Gold.PLP.Chemscore.Hbond>
3.2025

> <Gold.PLP.Chemscore.CHOScore>
0.4578

> <Gold.PLP.Chemscore.Metal>
0.0000

> <Gold.Chemscore.Hbonds>
donor molecule, donor type, donor heavy atom, donor atom, acceptor molecule, acceptor atom, score
      L1  H    19    45       P1  8029  0.90
      P1  H  6896  6909       L1    29  1.00
      P1  H  7989  7998       L1    10  0.67
      P1  H 10752 10763       L1     8  0.60
      L1  C     9    38       P1  7949  0.49

> <Gold.PLP.Chemscore.Internal.Correction>
0.4519

> <Gold.Rescore>
     Score         DG    S(hbond)    S(metal)    S(lipo)     H(rot)  DE(clash)    DE(int)     intcor
     10.63     -14.56       1.60        0.00      98.15       3.03       0.03       3.90       ----

> <Gold.Chemscore.Fitness>
10.6257

> <Gold.Chemscore.DG>
-14.5611

> <Gold.Chemscore.ZeroCoef>
-5.4800

> <Gold.Chemscore.Hbond>
1.6018

> <Gold.Chemscore.Metal>
0.0000

> <Gold.Chemscore.Lipo>
98.1540

> <Gold.Chemscore.Internal_Hbond>
0.0000

> <Gold.Chemscore.DEClash>
0.0321

> <Gold.Chemscore.DEInternal>
3.9033

> <Gold.Chemscore.Rot>
3.0284

> <Gold.Chemscore.Internal.Correction>
   9.000000E+99

> <Gold.Chemscore.Hbonds>
donor molecule, donor type, donor heavy atom, donor atom, acceptor molecule, acceptor atom, score
      L1  H    19    45       P1  8029  0.18
      P1  H  6896  6909       L1    29  0.21
      P1  H  7989  7998       L1    10  0.55
      P1  H 10752 10763       L1     8  0.14

> <Gold.Chemscore.Hbond.Weighted>
-5.3499

> <Gold.Chemscore.Metal.Weighted>
-0.0000

> <Gold.Chemscore.Lipo.Weighted>
-11.4840

> <Gold.Chemscore.Internal_Hbond.Weighted>
0.0000

> <Gold.Chemscore.DEClash.Weighted>
0.0321

> <Gold.Chemscore.DEInternal.Weighted>
3.9033

> <Gold.Chemscore.Rot.Weighted>
7.7528

> <Gold.Chemscore.Internal.Correction.Weighted>
   9.000000E+99

> <Gold.Protein.RotatedTorsions>
[ 6907 6896 6895 6894 ] final  -20.14 input  -60.11 | X-H torsion
[ 7974 7965 7964 7962 ] final   27.43 input  175.53 | X-H torsion
[ 8008 7997 7996 7995 ] final   97.88 input   59.86 | X-H torsion
[ 10167 10162 10161 10158 ] final  132.51 input  -65.29 | X-H torsion
[ 10718 10713 10712 10709 ] final  112.90 input   66.30 | X-H torsion
[ 10763 10752 10751 10750 ] final   50.99 input  -60.55 | X-H torsion
[ 11005 11000 10999 10996 ] final -144.95 input  -57.11 | X-H torsion

> <Gold.Protein.ActiveResidues>
 VAL166  LYS551  ARG553  GLY616  TRP617  ASP618  TYR619  PRO620  LYS621  CYS622 
 ASP623  PHE694  ASN695  SER759  ASP760  ASP761  ALA762  ILE779  LEU786  VAL792 
 PHE793  MET794  SER795  GLU796  ALA797  LYS798  CYS799  TRP800  GLU811  SER814 

> <Gold.Protein.RotatedAtoms>
  151.2526  135.0627  159.9067 H   0  0  0  0  0  0  0  0  0  0  0  0  # atno 6907 bound_to 6896
  152.5378  134.0316  159.8037 H   0  0  0  0  0  0  0  0  0  0  0  0  # atno 6908 bound_to 6896
  151.0526  133.5562  159.2672 H   0  0  0  0  0  0  0  0  0  0  0  0  # atno 6909 bound_to 6896
  146.1785  139.7193  142.8917 H   0  0  0  0  0  0  0  0  0  0  0  0  # atno 7974 bound_to 7965
  156.0947  140.3252  155.7862 H   0  0  0  0  0  0  0  0  0  0  0  0  # atno 8008 bound_to 7997
  155.4937  140.0563  157.2967 H   0  0  0  0  0  0  0  0  0  0  0  0  # atno 8009 bound_to 7997
  154.4659  140.1989  156.0135 H   0  0  0  0  0  0  0  0  0  0  0  0  # atno 8010 bound_to 7997
  139.5336  144.6658  151.4862 H   0  0  0  0  0  0  0  0  0  0  0  0  # atno 10167 bound_to 10162
  157.6367  131.0975  150.6962 H   0  0  0  0  0  0  0  0  0  0  0  0  # atno 10718 bound_to 10713
  152.9785  135.5860  154.4342 H   0  0  0  0  0  0  0  0  0  0  0  0  # atno 10763 bound_to 10752
  154.3952  135.2768  155.2132 H   0  0  0  0  0  0  0  0  0  0  0  0  # atno 10764 bound_to 10752
  154.3988  135.6108  153.5939 H   0  0  0  0  0  0  0  0  0  0  0  0  # atno 10765 bound_to 10752
  140.7973  134.2899  157.4992 H   0  0  0  0  0  0  0  0  0  0  0  0  # atno 11005 bound_to 11000
  145.4145  141.0400  143.2999 LP  0  0  0  0  0  0  0  0  0  0  0  0  # atno 17320 bound_to 7965
  144.8275  139.5685  143.6959 LP  0  0  0  0  0  0  0  0  0  0  0  0  # atno 17321 bound_to 7965
  140.6530  143.8657  150.6805 LP  0  0  0  0  0  0  0  0  0  0  0  0  # atno 17342 bound_to 10162
  140.2028  143.3945  152.1778 LP  0  0  0  0  0  0  0  0  0  0  0  0  # atno 17343 bound_to 10162
  156.7293  130.4704  149.5503 LP  0  0  0  0  0  0  0  0  0  0  0  0  # atno 17370 bound_to 10713
  156.1613  130.6376  151.0722 LP  0  0  0  0  0  0  0  0  0  0  0  0  # atno 17371 bound_to 10713
  139.8725  134.9409  156.3782 LP  0  0  0  0  0  0  0  0  0  0  0  0  # atno 17394 bound_to 11000
  140.9330  133.7566  156.0049 LP  0  0  0  0  0  0  0  0  0  0  0  0  # atno 17395 bound_to 11000

$$$$
