AV-unprocessed.smi:227|AV-procd|sdf|1735|dock7
  -GOLD-   2262020233D 1   1.00000     0.00000
 Structure written by MMmdl.
 54 58  0  0  0  0  0  0  0  0  1 V2000
  149.3951  142.3066  155.8952 O   0  0  0  0  0  0  0  0  0  0  0  0
  150.7770  142.1976  156.1649 C   0  0  0  0  0  0  0  0  0  0  0  0
  151.0252  141.6758  157.6000 C   0  0  2  0  0  0  0  0  0  0  0  0
  149.9287  140.6772  158.0629 C   0  0  0  0  0  0  0  0  0  0  0  0
  149.9628  139.3891  157.3842 N   0  0  0  0  0  0  0  0  0  0  0  0
  150.2156  139.1636  156.0506 C   0  0  0  0  0  0  0  0  0  0  0  0
  150.1877  137.9130  155.6832 N   0  0  0  0  0  0  0  0  0  0  0  0
  149.8797  137.2147  156.8450 C   0  0  0  0  0  0  0  0  0  0  0  0
  149.6945  135.8371  157.1695 C   0  0  0  0  0  0  0  0  0  0  0  0
  149.8044  134.8046  156.2869 N   0  0  0  0  0  0  0  0  0  0  0  0
  149.2868  133.4783  156.5910 C   0  0  2  0  0  0  0  0  0  0  0  0
  149.8066  132.6424  155.4086 C   0  0  0  0  0  0  0  0  0  0  0  0
  149.7417  133.6643  154.2649 C   0  0  0  0  0  0  0  0  0  0  0  0
  149.1497  134.8884  154.9873 C   0  0  1  0  0  0  0  0  0  0  0  0
  147.6522  134.6777  155.3326 C   0  0  1  0  0  0  0  0  0  0  0  0
  146.7286  134.2942  154.1617 C   0  0  0  0  0  0  0  0  0  0  0  0
  146.5858  135.3894  153.2825 O   0  0  0  0  0  0  0  0  0  0  0  0
  147.7579  133.6301  156.4577 C   0  0  0  0  0  0  0  0  0  0  0  0
  149.3603  135.5438  158.4543 N   0  0  0  0  0  0  0  0  0  0  0  0
  149.2345  136.5125  159.3644 C   0  0  0  0  0  0  0  0  0  0  0  0
  149.3912  137.8269  159.2076 N   0  0  0  0  0  0  0  0  0  0  0  0
  149.7177  138.1361  157.9209 C   0  0  0  0  0  0  0  0  0  0  0  0
  151.2164  142.8502  158.5958 C   0  0  1  0  0  0  0  0  0  0  0  0
  152.0798  143.9886  158.0780 C   0  0  0  0  0  0  0  0  0  0  0  0
  151.7158  145.1256  159.0257 C   0  0  0  0  0  0  0  0  0  0  0  0
  150.3501  144.9166  159.3645 O   0  0  0  0  0  0  0  0  0  0  0  0
  149.9367  143.6225  158.9374 C   0  0  0  0  0  0  0  0  0  0  0  0
  149.1263  143.1966  156.0678 H   0  0  0  0  0  0  0  0  0  0  0  0
  151.1879  141.5112  155.4254 H   0  0  0  0  0  0  0  0  0  0  0  0
  151.2588  143.1616  156.0009 H   0  0  0  0  0  0  0  0  0  0  0  0
  151.9649  141.1215  157.5780 H   0  0  0  0  0  0  0  0  0  0  0  0
  150.0132  140.4984  159.1352 H   0  0  0  0  0  0  0  0  0  0  0  0
  148.9377  141.1089  157.9232 H   0  0  0  0  0  0  0  0  0  0  0  0
  150.4260  139.9575  155.3503 H   0  0  0  0  0  0  0  0  0  0  0  0
  149.6002  133.0527  157.5422 H   0  0  0  0  0  0  0  0  0  0  0  0
  150.8353  132.3218  155.5776 H   0  0  0  0  0  0  0  0  0  0  0  0
  149.2006  131.7553  155.2207 H   0  0  0  0  0  0  0  0  0  0  0  0
  150.7466  133.8877  153.9038 H   0  0  0  0  0  0  0  0  0  0  0  0
  149.1568  133.3245  153.4114 H   0  0  0  0  0  0  0  0  0  0  0  0
  149.3360  135.8142  154.4416 H   0  0  0  0  0  0  0  0  0  0  0  0
  147.2775  135.6101  155.7594 H   0  0  0  0  0  0  0  0  0  0  0  0
  147.1493  133.4560  153.6061 H   0  0  0  0  0  0  0  0  0  0  0  0
  145.7392  133.9965  154.5078 H   0  0  0  0  0  0  0  0  0  0  0  0
  147.4237  135.5635  152.8817 H   0  0  0  0  0  0  0  0  0  0  0  0
  147.2668  132.6855  156.2204 H   0  0  0  0  0  0  0  0  0  0  0  0
  147.3181  134.0128  157.3795 H   0  0  0  0  0  0  0  0  0  0  0  0
  148.9711  136.1874  160.3600 H   0  0  0  0  0  0  0  0  0  0  0  0
  151.6445  142.4790  159.5280 H   0  0  0  0  0  0  0  0  0  0  0  0
  153.1471  143.7708  158.0855 H   0  0  0  0  0  0  0  0  0  0  0  0
  151.7952  144.2489  157.0574 H   0  0  0  0  0  0  0  0  0  0  0  0
  152.3124  145.0668  159.9369 H   0  0  0  0  0  0  0  0  0  0  0  0
  151.8718  146.1080  158.5795 H   0  0  0  0  0  0  0  0  0  0  0  0
  149.3079  143.7399  158.0536 H   0  0  0  0  0  0  0  0  0  0  0  0
  149.3448  143.1313  159.7102 H   0  0  0  0  0  0  0  0  0  0  0  0
  1  2  1  0  0  0  0
  1 28  1  0  0  0  0
  2  3  1  0  0  0  0
  2 29  1  0  0  0  0
  2 30  1  0  0  0  0
  3  4  1  0  0  0  0
  3 23  1  0  0  0  0
  3 31  1  0  0  0  0
  4  5  1  0  0  0  0
  4 32  1  0  0  0  0
  4 33  1  0  0  0  0
  5 22  1  0  0  0  0
  5  6  1  0  0  0  0
  6  7  2  0  0  0  0
  6 34  1  0  0  0  0
  7  8  1  0  0  0  0
  8 22  2  0  0  0  0
  8  9  1  0  0  0  0
  9 10  1  0  0  0  0
  9 19  2  0  0  0  0
 10 14  1  0  0  0  0
 10 11  1  0  0  0  0
 11 18  1  0  0  0  0
 11 12  1  0  0  0  0
 11 35  1  0  0  0  0
 12 13  1  0  0  0  0
 12 36  1  0  0  0  0
 12 37  1  0  0  0  0
 13 14  1  0  0  0  0
 13 38  1  0  0  0  0
 13 39  1  0  0  0  0
 14 15  1  0  0  0  0
 14 40  1  0  0  0  0
 15 16  1  0  0  0  0
 15 18  1  0  0  0  0
 15 41  1  0  0  0  0
 16 17  1  0  0  0  0
 16 42  1  0  0  0  0
 16 43  1  0  0  0  0
 17 44  1  0  0  0  0
 18 45  1  0  0  0  0
 18 46  1  0  0  0  0
 19 20  1  0  0  0  0
 20 21  2  0  0  0  0
 20 47  1  0  0  0  0
 21 22  1  0  0  0  0
 23 27  1  0  0  0  0
 23 24  1  0  0  0  0
 23 48  1  0  0  0  0
 24 25  1  0  0  0  0
 24 49  1  0  0  0  0
 24 50  1  0  0  0  0
 25 26  1  0  0  0  0
 25 51  1  0  0  0  0
 25 52  1  0  0  0  0
 26 27  1  0  0  0  0
 27 53  1  0  0  0  0
 27 54  1  0  0  0  0
M  END
> <s_m_source_file>
AV-unprocessed.smi

> <i_m_source_file_index>
227

> <i_lp_mmshare_version>
43012

> <i_f3d_flags>
0

> <s_epik_input>
W0NIMl0xT1tDSDJdW0NIMl1bQ0BIXTFbQ0BIXShbQ0gyXVtPSF0pW0NIMl1uKFtjSF1uMiljKGMyMyluW2NIXW5jM04oW0NASF00NSlbQ0BASF0oW0NIMl1bQ0gyXTQpW0NASF0oW0NIMl01KVtDSDJdW09IXQ==

> <s_epik_cmdline>
J2VwaWtfcHl0aG9uJywgJy1waCcsICc3LjAnLCAnLXRuJywgJzgnLCAnLW1hJywgJzIwMCcsICctbWV0YWxfYmluZGluZycsICctaW1hZScsICc8aW5maWxlLm1hZT4nLCAnLW9tYWUnLCAnPG91dGZpbGUubWFlPic=

> <r_lp_tautomer_probability>
1

> <r_epik_Ionization_Penalty>
0.0055791

> <r_epik_Ionization_Penalty_Charging>
0

> <r_epik_Ionization_Penalty_Neutral>
0.0055791

> <r_epik_State_Penalty>
0.00401299

> <r_epik_Charging_Adjusted_Penalty>
0.00401299

> <i_epik_Tot_Q>
0

> <i_epik_Tot_abs_Q>
0

> <r_epik_Metal_State_Penalty>
-0

> <b_epik_Metal_Only>
0

> <s_lp_Force_Field>
OPLS_2005

> <r_lp_Energy>
86.8427

> <b_lp_Chiralities_Consistent>
1

> <s_lp_Variant>
AV-unprocessed.smi:227-9

> <Gold.Version>
5.8.1

> <Gold.Id.Protein>
6NUR|6NUR_protein|mol2

> <Gold.PLP.Fitness>
42.3381

> <Gold.PLP.PLP>
-35.6389

> <Gold.PLP.part.hbond>
-4.2006

> <Gold.PLP.part.metal>
0.0000

> <Gold.PLP.part.buried>
-7.5387

> <Gold.PLP.part.nonpolar>
-24.1275

> <Gold.PLP.part.repulsive>
0.2129

> <Gold.PLP.ligand.clash>
0.0000

> <Gold.PLP.ligand.torsion>
1.2838

> <Gold.PLP.Chemscore.Hbond>
3.0000

> <Gold.PLP.Chemscore.CHOScore>
0.0000

> <Gold.PLP.Chemscore.Metal>
0.0000

> <Gold.Chemscore.Hbonds>
donor molecule, donor type, donor heavy atom, donor atom, acceptor molecule, acceptor atom, score
      L1  H     1    28       P1  8028  1.00
      L1  H    17    44       P1  7948  1.00
      P1  H  6896  6907       L1    19  0.65

> <Gold.PLP.Chemscore.Internal.Correction>
0.2667

> <Gold.Rescore>
     Score         DG    S(hbond)    S(metal)    S(lipo)     H(rot)  DE(clash)    DE(int)     intcor
     13.99     -15.81       2.60        0.00      92.98       3.61       0.11       1.71       ----

> <Gold.Chemscore.Fitness>
13.9884

> <Gold.Chemscore.DG>
-15.8064

> <Gold.Chemscore.ZeroCoef>
-5.4800

> <Gold.Chemscore.Hbond>
2.5993

> <Gold.Chemscore.Metal>
0.0000

> <Gold.Chemscore.Lipo>
92.9824

> <Gold.Chemscore.Internal_Hbond>
0.0000

> <Gold.Chemscore.DEClash>
0.1069

> <Gold.Chemscore.DEInternal>
1.7111

> <Gold.Chemscore.Rot>
3.6071

> <Gold.Chemscore.Internal.Correction>
   9.000000E+99

> <Gold.Chemscore.Hbonds>
donor molecule, donor type, donor heavy atom, donor atom, acceptor molecule, acceptor atom, score
      L1  H     1    28       P1  8028  0.96
      L1  H    17    44       P1  7948  0.99
      P1  H  6896  6907       L1    19  0.05

> <Gold.Chemscore.Hbond.Weighted>
-8.6816

> <Gold.Chemscore.Metal.Weighted>
-0.0000

> <Gold.Chemscore.Lipo.Weighted>
-10.8789

> <Gold.Chemscore.Internal_Hbond.Weighted>
0.0000

> <Gold.Chemscore.DEClash.Weighted>
0.1069

> <Gold.Chemscore.DEInternal.Weighted>
1.7111

> <Gold.Chemscore.Rot.Weighted>
9.2342

> <Gold.Chemscore.Internal.Correction.Weighted>
   9.000000E+99

> <Gold.Protein.RotatedTorsions>
[ 6907 6896 6895 6894 ] final  -70.85 input  -60.11 | X-H torsion
[ 7974 7965 7964 7962 ] final   56.70 input  175.53 | X-H torsion
[ 8008 7997 7996 7995 ] final -109.50 input   59.86 | X-H torsion
[ 10167 10162 10161 10158 ] final  150.86 input  -65.29 | X-H torsion
[ 10718 10713 10712 10709 ] final   23.48 input   66.30 | X-H torsion
[ 10763 10752 10751 10750 ] final  -49.61 input  -60.55 | X-H torsion
[ 11005 11000 10999 10996 ] final  147.11 input  -57.11 | X-H torsion

> <Gold.Protein.ActiveResidues>
 VAL166  LYS551  ARG553  GLY616  TRP617  ASP618  TYR619  PRO620  LYS621  CYS622 
 ASP623  PHE694  ASN695  SER759  ASP760  ASP761  ALA762  ILE779  LEU786  VAL792 
 PHE793  MET794  SER795  GLU796  ALA797  LYS798  CYS799  TRP800  GLU811  SER814 

> <Gold.Protein.RotatedAtoms>
  150.7238  134.5393  159.5738 H   0  0  0  0  0  0  0  0  0  0  0  0  # atno 6907 bound_to 6896
  152.2907  134.7721  160.0387 H   0  0  0  0  0  0  0  0  0  0  0  0  # atno 6908 bound_to 6896
  151.8335  133.3377  159.3657 H   0  0  0  0  0  0  0  0  0  0  0  0  # atno 6909 bound_to 6896
  145.9370  139.3855  143.0387 H   0  0  0  0  0  0  0  0  0  0  0  0  # atno 7974 bound_to 7965
  154.9603  140.0399  157.2187 H   0  0  0  0  0  0  0  0  0  0  0  0  # atno 8008 bound_to 7997
  154.7895  140.2833  155.5980 H   0  0  0  0  0  0  0  0  0  0  0  0  # atno 8009 bound_to 7997
  156.2948  140.2576  156.2739 H   0  0  0  0  0  0  0  0  0  0  0  0  # atno 8010 bound_to 7997
  139.4846  144.5488  151.7437 H   0  0  0  0  0  0  0  0  0  0  0  0  # atno 10167 bound_to 10162
  157.1666  130.6741  149.6063 H   0  0  0  0  0  0  0  0  0  0  0  0  # atno 10718 bound_to 10713
  154.0969  135.6569  153.4861 H   0  0  0  0  0  0  0  0  0  0  0  0  # atno 10763 bound_to 10752
  153.0302  135.5216  154.7325 H   0  0  0  0  0  0  0  0  0  0  0  0  # atno 10764 bound_to 10752
  154.6465  135.2995  155.0008 H   0  0  0  0  0  0  0  0  0  0  0  0  # atno 10765 bound_to 10752
  140.0848  134.9076  157.1558 H   0  0  0  0  0  0  0  0  0  0  0  0  # atno 11005 bound_to 11000
  145.8351  140.9610  143.0828 LP  0  0  0  0  0  0  0  0  0  0  0  0  # atno 17320 bound_to 7965
  144.6773  140.0212  143.7483 LP  0  0  0  0  0  0  0  0  0  0  0  0  # atno 17321 bound_to 7965
  140.5039  144.1128  150.5977 LP  0  0  0  0  0  0  0  0  0  0  0  0  # atno 17342 bound_to 10162
  140.4030  143.2694  151.9924 LP  0  0  0  0  0  0  0  0  0  0  0  0  # atno 17343 bound_to 10162
  155.9745  130.4693  150.6391 LP  0  0  0  0  0  0  0  0  0  0  0  0  # atno 17370 bound_to 10713
  157.4082  131.0820  151.1245 LP  0  0  0  0  0  0  0  0  0  0  0  0  # atno 17371 bound_to 10713
  140.3436  134.2677  155.7208 LP  0  0  0  0  0  0  0  0  0  0  0  0  # atno 17394 bound_to 11000
  141.2059  133.7848  157.0208 LP  0  0  0  0  0  0  0  0  0  0  0  0  # atno 17395 bound_to 11000

$$$$
