AV-unprocessed.smi:34|AV-procd|sdf|228|dock3
  -GOLD-   2262015553D 1   1.00000     0.00000
 Structure written by MMmdl.
 55 59  0  0  0  0  0  0  0  0  1 V2000
  145.2212  132.3333  151.0139 O   0  0  0  0  0  0  0  0  0  0  0  0
  145.8669  132.1977  152.0536 C   0  0  0  0  0  0  0  0  0  0  0  0
  146.2761  133.3318  152.8624 N   0  0  0  0  0  0  0  0  0  0  0  0
  145.9548  134.6363  152.6981 C   0  0  0  0  0  0  0  0  0  0  0  0
  145.0893  135.0608  151.7403 N   0  0  0  0  0  0  0  0  0  0  0  0
  144.7996  136.3598  151.6252 C   0  0  0  0  0  0  0  0  0  0  0  0
  145.2532  137.3812  152.3539 N   0  0  0  0  0  0  0  0  0  0  0  0
  146.1258  136.9663  153.3156 C   0  0  0  0  0  0  0  0  0  0  0  0
  146.5258  135.6204  153.5465 C   0  0  0  0  0  0  0  0  0  0  0  0
  147.4241  135.5708  154.6041 N   0  0  0  0  0  0  0  0  0  0  0  0
  147.5427  136.8172  154.9746 C   0  0  0  0  0  0  0  0  0  0  0  0
  146.7936  137.7236  154.2575 N   0  0  0  0  0  0  0  0  0  0  0  0
  146.7245  139.2013  154.4712 C   0  0  1  0  0  0  0  0  0  0  0  0
  147.4280  139.5215  155.6341 O   0  0  0  0  0  0  0  0  0  0  0  0
  148.2029  140.7113  155.4458 C   0  0  1  0  0  0  0  0  0  0  0  0
  149.6978  140.3738  155.5282 C   0  0  0  0  0  0  0  0  0  0  0  0
  150.3775  141.4235  156.1978 O   0  0  0  0  0  0  0  0  0  0  0  0
  151.5986  141.2125  156.7273 C   0  0  0  0  0  0  0  0  0  0  0  0
  152.3349  140.2800  156.3983 O   0  0  0  0  0  0  0  0  0  0  0  0
  151.9654  142.2244  157.7591 C   0  0  0  0  0  0  0  0  0  0  0  0
  151.3097  143.4777  157.7637 C   0  0  0  0  0  0  0  0  0  0  0  0
  151.6355  144.4541  158.7249 C   0  0  0  0  0  0  0  0  0  0  0  0
  152.6203  144.1890  159.6940 C   0  0  0  0  0  0  0  0  0  0  0  0
  153.2800  142.9461  159.7004 C   0  0  0  0  0  0  0  0  0  0  0  0
  152.9561  141.9686  158.7393 C   0  0  0  0  0  0  0  0  0  0  0  0
  147.8041  141.2301  154.0613 C   0  0  2  0  0  0  0  0  0  0  0  0
  146.7529  142.0404  154.2166 F   0  0  0  0  0  0  0  0  0  0  0  0
  147.4003  139.9594  153.3324 C   0  0  2  0  0  0  0  0  0  0  0  0
  146.5379  140.2603  152.2536 O   0  0  0  0  0  0  0  0  0  0  0  0
  146.3472  130.8519  152.5151 C   0  0  0  0  0  0  0  0  0  0  0  0
  147.0354  130.7291  153.7432 C   0  0  0  0  0  0  0  0  0  0  0  0
  147.5088  129.4739  154.1729 C   0  0  0  0  0  0  0  0  0  0  0  0
  147.3037  128.3321  153.3758 C   0  0  0  0  0  0  0  0  0  0  0  0
  146.6281  128.4467  152.1464 C   0  0  0  0  0  0  0  0  0  0  0  0
  146.1552  129.7014  151.7149 C   0  0  0  0  0  0  0  0  0  0  0  0
  146.8401  133.1156  153.6713 H   0  0  0  0  0  0  0  0  0  0  0  0
  144.1061  136.6178  150.8382 H   0  0  0  0  0  0  0  0  0  0  0  0
  148.1810  137.1120  155.7947 H   0  0  0  0  0  0  0  0  0  0  0  0
  145.6665  139.4384  154.5948 H   0  0  0  0  0  0  0  0  0  0  0  0
  147.9553  141.4417  156.2174 H   0  0  0  0  0  0  0  0  0  0  0  0
  149.8437  139.4176  156.0295 H   0  0  0  0  0  0  0  0  0  0  0  0
  150.1150  140.2735  154.5259 H   0  0  0  0  0  0  0  0  0  0  0  0
  150.5504  143.7045  157.0292 H   0  0  0  0  0  0  0  0  0  0  0  0
  151.1290  145.4078  158.7176 H   0  0  0  0  0  0  0  0  0  0  0  0
  152.8699  144.9380  160.4309 H   0  0  0  0  0  0  0  0  0  0  0  0
  154.0364  142.7417  160.4435 H   0  0  0  0  0  0  0  0  0  0  0  0
  153.4813  141.0254  158.7727 H   0  0  0  0  0  0  0  0  0  0  0  0
  148.5869  141.7970  153.5562 H   0  0  0  0  0  0  0  0  0  0  0  0
  148.2812  139.4146  152.9898 H   0  0  0  0  0  0  0  0  0  0  0  0
  145.6538  140.3130  152.5834 H   0  0  0  0  0  0  0  0  0  0  0  0
  147.2032  131.5961  154.3660 H   0  0  0  0  0  0  0  0  0  0  0  0
  148.0313  129.3874  155.1142 H   0  0  0  0  0  0  0  0  0  0  0  0
  147.6678  127.3700  153.7050 H   0  0  0  0  0  0  0  0  0  0  0  0
  146.4755  127.5724  151.5309 H   0  0  0  0  0  0  0  0  0  0  0  0
  145.6492  129.7672  150.7627 H   0  0  0  0  0  0  0  0  0  0  0  0
  1  2  2  0  0  0  0
  2  3  1  0  0  0  0
  2 30  1  0  0  0  0
  3  4  1  0  0  0  0
  3 36  1  0  0  0  0
  4  9  1  0  0  0  0
  4  5  2  0  0  0  0
  5  6  1  0  0  0  0
  6  7  2  0  0  0  0
  6 37  1  0  0  0  0
  7  8  1  0  0  0  0
  8 12  1  0  0  0  0
  8  9  2  0  0  0  0
  9 10  1  0  0  0  0
 10 11  2  0  0  0  0
 11 12  1  0  0  0  0
 11 38  1  0  0  0  0
 12 13  1  0  0  0  0
 13 28  1  0  0  0  0
 13 14  1  0  0  0  0
 13 39  1  0  0  0  0
 14 15  1  0  0  0  0
 15 16  1  0  0  0  0
 15 26  1  0  0  0  0
 15 40  1  0  0  0  0
 16 17  1  0  0  0  0
 16 41  1  0  0  0  0
 16 42  1  0  0  0  0
 17 18  1  0  0  0  0
 18 19  2  0  0  0  0
 18 20  1  0  0  0  0
 20 25  1  0  0  0  0
 20 21  2  0  0  0  0
 21 22  1  0  0  0  0
 21 43  1  0  0  0  0
 22 23  2  0  0  0  0
 22 44  1  0  0  0  0
 23 24  1  0  0  0  0
 23 45  1  0  0  0  0
 24 25  2  0  0  0  0
 24 46  1  0  0  0  0
 25 47  1  0  0  0  0
 26 27  1  0  0  0  0
 26 28  1  0  0  0  0
 26 48  1  0  0  0  0
 28 29  1  0  0  0  0
 28 49  1  0  0  0  0
 29 50  1  0  0  0  0
 30 35  1  0  0  0  0
 30 31  2  0  0  0  0
 31 32  1  0  0  0  0
 31 51  1  0  0  0  0
 32 33  2  0  0  0  0
 32 52  1  0  0  0  0
 33 34  1  0  0  0  0
 33 53  1  0  0  0  0
 34 35  2  0  0  0  0
 34 54  1  0  0  0  0
 35 55  1  0  0  0  0
M  END
> <s_m_source_file>
AV-unprocessed.smi

> <i_m_source_file_index>
34

> <i_lp_mmshare_version>
43012

> <i_f3d_flags>
0

> <s_epik_input>
W2NIXTFbY0hdW2NIXVtjSF1bY0hdYzFDKD1PKVtOSF1jKG5bY0hdbjIpYyhjMjMpbltjSF1uM1tDQEBIXTRPW0NASF0oW0NAQEhdKEYpW0NASF00W09IXSlbQ0gyXU9DKD1PKWM1W2NIXVtjSF1bY0hdW2NIXVtjSF01

> <s_epik_cmdline>
J2VwaWtfcHl0aG9uJywgJy1waCcsICc3LjAnLCAnLXRuJywgJzgnLCAnLW1hJywgJzIwMCcsICctbWV0YWxfYmluZGluZycsICctaW1hZScsICc8aW5maWxlLm1hZT4nLCAnLW9tYWUnLCAnPG91dGZpbGUubWFlPic=

> <r_lp_tautomer_probability>
1

> <r_epik_Ionization_Penalty>
0.00257489

> <r_epik_Ionization_Penalty_Charging>
0

> <r_epik_Ionization_Penalty_Neutral>
0.00257489

> <r_epik_State_Penalty>
0.00519398

> <r_epik_Charging_Adjusted_Penalty>
0.00519398

> <i_epik_Tot_Q>
0

> <i_epik_Tot_abs_Q>
0

> <r_epik_Metal_State_Penalty>
0.335891

> <b_epik_Metal_Only>
0

> <s_epik_Chemistry_Notes>
This compound has an ester and may undergo hydrolysis at high or low pH. This compound contains an acetal/aminal-like group ( X-CH(R)-Y where X, Y are N, S, or O) that may be acid/base labile, releasing an aldehyde.

> <s_lp_Force_Field>
OPLS_2005

> <r_lp_Energy>
45.4832

> <b_lp_Chiralities_Consistent>
1

> <s_lp_Variant>
AV-unprocessed.smi:34-14

> <Gold.Version>
5.8.1

> <Gold.Id.Protein>
6NUR|6NUR_protein|mol2

> <Gold.PLP.Fitness>
57.5221

> <Gold.PLP.PLP>
-51.0233

> <Gold.PLP.part.hbond>
-2.5843

> <Gold.PLP.part.metal>
0.0000

> <Gold.PLP.part.buried>
-5.1302

> <Gold.PLP.part.nonpolar>
-43.0673

> <Gold.PLP.part.repulsive>
0.8006

> <Gold.PLP.ligand.clash>
0.0000

> <Gold.PLP.ligand.torsion>
1.2704

> <Gold.PLP.Chemscore.Hbond>
1.9013

> <Gold.PLP.Chemscore.CHOScore>
1.0000

> <Gold.PLP.Chemscore.Metal>
0.0000

> <Gold.Chemscore.Hbonds>
donor molecule, donor type, donor heavy atom, donor atom, acceptor molecule, acceptor atom, score
      L1  H    29    50       P1 10175  1.00
      P1  H  7997  8008       L1    19  1.00
      L1  C     6    37       P1 10171  0.98

> <Gold.PLP.Chemscore.Internal.Correction>
0.3358

> <Gold.Rescore>
     Score         DG    S(hbond)    S(metal)    S(lipo)     H(rot)  DE(clash)    DE(int)     intcor
     17.03     -19.82       1.80        0.00     130.77       2.72       0.28       2.52       ----

> <Gold.Chemscore.Fitness>
17.0274

> <Gold.Chemscore.DG>
-19.8216

> <Gold.Chemscore.ZeroCoef>
-5.4800

> <Gold.Chemscore.Hbond>
1.7989

> <Gold.Chemscore.Metal>
0.0000

> <Gold.Chemscore.Lipo>
130.7714

> <Gold.Chemscore.Internal_Hbond>
0.0000

> <Gold.Chemscore.DEClash>
0.2769

> <Gold.Chemscore.DEInternal>
2.5173

> <Gold.Chemscore.Rot>
2.7215

> <Gold.Chemscore.Internal.Correction>
   9.000000E+99

> <Gold.Chemscore.Hbonds>
donor molecule, donor type, donor heavy atom, donor atom, acceptor molecule, acceptor atom, score
      L1  H    29    50       P1 10175  0.72
      P1  H  7997  8008       L1    19  0.92

> <Gold.Chemscore.Hbond.Weighted>
-6.0083

> <Gold.Chemscore.Metal.Weighted>
-0.0000

> <Gold.Chemscore.Lipo.Weighted>
-15.3003

> <Gold.Chemscore.Internal_Hbond.Weighted>
0.0000

> <Gold.Chemscore.DEClash.Weighted>
0.2769

> <Gold.Chemscore.DEInternal.Weighted>
2.5173

> <Gold.Chemscore.Rot.Weighted>
6.9670

> <Gold.Chemscore.Internal.Correction.Weighted>
   9.000000E+99

> <Gold.Protein.RotatedTorsions>
[ 6907 6896 6895 6894 ] final  142.59 input  -60.11 | X-H torsion
[ 7974 7965 7964 7962 ] final    1.55 input  175.53 | X-H torsion
[ 8008 7997 7996 7995 ] final  -50.79 input   59.86 | X-H torsion
[ 10167 10162 10161 10158 ] final  105.31 input  -65.29 | X-H torsion
[ 10718 10713 10712 10709 ] final    5.00 input   66.30 | X-H torsion
[ 10763 10752 10751 10750 ] final   50.78 input  -60.55 | X-H torsion
[ 11005 11000 10999 10996 ] final  -14.48 input  -57.11 | X-H torsion

> <Gold.Protein.ActiveResidues>
 VAL166  LYS551  ARG553  GLY616  TRP617  ASP618  TYR619  PRO620  LYS621  CYS622 
 ASP623  PHE694  ASN695  SER759  ASP760  ASP761  ALA762  ILE779  LEU786  VAL792 
 PHE793  MET794  SER795  GLU796  ALA797  LYS798  CYS799  TRP800  GLU811  SER814 

> <Gold.Protein.RotatedAtoms>
  152.2169  133.4953  159.5140 H   0  0  0  0  0  0  0  0  0  0  0  0  # atno 6907 bound_to 6896
  150.7003  134.1394  159.4108 H   0  0  0  0  0  0  0  0  0  0  0  0  # atno 6908 bound_to 6896
  151.9314  135.0254  160.0580 H   0  0  0  0  0  0  0  0  0  0  0  0  # atno 6909 bound_to 6896
  146.2441  140.0970  142.8349 H   0  0  0  0  0  0  0  0  0  0  0  0  # atno 7974 bound_to 7965
  154.4069  140.1263  156.4724 H   0  0  0  0  0  0  0  0  0  0  0  0  # atno 8008 bound_to 7997
  155.7166  140.3493  155.4978 H   0  0  0  0  0  0  0  0  0  0  0  0  # atno 8009 bound_to 7997
  155.9252  140.1060  157.1166 H   0  0  0  0  0  0  0  0  0  0  0  0  # atno 8010 bound_to 7997
  139.7103  144.7079  151.1038 H   0  0  0  0  0  0  0  0  0  0  0  0  # atno 10167 bound_to 10162
  156.9009  130.5721  149.5648 H   0  0  0  0  0  0  0  0  0  0  0  0  # atno 10718 bound_to 10713
  152.9784  135.5868  154.4307 H   0  0  0  0  0  0  0  0  0  0  0  0  # atno 10763 bound_to 10752
  154.3921  135.2768  155.2150 H   0  0  0  0  0  0  0  0  0  0  0  0  # atno 10764 bound_to 10752
  154.4018  135.6102  153.5956 H   0  0  0  0  0  0  0  0  0  0  0  0  # atno 10765 bound_to 10752
  140.7869  133.8319  155.9343 H   0  0  0  0  0  0  0  0  0  0  0  0  # atno 11005 bound_to 11000
  145.0601  140.9081  143.4944 LP  0  0  0  0  0  0  0  0  0  0  0  0  # atno 17320 bound_to 7965
  145.1084  139.2774  143.5650 LP  0  0  0  0  0  0  0  0  0  0  0  0  # atno 17321 bound_to 7965
  140.7731  143.5302  150.9432 LP  0  0  0  0  0  0  0  0  0  0  0  0  # atno 17342 bound_to 10162
  139.8986  143.6863  152.3135 LP  0  0  0  0  0  0  0  0  0  0  0  0  # atno 17343 bound_to 10162
  156.0582  130.5640  150.9137 LP  0  0  0  0  0  0  0  0  0  0  0  0  # atno 17370 bound_to 10713
  157.6026  131.0940  150.8933 LP  0  0  0  0  0  0  0  0  0  0  0  0  # atno 17371 bound_to 10713
  140.9428  134.1879  157.4785 LP  0  0  0  0  0  0  0  0  0  0  0  0  # atno 17394 bound_to 11000
  139.8736  134.9878  156.5386 LP  0  0  0  0  0  0  0  0  0  0  0  0  # atno 17395 bound_to 11000

$$$$
