AV-unprocessed.smi:220|AV-procd|sdf|1684|dock4
  -GOLD-   2262020123D 1   1.00000     0.00000
 Structure written by MMmdl.
 51 55  0  0  0  0  0  0  0  0  1 V2000
  145.3308  136.3390  149.8806 N   0  0  0  0  0  0  0  0  0  0  0  0
  145.2933  136.0449  151.1824 C   0  0  0  0  0  0  0  0  0  0  0  0
  144.5324  136.6194  151.9597 O   0  0  0  0  0  0  0  0  0  0  0  0
  146.2497  134.9394  151.6690 C   0  0  2  0  0  0  0  0  0  0  0  0
  146.0503  133.5942  150.9304 C   0  0  2  0  0  0  0  0  0  0  0  0
  144.6235  133.1890  150.5207 C   0  0  0  0  0  0  0  0  0  0  0  0
  144.6659  131.6611  150.4813 C   0  0  0  0  0  0  0  0  0  0  0  0
  145.6554  131.2495  151.5799 C   0  0  0  0  0  0  0  0  0  0  0  0
  146.4319  132.5248  151.9510 C   0  0  2  0  0  0  0  0  0  0  0  0
  146.0238  133.1534  153.2894 C   0  0  0  0  0  0  0  0  0  0  0  0
  146.0960  134.5950  153.0836 N   0  0  0  0  0  0  0  0  0  0  0  0
  146.3570  135.4303  154.1263 C   0  0  0  0  0  0  0  0  0  0  0  0
  146.3572  134.8898  155.3734 N   0  0  0  0  0  0  0  0  0  0  0  0
  146.5896  135.6491  156.4465 C   0  0  0  0  0  0  0  0  0  0  0  0
  146.8472  136.9553  156.5013 N   0  0  0  0  0  0  0  0  0  0  0  0
  146.8608  137.5099  155.2563 C   0  0  0  0  0  0  0  0  0  0  0  0
  146.6267  136.8296  154.0250 C   0  0  0  0  0  0  0  0  0  0  0  0
  146.7310  137.7350  152.9741 N   0  0  0  0  0  0  0  0  0  0  0  0
  146.9950  138.8759  153.5472 C   0  0  0  0  0  0  0  0  0  0  0  0
  147.1072  138.8303  154.9173 N   0  0  0  0  0  0  0  0  0  0  0  0
  147.3987  139.9447  155.8085 C   0  0  0  0  0  0  0  0  0  0  0  0
  148.8399  140.4880  155.6971 C   0  0  0  0  0  0  0  0  0  0  0  0
  149.1005  141.5585  156.7706 C   0  0  0  0  0  0  0  0  0  0  0  0
  150.2921  142.2692  156.5030 O   0  0  0  0  0  0  0  0  0  0  0  0
  149.9396  139.4239  155.5624 C   0  0  0  0  0  0  0  0  0  0  0  0
  150.1688  139.7343  154.1723 O   0  0  0  0  0  0  0  0  0  0  0  0
  149.2797  140.8659  154.2762 C   0  0  0  0  0  0  0  0  0  0  0  0
  144.7222  137.0555  149.5121 H   0  0  0  0  0  0  0  0  0  0  0  0
  145.9646  135.8449  149.2696 H   0  0  0  0  0  0  0  0  0  0  0  0
  147.2810  135.2581  151.5131 H   0  0  0  0  0  0  0  0  0  0  0  0
  146.7016  133.5319  150.0572 H   0  0  0  0  0  0  0  0  0  0  0  0
  143.9004  133.5067  151.2738 H   0  0  0  0  0  0  0  0  0  0  0  0
  144.3214  133.6217  149.5664 H   0  0  0  0  0  0  0  0  0  0  0  0
  143.6802  131.2160  150.6199 H   0  0  0  0  0  0  0  0  0  0  0  0
  145.0413  131.3334  149.5109 H   0  0  0  0  0  0  0  0  0  0  0  0
  145.1344  130.8369  152.4446 H   0  0  0  0  0  0  0  0  0  0  0  0
  146.3278  130.4738  151.2118 H   0  0  0  0  0  0  0  0  0  0  0  0
  147.5101  132.3589  151.9369 H   0  0  0  0  0  0  0  0  0  0  0  0
  144.9977  132.8993  153.5585 H   0  0  0  0  0  0  0  0  0  0  0  0
  146.6792  132.8103  154.0914 H   0  0  0  0  0  0  0  0  0  0  0  0
  146.5645  135.1365  157.3967 H   0  0  0  0  0  0  0  0  0  0  0  0
  147.1154  139.7850  152.9774 H   0  0  0  0  0  0  0  0  0  0  0  0
  146.6791  140.7353  155.5921 H   0  0  0  0  0  0  0  0  0  0  0  0
  147.1846  139.6324  156.8312 H   0  0  0  0  0  0  0  0  0  0  0  0
  148.2720  142.2616  156.8532 H   0  0  0  0  0  0  0  0  0  0  0  0
  149.2039  141.0992  157.7543 H   0  0  0  0  0  0  0  0  0  0  0  0
  150.0723  143.1716  156.3286 H   0  0  0  0  0  0  0  0  0  0  0  0
  150.8229  139.6187  156.1722 H   0  0  0  0  0  0  0  0  0  0  0  0
  149.5980  138.3986  155.6982 H   0  0  0  0  0  0  0  0  0  0  0  0
  148.4757  140.8311  153.5400 H   0  0  0  0  0  0  0  0  0  0  0  0
  149.8190  141.8124  154.2154 H   0  0  0  0  0  0  0  0  0  0  0  0
  1  2  1  0  0  0  0
  1 28  1  0  0  0  0
  1 29  1  0  0  0  0
  2  3  2  0  0  0  0
  2  4  1  0  0  0  0
  4 11  1  0  0  0  0
  4  5  1  0  0  0  0
  4 30  1  0  0  0  0
  5  9  1  0  0  0  0
  5  6  1  0  0  0  0
  5 31  1  0  0  0  0
  6  7  1  0  0  0  0
  6 32  1  0  0  0  0
  6 33  1  0  0  0  0
  7  8  1  0  0  0  0
  7 34  1  0  0  0  0
  7 35  1  0  0  0  0
  8  9  1  0  0  0  0
  8 36  1  0  0  0  0
  8 37  1  0  0  0  0
  9 10  1  0  0  0  0
  9 38  1  0  0  0  0
 10 11  1  0  0  0  0
 10 39  1  0  0  0  0
 10 40  1  0  0  0  0
 11 12  1  0  0  0  0
 12 17  1  0  0  0  0
 12 13  2  0  0  0  0
 13 14  1  0  0  0  0
 14 15  2  0  0  0  0
 14 41  1  0  0  0  0
 15 16  1  0  0  0  0
 16 20  1  0  0  0  0
 16 17  2  0  0  0  0
 17 18  1  0  0  0  0
 18 19  2  0  0  0  0
 19 20  1  0  0  0  0
 19 42  1  0  0  0  0
 20 21  1  0  0  0  0
 21 22  1  0  0  0  0
 21 43  1  0  0  0  0
 21 44  1  0  0  0  0
 22 27  1  0  0  0  0
 22 23  1  0  0  0  0
 22 25  1  0  0  0  0
 23 24  1  0  0  0  0
 23 45  1  0  0  0  0
 23 46  1  0  0  0  0
 24 47  1  0  0  0  0
 25 26  1  0  0  0  0
 25 48  1  0  0  0  0
 25 49  1  0  0  0  0
 26 27  1  0  0  0  0
 27 50  1  0  0  0  0
 27 51  1  0  0  0  0
M  END
> <s_m_source_file>
AV-unprocessed.smi

> <i_m_source_file_index>
220

> <i_lp_mmshare_version>
43012

> <i_f3d_flags>
0

> <s_epik_input>
W0NIMl0xW0NIMl1bQ0gyXVtDQEhdKFtDQEhdMTIpW0NIMl1OKFtDQEBIXTJDKD1PKVtOSDJdKWMobltjSF1uMyljKGMzNCluW2NIXW40W0NIMl1DNShbQ0gyXVtPSF0pW0NIMl1PW0NIMl01

> <s_epik_cmdline>
J2VwaWtfcHl0aG9uJywgJy1waCcsICc3LjAnLCAnLXRuJywgJzgnLCAnLW1hJywgJzIwMCcsICctbWV0YWxfYmluZGluZycsICctaW1hZScsICc8aW5maWxlLm1hZT4nLCAnLW9tYWUnLCAnPG91dGZpbGUubWFlPic=

> <r_lp_tautomer_probability>
1

> <r_epik_Ionization_Penalty>
0.00118987

> <r_epik_Ionization_Penalty_Charging>
0

> <r_epik_Ionization_Penalty_Neutral>
0.00118987

> <r_epik_State_Penalty>
0.000654261

> <r_epik_Charging_Adjusted_Penalty>
0.000654261

> <i_epik_Tot_Q>
0

> <i_epik_Tot_abs_Q>
0

> <r_epik_Metal_State_Penalty>
-0

> <b_epik_Metal_Only>
0

> <s_lp_Force_Field>
OPLS_2005

> <r_lp_Energy>
60.6153

> <b_lp_Chiralities_Consistent>
1

> <s_lp_Variant>
AV-unprocessed.smi:220-3

> <Gold.Version>
5.8.1

> <Gold.Id.Protein>
6NUR|6NUR_protein|mol2

> <Gold.PLP.Fitness>
42.5867

> <Gold.PLP.PLP>
-31.1686

> <Gold.PLP.part.hbond>
-4.0000

> <Gold.PLP.part.metal>
0.0000

> <Gold.PLP.part.buried>
-5.5227

> <Gold.PLP.part.nonpolar>
-24.4752

> <Gold.PLP.part.repulsive>
3.0715

> <Gold.PLP.ligand.clash>
0.0000

> <Gold.PLP.ligand.torsion>
0.4279

> <Gold.PLP.Chemscore.Hbond>
3.9520

> <Gold.PLP.Chemscore.CHOScore>
0.0000

> <Gold.PLP.Chemscore.Metal>
0.0000

> <Gold.Chemscore.Hbonds>
donor molecule, donor type, donor heavy atom, donor atom, acceptor molecule, acceptor atom, score
      L1  H     1    28       P1 10171  0.98
      L1  H     1    29       P1  7921  0.93
      L1  H    24    47       P1  8028  0.93
      P1  H  7989  7998       L1    26  0.60

> <Gold.PLP.Chemscore.Internal.Correction>
0.4179

> <Gold.Rescore>
     Score         DG    S(hbond)    S(metal)    S(lipo)     H(rot)  DE(clash)    DE(int)     intcor
     11.46     -17.10       3.13        0.00      73.10       2.89       1.89       3.75       ----

> <Gold.Chemscore.Fitness>
11.4592

> <Gold.Chemscore.DG>
-17.1028

> <Gold.Chemscore.ZeroCoef>
-5.4800

> <Gold.Chemscore.Hbond>
3.1318

> <Gold.Chemscore.Metal>
0.0000

> <Gold.Chemscore.Lipo>
73.1041

> <Gold.Chemscore.Internal_Hbond>
0.0000

> <Gold.Chemscore.DEClash>
1.8934

> <Gold.Chemscore.DEInternal>
3.7502

> <Gold.Chemscore.Rot>
2.8869

> <Gold.Chemscore.Internal.Correction>
   9.000000E+99

> <Gold.Chemscore.Hbonds>
donor molecule, donor type, donor heavy atom, donor atom, acceptor molecule, acceptor atom, score
      L1  H     1    28       P1 10171  0.93
      L1  H     1    29       P1  7921  0.88
      L1  H    24    47       P1  8028  0.87
      P1  H  7989  7998       L1    26  0.04

> <Gold.Chemscore.Hbond.Weighted>
-10.4602

> <Gold.Chemscore.Metal.Weighted>
-0.0000

> <Gold.Chemscore.Lipo.Weighted>
-8.5532

> <Gold.Chemscore.Internal_Hbond.Weighted>
0.0000

> <Gold.Chemscore.DEClash.Weighted>
1.8934

> <Gold.Chemscore.DEInternal.Weighted>
3.7502

> <Gold.Chemscore.Rot.Weighted>
7.3905

> <Gold.Chemscore.Internal.Correction.Weighted>
   9.000000E+99

> <Gold.Protein.RotatedTorsions>
[ 6907 6896 6895 6894 ] final  132.10 input  -60.11 | X-H torsion
[ 7974 7965 7964 7962 ] final  -78.35 input  175.53 | X-H torsion
[ 8008 7997 7996 7995 ] final   39.54 input   59.86 | X-H torsion
[ 10167 10162 10161 10158 ] final  -73.85 input  -65.29 | X-H torsion
[ 10718 10713 10712 10709 ] final  106.43 input   66.30 | X-H torsion
[ 10763 10752 10751 10750 ] final  -29.70 input  -60.55 | X-H torsion
[ 11005 11000 10999 10996 ] final -158.07 input  -57.11 | X-H torsion

> <Gold.Protein.ActiveResidues>
 VAL166  LYS551  ARG553  GLY616  TRP617  ASP618  TYR619  PRO620  LYS621  CYS622 
 ASP623  PHE694  ASN695  SER759  ASP760  ASP761  ALA762  ILE779  LEU786  VAL792 
 PHE793  MET794  SER795  GLU796  ALA797  LYS798  CYS799  TRP800  GLU811  SER814 

> <Gold.Protein.RotatedAtoms>
  152.3359  133.6011  159.5841 H   0  0  0  0  0  0  0  0  0  0  0  0  # atno 6907 bound_to 6896
  150.7450  133.9797  159.3581 H   0  0  0  0  0  0  0  0  0  0  0  0  # atno 6908 bound_to 6896
  151.7667  135.0797  160.0405 H   0  0  0  0  0  0  0  0  0  0  0  0  # atno 6909 bound_to 6896
  145.5876  140.9436  143.1310 H   0  0  0  0  0  0  0  0  0  0  0  0  # atno 7974 bound_to 7965
  155.2383  140.3343  155.4295 H   0  0  0  0  0  0  0  0  0  0  0  0  # atno 8008 bound_to 7997
  156.2266  140.1832  156.7392 H   0  0  0  0  0  0  0  0  0  0  0  0  # atno 8009 bound_to 7997
  154.5909  140.0638  156.9222 H   0  0  0  0  0  0  0  0  0  0  0  0  # atno 8010 bound_to 7997
  140.5076  143.2350  151.7648 H   0  0  0  0  0  0  0  0  0  0  0  0  # atno 10167 bound_to 10162
  157.6668  131.0850  150.6005 H   0  0  0  0  0  0  0  0  0  0  0  0  # atno 10718 bound_to 10713
  153.7688  135.6914  153.4910 H   0  0  0  0  0  0  0  0  0  0  0  0  # atno 10763 bound_to 10752
  153.1888  135.4479  155.0121 H   0  0  0  0  0  0  0  0  0  0  0  0  # atno 10764 bound_to 10752
  154.8125  135.3384  154.7199 H   0  0  0  0  0  0  0  0  0  0  0  0  # atno 10765 bound_to 10752
  140.6576  134.4384  157.5235 H   0  0  0  0  0  0  0  0  0  0  0  0  # atno 11005 bound_to 11000
  144.7366  139.7569  143.7327 LP  0  0  0  0  0  0  0  0  0  0  0  0  # atno 17320 bound_to 7965
  146.1671  139.4806  142.9951 LP  0  0  0  0  0  0  0  0  0  0  0  0  # atno 17321 bound_to 7965
  139.4887  144.4436  151.9736 LP  0  0  0  0  0  0  0  0  0  0  0  0  # atno 17342 bound_to 10162
  140.3527  144.3069  150.5946 LP  0  0  0  0  0  0  0  0  0  0  0  0  # atno 17343 bound_to 10162
  156.6305  130.4431  149.5788 LP  0  0  0  0  0  0  0  0  0  0  0  0  # atno 17370 bound_to 10713
  156.2285  130.6780  151.1440 LP  0  0  0  0  0  0  0  0  0  0  0  0  # atno 17371 bound_to 10713
  139.9024  134.8526  156.1842 LP  0  0  0  0  0  0  0  0  0  0  0  0  # atno 17394 bound_to 11000
  141.0489  133.6899  156.1736 LP  0  0  0  0  0  0  0  0  0  0  0  0  # atno 17395 bound_to 11000

$$$$
