AV-unprocessed.smi:2592|AV-procd|sdf|10162|dock4
  -GOLD-   2272014173D 1   1.00000     0.00000
 Structure written by MMmdl.
 41 42  0  0  0  0  0  0  0  0  2 V2000
  153.4262  142.3419  161.6465 C   0  0  0  0  0  0  0  0  0  0  0  0
  152.8520  142.2733  160.2648 C   0  0  0  0  0  0  0  0  0  0  0  0
  153.0167  141.1125  159.5049 N   0  0  0  0  0  0  0  0  0  0  0  0
  152.4506  141.1783  158.2959 C   0  0  0  0  0  0  0  0  0  0  0  0
  152.5001  140.1716  157.4080 N   0  5  0  0  0  0  0  0  0  0  0  0
  151.5991  140.1117  156.4011 C   0  0  0  0  0  0  0  0  0  0  0  0
  151.8379  140.2392  155.1978 O   0  0  0  0  0  0  0  0  0  0  0  0
  150.3436  139.8853  156.8140 N   0  0  0  0  0  0  0  0  0  0  0  0
  149.1710  139.7562  155.9556 C   0  0  0  0  0  0  0  0  0  0  0  0
  148.9413  141.0244  155.1180 C   0  0  0  0  0  0  0  0  0  0  0  0
  147.8948  140.8078  154.0120 C   0  0  0  0  0  0  0  0  0  0  0  0
  146.5621  141.3319  154.3085 N   0  0  0  0  0  0  0  0  0  0  0  0
  146.1670  141.0077  155.6750 C   0  0  0  0  0  0  0  0  0  0  0  0
  144.7682  141.5505  156.0147 C   0  0  0  0  0  0  0  0  0  0  0  0
  144.7407  142.9583  155.8045 O   0  0  0  0  0  0  0  0  0  0  0  0
  145.0760  143.3198  154.4688 C   0  0  0  0  0  0  0  0  0  0  0  0
  146.4735  142.7788  154.1199 C   0  0  0  0  0  0  0  0  0  0  0  0
  151.6747  142.7378  158.0174 S   0  0  0  0  0  0  0  0  0  0  0  0
  152.1512  143.2569  159.6119 C   0  0  0  0  0  0  0  0  0  0  0  0
  151.7930  144.6154  160.1150 C   0  0  0  0  0  0  0  0  0  0  0  0
  154.2801  143.0185  161.6816 H   0  0  0  0  0  0  0  0  0  0  0  0
  153.7649  141.3646  161.9918 H   0  0  0  0  0  0  0  0  0  0  0  0
  152.6873  142.7040  162.3616 H   0  0  0  0  0  0  0  0  0  0  0  0
  150.1942  139.7902  157.8080 H   0  0  0  0  0  0  0  0  0  0  0  0
  149.3284  138.9006  155.2988 H   0  0  0  0  0  0  0  0  0  0  0  0
  148.2891  139.5279  156.5562 H   0  0  0  0  0  0  0  0  0  0  0  0
  148.6275  141.8328  155.7779 H   0  0  0  0  0  0  0  0  0  0  0  0
  149.8846  141.3381  154.6688 H   0  0  0  0  0  0  0  0  0  0  0  0
  148.2669  141.2927  153.1082 H   0  0  0  0  0  0  0  0  0  0  0  0
  147.8292  139.7447  153.7755 H   0  0  0  0  0  0  0  0  0  0  0  0
  146.1765  139.9263  155.8165 H   0  0  0  0  0  0  0  0  0  0  0  0
  146.8930  141.4199  156.3776 H   0  0  0  0  0  0  0  0  0  0  0  0
  144.0059  141.0683  155.4008 H   0  0  0  0  0  0  0  0  0  0  0  0
  144.5222  141.3405  157.0555 H   0  0  0  0  0  0  0  0  0  0  0  0
  144.3271  142.9268  153.7793 H   0  0  0  0  0  0  0  0  0  0  0  0
  145.0560  144.4059  154.3778 H   0  0  0  0  0  0  0  0  0  0  0  0
  147.2191  143.2793  154.7398 H   0  0  0  0  0  0  0  0  0  0  0  0
  146.6977  143.0421  153.0868 H   0  0  0  0  0  0  0  0  0  0  0  0
  150.9584  144.5592  160.8139 H   0  0  0  0  0  0  0  0  0  0  0  0
  151.5039  145.2747  159.2962 H   0  0  0  0  0  0  0  0  0  0  0  0
  152.6366  145.0740  160.6312 H   0  0  0  0  0  0  0  0  0  0  0  0
  1  2  1  0  0  0  0
  1 21  1  0  0  0  0
  1 22  1  0  0  0  0
  1 23  1  0  0  0  0
  2 19  2  0  0  0  0
  2  3  1  0  0  0  0
  3  4  2  0  0  0  0
  4  5  1  0  0  0  0
  4 18  1  0  0  0  0
  5  6  1  0  0  0  0
  6  7  2  0  0  0  0
  6  8  1  0  0  0  0
  8  9  1  0  0  0  0
  8 24  1  0  0  0  0
  9 10  1  0  0  0  0
  9 25  1  0  0  0  0
  9 26  1  0  0  0  0
 10 11  1  0  0  0  0
 10 27  1  0  0  0  0
 10 28  1  0  0  0  0
 11 12  1  0  0  0  0
 11 29  1  0  0  0  0
 11 30  1  0  0  0  0
 12 17  1  0  0  0  0
 12 13  1  0  0  0  0
 13 14  1  0  0  0  0
 13 31  1  0  0  0  0
 13 32  1  0  0  0  0
 14 15  1  0  0  0  0
 14 33  1  0  0  0  0
 14 34  1  0  0  0  0
 15 16  1  0  0  0  0
 16 17  1  0  0  0  0
 16 35  1  0  0  0  0
 16 36  1  0  0  0  0
 17 37  1  0  0  0  0
 17 38  1  0  0  0  0
 18 19  1  0  0  0  0
 19 20  1  0  0  0  0
 20 39  1  0  0  0  0
 20 40  1  0  0  0  0
 20 41  1  0  0  0  0
M  CHG  1   5  -1
M  END
> <s_m_source_file>
AV-unprocessed.smi

> <i_m_source_file_index>
2592

> <i_lp_mmshare_version>
43012

> <i_f3d_flags>
0

> <s_epik_input>
W0NIM11jMW5jKHNjMVtDSDNdKVtOSF1DKD1PKVtOSF1bQ0gyXVtDSDJdW0NIMl1OMltDSDJdW0NIMl1PW0NIMl1bQ0gyXTI=

> <s_epik_cmdline>
J2VwaWtfcHl0aG9uJywgJy1waCcsICc3LjAnLCAnLXRuJywgJzgnLCAnLW1hJywgJzIwMCcsICctbWV0YWxfYmluZGluZycsICctaW1hZScsICc8aW5maWxlLm1hZT4nLCAnLW9tYWUnLCAnPG91dGZpbGUubWFlPic=

> <r_lp_tautomer_probability>
0.999

> <r_epik_Ionization_Penalty>
8.38414

> <r_epik_Ionization_Penalty_Charging>
6.24826

> <r_epik_Ionization_Penalty_Neutral>
2.13587

> <r_epik_State_Penalty>
6.83636

> <r_epik_Charging_Adjusted_Penalty>
13.0846

> <i_epik_Tot_Q>
-1

> <i_epik_Tot_abs_Q>
1

> <r_epik_Metal_State_Penalty>
2.77797

> <b_epik_Metal_Only>
1

> <s_lp_Force_Field>
OPLS_2005

> <r_lp_Energy>
16.0962

> <b_lp_Chiralities_Consistent>
1

> <s_lp_Variant>
AV-unprocessed.smi:2592-4

> <Gold.Version>
5.8.1

> <Gold.Id.Protein>
6NUR|6NUR_protein|mol2

> <Gold.PLP.Fitness>
45.1885

> <Gold.PLP.PLP>
-38.9800

> <Gold.PLP.part.hbond>
-2.0000

> <Gold.PLP.part.metal>
0.0000

> <Gold.PLP.part.buried>
-5.7474

> <Gold.PLP.part.nonpolar>
-30.5008

> <Gold.PLP.part.repulsive>
0.3876

> <Gold.PLP.ligand.clash>
0.0000

> <Gold.PLP.ligand.torsion>
1.1917

> <Gold.PLP.Chemscore.Hbond>
2.8160

> <Gold.PLP.Chemscore.CHOScore>
0.0000

> <Gold.PLP.Chemscore.Metal>
0.0000

> <Gold.Chemscore.Hbonds>
donor molecule, donor type, donor heavy atom, donor atom, acceptor molecule, acceptor atom, score
      P1  H  7989  7998       L1     7  0.83
      P1  H  7997  8008       L1     5  2.00

> <Gold.PLP.Chemscore.Internal.Correction>
0.1438

> <Gold.Rescore>
     Score         DG    S(hbond)    S(metal)    S(lipo)     H(rot)  DE(clash)    DE(int)     intcor
     15.16     -16.28       1.37        0.00      89.21       1.65       0.07       1.05       ----

> <Gold.Chemscore.Fitness>
15.1588

> <Gold.Chemscore.DG>
-16.2776

> <Gold.Chemscore.ZeroCoef>
-5.4800

> <Gold.Chemscore.Hbond>
1.3688

> <Gold.Chemscore.Metal>
0.0000

> <Gold.Chemscore.Lipo>
89.2095

> <Gold.Chemscore.Internal_Hbond>
0.0000

> <Gold.Chemscore.DEClash>
0.0673

> <Gold.Chemscore.DEInternal>
1.0515

> <Gold.Chemscore.Rot>
1.6452

> <Gold.Chemscore.Internal.Correction>
   9.000000E+99

> <Gold.Chemscore.Hbonds>
donor molecule, donor type, donor heavy atom, donor atom, acceptor molecule, acceptor atom, score
      P1  H  7989  7998       L1     7  0.83
      P1  H  7997  8008       L1     5  0.41

> <Gold.Chemscore.Hbond.Weighted>
-4.5719

> <Gold.Chemscore.Metal.Weighted>
-0.0000

> <Gold.Chemscore.Lipo.Weighted>
-10.4375

> <Gold.Chemscore.Internal_Hbond.Weighted>
0.0000

> <Gold.Chemscore.DEClash.Weighted>
0.0673

> <Gold.Chemscore.DEInternal.Weighted>
1.0515

> <Gold.Chemscore.Rot.Weighted>
4.2118

> <Gold.Chemscore.Internal.Correction.Weighted>
   9.000000E+99

> <Gold.Protein.RotatedTorsions>
[ 6907 6896 6895 6894 ] final  -79.93 input  -60.11 | X-H torsion
[ 7974 7965 7964 7962 ] final  -92.46 input  175.53 | X-H torsion
[ 8008 7997 7996 7995 ] final  -66.21 input   59.86 | X-H torsion
[ 10167 10162 10161 10158 ] final  -29.71 input  -65.29 | X-H torsion
[ 10718 10713 10712 10709 ] final -178.03 input   66.30 | X-H torsion
[ 10763 10752 10751 10750 ] final -107.15 input  -60.55 | X-H torsion
[ 11005 11000 10999 10996 ] final -153.90 input  -57.11 | X-H torsion

> <Gold.Protein.ActiveResidues>
 VAL166  LYS551  ARG553  GLY616  TRP617  ASP618  TYR619  PRO620  LYS621  CYS622 
 ASP623  PHE694  ASN695  SER759  ASP760  ASP761  ALA762  ILE779  LEU786  VAL792 
 PHE793  MET794  SER795  GLU796  ALA797  LYS798  CYS799  TRP800  GLU811  SER814 

> <Gold.Protein.RotatedAtoms>
  150.6939  134.4047  159.5134 H   0  0  0  0  0  0  0  0  0  0  0  0  # atno 6907 bound_to 6896
  152.1815  134.8747  160.0535 H   0  0  0  0  0  0  0  0  0  0  0  0  # atno 6908 bound_to 6896
  151.9736  133.3699  159.4117 H   0  0  0  0  0  0  0  0  0  0  0  0  # atno 6909 bound_to 6896
  145.3995  140.9536  143.2295 H   0  0  0  0  0  0  0  0  0  0  0  0  # atno 7974 bound_to 7965
  154.4720  140.0917  156.7167 H   0  0  0  0  0  0  0  0  0  0  0  0  # atno 8008 bound_to 7997
  155.4699  140.3464  155.4306 H   0  0  0  0  0  0  0  0  0  0  0  0  # atno 8009 bound_to 7997
  156.1054  140.1433  156.9399 H   0  0  0  0  0  0  0  0  0  0  0  0  # atno 8010 bound_to 7997
  140.7257  143.3906  151.1436 H   0  0  0  0  0  0  0  0  0  0  0  0  # atno 10167 bound_to 10162
  156.8382  130.9677  151.3102 H   0  0  0  0  0  0  0  0  0  0  0  0  # atno 10718 bound_to 10713
  154.8057  135.4685  154.0387 H   0  0  0  0  0  0  0  0  0  0  0  0  # atno 10763 bound_to 10752
  153.1858  135.6847  153.8425 H   0  0  0  0  0  0  0  0  0  0  0  0  # atno 10764 bound_to 10752
  153.7960  135.3236  155.3362 H   0  0  0  0  0  0  0  0  0  0  0  0  # atno 10765 bound_to 10752
  140.7032  134.3914  157.5207 H   0  0  0  0  0  0  0  0  0  0  0  0  # atno 11005 bound_to 11000
  144.8384  139.5513  143.6912 LP  0  0  0  0  0  0  0  0  0  0  0  0  # atno 17320 bound_to 7965
  146.2758  139.6750  142.9264 LP  0  0  0  0  0  0  0  0  0  0  0  0  # atno 17321 bound_to 7965
  139.7511  143.8778  152.3077 LP  0  0  0  0  0  0  0  0  0  0  0  0  # atno 17342 bound_to 10162
  139.8631  144.7107  150.9075 LP  0  0  0  0  0  0  0  0  0  0  0  0  # atno 17343 bound_to 10162
  157.6370  130.8775  149.9377 LP  0  0  0  0  0  0  0  0  0  0  0  0  # atno 17370 bound_to 10713
  156.0895  130.3664  150.0421 LP  0  0  0  0  0  0  0  0  0  0  0  0  # atno 17371 bound_to 10713
  139.8891  134.8838  156.2438 LP  0  0  0  0  0  0  0  0  0  0  0  0  # atno 17394 bound_to 11000
  141.0146  133.7076  156.1168 LP  0  0  0  0  0  0  0  0  0  0  0  0  # atno 17395 bound_to 11000

$$$$
