AV-unprocessed.smi:103|AV-procd|sdf|979|dock5
  -GOLD-   2262017543D 1   1.00000     0.00000
 Structure written by MMmdl.
 53 55  0  0  0  0  0  0  0  0  1 V2000
  149.7807  131.1297  156.3426 C   0  0  0  0  0  0  0  0  0  0  0  0
  150.4591  132.4897  156.4422 C   0  0  0  0  0  0  0  0  0  0  0  0
  151.3624  132.7019  157.2512 O   0  0  0  0  0  0  0  0  0  0  0  0
  149.9579  133.3747  155.5692 O   0  0  0  0  0  0  0  0  0  0  0  0
  150.5736  134.6436  155.4226 C   0  0  0  0  0  0  0  0  0  0  0  0
  150.6035  135.3472  156.7844 C   0  0  2  0  0  0  0  0  0  0  0  0
  149.2603  135.6366  157.1731 O   0  0  0  0  0  0  0  0  0  0  0  0
  149.1419  136.9914  157.4640 C   0  0  2  0  0  0  0  0  0  0  0  0
  147.7713  137.4494  157.0841 N   0  0  0  0  0  0  0  0  0  0  0  0
  146.5884  137.3884  157.7934 C   0  0  0  0  0  0  0  0  0  0  0  0
  146.3523  136.6621  159.4114 S   0  0  0  0  0  0  0  0  0  0  0  0
  147.1594  135.0231  159.2078 C   0  0  0  0  0  0  0  0  0  0  0  0
  147.1242  137.4666  160.3707 O   0  0  0  0  0  0  0  0  0  0  0  0
  144.9043  136.4732  159.5908 O   0  0  0  0  0  0  0  0  0  0  0  0
  145.5177  137.8195  157.1834 N   0  0  0  0  0  0  0  0  0  0  0  0
  146.0101  138.2767  155.9692 C   0  0  0  0  0  0  0  0  0  0  0  0
  145.4214  138.8894  154.8345 C   0  0  0  0  0  0  0  0  0  0  0  0
  144.1121  139.1631  154.7476 N   0  0  0  0  0  0  0  0  0  0  0  0
  146.2175  139.2142  153.7890 N   0  0  0  0  0  0  0  0  0  0  0  0
  147.5269  138.9506  153.8507 C   0  0  0  0  0  0  0  0  0  0  0  0
  148.2189  138.3806  154.8407 N   0  0  0  0  0  0  0  0  0  0  0  0
  147.4152  138.0549  155.8958 C   0  0  0  0  0  0  0  0  0  0  0  0
  150.2120  137.6975  156.6385 C   0  0  1  0  0  0  0  0  0  0  0  0
  150.5546  138.9711  157.1734 O   0  0  0  0  0  0  0  0  0  0  0  0
  151.6746  139.5980  156.7745 C   0  0  0  0  0  0  0  0  0  0  0  0
  151.7273  141.0444  157.2467 C   0  0  0  0  0  0  0  0  0  0  0  0
  152.5780  139.1100  156.0952 O   0  0  0  0  0  0  0  0  0  0  0  0
  151.3479  136.6957  156.7408 C   0  0  1  0  0  0  0  0  0  0  0  0
  152.0818  136.8808  157.9486 O   0  0  0  0  0  0  0  0  0  0  0  0
  153.3111  136.3528  158.0817 C   0  0  0  0  0  0  0  0  0  0  0  0
  153.9230  136.6443  159.4453 C   0  0  0  0  0  0  0  0  0  0  0  0
  153.9133  135.6953  157.2329 O   0  0  0  0  0  0  0  0  0  0  0  0
  148.7183  131.2195  156.5695 H   0  0  0  0  0  0  0  0  0  0  0  0
  150.2265  130.4261  157.0460 H   0  0  0  0  0  0  0  0  0  0  0  0
  149.8876  130.7262  155.3356 H   0  0  0  0  0  0  0  0  0  0  0  0
  151.5840  134.5363  155.0254 H   0  0  0  0  0  0  0  0  0  0  0  0
  150.0010  135.2377  154.7092 H   0  0  0  0  0  0  0  0  0  0  0  0
  151.0392  134.6750  157.5252 H   0  0  0  0  0  0  0  0  0  0  0  0
  149.2436  137.1345  158.5379 H   0  0  0  0  0  0  0  0  0  0  0  0
  147.0844  134.4639  160.1399 H   0  0  0  0  0  0  0  0  0  0  0  0
  148.2088  135.1609  158.9491 H   0  0  0  0  0  0  0  0  0  0  0  0
  146.6601  134.4705  158.4119 H   0  0  0  0  0  0  0  0  0  0  0  0
  143.4979  138.9305  155.5148 H   0  0  0  0  0  0  0  0  0  0  0  0
  143.7431  139.6049  153.9181 H   0  0  0  0  0  0  0  0  0  0  0  0
  148.1025  139.2360  152.9824 H   0  0  0  0  0  0  0  0  0  0  0  0
  149.8861  137.7573  155.5991 H   0  0  0  0  0  0  0  0  0  0  0  0
  150.9312  141.6230  156.7778 H   0  0  0  0  0  0  0  0  0  0  0  0
  152.6838  141.4980  156.9862 H   0  0  0  0  0  0  0  0  0  0  0  0
  151.6034  141.0957  158.3285 H   0  0  0  0  0  0  0  0  0  0  0  0
  152.0105  136.7820  155.8780 H   0  0  0  0  0  0  0  0  0  0  0  0
  153.3649  136.1301  160.2279 H   0  0  0  0  0  0  0  0  0  0  0  0
  153.9020  137.7148  159.6495 H   0  0  0  0  0  0  0  0  0  0  0  0
  154.9591  136.3067  159.4801 H   0  0  0  0  0  0  0  0  0  0  0  0
  1  2  1  0  0  0  0
  1 33  1  0  0  0  0
  1 34  1  0  0  0  0
  1 35  1  0  0  0  0
  2  3  2  0  0  0  0
  2  4  1  0  0  0  0
  4  5  1  0  0  0  0
  5  6  1  0  0  0  0
  5 36  1  0  0  0  0
  5 37  1  0  0  0  0
  6 28  1  0  0  0  0
  6  7  1  0  0  0  0
  6 38  1  0  0  0  0
  7  8  1  0  0  0  0
  8  9  1  0  0  0  0
  8 23  1  0  0  0  0
  8 39  1  0  0  0  0
  9 22  1  0  0  0  0
  9 10  1  0  0  0  0
 10 11  1  0  0  0  0
 10 15  2  0  0  0  0
 11 12  1  0  0  0  0
 11 13  2  0  0  0  0
 11 14  2  0  0  0  0
 12 40  1  0  0  0  0
 12 41  1  0  0  0  0
 12 42  1  0  0  0  0
 15 16  1  0  0  0  0
 16 22  2  0  0  0  0
 16 17  1  0  0  0  0
 17 18  1  0  0  0  0
 17 19  2  0  0  0  0
 18 43  1  0  0  0  0
 18 44  1  0  0  0  0
 19 20  1  0  0  0  0
 20 21  2  0  0  0  0
 20 45  1  0  0  0  0
 21 22  1  0  0  0  0
 23 24  1  0  0  0  0
 23 28  1  0  0  0  0
 23 46  1  0  0  0  0
 24 25  1  0  0  0  0
 25 26  1  0  0  0  0
 25 27  2  0  0  0  0
 26 47  1  0  0  0  0
 26 48  1  0  0  0  0
 26 49  1  0  0  0  0
 28 29  1  0  0  0  0
 28 50  1  0  0  0  0
 29 30  1  0  0  0  0
 30 31  1  0  0  0  0
 30 32  2  0  0  0  0
 31 51  1  0  0  0  0
 31 52  1  0  0  0  0
 31 53  1  0  0  0  0
M  END
> <s_m_source_file>
AV-unprocessed.smi

> <i_m_source_file_index>
103

> <i_lp_mmshare_version>
43012

> <i_f3d_flags>
0

> <s_epik_input>
W0NIM11DKD1PKU9bQ0gyXVtDQEBIXTFPW0NASF0oW0NAQEhdKE9DKD1PKVtDSDNdKVtDQEhdMU9DKD1PKVtDSDNdKW4oYyhuMilTKD1PKSg9TylbQ0gzXSljKGMyMyluW2NIXW5jM1tOSDJd

> <s_epik_cmdline>
J2VwaWtfcHl0aG9uJywgJy1waCcsICc3LjAnLCAnLXRuJywgJzgnLCAnLW1hJywgJzIwMCcsICctbWV0YWxfYmluZGluZycsICctaW1hZScsICc8aW5maWxlLm1hZT4nLCAnLW9tYWUnLCAnPG91dGZpbGUubWFlPic=

> <r_lp_tautomer_probability>
1

> <r_epik_Ionization_Penalty>
1.51338e-05

> <r_epik_Ionization_Penalty_Charging>
0

> <r_epik_Ionization_Penalty_Neutral>
1.51338e-05

> <r_epik_State_Penalty>
-0

> <r_epik_Charging_Adjusted_Penalty>
0

> <i_epik_Tot_Q>
0

> <i_epik_Tot_abs_Q>
0

> <r_epik_Metal_State_Penalty>
-0

> <b_epik_Metal_Only>
0

> <s_epik_Chemistry_Notes>
This compound has an ester and may undergo hydrolysis at high or low pH. This compound contains an acetal/aminal-like group ( X-CH(R)-Y where X, Y are N, S, or O) that may be acid/base labile, releasing an aldehyde.

> <s_lp_Force_Field>
OPLS_2005

> <r_lp_Energy>
16.6357

> <b_lp_Chiralities_Consistent>
1

> <s_lp_Variant>
AV-unprocessed.smi:103-3

> <Gold.Version>
5.8.1

> <Gold.Id.Protein>
6NUR|6NUR_protein|mol2

> <Gold.PLP.Fitness>
36.2585

> <Gold.PLP.PLP>
-20.5281

> <Gold.PLP.part.hbond>
-5.2145

> <Gold.PLP.part.metal>
0.0000

> <Gold.PLP.part.buried>
-5.6566

> <Gold.PLP.part.nonpolar>
-10.6990

> <Gold.PLP.part.repulsive>
0.3119

> <Gold.PLP.ligand.clash>
0.0000

> <Gold.PLP.ligand.torsion>
2.1948

> <Gold.PLP.Chemscore.Hbond>
4.9600

> <Gold.PLP.Chemscore.CHOScore>
1.0000

> <Gold.PLP.Chemscore.Metal>
0.0000

> <Gold.Chemscore.Hbonds>
donor molecule, donor type, donor heavy atom, donor atom, acceptor molecule, acceptor atom, score
      L1  H    18    44       P1 10175  1.00
      P1  H  6896  6908       L1     3  0.91
      P1  H  6934  6947       L1    13  1.00
      P1  H  7997  8008       L1    27  0.96
      P1  H 10752 10763       L1    32  1.00
      L1  C    20    45       P1  7957  1.00

> <Gold.PLP.Chemscore.Internal.Correction>
2.2400

> <Gold.Rescore>
     Score         DG    S(hbond)    S(metal)    S(lipo)     H(rot)  DE(clash)    DE(int)     intcor
      8.05     -12.73       4.26        0.00      33.28       4.25       0.02       4.66       ----

> <Gold.Chemscore.Fitness>
8.0454

> <Gold.Chemscore.DG>
-12.7287

> <Gold.Chemscore.ZeroCoef>
-5.4800

> <Gold.Chemscore.Hbond>
4.2585

> <Gold.Chemscore.Metal>
0.0000

> <Gold.Chemscore.Lipo>
33.2830

> <Gold.Chemscore.Internal_Hbond>
0.0000

> <Gold.Chemscore.DEClash>
0.0239

> <Gold.Chemscore.DEInternal>
4.6594

> <Gold.Chemscore.Rot>
4.2456

> <Gold.Chemscore.Internal.Correction>
   9.000000E+99

> <Gold.Chemscore.Hbonds>
donor molecule, donor type, donor heavy atom, donor atom, acceptor molecule, acceptor atom, score
      L1  H    18    44       P1 10175  1.00
      P1  H  6896  6908       L1     3  0.83
      P1  H  6934  6947       L1    13  0.99
      P1  H  7997  8008       L1    27  0.80
      P1  H 10752 10763       L1    32  1.00

> <Gold.Chemscore.Hbond.Weighted>
-14.2232

> <Gold.Chemscore.Metal.Weighted>
-0.0000

> <Gold.Chemscore.Lipo.Weighted>
-3.8941

> <Gold.Chemscore.Internal_Hbond.Weighted>
0.0000

> <Gold.Chemscore.DEClash.Weighted>
0.0239

> <Gold.Chemscore.DEInternal.Weighted>
4.6594

> <Gold.Chemscore.Rot.Weighted>
10.8687

> <Gold.Chemscore.Internal.Correction.Weighted>
   9.000000E+99

> <Gold.Protein.RotatedTorsions>
[ 6907 6896 6895 6894 ] final   71.65 input  -60.11 | X-H torsion
[ 7974 7965 7964 7962 ] final   61.77 input  175.53 | X-H torsion
[ 8008 7997 7996 7995 ] final  -36.63 input   59.86 | X-H torsion
[ 10167 10162 10161 10158 ] final   79.73 input  -65.29 | X-H torsion
[ 10718 10713 10712 10709 ] final   23.63 input   66.30 | X-H torsion
[ 10763 10752 10751 10750 ] final  148.16 input  -60.55 | X-H torsion
[ 11005 11000 10999 10996 ] final -151.01 input  -57.11 | X-H torsion

> <Gold.Protein.ActiveResidues>
 VAL166  LYS551  ARG553  GLY616  TRP617  ASP618  TYR619  PRO620  LYS621  CYS622 
 ASP623  PHE694  ASN695  SER759  ASP760  ASP761  ALA762  ILE779  LEU786  VAL792 
 PHE793  MET794  SER795  GLU796  ALA797  LYS798  CYS799  TRP800  GLU811  SER814 

> <Gold.Protein.RotatedAtoms>
  152.4823  134.4688  159.9628 H   0  0  0  0  0  0  0  0  0  0  0  0  # atno 6907 bound_to 6896
  151.4691  133.3567  159.2828 H   0  0  0  0  0  0  0  0  0  0  0  0  # atno 6908 bound_to 6896
  150.8904  134.8333  159.7350 H   0  0  0  0  0  0  0  0  0  0  0  0  # atno 6909 bound_to 6896
  145.8810  139.3443  143.0706 H   0  0  0  0  0  0  0  0  0  0  0  0  # atno 7974 bound_to 7965
  154.4069  140.1625  156.2405 H   0  0  0  0  0  0  0  0  0  0  0  0  # atno 8008 bound_to 7997
  155.9205  140.3421  155.6147 H   0  0  0  0  0  0  0  0  0  0  0  0  # atno 8009 bound_to 7997
  155.7227  140.0770  157.2314 H   0  0  0  0  0  0  0  0  0  0  0  0  # atno 8010 bound_to 7997
  139.9572  144.5986  150.8106 H   0  0  0  0  0  0  0  0  0  0  0  0  # atno 10167 bound_to 10162
  157.1687  130.6749  149.6070 H   0  0  0  0  0  0  0  0  0  0  0  0  # atno 10718 bound_to 10713
  154.0501  135.2882  155.3341 H   0  0  0  0  0  0  0  0  0  0  0  0  # atno 10763 bound_to 10752
  154.6874  135.5240  153.8349 H   0  0  0  0  0  0  0  0  0  0  0  0  # atno 10764 bound_to 10752
  153.0564  135.6597  154.0698 H   0  0  0  0  0  0  0  0  0  0  0  0  # atno 10765 bound_to 10752
  140.7341  134.3588  157.5161 H   0  0  0  0  0  0  0  0  0  0  0  0  # atno 11005 bound_to 11000
  145.9023  140.9234  143.0496 LP  0  0  0  0  0  0  0  0  0  0  0  0  # atno 17320 bound_to 7965
  144.6727  140.1049  143.7458 LP  0  0  0  0  0  0  0  0  0  0  0  0  # atno 17321 bound_to 7965
  140.7564  143.3066  151.2946 LP  0  0  0  0  0  0  0  0  0  0  0  0  # atno 17342 bound_to 10162
  139.6582  144.0237  152.2674 LP  0  0  0  0  0  0  0  0  0  0  0  0  # atno 17343 bound_to 10162
  155.9742  130.4686  150.6367 LP  0  0  0  0  0  0  0  0  0  0  0  0  # atno 17370 bound_to 10713
  157.4064  131.0817  151.1261 LP  0  0  0  0  0  0  0  0  0  0  0  0  # atno 17371 bound_to 10713
  139.8820  134.9038  156.2862 LP  0  0  0  0  0  0  0  0  0  0  0  0  # atno 17394 bound_to 11000
  140.9895  133.7217  156.0792 LP  0  0  0  0  0  0  0  0  0  0  0  0  # atno 17395 bound_to 11000

$$$$
