AV-unprocessed.smi:1671|AV-procd|sdf|6699|dock8
  -GOLD-   22720 7433D 1   1.00000     0.00000
 Structure written by MMmdl.
 44 45  0  0  0  0  0  0  0  0  1 V2000
  157.9151  135.2735  156.3925 C   0  0  0  0  0  0  0  0  0  0  0  0
  157.0784  136.2994  157.6320 S   0  0  0  0  0  0  0  0  0  0  0  0
  155.9978  135.0719  158.4261 C   0  0  2  0  0  0  0  0  0  0  0  0
  155.0392  134.4265  157.4089 C   0  0  0  0  0  0  0  0  0  0  0  0
  155.2458  135.6954  159.6087 C   0  0  0  0  0  0  0  0  0  0  0  0
  154.0144  135.7253  159.6272 O   0  0  0  0  0  0  0  0  0  0  0  0
  156.0041  136.2018  160.5922 N   0  0  0  0  0  0  0  0  0  0  0  0
  155.4824  136.8596  161.7831 C   0  0  0  0  0  0  0  0  0  0  0  0
  154.8852  138.2227  161.4834 C   0  0  0  0  0  0  0  0  0  0  0  0
  154.0981  138.4433  160.3354 C   0  0  0  0  0  0  0  0  0  0  0  0
  153.5760  139.7299  160.1017 C   0  0  0  0  0  0  0  0  0  0  0  0
  153.8519  140.7675  161.0250 C   0  0  0  0  0  0  0  0  0  0  0  0
  153.3376  142.0675  160.8175 N   0  0  0  0  0  0  0  0  0  0  0  0
  152.5132  142.6562  161.8719 C   0  0  0  0  0  0  0  0  0  0  0  0
  152.3053  144.1578  161.6159 C   0  0  0  0  0  0  0  0  0  0  0  0
  151.7609  144.3513  160.3151 O   0  0  0  0  0  0  0  0  0  0  0  0
  152.6333  143.8767  159.2935 C   0  0  2  0  0  0  0  0  0  0  0  0
  152.0100  144.2132  157.9348 C   0  0  0  0  0  0  0  0  0  0  0  0
  152.8489  142.3611  159.4719 C   0  0  0  0  0  0  0  0  0  0  0  0
  154.6211  140.5505  162.1213 N   0  0  0  0  0  0  0  0  0  0  0  0
  155.1218  139.3164  162.3393 C   0  0  0  0  0  0  0  0  0  0  0  0
  158.6623  135.8647  155.8633 H   0  0  0  0  0  0  0  0  0  0  0  0
  157.2039  134.8906  155.6612 H   0  0  0  0  0  0  0  0  0  0  0  0
  158.4172  134.4308  156.8680 H   0  0  0  0  0  0  0  0  0  0  0  0
  156.6390  134.2873  158.8308 H   0  0  0  0  0  0  0  0  0  0  0  0
  154.3441  133.7423  157.8971 H   0  0  0  0  0  0  0  0  0  0  0  0
  155.5840  133.8494  156.6624 H   0  0  0  0  0  0  0  0  0  0  0  0
  154.4517  135.1784  156.8806 H   0  0  0  0  0  0  0  0  0  0  0  0
  157.0079  136.1456  160.4995 H   0  0  0  0  0  0  0  0  0  0  0  0
  154.7308  136.2164  162.2429 H   0  0  0  0  0  0  0  0  0  0  0  0
  156.2817  136.9916  162.5142 H   0  0  0  0  0  0  0  0  0  0  0  0
  153.9004  137.6427  159.6378 H   0  0  0  0  0  0  0  0  0  0  0  0
  152.9892  139.9048  159.2129 H   0  0  0  0  0  0  0  0  0  0  0  0
  151.5495  142.1459  161.9029 H   0  0  0  0  0  0  0  0  0  0  0  0
  152.9862  142.5221  162.8455 H   0  0  0  0  0  0  0  0  0  0  0  0
  151.6182  144.5722  162.3536 H   0  0  0  0  0  0  0  0  0  0  0  0
  153.2453  144.7032  161.7150 H   0  0  0  0  0  0  0  0  0  0  0  0
  153.5911  144.3948  159.3724 H   0  0  0  0  0  0  0  0  0  0  0  0
  152.6473  143.8776  157.1162 H   0  0  0  0  0  0  0  0  0  0  0  0
  151.8695  145.2889  157.8264 H   0  0  0  0  0  0  0  0  0  0  0  0
  151.0362  143.7366  157.8181 H   0  0  0  0  0  0  0  0  0  0  0  0
  153.5393  142.0131  158.7054 H   0  0  0  0  0  0  0  0  0  0  0  0
  151.9099  141.8274  159.3176 H   0  0  0  0  0  0  0  0  0  0  0  0
  155.7267  139.2016  163.2267 H   0  0  0  0  0  0  0  0  0  0  0  0
  1  2  1  0  0  0  0
  1 22  1  0  0  0  0
  1 23  1  0  0  0  0
  1 24  1  0  0  0  0
  2  3  1  0  0  0  0
  3  4  1  0  0  0  0
  3  5  1  0  0  0  0
  3 25  1  0  0  0  0
  4 26  1  0  0  0  0
  4 27  1  0  0  0  0
  4 28  1  0  0  0  0
  5  6  2  0  0  0  0
  5  7  1  0  0  0  0
  7  8  1  0  0  0  0
  7 29  1  0  0  0  0
  8  9  1  0  0  0  0
  8 30  1  0  0  0  0
  8 31  1  0  0  0  0
  9 21  1  0  0  0  0
  9 10  2  0  0  0  0
 10 11  1  0  0  0  0
 10 32  1  0  0  0  0
 11 12  2  0  0  0  0
 11 33  1  0  0  0  0
 12 13  1  0  0  0  0
 12 20  1  0  0  0  0
 13 19  1  0  0  0  0
 13 14  1  0  0  0  0
 14 15  1  0  0  0  0
 14 34  1  0  0  0  0
 14 35  1  0  0  0  0
 15 16  1  0  0  0  0
 15 36  1  0  0  0  0
 15 37  1  0  0  0  0
 16 17  1  0  0  0  0
 17 18  1  0  0  0  0
 17 19  1  0  0  0  0
 17 38  1  0  0  0  0
 18 39  1  0  0  0  0
 18 40  1  0  0  0  0
 18 41  1  0  0  0  0
 19 42  1  0  0  0  0
 19 43  1  0  0  0  0
 20 21  2  0  0  0  0
 21 44  1  0  0  0  0
M  END
> <s_m_source_file>
AV-unprocessed.smi

> <i_m_source_file_index>
1671

> <i_lp_mmshare_version>
43012

> <i_f3d_flags>
0

> <s_epik_input>
W0NIM11TW0NASF0oW0NIM10pQyg9TylbTkhdW0NIMl1jMVtjSF1bY0hdYyhuW2NIXTEpTjJbQ0gyXVtDSDJdT1tDQEBIXShbQ0gzXSlbQ0gyXTI=

> <s_epik_cmdline>
J2VwaWtfcHl0aG9uJywgJy1waCcsICc3LjAnLCAnLXRuJywgJzgnLCAnLW1hJywgJzIwMCcsICctbWV0YWxfYmluZGluZycsICctaW1hZScsICc8aW5maWxlLm1hZT4nLCAnLW9tYWUnLCAnPG91dGZpbGUubWFlPic=

> <r_lp_tautomer_probability>
1

> <r_epik_Ionization_Penalty>
0.00480033

> <r_epik_Ionization_Penalty_Charging>
0

> <r_epik_Ionization_Penalty_Neutral>
0.00480033

> <r_epik_State_Penalty>
0.00347981

> <r_epik_Charging_Adjusted_Penalty>
0.00347981

> <i_epik_Tot_Q>
0

> <i_epik_Tot_abs_Q>
0

> <r_epik_Metal_State_Penalty>
-0

> <b_epik_Metal_Only>
0

> <s_lp_Force_Field>
OPLS_2005

> <r_lp_Energy>
17.324

> <b_lp_Chiralities_Consistent>
1

> <s_lp_Variant>
AV-unprocessed.smi:1671-3

> <Gold.Version>
5.8.1

> <Gold.Id.Protein>
6NUR|6NUR_protein|mol2

> <Gold.PLP.Fitness>
38.8279

> <Gold.PLP.PLP>
-36.5600

> <Gold.PLP.part.hbond>
-1.0103

> <Gold.PLP.part.metal>
0.0000

> <Gold.PLP.part.buried>
-5.8801

> <Gold.PLP.part.nonpolar>
-29.9566

> <Gold.PLP.part.repulsive>
0.0856

> <Gold.PLP.ligand.clash>
0.0000

> <Gold.PLP.ligand.torsion>
0.5644

> <Gold.PLP.Chemscore.Hbond>
1.0000

> <Gold.PLP.Chemscore.CHOScore>
0.0000

> <Gold.PLP.Chemscore.Metal>
0.0000

> <Gold.Chemscore.Hbonds>
donor molecule, donor type, donor heavy atom, donor atom, acceptor molecule, acceptor atom, score
      P1  H  6896  6908       L1     6  1.00

> <Gold.PLP.Chemscore.Internal.Correction>
0.3968

> <Gold.Rescore>
     Score         DG    S(hbond)    S(metal)    S(lipo)     H(rot)  DE(clash)    DE(int)     intcor
     16.26     -16.93       1.00        0.00     104.97       1.63       0.01       0.66       ----

> <Gold.Chemscore.Fitness>
16.2617

> <Gold.Chemscore.DG>
-16.9328

> <Gold.Chemscore.ZeroCoef>
-5.4800

> <Gold.Chemscore.Hbond>
0.9992

> <Gold.Chemscore.Metal>
0.0000

> <Gold.Chemscore.Lipo>
104.9668

> <Gold.Chemscore.Internal_Hbond>
0.0000

> <Gold.Chemscore.DEClash>
0.0149

> <Gold.Chemscore.DEInternal>
0.6562

> <Gold.Chemscore.Rot>
1.6272

> <Gold.Chemscore.Internal.Correction>
   9.000000E+99

> <Gold.Chemscore.Hbonds>
donor molecule, donor type, donor heavy atom, donor atom, acceptor molecule, acceptor atom, score
      P1  H  6896  6908       L1     6  0.99

> <Gold.Chemscore.Hbond.Weighted>
-3.3374

> <Gold.Chemscore.Metal.Weighted>
-0.0000

> <Gold.Chemscore.Lipo.Weighted>
-12.2811

> <Gold.Chemscore.Internal_Hbond.Weighted>
0.0000

> <Gold.Chemscore.DEClash.Weighted>
0.0149

> <Gold.Chemscore.DEInternal.Weighted>
0.6562

> <Gold.Chemscore.Rot.Weighted>
4.1657

> <Gold.Chemscore.Internal.Correction.Weighted>
   9.000000E+99

> <Gold.Protein.RotatedTorsions>
[ 6907 6896 6895 6894 ] final  -69.68 input  -60.11 | X-H torsion
[ 7974 7965 7964 7962 ] final  -72.05 input  175.53 | X-H torsion
[ 8008 7997 7996 7995 ] final  135.75 input   59.86 | X-H torsion
[ 10167 10162 10161 10158 ] final  167.68 input  -65.29 | X-H torsion
[ 10718 10713 10712 10709 ] final  165.75 input   66.30 | X-H torsion
[ 10763 10752 10751 10750 ] final  126.95 input  -60.55 | X-H torsion
[ 11005 11000 10999 10996 ] final  -51.44 input  -57.11 | X-H torsion

> <Gold.Protein.ActiveResidues>
 VAL166  LYS551  ARG553  GLY616  TRP617  ASP618  TYR619  PRO620  LYS621  CYS622 
 ASP623  PHE694  ASN695  SER759  ASP760  ASP761  ALA762  ILE779  LEU786  VAL792 
 PHE793  MET794  SER795  GLU796  ALA797  LYS798  CYS799  TRP800  GLU811  SER814 

> <Gold.Protein.RotatedAtoms>
  150.7294  134.5562  159.5819 H   0  0  0  0  0  0  0  0  0  0  0  0  # atno 6907 bound_to 6896
  152.3037  134.7578  160.0361 H   0  0  0  0  0  0  0  0  0  0  0  0  # atno 6908 bound_to 6896
  151.8149  133.3351  159.3603 H   0  0  0  0  0  0  0  0  0  0  0  0  # atno 6909 bound_to 6896
  145.6701  140.9224  143.0887 H   0  0  0  0  0  0  0  0  0  0  0  0  # atno 7974 bound_to 7965
  156.3003  140.2462  156.3633 H   0  0  0  0  0  0  0  0  0  0  0  0  # atno 8008 bound_to 7997
  154.8857  140.0411  157.1828 H   0  0  0  0  0  0  0  0  0  0  0  0  # atno 8009 bound_to 7997
  154.8650  140.2926  155.5520 H   0  0  0  0  0  0  0  0  0  0  0  0  # atno 8010 bound_to 7997
  139.4951  144.3895  151.9533 H   0  0  0  0  0  0  0  0  0  0  0  0  # atno 10167 bound_to 10162
  157.0756  131.0378  151.2595 H   0  0  0  0  0  0  0  0  0  0  0  0  # atno 10718 bound_to 10713
  153.7016  135.3282  155.3226 H   0  0  0  0  0  0  0  0  0  0  0  0  # atno 10763 bound_to 10752
  154.8411  135.4455  154.1405 H   0  0  0  0  0  0  0  0  0  0  0  0  # atno 10764 bound_to 10752
  153.2474  135.6977  153.7794 H   0  0  0  0  0  0  0  0  0  0  0  0  # atno 10765 bound_to 10752
  141.0871  133.6640  156.3878 H   0  0  0  0  0  0  0  0  0  0  0  0  # atno 11005 bound_to 11000
  144.7060  139.8561  143.7430 LP  0  0  0  0  0  0  0  0  0  0  0  0  # atno 17320 bound_to 7965
  146.1052  139.4051  143.0322 LP  0  0  0  0  0  0  0  0  0  0  0  0  # atno 17321 bound_to 7965
  140.3333  144.3291  150.5982 LP  0  0  0  0  0  0  0  0  0  0  0  0  # atno 17342 bound_to 10162
  140.5627  143.2190  151.7737 LP  0  0  0  0  0  0  0  0  0  0  0  0  # atno 17343 bound_to 10162
  157.4842  130.7783  149.7444 LP  0  0  0  0  0  0  0  0  0  0  0  0  # atno 17370 bound_to 10713
  155.9938  130.3922  150.2886 LP  0  0  0  0  0  0  0  0  0  0  0  0  # atno 17371 bound_to 10713
  140.5338  134.6187  157.5358 LP  0  0  0  0  0  0  0  0  0  0  0  0  # atno 17394 bound_to 11000
  139.9691  134.7323  156.0078 LP  0  0  0  0  0  0  0  0  0  0  0  0  # atno 17395 bound_to 11000

$$$$
