AV-unprocessed.smi:1878|AV-procd|sdf|7627|dock1
  -GOLD-   22720 9353D 1   1.00000     0.00000
 Structure written by MMmdl.
 36 37  0  0  0  0  0  0  0  0  2 V2000
  147.0398  140.2918  153.7055 O   0  0  0  0  0  0  0  0  0  0  0  0
  147.8462  139.3969  153.4536 C   0  0  0  0  0  0  0  0  0  0  0  0
  147.6023  138.4032  152.5885 N   0  0  0  0  0  0  0  0  0  0  0  0
  146.3575  138.2215  151.8483 C   0  0  0  0  0  0  0  0  0  0  0  0
  145.6351  136.9238  152.2483 C   0  0  0  0  0  0  0  0  0  0  0  0
  145.6103  136.0972  151.2037 F   0  0  0  0  0  0  0  0  0  0  0  0
  146.2826  136.3271  153.2494 F   0  0  0  0  0  0  0  0  0  0  0  0
  144.3806  137.1723  152.6244 F   0  0  0  0  0  0  0  0  0  0  0  0
  149.0621  139.2682  154.0119 N   0  0  0  0  0  0  0  0  0  0  0  0
  149.6896  140.1115  154.9682 C   0  0  0  0  0  0  0  0  0  0  0  0
  150.7586  139.7037  155.8049 C   0  0  0  0  0  0  0  0  0  0  0  0
  151.2993  140.6158  156.7343 C   0  0  0  0  0  0  0  0  0  0  0  0
  150.7618  141.9210  156.8234 C   0  0  0  0  0  0  0  0  0  0  0  0
  151.2321  142.9003  157.7094 N   0  0  0  0  0  0  0  0  0  0  0  0
  151.7306  144.1049  157.0667 C   0  0  0  0  0  0  0  0  0  0  0  0
  152.5645  144.8257  158.1293 C   0  0  0  0  0  0  0  0  0  0  0  0
  152.9199  143.7426  159.1549 C   0  0  0  0  0  0  0  0  0  0  0  0
  152.2850  142.4608  158.6098 C   0  0  0  0  0  0  0  0  0  0  0  0
  149.7350  142.2646  156.0157 N   0  3  0  0  0  0  0  0  0  0  0  0
  149.1874  141.4218  155.1135 C   0  0  0  0  0  0  0  0  0  0  0  0
  148.3194  137.7075  152.4445 H   0  0  0  0  0  0  0  0  0  0  0  0
  145.6995  139.0817  151.9843 H   0  0  0  0  0  0  0  0  0  0  0  0
  146.6036  138.1910  150.7865 H   0  0  0  0  0  0  0  0  0  0  0  0
  149.5746  138.4333  153.7678 H   0  0  0  0  0  0  0  0  0  0  0  0
  151.1676  138.7063  155.7631 H   0  0  0  0  0  0  0  0  0  0  0  0
  152.1164  140.3084  157.3704 H   0  0  0  0  0  0  0  0  0  0  0  0
  152.3544  143.8521  156.2082 H   0  0  0  0  0  0  0  0  0  0  0  0
  150.9089  144.7283  156.7126 H   0  0  0  0  0  0  0  0  0  0  0  0
  153.4492  145.2916  157.6945 H   0  0  0  0  0  0  0  0  0  0  0  0
  151.9764  145.6108  158.6063 H   0  0  0  0  0  0  0  0  0  0  0  0
  153.9966  143.6327  159.2881 H   0  0  0  0  0  0  0  0  0  0  0  0
  152.4896  143.9955  160.1249 H   0  0  0  0  0  0  0  0  0  0  0  0
  151.8813  141.8424  159.4120 H   0  0  0  0  0  0  0  0  0  0  0  0
  153.0311  141.8721  158.0751 H   0  0  0  0  0  0  0  0  0  0  0  0
  148.3703  141.8244  154.5323 H   0  0  0  0  0  0  0  0  0  0  0  0
  149.3536  143.2080  156.0920 H   0  0  0  0  0  0  0  0  0  0  0  0
  1  2  2  0  0  0  0
  2  3  1  0  0  0  0
  2  9  1  0  0  0  0
  3  4  1  0  0  0  0
  3 21  1  0  0  0  0
  4  5  1  0  0  0  0
  4 22  1  0  0  0  0
  4 23  1  0  0  0  0
  5  6  1  0  0  0  0
  5  7  1  0  0  0  0
  5  8  1  0  0  0  0
  9 10  1  0  0  0  0
  9 24  1  0  0  0  0
 10 20  1  0  0  0  0
 10 11  2  0  0  0  0
 11 12  1  0  0  0  0
 11 25  1  0  0  0  0
 12 13  2  0  0  0  0
 12 26  1  0  0  0  0
 13 14  1  0  0  0  0
 13 19  1  0  0  0  0
 14 18  1  0  0  0  0
 14 15  1  0  0  0  0
 15 16  1  0  0  0  0
 15 27  1  0  0  0  0
 15 28  1  0  0  0  0
 16 17  1  0  0  0  0
 16 29  1  0  0  0  0
 16 30  1  0  0  0  0
 17 18  1  0  0  0  0
 17 31  1  0  0  0  0
 17 32  1  0  0  0  0
 18 33  1  0  0  0  0
 18 34  1  0  0  0  0
 19 20  2  0  0  0  0
 19 36  1  0  0  0  0
 20 35  1  0  0  0  0
M  CHG  1  19   1
M  END
> <s_m_source_file>
AV-unprocessed.smi

> <i_m_source_file_index>
1878

> <i_lp_mmshare_version>
43012

> <i_f3d_flags>
0

> <s_epik_input>
RkMoRikoRilbQ0gyXVtOSF1DKD1PKVtOSF1jMVtjSF1bY0hdYyhuW2NIXTEpTjJbQ0gyXVtDSDJdW0NIMl1bQ0gyXTI=

> <s_epik_cmdline>
J2VwaWtfcHl0aG9uJywgJy1waCcsICc3LjAnLCAnLXRuJywgJzgnLCAnLW1hJywgJzIwMCcsICctbWV0YWxfYmluZGluZycsICctaW1hZScsICc8aW5maWxlLm1hZT4nLCAnLW9tYWUnLCAnPG91dGZpbGUubWFlPic=

> <r_lp_tautomer_probability>
0.999994

> <r_epik_Ionization_Penalty>
1.23546

> <r_epik_Ionization_Penalty_Charging>
1.23541

> <r_epik_Ionization_Penalty_Neutral>
4.98032e-05

> <r_epik_State_Penalty>
1.30389

> <r_epik_Charging_Adjusted_Penalty>
2.5393

> <i_epik_Tot_Q>
1

> <i_epik_Tot_abs_Q>
1

> <r_epik_Metal_State_Penalty>
1.39467

> <b_epik_Metal_Only>
0

> <s_lp_Force_Field>
OPLS_2005

> <r_lp_Energy>
38.4411

> <b_lp_Chiralities_Consistent>
1

> <s_lp_Variant>
AV-unprocessed.smi:1878-2

> <Gold.Version>
5.8.1

> <Gold.Id.Protein>
6NUR|6NUR_protein|mol2

> <Gold.PLP.Fitness>
46.9005

> <Gold.PLP.PLP>
-40.2967

> <Gold.PLP.part.hbond>
-4.0000

> <Gold.PLP.part.metal>
0.0000

> <Gold.PLP.part.buried>
-0.9366

> <Gold.PLP.part.nonpolar>
-37.2589

> <Gold.PLP.part.repulsive>
0.5121

> <Gold.PLP.ligand.clash>
0.0000

> <Gold.PLP.ligand.torsion>
1.2135

> <Gold.PLP.Chemscore.Hbond>
3.0000

> <Gold.PLP.Chemscore.CHOScore>
0.0000

> <Gold.PLP.Chemscore.Metal>
0.0000

> <Gold.Chemscore.Hbonds>
donor molecule, donor type, donor heavy atom, donor atom, acceptor molecule, acceptor atom, score
      L1  H     3    21       P1  7948  1.00
      L1  H    19    36       P1  8028  2.00

> <Gold.PLP.Chemscore.Internal.Correction>
0.0309

> <Gold.Rescore>
     Score         DG    S(hbond)    S(metal)    S(lipo)     H(rot)  DE(clash)    DE(int)     intcor
     16.74     -19.02       1.99        0.00      88.29       1.34       0.04       2.23       ----

> <Gold.Chemscore.Fitness>
16.7436

> <Gold.Chemscore.DG>
-19.0202

> <Gold.Chemscore.ZeroCoef>
-5.4800

> <Gold.Chemscore.Hbond>
1.9906

> <Gold.Chemscore.Metal>
0.0000

> <Gold.Chemscore.Lipo>
88.2884

> <Gold.Chemscore.Internal_Hbond>
0.0000

> <Gold.Chemscore.DEClash>
0.0418

> <Gold.Chemscore.DEInternal>
2.2348

> <Gold.Chemscore.Rot>
1.3430

> <Gold.Chemscore.Internal.Correction>
   9.000000E+99

> <Gold.Chemscore.Hbonds>
donor molecule, donor type, donor heavy atom, donor atom, acceptor molecule, acceptor atom, score
      L1  H     3    21       P1  7948  0.98
      L1  H    19    36       P1  8028  0.99

> <Gold.Chemscore.Hbond.Weighted>
-6.6486

> <Gold.Chemscore.Metal.Weighted>
-0.0000

> <Gold.Chemscore.Lipo.Weighted>
-10.3297

> <Gold.Chemscore.Internal_Hbond.Weighted>
0.0000

> <Gold.Chemscore.DEClash.Weighted>
0.0418

> <Gold.Chemscore.DEInternal.Weighted>
2.2348

> <Gold.Chemscore.Rot.Weighted>
3.4381

> <Gold.Chemscore.Internal.Correction.Weighted>
   9.000000E+99

> <Gold.Protein.RotatedTorsions>
[ 6907 6896 6895 6894 ] final  -81.84 input  -60.11 | X-H torsion
[ 7974 7965 7964 7962 ] final -137.50 input  175.53 | X-H torsion
[ 8008 7997 7996 7995 ] final -158.91 input   59.86 | X-H torsion
[ 10167 10162 10161 10158 ] final  -67.47 input  -65.29 | X-H torsion
[ 10718 10713 10712 10709 ] final  -71.54 input   66.30 | X-H torsion
[ 10763 10752 10751 10750 ] final  -73.30 input  -60.55 | X-H torsion
[ 11005 11000 10999 10996 ] final  138.35 input  -57.11 | X-H torsion

> <Gold.Protein.ActiveResidues>
 VAL166  LYS551  ARG553  GLY616  TRP617  ASP618  TYR619  PRO620  LYS621  CYS622 
 ASP623  PHE694  ASN695  SER759  ASP760  ASP761  ALA762  ILE779  LEU786  VAL792 
 PHE793  MET794  SER795  GLU796  ALA797  LYS798  CYS799  TRP800  GLU811  SER814 

> <Gold.Protein.RotatedAtoms>
  150.6906  134.3756  159.5011 H   0  0  0  0  0  0  0  0  0  0  0  0  # atno 6907 bound_to 6896
  152.1566  134.8943  160.0553 H   0  0  0  0  0  0  0  0  0  0  0  0  # atno 6908 bound_to 6896
  152.0021  133.3794  159.4223 H   0  0  0  0  0  0  0  0  0  0  0  0  # atno 6909 bound_to 6896
  144.8837  140.6544  143.5189 H   0  0  0  0  0  0  0  0  0  0  0  0  # atno 7974 bound_to 7965
  155.7547  140.0831  157.2184 H   0  0  0  0  0  0  0  0  0  0  0  0  # atno 8008 bound_to 7997
  154.4009  140.1554  156.2820 H   0  0  0  0  0  0  0  0  0  0  0  0  # atno 8009 bound_to 7997
  155.8897  140.3416  155.5950 H   0  0  0  0  0  0  0  0  0  0  0  0  # atno 8010 bound_to 7997
  140.5580  143.2312  151.6783 H   0  0  0  0  0  0  0  0  0  0  0  0  # atno 10167 bound_to 10162
  156.0358  130.4353  150.2459 H   0  0  0  0  0  0  0  0  0  0  0  0  # atno 10718 bound_to 10713
  154.4575  135.5902  153.6233 H   0  0  0  0  0  0  0  0  0  0  0  0  # atno 10763 bound_to 10752
  152.9820  135.6036  154.3527 H   0  0  0  0  0  0  0  0  0  0  0  0  # atno 10764 bound_to 10752
  154.3395  135.2842  155.2409 H   0  0  0  0  0  0  0  0  0  0  0  0  # atno 10765 bound_to 10752
  140.0178  134.9410  157.0411 H   0  0  0  0  0  0  0  0  0  0  0  0  # atno 11005 bound_to 11000
  145.3908  139.1617  143.4230 LP  0  0  0  0  0  0  0  0  0  0  0  0  # atno 17320 bound_to 7965
  146.3011  140.3997  142.8704 LP  0  0  0  0  0  0  0  0  0  0  0  0  # atno 17321 bound_to 7965
  139.5057  144.3709  152.0471 LP  0  0  0  0  0  0  0  0  0  0  0  0  # atno 17342 bound_to 10162
  140.2832  144.3836  150.6112 LP  0  0  0  0  0  0  0  0  0  0  0  0  # atno 17343 bound_to 10162
  157.0558  131.0076  151.3239 LP  0  0  0  0  0  0  0  0  0  0  0  0  # atno 17370 bound_to 10713
  157.5107  130.7936  149.7702 LP  0  0  0  0  0  0  0  0  0  0  0  0  # atno 17371 bound_to 10713
  140.4441  134.1651  155.7176 LP  0  0  0  0  0  0  0  0  0  0  0  0  # atno 17394 bound_to 11000
  141.1754  133.8525  157.1438 LP  0  0  0  0  0  0  0  0  0  0  0  0  # atno 17395 bound_to 11000

$$$$
