AV-unprocessed.smi:1795|AV-procd|sdf|7248|dock4
  -GOLD-   22720 8503D 1   1.00000     0.00000
 Structure written by MMmdl.
 48 49  0  0  0  0  0  0  0  0  2 V2000
  145.9209  137.3903  152.6134 C   0  0  0  0  0  0  0  0  0  0  0  0
  146.1630  137.9092  154.0423 C   0  0  1  0  0  0  0  0  0  0  0  0
  147.2886  137.1616  154.7863 C   0  0  0  0  0  0  0  0  0  0  0  0
  148.6411  137.5580  154.3039 N   0  3  2  0  0  0  0  0  0  0  0  0
  149.7911  136.8576  154.9676 C   0  0  2  0  0  0  0  0  0  0  0  0
  149.5515  135.3296  154.9894 C   0  0  0  0  0  0  0  0  0  0  0  0
  150.0876  137.3693  156.4066 C   0  0  0  0  0  0  0  0  0  0  0  0
  148.9393  137.2636  157.3031 N   0  0  0  0  0  0  0  0  0  0  0  0
  148.8497  136.4125  158.3365 C   0  0  0  0  0  0  0  0  0  0  0  0
  149.7346  135.6034  158.6182 O   0  0  0  0  0  0  0  0  0  0  0  0
  147.5535  136.4761  159.1563 C   0  0  0  0  0  0  0  0  0  0  0  0
  147.5165  135.4960  160.2545 N   0  0  0  0  0  0  0  0  0  0  0  0
  147.5475  134.1322  159.9006 C   0  0  0  0  0  0  0  0  0  0  0  0
  147.5230  133.1582  160.8243 C   0  0  0  0  0  0  0  0  0  0  0  0
  147.4623  133.5382  162.2158 C   0  0  0  0  0  0  0  0  0  0  0  0
  147.4356  134.8397  162.5655 C   0  0  0  0  0  0  0  0  0  0  0  0
  147.4660  135.9077  161.5594 C   0  0  0  0  0  0  0  0  0  0  0  0
  147.4483  137.0994  161.8697 O   0  0  0  0  0  0  0  0  0  0  0  0
  148.7664  139.0398  154.3575 C   0  0  0  0  0  0  0  0  0  0  0  0
  147.6458  139.7228  153.5555 C   0  0  2  0  0  0  0  0  0  0  0  0
  147.7202  141.2511  153.6490 C   0  0  0  0  0  0  0  0  0  0  0  0
  146.3857  139.3160  154.0741 O   0  0  0  0  0  0  0  0  0  0  0  0
  145.6063  136.3466  152.6297 H   0  0  0  0  0  0  0  0  0  0  0  0
  146.8150  137.4479  151.9934 H   0  0  0  0  0  0  0  0  0  0  0  0
  145.1335  137.9617  152.1212 H   0  0  0  0  0  0  0  0  0  0  0  0
  145.2372  137.7421  154.5940 H   0  0  0  0  0  0  0  0  0  0  0  0
  147.2215  137.3648  155.8565 H   0  0  0  0  0  0  0  0  0  0  0  0
  147.1156  136.0951  154.6480 H   0  0  0  0  0  0  0  0  0  0  0  0
  150.6791  137.0560  154.3651 H   0  0  0  0  0  0  0  0  0  0  0  0
  150.3778  134.7956  155.4584 H   0  0  0  0  0  0  0  0  0  0  0  0
  149.4565  134.9016  153.9934 H   0  0  0  0  0  0  0  0  0  0  0  0
  148.6456  135.0826  155.5439 H   0  0  0  0  0  0  0  0  0  0  0  0
  150.9022  136.8131  156.8716 H   0  0  0  0  0  0  0  0  0  0  0  0
  150.3971  138.4144  156.3767 H   0  0  0  0  0  0  0  0  0  0  0  0
  148.1660  137.8912  157.1354 H   0  0  0  0  0  0  0  0  0  0  0  0
  147.4184  137.4851  159.5515 H   0  0  0  0  0  0  0  0  0  0  0  0
  146.7147  136.3218  158.4762 H   0  0  0  0  0  0  0  0  0  0  0  0
  147.6001  133.9325  158.8402 H   0  0  0  0  0  0  0  0  0  0  0  0
  147.5518  132.1180  160.5344 H   0  0  0  0  0  0  0  0  0  0  0  0
  147.4391  132.7754  162.9801 H   0  0  0  0  0  0  0  0  0  0  0  0
  147.3910  135.1049  163.6118 H   0  0  0  0  0  0  0  0  0  0  0  0
  148.7367  139.3685  155.3979 H   0  0  0  0  0  0  0  0  0  0  0  0
  149.7208  139.3687  153.9519 H   0  0  0  0  0  0  0  0  0  0  0  0
  147.7246  139.4465  152.5040 H   0  0  0  0  0  0  0  0  0  0  0  0
  148.6677  141.6234  153.2583 H   0  0  0  0  0  0  0  0  0  0  0  0
  147.6273  141.5898  154.6813 H   0  0  0  0  0  0  0  0  0  0  0  0
  146.9195  141.7156  153.0732 H   0  0  0  0  0  0  0  0  0  0  0  0
  148.6745  137.2952  153.3292 H   0  0  0  0  0  0  0  0  0  0  0  0
  1  2  1  0  0  0  0
  1 23  1  0  0  0  0
  1 24  1  0  0  0  0
  1 25  1  0  0  0  0
  2 22  1  0  0  0  0
  2  3  1  0  0  0  0
  2 26  1  0  0  0  0
  3  4  1  0  0  0  0
  3 27  1  0  0  0  0
  3 28  1  0  0  0  0
  4  5  1  0  0  0  0
  4 19  1  0  0  0  0
  4 48  1  0  0  0  0
  5  6  1  0  0  0  0
  5  7  1  0  0  0  0
  5 29  1  0  0  0  0
  6 30  1  0  0  0  0
  6 31  1  0  0  0  0
  6 32  1  0  0  0  0
  7  8  1  0  0  0  0
  7 33  1  0  0  0  0
  7 34  1  0  0  0  0
  8  9  1  0  0  0  0
  8 35  1  0  0  0  0
  9 10  2  0  0  0  0
  9 11  1  0  0  0  0
 11 12  1  0  0  0  0
 11 36  1  0  0  0  0
 11 37  1  0  0  0  0
 12 17  1  0  0  0  0
 12 13  1  0  0  0  0
 13 14  2  0  0  0  0
 13 38  1  0  0  0  0
 14 15  1  0  0  0  0
 14 39  1  0  0  0  0
 15 16  2  0  0  0  0
 15 40  1  0  0  0  0
 16 17  1  0  0  0  0
 16 41  1  0  0  0  0
 17 18  2  0  0  0  0
 19 20  1  0  0  0  0
 19 42  1  0  0  0  0
 19 43  1  0  0  0  0
 20 21  1  0  0  0  0
 20 22  1  0  0  0  0
 20 44  1  0  0  0  0
 21 45  1  0  0  0  0
 21 46  1  0  0  0  0
 21 47  1  0  0  0  0
M  CHG  1   4   1
M  END
> <s_m_source_file>
AV-unprocessed.smi

> <i_m_source_file_index>
1795

> <i_lp_mmshare_version>
43012

> <i_f3d_flags>
0

> <s_epik_input>
W0NIM11bQ0BASF0xW0NIMl1OKFtDSDJdW0NASF0oTzEpW0NIM10pW0NASF0oW0NIM10pW0NIMl1bTkhdQyg9TylbQ0gyXW4yW2NIXVtjSF1bY0hdW2NIXWMyPU8=

> <s_epik_cmdline>
J2VwaWtfcHl0aG9uJywgJy1waCcsICc3LjAnLCAnLXRuJywgJzgnLCAnLW1hJywgJzIwMCcsICctbWV0YWxfYmluZGluZycsICctaW1hZScsICc8aW5maWxlLm1hZT4nLCAnLW9tYWUnLCAnPG91dGZpbGUubWFlPic=

> <r_lp_tautomer_probability>
1

> <r_epik_Ionization_Penalty>
0.656654

> <r_epik_Ionization_Penalty_Charging>
0.656654

> <r_epik_Ionization_Penalty_Neutral>
8.90321e-08

> <r_epik_State_Penalty>
0.675641

> <r_epik_Charging_Adjusted_Penalty>
1.33229

> <i_epik_Tot_Q>
1

> <i_epik_Tot_abs_Q>
1

> <r_epik_Metal_State_Penalty>
0.675691

> <b_epik_Metal_Only>
0

> <s_lp_Force_Field>
OPLS_2005

> <r_lp_Energy>
31.4881

> <b_lp_Chiralities_Consistent>
1

> <s_lp_Variant>
AV-unprocessed.smi:1795-12

> <Gold.Version>
5.8.1

> <Gold.Id.Protein>
6NUR|6NUR_protein|mol2

> <Gold.PLP.Fitness>
47.3243

> <Gold.PLP.PLP>
-33.6944

> <Gold.PLP.part.hbond>
-4.0000

> <Gold.PLP.part.metal>
0.0000

> <Gold.PLP.part.buried>
-3.9176

> <Gold.PLP.part.nonpolar>
-25.9152

> <Gold.PLP.part.repulsive>
0.1514

> <Gold.PLP.ligand.clash>
0.0000

> <Gold.PLP.ligand.torsion>
0.1827

> <Gold.PLP.Chemscore.Hbond>
4.6480

> <Gold.PLP.Chemscore.CHOScore>
0.0000

> <Gold.PLP.Chemscore.Metal>
0.0000

> <Gold.Chemscore.Hbonds>
donor molecule, donor type, donor heavy atom, donor atom, acceptor molecule, acceptor atom, score
      L1  H     4    48       P1  7948  2.00
      P1  H  6896  6907       L1    10  1.00
      P1  H  6931  6943       L1    18  0.98
      P1  H  6934  6947       L1    18  0.55

> <Gold.PLP.Chemscore.Internal.Correction>
0.0512

> <Gold.Rescore>
     Score         DG    S(hbond)    S(metal)    S(lipo)     H(rot)  DE(clash)    DE(int)     intcor
     19.53     -21.11       3.60        0.00      72.14       1.89       0.03       1.55       ----

> <Gold.Chemscore.Fitness>
19.5266

> <Gold.Chemscore.DG>
-21.1062

> <Gold.Chemscore.ZeroCoef>
-5.4800

> <Gold.Chemscore.Hbond>
3.5977

> <Gold.Chemscore.Metal>
0.0000

> <Gold.Chemscore.Lipo>
72.1416

> <Gold.Chemscore.Internal_Hbond>
0.0000

> <Gold.Chemscore.DEClash>
0.0308

> <Gold.Chemscore.DEInternal>
1.5488

> <Gold.Chemscore.Rot>
1.8870

> <Gold.Chemscore.Internal.Correction>
   9.000000E+99

> <Gold.Chemscore.Hbonds>
donor molecule, donor type, donor heavy atom, donor atom, acceptor molecule, acceptor atom, score
      L1  H     4    48       P1  7948  0.99
      P1  H  6896  6907       L1    10  0.99
      P1  H  6931  6943       L1    18  0.91
      P1  H  6934  6947       L1    18  0.54

> <Gold.Chemscore.Hbond.Weighted>
-12.0164

> <Gold.Chemscore.Metal.Weighted>
-0.0000

> <Gold.Chemscore.Lipo.Weighted>
-8.4406

> <Gold.Chemscore.Internal_Hbond.Weighted>
0.0000

> <Gold.Chemscore.DEClash.Weighted>
0.0308

> <Gold.Chemscore.DEInternal.Weighted>
1.5488

> <Gold.Chemscore.Rot.Weighted>
4.8308

> <Gold.Chemscore.Internal.Correction.Weighted>
   9.000000E+99

> <Gold.Protein.RotatedTorsions>
[ 6907 6896 6895 6894 ] final  -55.30 input  -60.11 | X-H torsion
[ 7974 7965 7964 7962 ] final  106.77 input  175.53 | X-H torsion
[ 8008 7997 7996 7995 ] final  -37.53 input   59.86 | X-H torsion
[ 10167 10162 10161 10158 ] final   41.78 input  -65.29 | X-H torsion
[ 10718 10713 10712 10709 ] final  141.07 input   66.30 | X-H torsion
[ 10763 10752 10751 10750 ] final -131.16 input  -60.55 | X-H torsion
[ 11005 11000 10999 10996 ] final   35.40 input  -57.11 | X-H torsion

> <Gold.Protein.ActiveResidues>
 VAL166  LYS551  ARG553  GLY616  TRP617  ASP618  TYR619  PRO620  LYS621  CYS622 
 ASP623  PHE694  ASN695  SER759  ASP760  ASP761  ALA762  ILE779  LEU786  VAL792 
 PHE793  MET794  SER795  GLU796  ALA797  LYS798  CYS799  TRP800  GLU811  SER814 

> <Gold.Protein.RotatedAtoms>
  150.8263  134.7495  159.6815 H   0  0  0  0  0  0  0  0  0  0  0  0  # atno 6907 bound_to 6896
  152.4373  134.5657  159.9916 H   0  0  0  0  0  0  0  0  0  0  0  0  # atno 6908 bound_to 6896
  151.5829  133.3338  159.3048 H   0  0  0  0  0  0  0  0  0  0  0  0  # atno 6909 bound_to 6896
  145.3023  139.2565  143.3807 H   0  0  0  0  0  0  0  0  0  0  0  0  # atno 7974 bound_to 7965
  154.4052  140.1602  156.2551 H   0  0  0  0  0  0  0  0  0  0  0  0  # atno 8008 bound_to 7997
  155.9085  140.3429  155.6058 H   0  0  0  0  0  0  0  0  0  0  0  0  # atno 8009 bound_to 7997
  155.7364  140.0787  157.2256 H   0  0  0  0  0  0  0  0  0  0  0  0  # atno 8010 bound_to 7997
  140.3609  144.2229  150.6138 H   0  0  0  0  0  0  0  0  0  0  0  0  # atno 10167 bound_to 10162
  157.3961  131.1011  151.0598 H   0  0  0  0  0  0  0  0  0  0  0  0  # atno 10718 bound_to 10713
  154.8752  135.3839  154.4200 H   0  0  0  0  0  0  0  0  0  0  0  0  # atno 10763 bound_to 10752
  153.4905  135.7030  153.5892 H   0  0  0  0  0  0  0  0  0  0  0  0  # atno 10764 bound_to 10752
  153.4268  135.3888  155.2112 H   0  0  0  0  0  0  0  0  0  0  0  0  # atno 10765 bound_to 10752
  140.2431  134.3391  155.7918 H   0  0  0  0  0  0  0  0  0  0  0  0  # atno 11005 bound_to 11000
  146.3147  140.3540  142.8659 LP  0  0  0  0  0  0  0  0  0  0  0  0  # atno 17320 bound_to 7965
  144.9083  140.7726  143.5823 LP  0  0  0  0  0  0  0  0  0  0  0  0  # atno 17321 bound_to 7965
  140.5128  143.2286  151.8509 LP  0  0  0  0  0  0  0  0  0  0  0  0  # atno 17342 bound_to 10162
  139.4814  144.4930  151.9160 LP  0  0  0  0  0  0  0  0  0  0  0  0  # atno 17343 bound_to 10162
  157.1614  130.6227  149.5612 LP  0  0  0  0  0  0  0  0  0  0  0  0  # atno 17370 bound_to 10713
  155.9811  130.4816  150.6808 LP  0  0  0  0  0  0  0  0  0  0  0  0  # atno 17371 bound_to 10713
  141.2209  133.7310  156.8917 LP  0  0  0  0  0  0  0  0  0  0  0  0  # atno 17394 bound_to 11000
  140.1633  134.9150  157.2742 LP  0  0  0  0  0  0  0  0  0  0  0  0  # atno 17395 bound_to 11000

$$$$
