AV-unprocessed.smi:72|AV-procd|sdf|705|dock10
  -GOLD-   2262017 23D 1   1.00000     0.00000
 Structure written by MMmdl.
 30 31  0  0  0  0  0  0  0  0  2 V2000
  152.7195  141.6849  159.2154 N   0  0  0  0  0  0  0  0  0  0  0  0
  152.1659  141.2083  158.0452 C   0  0  0  0  0  0  0  0  0  0  0  0
  151.1247  141.9280  157.4867 N   0  3  0  0  0  0  0  0  0  0  0  0
  150.4820  141.6040  156.3563 C   0  0  0  0  0  0  0  0  0  0  0  0
  150.8453  140.5191  155.7023 N   0  0  0  0  0  0  0  0  0  0  0  0
  150.1622  140.0934  154.4248 C   0  0  2  0  0  0  0  0  0  0  0  0
  149.2289  141.0701  154.0733 O   0  0  0  0  0  0  0  0  0  0  0  0
  147.9074  140.5965  154.3144 C   0  0  1  0  0  0  0  0  0  0  0  0
  146.8759  141.3702  153.4755 C   0  0  0  0  0  0  0  0  0  0  0  0
  145.5971  141.2527  154.0615 O   0  0  0  0  0  0  0  0  0  0  0  0
  148.0233  139.0983  154.0102 C   0  0  1  0  0  0  0  0  0  0  0  0
  147.9740  138.8528  152.6166 O   0  0  0  0  0  0  0  0  0  0  0  0
  149.4001  138.7527  154.5622 C   0  0  2  0  0  0  0  0  0  0  0  0
  149.2733  138.2999  155.8999 O   0  0  0  0  0  0  0  0  0  0  0  0
  151.9027  139.7143  156.1995 C   0  0  0  0  0  0  0  0  0  0  0  0
  152.2430  138.6947  155.6005 O   0  0  0  0  0  0  0  0  0  0  0  0
  152.5160  140.1376  157.3878 N   0  0  0  0  0  0  0  0  0  0  0  0
  150.9393  140.0793  153.6587 H   0  0  0  0  0  0  0  0  0  0  0  0
  147.6757  140.7022  155.3757 H   0  0  0  0  0  0  0  0  0  0  0  0
  147.2238  138.5239  154.4806 H   0  0  0  0  0  0  0  0  0  0  0  0
  149.9035  137.9791  153.9806 H   0  0  0  0  0  0  0  0  0  0  0  0
  153.4829  141.2259  159.6925 H   0  0  0  0  0  0  0  0  0  0  0  0
  152.4096  142.5221  159.6874 H   0  0  0  0  0  0  0  0  0  0  0  0
  149.6813  142.2407  156.0052 H   0  0  0  0  0  0  0  0  0  0  0  0
  147.1502  142.4207  153.3733 H   0  0  0  0  0  0  0  0  0  0  0  0
  146.8152  140.9484  152.4719 H   0  0  0  0  0  0  0  0  0  0  0  0
  144.9507  141.2352  153.3719 H   0  0  0  0  0  0  0  0  0  0  0  0
  148.6354  139.3783  152.1928 H   0  0  0  0  0  0  0  0  0  0  0  0
  149.1054  137.3696  155.8859 H   0  0  0  0  0  0  0  0  0  0  0  0
  150.8287  142.7636  157.9708 H   0  0  0  0  0  0  0  0  0  0  0  0
  1  2  1  0  0  0  0
  1 22  1  0  0  0  0
  1 23  1  0  0  0  0
  2 17  2  0  0  0  0
  2  3  1  0  0  0  0
  3  4  2  0  0  0  0
  3 30  1  0  0  0  0
  4  5  1  0  0  0  0
  4 24  1  0  0  0  0
  5  6  1  0  0  0  0
  5 15  1  0  0  0  0
  6 18  1  0  0  0  0
  6 13  1  0  0  0  0
  6  7  1  0  0  0  0
  7  8  1  0  0  0  0
  8 19  1  0  0  0  0
  8  9  1  0  0  0  0
  8 11  1  0  0  0  0
  9 10  1  0  0  0  0
  9 25  1  0  0  0  0
  9 26  1  0  0  0  0
 10 27  1  0  0  0  0
 11 20  1  0  0  0  0
 11 12  1  0  0  0  0
 11 13  1  0  0  0  0
 12 28  1  0  0  0  0
 13 21  1  0  0  0  0
 13 14  1  0  0  0  0
 14 29  1  0  0  0  0
 15 16  2  0  0  0  0
 15 17  1  0  0  0  0
M  CHG  1   3   1
M  END
> <s_m_source_file>
AV-unprocessed.smi

> <i_m_source_file_index>
72

> <i_lp_mmshare_version>
43012

> <i_f3d_flags>
0

> <s_epik_input>
W05IMl1jMW5bY0hdbihjKD1PKW4xKVtDQEBIXTJPW0NASF0oW0NIMl1bT0hdKVtDQEBIXShbT0hdKVtDQEhdMltPSF0=

> <s_epik_cmdline>
J2VwaWtfcHl0aG9uJywgJy1waCcsICc3LjAnLCAnLXRuJywgJzgnLCAnLW1hJywgJzIwMCcsICctbWV0YWxfYmluZGluZycsICctaW1hZScsICc8aW5maWxlLm1hZT4nLCAnLW9tYWUnLCAnPG91dGZpbGUubWFlPic=

> <r_lp_tautomer_probability>
4.77166e-05

> <r_epik_Ionization_Penalty>
0.104979

> <r_epik_Ionization_Penalty_Charging>
0.0999619

> <r_epik_Ionization_Penalty_Neutral>
0.00501745

> <r_epik_State_Penalty>
2.51541

> <r_epik_Charging_Adjusted_Penalty>
2.61537

> <i_epik_Tot_Q>
1

> <i_epik_Tot_abs_Q>
1

> <r_epik_Metal_State_Penalty>
3.53763

> <b_epik_Metal_Only>
0

> <s_epik_Chemistry_Notes>
This compound contains an acetal/aminal-like group ( X-CH(R)-Y where X, Y are N, S, or O) that may be acid/base labile, releasing an aldehyde.

> <s_lp_Force_Field>
OPLS_2005

> <r_lp_Energy>
35.1753

> <b_lp_Chiralities_Consistent>
1

> <s_lp_Variant>
AV-unprocessed.smi:72-43

> <Gold.Version>
5.8.1

> <Gold.Id.Protein>
6NUR|6NUR_protein|mol2

> <Gold.PLP.Fitness>
37.0866

> <Gold.PLP.PLP>
-25.1078

> <Gold.PLP.part.hbond>
-5.2999

> <Gold.PLP.part.metal>
0.0000

> <Gold.PLP.part.buried>
-1.5532

> <Gold.PLP.part.nonpolar>
-18.4054

> <Gold.PLP.part.repulsive>
0.3532

> <Gold.PLP.ligand.clash>
0.0000

> <Gold.PLP.ligand.torsion>
0.2902

> <Gold.PLP.Chemscore.Hbond>
3.3721

> <Gold.PLP.Chemscore.CHOScore>
0.7831

> <Gold.PLP.Chemscore.Metal>
0.0000

> <Gold.Chemscore.Hbonds>
donor molecule, donor type, donor heavy atom, donor atom, acceptor molecule, acceptor atom, score
      L1  H    10    27       P1 10175  0.95
      L1  H    12    28       P1  7957  1.00
      P1  H  7997  8008       L1    17  0.90
      P1  H  8011  8017       L1     7  0.34
      L1  C     4    24       P1  8028  0.76

> <Gold.PLP.Chemscore.Internal.Correction>
0.0938

> <Gold.Rescore>
     Score         DG    S(hbond)    S(metal)    S(lipo)     H(rot)  DE(clash)    DE(int)     intcor
      5.55      -6.08       2.54        0.00      21.74       4.08       0.20       0.34       ----

> <Gold.Chemscore.Fitness>
5.5467

> <Gold.Chemscore.DG>
-6.0826

> <Gold.Chemscore.ZeroCoef>
-5.4800

> <Gold.Chemscore.Hbond>
2.5447

> <Gold.Chemscore.Metal>
0.0000

> <Gold.Chemscore.Lipo>
21.7416

> <Gold.Chemscore.Internal_Hbond>
0.0000

> <Gold.Chemscore.DEClash>
0.1978

> <Gold.Chemscore.DEInternal>
0.3380

> <Gold.Chemscore.Rot>
4.0783

> <Gold.Chemscore.Internal.Correction>
   9.000000E+99

> <Gold.Chemscore.Hbonds>
donor molecule, donor type, donor heavy atom, donor atom, acceptor molecule, acceptor atom, score
      L1  H    10    27       P1 10175  0.21
      L1  H    12    28       P1  7957  0.95
      P1  H  7997  8008       L1    17  0.15
      P1  H  8011  8017       L1     7  0.31

> <Gold.Chemscore.Hbond.Weighted>
-8.4992

> <Gold.Chemscore.Metal.Weighted>
-0.0000

> <Gold.Chemscore.Lipo.Weighted>
-2.5438

> <Gold.Chemscore.Internal_Hbond.Weighted>
0.0000

> <Gold.Chemscore.DEClash.Weighted>
0.1978

> <Gold.Chemscore.DEInternal.Weighted>
0.3380

> <Gold.Chemscore.Rot.Weighted>
10.4404

> <Gold.Chemscore.Internal.Correction.Weighted>
   9.000000E+99

> <Gold.Protein.RotatedTorsions>
[ 6907 6896 6895 6894 ] final   62.10 input  -60.11 | X-H torsion
[ 7974 7965 7964 7962 ] final  -34.92 input  175.53 | X-H torsion
[ 8008 7997 7996 7995 ] final  -66.92 input   59.86 | X-H torsion
[ 10167 10162 10161 10158 ] final   -3.60 input  -65.29 | X-H torsion
[ 10718 10713 10712 10709 ] final  -75.01 input   66.30 | X-H torsion
[ 10763 10752 10751 10750 ] final  -75.02 input  -60.55 | X-H torsion
[ 11005 11000 10999 10996 ] final   60.94 input  -57.11 | X-H torsion

> <Gold.Protein.ActiveResidues>
 VAL166  LYS551  ARG553  GLY616  TRP617  ASP618  TYR619  PRO620  LYS621  CYS622 
 ASP623  PHE694  ASN695  SER759  ASP760  ASP761  ALA762  ILE779  LEU786  VAL792 
 PHE793  MET794  SER795  GLU796  ALA797  LYS798  CYS799  TRP800  GLU811  SER814 

> <Gold.Protein.RotatedAtoms>
  152.4144  134.6067  160.0014 H   0  0  0  0  0  0  0  0  0  0  0  0  # atno 6907 bound_to 6896
  151.6235  133.3331  159.3101 H   0  0  0  0  0  0  0  0  0  0  0  0  # atno 6908 bound_to 6896
  150.8033  134.7181  159.6687 H   0  0  0  0  0  0  0  0  0  0  0  0  # atno 6909 bound_to 6896
  146.0790  140.6096  142.8917 H   0  0  0  0  0  0  0  0  0  0  0  0  # atno 7974 bound_to 7965
  154.4765  140.0903  156.7275 H   0  0  0  0  0  0  0  0  0  0  0  0  # atno 8008 bound_to 7997
  155.4582  140.3460  155.4291 H   0  0  0  0  0  0  0  0  0  0  0  0  # atno 8009 bound_to 7997
  156.1125  140.1451  156.9307 H   0  0  0  0  0  0  0  0  0  0  0  0  # atno 8010 bound_to 7997
  140.6896  143.6521  150.8341 H   0  0  0  0  0  0  0  0  0  0  0  0  # atno 10167 bound_to 10162
  156.0222  130.4430  150.2978 H   0  0  0  0  0  0  0  0  0  0  0  0  # atno 10718 bound_to 10713
  154.4810  135.5845  153.6389 H   0  0  0  0  0  0  0  0  0  0  0  0  # atno 10763 bound_to 10752
  152.9847  135.6090  154.3246 H   0  0  0  0  0  0  0  0  0  0  0  0  # atno 10764 bound_to 10752
  154.3137  135.2844  155.2533 H   0  0  0  0  0  0  0  0  0  0  0  0  # atno 10765 bound_to 10752
  140.0196  134.6172  155.9658 H   0  0  0  0  0  0  0  0  0  0  0  0  # atno 11005 bound_to 11000
  144.7280  140.4586  143.6958 LP  0  0  0  0  0  0  0  0  0  0  0  0  # atno 17320 bound_to 7965
  145.6253  139.1529  143.2999 LP  0  0  0  0  0  0  0  0  0  0  0  0  # atno 17321 bound_to 7965
  140.0232  143.5520  152.2791 LP  0  0  0  0  0  0  0  0  0  0  0  0  # atno 17342 bound_to 10162
  139.6286  144.7641  151.2584 LP  0  0  0  0  0  0  0  0  0  0  0  0  # atno 17343 bound_to 10162
  157.1081  131.0214  151.3059 LP  0  0  0  0  0  0  0  0  0  0  0  0  # atno 17370 bound_to 10713
  157.4726  130.7718  149.7338 LP  0  0  0  0  0  0  0  0  0  0  0  0  # atno 17371 bound_to 10713
  141.1765  133.6541  156.4851 LP  0  0  0  0  0  0  0  0  0  0  0  0  # atno 17394 bound_to 11000
  140.4410  134.7016  157.4991 LP  0  0  0  0  0  0  0  0  0  0  0  0  # atno 17395 bound_to 11000

$$$$
