AV-unprocessed.smi:1358|AV-procd|sdf|5549|dock4
  -GOLD-   22720 5143D 1   1.00000     0.00000
 Structure written by MMmdl.
 37 38  0  0  0  0  0  0  0  0  1 V2000
  144.7984  143.8478  162.0194 C   0  0  0  0  0  0  0  0  0  0  0  0
  145.5666  144.8421  161.1417 C   0  0  0  0  0  0  0  0  0  0  0  0
  147.0361  144.4426  160.9514 C   0  0  0  0  0  0  0  0  0  0  0  0
  147.9501  145.6506  160.6901 C   0  0  0  0  0  0  0  0  0  0  0  0
  148.9406  145.3357  159.6696 N   0  0  0  0  0  0  0  0  0  0  0  0
  150.1266  144.7487  159.8948 C   0  0  0  0  0  0  0  0  0  0  0  0
  150.4723  144.3083  160.9912 O   0  0  0  0  0  0  0  0  0  0  0  0
  151.0849  144.6806  158.7035 C   0  0  0  0  0  0  0  0  0  0  0  0
  151.4823  143.2544  158.4448 C   0  0  0  0  0  0  0  0  0  0  0  0
  152.2984  142.4709  159.2241 C   0  0  0  0  0  0  0  0  0  0  0  0
  152.5208  140.8798  158.5465 S   0  0  0  0  0  0  0  0  0  0  0  0
  151.4833  141.3446  157.2005 C   0  0  0  0  0  0  0  0  0  0  0  0
  151.1783  140.4847  156.1045 N   0  0  0  0  0  0  0  0  0  0  0  0
  150.0147  140.7206  155.2592 C   0  0  0  0  0  0  0  0  0  0  0  0
  150.0686  139.5870  154.2389 C   0  0  0  0  0  0  0  0  0  0  0  0
  151.2426  138.8565  154.6563 N   0  0  0  0  0  0  0  0  0  0  0  0
  151.8536  139.3809  155.7209 C   0  0  0  0  0  0  0  0  0  0  0  0
  152.8628  138.9054  156.2401 O   0  0  0  0  0  0  0  0  0  0  0  0
  151.0085  142.5898  157.3078 N   0  0  0  0  0  0  0  0  0  0  0  0
  143.7595  144.1558  162.1384 H   0  0  0  0  0  0  0  0  0  0  0  0
  145.2407  143.7776  163.0135 H   0  0  0  0  0  0  0  0  0  0  0  0
  144.8018  142.8503  161.5797 H   0  0  0  0  0  0  0  0  0  0  0  0
  145.0783  144.9162  160.1696 H   0  0  0  0  0  0  0  0  0  0  0  0
  145.5129  145.8340  161.5916 H   0  0  0  0  0  0  0  0  0  0  0  0
  147.3839  143.9100  161.8379 H   0  0  0  0  0  0  0  0  0  0  0  0
  147.1138  143.7395  160.1212 H   0  0  0  0  0  0  0  0  0  0  0  0
  147.3630  146.5234  160.3995 H   0  0  0  0  0  0  0  0  0  0  0  0
  148.4801  145.9210  161.6036 H   0  0  0  0  0  0  0  0  0  0  0  0
  148.7492  145.6666  158.7347 H   0  0  0  0  0  0  0  0  0  0  0  0
  150.5967  145.1117  157.8286 H   0  0  0  0  0  0  0  0  0  0  0  0
  151.9638  145.2958  158.9010 H   0  0  0  0  0  0  0  0  0  0  0  0
  152.7879  142.7362  160.1493 H   0  0  0  0  0  0  0  0  0  0  0  0
  149.0968  140.6817  155.8476 H   0  0  0  0  0  0  0  0  0  0  0  0
  150.0797  141.6970  154.7767 H   0  0  0  0  0  0  0  0  0  0  0  0
  149.1837  138.9511  154.2842 H   0  0  0  0  0  0  0  0  0  0  0  0
  150.1900  139.9570  153.2202 H   0  0  0  0  0  0  0  0  0  0  0  0
  151.5573  138.0215  154.1837 H   0  0  0  0  0  0  0  0  0  0  0  0
  1  2  1  0  0  0  0
  1 20  1  0  0  0  0
  1 21  1  0  0  0  0
  1 22  1  0  0  0  0
  2  3  1  0  0  0  0
  2 23  1  0  0  0  0
  2 24  1  0  0  0  0
  3  4  1  0  0  0  0
  3 25  1  0  0  0  0
  3 26  1  0  0  0  0
  4  5  1  0  0  0  0
  4 27  1  0  0  0  0
  4 28  1  0  0  0  0
  5  6  1  0  0  0  0
  5 29  1  0  0  0  0
  6  7  2  0  0  0  0
  6  8  1  0  0  0  0
  8  9  1  0  0  0  0
  8 30  1  0  0  0  0
  8 31  1  0  0  0  0
  9 19  1  0  0  0  0
  9 10  2  0  0  0  0
 10 11  1  0  0  0  0
 10 32  1  0  0  0  0
 11 12  1  0  0  0  0
 12 13  1  0  0  0  0
 12 19  2  0  0  0  0
 13 17  1  0  0  0  0
 13 14  1  0  0  0  0
 14 15  1  0  0  0  0
 14 33  1  0  0  0  0
 14 34  1  0  0  0  0
 15 16  1  0  0  0  0
 15 35  1  0  0  0  0
 15 36  1  0  0  0  0
 16 17  1  0  0  0  0
 16 37  1  0  0  0  0
 17 18  2  0  0  0  0
M  END
> <s_m_source_file>
AV-unprocessed.smi

> <i_m_source_file_index>
1358

> <i_lp_mmshare_version>
43012

> <i_f3d_flags>
0

> <s_epik_input>
W0NIM11bQ0gyXVtDSDJdW0NIMl1bTkhdQyg9TylbQ0gyXWMxW2NIXXNjKG4xKU4yW0NIMl1bQ0gyXVtOSF1DMj1P

> <s_epik_cmdline>
J2VwaWtfcHl0aG9uJywgJy1waCcsICc3LjAnLCAnLXRuJywgJzgnLCAnLW1hJywgJzIwMCcsICctbWV0YWxfYmluZGluZycsICctaW1hZScsICc8aW5maWxlLm1hZT4nLCAnLW9tYWUnLCAnPG91dGZpbGUubWFlPic=

> <r_lp_tautomer_probability>
1

> <r_epik_Ionization_Penalty>
0.000120185

> <r_epik_Ionization_Penalty_Charging>
0

> <r_epik_Ionization_Penalty_Neutral>
0.000120185

> <r_epik_State_Penalty>
-0

> <r_epik_Charging_Adjusted_Penalty>
0

> <i_epik_Tot_Q>
0

> <i_epik_Tot_abs_Q>
0

> <r_epik_Metal_State_Penalty>
-0

> <b_epik_Metal_Only>
0

> <s_lp_Force_Field>
OPLS_2005

> <r_lp_Energy>
29.7034

> <b_lp_Chiralities_Consistent>
1

> <s_lp_Variant>
AV-unprocessed.smi:1358-1

> <Gold.Version>
5.8.1

> <Gold.Id.Protein>
6NUR|6NUR_protein|mol2

> <Gold.PLP.Fitness>
46.8897

> <Gold.PLP.PLP>
-42.6236

> <Gold.PLP.part.hbond>
-2.3694

> <Gold.PLP.part.metal>
0.0000

> <Gold.PLP.part.buried>
-6.5007

> <Gold.PLP.part.nonpolar>
-33.5767

> <Gold.PLP.part.repulsive>
0.6811

> <Gold.PLP.ligand.clash>
0.0000

> <Gold.PLP.ligand.torsion>
0.9044

> <Gold.PLP.Chemscore.Hbond>
1.9920

> <Gold.PLP.Chemscore.CHOScore>
0.0000

> <Gold.PLP.Chemscore.Metal>
0.0000

> <Gold.Chemscore.Hbonds>
donor molecule, donor type, donor heavy atom, donor atom, acceptor molecule, acceptor atom, score
      L1  H     5    29       P1  8029  1.00
      P1  H  7997  8010       L1    18  0.98

> <Gold.PLP.Chemscore.Internal.Correction>
0.0991

> <Gold.Rescore>
     Score         DG    S(hbond)    S(metal)    S(lipo)     H(rot)  DE(clash)    DE(int)     intcor
     14.50     -15.50       1.72        0.00      79.79       1.97       0.02       0.98       ----

> <Gold.Chemscore.Fitness>
14.5041

> <Gold.Chemscore.DG>
-15.5034

> <Gold.Chemscore.ZeroCoef>
-5.4800

> <Gold.Chemscore.Hbond>
1.7174

> <Gold.Chemscore.Metal>
0.0000

> <Gold.Chemscore.Lipo>
79.7863

> <Gold.Chemscore.Internal_Hbond>
0.0000

> <Gold.Chemscore.DEClash>
0.0163

> <Gold.Chemscore.DEInternal>
0.9830

> <Gold.Chemscore.Rot>
1.9718

> <Gold.Chemscore.Internal.Correction>
   9.000000E+99

> <Gold.Chemscore.Hbonds>
donor molecule, donor type, donor heavy atom, donor atom, acceptor molecule, acceptor atom, score
      L1  H     5    29       P1  8029  1.00
      P1  H  7997  8010       L1    18  0.90

> <Gold.Chemscore.Hbond.Weighted>
-5.7362

> <Gold.Chemscore.Metal.Weighted>
-0.0000

> <Gold.Chemscore.Lipo.Weighted>
-9.3350

> <Gold.Chemscore.Internal_Hbond.Weighted>
0.0000

> <Gold.Chemscore.DEClash.Weighted>
0.0163

> <Gold.Chemscore.DEInternal.Weighted>
0.9830

> <Gold.Chemscore.Rot.Weighted>
5.0478

> <Gold.Chemscore.Internal.Correction.Weighted>
   9.000000E+99

> <Gold.Protein.RotatedTorsions>
[ 6907 6896 6895 6894 ] final   97.01 input  -60.11 | X-H torsion
[ 7974 7965 7964 7962 ] final -174.26 input  175.53 | X-H torsion
[ 8008 7997 7996 7995 ] final   54.85 input   59.86 | X-H torsion
[ 10167 10162 10161 10158 ] final  -22.91 input  -65.29 | X-H torsion
[ 10718 10713 10712 10709 ] final    2.21 input   66.30 | X-H torsion
[ 10763 10752 10751 10750 ] final  179.12 input  -60.55 | X-H torsion
[ 11005 11000 10999 10996 ] final   98.29 input  -57.11 | X-H torsion

> <Gold.Protein.ActiveResidues>
 VAL166  LYS551  ARG553  GLY616  TRP617  ASP618  TYR619  PRO620  LYS621  CYS622 
 ASP623  PHE694  ASN695  SER759  ASP760  ASP761  ALA762  ILE779  LEU786  VAL792 
 PHE793  MET794  SER795  GLU796  ALA797  LYS798  CYS799  TRP800  GLU811  SER814 

> <Gold.Protein.RotatedAtoms>
  152.5428  134.0798  159.8230 H   0  0  0  0  0  0  0  0  0  0  0  0  # atno 6907 bound_to 6896
  151.0901  133.5315  159.2623 H   0  0  0  0  0  0  0  0  0  0  0  0  # atno 6908 bound_to 6896
  151.2109  135.0489  159.8965 H   0  0  0  0  0  0  0  0  0  0  0  0  # atno 6909 bound_to 6896
  144.7133  140.1498  143.6385 H   0  0  0  0  0  0  0  0  0  0  0  0  # atno 7974 bound_to 7965
  155.4916  140.3471  155.4356 H   0  0  0  0  0  0  0  0  0  0  0  0  # atno 8008 bound_to 7997
  156.0973  140.1426  156.9542 H   0  0  0  0  0  0  0  0  0  0  0  0  # atno 8009 bound_to 7997
  154.4672  140.0913  156.7028 H   0  0  0  0  0  0  0  0  0  0  0  0  # atno 8010 bound_to 7997
  140.7287  143.4491  151.0543 H   0  0  0  0  0  0  0  0  0  0  0  0  # atno 10167 bound_to 10162
  156.8597  130.5582  149.5664 H   0  0  0  0  0  0  0  0  0  0  0  0  # atno 10718 bound_to 10713
  154.5166  135.2791  155.1298 H   0  0  0  0  0  0  0  0  0  0  0  0  # atno 10763 bound_to 10752
  154.2872  135.6274  153.5374 H   0  0  0  0  0  0  0  0  0  0  0  0  # atno 10764 bound_to 10752
  152.9928  135.5665  154.5644 H   0  0  0  0  0  0  0  0  0  0  0  0  # atno 10765 bound_to 10752
  139.8773  134.9042  156.4434 H   0  0  0  0  0  0  0  0  0  0  0  0  # atno 11005 bound_to 11000
  145.9126  139.2496  143.1428 LP  0  0  0  0  0  0  0  0  0  0  0  0  # atno 17320 bound_to 7965
  145.9701  140.8767  143.0167 LP  0  0  0  0  0  0  0  0  0  0  0  0  # atno 17321 bound_to 7965
  139.8166  143.7878  152.3174 LP  0  0  0  0  0  0  0  0  0  0  0  0  # atno 17342 bound_to 10162
  139.7946  144.7397  150.9908 LP  0  0  0  0  0  0  0  0  0  0  0  0  # atno 17343 bound_to 10162
  156.0783  130.5800  150.9516 LP  0  0  0  0  0  0  0  0  0  0  0  0  # atno 17370 bound_to 10713
  157.6257  131.0926  150.8538 LP  0  0  0  0  0  0  0  0  0  0  0  0  # atno 17371 bound_to 10713
  140.8983  133.7798  155.9650 LP  0  0  0  0  0  0  0  0  0  0  0  0  # atno 17394 bound_to 11000
  140.8679  134.2762  157.5204 LP  0  0  0  0  0  0  0  0  0  0  0  0  # atno 17395 bound_to 11000

$$$$
