AV-unprocessed.smi:2567|AV-procd|sdf|10078|dock7
  -GOLD-   2272014103D 1   1.00000     0.00000
 Structure written by MMmdl.
 34 35  0  0  0  0  0  0  0  0  2 V2000
  146.6522  134.8216  156.9851 C   0  0  0  0  0  0  0  0  0  0  0  0
  145.6753  134.0572  156.0641 C   0  0  0  0  0  0  0  0  0  0  0  0
  145.6972  132.5822  156.5217 C   0  0  0  0  0  0  0  0  0  0  0  0
  144.2541  134.6265  156.2232 C   0  0  0  0  0  0  0  0  0  0  0  0
  146.1049  134.1653  154.6195 C   0  0  0  0  0  0  0  0  0  0  0  0
  147.1458  134.9198  154.2580 N   0  0  0  0  0  0  0  0  0  0  0  0
  147.0992  134.8564  152.9116 N   0  0  0  0  0  0  0  0  0  0  0  0
  146.0366  134.1415  152.5412 C   0  0  0  0  0  0  0  0  0  0  0  0
  145.6840  133.9166  151.1048 C   0  0  2  0  0  0  0  0  0  0  0  0
  144.2743  134.4335  150.7579 C   0  0  0  0  0  0  0  0  0  0  0  0
  143.9407  134.0926  149.3612 N   0  3  0  0  0  0  0  0  0  0  0  0
  144.0850  132.6449  149.1099 C   0  0  0  0  0  0  0  0  0  0  0  0
  145.4942  132.1752  149.5116 C   0  0  0  0  0  0  0  0  0  0  0  0
  145.7429  132.5112  150.8727 O   0  0  0  0  0  0  0  0  0  0  0  0
  145.3391  133.7001  153.5823 N   0  0  0  0  0  0  0  0  0  0  0  0
  147.7718  135.3174  152.3154 H   0  0  0  0  0  0  0  0  0  0  0  0
  146.3738  134.7147  158.0341 H   0  0  0  0  0  0  0  0  0  0  0  0
  146.6632  135.8901  156.7675 H   0  0  0  0  0  0  0  0  0  0  0  0
  147.6727  134.4517  156.8778 H   0  0  0  0  0  0  0  0  0  0  0  0
  146.6883  132.1429  156.4019 H   0  0  0  0  0  0  0  0  0  0  0  0
  144.9948  131.9715  155.9533 H   0  0  0  0  0  0  0  0  0  0  0  0
  145.4218  132.4883  157.5727 H   0  0  0  0  0  0  0  0  0  0  0  0
  143.9127  134.5604  157.2567 H   0  0  0  0  0  0  0  0  0  0  0  0
  143.5385  134.0831  155.6050 H   0  0  0  0  0  0  0  0  0  0  0  0
  144.2123  135.6760  155.9295 H   0  0  0  0  0  0  0  0  0  0  0  0
  146.4302  134.4150  150.4826 H   0  0  0  0  0  0  0  0  0  0  0  0
  143.5304  133.9860  151.4190 H   0  0  0  0  0  0  0  0  0  0  0  0
  144.2150  135.5141  150.8907 H   0  0  0  0  0  0  0  0  0  0  0  0
  142.9912  134.3748  149.1637 H   0  0  0  0  0  0  0  0  0  0  0  0
  143.3307  132.1046  149.6835 H   0  0  0  0  0  0  0  0  0  0  0  0
  143.8967  132.4392  148.0559 H   0  0  0  0  0  0  0  0  0  0  0  0
  145.5786  131.0950  149.3929 H   0  0  0  0  0  0  0  0  0  0  0  0
  146.2532  132.6260  148.8702 H   0  0  0  0  0  0  0  0  0  0  0  0
  144.5676  134.5918  148.7464 H   0  0  0  0  0  0  0  0  0  0  0  0
  1  2  1  0  0  0  0
  1 17  1  0  0  0  0
  1 18  1  0  0  0  0
  1 19  1  0  0  0  0
  2  3  1  0  0  0  0
  2  4  1  0  0  0  0
  2  5  1  0  0  0  0
  3 20  1  0  0  0  0
  3 21  1  0  0  0  0
  3 22  1  0  0  0  0
  4 23  1  0  0  0  0
  4 24  1  0  0  0  0
  4 25  1  0  0  0  0
  5 15  1  0  0  0  0
  5  6  2  0  0  0  0
  6  7  1  0  0  0  0
  7 16  1  0  0  0  0
  7  8  1  0  0  0  0
  8  9  1  0  0  0  0
  8 15  2  0  0  0  0
  9 14  1  0  0  0  0
  9 10  1  0  0  0  0
  9 26  1  0  0  0  0
 10 11  1  0  0  0  0
 10 27  1  0  0  0  0
 10 28  1  0  0  0  0
 11 12  1  0  0  0  0
 11 29  1  0  0  0  0
 11 34  1  0  0  0  0
 12 13  1  0  0  0  0
 12 30  1  0  0  0  0
 12 31  1  0  0  0  0
 13 14  1  0  0  0  0
 13 32  1  0  0  0  0
 13 33  1  0  0  0  0
M  CHG  1  11   1
M  END
> <s_m_source_file>
AV-unprocessed.smi

> <i_m_source_file_index>
2567

> <i_lp_mmshare_version>
43012

> <i_f3d_flags>
0

> <s_epik_input>
W0NIM11DKFtDSDNdKShbQ0gzXSljMW5bbkhdYyhuMSlbQ0BASF0yW0NIMl1bTkhdW0NIMl1bQ0gyXU8y

> <s_epik_cmdline>
J2VwaWtfcHl0aG9uJywgJy1waCcsICc3LjAnLCAnLXRuJywgJzgnLCAnLW1hJywgJzIwMCcsICctbWV0YWxfYmluZGluZycsICctaW1hZScsICc8aW5maWxlLm1hZT4nLCAnLW9tYWUnLCAnPG91dGZpbGUubWFlPic=

> <r_epik_Ionization_Penalty>
0.162344

> <r_epik_Ionization_Penalty_Charging>
0.125708

> <r_epik_Ionization_Penalty_Neutral>
0.0366363

> <r_epik_State_Penalty>
1.18286

> <r_epik_Charging_Adjusted_Penalty>
1.30856

> <i_epik_Tot_Q>
1

> <i_epik_Tot_abs_Q>
1

> <r_epik_Metal_State_Penalty>
1.49333

> <b_epik_Metal_Only>
0

> <s_lp_Force_Field>
OPLS_2005

> <r_lp_Energy>
12.4699

> <b_lp_Chiralities_Consistent>
1

> <s_lp_Variant>
AV-unprocessed.smi:2567-3

> <Gold.Version>
5.8.1

> <Gold.Id.Protein>
6NUR|6NUR_protein|mol2

> <Gold.PLP.Fitness>
31.4201

> <Gold.PLP.PLP>
-19.4780

> <Gold.PLP.part.hbond>
-2.9343

> <Gold.PLP.part.metal>
0.0000

> <Gold.PLP.part.buried>
-4.5966

> <Gold.PLP.part.nonpolar>
-12.8219

> <Gold.PLP.part.repulsive>
0.4153

> <Gold.PLP.ligand.clash>
0.0000

> <Gold.PLP.ligand.torsion>
0.1318

> <Gold.PLP.Chemscore.Hbond>
4.0000

> <Gold.PLP.Chemscore.CHOScore>
0.0000

> <Gold.PLP.Chemscore.Metal>
0.0000

> <Gold.Chemscore.Hbonds>
donor molecule, donor type, donor heavy atom, donor atom, acceptor molecule, acceptor atom, score
      L1  H     7    16       P1  7948  1.00
      L1  H    11    29       P1 10186  2.00
      L1  H    11    34       P1  7921  1.00

> <Gold.PLP.Chemscore.Internal.Correction>
0.2056

> <Gold.Rescore>
     Score         DG    S(hbond)    S(metal)    S(lipo)     H(rot)  DE(clash)    DE(int)     intcor
     16.40     -16.54       2.92        0.00      38.88       1.26       0.00       0.14       ----

> <Gold.Chemscore.Fitness>
16.3970

> <Gold.Chemscore.DG>
-16.5358

> <Gold.Chemscore.ZeroCoef>
-5.4800

> <Gold.Chemscore.Hbond>
2.9176

> <Gold.Chemscore.Metal>
0.0000

> <Gold.Chemscore.Lipo>
38.8755

> <Gold.Chemscore.Internal_Hbond>
0.0000

> <Gold.Chemscore.DEClash>
0.0000

> <Gold.Chemscore.DEInternal>
0.1388

> <Gold.Chemscore.Rot>
1.2647

> <Gold.Chemscore.Internal.Correction>
   9.000000E+99

> <Gold.Chemscore.Hbonds>
donor molecule, donor type, donor heavy atom, donor atom, acceptor molecule, acceptor atom, score
      L1  H     7    16       P1  7948  0.93
      L1  H    11    29       P1 10186  0.93
      L1  H    11    34       P1  7921  0.98

> <Gold.Chemscore.Hbond.Weighted>
-9.7449

> <Gold.Chemscore.Metal.Weighted>
-0.0000

> <Gold.Chemscore.Lipo.Weighted>
-4.5484

> <Gold.Chemscore.Internal_Hbond.Weighted>
0.0000

> <Gold.Chemscore.DEClash.Weighted>
0.0000

> <Gold.Chemscore.DEInternal.Weighted>
0.1388

> <Gold.Chemscore.Rot.Weighted>
3.2375

> <Gold.Chemscore.Internal.Correction.Weighted>
   9.000000E+99

> <Gold.Protein.RotatedTorsions>
[ 6907 6896 6895 6894 ] final  -92.88 input  -60.11 | X-H torsion
[ 7974 7965 7964 7962 ] final -167.64 input  175.53 | X-H torsion
[ 8008 7997 7996 7995 ] final -117.97 input   59.86 | X-H torsion
[ 10167 10162 10161 10158 ] final   23.90 input  -65.29 | X-H torsion
[ 10718 10713 10712 10709 ] final  172.88 input   66.30 | X-H torsion
[ 10763 10752 10751 10750 ] final  -64.50 input  -60.55 | X-H torsion
[ 11005 11000 10999 10996 ] final -106.01 input  -57.11 | X-H torsion

> <Gold.Protein.ActiveResidues>
 VAL166  LYS551  ARG553  GLY616  TRP617  ASP618  TYR619  PRO620  LYS621  CYS622 
 ASP623  PHE694  ASN695  SER759  ASP760  ASP761  ALA762  ILE779  LEU786  VAL792 
 PHE793  MET794  SER795  GLU796  ALA797  LYS798  CYS799  TRP800  GLU811  SER814 

> <Gold.Protein.RotatedAtoms>
  150.6913  134.2053  159.4337 H   0  0  0  0  0  0  0  0  0  0  0  0  # atno 6907 bound_to 6896
  152.0018  134.9922  160.0574 H   0  0  0  0  0  0  0  0  0  0  0  0  # atno 6908 bound_to 6896
  152.1571  133.4523  159.4879 H   0  0  0  0  0  0  0  0  0  0  0  0  # atno 6909 bound_to 6896
  144.7219  140.2488  143.6281 H   0  0  0  0  0  0  0  0  0  0  0  0  # atno 7974 bound_to 7965
  155.0922  140.0395  157.2672 H   0  0  0  0  0  0  0  0  0  0  0  0  # atno 8008 bound_to 7997
  154.6823  140.2635  155.6871 H   0  0  0  0  0  0  0  0  0  0  0  0  # atno 8009 bound_to 7997
  156.2699  140.2776  156.1371 H   0  0  0  0  0  0  0  0  0  0  0  0  # atno 8010 bound_to 7997
  140.5232  143.9968  150.6427 H   0  0  0  0  0  0  0  0  0  0  0  0  # atno 10167 bound_to 10162
  156.9724  131.0094  151.2902 H   0  0  0  0  0  0  0  0  0  0  0  0  # atno 10718 bound_to 10713
  154.3310  135.6176  153.5551 H   0  0  0  0  0  0  0  0  0  0  0  0  # atno 10763 bound_to 10752
  152.9811  135.5747  154.4961 H   0  0  0  0  0  0  0  0  0  0  0  0  # atno 10764 bound_to 10752
  154.4648  135.2857  155.1663 H   0  0  0  0  0  0  0  0  0  0  0  0  # atno 10765 bound_to 10752
  141.1025  133.8857  157.1804 H   0  0  0  0  0  0  0  0  0  0  0  0  # atno 11005 bound_to 11000
  145.8248  139.2059  143.1917 LP  0  0  0  0  0  0  0  0  0  0  0  0  # atno 17320 bound_to 7965
  146.0483  140.8096  142.9794 LP  0  0  0  0  0  0  0  0  0  0  0  0  # atno 17321 bound_to 7965
  140.3322  143.3070  152.0675 LP  0  0  0  0  0  0  0  0  0  0  0  0  # atno 17342 bound_to 10162
  139.4930  144.6501  151.6694 LP  0  0  0  0  0  0  0  0  0  0  0  0  # atno 17343 bound_to 10162
  157.5583  130.8229  149.8233 LP  0  0  0  0  0  0  0  0  0  0  0  0  # atno 17370 bound_to 10713
  156.0277  130.3774  150.1775 LP  0  0  0  0  0  0  0  0  0  0  0  0  # atno 17371 bound_to 10713
  139.9882  135.0074  156.9913 LP  0  0  0  0  0  0  0  0  0  0  0  0  # atno 17394 bound_to 11000
  140.4985  134.1121  155.7246 LP  0  0  0  0  0  0  0  0  0  0  0  0  # atno 17395 bound_to 11000

$$$$
