AV-unprocessed.smi:290|AV-procd|sdf|2238|dock6
  -GOLD-   2262022113D 1   1.00000     0.00000
 Structure written by MMmdl.
 59 62  0  0  0  0  0  0  0  0  2 V2000
  149.7066  141.8521  156.8859 C   0  0  0  0  0  0  0  0  0  0  0  0
  150.3387  141.2020  155.6455 C   0  0  1  0  0  0  0  0  0  0  0  0
  151.2312  140.1848  156.0914 O   0  0  0  0  0  0  0  0  0  0  0  0
  151.3138  139.1862  155.0907 C   0  0  0  0  0  0  0  0  0  0  0  0
  149.8660  139.0581  154.6422 C   0  0  0  0  0  0  0  0  0  0  0  0
  149.3726  140.5037  154.6460 C   0  0  2  0  0  0  0  0  0  0  0  0
  149.6206  141.0489  153.3613 O   0  0  0  0  0  0  0  0  0  0  0  0
  147.8551  140.6403  154.9413 C   0  0  0  0  0  0  0  0  0  0  0  0
  147.0324  139.6981  154.1971 N   0  0  0  0  0  0  0  0  0  0  0  0
  147.1776  139.3467  152.8738 C   0  0  0  0  0  0  0  0  0  0  0  0
  146.3106  138.4784  152.4292 N   0  0  0  0  0  0  0  0  0  0  0  0
  145.5104  138.2048  153.5316 C   0  0  0  0  0  0  0  0  0  0  0  0
  144.3848  137.3642  153.7613 C   0  0  0  0  0  0  0  0  0  0  0  0
  143.8092  136.5698  152.8334 N   0  0  0  0  0  0  0  0  0  0  0  0
  144.4569  136.5318  151.5257 C   0  0  0  0  0  0  0  0  0  0  0  0
  144.3976  135.0754  151.0607 C   0  0  0  0  0  0  0  0  0  0  0  0
  144.3750  134.2989  152.3817 C   0  0  2  0  0  0  0  0  0  0  0  0
  143.9304  132.8763  152.2913 N   0  3  1  0  0  0  0  0  0  0  0  0
  142.8181  132.6852  151.3254 C   0  0  0  0  0  0  0  0  0  0  0  0
  145.0630  131.9449  152.0280 C   0  0  0  0  0  0  0  0  0  0  0  0
  145.8181  132.2581  150.7226 C   0  0  0  0  0  0  0  0  0  0  0  0
  147.1600  132.5972  150.9986 O   0  0  0  0  0  0  0  0  0  0  0  0
  143.4953  135.2112  153.2674 C   0  0  2  0  0  0  0  0  0  0  0  0
  141.9803  134.9704  153.1273 C   0  0  0  0  0  0  0  0  0  0  0  0
  143.8503  137.3410  155.0059 N   0  0  0  0  0  0  0  0  0  0  0  0
  144.3762  138.0995  155.9727 C   0  0  0  0  0  0  0  0  0  0  0  0
  145.4163  138.9340  155.9065 N   0  0  0  0  0  0  0  0  0  0  0  0
  145.9572  138.9562  154.6545 C   0  0  0  0  0  0  0  0  0  0  0  0
  145.3916  134.2990  152.7778 H   0  0  0  0  0  0  0  0  0  0  0  0
  143.7666  135.0768  154.3160 H   0  0  0  0  0  0  0  0  0  0  0  0
  149.0118  142.6454  156.6097 H   0  0  0  0  0  0  0  0  0  0  0  0
  150.4750  142.2972  157.5182 H   0  0  0  0  0  0  0  0  0  0  0  0
  149.1702  141.1221  157.4923 H   0  0  0  0  0  0  0  0  0  0  0  0
  150.9370  141.9563  155.1305 H   0  0  0  0  0  0  0  0  0  0  0  0
  151.9526  139.5288  154.2750 H   0  0  0  0  0  0  0  0  0  0  0  0
  151.7194  138.2539  155.4833 H   0  0  0  0  0  0  0  0  0  0  0  0
  149.7569  138.5547  153.6806 H   0  0  0  0  0  0  0  0  0  0  0  0
  149.3225  138.4745  155.3865 H   0  0  0  0  0  0  0  0  0  0  0  0
  149.4799  140.3735  152.7153 H   0  0  0  0  0  0  0  0  0  0  0  0
  147.6580  140.4746  156.0006 H   0  0  0  0  0  0  0  0  0  0  0  0
  147.5092  141.6502  154.7168 H   0  0  0  0  0  0  0  0  0  0  0  0
  147.9499  139.7615  152.2424 H   0  0  0  0  0  0  0  0  0  0  0  0
  143.9446  137.1909  150.8245 H   0  0  0  0  0  0  0  0  0  0  0  0
  145.4937  136.8646  151.5904 H   0  0  0  0  0  0  0  0  0  0  0  0
  143.4792  134.9028  150.4980 H   0  0  0  0  0  0  0  0  0  0  0  0
  145.2427  134.8176  150.4217 H   0  0  0  0  0  0  0  0  0  0  0  0
  143.1158  132.9967  150.3233 H   0  0  0  0  0  0  0  0  0  0  0  0
  141.9370  133.2580  151.6132 H   0  0  0  0  0  0  0  0  0  0  0  0
  142.4974  131.6463  151.2734 H   0  0  0  0  0  0  0  0  0  0  0  0
  145.7525  131.9713  152.8732 H   0  0  0  0  0  0  0  0  0  0  0  0
  144.7069  130.9167  151.9672 H   0  0  0  0  0  0  0  0  0  0  0  0
  145.7867  131.4337  150.0119 H   0  0  0  0  0  0  0  0  0  0  0  0
  145.3505  133.1099  150.2282 H   0  0  0  0  0  0  0  0  0  0  0  0
  147.7248  132.0078  150.5215 H   0  0  0  0  0  0  0  0  0  0  0  0
  141.6934  133.9859  153.4927 H   0  0  0  0  0  0  0  0  0  0  0  0
  141.6489  135.0532  152.0920 H   0  0  0  0  0  0  0  0  0  0  0  0
  141.4195  135.7015  153.7104 H   0  0  0  0  0  0  0  0  0  0  0  0
  143.8943  138.0294  156.9368 H   0  0  0  0  0  0  0  0  0  0  0  0
  143.5689  132.6359  153.2038 H   0  0  0  0  0  0  0  0  0  0  0  0
  1  2  1  0  0  0  0
  1 31  1  0  0  0  0
  1 32  1  0  0  0  0
  1 33  1  0  0  0  0
  2  6  1  0  0  0  0
  2  3  1  0  0  0  0
  2 34  1  0  0  0  0
  3  4  1  0  0  0  0
  4  5  1  0  0  0  0
  4 35  1  0  0  0  0
  4 36  1  0  0  0  0
  5  6  1  0  0  0  0
  5 37  1  0  0  0  0
  5 38  1  0  0  0  0
  6  7  1  0  0  0  0
  6  8  1  0  0  0  0
  7 39  1  0  0  0  0
  8  9  1  0  0  0  0
  8 40  1  0  0  0  0
  8 41  1  0  0  0  0
  9 28  1  0  0  0  0
  9 10  1  0  0  0  0
 10 11  2  0  0  0  0
 10 42  1  0  0  0  0
 11 12  1  0  0  0  0
 12 28  2  0  0  0  0
 12 13  1  0  0  0  0
 13 14  1  0  0  0  0
 13 25  2  0  0  0  0
 14 23  1  0  0  0  0
 14 15  1  0  0  0  0
 15 16  1  0  0  0  0
 15 43  1  0  0  0  0
 15 44  1  0  0  0  0
 16 17  1  0  0  0  0
 16 45  1  0  0  0  0
 16 46  1  0  0  0  0
 17 29  1  0  0  0  0
 17 18  1  0  0  0  0
 17 23  1  0  0  0  0
 18 19  1  0  0  0  0
 18 20  1  0  0  0  0
 18 59  1  0  0  0  0
 19 47  1  0  0  0  0
 19 48  1  0  0  0  0
 19 49  1  0  0  0  0
 20 21  1  0  0  0  0
 20 50  1  0  0  0  0
 20 51  1  0  0  0  0
 21 22  1  0  0  0  0
 21 52  1  0  0  0  0
 21 53  1  0  0  0  0
 22 54  1  0  0  0  0
 23 30  1  0  0  0  0
 23 24  1  0  0  0  0
 24 55  1  0  0  0  0
 24 56  1  0  0  0  0
 24 57  1  0  0  0  0
 25 26  1  0  0  0  0
 26 27  2  0  0  0  0
 26 58  1  0  0  0  0
 27 28  1  0  0  0  0
M  CHG  1  18   1
M  END
> <s_m_source_file>
AV-unprocessed.smi

> <i_m_source_file_index>
290

> <i_lp_mmshare_version>
43012

> <i_f3d_flags>
0

> <s_epik_input>
W0NIMl0xW0NIMl1PW0NAQEhdKFtDSDNdKVtDQEBdMShbT0hdKVtDSDJdbihbY0hdbjIpYyhjMjMpbltjSF1uYzNONFtDSDJdW0NIMl1bQ0BIXShbQ0BIXTRbQ0gzXSlOKFtDSDNdKVtDSDJdW0NIMl1bT0hd

> <s_epik_cmdline>
J2VwaWtfcHl0aG9uJywgJy1waCcsICc3LjAnLCAnLXRuJywgJzgnLCAnLW1hJywgJzIwMCcsICctbWV0YWxfYmluZGluZycsICctaW1hZScsICc8aW5maWxlLm1hZT4nLCAnLW9tYWUnLCAnPG91dGZpbGUubWFlPic=

> <r_lp_tautomer_probability>
1

> <r_epik_Ionization_Penalty>
0.0036983

> <r_epik_Ionization_Penalty_Charging>
0.0032725

> <r_epik_Ionization_Penalty_Neutral>
0.000425798

> <r_epik_State_Penalty>
-0

> <r_epik_Charging_Adjusted_Penalty>
0.0032725

> <i_epik_Tot_Q>
1

> <i_epik_Tot_abs_Q>
1

> <r_epik_Metal_State_Penalty>
-0

> <b_epik_Metal_Only>
0

> <s_lp_Force_Field>
OPLS_2005

> <r_lp_Energy>
65.2736

> <b_lp_Chiralities_Consistent>
1

> <s_lp_Variant>
AV-unprocessed.smi:290-24

> <Gold.Version>
5.8.1

> <Gold.Id.Protein>
6NUR|6NUR_protein|mol2

> <Gold.PLP.Fitness>
52.6107

> <Gold.PLP.PLP>
-37.3874

> <Gold.PLP.part.hbond>
-4.6309

> <Gold.PLP.part.metal>
0.0000

> <Gold.PLP.part.buried>
-0.4854

> <Gold.PLP.part.nonpolar>
-33.1968

> <Gold.PLP.part.repulsive>
0.5203

> <Gold.PLP.ligand.clash>
0.0000

> <Gold.PLP.ligand.torsion>
1.5369

> <Gold.PLP.Chemscore.Hbond>
4.9569

> <Gold.PLP.Chemscore.CHOScore>
1.0000

> <Gold.PLP.Chemscore.Metal>
0.0000

> <Gold.Chemscore.Hbonds>
donor molecule, donor type, donor heavy atom, donor atom, acceptor molecule, acceptor atom, score
      L1  H     7    39       P1  7957  0.86
      L1  H    18    59       P1 10957  2.00
      L1  H    22    54       P1 10747  1.00
      P1  H  7989  7998       L1     7  0.13
      P1  H  8011  8017       L1     7  1.00
      L1  C    10    42       P1  7957  0.87

> <Gold.PLP.Chemscore.Internal.Correction>
0.4266

> <Gold.Rescore>
     Score         DG    S(hbond)    S(metal)    S(lipo)     H(rot)  DE(clash)    DE(int)     intcor
     10.05     -15.32       2.63        0.00      89.06       3.67       1.12       4.14       ----

> <Gold.Chemscore.Fitness>
10.0492

> <Gold.Chemscore.DG>
-15.3153

> <Gold.Chemscore.ZeroCoef>
-5.4800

> <Gold.Chemscore.Hbond>
2.6348

> <Gold.Chemscore.Metal>
0.0000

> <Gold.Chemscore.Lipo>
89.0563

> <Gold.Chemscore.Internal_Hbond>
0.0000

> <Gold.Chemscore.DEClash>
1.1236

> <Gold.Chemscore.DEInternal>
4.1424

> <Gold.Chemscore.Rot>
3.6658

> <Gold.Chemscore.Internal.Correction>
   9.000000E+99

> <Gold.Chemscore.Hbonds>
donor molecule, donor type, donor heavy atom, donor atom, acceptor molecule, acceptor atom, score
      L1  H     7    39       P1  7957  0.83
      L1  H    18    59       P1 10957  0.25
      L1  H    22    54       P1 10747  0.99
      P1  H  8011  8017       L1     7  0.25

> <Gold.Chemscore.Hbond.Weighted>
-8.8001

> <Gold.Chemscore.Metal.Weighted>
-0.0000

> <Gold.Chemscore.Lipo.Weighted>
-10.4196

> <Gold.Chemscore.Internal_Hbond.Weighted>
0.0000

> <Gold.Chemscore.DEClash.Weighted>
1.1236

> <Gold.Chemscore.DEInternal.Weighted>
4.1424

> <Gold.Chemscore.Rot.Weighted>
9.3844

> <Gold.Chemscore.Internal.Correction.Weighted>
   9.000000E+99

> <Gold.Protein.RotatedTorsions>
[ 6907 6896 6895 6894 ] final  -56.64 input  -60.11 | X-H torsion
[ 7974 7965 7964 7962 ] final   86.68 input  175.53 | X-H torsion
[ 8008 7997 7996 7995 ] final -146.52 input   59.86 | X-H torsion
[ 10167 10162 10161 10158 ] final   59.79 input  -65.29 | X-H torsion
[ 10718 10713 10712 10709 ] final -133.16 input   66.30 | X-H torsion
[ 10763 10752 10751 10750 ] final  151.31 input  -60.55 | X-H torsion
[ 11005 11000 10999 10996 ] final  124.29 input  -57.11 | X-H torsion

> <Gold.Protein.ActiveResidues>
 VAL166  LYS551  ARG553  GLY616  TRP617  ASP618  TYR619  PRO620  LYS621  CYS622 
 ASP623  PHE694  ASN695  SER759  ASP760  ASP761  ALA762  ILE779  LEU786  VAL792 
 PHE793  MET794  SER795  GLU796  ALA797  LYS798  CYS799  TRP800  GLU811  SER814 

> <Gold.Protein.RotatedAtoms>
  150.8151  134.7328  159.6722 H   0  0  0  0  0  0  0  0  0  0  0  0  # atno 6907 bound_to 6896
  152.4270  134.5846  159.9967 H   0  0  0  0  0  0  0  0  0  0  0  0  # atno 6908 bound_to 6896
  151.6045  133.3316  159.3090 H   0  0  0  0  0  0  0  0  0  0  0  0  # atno 6909 bound_to 6896
  145.5690  139.2311  143.2417 H   0  0  0  0  0  0  0  0  0  0  0  0  # atno 7974 bound_to 7965
  155.5608  140.0625  157.2829 H   0  0  0  0  0  0  0  0  0  0  0  0  # atno 8008 bound_to 7997
  154.4391  140.1886  156.0825 H   0  0  0  0  0  0  0  0  0  0  0  0  # atno 8009 bound_to 7997
  156.0448  140.3291  155.7288 H   0  0  0  0  0  0  0  0  0  0  0  0  # atno 8010 bound_to 7997
  140.1726  144.4261  150.6654 H   0  0  0  0  0  0  0  0  0  0  0  0  # atno 10167 bound_to 10162
  156.2421  130.7102  151.0967 H   0  0  0  0  0  0  0  0  0  0  0  0  # atno 10718 bound_to 10713
  154.1018  135.2845  155.3250 H   0  0  0  0  0  0  0  0  0  0  0  0  # atno 10763 bound_to 10752
  154.6550  135.5355  153.7951 H   0  0  0  0  0  0  0  0  0  0  0  0  # atno 10764 bound_to 10752
  153.0376  135.6519  154.1181 H   0  0  0  0  0  0  0  0  0  0  0  0  # atno 10765 bound_to 10752
  139.9352  134.9640  156.8388 H   0  0  0  0  0  0  0  0  0  0  0  0  # atno 11005 bound_to 11000
  146.1798  140.6516  142.9195 LP  0  0  0  0  0  0  0  0  0  0  0  0  # atno 17320 bound_to 7965
  144.7447  140.5035  143.6844 LP  0  0  0  0  0  0  0  0  0  0  0  0  # atno 17321 bound_to 7965
  140.6572  143.2241  151.5941 LP  0  0  0  0  0  0  0  0  0  0  0  0  # atno 17342 bound_to 10162
  139.5331  144.2859  152.1192 LP  0  0  0  0  0  0  0  0  0  0  0  0  # atno 17343 bound_to 10162
  157.7179  131.0699  150.6253 LP  0  0  0  0  0  0  0  0  0  0  0  0  # atno 17370 bound_to 10713
  156.6327  130.4436  149.5781 LP  0  0  0  0  0  0  0  0  0  0  0  0  # atno 17371 bound_to 10713
  140.6095  134.0096  155.7571 LP  0  0  0  0  0  0  0  0  0  0  0  0  # atno 17394 bound_to 11000
  141.0962  133.9840  157.3156 LP  0  0  0  0  0  0  0  0  0  0  0  0  # atno 17395 bound_to 11000

$$$$
