AV-unprocessed.smi:26|AV-procd|sdf|184|dock9
  -GOLD-   2262015443D 1   1.00000     0.00000
 Structure written by MMmdl.
 58 61  0  0  0  0  0  0  0  0  1 V2000
  144.6738  138.3558  157.6571 C   0  0  0  0  0  0  0  0  0  0  0  0
  145.9682  137.9220  158.2683 C   0  0  0  0  0  0  0  0  0  0  0  0
  147.2382  138.1656  157.8386 C   0  0  0  0  0  0  0  0  0  0  0  0
  148.1457  137.5741  158.7565 C   0  0  0  0  0  0  0  0  0  0  0  0
  149.6276  137.5496  158.7117 C   0  0  0  0  0  0  0  0  0  0  0  0
  150.3054  136.8507  159.4644 O   0  0  0  0  0  0  0  0  0  0  0  0
  150.3192  138.4689  157.6918 C   0  0  0  0  0  0  0  0  0  0  0  0
  150.9952  139.5788  158.3543 N   0  0  0  0  0  0  0  0  0  0  0  0
  152.1077  139.2893  159.1858 C   0  0  0  0  0  0  0  0  0  0  0  0
  152.4953  138.1385  159.3913 O   0  0  0  0  0  0  0  0  0  0  0  0
  152.7495  140.4605  159.7725 C   0  0  0  0  0  0  0  0  0  0  0  0
  153.8079  140.3009  160.5848 F   0  0  0  0  0  0  0  0  0  0  0  0
  152.2988  141.7064  159.5145 C   0  0  0  0  0  0  0  0  0  0  0  0
  151.2169  141.9622  158.6899 N   0  0  0  0  0  0  0  0  0  0  0  0
  150.7469  143.3762  158.4329 C   0  0  1  0  0  0  0  0  0  0  0  0
  150.3261  144.0422  159.7476 C   0  0  0  0  0  0  0  0  0  0  0  0
  151.5797  144.7988  160.1311 C   0  0  0  0  0  0  0  0  0  0  0  0
  152.1217  145.2051  158.7661 C   0  0  0  0  0  0  0  0  0  0  0  0
  151.8064  144.1184  157.9008 O   0  0  0  0  0  0  0  0  0  0  0  0
  150.5212  140.8885  158.0929 C   0  0  0  0  0  0  0  0  0  0  0  0
  149.5408  141.0940  157.3735 O   0  0  0  0  0  0  0  0  0  0  0  0
  147.4019  136.9597  159.7364 C   0  0  0  0  0  0  0  0  0  0  0  0
  147.8556  136.2055  160.9554 C   0  0  0  0  0  0  0  0  0  0  0  0
  146.0483  137.1597  159.4320 N   0  0  0  0  0  0  0  0  0  0  0  0
  144.8819  136.7026  160.2029 C   0  0  2  0  0  0  0  0  0  0  0  0
  144.6731  137.5744  161.4569 C   0  0  0  0  0  0  0  0  0  0  0  0
  144.8800  135.1882  160.4288 C   0  0  0  0  0  0  0  0  0  0  0  0
  144.7753  134.6959  161.7490 C   0  0  0  0  0  0  0  0  0  0  0  0
  144.7730  133.3104  162.0001 C   0  0  0  0  0  0  0  0  0  0  0  0
  144.8803  132.4011  160.9316 C   0  0  0  0  0  0  0  0  0  0  0  0
  144.9915  132.8800  159.6130 C   0  0  0  0  0  0  0  0  0  0  0  0
  144.9943  134.2657  159.3614 C   0  0  0  0  0  0  0  0  0  0  0  0
  144.8484  139.0160  156.8071 H   0  0  0  0  0  0  0  0  0  0  0  0
  144.0627  138.9003  158.3773 H   0  0  0  0  0  0  0  0  0  0  0  0
  144.1043  137.4982  157.2988 H   0  0  0  0  0  0  0  0  0  0  0  0
  147.4891  138.7232  156.9483 H   0  0  0  0  0  0  0  0  0  0  0  0
  151.0674  137.9242  157.1135 H   0  0  0  0  0  0  0  0  0  0  0  0
  149.6224  138.8675  156.9544 H   0  0  0  0  0  0  0  0  0  0  0  0
  152.8135  142.5325  159.9821 H   0  0  0  0  0  0  0  0  0  0  0  0
  149.9461  143.3081  157.6955 H   0  0  0  0  0  0  0  0  0  0  0  0
  149.5102  144.7354  159.5400 H   0  0  0  0  0  0  0  0  0  0  0  0
  149.9952  143.3191  160.4944 H   0  0  0  0  0  0  0  0  0  0  0  0
  151.3845  145.6506  160.7828 H   0  0  0  0  0  0  0  0  0  0  0  0
  152.2825  144.1354  160.6362 H   0  0  0  0  0  0  0  0  0  0  0  0
  151.6111  146.0994  158.4065 H   0  0  0  0  0  0  0  0  0  0  0  0
  153.1928  145.4075  158.7810 H   0  0  0  0  0  0  0  0  0  0  0  0
  147.9050  135.1359  160.7516 H   0  0  0  0  0  0  0  0  0  0  0  0
  147.1947  136.3603  161.8044 H   0  0  0  0  0  0  0  0  0  0  0  0
  148.8432  136.5289  161.2814 H   0  0  0  0  0  0  0  0  0  0  0  0
  143.9955  136.8582  159.5898 H   0  0  0  0  0  0  0  0  0  0  0  0
  143.7391  137.3227  161.9598 H   0  0  0  0  0  0  0  0  0  0  0  0
  144.6182  138.6294  161.1869 H   0  0  0  0  0  0  0  0  0  0  0  0
  145.4813  137.4697  162.1792 H   0  0  0  0  0  0  0  0  0  0  0  0
  144.6922  135.3855  162.5765 H   0  0  0  0  0  0  0  0  0  0  0  0
  144.6886  132.9455  163.0129 H   0  0  0  0  0  0  0  0  0  0  0  0
  144.8780  131.3383  161.1231 H   0  0  0  0  0  0  0  0  0  0  0  0
  145.0745  132.1831  158.7921 H   0  0  0  0  0  0  0  0  0  0  0  0
  145.0781  134.6019  158.3394 H   0  0  0  0  0  0  0  0  0  0  0  0
  1  2  1  0  0  0  0
  1 33  1  0  0  0  0
  1 34  1  0  0  0  0
  1 35  1  0  0  0  0
  2 24  1  0  0  0  0
  2  3  2  0  0  0  0
  3  4  1  0  0  0  0
  3 36  1  0  0  0  0
  4  5  1  0  0  0  0
  4 22  2  0  0  0  0
  5  6  2  0  0  0  0
  5  7  1  0  0  0  0
  7  8  1  0  0  0  0
  7 37  1  0  0  0  0
  7 38  1  0  0  0  0
  8 20  1  0  0  0  0
  8  9  1  0  0  0  0
  9 10  2  0  0  0  0
  9 11  1  0  0  0  0
 11 12  1  0  0  0  0
 11 13  2  0  0  0  0
 13 14  1  0  0  0  0
 13 39  1  0  0  0  0
 14 15  1  0  0  0  0
 14 20  1  0  0  0  0
 15 19  1  0  0  0  0
 15 16  1  0  0  0  0
 15 40  1  0  0  0  0
 16 17  1  0  0  0  0
 16 41  1  0  0  0  0
 16 42  1  0  0  0  0
 17 18  1  0  0  0  0
 17 43  1  0  0  0  0
 17 44  1  0  0  0  0
 18 19  1  0  0  0  0
 18 45  1  0  0  0  0
 18 46  1  0  0  0  0
 20 21  2  0  0  0  0
 22 23  1  0  0  0  0
 22 24  1  0  0  0  0
 23 47  1  0  0  0  0
 23 48  1  0  0  0  0
 23 49  1  0  0  0  0
 24 25  1  0  0  0  0
 25 26  1  0  0  0  0
 25 27  1  0  0  0  0
 25 50  1  0  0  0  0
 26 51  1  0  0  0  0
 26 52  1  0  0  0  0
 26 53  1  0  0  0  0
 27 32  1  0  0  0  0
 27 28  2  0  0  0  0
 28 29  1  0  0  0  0
 28 54  1  0  0  0  0
 29 30  2  0  0  0  0
 29 55  1  0  0  0  0
 30 31  1  0  0  0  0
 30 56  1  0  0  0  0
 31 32  2  0  0  0  0
 31 57  1  0  0  0  0
 32 58  1  0  0  0  0
M  END
> <s_m_source_file>
AV-unprocessed.smi

> <i_m_source_file_index>
26

> <i_lp_mmshare_version>
43012

> <i_f3d_flags>
0

> <s_epik_input>
W2NIXTFbY0hdW2NIXVtjSF1bY0hdYzFbQ0BASF0oW0NIM10pbjJjKFtDSDNdKWMoW2NIXWMyW0NIM10pQyg9TylbQ0gyXW4zYyg9TyljKEYpW2NIXW4oYzM9TylbQ0BASF00W0NIMl1bQ0gyXVtDSDJdTzQ=

> <s_epik_cmdline>
J2VwaWtfcHl0aG9uJywgJy1waCcsICc3LjAnLCAnLXRuJywgJzgnLCAnLW1hJywgJzIwMCcsICctbWV0YWxfYmluZGluZycsICctaW1hZScsICc8aW5maWxlLm1hZT4nLCAnLW9tYWUnLCAnPG91dGZpbGUubWFlPic=

> <r_lp_tautomer_probability>
1

> <r_epik_Ionization_Penalty>
5.02402e-09

> <r_epik_Ionization_Penalty_Charging>
5.01743e-09

> <r_epik_Ionization_Penalty_Neutral>
6.58831e-12

> <r_epik_State_Penalty>
-0

> <r_epik_Charging_Adjusted_Penalty>
5.01743e-09

> <i_epik_Tot_Q>
0

> <i_epik_Tot_abs_Q>
0

> <r_epik_Metal_State_Penalty>
-0

> <b_epik_Metal_Only>
0

> <s_epik_Chemistry_Notes>
This compound contains an acetal/aminal-like group ( X-CH(R)-Y where X, Y are N, S, or O) that may be acid/base labile, releasing an aldehyde.

> <s_lp_Force_Field>
OPLS_2005

> <r_lp_Energy>
51.2992

> <b_lp_Chiralities_Consistent>
1

> <s_lp_Variant>
AV-unprocessed.smi:26-2

> <Gold.Version>
5.8.1

> <Gold.Id.Protein>
6NUR|6NUR_protein|mol2

> <Gold.PLP.Fitness>
49.2885

> <Gold.PLP.PLP>
-46.9688

> <Gold.PLP.part.hbond>
-1.0000

> <Gold.PLP.part.metal>
0.0000

> <Gold.PLP.part.buried>
-8.2567

> <Gold.PLP.part.nonpolar>
-37.9033

> <Gold.PLP.part.repulsive>
0.1403

> <Gold.PLP.ligand.clash>
0.0000

> <Gold.PLP.ligand.torsion>
0.4795

> <Gold.PLP.Chemscore.Hbond>
1.0000

> <Gold.PLP.Chemscore.CHOScore>
0.0000

> <Gold.PLP.Chemscore.Metal>
0.0000

> <Gold.Chemscore.Hbonds>
donor molecule, donor type, donor heavy atom, donor atom, acceptor molecule, acceptor atom, score
      P1  H  6896  6908       L1     6  1.00

> <Gold.PLP.Chemscore.Internal.Correction>
0.2786

> <Gold.Rescore>
     Score         DG    S(hbond)    S(metal)    S(lipo)     H(rot)  DE(clash)    DE(int)     intcor
     14.13     -17.29       1.00        0.00     112.60       1.84       0.05       3.11       ----

> <Gold.Chemscore.Fitness>
14.1339

> <Gold.Chemscore.DG>
-17.2935

> <Gold.Chemscore.ZeroCoef>
-5.4800

> <Gold.Chemscore.Hbond>
0.9999

> <Gold.Chemscore.Metal>
0.0000

> <Gold.Chemscore.Lipo>
112.5959

> <Gold.Chemscore.Internal_Hbond>
0.0000

> <Gold.Chemscore.DEClash>
0.0510

> <Gold.Chemscore.DEInternal>
3.1087

> <Gold.Chemscore.Rot>
1.8359

> <Gold.Chemscore.Internal.Correction>
   9.000000E+99

> <Gold.Chemscore.Hbonds>
donor molecule, donor type, donor heavy atom, donor atom, acceptor molecule, acceptor atom, score
      P1  H  6896  6908       L1     6  0.97

> <Gold.Chemscore.Hbond.Weighted>
-3.3398

> <Gold.Chemscore.Metal.Weighted>
-0.0000

> <Gold.Chemscore.Lipo.Weighted>
-13.1737

> <Gold.Chemscore.Internal_Hbond.Weighted>
0.0000

> <Gold.Chemscore.DEClash.Weighted>
0.0510

> <Gold.Chemscore.DEInternal.Weighted>
3.1087

> <Gold.Chemscore.Rot.Weighted>
4.7000

> <Gold.Chemscore.Internal.Correction.Weighted>
   9.000000E+99

> <Gold.Protein.RotatedTorsions>
[ 6907 6896 6895 6894 ] final -155.53 input  -60.11 | X-H torsion
[ 7974 7965 7964 7962 ] final  159.40 input  175.53 | X-H torsion
[ 8008 7997 7996 7995 ] final    8.28 input   59.86 | X-H torsion
[ 10167 10162 10161 10158 ] final -152.66 input  -65.29 | X-H torsion
[ 10718 10713 10712 10709 ] final    9.67 input   66.30 | X-H torsion
[ 10763 10752 10751 10750 ] final  -53.50 input  -60.55 | X-H torsion
[ 11005 11000 10999 10996 ] final  -43.88 input  -57.11 | X-H torsion

> <Gold.Protein.ActiveResidues>
 VAL166  LYS551  ARG553  GLY616  TRP617  ASP618  TYR619  PRO620  LYS621  CYS622 
 ASP623  PHE694  ASN695  SER759  ASP760  ASP761  ALA762  ILE779  LEU786  VAL792 
 PHE793  MET794  SER795  GLU796  ALA797  LYS798  CYS799  TRP800  GLU811  SER814 

> <Gold.Protein.RotatedAtoms>
  151.2739  133.4242  159.2622 H   0  0  0  0  0  0  0  0  0  0  0  0  # atno 6907 bound_to 6896
  151.0420  134.9614  159.8177 H   0  0  0  0  0  0  0  0  0  0  0  0  # atno 6908 bound_to 6896
  152.5367  134.2697  159.9019 H   0  0  0  0  0  0  0  0  0  0  0  0  # atno 6909 bound_to 6896
  144.7792  139.7612  143.6266 H   0  0  0  0  0  0  0  0  0  0  0  0  # atno 7974 bound_to 7965
  154.7648  140.2791  155.6185 H   0  0  0  0  0  0  0  0  0  0  0  0  # atno 8008 bound_to 7997
  156.2922  140.2653  156.2363 H   0  0  0  0  0  0  0  0  0  0  0  0  # atno 8009 bound_to 7997
  154.9973  140.0373  157.2335 H   0  0  0  0  0  0  0  0  0  0  0  0  # atno 8010 bound_to 7997
  139.7162  143.9029  152.2487 H   0  0  0  0  0  0  0  0  0  0  0  0  # atno 10167 bound_to 10162
  156.9697  130.5964  149.5668 H   0  0  0  0  0  0  0  0  0  0  0  0  # atno 10718 bound_to 10713
  154.1598  135.6476  153.4983 H   0  0  0  0  0  0  0  0  0  0  0  0  # atno 10763 bound_to 10752
  153.0114  135.5358  154.6722 H   0  0  0  0  0  0  0  0  0  0  0  0  # atno 10764 bound_to 10752
  154.6033  135.2946  155.0483 H   0  0  0  0  0  0  0  0  0  0  0  0  # atno 10765 bound_to 10752
  141.0413  133.6779  156.2794 H   0  0  0  0  0  0  0  0  0  0  0  0  # atno 11005 bound_to 11000
  146.1990  139.5274  142.9755 LP  0  0  0  0  0  0  0  0  0  0  0  0  # atno 17320 bound_to 7965
  145.6098  141.0341  143.1973 LP  0  0  0  0  0  0  0  0  0  0  0  0  # atno 17321 bound_to 7965
  139.8912  144.6964  150.8768 LP  0  0  0  0  0  0  0  0  0  0  0  0  # atno 17342 bound_to 10162
  140.7744  143.3585  151.1875 LP  0  0  0  0  0  0  0  0  0  0  0  0  # atno 17343 bound_to 10162
  156.0288  130.5380  150.8479 LP  0  0  0  0  0  0  0  0  0  0  0  0  # atno 17370 bound_to 10713
  157.5601  131.0945  150.9571 LP  0  0  0  0  0  0  0  0  0  0  0  0  # atno 17371 bound_to 10713
  140.6229  134.5343  157.5550 LP  0  0  0  0  0  0  0  0  0  0  0  0  # atno 17394 bound_to 11000
  139.9278  134.8022  156.1018 LP  0  0  0  0  0  0  0  0  0  0  0  0  # atno 17395 bound_to 11000

$$$$
