AV-unprocessed.smi:862|AV-procd|sdf|3983|dock10
  -GOLD-   22720 1463D 1   1.00000     0.00000
 Structure written by MMmdl.
 45 47  0  0  0  0  0  0  0  0  3 V2000
  151.2195  137.4616  153.5546 N   0  0  0  0  0  0  0  0  0  0  0  0
  150.8352  136.9393  154.7233 C   0  0  0  0  0  0  0  0  0  0  0  0
  151.0644  135.7625  154.9964 O   0  0  0  0  0  0  0  0  0  0  0  0
  150.2290  137.8057  155.5741 N   0  0  0  0  0  0  0  0  0  0  0  0
  150.2687  137.7490  157.0450 C   0  0  0  0  0  0  0  0  0  0  0  0
  151.2049  138.8571  157.5620 C   0  0  0  0  0  0  0  0  0  0  0  0
  150.7533  140.2489  157.0617 C   0  0  0  0  0  0  0  0  0  0  0  0
  151.7302  141.3001  157.4267 N   0  3  0  0  0  0  0  0  0  0  0  0
  152.1014  141.3785  158.8596 C   0  0  1  0  0  0  0  0  0  0  0  0
  153.1613  140.3544  159.2753 C   0  0  0  0  0  0  0  0  0  0  0  0
  153.7843  140.9277  160.5524 C   0  0  0  0  0  0  0  0  0  0  0  0
  153.5726  142.4487  160.4939 C   0  0  0  0  0  0  0  0  0  0  0  0
  152.7681  142.7182  159.2098 C   0  0  2  0  0  0  0  0  0  0  0  0
  151.8289  143.8462  159.3262 N   0  0  0  0  0  0  0  0  0  0  0  0
  151.6368  144.6435  160.4264 C   0  0  0  0  0  0  0  0  0  0  0  0
  150.6713  145.5564  160.0880 C   0  0  0  0  0  0  0  0  0  0  0  0
  150.3131  145.2806  158.7962 N   0  3  0  0  0  0  0  0  0  0  0  0
  151.0169  144.2422  158.3343 C   0  0  0  0  0  0  0  0  0  0  0  0
  150.5491  140.2329  155.5326 C   0  0  0  0  0  0  0  0  0  0  0  0
  149.6401  139.0664  155.1058 C   0  0  0  0  0  0  0  0  0  0  0  0
  151.6855  136.8765  152.8764 H   0  0  0  0  0  0  0  0  0  0  0  0
  151.0523  138.4372  153.3565 H   0  0  0  0  0  0  0  0  0  0  0  0
  149.2611  137.9001  157.4353 H   0  0  0  0  0  0  0  0  0  0  0  0
  150.5890  136.7854  157.4406 H   0  0  0  0  0  0  0  0  0  0  0  0
  151.2296  138.8251  158.6501 H   0  0  0  0  0  0  0  0  0  0  0  0
  152.2226  138.6541  157.2251 H   0  0  0  0  0  0  0  0  0  0  0  0
  149.7890  140.4866  157.5140 H   0  0  0  0  0  0  0  0  0  0  0  0
  152.5607  141.1924  156.8618 H   0  0  0  0  0  0  0  0  0  0  0  0
  151.2115  141.2401  159.4758 H   0  0  0  0  0  0  0  0  0  0  0  0
  152.7451  139.3598  159.4375 H   0  0  0  0  0  0  0  0  0  0  0  0
  153.9290  140.2746  158.5040 H   0  0  0  0  0  0  0  0  0  0  0  0
  153.2764  140.5212  161.4280 H   0  0  0  0  0  0  0  0  0  0  0  0
  154.8389  140.6629  160.6379 H   0  0  0  0  0  0  0  0  0  0  0  0
  153.0403  142.7742  161.3886 H   0  0  0  0  0  0  0  0  0  0  0  0
  154.5227  142.9842  160.4765 H   0  0  0  0  0  0  0  0  0  0  0  0
  153.4793  142.9687  158.4199 H   0  0  0  0  0  0  0  0  0  0  0  0
  152.1832  144.5058  161.3487 H   0  0  0  0  0  0  0  0  0  0  0  0
  150.2223  146.3589  160.6556 H   0  0  0  0  0  0  0  0  0  0  0  0
  150.9373  143.8070  157.3539 H   0  0  0  0  0  0  0  0  0  0  0  0
  150.1159  141.1778  155.2027 H   0  0  0  0  0  0  0  0  0  0  0  0
  151.5122  140.1404  155.0276 H   0  0  0  0  0  0  0  0  0  0  0  0
  149.4912  139.0839  154.0252 H   0  0  0  0  0  0  0  0  0  0  0  0
  148.6465  139.1840  155.5407 H   0  0  0  0  0  0  0  0  0  0  0  0
  151.3020  142.1841  157.1916 H   0  0  0  0  0  0  0  0  0  0  0  0
  149.6122  145.7846  158.2667 H   0  0  0  0  0  0  0  0  0  0  0  0
  1  2  1  0  0  0  0
  1 21  1  0  0  0  0
  1 22  1  0  0  0  0
  2  3  2  0  0  0  0
  2  4  1  0  0  0  0
  4 20  1  0  0  0  0
  4  5  1  0  0  0  0
  5  6  1  0  0  0  0
  5 23  1  0  0  0  0
  5 24  1  0  0  0  0
  6  7  1  0  0  0  0
  6 25  1  0  0  0  0
  6 26  1  0  0  0  0
  7  8  1  0  0  0  0
  7 19  1  0  0  0  0
  7 27  1  0  0  0  0
  8  9  1  0  0  0  0
  8 28  1  0  0  0  0
  8 44  1  0  0  0  0
  9 13  1  0  0  0  0
  9 10  1  0  0  0  0
  9 29  1  0  0  0  0
 10 11  1  0  0  0  0
 10 30  1  0  0  0  0
 10 31  1  0  0  0  0
 11 12  1  0  0  0  0
 11 32  1  0  0  0  0
 11 33  1  0  0  0  0
 12 13  1  0  0  0  0
 12 34  1  0  0  0  0
 12 35  1  0  0  0  0
 13 14  1  0  0  0  0
 13 36  1  0  0  0  0
 14 18  1  0  0  0  0
 14 15  1  0  0  0  0
 15 16  2  0  0  0  0
 15 37  1  0  0  0  0
 16 17  1  0  0  0  0
 16 38  1  0  0  0  0
 17 18  2  0  0  0  0
 17 45  1  0  0  0  0
 18 39  1  0  0  0  0
 19 20  1  0  0  0  0
 19 40  1  0  0  0  0
 19 41  1  0  0  0  0
 20 42  1  0  0  0  0
 20 43  1  0  0  0  0
M  CHG  1   8   1
M  CHG  1  17   1
M  END
> <s_m_source_file>
AV-unprocessed.smi

> <i_m_source_file_index>
862

> <i_lp_mmshare_version>
43012

> <i_f3d_flags>
0

> <s_epik_input>
W05IMl1DKD1PKU4xW0NIMl1bQ0gyXVtDSF0oW0NIMl1bQ0gyXTEpW05IXVtDQEBIXTJbQ0gyXVtDSDJdW0NIMl1bQ0BIXTJuM1tjSF1bY0hdbltjSF0z

> <s_epik_cmdline>
J2VwaWtfcHl0aG9uJywgJy1waCcsICc3LjAnLCAnLXRuJywgJzgnLCAnLW1hJywgJzIwMCcsICctbWV0YWxfYmluZGluZycsICctaW1hZScsICc8aW5maWxlLm1hZT4nLCAnLW9tYWUnLCAnPG91dGZpbGUubWFlPic=

> <r_lp_tautomer_probability>
1

> <r_epik_Ionization_Penalty>
1.30217

> <r_epik_Ionization_Penalty_Charging>
0.00439521

> <r_epik_Ionization_Penalty_Neutral>
1.29777

> <r_epik_State_Penalty>
0.977606

> <r_epik_Charging_Adjusted_Penalty>
0.982001

> <i_epik_Tot_Q>
2

> <i_epik_Tot_abs_Q>
2

> <r_epik_Metal_State_Penalty>
1.03289

> <b_epik_Metal_Only>
0

> <s_lp_Force_Field>
OPLS_2005

> <r_lp_Energy>
66.2462

> <b_lp_Chiralities_Consistent>
1

> <s_lp_Variant>
AV-unprocessed.smi:862-8

> <Gold.Version>
5.8.1

> <Gold.Id.Protein>
6NUR|6NUR_protein|mol2

> <Gold.PLP.Fitness>
49.4686

> <Gold.PLP.PLP>
-39.1402

> <Gold.PLP.part.hbond>
-4.0000

> <Gold.PLP.part.metal>
0.0000

> <Gold.PLP.part.buried>
-2.1351

> <Gold.PLP.part.nonpolar>
-34.1269

> <Gold.PLP.part.repulsive>
0.5873

> <Gold.PLP.ligand.clash>
0.5729

> <Gold.PLP.ligand.torsion>
0.4487

> <Gold.PLP.Chemscore.Hbond>
3.7200

> <Gold.PLP.Chemscore.CHOScore>
0.1989

> <Gold.PLP.Chemscore.Metal>
0.0000

> <Gold.Chemscore.Hbonds>
donor molecule, donor type, donor heavy atom, donor atom, acceptor molecule, acceptor atom, score
      L1  H     1    21       P1  7949  0.70
      L1  H    17    45       P1  8029  2.00
      P1  H 10752 10765       L1     3  1.00
      L1  C    18    39       P1  8028  0.26

> <Gold.PLP.Chemscore.Internal.Correction>
0.0421

> <Gold.Rescore>
     Score         DG    S(hbond)    S(metal)    S(lipo)     H(rot)  DE(clash)    DE(int)     intcor
     19.99     -20.71       2.66        0.00      90.93       1.68       0.16       0.56       ----

> <Gold.Chemscore.Fitness>
19.9934

> <Gold.Chemscore.DG>
-20.7130

> <Gold.Chemscore.ZeroCoef>
-5.4800

> <Gold.Chemscore.Hbond>
2.6642

> <Gold.Chemscore.Metal>
0.0000

> <Gold.Chemscore.Lipo>
90.9296

> <Gold.Chemscore.Internal_Hbond>
0.0000

> <Gold.Chemscore.DEClash>
0.1638

> <Gold.Chemscore.DEInternal>
0.5558

> <Gold.Chemscore.Rot>
1.6814

> <Gold.Chemscore.Internal.Correction>
   9.000000E+99

> <Gold.Chemscore.Hbonds>
donor molecule, donor type, donor heavy atom, donor atom, acceptor molecule, acceptor atom, score
      L1  H     1    21       P1  7949  0.69
      L1  H    17    45       P1  8029  0.72
      P1  H 10752 10765       L1     3  0.49

> <Gold.Chemscore.Hbond.Weighted>
-8.8986

> <Gold.Chemscore.Metal.Weighted>
-0.0000

> <Gold.Chemscore.Lipo.Weighted>
-10.6388

> <Gold.Chemscore.Internal_Hbond.Weighted>
0.0000

> <Gold.Chemscore.DEClash.Weighted>
0.1638

> <Gold.Chemscore.DEInternal.Weighted>
0.5558

> <Gold.Chemscore.Rot.Weighted>
4.3043

> <Gold.Chemscore.Internal.Correction.Weighted>
   9.000000E+99

> <Gold.Protein.RotatedTorsions>
[ 6907 6896 6895 6894 ] final  161.13 input  -60.11 | X-H torsion
[ 7974 7965 7964 7962 ] final  -28.70 input  175.53 | X-H torsion
[ 8008 7997 7996 7995 ] final -149.29 input   59.86 | X-H torsion
[ 10167 10162 10161 10158 ] final  -50.70 input  -65.29 | X-H torsion
[ 10718 10713 10712 10709 ] final   -1.97 input   66.30 | X-H torsion
[ 10763 10752 10751 10750 ] final -171.61 input  -60.55 | X-H torsion
[ 11005 11000 10999 10996 ] final -100.12 input  -57.11 | X-H torsion

> <Gold.Protein.ActiveResidues>
 VAL166  LYS551  ARG553  GLY616  TRP617  ASP618  TYR619  PRO620  LYS621  CYS622 
 ASP623  PHE694  ASN695  SER759  ASP760  ASP761  ALA762  ILE779  LEU786  VAL792 
 PHE793  MET794  SER795  GLU796  ALA797  LYS798  CYS799  TRP800  GLU811  SER814 

> <Gold.Protein.RotatedAtoms>
  151.9603  133.3693  159.4032 H   0  0  0  0  0  0  0  0  0  0  0  0  # atno 6907 bound_to 6896
  150.6965  134.4247  159.5230 H   0  0  0  0  0  0  0  0  0  0  0  0  # atno 6908 bound_to 6896
  152.1935  134.8651  160.0566 H   0  0  0  0  0  0  0  0  0  0  0  0  # atno 6909 bound_to 6896
  146.1269  140.5316  142.8710 H   0  0  0  0  0  0  0  0  0  0  0  0  # atno 7974 bound_to 7965
  155.6052  140.0666  157.2721 H   0  0  0  0  0  0  0  0  0  0  0  0  # atno 8008 bound_to 7997
  154.4268  140.1811  156.1262 H   0  0  0  0  0  0  0  0  0  0  0  0  # atno 8009 bound_to 7997
  156.0128  140.3325  155.6961 H   0  0  0  0  0  0  0  0  0  0  0  0  # atno 8010 bound_to 7997
  140.6625  143.2647  151.4397 H   0  0  0  0  0  0  0  0  0  0  0  0  # atno 10167 bound_to 10162
  156.7977  130.5382  149.5726 H   0  0  0  0  0  0  0  0  0  0  0  0  # atno 10718 bound_to 10713
  154.6286  135.2884  155.0243 H   0  0  0  0  0  0  0  0  0  0  0  0  # atno 10763 bound_to 10752
  154.1412  135.6518  153.4946 H   0  0  0  0  0  0  0  0  0  0  0  0  # atno 10764 bound_to 10752
  153.0269  135.5333  154.7104 H   0  0  0  0  0  0  0  0  0  0  0  0  # atno 10765 bound_to 10752
  141.1283  133.8374  157.1061 H   0  0  0  0  0  0  0  0  0  0  0  0  # atno 11005 bound_to 11000
  144.7652  140.5513  143.6708 LP  0  0  0  0  0  0  0  0  0  0  0  0  # atno 17320 bound_to 7965
  145.5345  139.1475  143.3481 LP  0  0  0  0  0  0  0  0  0  0  0  0  # atno 17321 bound_to 7965
  139.5863  144.1598  152.2032 LP  0  0  0  0  0  0  0  0  0  0  0  0  # atno 17342 bound_to 10162
  140.0939  144.5597  150.7036 LP  0  0  0  0  0  0  0  0  0  0  0  0  # atno 17343 bound_to 10162
  156.1120  130.6047  151.0062 LP  0  0  0  0  0  0  0  0  0  0  0  0  # atno 17370 bound_to 10713
  157.6569  131.0888  150.7926 LP  0  0  0  0  0  0  0  0  0  0  0  0  # atno 17371 bound_to 10713
  140.0304  134.9904  157.0768 LP  0  0  0  0  0  0  0  0  0  0  0  0  # atno 17394 bound_to 11000
  140.4295  134.1795  155.7167 LP  0  0  0  0  0  0  0  0  0  0  0  0  # atno 17395 bound_to 11000

$$$$
