AV-unprocessed.smi:1565|AV-procd|sdf|6297|dock3
  -GOLD-   22720 6493D 1   1.00000     0.00000
 Structure written by MMmdl.
 40 41  0  0  0  0  0  0  0  0  1 V2000
  150.2634  144.7115  159.4900 C   0  0  0  0  0  0  0  0  0  0  0  0
  151.7276  144.3648  159.1660 C   0  0  2  0  0  0  0  0  0  0  0  0
  151.8746  143.2028  158.1640 C   0  0  0  0  0  0  0  0  0  0  0  0
  151.5979  141.9202  158.8049 N   0  0  0  0  0  0  0  0  0  0  0  0
  151.4120  140.8292  157.9296 C   0  0  0  0  0  0  0  0  0  0  0  0
  151.6613  140.9796  156.5453 C   0  0  0  0  0  0  0  0  0  0  0  0
  151.4741  139.8774  155.6893 C   0  0  0  0  0  0  0  0  0  0  0  0
  151.0491  138.6478  156.2341 C   0  0  0  0  0  0  0  0  0  0  0  0
  150.8197  137.4569  155.3491 C   0  0  0  0  0  0  0  0  0  0  0  0
  151.6610  137.1192  154.5163 O   0  0  0  0  0  0  0  0  0  0  0  0
  149.6852  136.7760  155.5760 N   0  0  0  0  0  0  0  0  0  0  0  0
  149.2811  135.5593  154.8793 C   0  0  0  0  0  0  0  0  0  0  0  0
  149.8563  134.2968  155.5433 C   0  0  0  0  0  0  0  0  0  0  0  0
  149.8699  133.3042  154.6548 F   0  0  0  0  0  0  0  0  0  0  0  0
  151.1032  134.5060  155.9658 F   0  0  0  0  0  0  0  0  0  0  0  0
  149.0974  133.9331  156.5775 F   0  0  0  0  0  0  0  0  0  0  0  0
  150.8077  138.5985  157.6251 C   0  0  0  0  0  0  0  0  0  0  0  0
  150.9849  139.6522  158.4493 N   0  0  0  0  0  0  0  0  0  0  0  0
  152.3802  141.7035  160.0186 C   0  0  0  0  0  0  0  0  0  0  0  0
  152.1836  142.8736  160.9985 C   0  0  1  0  0  0  0  0  0  0  0  0
  153.0894  142.7476  162.2278 C   0  0  0  0  0  0  0  0  0  0  0  0
  152.4948  144.1027  160.3435 O   0  0  0  0  0  0  0  0  0  0  0  0
  149.7377  145.0394  158.5930 H   0  0  0  0  0  0  0  0  0  0  0  0
  150.2073  145.5201  160.2189 H   0  0  0  0  0  0  0  0  0  0  0  0
  149.7151  143.8596  159.8912 H   0  0  0  0  0  0  0  0  0  0  0  0
  152.1670  145.2522  158.7098 H   0  0  0  0  0  0  0  0  0  0  0  0
  151.2276  143.3808  157.3060 H   0  0  0  0  0  0  0  0  0  0  0  0
  152.8961  143.1772  157.7825 H   0  0  0  0  0  0  0  0  0  0  0  0
  151.9774  141.9254  156.1310 H   0  0  0  0  0  0  0  0  0  0  0  0
  151.6583  139.9826  154.6298 H   0  0  0  0  0  0  0  0  0  0  0  0
  149.0660  137.1120  156.2993 H   0  0  0  0  0  0  0  0  0  0  0  0
  148.1917  135.5154  154.8927 H   0  0  0  0  0  0  0  0  0  0  0  0
  149.5722  135.6036  153.8285 H   0  0  0  0  0  0  0  0  0  0  0  0
  150.4588  137.6932  158.1002 H   0  0  0  0  0  0  0  0  0  0  0  0
  152.0772  140.7738  160.5023 H   0  0  0  0  0  0  0  0  0  0  0  0
  153.4339  141.6054  159.7532 H   0  0  0  0  0  0  0  0  0  0  0  0
  151.1495  142.8921  161.3430 H   0  0  0  0  0  0  0  0  0  0  0  0
  152.8819  141.8278  162.7754 H   0  0  0  0  0  0  0  0  0  0  0  0
  152.9366  143.5828  162.9114 H   0  0  0  0  0  0  0  0  0  0  0  0
  154.1421  142.7381  161.9434 H   0  0  0  0  0  0  0  0  0  0  0  0
  1  2  1  0  0  0  0
  1 23  1  0  0  0  0
  1 24  1  0  0  0  0
  1 25  1  0  0  0  0
  2 22  1  0  0  0  0
  2  3  1  0  0  0  0
  2 26  1  0  0  0  0
  3  4  1  0  0  0  0
  3 27  1  0  0  0  0
  3 28  1  0  0  0  0
  4  5  1  0  0  0  0
  4 19  1  0  0  0  0
  5 18  1  0  0  0  0
  5  6  2  0  0  0  0
  6  7  1  0  0  0  0
  6 29  1  0  0  0  0
  7  8  2  0  0  0  0
  7 30  1  0  0  0  0
  8  9  1  0  0  0  0
  8 17  1  0  0  0  0
  9 10  2  0  0  0  0
  9 11  1  0  0  0  0
 11 12  1  0  0  0  0
 11 31  1  0  0  0  0
 12 13  1  0  0  0  0
 12 32  1  0  0  0  0
 12 33  1  0  0  0  0
 13 14  1  0  0  0  0
 13 15  1  0  0  0  0
 13 16  1  0  0  0  0
 17 18  2  0  0  0  0
 17 34  1  0  0  0  0
 19 20  1  0  0  0  0
 19 35  1  0  0  0  0
 19 36  1  0  0  0  0
 20 21  1  0  0  0  0
 20 22  1  0  0  0  0
 20 37  1  0  0  0  0
 21 38  1  0  0  0  0
 21 39  1  0  0  0  0
 21 40  1  0  0  0  0
M  END
> <s_m_source_file>
AV-unprocessed.smi

> <i_m_source_file_index>
1565

> <i_lp_mmshare_version>
43012

> <i_f3d_flags>
0

> <s_epik_input>
W0NIM11bQ0BASF0xW0NIMl1OKFtDSDJdW0NASF0oTzEpW0NIM10pYzJbY0hdW2NIXWMoW2NIXW4yKUMoPU8pW05IXVtDSDJdQyhGKShGKUY=

> <s_epik_cmdline>
J2VwaWtfcHl0aG9uJywgJy1waCcsICc3LjAnLCAnLXRuJywgJzgnLCAnLW1hJywgJzIwMCcsICctbWV0YWxfYmluZGluZycsICctaW1hZScsICc8aW5maWxlLm1hZT4nLCAnLW9tYWUnLCAnPG91dGZpbGUubWFlPic=

> <r_lp_tautomer_probability>
1

> <r_epik_Ionization_Penalty>
1.48031e-05

> <r_epik_Ionization_Penalty_Charging>
0

> <r_epik_Ionization_Penalty_Neutral>
1.48031e-05

> <r_epik_State_Penalty>
-0

> <r_epik_Charging_Adjusted_Penalty>
0

> <i_epik_Tot_Q>
0

> <i_epik_Tot_abs_Q>
0

> <r_epik_Metal_State_Penalty>
0.00620302

> <b_epik_Metal_Only>
0

> <s_lp_Force_Field>
OPLS_2005

> <r_lp_Energy>
19.6517

> <b_lp_Chiralities_Consistent>
1

> <s_lp_Variant>
AV-unprocessed.smi:1565-1

> <Gold.Version>
5.8.1

> <Gold.Id.Protein>
6NUR|6NUR_protein|mol2

> <Gold.PLP.Fitness>
39.0759

> <Gold.PLP.PLP>
-38.6391

> <Gold.PLP.part.hbond>
-1.0000

> <Gold.PLP.part.metal>
0.0000

> <Gold.PLP.part.buried>
-6.2530

> <Gold.PLP.part.nonpolar>
-31.5207

> <Gold.PLP.part.repulsive>
0.2128

> <Gold.PLP.ligand.clash>
0.0000

> <Gold.PLP.ligand.torsion>
1.4524

> <Gold.PLP.Chemscore.Hbond>
1.0000

> <Gold.PLP.Chemscore.CHOScore>
0.0000

> <Gold.PLP.Chemscore.Metal>
0.0000

> <Gold.Chemscore.Hbonds>
donor molecule, donor type, donor heavy atom, donor atom, acceptor molecule, acceptor atom, score
      P1  H 10752 10763       L1    10  1.00

> <Gold.PLP.Chemscore.Internal.Correction>
0.3417

> <Gold.Rescore>
     Score         DG    S(hbond)    S(metal)    S(lipo)     H(rot)  DE(clash)    DE(int)     intcor
     15.36     -16.55       1.00        0.00      94.68       1.31       0.05       1.13       ----

> <Gold.Chemscore.Fitness>
15.3634

> <Gold.Chemscore.DG>
-16.5461

> <Gold.Chemscore.ZeroCoef>
-5.4800

> <Gold.Chemscore.Hbond>
0.9968

> <Gold.Chemscore.Metal>
0.0000

> <Gold.Chemscore.Lipo>
94.6845

> <Gold.Chemscore.Internal_Hbond>
0.0000

> <Gold.Chemscore.DEClash>
0.0509

> <Gold.Chemscore.DEInternal>
1.1318

> <Gold.Chemscore.Rot>
1.3052

> <Gold.Chemscore.Internal.Correction>
   9.000000E+99

> <Gold.Chemscore.Hbonds>
donor molecule, donor type, donor heavy atom, donor atom, acceptor molecule, acceptor atom, score
      P1  H 10752 10763       L1    10  0.97

> <Gold.Chemscore.Hbond.Weighted>
-3.3294

> <Gold.Chemscore.Metal.Weighted>
-0.0000

> <Gold.Chemscore.Lipo.Weighted>
-11.0781

> <Gold.Chemscore.Internal_Hbond.Weighted>
0.0000

> <Gold.Chemscore.DEClash.Weighted>
0.0509

> <Gold.Chemscore.DEInternal.Weighted>
1.1318

> <Gold.Chemscore.Rot.Weighted>
3.3414

> <Gold.Chemscore.Internal.Correction.Weighted>
   9.000000E+99

> <Gold.Protein.RotatedTorsions>
[ 6907 6896 6895 6894 ] final   81.00 input  -60.11 | X-H torsion
[ 7974 7965 7964 7962 ] final   47.84 input  175.53 | X-H torsion
[ 8008 7997 7996 7995 ] final  -61.45 input   59.86 | X-H torsion
[ 10167 10162 10161 10158 ] final   40.12 input  -65.29 | X-H torsion
[ 10718 10713 10712 10709 ] final  -52.20 input   66.30 | X-H torsion
[ 10763 10752 10751 10750 ] final   40.56 input  -60.55 | X-H torsion
[ 11005 11000 10999 10996 ] final   11.37 input  -57.11 | X-H torsion

> <Gold.Protein.ActiveResidues>
 VAL166  LYS551  ARG553  GLY616  TRP617  ASP618  TYR619  PRO620  LYS621  CYS622 
 ASP623  PHE694  ASN695  SER759  ASP760  ASP761  ALA762  ILE779  LEU786  VAL792 
 PHE793  MET794  SER795  GLU796  ALA797  LYS798  CYS799  TRP800  GLU811  SER814 

> <Gold.Protein.RotatedAtoms>
  152.5254  134.3270  159.9168 H   0  0  0  0  0  0  0  0  0  0  0  0  # atno 6907 bound_to 6896
  151.3219  133.4030  159.2663 H   0  0  0  0  0  0  0  0  0  0  0  0  # atno 6908 bound_to 6896
  150.9951  134.9294  159.7979 H   0  0  0  0  0  0  0  0  0  0  0  0  # atno 6909 bound_to 6896
  146.0260  139.4707  142.9867 H   0  0  0  0  0  0  0  0  0  0  0  0  # atno 7974 bound_to 7965
  154.4448  140.1017  156.6432 H   0  0  0  0  0  0  0  0  0  0  0  0  # atno 8008 bound_to 7997
  155.5478  140.3485  155.4443 H   0  0  0  0  0  0  0  0  0  0  0  0  # atno 8009 bound_to 7997
  156.0551  140.1313  156.9995 H   0  0  0  0  0  0  0  0  0  0  0  0  # atno 8010 bound_to 7997
  140.3773  144.2026  150.6131 H   0  0  0  0  0  0  0  0  0  0  0  0  # atno 10167 bound_to 10162
  156.1643  130.4149  149.9745 H   0  0  0  0  0  0  0  0  0  0  0  0  # atno 10718 bound_to 10713
  152.9933  135.6188  154.2645 H   0  0  0  0  0  0  0  0  0  0  0  0  # atno 10763 bound_to 10752
  154.2380  135.2789  155.2866 H   0  0  0  0  0  0  0  0  0  0  0  0  # atno 10764 bound_to 10752
  154.5393  135.5765  153.6883 H   0  0  0  0  0  0  0  0  0  0  0  0  # atno 10765 bound_to 10752
  140.5039  134.0718  155.7801 H   0  0  0  0  0  0  0  0  0  0  0  0  # atno 11005 bound_to 11000
  145.7117  141.0104  143.1449 LP  0  0  0  0  0  0  0  0  0  0  0  0  # atno 17320 bound_to 7965
  144.7010  139.8765  143.7444 LP  0  0  0  0  0  0  0  0  0  0  0  0  # atno 17321 bound_to 7965
  140.4973  143.2328  151.8730 LP  0  0  0  0  0  0  0  0  0  0  0  0  # atno 17342 bound_to 10162
  139.4798  144.5099  151.8947 LP  0  0  0  0  0  0  0  0  0  0  0  0  # atno 17343 bound_to 10162
  156.7565  130.9135  151.3639 LP  0  0  0  0  0  0  0  0  0  0  0  0  # atno 17370 bound_to 10713
  157.6756  130.9091  150.0142 LP  0  0  0  0  0  0  0  0  0  0  0  0  # atno 17371 bound_to 10713
  141.1421  133.9120  157.2302 LP  0  0  0  0  0  0  0  0  0  0  0  0  # atno 17394 bound_to 11000
  139.9697  135.0132  156.9480 LP  0  0  0  0  0  0  0  0  0  0  0  0  # atno 17395 bound_to 11000

$$$$
