AV-unprocessed.smi:1709|AV-procd|sdf|6898|dock9
  -GOLD-   22720 8103D 1   1.00000     0.00000
 Structure written by MMmdl.
 43 45  0  0  0  0  0  0  0  0  2 V2000
  149.9794  138.4449  154.2866 C   0  0  0  0  0  0  0  0  0  0  0  0
  148.9415  139.5416  154.1072 C   0  0  0  0  0  0  0  0  0  0  0  0
  149.2165  140.8345  154.6011 C   0  0  0  0  0  0  0  0  0  0  0  0
  148.2598  141.8498  154.4357 C   0  0  0  0  0  0  0  0  0  0  0  0
  147.0613  141.5269  153.7782 C   0  0  0  0  0  0  0  0  0  0  0  0
  146.7907  140.2938  153.3032 N   0  0  0  0  0  0  0  0  0  0  0  0
  147.7016  139.2982  153.4559 C   0  0  0  0  0  0  0  0  0  0  0  0
  147.5006  137.9641  152.9821 N   0  0  0  0  0  0  0  0  0  0  0  0
  146.3805  137.2695  152.6880 C   0  0  0  0  0  0  0  0  0  0  0  0
  145.2684  137.7798  152.8111 O   0  0  0  0  0  0  0  0  0  0  0  0
  146.5545  136.0095  152.2574 N   0  0  0  0  0  0  0  0  0  0  0  0
  145.4924  135.0843  151.8770 C   0  0  1  0  0  0  0  0  0  0  0  0
  144.7686  135.5020  150.6028 C   0  0  0  0  0  0  0  0  0  0  0  0
  144.1097  134.1943  150.1613 C   0  0  0  0  0  0  0  0  0  0  0  0
  145.0335  133.1118  150.5716 N   0  3  2  0  0  0  0  0  0  0  0  0
  144.3626  131.8662  151.0175 C   0  0  0  0  0  0  0  0  0  0  0  0
  145.3999  130.7939  151.3995 C   0  0  0  0  0  0  0  0  0  0  0  0
  146.4937  131.3208  152.3516 C   0  0  0  0  0  0  0  0  0  0  0  0
  146.2590  132.7828  152.7618 C   0  0  0  0  0  0  0  0  0  0  0  0
  146.0233  133.6839  151.5283 C   0  0  2  0  0  0  0  0  0  0  0  0
  150.8740  138.8216  154.7831 H   0  0  0  0  0  0  0  0  0  0  0  0
  150.2796  138.0397  153.3199 H   0  0  0  0  0  0  0  0  0  0  0  0
  149.5761  137.6337  154.8931 H   0  0  0  0  0  0  0  0  0  0  0  0
  150.1493  141.0488  155.1017 H   0  0  0  0  0  0  0  0  0  0  0  0
  148.4404  142.8493  154.8028 H   0  0  0  0  0  0  0  0  0  0  0  0
  146.2983  142.2766  153.6294 H   0  0  0  0  0  0  0  0  0  0  0  0
  148.3560  137.4491  152.8326 H   0  0  0  0  0  0  0  0  0  0  0  0
  147.5040  135.6703  152.1860 H   0  0  0  0  0  0  0  0  0  0  0  0
  144.7492  135.0115  152.6740 H   0  0  0  0  0  0  0  0  0  0  0  0
  144.0490  136.3051  150.7655 H   0  0  0  0  0  0  0  0  0  0  0  0
  145.4837  135.8336  149.8480 H   0  0  0  0  0  0  0  0  0  0  0  0
  143.1536  134.0832  150.6756 H   0  0  0  0  0  0  0  0  0  0  0  0
  143.9152  134.1664  149.0889 H   0  0  0  0  0  0  0  0  0  0  0  0
  143.7155  132.0819  151.8693 H   0  0  0  0  0  0  0  0  0  0  0  0
  143.7177  131.4945  150.2203 H   0  0  0  0  0  0  0  0  0  0  0  0
  144.8896  129.9441  151.8538 H   0  0  0  0  0  0  0  0  0  0  0  0
  145.8717  130.4096  150.4942 H   0  0  0  0  0  0  0  0  0  0  0  0
  146.5533  130.6917  153.2404 H   0  0  0  0  0  0  0  0  0  0  0  0
  147.4642  131.2407  151.8603 H   0  0  0  0  0  0  0  0  0  0  0  0
  145.4010  132.8341  153.4337 H   0  0  0  0  0  0  0  0  0  0  0  0
  147.1120  133.1469  153.3351 H   0  0  0  0  0  0  0  0  0  0  0  0
  146.9579  133.7784  150.9727 H   0  0  0  0  0  0  0  0  0  0  0  0
  145.5679  132.8646  149.7510 H   0  0  0  0  0  0  0  0  0  0  0  0
  1  2  1  0  0  0  0
  1 21  1  0  0  0  0
  1 22  1  0  0  0  0
  1 23  1  0  0  0  0
  2  7  1  0  0  0  0
  2  3  2  0  0  0  0
  3  4  1  0  0  0  0
  3 24  1  0  0  0  0
  4  5  2  0  0  0  0
  4 25  1  0  0  0  0
  5  6  1  0  0  0  0
  5 26  1  0  0  0  0
  6  7  2  0  0  0  0
  7  8  1  0  0  0  0
  8  9  1  0  0  0  0
  8 27  1  0  0  0  0
  9 10  2  0  0  0  0
  9 11  1  0  0  0  0
 11 12  1  0  0  0  0
 11 28  1  0  0  0  0
 12 20  1  0  0  0  0
 12 13  1  0  0  0  0
 12 29  1  0  0  0  0
 13 14  1  0  0  0  0
 13 30  1  0  0  0  0
 13 31  1  0  0  0  0
 14 15  1  0  0  0  0
 14 32  1  0  0  0  0
 14 33  1  0  0  0  0
 15 20  1  0  0  0  0
 15 16  1  0  0  0  0
 15 43  1  0  0  0  0
 16 17  1  0  0  0  0
 16 34  1  0  0  0  0
 16 35  1  0  0  0  0
 17 18  1  0  0  0  0
 17 36  1  0  0  0  0
 17 37  1  0  0  0  0
 18 19  1  0  0  0  0
 18 38  1  0  0  0  0
 18 39  1  0  0  0  0
 19 20  1  0  0  0  0
 19 40  1  0  0  0  0
 19 41  1  0  0  0  0
 20 42  1  0  0  0  0
M  CHG  1  15   1
M  END
> <s_m_source_file>
AV-unprocessed.smi

> <i_m_source_file_index>
1709

> <i_lp_mmshare_version>
43012

> <i_f3d_flags>
0

> <s_epik_input>
W0NIM11jMVtjSF1bY0hdW2NIXW5jMVtOSF1DKD1PKVtOSF1bQ0BIXShbQ0gyXVtDSDJdMilbQ0BASF0oTjIzKVtDSDJdW0NIMl1bQ0gyXVtDSDJdMw==

> <s_epik_cmdline>
J2VwaWtfcHl0aG9uJywgJy1waCcsICc3LjAnLCAnLXRuJywgJzgnLCAnLW1hJywgJzIwMCcsICctbWV0YWxfYmluZGluZycsICctaW1hZScsICc8aW5maWxlLm1hZT4nLCAnLW9tYWUnLCAnPG91dGZpbGUubWFlPic=

> <r_epik_Ionization_Penalty>
0.00101524

> <r_epik_Ionization_Penalty_Charging>
0.000974069

> <r_epik_Ionization_Penalty_Neutral>
4.11757e-05

> <r_epik_State_Penalty>
0.000633842

> <r_epik_Charging_Adjusted_Penalty>
0.00160791

> <i_epik_Tot_Q>
1

> <i_epik_Tot_abs_Q>
1

> <r_epik_Metal_State_Penalty>
-0

> <b_epik_Metal_Only>
0

> <s_lp_Force_Field>
OPLS_2005

> <r_lp_Energy>
44.7523

> <b_lp_Chiralities_Consistent>
1

> <s_lp_Variant>
AV-unprocessed.smi:1709-8

> <Gold.Version>
5.8.1

> <Gold.Id.Protein>
6NUR|6NUR_protein|mol2

> <Gold.PLP.Fitness>
38.3214

> <Gold.PLP.PLP>
-33.8095

> <Gold.PLP.part.hbond>
-1.5743

> <Gold.PLP.part.metal>
0.0000

> <Gold.PLP.part.buried>
0.0545

> <Gold.PLP.part.nonpolar>
-32.7759

> <Gold.PLP.part.repulsive>
0.5526

> <Gold.PLP.ligand.clash>
0.0000

> <Gold.PLP.ligand.torsion>
0.1481

> <Gold.PLP.Chemscore.Hbond>
1.6000

> <Gold.PLP.Chemscore.CHOScore>
0.0000

> <Gold.PLP.Chemscore.Metal>
0.0000

> <Gold.Chemscore.Hbonds>
donor molecule, donor type, donor heavy atom, donor atom, acceptor molecule, acceptor atom, score
      L1  H     8    27       P1  7948  0.80
      L1  H    11    28       P1  7948  0.80

> <Gold.PLP.Chemscore.Internal.Correction>
0.0081

> <Gold.Rescore>
     Score         DG    S(hbond)    S(metal)    S(lipo)     H(rot)  DE(clash)    DE(int)     intcor
     16.92     -18.83       1.69        0.00      87.75       1.00       0.66       1.25       ----

> <Gold.Chemscore.Fitness>
16.9171

> <Gold.Chemscore.DG>
-18.8288

> <Gold.Chemscore.ZeroCoef>
-5.4800

> <Gold.Chemscore.Hbond>
1.6894

> <Gold.Chemscore.Metal>
0.0000

> <Gold.Chemscore.Lipo>
87.7451

> <Gold.Chemscore.Internal_Hbond>
0.0000

> <Gold.Chemscore.DEClash>
0.6594

> <Gold.Chemscore.DEInternal>
1.2523

> <Gold.Chemscore.Rot>
1.0000

> <Gold.Chemscore.Internal.Correction>
   9.000000E+99

> <Gold.Chemscore.Hbonds>
donor molecule, donor type, donor heavy atom, donor atom, acceptor molecule, acceptor atom, score
      L1  H     8    27       P1  7948  0.79
      L1  H    11    28       P1  7948  0.76

> <Gold.Chemscore.Hbond.Weighted>
-5.6426

> <Gold.Chemscore.Metal.Weighted>
-0.0000

> <Gold.Chemscore.Lipo.Weighted>
-10.2662

> <Gold.Chemscore.Internal_Hbond.Weighted>
0.0000

> <Gold.Chemscore.DEClash.Weighted>
0.6594

> <Gold.Chemscore.DEInternal.Weighted>
1.2523

> <Gold.Chemscore.Rot.Weighted>
2.5600

> <Gold.Chemscore.Internal.Correction.Weighted>
   9.000000E+99

> <Gold.Protein.RotatedTorsions>
[ 6907 6896 6895 6894 ] final  -41.84 input  -60.11 | X-H torsion
[ 7974 7965 7964 7962 ] final   99.67 input  175.53 | X-H torsion
[ 8008 7997 7996 7995 ] final -143.84 input   59.86 | X-H torsion
[ 10167 10162 10161 10158 ] final  -59.90 input  -65.29 | X-H torsion
[ 10718 10713 10712 10709 ] final  136.75 input   66.30 | X-H torsion
[ 10763 10752 10751 10750 ] final -104.86 input  -60.55 | X-H torsion
[ 11005 11000 10999 10996 ] final  126.91 input  -57.11 | X-H torsion

> <Gold.Protein.ActiveResidues>
 VAL166  LYS551  ARG553  GLY616  TRP617  ASP618  TYR619  PRO620  LYS621  CYS622 
 ASP623  PHE694  ASN695  SER759  ASP760  ASP761  ALA762  ILE779  LEU786  VAL792 
 PHE793  MET794  SER795  GLU796  ALA797  LYS798  CYS799  TRP800  GLU811  SER814 

> <Gold.Protein.RotatedAtoms>
  150.9621  134.9007  159.7736 H   0  0  0  0  0  0  0  0  0  0  0  0  # atno 6907 bound_to 6896
  152.5160  134.3659  159.9311 H   0  0  0  0  0  0  0  0  0  0  0  0  # atno 6908 bound_to 6896
  151.3671  133.3828  159.2730 H   0  0  0  0  0  0  0  0  0  0  0  0  # atno 6909 bound_to 6896
  145.3958  139.2355  143.3327 H   0  0  0  0  0  0  0  0  0  0  0  0  # atno 7974 bound_to 7965
  155.5172  140.0588  157.2913 H   0  0  0  0  0  0  0  0  0  0  0  0  # atno 8008 bound_to 7997
  154.4530  140.1959  156.0408 H   0  0  0  0  0  0  0  0  0  0  0  0  # atno 8009 bound_to 7997
  156.0744  140.3255  155.7619 H   0  0  0  0  0  0  0  0  0  0  0  0  # atno 8010 bound_to 7997
  140.6106  143.2386  151.5718 H   0  0  0  0  0  0  0  0  0  0  0  0  # atno 10167 bound_to 10162
  157.4434  131.1059  151.0117 H   0  0  0  0  0  0  0  0  0  0  0  0  # atno 10718 bound_to 10713
  154.7907  135.4770  154.0047 H   0  0  0  0  0  0  0  0  0  0  0  0  # atno 10763 bound_to 10752
  153.1627  135.6811  153.8726 H   0  0  0  0  0  0  0  0  0  0  0  0  # atno 10764 bound_to 10752
  153.8334  135.3188  155.3398 H   0  0  0  0  0  0  0  0  0  0  0  0  # atno 10765 bound_to 10752
  139.9480  134.9626  156.8776 H   0  0  0  0  0  0  0  0  0  0  0  0  # atno 11005 bound_to 11000
  146.2776  140.4648  142.8789 LP  0  0  0  0  0  0  0  0  0  0  0  0  # atno 17320 bound_to 7965
  144.8408  140.6854  143.6230 LP  0  0  0  0  0  0  0  0  0  0  0  0  # atno 17321 bound_to 7965
  139.5358  144.2785  152.1248 LP  0  0  0  0  0  0  0  0  0  0  0  0  # atno 17342 bound_to 10162
  140.1983  144.4683  150.6444 LP  0  0  0  0  0  0  0  0  0  0  0  0  # atno 17343 bound_to 10162
  157.0972  130.5967  149.5452 LP  0  0  0  0  0  0  0  0  0  0  0  0  # atno 17370 bound_to 10713
  155.9958  130.5025  150.7471 LP  0  0  0  0  0  0  0  0  0  0  0  0  # atno 17371 bound_to 10713
  140.5788  134.0372  155.7456 LP  0  0  0  0  0  0  0  0  0  0  0  0  # atno 17394 bound_to 11000
  141.1136  133.9577  157.2865 LP  0  0  0  0  0  0  0  0  0  0  0  0  # atno 17395 bound_to 11000

$$$$
