AV-unprocessed.smi:170|AV-procd|sdf|1407|dock8
  -GOLD-   2262019163D 1   1.00000     0.00000
 Structure written by MMmdl.
 57 61  0  0  0  0  0  0  0  0  1 V2000
  148.0377  132.2455  152.1762 O   0  0  0  0  0  0  0  0  0  0  0  0
  146.7137  132.6593  152.4580 C   0  0  1  0  0  0  0  0  0  0  0  0
  146.7039  133.7552  153.5416 C   0  0  0  0  0  0  0  0  0  0  0  0
  146.8009  133.2061  154.8818 N   0  0  0  0  0  0  0  0  0  0  0  0
  145.8768  132.4091  155.5182 C   0  0  0  0  0  0  0  0  0  0  0  0
  146.1989  132.0441  156.7292 N   0  0  0  0  0  0  0  0  0  0  0  0
  147.4372  132.6380  156.9448 C   0  0  0  0  0  0  0  0  0  0  0  0
  148.3552  132.6660  158.0334 C   0  0  0  0  0  0  0  0  0  0  0  0
  148.1716  132.0443  159.2200 N   0  0  0  0  0  0  0  0  0  0  0  0
  147.7638  130.6591  159.0170 C   0  0  0  0  0  0  0  0  0  0  0  0
  147.7419  129.9106  160.3558 C   0  0  0  0  0  0  0  0  0  0  0  0
  146.8762  130.5941  161.2518 O   0  0  0  0  0  0  0  0  0  0  0  0
  147.3260  131.9173  161.5217 C   0  0  0  0  0  0  0  0  0  0  0  0
  147.3649  132.7543  160.2211 C   0  0  1  0  0  0  0  0  0  0  0  0
  147.8827  134.1928  160.4833 C   0  0  0  0  0  0  0  0  0  0  0  0
  147.4162  134.7931  161.8078 C   0  0  0  0  0  0  0  0  0  0  0  0
  146.0468  135.4846  161.8938 C   0  0  0  0  0  0  0  0  0  0  0  0
  146.6607  136.4718  162.8900 C   0  0  0  0  0  0  0  0  0  0  0  0
  148.0276  136.1133  162.3004 C   0  0  0  0  0  0  0  0  0  0  0  0
  149.5088  133.3600  157.8753 N   0  0  0  0  0  0  0  0  0  0  0  0
  149.7502  134.0027  156.7285 C   0  0  0  0  0  0  0  0  0  0  0  0
  148.9890  134.0738  155.6341 N   0  0  0  0  0  0  0  0  0  0  0  0
  147.8320  133.3682  155.7889 C   0  0  0  0  0  0  0  0  0  0  0  0
  146.0017  133.0961  151.1626 C   0  0  2  0  0  0  0  0  0  0  0  0
  144.5493  133.5798  151.3129 C   0  0  0  0  0  0  0  0  0  0  0  0
  143.7974  132.8218  150.2294 C   0  0  0  0  0  0  0  0  0  0  0  0
  144.9059  132.3170  149.3124 C   0  0  0  0  0  0  0  0  0  0  0  0
  145.9629  132.0364  150.2140 O   0  0  0  0  0  0  0  0  0  0  0  0
  148.0207  131.7020  151.4032 H   0  0  0  0  0  0  0  0  0  0  0  0
  146.1909  131.7843  152.8466 H   0  0  0  0  0  0  0  0  0  0  0  0
  147.5279  134.4541  153.3913 H   0  0  0  0  0  0  0  0  0  0  0  0
  145.7846  134.3388  153.4789 H   0  0  0  0  0  0  0  0  0  0  0  0
  144.9494  132.1069  155.0535 H   0  0  0  0  0  0  0  0  0  0  0  0
  146.7730  130.6313  158.5608 H   0  0  0  0  0  0  0  0  0  0  0  0
  148.4500  130.1629  158.3289 H   0  0  0  0  0  0  0  0  0  0  0  0
  147.3766  128.8936  160.2126 H   0  0  0  0  0  0  0  0  0  0  0  0
  148.7443  129.8354  160.7802 H   0  0  0  0  0  0  0  0  0  0  0  0
  146.6375  132.3550  162.2436 H   0  0  0  0  0  0  0  0  0  0  0  0
  148.3082  131.8863  161.9966 H   0  0  0  0  0  0  0  0  0  0  0  0
  146.3433  132.8180  159.8464 H   0  0  0  0  0  0  0  0  0  0  0  0
  148.9726  134.1961  160.4432 H   0  0  0  0  0  0  0  0  0  0  0  0
  147.5602  134.8554  159.6802 H   0  0  0  0  0  0  0  0  0  0  0  0
  147.4925  134.0641  162.6170 H   0  0  0  0  0  0  0  0  0  0  0  0
  145.7528  135.9600  160.9560 H   0  0  0  0  0  0  0  0  0  0  0  0
  145.2468  134.8631  162.2971 H   0  0  0  0  0  0  0  0  0  0  0  0
  146.3597  137.5104  162.7507 H   0  0  0  0  0  0  0  0  0  0  0  0
  146.5495  136.1509  163.9272 H   0  0  0  0  0  0  0  0  0  0  0  0
  148.8270  136.0007  163.0334 H   0  0  0  0  0  0  0  0  0  0  0  0
  148.3202  136.7780  161.4857 H   0  0  0  0  0  0  0  0  0  0  0  0
  150.6870  134.5381  156.6814 H   0  0  0  0  0  0  0  0  0  0  0  0
  146.5797  133.9011  150.7046 H   0  0  0  0  0  0  0  0  0  0  0  0
  144.1243  133.3766  152.2963 H   0  0  0  0  0  0  0  0  0  0  0  0
  144.4929  134.6566  151.1496 H   0  0  0  0  0  0  0  0  0  0  0  0
  143.2731  131.9734  150.6711 H   0  0  0  0  0  0  0  0  0  0  0  0
  143.0644  133.4371  149.7071 H   0  0  0  0  0  0  0  0  0  0  0  0
  144.6146  131.4335  148.7443 H   0  0  0  0  0  0  0  0  0  0  0  0
  145.2180  133.0927  148.6114 H   0  0  0  0  0  0  0  0  0  0  0  0
  1  2  1  0  0  0  0
  1 29  1  0  0  0  0
  2  3  1  0  0  0  0
  2 24  1  0  0  0  0
  2 30  1  0  0  0  0
  3  4  1  0  0  0  0
  3 31  1  0  0  0  0
  3 32  1  0  0  0  0
  4 23  1  0  0  0  0
  4  5  1  0  0  0  0
  5  6  2  0  0  0  0
  5 33  1  0  0  0  0
  6  7  1  0  0  0  0
  7 23  2  0  0  0  0
  7  8  1  0  0  0  0
  8  9  1  0  0  0  0
  8 20  2  0  0  0  0
  9 14  1  0  0  0  0
  9 10  1  0  0  0  0
 10 11  1  0  0  0  0
 10 34  1  0  0  0  0
 10 35  1  0  0  0  0
 11 12  1  0  0  0  0
 11 36  1  0  0  0  0
 11 37  1  0  0  0  0
 12 13  1  0  0  0  0
 13 14  1  0  0  0  0
 13 38  1  0  0  0  0
 13 39  1  0  0  0  0
 14 15  1  0  0  0  0
 14 40  1  0  0  0  0
 15 16  1  0  0  0  0
 15 41  1  0  0  0  0
 15 42  1  0  0  0  0
 16 19  1  0  0  0  0
 16 17  1  0  0  0  0
 16 43  1  0  0  0  0
 17 18  1  0  0  0  0
 17 44  1  0  0  0  0
 17 45  1  0  0  0  0
 18 19  1  0  0  0  0
 18 46  1  0  0  0  0
 18 47  1  0  0  0  0
 19 48  1  0  0  0  0
 19 49  1  0  0  0  0
 20 21  1  0  0  0  0
 21 22  2  0  0  0  0
 21 50  1  0  0  0  0
 22 23  1  0  0  0  0
 24 28  1  0  0  0  0
 24 25  1  0  0  0  0
 24 51  1  0  0  0  0
 25 26  1  0  0  0  0
 25 52  1  0  0  0  0
 25 53  1  0  0  0  0
 26 27  1  0  0  0  0
 26 54  1  0  0  0  0
 26 55  1  0  0  0  0
 27 28  1  0  0  0  0
 27 56  1  0  0  0  0
 27 57  1  0  0  0  0
M  END
> <s_m_source_file>
AV-unprocessed.smi

> <i_m_source_file_index>
170

> <i_lp_mmshare_version>
43012

> <i_f3d_flags>
0

> <s_epik_input>
TzFbQ0gyXVtDSDJdW0NIMl1bQ0BIXTFbQ0BIXShbT0hdKVtDSDJdbihbY0hdbjIpYyhjMjMpbltjSF1uYzNONFtDSDJdW0NIMl1PW0NIMl1bQ0BIXTRbQ0gyXVtDSF01W0NIMl1bQ0gyXVtDSDJdNQ==

> <s_epik_cmdline>
J2VwaWtfcHl0aG9uJywgJy1waCcsICc3LjAnLCAnLXRuJywgJzgnLCAnLW1hJywgJzIwMCcsICctbWV0YWxfYmluZGluZycsICctaW1hZScsICc8aW5maWxlLm1hZT4nLCAnLW9tYWUnLCAnPG91dGZpbGUubWFlPic=

> <r_lp_tautomer_probability>
1

> <r_epik_Ionization_Penalty>
4.98275e-05

> <r_epik_Ionization_Penalty_Charging>
0

> <r_epik_Ionization_Penalty_Neutral>
4.98275e-05

> <r_epik_State_Penalty>
-0

> <r_epik_Charging_Adjusted_Penalty>
0

> <i_epik_Tot_Q>
0

> <i_epik_Tot_abs_Q>
0

> <r_epik_Metal_State_Penalty>
-0

> <b_epik_Metal_Only>
0

> <s_lp_Force_Field>
OPLS_2005

> <r_lp_Energy>
52.7393

> <b_lp_Chiralities_Consistent>
1

> <s_lp_Variant>
AV-unprocessed.smi:170-2

> <Gold.Version>
5.8.1

> <Gold.Id.Protein>
6NUR|6NUR_protein|mol2

> <Gold.PLP.Fitness>
43.3725

> <Gold.PLP.PLP>
-36.3270

> <Gold.PLP.part.hbond>
-2.0000

> <Gold.PLP.part.metal>
0.0000

> <Gold.PLP.part.buried>
-7.3152

> <Gold.PLP.part.nonpolar>
-27.7681

> <Gold.PLP.part.repulsive>
0.2605

> <Gold.PLP.ligand.clash>
0.0000

> <Gold.PLP.ligand.torsion>
1.1088

> <Gold.PLP.Chemscore.Hbond>
2.0000

> <Gold.PLP.Chemscore.CHOScore>
1.0000

> <Gold.PLP.Chemscore.Metal>
0.0000

> <Gold.Chemscore.Hbonds>
donor molecule, donor type, donor heavy atom, donor atom, acceptor molecule, acceptor atom, score
      L1  H     1    29       P1 10747  0.88
      P1  H  6896  6909       L1    20  1.00
      L1  C     5    33       P1 10957  1.00

> <Gold.PLP.Chemscore.Internal.Correction>
0.2631

> <Gold.Rescore>
     Score         DG    S(hbond)    S(metal)    S(lipo)     H(rot)  DE(clash)    DE(int)     intcor
     15.65     -16.56       1.93        0.00      96.82       2.61       0.01       0.90       ----

> <Gold.Chemscore.Fitness>
15.6541

> <Gold.Chemscore.DG>
-16.5640

> <Gold.Chemscore.ZeroCoef>
-5.4800

> <Gold.Chemscore.Hbond>
1.9307

> <Gold.Chemscore.Metal>
0.0000

> <Gold.Chemscore.Lipo>
96.8231

> <Gold.Chemscore.Internal_Hbond>
0.0000

> <Gold.Chemscore.DEClash>
0.0126

> <Gold.Chemscore.DEInternal>
0.8973

> <Gold.Chemscore.Rot>
2.6144

> <Gold.Chemscore.Internal.Correction>
   9.000000E+99

> <Gold.Chemscore.Hbonds>
donor molecule, donor type, donor heavy atom, donor atom, acceptor molecule, acceptor atom, score
      L1  H     1    29       P1 10747  0.86
      P1  H  6896  6909       L1    20  0.85

> <Gold.Chemscore.Hbond.Weighted>
-6.4486

> <Gold.Chemscore.Metal.Weighted>
-0.0000

> <Gold.Chemscore.Lipo.Weighted>
-11.3283

> <Gold.Chemscore.Internal_Hbond.Weighted>
0.0000

> <Gold.Chemscore.DEClash.Weighted>
0.0126

> <Gold.Chemscore.DEInternal.Weighted>
0.8973

> <Gold.Chemscore.Rot.Weighted>
6.6929

> <Gold.Chemscore.Internal.Correction.Weighted>
   9.000000E+99

> <Gold.Protein.RotatedTorsions>
[ 6907 6896 6895 6894 ] final    1.00 input  -60.11 | X-H torsion
[ 7974 7965 7964 7962 ] final  -13.88 input  175.53 | X-H torsion
[ 8008 7997 7996 7995 ] final -153.72 input   59.86 | X-H torsion
[ 10167 10162 10161 10158 ] final  100.38 input  -65.29 | X-H torsion
[ 10718 10713 10712 10709 ] final   62.94 input   66.30 | X-H torsion
[ 10763 10752 10751 10750 ] final  -45.35 input  -60.55 | X-H torsion
[ 11005 11000 10999 10996 ] final  -84.12 input  -57.11 | X-H torsion

> <Gold.Protein.ActiveResidues>
 VAL166  LYS551  ARG553  GLY616  TRP617  ASP618  TYR619  PRO620  LYS621  CYS622 
 ASP623  PHE694  ASN695  SER759  ASP760  ASP761  ALA762  ILE779  LEU786  VAL792 
 PHE793  MET794  SER795  GLU796  ALA797  LYS798  CYS799  TRP800  GLU811  SER814 

> <Gold.Protein.RotatedAtoms>
  151.5855  135.1056  160.0026 H   0  0  0  0  0  0  0  0  0  0  0  0  # atno 6907 bound_to 6896
  152.4333  133.7311  159.6598 H   0  0  0  0  0  0  0  0  0  0  0  0  # atno 6908 bound_to 6896
  150.8227  133.8154  159.3155 H   0  0  0  0  0  0  0  0  0  0  0  0  # atno 6909 bound_to 6896
  146.2097  140.3268  142.8395 H   0  0  0  0  0  0  0  0  0  0  0  0  # atno 7974 bound_to 7965
  155.6752  140.0738  157.2505 H   0  0  0  0  0  0  0  0  0  0  0  0  # atno 8008 bound_to 7997
  154.4116  140.1692  156.1974 H   0  0  0  0  0  0  0  0  0  0  0  0  # atno 8009 bound_to 7997
  155.9582  140.3372  155.6470 H   0  0  0  0  0  0  0  0  0  0  0  0  # atno 8010 bound_to 7997
  139.7532  144.6977  151.0401 H   0  0  0  0  0  0  0  0  0  0  0  0  # atno 10167 bound_to 10162
  157.5936  130.9078  149.9651 H   0  0  0  0  0  0  0  0  0  0  0  0  # atno 10718 bound_to 10713
  154.0270  135.6661  153.4777 H   0  0  0  0  0  0  0  0  0  0  0  0  # atno 10763 bound_to 10752
  153.0556  135.5058  154.7969 H   0  0  0  0  0  0  0  0  0  0  0  0  # atno 10764 bound_to 10752
  154.6902  135.3060  154.9455 H   0  0  0  0  0  0  0  0  0  0  0  0  # atno 10765 bound_to 10752
  141.1653  133.7329  156.8821 H   0  0  0  0  0  0  0  0  0  0  0  0  # atno 11005 bound_to 11000
  144.8881  140.7488  143.5944 LP  0  0  0  0  0  0  0  0  0  0  0  0  # atno 17320 bound_to 7965
  145.3189  139.1794  143.4598 LP  0  0  0  0  0  0  0  0  0  0  0  0  # atno 17321 bound_to 7965
  140.7800  143.4784  151.0051 LP  0  0  0  0  0  0  0  0  0  0  0  0  # atno 17342 bound_to 10162
  139.8471  143.7486  152.3179 LP  0  0  0  0  0  0  0  0  0  0  0  0  # atno 17343 bound_to 10162
  156.0995  130.3657  150.0245 LP  0  0  0  0  0  0  0  0  0  0  0  0  # atno 17370 bound_to 10713
  156.8363  130.9410  151.3634 LP  0  0  0  0  0  0  0  0  0  0  0  0  # atno 17371 bound_to 10713
  140.1707  134.9102  157.2830 LP  0  0  0  0  0  0  0  0  0  0  0  0  # atno 17394 bound_to 11000
  140.2505  134.3688  155.7444 LP  0  0  0  0  0  0  0  0  0  0  0  0  # atno 17395 bound_to 11000

$$$$
