AV-unprocessed.smi:2107|AV-procd|sdf|8600|dock6
  -GOLD-   2272011333D 1   1.00000     0.00000
 Structure written by MMmdl.
 46 47  0  0  0  0  0  0  0  0  1 V2000
  145.2366  135.7519  162.6146 C   0  0  0  0  0  0  0  0  0  0  0  0
  146.7706  135.7929  162.6308 C   0  0  0  0  0  0  0  0  0  0  0  0
  147.3415  135.3576  161.3396 N   0  0  0  0  0  0  0  0  0  0  0  0
  147.1719  133.9258  161.0313 C   0  0  0  0  0  0  0  0  0  0  0  0
  147.8063  133.0317  162.1066 C   0  0  0  0  0  0  0  0  0  0  0  0
  147.3674  136.4845  160.0160 S   0  0  0  0  0  0  0  0  0  0  0  0
  146.4458  136.0081  158.9725 O   0  0  0  0  0  0  0  0  0  0  0  0
  147.2616  137.8442  160.5665 O   0  0  0  0  0  0  0  0  0  0  0  0
  148.9873  136.2348  159.4746 N   0  0  0  0  0  0  0  0  0  0  0  0
  149.4439  136.8467  158.2246 C   0  0  0  0  0  0  0  0  0  0  0  0
  149.7245  135.8551  157.0943 C   0  0  0  0  0  0  0  0  0  0  0  0
  149.5858  134.4649  157.3115 C   0  0  0  0  0  0  0  0  0  0  0  0
  149.8691  133.5679  156.2665 C   0  0  0  0  0  0  0  0  0  0  0  0
  150.2932  134.0948  155.0344 C   0  0  0  0  0  0  0  0  0  0  0  0
  150.4420  135.4159  154.8104 N   0  0  0  0  0  0  0  0  0  0  0  0
  150.1683  136.2850  155.8145 C   0  0  0  0  0  0  0  0  0  0  0  0
  150.3205  137.6545  155.5354 N   0  0  0  0  0  0  0  0  0  0  0  0
  149.4190  138.1214  154.4901 C   0  0  0  0  0  0  0  0  0  0  0  0
  149.4871  139.6544  154.3847 C   0  0  0  0  0  0  0  0  0  0  0  0
  150.8353  140.0608  154.1647 O   0  0  0  0  0  0  0  0  0  0  0  0
  151.6965  139.6611  155.2275 C   0  0  0  0  0  0  0  0  0  0  0  0
  151.6878  138.1277  155.3481 C   0  0  0  0  0  0  0  0  0  0  0  0
  144.8328  136.1661  163.5384 H   0  0  0  0  0  0  0  0  0  0  0  0
  144.8611  134.7334  162.5279 H   0  0  0  0  0  0  0  0  0  0  0  0
  144.8293  136.3328  161.7871 H   0  0  0  0  0  0  0  0  0  0  0  0
  147.1079  136.8018  162.8711 H   0  0  0  0  0  0  0  0  0  0  0  0
  147.1462  135.1560  163.4317 H   0  0  0  0  0  0  0  0  0  0  0  0
  146.1112  133.7008  160.9146 H   0  0  0  0  0  0  0  0  0  0  0  0
  147.6407  133.6964  160.0752 H   0  0  0  0  0  0  0  0  0  0  0  0
  147.7357  131.9817  161.8223 H   0  0  0  0  0  0  0  0  0  0  0  0
  147.3121  133.1405  163.0718 H   0  0  0  0  0  0  0  0  0  0  0  0
  148.8624  133.2680  162.2398 H   0  0  0  0  0  0  0  0  0  0  0  0
  149.6749  136.2814  160.2264 H   0  0  0  0  0  0  0  0  0  0  0  0
  148.7127  137.5986  157.9304 H   0  0  0  0  0  0  0  0  0  0  0  0
  150.3702  137.3840  158.4274 H   0  0  0  0  0  0  0  0  0  0  0  0
  149.2681  134.0782  158.2667 H   0  0  0  0  0  0  0  0  0  0  0  0
  149.7666  132.5023  156.4081 H   0  0  0  0  0  0  0  0  0  0  0  0
  150.5221  133.4388  154.2079 H   0  0  0  0  0  0  0  0  0  0  0  0
  149.7033  137.6680  153.5395 H   0  0  0  0  0  0  0  0  0  0  0  0
  148.3968  137.8074  154.7003 H   0  0  0  0  0  0  0  0  0  0  0  0
  148.8702  140.0022  153.5561 H   0  0  0  0  0  0  0  0  0  0  0  0
  149.0988  140.1230  155.2906 H   0  0  0  0  0  0  0  0  0  0  0  0
  152.7060  140.0163  155.0206 H   0  0  0  0  0  0  0  0  0  0  0  0
  151.3787  140.1268  156.1618 H   0  0  0  0  0  0  0  0  0  0  0  0
  152.3066  137.8123  156.1891 H   0  0  0  0  0  0  0  0  0  0  0  0
  152.1147  137.6872  154.4461 H   0  0  0  0  0  0  0  0  0  0  0  0
  1  2  1  0  0  0  0
  1 23  1  0  0  0  0
  1 24  1  0  0  0  0
  1 25  1  0  0  0  0
  2  3  1  0  0  0  0
  2 26  1  0  0  0  0
  2 27  1  0  0  0  0
  3  4  1  0  0  0  0
  3  6  1  0  0  0  0
  4  5  1  0  0  0  0
  4 28  1  0  0  0  0
  4 29  1  0  0  0  0
  5 30  1  0  0  0  0
  5 31  1  0  0  0  0
  5 32  1  0  0  0  0
  6  7  2  0  0  0  0
  6  8  2  0  0  0  0
  6  9  1  0  0  0  0
  9 10  1  0  0  0  0
  9 33  1  0  0  0  0
 10 11  1  0  0  0  0
 10 34  1  0  0  0  0
 10 35  1  0  0  0  0
 11 16  1  0  0  0  0
 11 12  2  0  0  0  0
 12 13  1  0  0  0  0
 12 36  1  0  0  0  0
 13 14  2  0  0  0  0
 13 37  1  0  0  0  0
 14 15  1  0  0  0  0
 14 38  1  0  0  0  0
 15 16  2  0  0  0  0
 16 17  1  0  0  0  0
 17 22  1  0  0  0  0
 17 18  1  0  0  0  0
 18 19  1  0  0  0  0
 18 39  1  0  0  0  0
 18 40  1  0  0  0  0
 19 20  1  0  0  0  0
 19 41  1  0  0  0  0
 19 42  1  0  0  0  0
 20 21  1  0  0  0  0
 21 22  1  0  0  0  0
 21 43  1  0  0  0  0
 21 44  1  0  0  0  0
 22 45  1  0  0  0  0
 22 46  1  0  0  0  0
M  END
> <s_m_source_file>
AV-unprocessed.smi

> <i_m_source_file_index>
2107

> <i_lp_mmshare_version>
43012

> <i_f3d_flags>
0

> <s_epik_input>
W0NIM11bQ0gyXU4oW0NIMl1bQ0gzXSlTKD1PKSg9TylbTkhdW0NIMl1jMVtjSF1bY0hdW2NIXW5jMU4yW0NIMl1bQ0gyXU9bQ0gyXVtDSDJdMg==

> <s_epik_cmdline>
J2VwaWtfcHl0aG9uJywgJy1waCcsICc3LjAnLCAnLXRuJywgJzgnLCAnLW1hJywgJzIwMCcsICctbWV0YWxfYmluZGluZycsICctaW1hZScsICc8aW5maWxlLm1hZT4nLCAnLW9tYWUnLCAnPG91dGZpbGUubWFlPic=

> <r_lp_tautomer_probability>
1

> <r_epik_Ionization_Penalty>
0.0173886

> <r_epik_Ionization_Penalty_Charging>
0

> <r_epik_Ionization_Penalty_Neutral>
0.0173886

> <r_epik_State_Penalty>
0.0135122

> <r_epik_Charging_Adjusted_Penalty>
0.0135122

> <i_epik_Tot_Q>
0

> <i_epik_Tot_abs_Q>
0

> <r_epik_Metal_State_Penalty>
0.283451

> <b_epik_Metal_Only>
0

> <s_lp_Force_Field>
OPLS_2005

> <r_lp_Energy>
23.0208

> <b_lp_Chiralities_Consistent>
1

> <s_lp_Variant>
AV-unprocessed.smi:2107-1

> <Gold.Version>
5.8.1

> <Gold.Id.Protein>
6NUR|6NUR_protein|mol2

> <Gold.PLP.Fitness>
42.4760

> <Gold.PLP.PLP>
-35.0430

> <Gold.PLP.part.hbond>
-4.0000

> <Gold.PLP.part.metal>
0.0000

> <Gold.PLP.part.buried>
-5.4167

> <Gold.PLP.part.nonpolar>
-26.5892

> <Gold.PLP.part.repulsive>
0.5101

> <Gold.PLP.ligand.clash>
0.0000

> <Gold.PLP.ligand.torsion>
2.0005

> <Gold.PLP.Chemscore.Hbond>
2.8080

> <Gold.PLP.Chemscore.CHOScore>
0.0000

> <Gold.PLP.Chemscore.Metal>
0.0000

> <Gold.Chemscore.Hbonds>
donor molecule, donor type, donor heavy atom, donor atom, acceptor molecule, acceptor atom, score
      P1  H  6931  6943       L1     8  0.21
      P1  H  6934  6947       L1     8  0.26
      P1  H  7989  7998       L1    20  0.46

> <Gold.PLP.Chemscore.Internal.Correction>
3.0100

> <Gold.Rescore>
     Score         DG    S(hbond)    S(metal)    S(lipo)     H(rot)  DE(clash)    DE(int)     intcor
     15.97     -17.97       2.66        0.00      73.01       1.93       0.03       1.97       ----

> <Gold.Chemscore.Fitness>
15.9696

> <Gold.Chemscore.DG>
-17.9745

> <Gold.Chemscore.ZeroCoef>
-5.4800

> <Gold.Chemscore.Hbond>
2.6622

> <Gold.Chemscore.Metal>
0.0000

> <Gold.Chemscore.Lipo>
73.0117

> <Gold.Chemscore.Internal_Hbond>
0.0000

> <Gold.Chemscore.DEClash>
0.0314

> <Gold.Chemscore.DEInternal>
1.9736

> <Gold.Chemscore.Rot>
1.9295

> <Gold.Chemscore.Internal.Correction>
   9.000000E+99

> <Gold.Chemscore.Hbonds>
donor molecule, donor type, donor heavy atom, donor atom, acceptor molecule, acceptor atom, score
      P1  H  6931  6943       L1     8  0.16
      P1  H  6934  6947       L1     8  0.27
      P1  H  7989  7998       L1    20  0.14

> <Gold.Chemscore.Hbond.Weighted>
-8.8917

> <Gold.Chemscore.Metal.Weighted>
-0.0000

> <Gold.Chemscore.Lipo.Weighted>
-8.5424

> <Gold.Chemscore.Internal_Hbond.Weighted>
0.0000

> <Gold.Chemscore.DEClash.Weighted>
0.0314

> <Gold.Chemscore.DEInternal.Weighted>
1.9736

> <Gold.Chemscore.Rot.Weighted>
4.9395

> <Gold.Chemscore.Internal.Correction.Weighted>
   9.000000E+99

> <Gold.Protein.RotatedTorsions>
[ 6907 6896 6895 6894 ] final -174.91 input  -60.11 | X-H torsion
[ 7974 7965 7964 7962 ] final -126.04 input  175.53 | X-H torsion
[ 8008 7997 7996 7995 ] final   92.10 input   59.86 | X-H torsion
[ 10167 10162 10161 10158 ] final -119.60 input  -65.29 | X-H torsion
[ 10718 10713 10712 10709 ] final   41.71 input   66.30 | X-H torsion
[ 10763 10752 10751 10750 ] final  101.75 input  -60.55 | X-H torsion
[ 11005 11000 10999 10996 ] final  147.28 input  -57.11 | X-H torsion

> <Gold.Protein.ActiveResidues>
 VAL166  LYS551  ARG553  GLY616  TRP617  ASP618  TYR619  PRO620  LYS621  CYS622 
 ASP623  PHE694  ASN695  SER759  ASP760  ASP761  ALA762  ILE779  LEU786  VAL792 
 PHE793  MET794  SER795  GLU796  ALA797  LYS798  CYS799  TRP800  GLU811  SER814 

> <Gold.Protein.RotatedAtoms>
  151.5800  133.3379  159.3006 H   0  0  0  0  0  0  0  0  0  0  0  0  # atno 6907 bound_to 6896
  150.8319  134.7578  159.6872 H   0  0  0  0  0  0  0  0  0  0  0  0  # atno 6908 bound_to 6896
  152.4401  134.5614  159.9947 H   0  0  0  0  0  0  0  0  0  0  0  0  # atno 6909 bound_to 6896
  144.9914  140.7735  143.4552 H   0  0  0  0  0  0  0  0  0  0  0  0  # atno 7974 bound_to 7965
  156.0314  140.3329  155.7144 H   0  0  0  0  0  0  0  0  0  0  0  0  # atno 8008 bound_to 7997
  155.5879  140.0643  157.2784 H   0  0  0  0  0  0  0  0  0  0  0  0  # atno 8009 bound_to 7997
  154.4355  140.1832  156.1032 H   0  0  0  0  0  0  0  0  0  0  0  0  # atno 8010 bound_to 7997
  140.0449  143.5116  152.2111 H   0  0  0  0  0  0  0  0  0  0  0  0  # atno 10167 bound_to 10162
  157.3966  130.7836  149.7314 H   0  0  0  0  0  0  0  0  0  0  0  0  # atno 10718 bound_to 10713
  153.3306  135.4034  155.1492 H   0  0  0  0  0  0  0  0  0  0  0  0  # atno 10763 bound_to 10752
  154.8622  135.3609  154.5475 H   0  0  0  0  0  0  0  0  0  0  0  0  # atno 10764 bound_to 10752
  153.5913  135.7074  153.5481 H   0  0  0  0  0  0  0  0  0  0  0  0  # atno 10765 bound_to 10752
  140.0863  134.9068  157.1580 H   0  0  0  0  0  0  0  0  0  0  0  0  # atno 11005 bound_to 11000
  145.2281  139.2127  143.5057 LP  0  0  0  0  0  0  0  0  0  0  0  0  # atno 17320 bound_to 7965
  146.3432  140.2152  142.8590 LP  0  0  0  0  0  0  0  0  0  0  0  0  # atno 17321 bound_to 7965
  139.5990  144.7576  151.3217 LP  0  0  0  0  0  0  0  0  0  0  0  0  # atno 17342 bound_to 10162
  140.7243  143.7048  150.7816 LP  0  0  0  0  0  0  0  0  0  0  0  0  # atno 17343 bound_to 10162
  155.9812  130.4022  150.3485 LP  0  0  0  0  0  0  0  0  0  0  0  0  # atno 17370 bound_to 10713
  157.1607  131.0344  151.2842 LP  0  0  0  0  0  0  0  0  0  0  0  0  # atno 17371 bound_to 10713
  140.3416  134.2697  155.7211 LP  0  0  0  0  0  0  0  0  0  0  0  0  # atno 17394 bound_to 11000
  141.2063  133.7836  157.0182 LP  0  0  0  0  0  0  0  0  0  0  0  0  # atno 17395 bound_to 11000

$$$$
