AV-unprocessed.smi:1225|AV-procd|sdf|5140|dock6
  -GOLD-   22720 4203D 1   1.00000     0.00000
 Structure written by MMmdl.
 49 51  0  0  0  0  0  0  0  0  2 V2000
  144.6664  133.4274  150.4814 C   0  0  0  0  0  0  0  0  0  0  0  0
  144.7762  134.6558  151.3179 C   0  0  0  0  0  0  0  0  0  0  0  0
  143.7531  135.4800  151.5534 N   0  0  0  0  0  0  0  0  0  0  0  0
  144.1104  136.5553  152.3692 C   0  0  0  0  0  0  0  0  0  0  0  0
  145.4298  136.5488  152.7502 C   0  0  0  0  0  0  0  0  0  0  0  0
  146.1332  137.5445  153.6162 C   0  0  0  0  0  0  0  0  0  0  0  0
  147.1281  138.3546  152.8690 N   0  3  1  0  0  0  0  0  0  0  0  0
  146.6509  138.6737  151.5026 C   0  0  0  0  0  0  0  0  0  0  0  0
  147.5891  139.5551  153.6186 C   0  0  0  0  0  0  0  0  0  0  0  0
  148.9032  139.3119  154.3862 C   0  0  2  0  0  0  0  0  0  0  0  0
  148.6114  138.6146  155.5823 O   0  0  0  0  0  0  0  0  0  0  0  0
  149.6108  140.6350  154.7339 C   0  0  0  0  0  0  0  0  0  0  0  0
  150.6883  140.4498  155.6885 N   0  0  0  0  0  0  0  0  0  0  0  0
  151.6490  139.5055  155.6650 C   0  0  0  0  0  0  0  0  0  0  0  0
  152.5436  139.5242  156.6490 N   0  0  0  0  0  0  0  0  0  0  0  0
  152.1087  140.6012  157.4026 C   0  0  0  0  0  0  0  0  0  0  0  0
  152.6243  141.1563  158.5941 C   0  0  0  0  0  0  0  0  0  0  0  0
  152.0066  142.2741  159.1993 C   0  0  0  0  0  0  0  0  0  0  0  0
  152.5920  142.8369  160.4824 C   0  0  0  0  0  0  0  0  0  0  0  0
  150.8554  142.8561  158.6099 C   0  0  0  0  0  0  0  0  0  0  0  0
  150.1744  144.0565  159.2429 C   0  0  0  0  0  0  0  0  0  0  0  0
  150.3284  142.3151  157.4187 C   0  0  0  0  0  0  0  0  0  0  0  0
  150.9505  141.2013  156.8281 C   0  0  0  0  0  0  0  0  0  0  0  0
  146.2679  135.1621  152.1008 S   0  0  0  0  0  0  0  0  0  0  0  0
  144.0040  133.6039  149.6335 H   0  0  0  0  0  0  0  0  0  0  0  0
  144.2654  132.6062  151.0757 H   0  0  0  0  0  0  0  0  0  0  0  0
  145.6472  133.1396  150.1025 H   0  0  0  0  0  0  0  0  0  0  0  0
  143.3589  137.2869  152.6274 H   0  0  0  0  0  0  0  0  0  0  0  0
  145.3821  138.2046  154.0523 H   0  0  0  0  0  0  0  0  0  0  0  0
  146.6245  137.0458  154.4531 H   0  0  0  0  0  0  0  0  0  0  0  0
  145.7768  139.3252  151.5366 H   0  0  0  0  0  0  0  0  0  0  0  0
  146.3743  137.7637  150.9691 H   0  0  0  0  0  0  0  0  0  0  0  0
  147.4213  139.1657  150.9105 H   0  0  0  0  0  0  0  0  0  0  0  0
  147.7014  140.3893  152.9243 H   0  0  0  0  0  0  0  0  0  0  0  0
  146.8335  139.8670  154.3395 H   0  0  0  0  0  0  0  0  0  0  0  0
  149.5826  138.7016  153.7921 H   0  0  0  0  0  0  0  0  0  0  0  0
  148.7429  139.2016  156.3120 H   0  0  0  0  0  0  0  0  0  0  0  0
  150.0324  141.0845  153.8339 H   0  0  0  0  0  0  0  0  0  0  0  0
  148.9006  141.3576  155.1393 H   0  0  0  0  0  0  0  0  0  0  0  0
  151.6968  138.7653  154.8797 H   0  0  0  0  0  0  0  0  0  0  0  0
  153.5013  140.7133  159.0427 H   0  0  0  0  0  0  0  0  0  0  0  0
  152.9174  143.8667  160.3335 H   0  0  0  0  0  0  0  0  0  0  0  0
  153.4539  142.2578  160.8155 H   0  0  0  0  0  0  0  0  0  0  0  0
  151.8500  142.8200  161.2808 H   0  0  0  0  0  0  0  0  0  0  0  0
  149.3183  144.3855  158.6533 H   0  0  0  0  0  0  0  0  0  0  0  0
  150.8687  144.8936  159.3202 H   0  0  0  0  0  0  0  0  0  0  0  0
  149.8168  143.8092  160.2427 H   0  0  0  0  0  0  0  0  0  0  0  0
  149.4519  142.7477  156.9597 H   0  0  0  0  0  0  0  0  0  0  0  0
  147.9394  137.7624  152.7595 H   0  0  0  0  0  0  0  0  0  0  0  0
  1  2  1  0  0  0  0
  1 25  1  0  0  0  0
  1 26  1  0  0  0  0
  1 27  1  0  0  0  0
  2 24  1  0  0  0  0
  2  3  2  0  0  0  0
  3  4  1  0  0  0  0
  4  5  2  0  0  0  0
  4 28  1  0  0  0  0
  5  6  1  0  0  0  0
  5 24  1  0  0  0  0
  6  7  1  0  0  0  0
  6 29  1  0  0  0  0
  6 30  1  0  0  0  0
  7  8  1  0  0  0  0
  7  9  1  0  0  0  0
  7 49  1  0  0  0  0
  8 31  1  0  0  0  0
  8 32  1  0  0  0  0
  8 33  1  0  0  0  0
  9 10  1  0  0  0  0
  9 34  1  0  0  0  0
  9 35  1  0  0  0  0
 10 11  1  0  0  0  0
 10 12  1  0  0  0  0
 10 36  1  0  0  0  0
 11 37  1  0  0  0  0
 12 13  1  0  0  0  0
 12 38  1  0  0  0  0
 12 39  1  0  0  0  0
 13 23  1  0  0  0  0
 13 14  1  0  0  0  0
 14 15  2  0  0  0  0
 14 40  1  0  0  0  0
 15 16  1  0  0  0  0
 16 23  2  0  0  0  0
 16 17  1  0  0  0  0
 17 18  2  0  0  0  0
 17 41  1  0  0  0  0
 18 19  1  0  0  0  0
 18 20  1  0  0  0  0
 19 42  1  0  0  0  0
 19 43  1  0  0  0  0
 19 44  1  0  0  0  0
 20 21  1  0  0  0  0
 20 22  2  0  0  0  0
 21 45  1  0  0  0  0
 21 46  1  0  0  0  0
 21 47  1  0  0  0  0
 22 23  1  0  0  0  0
 22 48  1  0  0  0  0
M  CHG  1   7   1
M  END
> <s_m_source_file>
AV-unprocessed.smi

> <i_m_source_file_index>
1225

> <i_lp_mmshare_version>
43012

> <i_f3d_flags>
0

> <s_epik_input>
W0NIM11jMW5bY0hdYyhzMSlbQ0gyXU4oW0NIM10pW0NIMl1bQ0BIXShbT0hdKVtDSDJdbihbY0hdbjIpYyhjMjMpW2NIXWMoW0NIM10pYyhbY0hdMylbQ0gzXQ==

> <s_epik_cmdline>
J2VwaWtfcHl0aG9uJywgJy1waCcsICc3LjAnLCAnLXRuJywgJzgnLCAnLW1hJywgJzIwMCcsICctbWV0YWxfYmluZGluZycsICctaW1hZScsICc8aW5maWxlLm1hZT4nLCAnLW9tYWUnLCAnPG91dGZpbGUubWFlPic=

> <r_epik_Ionization_Penalty>
1.62543

> <r_epik_Ionization_Penalty_Charging>
1.53932

> <r_epik_Ionization_Penalty_Neutral>
0.0861152

> <r_epik_State_Penalty>
1.73127

> <r_epik_Charging_Adjusted_Penalty>
3.27059

> <i_epik_Tot_Q>
1

> <i_epik_Tot_abs_Q>
1

> <r_epik_Metal_State_Penalty>
1.71387

> <b_epik_Metal_Only>
0

> <s_lp_Force_Field>
OPLS_2005

> <r_lp_Energy>
11.3728

> <b_lp_Chiralities_Consistent>
1

> <s_lp_Variant>
AV-unprocessed.smi:1225-5

> <Gold.Version>
5.8.1

> <Gold.Id.Protein>
6NUR|6NUR_protein|mol2

> <Gold.PLP.Fitness>
49.8429

> <Gold.PLP.PLP>
-43.1704

> <Gold.PLP.part.hbond>
-2.0000

> <Gold.PLP.part.metal>
0.0000

> <Gold.PLP.part.buried>
-0.4295

> <Gold.PLP.part.nonpolar>
-40.6530

> <Gold.PLP.part.repulsive>
0.2421

> <Gold.PLP.ligand.clash>
0.0000

> <Gold.PLP.ligand.torsion>
1.2144

> <Gold.PLP.Chemscore.Hbond>
3.0000

> <Gold.PLP.Chemscore.CHOScore>
0.0000

> <Gold.PLP.Chemscore.Metal>
0.0000

> <Gold.Chemscore.Hbonds>
donor molecule, donor type, donor heavy atom, donor atom, acceptor molecule, acceptor atom, score
      L1  H     7    49       P1  7948  1.98
      P1  H  7997  8009       L1    15  0.95

> <Gold.PLP.Chemscore.Internal.Correction>
0.1012

> <Gold.Rescore>
     Score         DG    S(hbond)    S(metal)    S(lipo)     H(rot)  DE(clash)    DE(int)     intcor
     17.38     -18.64       1.72        0.00     115.44       2.37       0.05       1.21       ----

> <Gold.Chemscore.Fitness>
17.3804

> <Gold.Chemscore.DG>
-18.6362

> <Gold.Chemscore.ZeroCoef>
-5.4800

> <Gold.Chemscore.Hbond>
1.7154

> <Gold.Chemscore.Metal>
0.0000

> <Gold.Chemscore.Lipo>
115.4413

> <Gold.Chemscore.Internal_Hbond>
0.0000

> <Gold.Chemscore.DEClash>
0.0485

> <Gold.Chemscore.DEInternal>
1.2073

> <Gold.Chemscore.Rot>
2.3750

> <Gold.Chemscore.Internal.Correction>
   9.000000E+99

> <Gold.Chemscore.Hbonds>
donor molecule, donor type, donor heavy atom, donor atom, acceptor molecule, acceptor atom, score
      L1  H     7    49       P1  7948  0.90
      P1  H  7997  8009       L1    15  0.20

> <Gold.Chemscore.Hbond.Weighted>
-5.7296

> <Gold.Chemscore.Metal.Weighted>
-0.0000

> <Gold.Chemscore.Lipo.Weighted>
-13.5066

> <Gold.Chemscore.Internal_Hbond.Weighted>
0.0000

> <Gold.Chemscore.DEClash.Weighted>
0.0485

> <Gold.Chemscore.DEInternal.Weighted>
1.2073

> <Gold.Chemscore.Rot.Weighted>
6.0800

> <Gold.Chemscore.Internal.Correction.Weighted>
   9.000000E+99

> <Gold.Protein.RotatedTorsions>
[ 6907 6896 6895 6894 ] final -151.92 input  -60.11 | X-H torsion
[ 7974 7965 7964 7962 ] final -134.35 input  175.53 | X-H torsion
[ 8008 7997 7996 7995 ] final -153.73 input   59.86 | X-H torsion
[ 10167 10162 10161 10158 ] final  -50.37 input  -65.29 | X-H torsion
[ 10718 10713 10712 10709 ] final   44.43 input   66.30 | X-H torsion
[ 10763 10752 10751 10750 ] final   66.69 input  -60.55 | X-H torsion
[ 11005 11000 10999 10996 ] final   20.57 input  -57.11 | X-H torsion

> <Gold.Protein.ActiveResidues>
 VAL166  LYS551  ARG553  GLY616  TRP617  ASP618  TYR619  PRO620  LYS621  CYS622 
 ASP623  PHE694  ASN695  SER759  ASP760  ASP761  ALA762  ILE779  LEU786  VAL792 
 PHE793  MET794  SER795  GLU796  ALA797  LYS798  CYS799  TRP800  GLU811  SER814 

> <Gold.Protein.RotatedAtoms>
  151.2202  133.4506  159.2600 H   0  0  0  0  0  0  0  0  0  0  0  0  # atno 6907 bound_to 6896
  151.0892  134.9906  159.8404 H   0  0  0  0  0  0  0  0  0  0  0  0  # atno 6908 bound_to 6896
  152.5433  134.2137  159.8813 H   0  0  0  0  0  0  0  0  0  0  0  0  # atno 6909 bound_to 6896
  144.9110  140.6895  143.5025 H   0  0  0  0  0  0  0  0  0  0  0  0  # atno 7974 bound_to 7965
  155.6754  140.0738  157.2504 H   0  0  0  0  0  0  0  0  0  0  0  0  # atno 8008 bound_to 7997
  154.4115  140.1691  156.1976 H   0  0  0  0  0  0  0  0  0  0  0  0  # atno 8009 bound_to 7997
  155.9580  140.3372  155.6469 H   0  0  0  0  0  0  0  0  0  0  0  0  # atno 8010 bound_to 7997
  140.6640  143.2660  151.4350 H   0  0  0  0  0  0  0  0  0  0  0  0  # atno 10167 bound_to 10162
  157.4267  130.8001  149.7565 H   0  0  0  0  0  0  0  0  0  0  0  0  # atno 10718 bound_to 10713
  153.0151  135.5311  154.6863 H   0  0  0  0  0  0  0  0  0  0  0  0  # atno 10763 bound_to 10752
  154.6009  135.2868  155.0538 H   0  0  0  0  0  0  0  0  0  0  0  0  # atno 10764 bound_to 10752
  154.1595  135.6550  153.5035 H   0  0  0  0  0  0  0  0  0  0  0  0  # atno 10765 bound_to 10752
  140.4012  134.1717  155.7664 H   0  0  0  0  0  0  0  0  0  0  0  0  # atno 11005 bound_to 11000
  145.3454  139.1721  143.4463 LP  0  0  0  0  0  0  0  0  0  0  0  0  # atno 17320 bound_to 7965
  146.3158  140.3499  142.8655 LP  0  0  0  0  0  0  0  0  0  0  0  0  # atno 17321 bound_to 7965
  139.5883  144.1555  152.2057 LP  0  0  0  0  0  0  0  0  0  0  0  0  # atno 17342 bound_to 10162
  140.0902  144.5627  150.7060 LP  0  0  0  0  0  0  0  0  0  0  0  0  # atno 17343 bound_to 10162
  155.9899  130.3948  150.3052 LP  0  0  0  0  0  0  0  0  0  0  0  0  # atno 17370 bound_to 10713
  157.1205  131.0245  151.3011 LP  0  0  0  0  0  0  0  0  0  0  0  0  # atno 17371 bound_to 10713
  141.1856  133.8320  157.1099 LP  0  0  0  0  0  0  0  0  0  0  0  0  # atno 17394 bound_to 11000
  140.0335  134.9889  157.0826 LP  0  0  0  0  0  0  0  0  0  0  0  0  # atno 17395 bound_to 11000

$$$$
