AV-unprocessed.smi:1224|AV-procd|sdf|5134|dock2
  -GOLD-   22720 4193D 1   1.00000     0.00000
 Structure written by MMmdl.
 44 46  0  0  0  0  0  0  0  0  2 V2000
  152.2158  145.2034  160.3102 C   0  0  0  0  0  0  0  0  0  0  0  0
  151.9893  143.9357  159.5040 C   0  0  0  0  0  0  0  0  0  0  0  0
  151.2628  144.0265  158.2950 C   0  0  0  0  0  0  0  0  0  0  0  0
  151.0710  142.8500  157.5803 C   0  0  0  0  0  0  0  0  0  0  0  0
  150.4113  142.6085  156.3732 N   0  3  0  0  0  0  0  0  0  0  0  0
  150.4900  141.2832  156.0697 C   0  0  0  0  0  0  0  0  0  0  0  0
  151.1895  140.6757  157.0662 N   0  0  0  0  0  0  0  0  0  0  0  0
  151.5637  139.2653  157.2327 C   0  0  0  0  0  0  0  0  0  0  0  0
  151.0164  138.6493  158.5351 C   0  0  2  0  0  0  0  0  0  0  0  0
  152.0821  138.5002  159.4526 O   0  0  0  0  0  0  0  0  0  0  0  0
  150.3891  137.2676  158.2891 C   0  0  0  0  0  0  0  0  0  0  0  0
  149.8871  136.6860  159.5301 N   0  0  0  0  0  0  0  0  0  0  0  0
  148.4432  136.8207  159.6852 C   0  0  0  0  0  0  0  0  0  0  0  0
  147.9308  136.0319  160.8433 C   0  0  0  0  0  0  0  0  0  0  0  0
  147.5678  136.4973  162.0821 C   0  0  0  0  0  0  0  0  0  0  0  0
  147.1183  135.4668  162.9590 C   0  0  0  0  0  0  0  0  0  0  0  0
  147.1429  134.2272  162.3774 C   0  0  0  0  0  0  0  0  0  0  0  0
  147.7223  134.3020  160.7355 S   0  0  0  0  0  0  0  0  0  0  0  0
  151.5735  141.6135  158.0297 C   0  0  0  0  0  0  0  0  0  0  0  0
  152.2928  141.5059  159.2171 C   0  0  0  0  0  0  0  0  0  0  0  0
  152.4981  142.6914  159.9587 C   0  0  0  0  0  0  0  0  0  0  0  0
  153.2775  142.6051  161.2599 C   0  0  0  0  0  0  0  0  0  0  0  0
  151.7324  146.0635  159.8457 H   0  0  0  0  0  0  0  0  0  0  0  0
  153.2812  145.4215  160.3877 H   0  0  0  0  0  0  0  0  0  0  0  0
  151.8089  145.0970  161.3160 H   0  0  0  0  0  0  0  0  0  0  0  0
  150.8736  144.9703  157.9417 H   0  0  0  0  0  0  0  0  0  0  0  0
  150.0769  140.8012  155.1953 H   0  0  0  0  0  0  0  0  0  0  0  0
  151.2152  138.7111  156.3602 H   0  0  0  0  0  0  0  0  0  0  0  0
  152.6535  139.2123  157.2175 H   0  0  0  0  0  0  0  0  0  0  0  0
  150.2747  139.3240  158.9651 H   0  0  0  0  0  0  0  0  0  0  0  0
  152.1951  137.5779  159.6278 H   0  0  0  0  0  0  0  0  0  0  0  0
  149.5565  137.3773  157.5931 H   0  0  0  0  0  0  0  0  0  0  0  0
  151.1061  136.6009  157.8076 H   0  0  0  0  0  0  0  0  0  0  0  0
  150.3503  137.1288  160.3174 H   0  0  0  0  0  0  0  0  0  0  0  0
  148.1805  137.8715  159.8137 H   0  0  0  0  0  0  0  0  0  0  0  0
  147.9393  136.4879  158.7771 H   0  0  0  0  0  0  0  0  0  0  0  0
  147.6086  137.5329  162.3858 H   0  0  0  0  0  0  0  0  0  0  0  0
  146.7971  135.6681  163.9705 H   0  0  0  0  0  0  0  0  0  0  0  0
  146.8584  133.2796  162.8102 H   0  0  0  0  0  0  0  0  0  0  0  0
  152.6804  140.5583  159.5611 H   0  0  0  0  0  0  0  0  0  0  0  0
  153.6365  141.5919  161.4435 H   0  0  0  0  0  0  0  0  0  0  0  0
  152.6473  142.8930  162.1017 H   0  0  0  0  0  0  0  0  0  0  0  0
  154.1449  143.2649  161.2338 H   0  0  0  0  0  0  0  0  0  0  0  0
  149.9426  143.2950  155.7962 H   0  0  0  0  0  0  0  0  0  0  0  0
  1  2  1  0  0  0  0
  1 23  1  0  0  0  0
  1 24  1  0  0  0  0
  1 25  1  0  0  0  0
  2 21  1  0  0  0  0
  2  3  2  0  0  0  0
  3  4  1  0  0  0  0
  3 26  1  0  0  0  0
  4 19  2  0  0  0  0
  4  5  1  0  0  0  0
  5  6  2  0  0  0  0
  5 44  1  0  0  0  0
  6  7  1  0  0  0  0
  6 27  1  0  0  0  0
  7  8  1  0  0  0  0
  7 19  1  0  0  0  0
  8  9  1  0  0  0  0
  8 28  1  0  0  0  0
  8 29  1  0  0  0  0
  9 10  1  0  0  0  0
  9 11  1  0  0  0  0
  9 30  1  0  0  0  0
 10 31  1  0  0  0  0
 11 12  1  0  0  0  0
 11 32  1  0  0  0  0
 11 33  1  0  0  0  0
 12 13  1  0  0  0  0
 12 34  1  0  0  0  0
 13 14  1  0  0  0  0
 13 35  1  0  0  0  0
 13 36  1  0  0  0  0
 14 18  1  0  0  0  0
 14 15  2  0  0  0  0
 15 16  1  0  0  0  0
 15 37  1  0  0  0  0
 16 17  2  0  0  0  0
 16 38  1  0  0  0  0
 17 18  1  0  0  0  0
 17 39  1  0  0  0  0
 19 20  1  0  0  0  0
 20 21  2  0  0  0  0
 20 40  1  0  0  0  0
 21 22  1  0  0  0  0
 22 41  1  0  0  0  0
 22 42  1  0  0  0  0
 22 43  1  0  0  0  0
M  CHG  1   5   1
M  END
> <s_m_source_file>
AV-unprocessed.smi

> <i_m_source_file_index>
1224

> <i_lp_mmshare_version>
43012

> <i_f3d_flags>
0

> <s_epik_input>
W0NIM11jKFtjSF0xKWMoW0NIM10pW2NIXWMoYzEyKW4oW2NIXW4yKVtDSDJdW0NASF0oW09IXSlbQ0gyXVtOSF1bQ0gyXWMzW2NIXVtjSF1bY0hdczM=

> <s_epik_cmdline>
J2VwaWtfcHl0aG9uJywgJy1waCcsICc3LjAnLCAnLXRuJywgJzgnLCAnLW1hJywgJzIwMCcsICctbWV0YWxfYmluZGluZycsICctaW1hZScsICc8aW5maWxlLm1hZT4nLCAnLW9tYWUnLCAnPG91dGZpbGUubWFlPic=

> <r_epik_Ionization_Penalty>
2.3772

> <r_epik_Ionization_Penalty_Charging>
0.996291

> <r_epik_Ionization_Penalty_Neutral>
1.38091

> <r_epik_State_Penalty>
2.60954

> <r_epik_Charging_Adjusted_Penalty>
3.60583

> <i_epik_Tot_Q>
1

> <i_epik_Tot_abs_Q>
1

> <r_epik_Metal_State_Penalty>
6.5861

> <b_epik_Metal_Only>
0

> <s_lp_Force_Field>
OPLS_2005

> <r_lp_Energy>
18.5574

> <b_lp_Chiralities_Consistent>
1

> <s_lp_Variant>
AV-unprocessed.smi:1224-7

> <Gold.Version>
5.8.1

> <Gold.Id.Protein>
6NUR|6NUR_protein|mol2

> <Gold.PLP.Fitness>
60.7491

> <Gold.PLP.PLP>
-54.1473

> <Gold.PLP.part.hbond>
-2.0000

> <Gold.PLP.part.metal>
0.0000

> <Gold.PLP.part.buried>
-7.8509

> <Gold.PLP.part.nonpolar>
-45.7131

> <Gold.PLP.part.repulsive>
0.0830

> <Gold.PLP.ligand.clash>
0.0000

> <Gold.PLP.ligand.torsion>
1.1985

> <Gold.PLP.Chemscore.Hbond>
2.9840

> <Gold.PLP.Chemscore.CHOScore>
0.0000

> <Gold.PLP.Chemscore.Metal>
0.0000

> <Gold.Chemscore.Hbonds>
donor molecule, donor type, donor heavy atom, donor atom, acceptor molecule, acceptor atom, score
      L1  H     5    44       P1  8028  1.98
      P1  H  6896  6909       L1    12  0.77

> <Gold.PLP.Chemscore.Internal.Correction>
0.0467

> <Gold.Rescore>
     Score         DG    S(hbond)    S(metal)    S(lipo)     H(rot)  DE(clash)    DE(int)     intcor
     17.96     -20.23       1.13        0.00     146.42       2.40       0.22       2.05       ----

> <Gold.Chemscore.Fitness>
17.9570

> <Gold.Chemscore.DG>
-20.2293

> <Gold.Chemscore.ZeroCoef>
-5.4800

> <Gold.Chemscore.Hbond>
1.1257

> <Gold.Chemscore.Metal>
0.0000

> <Gold.Chemscore.Lipo>
146.4199

> <Gold.Chemscore.Internal_Hbond>
0.0000

> <Gold.Chemscore.DEClash>
0.2177

> <Gold.Chemscore.DEInternal>
2.0547

> <Gold.Chemscore.Rot>
2.3990

> <Gold.Chemscore.Internal.Correction>
   9.000000E+99

> <Gold.Chemscore.Hbonds>
donor molecule, donor type, donor heavy atom, donor atom, acceptor molecule, acceptor atom, score
      L1  H     5    44       P1  8028  0.94
      P1  H  6896  6909       L1    12  0.09

> <Gold.Chemscore.Hbond.Weighted>
-3.7597

> <Gold.Chemscore.Metal.Weighted>
-0.0000

> <Gold.Chemscore.Lipo.Weighted>
-17.1311

> <Gold.Chemscore.Internal_Hbond.Weighted>
0.0000

> <Gold.Chemscore.DEClash.Weighted>
0.2177

> <Gold.Chemscore.DEInternal.Weighted>
2.0547

> <Gold.Chemscore.Rot.Weighted>
6.1415

> <Gold.Chemscore.Internal.Correction.Weighted>
   9.000000E+99

> <Gold.Protein.RotatedTorsions>
[ 6907 6896 6895 6894 ] final   61.73 input  -60.11 | X-H torsion
[ 7974 7965 7964 7962 ] final  -93.82 input  175.53 | X-H torsion
[ 8008 7997 7996 7995 ] final   43.78 input   59.86 | X-H torsion
[ 10167 10162 10161 10158 ] final  -15.21 input  -65.29 | X-H torsion
[ 10718 10713 10712 10709 ] final  -42.54 input   66.30 | X-H torsion
[ 10763 10752 10751 10750 ] final  -69.17 input  -60.55 | X-H torsion
[ 11005 11000 10999 10996 ] final   89.91 input  -57.11 | X-H torsion

> <Gold.Protein.ActiveResidues>
 VAL166  LYS551  ARG553  GLY616  TRP617  ASP618  TYR619  PRO620  LYS621  CYS622 
 ASP623  PHE694  ASN695  SER759  ASP760  ASP761  ALA762  ILE779  LEU786  VAL792 
 PHE793  MET794  SER795  GLU796  ALA797  LYS798  CYS799  TRP800  GLU811  SER814 

> <Gold.Protein.RotatedAtoms>
  152.4113  134.6119  160.0027 H   0  0  0  0  0  0  0  0  0  0  0  0  # atno 6907 bound_to 6896
  151.6295  133.3327  159.3113 H   0  0  0  0  0  0  0  0  0  0  0  0  # atno 6908 bound_to 6896
  150.8004  134.7134  159.6661 H   0  0  0  0  0  0  0  0  0  0  0  0  # atno 6909 bound_to 6896
  145.3815  140.9518  143.2391 H   0  0  0  0  0  0  0  0  0  0  0  0  # atno 7974 bound_to 7965
  155.3083  140.3389  155.4245 H   0  0  0  0  0  0  0  0  0  0  0  0  # atno 8008 bound_to 7997
  156.1968  140.1718  156.8020 H   0  0  0  0  0  0  0  0  0  0  0  0  # atno 8009 bound_to 7997
  154.5509  140.0706  156.8649 H   0  0  0  0  0  0  0  0  0  0  0  0  # atno 8010 bound_to 7997
  140.7214  143.5241  150.9598 H   0  0  0  0  0  0  0  0  0  0  0  0  # atno 10167 bound_to 10162
  156.2585  130.4194  149.8569 H   0  0  0  0  0  0  0  0  0  0  0  0  # atno 10718 bound_to 10713
  154.3996  135.6034  153.5889 H   0  0  0  0  0  0  0  0  0  0  0  0  # atno 10763 bound_to 10752
  152.9788  135.5903  154.4200 H   0  0  0  0  0  0  0  0  0  0  0  0  # atno 10764 bound_to 10752
  154.3997  135.2843  155.2082 H   0  0  0  0  0  0  0  0  0  0  0  0  # atno 10765 bound_to 10752
  139.8866  134.8581  156.3210 H   0  0  0  0  0  0  0  0  0  0  0  0  # atno 11005 bound_to 11000
  144.8504  139.5331  143.6859 LP  0  0  0  0  0  0  0  0  0  0  0  0  # atno 17320 bound_to 7965
  146.2840  139.6953  142.9209 LP  0  0  0  0  0  0  0  0  0  0  0  0  # atno 17321 bound_to 7965
  139.8959  143.6895  152.3138 LP  0  0  0  0  0  0  0  0  0  0  0  0  # atno 17342 bound_to 10162
  139.7227  144.7599  151.0928 LP  0  0  0  0  0  0  0  0  0  0  0  0  # atno 17343 bound_to 10162
  156.6092  130.8579  151.3450 LP  0  0  0  0  0  0  0  0  0  0  0  0  # atno 17370 bound_to 10713
  157.7242  130.9599  150.1562 LP  0  0  0  0  0  0  0  0  0  0  0  0  # atno 17371 bound_to 10713
  140.9787  133.7281  156.0640 LP  0  0  0  0  0  0  0  0  0  0  0  0  # atno 17394 bound_to 11000
  140.7778  134.3760  157.5494 LP  0  0  0  0  0  0  0  0  0  0  0  0  # atno 17395 bound_to 11000

$$$$
