AV-unprocessed.smi:157|AV-procd|sdf|1317|dock5
  -GOLD-   2262019 13D 1   1.00000     0.00000
 Structure written by MMmdl.
 36 38  0  0  0  0  0  0  0  0  2 V2000
  150.0605  143.6904  157.9429 O   0  0  0  0  0  0  0  0  0  0  0  0
  151.0969  142.8365  158.3784 C   0  0  0  0  0  0  0  0  0  0  0  0
  150.8856  141.4165  157.8246 C   0  0  1  0  0  0  0  0  0  0  0  0
  150.9999  141.3967  156.4043 O   0  0  0  0  0  0  0  0  0  0  0  0
  151.4873  140.1591  155.9738 C   0  0  2  0  0  0  0  0  0  0  0  0
  150.4643  139.5210  155.0905 N   0  0  0  0  0  0  0  0  0  0  0  0
  150.5850  138.3454  154.4373 C   0  0  0  0  0  0  0  0  0  0  0  0
  149.5303  138.0157  153.7109 N   0  3  0  0  0  0  0  0  0  0  0  0
  148.6137  139.0333  153.8682 C   0  0  0  0  0  0  0  0  0  0  0  0
  149.2169  139.9646  154.7168 C   0  0  0  0  0  0  0  0  0  0  0  0
  148.7334  141.1942  155.1889 N   0  0  0  0  0  0  0  0  0  0  0  0
  147.7269  141.8052  154.6534 C   0  0  0  0  0  0  0  0  0  0  0  0
  146.8936  141.3850  153.6295 N   0  0  0  0  0  0  0  0  0  0  0  0
  146.3006  140.0599  153.5876 C   0  0  0  0  0  0  0  0  0  0  0  0
  147.2858  138.9550  153.1830 C   0  0  1  0  0  0  0  0  0  0  0  0
  147.4052  138.9434  151.7761 O   0  0  0  0  0  0  0  0  0  0  0  0
  151.7238  139.2928  157.2150 C   0  0  0  0  0  0  0  0  0  0  0  0
  151.8595  140.3324  158.3079 C   0  0  1  0  0  0  0  0  0  0  0  0
  153.1922  140.8011  158.3909 O   0  0  0  0  0  0  0  0  0  0  0  0
  149.8691  141.0924  158.0558 H   0  0  0  0  0  0  0  0  0  0  0  0
  152.3734  140.2972  155.3535 H   0  0  0  0  0  0  0  0  0  0  0  0
  146.8367  137.9978  153.4499 H   0  0  0  0  0  0  0  0  0  0  0  0
  151.5720  139.9355  159.2821 H   0  0  0  0  0  0  0  0  0  0  0  0
  149.9032  143.5283  157.0250 H   0  0  0  0  0  0  0  0  0  0  0  0
  152.0446  143.2375  158.0186 H   0  0  0  0  0  0  0  0  0  0  0  0
  151.1449  142.8402  159.4675 H   0  0  0  0  0  0  0  0  0  0  0  0
  151.4655  137.7318  154.5046 H   0  0  0  0  0  0  0  0  0  0  0  0
  147.4478  142.7908  155.0286 H   0  0  0  0  0  0  0  0  0  0  0  0
  146.2954  142.0692  153.1881 H   0  0  0  0  0  0  0  0  0  0  0  0
  145.9200  139.8431  154.5869 H   0  0  0  0  0  0  0  0  0  0  0  0
  145.4313  140.0651  152.9288 H   0  0  0  0  0  0  0  0  0  0  0  0
  148.2970  139.1603  151.5500 H   0  0  0  0  0  0  0  0  0  0  0  0
  150.8481  138.6690  157.4034 H   0  0  0  0  0  0  0  0  0  0  0  0
  152.5950  138.6482  157.0922 H   0  0  0  0  0  0  0  0  0  0  0  0
  153.3091  141.2249  159.2278 H   0  0  0  0  0  0  0  0  0  0  0  0
  149.4206  137.1792  153.1515 H   0  0  0  0  0  0  0  0  0  0  0  0
  1  2  1  0  0  0  0
  1 24  1  0  0  0  0
  2  3  1  0  0  0  0
  2 25  1  0  0  0  0
  2 26  1  0  0  0  0
  3 20  1  0  0  0  0
  3 18  1  0  0  0  0
  3  4  1  0  0  0  0
  4  5  1  0  0  0  0
  5 21  1  0  0  0  0
  5  6  1  0  0  0  0
  5 17  1  0  0  0  0
  6 10  1  0  0  0  0
  6  7  1  0  0  0  0
  7  8  2  0  0  0  0
  7 27  1  0  0  0  0
  8  9  1  0  0  0  0
  8 36  1  0  0  0  0
  9 15  1  0  0  0  0
  9 10  2  0  0  0  0
 10 11  1  0  0  0  0
 11 12  2  0  0  0  0
 12 13  1  0  0  0  0
 12 28  1  0  0  0  0
 13 14  1  0  0  0  0
 13 29  1  0  0  0  0
 14 15  1  0  0  0  0
 14 30  1  0  0  0  0
 14 31  1  0  0  0  0
 15 22  1  0  0  0  0
 15 16  1  0  0  0  0
 16 32  1  0  0  0  0
 17 18  1  0  0  0  0
 17 33  1  0  0  0  0
 17 34  1  0  0  0  0
 18 23  1  0  0  0  0
 18 19  1  0  0  0  0
 19 35  1  0  0  0  0
M  CHG  1   8   1
M  END
> <s_m_source_file>
AV-unprocessed.smi

> <i_m_source_file_index>
157

> <i_lp_mmshare_version>
43012

> <i_f3d_flags>
0

> <s_epik_input>
W09IXVtDSDJdW0NASF0xT1tDQEhdKFtDSDJdW0NAQEhdMVtPSF0pbihbY0hdbjIpYyhjMjMpTj1bQ0hdW05IXVtDSDJdW0NASF0zW09IXQ==

> <s_epik_cmdline>
J2VwaWtfcHl0aG9uJywgJy1waCcsICc3LjAnLCAnLXRuJywgJzgnLCAnLW1hJywgJzIwMCcsICctbWV0YWxfYmluZGluZycsICctaW1hZScsICc8aW5maWxlLm1hZT4nLCAnLW9tYWUnLCAnPG91dGZpbGUubWFlPic=

> <r_epik_Ionization_Penalty>
1.68594

> <r_epik_Ionization_Penalty_Charging>
0

> <r_epik_Ionization_Penalty_Neutral>
1.68594

> <r_epik_State_Penalty>
1.79006

> <r_epik_Charging_Adjusted_Penalty>
1.79006

> <i_epik_Tot_Q>
1

> <i_epik_Tot_abs_Q>
1

> <r_epik_Metal_State_Penalty>
5.85324

> <b_epik_Metal_Only>
0

> <s_epik_Chemistry_Notes>
This compound has an imine and may undergo hydrolysis. This compound contains an acetal/aminal-like group ( X-CH(R)-Y where X, Y are N, S, or O) that may be acid/base labile, releasing an aldehyde.

> <s_lp_Force_Field>
OPLS_2005

> <r_lp_Energy>
54.1398

> <b_lp_Chiralities_Consistent>
1

> <s_lp_Variant>
AV-unprocessed.smi:157-27

> <Gold.Version>
5.8.1

> <Gold.Id.Protein>
6NUR|6NUR_protein|mol2

> <Gold.PLP.Fitness>
43.8573

> <Gold.PLP.PLP>
-28.4684

> <Gold.PLP.part.hbond>
-6.2528

> <Gold.PLP.part.metal>
0.0000

> <Gold.PLP.part.buried>
2.4291

> <Gold.PLP.part.nonpolar>
-24.6165

> <Gold.PLP.part.repulsive>
0.3019

> <Gold.PLP.ligand.clash>
0.0000

> <Gold.PLP.ligand.torsion>
0.0385

> <Gold.PLP.Chemscore.Hbond>
4.1528

> <Gold.PLP.Chemscore.CHOScore>
1.0000

> <Gold.PLP.Chemscore.Metal>
0.0000

> <Gold.Chemscore.Hbonds>
donor molecule, donor type, donor heavy atom, donor atom, acceptor molecule, acceptor atom, score
      L1  H     1    24       P1  8028  0.50
      L1  H     8    36       P1  7948  2.00
      L1  H    16    32       P1  7957  1.00
      P1  H  7997  8009       L1    19  0.56
      L1  C    12    28       P1  8028  1.00

> <Gold.PLP.Chemscore.Internal.Correction>
0.0074

> <Gold.Rescore>
     Score         DG    S(hbond)    S(metal)    S(lipo)     H(rot)  DE(clash)    DE(int)     intcor
      7.58     -10.98       3.03        0.00      40.88       3.67       1.63       1.77       ----

> <Gold.Chemscore.Fitness>
7.5803

> <Gold.Chemscore.DG>
-10.9819

> <Gold.Chemscore.ZeroCoef>
-5.4800

> <Gold.Chemscore.Hbond>
3.0250

> <Gold.Chemscore.Metal>
0.0000

> <Gold.Chemscore.Lipo>
40.8822

> <Gold.Chemscore.Internal_Hbond>
0.0000

> <Gold.Chemscore.DEClash>
1.6283

> <Gold.Chemscore.DEInternal>
1.7734

> <Gold.Chemscore.Rot>
3.6659

> <Gold.Chemscore.Internal.Correction>
   9.000000E+99

> <Gold.Chemscore.Hbonds>
donor molecule, donor type, donor heavy atom, donor atom, acceptor molecule, acceptor atom, score
      L1  H     1    24       P1  8028  0.47
      L1  H     8    36       P1  7948  0.89
      L1  H    16    32       P1  7957  0.86
      P1  H  7997  8009       L1    19  0.51

> <Gold.Chemscore.Hbond.Weighted>
-10.1035

> <Gold.Chemscore.Metal.Weighted>
-0.0000

> <Gold.Chemscore.Lipo.Weighted>
-4.7832

> <Gold.Chemscore.Internal_Hbond.Weighted>
0.0000

> <Gold.Chemscore.DEClash.Weighted>
1.6283

> <Gold.Chemscore.DEInternal.Weighted>
1.7734

> <Gold.Chemscore.Rot.Weighted>
9.3848

> <Gold.Chemscore.Internal.Correction.Weighted>
   9.000000E+99

> <Gold.Protein.RotatedTorsions>
[ 6907 6896 6895 6894 ] final   44.19 input  -60.11 | X-H torsion
[ 7974 7965 7964 7962 ] final -132.67 input  175.53 | X-H torsion
[ 8008 7997 7996 7995 ] final  157.73 input   59.86 | X-H torsion
[ 10167 10162 10161 10158 ] final   86.20 input  -65.29 | X-H torsion
[ 10718 10713 10712 10709 ] final -134.05 input   66.30 | X-H torsion
[ 10763 10752 10751 10750 ] final   90.14 input  -60.55 | X-H torsion
[ 11005 11000 10999 10996 ] final  -56.02 input  -57.11 | X-H torsion

> <Gold.Protein.ActiveResidues>
 VAL166  LYS551  ARG553  GLY616  TRP617  ASP618  TYR619  PRO620  LYS621  CYS622 
 ASP623  PHE694  ASN695  SER759  ASP760  ASP761  ALA762  ILE779  LEU786  VAL792 
 PHE793  MET794  SER795  GLU796  ALA797  LYS798  CYS799  TRP800  GLU811  SER814 

> <Gold.Protein.RotatedAtoms>
  152.2295  134.8336  160.0475 H   0  0  0  0  0  0  0  0  0  0  0  0  # atno 6907 bound_to 6896
  151.9090  133.3551  159.3865 H   0  0  0  0  0  0  0  0  0  0  0  0  # atno 6908 bound_to 6896
  150.7021  134.4677  159.5454 H   0  0  0  0  0  0  0  0  0  0  0  0  # atno 6909 bound_to 6896
  144.9263  140.7075  143.4933 H   0  0  0  0  0  0  0  0  0  0  0  0  # atno 7974 bound_to 7965
  156.2346  140.1877  156.7152 H   0  0  0  0  0  0  0  0  0  0  0  0  # atno 8008 bound_to 7997
  154.6084  140.0625  156.9488 H   0  0  0  0  0  0  0  0  0  0  0  0  # atno 8009 bound_to 7997
  155.2058  140.3296  155.4339 H   0  0  0  0  0  0  0  0  0  0  0  0  # atno 8010 bound_to 7997
  139.8900  144.6391  150.8749 H   0  0  0  0  0  0  0  0  0  0  0  0  # atno 10167 bound_to 10162
  156.2514  130.7155  151.1055 H   0  0  0  0  0  0  0  0  0  0  0  0  # atno 10718 bound_to 10713
  153.1944  135.4445  155.0189 H   0  0  0  0  0  0  0  0  0  0  0  0  # atno 10763 bound_to 10752
  154.8110  135.3294  154.7308 H   0  0  0  0  0  0  0  0  0  0  0  0  # atno 10764 bound_to 10752
  153.7759  135.6981  153.4953 H   0  0  0  0  0  0  0  0  0  0  0  0  # atno 10765 bound_to 10752
  141.1101  133.6611  156.4557 H   0  0  0  0  0  0  0  0  0  0  0  0  # atno 11005 bound_to 11000
  145.3213  139.1787  143.4586 LP  0  0  0  0  0  0  0  0  0  0  0  0  # atno 17320 bound_to 7965
  146.3227  140.3231  142.8635 LP  0  0  0  0  0  0  0  0  0  0  0  0  # atno 17321 bound_to 7965
  140.7728  143.3518  151.2000 LP  0  0  0  0  0  0  0  0  0  0  0  0  # atno 17342 bound_to 10162
  139.7118  143.9364  152.2950 LP  0  0  0  0  0  0  0  0  0  0  0  0  # atno 17343 bound_to 10162
  157.7216  131.0678  150.6112 LP  0  0  0  0  0  0  0  0  0  0  0  0  # atno 17370 bound_to 10713
  156.6193  130.4401  149.5828 LP  0  0  0  0  0  0  0  0  0  0  0  0  # atno 17371 bound_to 10713
  140.4798  134.6675  157.5166 LP  0  0  0  0  0  0  0  0  0  0  0  0  # atno 17394 bound_to 11000
  139.9990  134.6865  155.9561 LP  0  0  0  0  0  0  0  0  0  0  0  0  # atno 17395 bound_to 11000

$$$$
