AV-unprocessed.smi:1|AV-procd|sdf|12|dock6
  -GOLD-   2262015103D 1   1.00000     0.00000
 Structure written by MMmdl.
 57 62  0  0  0  0  0  0  0  0  1 V2000
  154.7001  142.5568  161.7019 O   0  0  0  0  0  0  0  0  0  0  0  0
  154.0489  142.2436  160.7015 C   0  0  0  0  0  0  0  0  0  0  0  0
  154.1169  141.0793  159.9474 N   0  0  0  0  0  0  0  0  0  0  0  0
  154.6122  139.9957  160.4642 C   0  0  0  0  0  0  0  0  0  0  0  0
  155.1458  139.7083  161.7268 N   0  0  0  0  0  0  0  0  0  0  0  0
  155.6454  138.4660  162.1450 C   0  0  0  0  0  0  0  0  0  0  0  0
  155.6831  137.3898  161.4061 N   0  0  0  0  0  0  0  0  0  0  0  0
  155.1686  137.6179  160.1378 C   0  0  0  0  0  0  0  0  0  0  0  0
  154.6543  138.7856  159.6143 C   0  0  0  0  0  0  0  0  0  0  0  0
  154.2443  138.6009  158.2989 N   0  0  0  0  0  0  0  0  0  0  0  0
  154.5306  137.3204  158.0830 C   0  0  0  0  0  0  0  0  0  0  0  0
  155.0751  136.6634  159.1243 N   0  0  0  0  0  0  0  0  0  0  0  0
  155.4940  135.2259  159.1255 C   0  0  1  0  0  0  0  0  0  0  0  0
  154.3806  134.4220  158.8681 O   0  0  0  0  0  0  0  0  0  0  0  0
  154.5506  133.6951  157.6537 C   0  0  2  0  0  0  0  0  0  0  0  0
  153.8363  132.3402  157.7185 C   0  0  0  0  0  0  0  0  0  0  0  0
  152.4548  132.5355  157.4667 O   0  0  0  0  0  0  0  0  0  0  0  0
  151.6844  131.4985  157.0873 C   0  0  0  0  0  0  0  0  0  0  0  0
  152.0581  130.3242  157.1169 O   0  0  0  0  0  0  0  0  0  0  0  0
  150.3294  131.9207  156.6285 C   0  0  0  0  0  0  0  0  0  0  0  0
  149.4195  130.9427  156.1630 C   0  0  0  0  0  0  0  0  0  0  0  0
  148.1315  131.3106  155.7280 C   0  0  0  0  0  0  0  0  0  0  0  0
  147.7376  132.6611  155.7529 C   0  0  0  0  0  0  0  0  0  0  0  0
  148.6337  133.6435  156.2130 C   0  0  0  0  0  0  0  0  0  0  0  0
  149.9223  133.2777  156.6484 C   0  0  0  0  0  0  0  0  0  0  0  0
  156.0656  133.6055  157.4786 C   0  0  2  0  0  0  0  0  0  0  0  0
  156.6150  132.5573  158.2601 O   0  0  0  0  0  0  0  0  0  0  0  0
  158.0082  133.1193  158.9900 S   0  0  0  0  0  0  0  0  0  0  0  0
  157.8693  132.9440  160.4437 O   0  0  0  0  0  0  0  0  0  0  0  0
  159.1634  132.6084  158.2365 O   0  0  0  0  0  0  0  0  0  0  0  0
  157.8301  134.7434  158.6358 O   0  0  0  0  0  0  0  0  0  0  0  0
  156.5540  134.9390  158.0514 C   0  0  2  0  0  0  0  0  0  0  0  0
  153.0559  143.2290  160.1773 C   0  0  0  0  0  0  0  0  0  0  0  0
  152.8336  144.4423  160.8624 C   0  0  0  0  0  0  0  0  0  0  0  0
  151.9014  145.3738  160.3647 C   0  0  0  0  0  0  0  0  0  0  0  0
  151.1912  145.0963  159.1807 C   0  0  0  0  0  0  0  0  0  0  0  0
  151.4132  143.8872  158.4933 C   0  0  0  0  0  0  0  0  0  0  0  0
  152.3449  142.9546  158.9898 C   0  0  0  0  0  0  0  0  0  0  0  0
  156.0152  138.4589  163.1713 H   0  0  0  0  0  0  0  0  0  0  0  0
  154.3362  136.8438  157.1335 H   0  0  0  0  0  0  0  0  0  0  0  0
  155.8453  135.0339  160.1404 H   0  0  0  0  0  0  0  0  0  0  0  0
  154.1429  134.2810  156.8305 H   0  0  0  0  0  0  0  0  0  0  0  0
  154.2446  131.6694  156.9612 H   0  0  0  0  0  0  0  0  0  0  0  0
  153.9863  131.8715  158.6922 H   0  0  0  0  0  0  0  0  0  0  0  0
  149.6991  129.8994  156.1357 H   0  0  0  0  0  0  0  0  0  0  0  0
  147.4451  130.5548  155.3756 H   0  0  0  0  0  0  0  0  0  0  0  0
  146.7492  132.9423  155.4204 H   0  0  0  0  0  0  0  0  0  0  0  0
  148.3322  134.6805  156.2334 H   0  0  0  0  0  0  0  0  0  0  0  0
  150.5847  134.0569  156.9965 H   0  0  0  0  0  0  0  0  0  0  0  0
  156.3583  133.4655  156.4374 H   0  0  0  0  0  0  0  0  0  0  0  0
  156.5693  135.7196  157.2907 H   0  0  0  0  0  0  0  0  0  0  0  0
  153.3755  144.6628  161.7708 H   0  0  0  0  0  0  0  0  0  0  0  0
  151.7316  146.3016  160.8908 H   0  0  0  0  0  0  0  0  0  0  0  0
  150.4769  145.8111  158.7997 H   0  0  0  0  0  0  0  0  0  0  0  0
  150.8689  143.6751  157.5850 H   0  0  0  0  0  0  0  0  0  0  0  0
  152.5113  142.0300  158.4561 H   0  0  0  0  0  0  0  0  0  0  0  0
  155.1715  140.4652  162.3953 H   0  0  0  0  0  0  0  0  0  0  0  0
  1  2  2  0  0  0  0
  2  3  1  0  0  0  0
  2 33  1  0  0  0  0
  3  4  2  0  0  0  0
  4  9  1  0  0  0  0
  4  5  1  0  0  0  0
  5  6  1  0  0  0  0
  5 57  1  0  0  0  0
  6  7  2  0  0  0  0
  6 39  1  0  0  0  0
  7  8  1  0  0  0  0
  8 12  1  0  0  0  0
  8  9  2  0  0  0  0
  9 10  1  0  0  0  0
 10 11  2  0  0  0  0
 11 12  1  0  0  0  0
 11 40  1  0  0  0  0
 12 13  1  0  0  0  0
 13 32  1  0  0  0  0
 13 14  1  0  0  0  0
 13 41  1  0  0  0  0
 14 15  1  0  0  0  0
 15 16  1  0  0  0  0
 15 26  1  0  0  0  0
 15 42  1  0  0  0  0
 16 17  1  0  0  0  0
 16 43  1  0  0  0  0
 16 44  1  0  0  0  0
 17 18  1  0  0  0  0
 18 19  2  0  0  0  0
 18 20  1  0  0  0  0
 20 25  1  0  0  0  0
 20 21  2  0  0  0  0
 21 22  1  0  0  0  0
 21 45  1  0  0  0  0
 22 23  2  0  0  0  0
 22 46  1  0  0  0  0
 23 24  1  0  0  0  0
 23 47  1  0  0  0  0
 24 25  2  0  0  0  0
 24 48  1  0  0  0  0
 25 49  1  0  0  0  0
 26 32  1  0  0  0  0
 26 27  1  0  0  0  0
 26 50  1  0  0  0  0
 27 28  1  0  0  0  0
 28 29  2  0  0  0  0
 28 30  2  0  0  0  0
 28 31  1  0  0  0  0
 31 32  1  0  0  0  0
 32 51  1  0  0  0  0
 33 38  1  0  0  0  0
 33 34  2  0  0  0  0
 34 35  1  0  0  0  0
 34 52  1  0  0  0  0
 35 36  2  0  0  0  0
 35 53  1  0  0  0  0
 36 37  1  0  0  0  0
 36 54  1  0  0  0  0
 37 38  2  0  0  0  0
 37 55  1  0  0  0  0
 38 56  1  0  0  0  0
M  END
> <s_m_source_file>
AV-unprocessed.smi

> <i_m_source_file_index>
1

> <i_lp_mmshare_version>
43012

> <i_f3d_flags>
0

> <s_epik_input>
W2NIXTFbY0hdW2NIXVtjSF1bY0hdYzFDKD1PKVtOSF1jKG5bY0hdbjIpYyhjMjMpbltjSF1uM1tDQEBIXShbQ0BIXShbQ0BIXTQ1KU9TKE81KSg9Tyk9TylPW0NASF00W0NIMl1PQyg9TyljNltjSF1bY0hdW2NIXVtjSF1bY0hdNg==

> <s_epik_cmdline>
J2VwaWtfcHl0aG9uJywgJy1waCcsICc3LjAnLCAnLXRuJywgJzgnLCAnLW1hJywgJzIwMCcsICctbWV0YWxfYmluZGluZycsICctaW1hZScsICc8aW5maWxlLm1hZT4nLCAnLW9tYWUnLCAnPG91dGZpbGUubWFlPic=

> <r_epik_Ionization_Penalty>
0.122545

> <r_epik_Ionization_Penalty_Charging>
0.122545

> <r_epik_Ionization_Penalty_Neutral>
7.8935e-16

> <r_epik_State_Penalty>
2.69178

> <r_epik_Charging_Adjusted_Penalty>
2.81433

> <i_epik_Tot_Q>
0

> <i_epik_Tot_abs_Q>
0

> <r_epik_Metal_State_Penalty>
3.02665

> <b_epik_Metal_Only>
0

> <s_epik_Chemistry_Notes>
This compound has an ester and may undergo hydrolysis at high or low pH. This compound contains an acetal/aminal-like group ( X-CH(R)-Y where X, Y are N, S, or O) that may be acid/base labile, releasing an aldehyde.

> <s_lp_Force_Field>
OPLS_2005

> <r_lp_Energy>
62.4663

> <b_lp_Chiralities_Consistent>
1

> <s_lp_Variant>
AV-unprocessed.smi:1-12

> <Gold.Version>
5.8.1

> <Gold.Id.Protein>
6NUR|6NUR_protein|mol2

> <Gold.PLP.Fitness>
60.5387

> <Gold.PLP.PLP>
-55.3195

> <Gold.PLP.part.hbond>
-3.0000

> <Gold.PLP.part.metal>
0.0000

> <Gold.PLP.part.buried>
-5.7352

> <Gold.PLP.part.nonpolar>
-43.8281

> <Gold.PLP.part.repulsive>
0.0186

> <Gold.PLP.ligand.clash>
0.0000

> <Gold.PLP.ligand.torsion>
0.4617

> <Gold.PLP.Chemscore.Hbond>
1.9670

> <Gold.PLP.Chemscore.CHOScore>
0.0000

> <Gold.PLP.Chemscore.Metal>
0.0000

> <Gold.Chemscore.Hbonds>
donor molecule, donor type, donor heavy atom, donor atom, acceptor molecule, acceptor atom, score
      P1  H  6896  6908       L1    14  0.99
      P1  H  7997  8008       L1    10  1.00

> <Gold.PLP.Chemscore.Internal.Correction>
0.2416

> <Gold.Rescore>
     Score         DG    S(hbond)    S(metal)    S(lipo)     H(rot)  DE(clash)    DE(int)     intcor
     16.16     -16.82       0.94        0.00     116.64       2.13       0.14       0.52       ----

> <Gold.Chemscore.Fitness>
16.1598

> <Gold.Chemscore.DG>
-16.8152

> <Gold.Chemscore.ZeroCoef>
-5.4800

> <Gold.Chemscore.Hbond>
0.9430

> <Gold.Chemscore.Metal>
0.0000

> <Gold.Chemscore.Lipo>
116.6404

> <Gold.Chemscore.Internal_Hbond>
0.0000

> <Gold.Chemscore.DEClash>
0.1388

> <Gold.Chemscore.DEInternal>
0.5166

> <Gold.Chemscore.Rot>
2.1333

> <Gold.Chemscore.Internal.Correction>
   9.000000E+99

> <Gold.Chemscore.Hbonds>
donor molecule, donor type, donor heavy atom, donor atom, acceptor molecule, acceptor atom, score
      P1  H  6896  6908       L1    14  0.75
      P1  H  7997  8008       L1    10  0.88

> <Gold.Chemscore.Hbond.Weighted>
-3.1496

> <Gold.Chemscore.Metal.Weighted>
-0.0000

> <Gold.Chemscore.Lipo.Weighted>
-13.6469

> <Gold.Chemscore.Internal_Hbond.Weighted>
0.0000

> <Gold.Chemscore.DEClash.Weighted>
0.1388

> <Gold.Chemscore.DEInternal.Weighted>
0.5166

> <Gold.Chemscore.Rot.Weighted>
5.4614

> <Gold.Chemscore.Internal.Correction.Weighted>
   9.000000E+99

> <Gold.Protein.RotatedTorsions>
[ 6907 6896 6895 6894 ] final  -18.94 input  -60.11 | X-H torsion
[ 7974 7965 7964 7962 ] final   37.46 input  175.53 | X-H torsion
[ 8008 7997 7996 7995 ] final  -93.53 input   59.86 | X-H torsion
[ 10167 10162 10161 10158 ] final  173.28 input  -65.29 | X-H torsion
[ 10718 10713 10712 10709 ] final  145.27 input   66.30 | X-H torsion
[ 10763 10752 10751 10750 ] final  -26.09 input  -60.55 | X-H torsion
[ 11005 11000 10999 10996 ] final  143.29 input  -57.11 | X-H torsion

> <Gold.Protein.ActiveResidues>
 VAL166  LYS551  ARG553  GLY616  TRP617  ASP618  TYR619  PRO620  LYS621  CYS622 
 ASP623  PHE694  ASN695  SER759  ASP760  ASP761  ALA762  ILE779  LEU786  VAL792 
 PHE793  MET794  SER795  GLU796  ALA797  LYS798  CYS799  TRP800  GLU811  SER814 

> <Gold.Protein.RotatedAtoms>
  151.2705  135.0683  159.9132 H   0  0  0  0  0  0  0  0  0  0  0  0  # atno 6907 bound_to 6896
  152.5351  134.0135  159.7959 H   0  0  0  0  0  0  0  0  0  0  0  0  # atno 6908 bound_to 6896
  151.0373  133.5687  159.2685 H   0  0  0  0  0  0  0  0  0  0  0  0  # atno 6909 bound_to 6896
  146.1136  139.5892  142.9336 H   0  0  0  0  0  0  0  0  0  0  0  0  # atno 7974 bound_to 7965
  154.7369  140.0498  157.0776 H   0  0  0  0  0  0  0  0  0  0  0  0  # atno 8008 bound_to 7997
  155.0229  140.3149  155.4767 H   0  0  0  0  0  0  0  0  0  0  0  0  # atno 8009 bound_to 7997
  156.2855  140.2164  156.5348 H   0  0  0  0  0  0  0  0  0  0  0  0  # atno 8010 bound_to 7997
  139.5103  144.3279  152.0140 H   0  0  0  0  0  0  0  0  0  0  0  0  # atno 10167 bound_to 10162
  157.3473  131.0945  151.1031 H   0  0  0  0  0  0  0  0  0  0  0  0  # atno 10718 bound_to 10713
  153.7104  135.6951  153.5039 H   0  0  0  0  0  0  0  0  0  0  0  0  # atno 10763 bound_to 10752
  153.2277  135.4348  155.0559 H   0  0  0  0  0  0  0  0  0  0  0  0  # atno 10764 bound_to 10752
  154.8316  135.3476  154.6641 H   0  0  0  0  0  0  0  0  0  0  0  0  # atno 10765 bound_to 10752
  140.0542  134.9239  157.1071 H   0  0  0  0  0  0  0  0  0  0  0  0  # atno 11005 bound_to 11000
  145.5613  141.0404  143.2224 LP  0  0  0  0  0  0  0  0  0  0  0  0  # atno 17320 bound_to 7965
  144.7533  139.7138  143.7264 LP  0  0  0  0  0  0  0  0  0  0  0  0  # atno 17321 bound_to 7965
  140.2719  144.3955  150.6148 LP  0  0  0  0  0  0  0  0  0  0  0  0  # atno 17342 bound_to 10162
  140.6082  143.2168  151.6939 LP  0  0  0  0  0  0  0  0  0  0  0  0  # atno 17343 bound_to 10162
  157.2220  130.6485  149.5815 LP  0  0  0  0  0  0  0  0  0  0  0  0  # atno 17370 bound_to 10713
  155.9716  130.4626  150.6152 LP  0  0  0  0  0  0  0  0  0  0  0  0  # atno 17371 bound_to 10713
  140.3869  134.2226  155.7168 LP  0  0  0  0  0  0  0  0  0  0  0  0  # atno 17394 bound_to 11000
  141.1944  133.8128  157.0757 LP  0  0  0  0  0  0  0  0  0  0  0  0  # atno 17395 bound_to 11000

$$$$
