AV-unprocessed.smi:2816|AV-procd|sdf|10845|dock5
  -GOLD-   2272015283D 1   1.00000     0.00000
 Structure written by MMmdl.
 43 45  0  0  0  0  0  0  0  0  1 V2000
  153.0848  131.2429  158.3199 C   0  0  0  0  0  0  0  0  0  0  0  0
  152.1386  131.0459  157.1226 C   0  0  0  0  0  0  0  0  0  0  0  0
  152.9586  131.0002  155.8206 C   0  0  0  0  0  0  0  0  0  0  0  0
  151.3478  129.7373  157.3058 C   0  0  0  0  0  0  0  0  0  0  0  0
  150.9721  132.4962  157.0751 S   0  0  0  0  0  0  0  0  0  0  0  0
  150.1204  132.4462  158.2741 O   0  0  0  0  0  0  0  0  0  0  0  0
  151.7688  133.7054  156.8121 O   0  0  0  0  0  0  0  0  0  0  0  0
  149.9135  132.2296  155.6511 C   0  0  0  0  0  0  0  0  0  0  0  0
  149.5416  133.3178  154.8360 C   0  0  0  0  0  0  0  0  0  0  0  0
  148.7491  133.0578  153.7025 C   0  0  0  0  0  0  0  0  0  0  0  0
  148.3678  131.7240  153.4218 C   0  0  0  0  0  0  0  0  0  0  0  0
  147.5881  131.3604  152.3137 N   0  0  0  0  0  0  0  0  0  0  0  0
  146.2653  131.9335  152.0949 C   0  0  1  0  0  0  0  0  0  0  0  0
  146.2998  133.4415  151.8104 C   0  0  0  0  0  0  0  0  0  0  0  0
  145.5766  133.5275  150.4610 C   0  0  2  0  0  0  0  0  0  0  0  0
  144.0812  133.2031  150.5805 C   0  0  0  0  0  0  0  0  0  0  0  0
  144.1068  131.6894  150.7912 C   0  0  0  0  0  0  0  0  0  0  0  0
  145.6136  131.3972  150.8084 C   0  0  1  0  0  0  0  0  0  0  0  0
  146.0558  132.3436  149.8488 O   0  0  0  0  0  0  0  0  0  0  0  0
  148.8044  130.7148  154.3074 C   0  0  0  0  0  0  0  0  0  0  0  0
  149.5659  130.9501  155.3964 N   0  0  0  0  0  0  0  0  0  0  0  0
  153.7976  130.4217  158.4031 H   0  0  0  0  0  0  0  0  0  0  0  0
  152.5313  131.2950  159.2581 H   0  0  0  0  0  0  0  0  0  0  0  0
  153.6573  132.1662  158.2253 H   0  0  0  0  0  0  0  0  0  0  0  0
  153.5003  131.9324  155.6579 H   0  0  0  0  0  0  0  0  0  0  0  0
  152.3231  130.8312  154.9512 H   0  0  0  0  0  0  0  0  0  0  0  0
  153.6932  130.1947  155.8460 H   0  0  0  0  0  0  0  0  0  0  0  0
  152.0189  128.8855  157.4197 H   0  0  0  0  0  0  0  0  0  0  0  0
  150.7087  129.5281  156.4488 H   0  0  0  0  0  0  0  0  0  0  0  0
  150.7136  129.7749  158.1917 H   0  0  0  0  0  0  0  0  0  0  0  0
  149.8566  134.3244  155.0672 H   0  0  0  0  0  0  0  0  0  0  0  0
  148.4525  133.8795  153.0684 H   0  0  0  0  0  0  0  0  0  0  0  0
  148.0307  130.8852  151.5398 H   0  0  0  0  0  0  0  0  0  0  0  0
  145.6296  131.6984  152.9494 H   0  0  0  0  0  0  0  0  0  0  0  0
  145.8050  134.0267  152.5857 H   0  0  0  0  0  0  0  0  0  0  0  0
  147.3217  133.8105  151.7101 H   0  0  0  0  0  0  0  0  0  0  0  0
  145.7896  134.4397  149.9028 H   0  0  0  0  0  0  0  0  0  0  0  0
  143.6067  133.7385  151.4033 H   0  0  0  0  0  0  0  0  0  0  0  0
  143.5528  133.4522  149.6597 H   0  0  0  0  0  0  0  0  0  0  0  0
  143.6097  131.3798  151.7109 H   0  0  0  0  0  0  0  0  0  0  0  0
  143.6251  131.1805  149.9555 H   0  0  0  0  0  0  0  0  0  0  0  0
  145.8586  130.3608  150.5723 H   0  0  0  0  0  0  0  0  0  0  0  0
  148.5409  129.6816  154.1329 H   0  0  0  0  0  0  0  0  0  0  0  0
  1  2  1  0  0  0  0
  1 22  1  0  0  0  0
  1 23  1  0  0  0  0
  1 24  1  0  0  0  0
  2  3  1  0  0  0  0
  2  4  1  0  0  0  0
  2  5  1  0  0  0  0
  3 25  1  0  0  0  0
  3 26  1  0  0  0  0
  3 27  1  0  0  0  0
  4 28  1  0  0  0  0
  4 29  1  0  0  0  0
  4 30  1  0  0  0  0
  5  6  2  0  0  0  0
  5  7  2  0  0  0  0
  5  8  1  0  0  0  0
  8 21  1  0  0  0  0
  8  9  2  0  0  0  0
  9 10  1  0  0  0  0
  9 31  1  0  0  0  0
 10 11  2  0  0  0  0
 10 32  1  0  0  0  0
 11 12  1  0  0  0  0
 11 20  1  0  0  0  0
 12 13  1  0  0  0  0
 12 33  1  0  0  0  0
 13 18  1  0  0  0  0
 13 14  1  0  0  0  0
 13 34  1  0  0  0  0
 14 15  1  0  0  0  0
 14 35  1  0  0  0  0
 14 36  1  0  0  0  0
 15 19  1  0  0  0  0
 15 16  1  0  0  0  0
 15 37  1  0  0  0  0
 16 17  1  0  0  0  0
 16 38  1  0  0  0  0
 16 39  1  0  0  0  0
 17 18  1  0  0  0  0
 17 40  1  0  0  0  0
 17 41  1  0  0  0  0
 18 19  1  0  0  0  0
 18 42  1  0  0  0  0
 20 21  2  0  0  0  0
 20 43  1  0  0  0  0
M  END
> <s_m_source_file>
AV-unprocessed.smi

> <i_m_source_file_index>
2816

> <i_lp_mmshare_version>
43012

> <i_f3d_flags>
0

> <s_epik_input>
W0NIM11DKFtDSDNdKShbQ0gzXSlTKD1PKSg9TyljMVtjSF1bY0hdYyhbY0hdbjEpW05IXVtDQEhdKFtDSDJdW0NAQEhdMjMpW0NAQEhdKE8zKVtDSDJdW0NIMl0y

> <s_epik_cmdline>
J2VwaWtfcHl0aG9uJywgJy1waCcsICc3LjAnLCAnLXRuJywgJzgnLCAnLW1hJywgJzIwMCcsICctbWV0YWxfYmluZGluZycsICctaW1hZScsICc8aW5maWxlLm1hZT4nLCAnLW9tYWUnLCAnPG91dGZpbGUubWFlPic=

> <r_lp_tautomer_probability>
1

> <r_epik_Ionization_Penalty>
1.94439e-07

> <r_epik_Ionization_Penalty_Charging>
0

> <r_epik_Ionization_Penalty_Neutral>
1.94439e-07

> <r_epik_State_Penalty>
-0

> <r_epik_Charging_Adjusted_Penalty>
0

> <i_epik_Tot_Q>
0

> <i_epik_Tot_abs_Q>
0

> <r_epik_Metal_State_Penalty>
-0

> <b_epik_Metal_Only>
0

> <s_lp_Force_Field>
OPLS_2005

> <r_lp_Energy>
42.0373

> <b_lp_Chiralities_Consistent>
1

> <s_lp_Variant>
AV-unprocessed.smi:2816-4

> <Gold.Version>
5.8.1

> <Gold.Id.Protein>
6NUR|6NUR_protein|mol2

> <Gold.PLP.Fitness>
39.3424

> <Gold.PLP.PLP>
-34.6730

> <Gold.PLP.part.hbond>
-2.3846

> <Gold.PLP.part.metal>
0.0000

> <Gold.PLP.part.buried>
-4.3064

> <Gold.PLP.part.nonpolar>
-27.9961

> <Gold.PLP.part.repulsive>
0.1968

> <Gold.PLP.ligand.clash>
0.0000

> <Gold.PLP.ligand.torsion>
1.7853

> <Gold.PLP.Chemscore.Hbond>
2.0000

> <Gold.PLP.Chemscore.CHOScore>
0.0000

> <Gold.PLP.Chemscore.Metal>
0.0000

> <Gold.Chemscore.Hbonds>
donor molecule, donor type, donor heavy atom, donor atom, acceptor molecule, acceptor atom, score
      L1  H    12    33       P1 10747  1.00
      P1  H  6896  6909       L1     6  0.85

> <Gold.PLP.Chemscore.Internal.Correction>
2.2401

> <Gold.Rescore>
     Score         DG    S(hbond)    S(metal)    S(lipo)     H(rot)  DE(clash)    DE(int)     intcor
     14.65     -18.40       1.78        0.00      84.66       1.15       0.60       3.16       ----

> <Gold.Chemscore.Fitness>
14.6482

> <Gold.Chemscore.DG>
-18.4045

> <Gold.Chemscore.ZeroCoef>
-5.4800

> <Gold.Chemscore.Hbond>
1.7832

> <Gold.Chemscore.Metal>
0.0000

> <Gold.Chemscore.Lipo>
84.6589

> <Gold.Chemscore.Internal_Hbond>
0.0000

> <Gold.Chemscore.DEClash>
0.5984

> <Gold.Chemscore.DEInternal>
3.1579

> <Gold.Chemscore.Rot>
1.1471

> <Gold.Chemscore.Internal.Correction>
   9.000000E+99

> <Gold.Chemscore.Hbonds>
donor molecule, donor type, donor heavy atom, donor atom, acceptor molecule, acceptor atom, score
      L1  H    12    33       P1 10747  0.94
      P1  H  6896  6909       L1     6  0.15

> <Gold.Chemscore.Hbond.Weighted>
-5.9560

> <Gold.Chemscore.Metal.Weighted>
-0.0000

> <Gold.Chemscore.Lipo.Weighted>
-9.9051

> <Gold.Chemscore.Internal_Hbond.Weighted>
0.0000

> <Gold.Chemscore.DEClash.Weighted>
0.5984

> <Gold.Chemscore.DEInternal.Weighted>
3.1579

> <Gold.Chemscore.Rot.Weighted>
2.9366

> <Gold.Chemscore.Internal.Correction.Weighted>
   9.000000E+99

> <Gold.Protein.RotatedTorsions>
[ 6907 6896 6895 6894 ] final  -21.73 input  -60.11 | X-H torsion
[ 7974 7965 7964 7962 ] final -135.76 input  175.53 | X-H torsion
[ 8008 7997 7996 7995 ] final -158.08 input   59.86 | X-H torsion
[ 10167 10162 10161 10158 ] final -112.64 input  -65.29 | X-H torsion
[ 10718 10713 10712 10709 ] final -151.86 input   66.30 | X-H torsion
[ 10763 10752 10751 10750 ] final  120.18 input  -60.55 | X-H torsion
[ 11005 11000 10999 10996 ] final -130.99 input  -57.11 | X-H torsion

> <Gold.Protein.ActiveResidues>
 VAL166  LYS551  ARG553  GLY616  TRP617  ASP618  TYR619  PRO620  LYS621  CYS622 
 ASP623  PHE694  ASN695  SER759  ASP760  ASP761  ALA762  ILE779  LEU786  VAL792 
 PHE793  MET794  SER795  GLU796  ALA797  LYS798  CYS799  TRP800  GLU811  SER814 

> <Gold.Protein.RotatedAtoms>
  151.2291  135.0547  159.8980 H   0  0  0  0  0  0  0  0  0  0  0  0  # atno 6907 bound_to 6896
  152.5407  134.0557  159.8140 H   0  0  0  0  0  0  0  0  0  0  0  0  # atno 6908 bound_to 6896
  151.0734  133.5399  159.2657 H   0  0  0  0  0  0  0  0  0  0  0  0  # atno 6909 bound_to 6896
  144.8986  140.6740  143.5100 H   0  0  0  0  0  0  0  0  0  0  0  0  # atno 7974 bound_to 7965
  155.7421  140.0815  157.2241 H   0  0  0  0  0  0  0  0  0  0  0  0  # atno 8008 bound_to 7997
  154.4021  140.1576  156.2683 H   0  0  0  0  0  0  0  0  0  0  0  0  # atno 8009 bound_to 7997
  155.9010  140.3409  155.6029 H   0  0  0  0  0  0  0  0  0  0  0  0  # atno 8010 bound_to 7997
  140.1205  143.4447  152.1694 H   0  0  0  0  0  0  0  0  0  0  0  0  # atno 10167 bound_to 10162
  156.4649  130.8231  151.2461 H   0  0  0  0  0  0  0  0  0  0  0  0  # atno 10718 bound_to 10713
  153.5945  135.3459  155.2923 H   0  0  0  0  0  0  0  0  0  0  0  0  # atno 10763 bound_to 10752
  154.8647  135.4212  154.2480 H   0  0  0  0  0  0  0  0  0  0  0  0  # atno 10764 bound_to 10752
  153.3295  135.7043  153.7031 H   0  0  0  0  0  0  0  0  0  0  0  0  # atno 10765 bound_to 10752
  140.9298  134.1335  157.4245 H   0  0  0  0  0  0  0  0  0  0  0  0  # atno 11005 bound_to 11000
  145.3657  139.1671  143.4359 LP  0  0  0  0  0  0  0  0  0  0  0  0  # atno 17320 bound_to 7965
  146.3095  140.3723  142.8675 LP  0  0  0  0  0  0  0  0  0  0  0  0  # atno 17321 bound_to 7965
  139.5571  144.7380  151.4263 LP  0  0  0  0  0  0  0  0  0  0  0  0  # atno 17342 bound_to 10162
  140.6874  143.7941  150.7206 LP  0  0  0  0  0  0  0  0  0  0  0  0  # atno 17343 bound_to 10162
  157.7495  131.0095  150.3270 LP  0  0  0  0  0  0  0  0  0  0  0  0  # atno 17370 bound_to 10713
  156.3678  130.3858  149.7199 LP  0  0  0  0  0  0  0  0  0  0  0  0  # atno 17371 bound_to 10713
  139.8793  135.0001  156.5990 LP  0  0  0  0  0  0  0  0  0  0  0  0  # atno 17394 bound_to 11000
  140.7878  133.8607  155.8621 LP  0  0  0  0  0  0  0  0  0  0  0  0  # atno 17395 bound_to 11000

$$$$
