AV-unprocessed.smi:699|AV-procd|sdf|3406|dock7
  -GOLD-   22720 0383D 1   1.00000     0.00000
 Structure written by MMmdl.
 35 36  0  0  0  0  0  0  0  0  2 V2000
  153.4380  141.9933  161.0322 N   0  0  0  0  0  0  0  0  0  0  0  0
  152.6112  141.9177  159.9862 C   0  0  0  0  0  0  0  0  0  0  0  0
  152.5127  140.8988  159.3052 O   0  0  0  0  0  0  0  0  0  0  0  0
  151.7781  143.1669  159.6614 C   0  0  1  0  0  0  0  0  0  0  0  0
  152.0424  144.3336  160.6242 C   0  0  0  0  0  0  0  0  0  0  0  0
  151.6589  145.5754  159.8251 C   0  0  0  0  0  0  0  0  0  0  0  0
  152.1199  145.2695  158.4005 C   0  0  0  0  0  0  0  0  0  0  0  0
  152.0606  143.7359  158.2488 C   0  0  2  0  0  0  0  0  0  0  0  0
  151.0277  143.3173  157.3026 N   0  0  0  0  0  0  0  0  0  0  0  0
  150.9876  142.1311  156.6791 C   0  0  0  0  0  0  0  0  0  0  0  0
  151.8413  141.2576  156.8289 O   0  0  0  0  0  0  0  0  0  0  0  0
  149.9168  142.0426  155.8707 N   0  0  0  0  0  0  0  0  0  0  0  0
  149.5108  140.9597  155.0429 C   0  0  0  0  0  0  0  0  0  0  0  0
  150.3873  139.8565  154.9394 C   0  0  0  0  0  0  0  0  0  0  0  0
  150.0379  138.7629  154.1210 C   0  0  0  0  0  0  0  0  0  0  0  0
  148.8751  138.7812  153.4354 N   0  3  0  0  0  0  0  0  0  0  0  0
  148.0113  139.8175  153.4910 C   0  0  0  0  0  0  0  0  0  0  0  0
  148.3066  140.9389  154.2931 C   0  0  0  0  0  0  0  0  0  0  0  0
  154.0060  141.1954  161.2782 H   0  0  0  0  0  0  0  0  0  0  0  0
  153.4962  142.8447  161.5713 H   0  0  0  0  0  0  0  0  0  0  0  0
  150.7175  142.9190  159.7415 H   0  0  0  0  0  0  0  0  0  0  0  0
  151.4643  144.2493  161.5450 H   0  0  0  0  0  0  0  0  0  0  0  0
  153.0968  144.3898  160.8998 H   0  0  0  0  0  0  0  0  0  0  0  0
  150.5755  145.7010  159.8408 H   0  0  0  0  0  0  0  0  0  0  0  0
  152.1056  146.4866  160.2235 H   0  0  0  0  0  0  0  0  0  0  0  0
  151.5242  145.8040  157.6593 H   0  0  0  0  0  0  0  0  0  0  0  0
  153.1519  145.6003  158.2776 H   0  0  0  0  0  0  0  0  0  0  0  0
  153.0288  143.3885  157.8808 H   0  0  0  0  0  0  0  0  0  0  0  0
  150.2913  143.9813  157.1142 H   0  0  0  0  0  0  0  0  0  0  0  0
  149.3489  142.8745  155.8018 H   0  0  0  0  0  0  0  0  0  0  0  0
  151.3196  139.8418  155.4855 H   0  0  0  0  0  0  0  0  0  0  0  0
  150.6506  137.8822  153.9938 H   0  0  0  0  0  0  0  0  0  0  0  0
  147.1175  139.7227  152.8916 H   0  0  0  0  0  0  0  0  0  0  0  0
  147.6088  141.7620  154.3054 H   0  0  0  0  0  0  0  0  0  0  0  0
  148.6414  137.9810  152.8471 H   0  0  0  0  0  0  0  0  0  0  0  0
  1  2  1  0  0  0  0
  1 19  1  0  0  0  0
  1 20  1  0  0  0  0
  2  3  2  0  0  0  0
  2  4  1  0  0  0  0
  4  8  1  0  0  0  0
  4  5  1  0  0  0  0
  4 21  1  0  0  0  0
  5  6  1  0  0  0  0
  5 22  1  0  0  0  0
  5 23  1  0  0  0  0
  6  7  1  0  0  0  0
  6 24  1  0  0  0  0
  6 25  1  0  0  0  0
  7  8  1  0  0  0  0
  7 26  1  0  0  0  0
  7 27  1  0  0  0  0
  8  9  1  0  0  0  0
  8 28  1  0  0  0  0
  9 10  1  0  0  0  0
  9 29  1  0  0  0  0
 10 11  2  0  0  0  0
 10 12  1  0  0  0  0
 12 13  1  0  0  0  0
 12 30  1  0  0  0  0
 13 18  1  0  0  0  0
 13 14  2  0  0  0  0
 14 15  1  0  0  0  0
 14 31  1  0  0  0  0
 15 16  2  0  0  0  0
 15 32  1  0  0  0  0
 16 17  1  0  0  0  0
 16 35  1  0  0  0  0
 17 18  2  0  0  0  0
 17 33  1  0  0  0  0
 18 34  1  0  0  0  0
M  CHG  1  16   1
M  END
> <s_m_source_file>
AV-unprocessed.smi

> <i_m_source_file_index>
699

> <i_lp_mmshare_version>
43012

> <i_f3d_flags>
0

> <s_epik_input>
W05IMl1DKD1PKVtDQEBIXTFbQ0gyXVtDSDJdW0NIMl1bQ0BIXTFbTkhdQyg9TylbTkhdYzJbY0hdW2NIXW5bY0hdW2NIXTI=

> <s_epik_cmdline>
J2VwaWtfcHl0aG9uJywgJy1waCcsICc3LjAnLCAnLXRuJywgJzgnLCAnLW1hJywgJzIwMCcsICctbWV0YWxfYmluZGluZycsICctaW1hZScsICc8aW5maWxlLm1hZT4nLCAnLW9tYWUnLCAnPG91dGZpbGUubWFlPic=

> <r_epik_Ionization_Penalty>
1.0332

> <r_epik_Ionization_Penalty_Charging>
1.03318

> <r_epik_Ionization_Penalty_Neutral>
1.91967e-05

> <r_epik_State_Penalty>
1.08452

> <r_epik_Charging_Adjusted_Penalty>
2.11769

> <i_epik_Tot_Q>
1

> <i_epik_Tot_abs_Q>
1

> <r_epik_Metal_State_Penalty>
1.18144

> <b_epik_Metal_Only>
0

> <s_lp_Force_Field>
OPLS_2005

> <r_lp_Energy>
26.7554

> <b_lp_Chiralities_Consistent>
1

> <s_lp_Variant>
AV-unprocessed.smi:699-8

> <Gold.Version>
5.8.1

> <Gold.Id.Protein>
6NUR|6NUR_protein|mol2

> <Gold.PLP.Fitness>
52.2519

> <Gold.PLP.PLP>
-41.6251

> <Gold.PLP.part.hbond>
-3.9947

> <Gold.PLP.part.metal>
0.0000

> <Gold.PLP.part.buried>
-2.8523

> <Gold.PLP.part.nonpolar>
-35.0620

> <Gold.PLP.part.repulsive>
0.2549

> <Gold.PLP.ligand.clash>
0.0000

> <Gold.PLP.ligand.torsion>
0.3058

> <Gold.PLP.Chemscore.Hbond>
3.7454

> <Gold.PLP.Chemscore.CHOScore>
0.0000

> <Gold.PLP.Chemscore.Metal>
0.0000

> <Gold.Chemscore.Hbonds>
donor molecule, donor type, donor heavy atom, donor atom, acceptor molecule, acceptor atom, score
      L1  H     9    29       P1  8028  0.71
      L1  H    12    30       P1  8028  1.00
      L1  H    16    35       P1  7948  2.00

> <Gold.PLP.Chemscore.Internal.Correction>
0.0021

> <Gold.Rescore>
     Score         DG    S(hbond)    S(metal)    S(lipo)     H(rot)  DE(clash)    DE(int)     intcor
     17.77     -21.28       2.66        0.00      92.12       1.50       0.13       3.39       ----

> <Gold.Chemscore.Fitness>
17.7676

> <Gold.Chemscore.DG>
-21.2843

> <Gold.Chemscore.ZeroCoef>
-5.4800

> <Gold.Chemscore.Hbond>
2.6573

> <Gold.Chemscore.Metal>
0.0000

> <Gold.Chemscore.Lipo>
92.1227

> <Gold.Chemscore.Internal_Hbond>
0.0000

> <Gold.Chemscore.DEClash>
0.1277

> <Gold.Chemscore.DEInternal>
3.3890

> <Gold.Chemscore.Rot>
1.5038

> <Gold.Chemscore.Internal.Correction>
   9.000000E+99

> <Gold.Chemscore.Hbonds>
donor molecule, donor type, donor heavy atom, donor atom, acceptor molecule, acceptor atom, score
      L1  H     9    29       P1  8028  0.65
      L1  H    12    30       P1  8028  0.99
      L1  H    16    35       P1  7948  0.94

> <Gold.Chemscore.Hbond.Weighted>
-8.8755

> <Gold.Chemscore.Metal.Weighted>
-0.0000

> <Gold.Chemscore.Lipo.Weighted>
-10.7784

> <Gold.Chemscore.Internal_Hbond.Weighted>
0.0000

> <Gold.Chemscore.DEClash.Weighted>
0.1277

> <Gold.Chemscore.DEInternal.Weighted>
3.3890

> <Gold.Chemscore.Rot.Weighted>
3.8496

> <Gold.Chemscore.Internal.Correction.Weighted>
   9.000000E+99

> <Gold.Protein.RotatedTorsions>
[ 6907 6896 6895 6894 ] final  130.24 input  -60.11 | X-H torsion
[ 7974 7965 7964 7962 ] final   27.17 input  175.53 | X-H torsion
[ 8008 7997 7996 7995 ] final -171.95 input   59.86 | X-H torsion
[ 10167 10162 10161 10158 ] final -137.27 input  -65.29 | X-H torsion
[ 10718 10713 10712 10709 ] final  140.60 input   66.30 | X-H torsion
[ 10763 10752 10751 10750 ] final  123.01 input  -60.55 | X-H torsion
[ 11005 11000 10999 10996 ] final  -14.32 input  -57.11 | X-H torsion

> <Gold.Protein.ActiveResidues>
 VAL166  LYS551  ARG553  GLY616  TRP617  ASP618  TYR619  PRO620  LYS621  CYS622 
 ASP623  PHE694  ASN695  SER759  ASP760  ASP761  ALA762  ILE779  LEU786  VAL792 
 PHE793  MET794  SER795  GLU796  ALA797  LYS798  CYS799  TRP800  GLU811  SER814 

> <Gold.Protein.RotatedAtoms>
  152.3546  133.6221  159.5969 H   0  0  0  0  0  0  0  0  0  0  0  0  # atno 6907 bound_to 6896
  150.7560  133.9520  159.3497 H   0  0  0  0  0  0  0  0  0  0  0  0  # atno 6908 bound_to 6896
  151.7367  135.0864  160.0360 H   0  0  0  0  0  0  0  0  0  0  0  0  # atno 6909 bound_to 6896
  146.1798  139.7228  142.8908 H   0  0  0  0  0  0  0  0  0  0  0  0  # atno 7974 bound_to 7965
  155.9382  140.1104  157.1077 H   0  0  0  0  0  0  0  0  0  0  0  0  # atno 8008 bound_to 7997
  154.4084  140.1224  156.4958 H   0  0  0  0  0  0  0  0  0  0  0  0  # atno 8009 bound_to 7997
  155.6995  140.3472  155.4929 H   0  0  0  0  0  0  0  0  0  0  0  0  # atno 8010 bound_to 7997
  139.8594  143.7096  152.2651 H   0  0  0  0  0  0  0  0  0  0  0  0  # atno 10167 bound_to 10162
  157.4014  131.1017  151.0547 H   0  0  0  0  0  0  0  0  0  0  0  0  # atno 10718 bound_to 10713
  153.6388  135.3383  155.3065 H   0  0  0  0  0  0  0  0  0  0  0  0  # atno 10763 bound_to 10752
  154.8564  135.4313  154.2027 H   0  0  0  0  0  0  0  0  0  0  0  0  # atno 10764 bound_to 10752
  153.2940  135.7019  153.7339 H   0  0  0  0  0  0  0  0  0  0  0  0  # atno 10765 bound_to 10752
  140.7852  133.8331  155.9328 H   0  0  0  0  0  0  0  0  0  0  0  0  # atno 11005 bound_to 11000
  145.4107  141.0396  143.3018 LP  0  0  0  0  0  0  0  0  0  0  0  0  # atno 17320 bound_to 7965
  144.8297  139.5650  143.6949 LP  0  0  0  0  0  0  0  0  0  0  0  0  # atno 17321 bound_to 7965
  139.7388  144.7565  151.0685 LP  0  0  0  0  0  0  0  0  0  0  0  0  # atno 17342 bound_to 10162
  140.7777  143.4998  150.9786 LP  0  0  0  0  0  0  0  0  0  0  0  0  # atno 17343 bound_to 10162
  157.1545  130.6198  149.5592 LP  0  0  0  0  0  0  0  0  0  0  0  0  # atno 17370 bound_to 10713
  155.9824  130.4838  150.6881 LP  0  0  0  0  0  0  0  0  0  0  0  0  # atno 17371 bound_to 10713
  140.9444  134.1860  157.4774 LP  0  0  0  0  0  0  0  0  0  0  0  0  # atno 17394 bound_to 11000
  139.8737  134.9884  156.5412 LP  0  0  0  0  0  0  0  0  0  0  0  0  # atno 17395 bound_to 11000

$$$$
