AV-unprocessed.smi:1403|AV-procd|sdf|5704|dock5
  -GOLD-   22720 5333D 1   1.00000     0.00000
 Structure written by MMmdl.
 35 36  0  0  0  0  0  0  0  0  2 V2000
  145.3826  141.3193  156.6526 C   0  0  0  0  0  0  0  0  0  0  0  0
  146.2240  142.5645  156.9732 C   0  0  1  0  0  0  0  0  0  0  0  0
  147.5659  142.3689  156.4298 N   0  0  0  0  0  0  0  0  0  0  0  0
  148.2778  141.2328  156.4884 C   0  0  0  0  0  0  0  0  0  0  0  0
  147.8690  140.2031  157.0270 O   0  0  0  0  0  0  0  0  0  0  0  0
  149.6816  141.2881  155.8711 C   0  0  0  0  0  0  0  0  0  0  0  0
  150.7442  140.9450  156.8295 N   0  0  0  0  0  0  0  0  0  0  0  0
  150.9825  141.8376  157.8893 C   0  0  0  0  0  0  0  0  0  0  0  0
  151.9320  141.6036  158.8151 C   0  0  0  0  0  0  0  0  0  0  0  0
  152.7251  140.3863  158.6979 C   0  0  0  0  0  0  0  0  0  0  0  0
  153.6005  140.1592  159.5309 O   0  0  0  0  0  0  0  0  0  0  0  0
  152.4523  139.5489  157.6546 N   0  5  0  0  0  0  0  0  0  0  0  0
  151.4808  139.7981  156.7223 C   0  0  0  0  0  0  0  0  0  0  0  0
  151.2489  139.0271  155.7903 O   0  0  0  0  0  0  0  0  0  0  0  0
  145.6078  143.8567  156.3965 C   0  0  1  0  0  0  0  0  0  0  0  0
  145.1469  143.7467  154.9410 C   0  0  0  0  0  0  0  0  0  0  0  0
  144.0777  144.8123  154.8720 C   0  0  0  0  0  0  0  0  0  0  0  0
  143.4077  144.6582  156.2320 C   0  0  0  0  0  0  0  0  0  0  0  0
  144.4338  144.2264  157.1206 O   0  0  0  0  0  0  0  0  0  0  0  0
  144.3823  141.3927  157.0797 H   0  0  0  0  0  0  0  0  0  0  0  0
  145.8440  140.4202  157.0627 H   0  0  0  0  0  0  0  0  0  0  0  0
  145.2761  141.1771  155.5765 H   0  0  0  0  0  0  0  0  0  0  0  0
  146.2769  142.6554  158.0597 H   0  0  0  0  0  0  0  0  0  0  0  0
  147.9894  143.1635  155.9732 H   0  0  0  0  0  0  0  0  0  0  0  0
  149.7318  140.6285  155.0027 H   0  0  0  0  0  0  0  0  0  0  0  0
  149.8360  142.2927  155.4753 H   0  0  0  0  0  0  0  0  0  0  0  0
  150.3474  142.7109  157.9073 H   0  0  0  0  0  0  0  0  0  0  0  0
  152.1003  142.2978  159.6250 H   0  0  0  0  0  0  0  0  0  0  0  0
  146.3170  144.6820  156.4822 H   0  0  0  0  0  0  0  0  0  0  0  0
  145.9533  143.9071  154.2249 H   0  0  0  0  0  0  0  0  0  0  0  0
  144.7068  142.7669  154.7483 H   0  0  0  0  0  0  0  0  0  0  0  0
  144.5357  145.7985  154.7864 H   0  0  0  0  0  0  0  0  0  0  0  0
  143.3883  144.6787  154.0381 H   0  0  0  0  0  0  0  0  0  0  0  0
  142.9436  145.5827  156.5760 H   0  0  0  0  0  0  0  0  0  0  0  0
  142.6384  143.8860  156.1925 H   0  0  0  0  0  0  0  0  0  0  0  0
  1  2  1  0  0  0  0
  1 20  1  0  0  0  0
  1 21  1  0  0  0  0
  1 22  1  0  0  0  0
  2  3  1  0  0  0  0
  2 15  1  0  0  0  0
  2 23  1  0  0  0  0
  3  4  1  0  0  0  0
  3 24  1  0  0  0  0
  4  5  2  0  0  0  0
  4  6  1  0  0  0  0
  6  7  1  0  0  0  0
  6 25  1  0  0  0  0
  6 26  1  0  0  0  0
  7 13  1  0  0  0  0
  7  8  1  0  0  0  0
  8  9  2  0  0  0  0
  8 27  1  0  0  0  0
  9 10  1  0  0  0  0
  9 28  1  0  0  0  0
 10 11  2  0  0  0  0
 10 12  1  0  0  0  0
 12 13  1  0  0  0  0
 13 14  2  0  0  0  0
 15 19  1  0  0  0  0
 15 16  1  0  0  0  0
 15 29  1  0  0  0  0
 16 17  1  0  0  0  0
 16 30  1  0  0  0  0
 16 31  1  0  0  0  0
 17 18  1  0  0  0  0
 17 32  1  0  0  0  0
 17 33  1  0  0  0  0
 18 19  1  0  0  0  0
 18 34  1  0  0  0  0
 18 35  1  0  0  0  0
M  CHG  1  12  -1
M  END
> <s_m_source_file>
AV-unprocessed.smi

> <i_m_source_file_index>
1403

> <i_lp_mmshare_version>
43012

> <i_f3d_flags>
0

> <s_epik_input>
TzFbQ0gyXVtDSDJdW0NIMl1bQ0BIXTFbQ0BIXShbQ0gzXSlbTkhdQyg9TylbQ0gyXW4yW2NIXVtjSF1jKD1PKVtuSF1jMj1P

> <s_epik_cmdline>
J2VwaWtfcHl0aG9uJywgJy1waCcsICc3LjAnLCAnLXRuJywgJzgnLCAnLW1hJywgJzIwMCcsICctbWV0YWxfYmluZGluZycsICctaW1hZScsICc8aW5maWxlLm1hZT4nLCAnLW9tYWUnLCAnPG91dGZpbGUubWFlPic=

> <r_lp_tautomer_probability>
0.999537

> <r_epik_Ionization_Penalty>
3.07438

> <r_epik_Ionization_Penalty_Charging>
2.82466e-08

> <r_epik_Ionization_Penalty_Neutral>
3.07438

> <r_epik_State_Penalty>
3.07341

> <r_epik_Charging_Adjusted_Penalty>
3.07341

> <i_epik_Tot_Q>
-1

> <i_epik_Tot_abs_Q>
1

> <r_epik_Metal_State_Penalty>
0.45947

> <b_epik_Metal_Only>
1

> <s_lp_Force_Field>
OPLS_2005

> <r_lp_Energy>
26.7212

> <b_lp_Chiralities_Consistent>
1

> <s_lp_Variant>
AV-unprocessed.smi:1403-8

> <Gold.Version>
5.8.1

> <Gold.Id.Protein>
6NUR|6NUR_protein|mol2

> <Gold.PLP.Fitness>
40.1095

> <Gold.PLP.PLP>
-29.1159

> <Gold.PLP.part.hbond>
-3.0000

> <Gold.PLP.part.metal>
0.0000

> <Gold.PLP.part.buried>
-5.0943

> <Gold.PLP.part.nonpolar>
-21.1702

> <Gold.PLP.part.repulsive>
0.2206

> <Gold.PLP.ligand.clash>
0.0000

> <Gold.PLP.ligand.torsion>
0.4580

> <Gold.PLP.Chemscore.Hbond>
3.9600

> <Gold.PLP.Chemscore.CHOScore>
0.0000

> <Gold.PLP.Chemscore.Metal>
0.0000

> <Gold.Chemscore.Hbonds>
donor molecule, donor type, donor heavy atom, donor atom, acceptor molecule, acceptor atom, score
      L1  H     3    24       P1  8028  1.00
      P1  H  7997  8008       L1    12  0.55

> <Gold.PLP.Chemscore.Internal.Correction>
0.0297

> <Gold.Rescore>
     Score         DG    S(hbond)    S(metal)    S(lipo)     H(rot)  DE(clash)    DE(int)     intcor
     10.40     -12.61       1.94        0.00      49.33       1.99       0.11       2.11       ----

> <Gold.Chemscore.Fitness>
10.3966

> <Gold.Chemscore.DG>
-12.6135

> <Gold.Chemscore.ZeroCoef>
-5.4800

> <Gold.Chemscore.Hbond>
1.9360

> <Gold.Chemscore.Metal>
0.0000

> <Gold.Chemscore.Lipo>
49.3325

> <Gold.Chemscore.Internal_Hbond>
0.0000

> <Gold.Chemscore.DEClash>
0.1069

> <Gold.Chemscore.DEInternal>
2.1100

> <Gold.Chemscore.Rot>
1.9940

> <Gold.Chemscore.Internal.Correction>
   9.000000E+99

> <Gold.Chemscore.Hbonds>
donor molecule, donor type, donor heavy atom, donor atom, acceptor molecule, acceptor atom, score
      L1  H     3    24       P1  8028  0.50
      P1  H  7997  8008       L1    12  0.01

> <Gold.Chemscore.Hbond.Weighted>
-6.4663

> <Gold.Chemscore.Metal.Weighted>
-0.0000

> <Gold.Chemscore.Lipo.Weighted>
-5.7719

> <Gold.Chemscore.Internal_Hbond.Weighted>
0.0000

> <Gold.Chemscore.DEClash.Weighted>
0.1069

> <Gold.Chemscore.DEInternal.Weighted>
2.1100

> <Gold.Chemscore.Rot.Weighted>
5.1047

> <Gold.Chemscore.Internal.Correction.Weighted>
   9.000000E+99

> <Gold.Protein.RotatedTorsions>
[ 6907 6896 6895 6894 ] final -143.05 input  -60.11 | X-H torsion
[ 7974 7965 7964 7962 ] final -173.96 input  175.53 | X-H torsion
[ 8008 7997 7996 7995 ] final  -61.86 input   59.86 | X-H torsion
[ 10167 10162 10161 10158 ] final   19.58 input  -65.29 | X-H torsion
[ 10718 10713 10712 10709 ] final  -72.37 input   66.30 | X-H torsion
[ 10763 10752 10751 10750 ] final   76.62 input  -60.55 | X-H torsion
[ 11005 11000 10999 10996 ] final  -29.82 input  -57.11 | X-H torsion

> <Gold.Protein.ActiveResidues>
 VAL166  LYS551  ARG553  GLY616  TRP617  ASP618  TYR619  PRO620  LYS621  CYS622 
 ASP623  PHE694  ASN695  SER759  ASP760  ASP761  ALA762  ILE779  LEU786  VAL792 
 PHE793  MET794  SER795  GLU796  ALA797  LYS798  CYS799  TRP800  GLU811  SER814 

> <Gold.Protein.RotatedAtoms>
  151.0952  133.5285  159.2612 H   0  0  0  0  0  0  0  0  0  0  0  0  # atno 6907 bound_to 6896
  151.2137  135.0491  159.8931 H   0  0  0  0  0  0  0  0  0  0  0  0  # atno 6908 bound_to 6896
  152.5438  134.0764  159.8270 H   0  0  0  0  0  0  0  0  0  0  0  0  # atno 6909 bound_to 6896
  144.7134  140.1544  143.6381 H   0  0  0  0  0  0  0  0  0  0  0  0  # atno 7974 bound_to 7965
  154.4469  140.1008  156.6497 H   0  0  0  0  0  0  0  0  0  0  0  0  # atno 8008 bound_to 7997
  155.5411  140.3483  155.4428 H   0  0  0  0  0  0  0  0  0  0  0  0  # atno 8009 bound_to 7997
  156.0596  140.1323  156.9945 H   0  0  0  0  0  0  0  0  0  0  0  0  # atno 8010 bound_to 7997
  140.5568  143.9409  150.6615 H   0  0  0  0  0  0  0  0  0  0  0  0  # atno 10167 bound_to 10162
  156.0323  130.4371  150.2583 H   0  0  0  0  0  0  0  0  0  0  0  0  # atno 10718 bound_to 10713
  153.0739  135.4944  154.8363 H   0  0  0  0  0  0  0  0  0  0  0  0  # atno 10763 bound_to 10752
  154.7060  135.3011  154.9271 H   0  0  0  0  0  0  0  0  0  0  0  0  # atno 10764 bound_to 10752
  153.9980  135.6770  153.4810 H   0  0  0  0  0  0  0  0  0  0  0  0  # atno 10765 bound_to 10752
  140.9329  133.7327  156.0962 H   0  0  0  0  0  0  0  0  0  0  0  0  # atno 11005 bound_to 11000
  145.9087  139.2474  143.1450 LP  0  0  0  0  0  0  0  0  0  0  0  0  # atno 17320 bound_to 7965
  145.9738  140.8739  143.0149 LP  0  0  0  0  0  0  0  0  0  0  0  0  # atno 17321 bound_to 7965
  140.2850  143.3363  152.1116 LP  0  0  0  0  0  0  0  0  0  0  0  0  # atno 17342 bound_to 10162
  139.5052  144.6789  151.6057 LP  0  0  0  0  0  0  0  0  0  0  0  0  # atno 17343 bound_to 10162
  157.0684  131.0110  151.3198 LP  0  0  0  0  0  0  0  0  0  0  0  0  # atno 17370 bound_to 10713
  157.5017  130.7884  149.7612 LP  0  0  0  0  0  0  0  0  0  0  0  0  # atno 17371 bound_to 10713
  140.7838  134.3695  157.5481 LP  0  0  0  0  0  0  0  0  0  0  0  0  # atno 17394 bound_to 11000
  139.8801  134.9098  156.2999 LP  0  0  0  0  0  0  0  0  0  0  0  0  # atno 17395 bound_to 11000

$$$$
