AV-unprocessed.smi:479|AV-procd|sdf|2675|dock2
  -GOLD-   2262023 93D 1   1.00000     0.00000
 Structure written by MMmdl.
 46 48  0  0  0  0  0  0  0  0  2 V2000
  147.5450  135.4676  162.4706 C   0  0  0  0  0  0  0  0  0  0  0  0
  148.2076  135.7693  161.2512 O   0  0  0  0  0  0  0  0  0  0  0  0
  147.9231  135.0019  160.1396 C   0  0  0  0  0  0  0  0  0  0  0  0
  147.0519  133.8826  160.1584 C   0  0  0  0  0  0  0  0  0  0  0  0
  146.8018  133.1344  158.9847 C   0  0  0  0  0  0  0  0  0  0  0  0
  145.8882  131.9555  158.9802 C   0  0  0  0  0  0  0  0  0  0  0  0
  144.7515  131.9263  160.0009 C   0  0  0  0  0  0  0  0  0  0  0  0
  146.0025  131.0121  158.1984 O   0  0  0  0  0  0  0  0  0  0  0  0
  147.4394  133.5175  157.7859 C   0  0  0  0  0  0  0  0  0  0  0  0
  148.3030  134.6265  157.7566 C   0  0  0  0  0  0  0  0  0  0  0  0
  148.5481  135.3793  158.9304 C   0  0  0  0  0  0  0  0  0  0  0  0
  149.3763  136.4815  158.9734 O   0  0  0  0  0  0  0  0  0  0  0  0
  150.0524  136.8717  157.7859 C   0  0  0  0  0  0  0  0  0  0  0  0
  149.8357  138.3766  157.5704 C   0  0  1  0  0  0  0  0  0  0  0  0
  148.6249  138.7503  158.1974 O   0  0  0  0  0  0  0  0  0  0  0  0
  151.0023  139.2180  158.1258 C   0  0  0  0  0  0  0  0  0  0  0  0
  150.7489  140.6638  158.0556 N   0  0  0  0  0  0  0  0  0  0  0  0
  149.9624  141.3638  157.1943 C   0  0  0  0  0  0  0  0  0  0  0  0
  150.0602  142.6812  157.5250 N   0  3  0  0  0  0  0  0  0  0  0  0
  150.9210  142.8255  158.6150 C   0  0  0  0  0  0  0  0  0  0  0  0
  151.3335  143.9614  159.3052 C   0  0  0  0  0  0  0  0  0  0  0  0
  152.2235  143.7603  160.3809 C   0  0  0  0  0  0  0  0  0  0  0  0
  152.6679  142.4697  160.7350 C   0  0  0  0  0  0  0  0  0  0  0  0
  152.2437  141.3254  160.0278 C   0  0  0  0  0  0  0  0  0  0  0  0
  151.3660  141.5325  158.9636 C   0  0  0  0  0  0  0  0  0  0  0  0
  147.8918  136.1504  163.2460 H   0  0  0  0  0  0  0  0  0  0  0  0
  147.7643  134.4527  162.8048 H   0  0  0  0  0  0  0  0  0  0  0  0
  146.4656  135.5948  162.3784 H   0  0  0  0  0  0  0  0  0  0  0  0
  146.5702  133.5940  161.0790 H   0  0  0  0  0  0  0  0  0  0  0  0
  144.0951  132.7863  159.8674 H   0  0  0  0  0  0  0  0  0  0  0  0
  145.1485  131.9399  161.0161 H   0  0  0  0  0  0  0  0  0  0  0  0
  144.1549  131.0215  159.8814 H   0  0  0  0  0  0  0  0  0  0  0  0
  147.2728  132.9653  156.8722 H   0  0  0  0  0  0  0  0  0  0  0  0
  148.7672  134.8784  156.8155 H   0  0  0  0  0  0  0  0  0  0  0  0
  151.1178  136.6602  157.8925 H   0  0  0  0  0  0  0  0  0  0  0  0
  149.6798  136.3169  156.9230 H   0  0  0  0  0  0  0  0  0  0  0  0
  149.7240  138.5708  156.5029 H   0  0  0  0  0  0  0  0  0  0  0  0
  148.3191  139.5539  157.8048 H   0  0  0  0  0  0  0  0  0  0  0  0
  151.2382  138.9408  159.1533 H   0  0  0  0  0  0  0  0  0  0  0  0
  151.9062  139.0276  157.5461 H   0  0  0  0  0  0  0  0  0  0  0  0
  149.3700  140.9487  156.3915 H   0  0  0  0  0  0  0  0  0  0  0  0
  150.9931  144.9507  159.0371 H   0  0  0  0  0  0  0  0  0  0  0  0
  152.5710  144.6125  160.9468 H   0  0  0  0  0  0  0  0  0  0  0  0
  153.3475  142.3541  161.5670 H   0  0  0  0  0  0  0  0  0  0  0  0
  152.5863  140.3416  160.3118 H   0  0  0  0  0  0  0  0  0  0  0  0
  149.5748  143.4249  157.0399 H   0  0  0  0  0  0  0  0  0  0  0  0
  1  2  1  0  0  0  0
  1 26  1  0  0  0  0
  1 27  1  0  0  0  0
  1 28  1  0  0  0  0
  2  3  1  0  0  0  0
  3 11  1  0  0  0  0
  3  4  2  0  0  0  0
  4  5  1  0  0  0  0
  4 29  1  0  0  0  0
  5  6  1  0  0  0  0
  5  9  2  0  0  0  0
  6  7  1  0  0  0  0
  6  8  2  0  0  0  0
  7 30  1  0  0  0  0
  7 31  1  0  0  0  0
  7 32  1  0  0  0  0
  9 10  1  0  0  0  0
  9 33  1  0  0  0  0
 10 11  2  0  0  0  0
 10 34  1  0  0  0  0
 11 12  1  0  0  0  0
 12 13  1  0  0  0  0
 13 14  1  0  0  0  0
 13 35  1  0  0  0  0
 13 36  1  0  0  0  0
 14 15  1  0  0  0  0
 14 16  1  0  0  0  0
 14 37  1  0  0  0  0
 15 38  1  0  0  0  0
 16 17  1  0  0  0  0
 16 39  1  0  0  0  0
 16 40  1  0  0  0  0
 17 25  1  0  0  0  0
 17 18  1  0  0  0  0
 18 19  2  0  0  0  0
 18 41  1  0  0  0  0
 19 20  1  0  0  0  0
 19 46  1  0  0  0  0
 20 25  2  0  0  0  0
 20 21  1  0  0  0  0
 21 22  2  0  0  0  0
 21 42  1  0  0  0  0
 22 23  1  0  0  0  0
 22 43  1  0  0  0  0
 23 24  2  0  0  0  0
 23 44  1  0  0  0  0
 24 25  1  0  0  0  0
 24 45  1  0  0  0  0
M  CHG  1  19   1
M  END
> <s_m_source_file>
AV-unprocessed.smi

> <i_m_source_file_index>
479

> <i_lp_mmshare_version>
43012

> <i_f3d_flags>
0

> <s_epik_input>
W0NIM11PYzFbY0hdYyhDKD1PKVtDSDNdKVtjSF1bY0hdYzFPW0NIMl1bQ0BIXShbT0hdKVtDSDJdbihbY0hdbjIpYyhjMjMpW2NIXVtjSF1bY0hdW2NIXTM=

> <s_epik_cmdline>
J2VwaWtfcHl0aG9uJywgJy1waCcsICc3LjAnLCAnLXRuJywgJzgnLCAnLW1hJywgJzIwMCcsICctbWV0YWxfYmluZGluZycsICctaW1hZScsICc8aW5maWxlLm1hZT4nLCAnLW9tYWUnLCAnPG91dGZpbGUubWFlPic=

> <r_lp_tautomer_probability>
0.99995

> <r_epik_Ionization_Penalty>
1.37698

> <r_epik_Ionization_Penalty_Charging>
1.37698

> <r_epik_Ionization_Penalty_Neutral>
2.3993e-06

> <r_epik_State_Penalty>
1.45717

> <r_epik_Charging_Adjusted_Penalty>
2.83415

> <i_epik_Tot_Q>
1

> <i_epik_Tot_abs_Q>
1

> <r_epik_Metal_State_Penalty>
5.49703

> <b_epik_Metal_Only>
0

> <s_lp_Force_Field>
OPLS_2005

> <r_lp_Energy>
29.5876

> <b_lp_Chiralities_Consistent>
1

> <s_lp_Variant>
AV-unprocessed.smi:479-4

> <Gold.Version>
5.8.1

> <Gold.Id.Protein>
6NUR|6NUR_protein|mol2

> <Gold.PLP.Fitness>
54.0165

> <Gold.PLP.PLP>
-49.0433

> <Gold.PLP.part.hbond>
-3.8329

> <Gold.PLP.part.metal>
0.0000

> <Gold.PLP.part.buried>
-3.4784

> <Gold.PLP.part.nonpolar>
-42.8004

> <Gold.PLP.part.repulsive>
0.0989

> <Gold.PLP.ligand.clash>
0.0000

> <Gold.PLP.ligand.torsion>
1.5450

> <Gold.PLP.Chemscore.Hbond>
2.6338

> <Gold.PLP.Chemscore.CHOScore>
0.0000

> <Gold.PLP.Chemscore.Metal>
0.0000

> <Gold.Chemscore.Hbonds>
donor molecule, donor type, donor heavy atom, donor atom, acceptor molecule, acceptor atom, score
      L1  H    19    46       P1  8028  2.00

> <Gold.PLP.Chemscore.Internal.Correction>
0.1620

> <Gold.Rescore>
     Score         DG    S(hbond)    S(metal)    S(lipo)     H(rot)  DE(clash)    DE(int)     intcor
     17.36     -18.95       1.88        0.00     121.63       2.75       0.03       1.57       ----

> <Gold.Chemscore.Fitness>
17.3586

> <Gold.Chemscore.DG>
-18.9533

> <Gold.Chemscore.ZeroCoef>
-5.4800

> <Gold.Chemscore.Hbond>
1.8801

> <Gold.Chemscore.Metal>
0.0000

> <Gold.Chemscore.Lipo>
121.6271

> <Gold.Chemscore.Internal_Hbond>
0.0000

> <Gold.Chemscore.DEClash>
0.0289

> <Gold.Chemscore.DEInternal>
1.5658

> <Gold.Chemscore.Rot>
2.7487

> <Gold.Chemscore.Internal.Correction>
   9.000000E+99

> <Gold.Chemscore.Hbonds>
donor molecule, donor type, donor heavy atom, donor atom, acceptor molecule, acceptor atom, score
      L1  H    19    46       P1  8028  0.92

> <Gold.Chemscore.Hbond.Weighted>
-6.2797

> <Gold.Chemscore.Metal.Weighted>
-0.0000

> <Gold.Chemscore.Lipo.Weighted>
-14.2304

> <Gold.Chemscore.Internal_Hbond.Weighted>
0.0000

> <Gold.Chemscore.DEClash.Weighted>
0.0289

> <Gold.Chemscore.DEInternal.Weighted>
1.5658

> <Gold.Chemscore.Rot.Weighted>
7.0368

> <Gold.Chemscore.Internal.Correction.Weighted>
   9.000000E+99

> <Gold.Protein.RotatedTorsions>
[ 6907 6896 6895 6894 ] final  178.70 input  -60.11 | X-H torsion
[ 7974 7965 7964 7962 ] final  -53.67 input  175.53 | X-H torsion
[ 8008 7997 7996 7995 ] final  -47.11 input   59.86 | X-H torsion
[ 10167 10162 10161 10158 ] final   39.70 input  -65.29 | X-H torsion
[ 10718 10713 10712 10709 ] final  -11.76 input   66.30 | X-H torsion
[ 10763 10752 10751 10750 ] final   31.95 input  -60.55 | X-H torsion
[ 11005 11000 10999 10996 ] final  -60.69 input  -57.11 | X-H torsion

> <Gold.Protein.ActiveResidues>
 VAL166  LYS551  ARG553  GLY616  TRP617  ASP618  TYR619  PRO620  LYS621  CYS622 
 ASP623  PHE694  ASN695  SER759  ASP760  ASP761  ALA762  ILE779  LEU786  VAL792 
 PHE793  MET794  SER795  GLU796  ALA797  LYS798  CYS799  TRP800  GLU811  SER814 

> <Gold.Protein.RotatedAtoms>
  151.6836  133.3311  159.3225 H   0  0  0  0  0  0  0  0  0  0  0  0  # atno 6907 bound_to 6896
  150.7811  134.6759  159.6427 H   0  0  0  0  0  0  0  0  0  0  0  0  # atno 6908 bound_to 6896
  152.3869  134.6507  160.0174 H   0  0  0  0  0  0  0  0  0  0  0  0  # atno 6909 bound_to 6896
  145.8943  140.8046  142.9776 H   0  0  0  0  0  0  0  0  0  0  0  0  # atno 7974 bound_to 7965
  154.4013  140.1354  156.4121 H   0  0  0  0  0  0  0  0  0  0  0  0  # atno 8008 bound_to 7997
  155.7723  140.3483  155.5233 H   0  0  0  0  0  0  0  0  0  0  0  0  # atno 8009 bound_to 7997
  155.8755  140.0978  157.1512 H   0  0  0  0  0  0  0  0  0  0  0  0  # atno 8010 bound_to 7997
  140.3814  144.1975  150.6130 H   0  0  0  0  0  0  0  0  0  0  0  0  # atno 10167 bound_to 10162
  156.6544  130.4964  149.6051 H   0  0  0  0  0  0  0  0  0  0  0  0  # atno 10718 bound_to 10713
  153.0288  135.6426  154.1279 H   0  0  0  0  0  0  0  0  0  0  0  0  # atno 10763 bound_to 10752
  154.1004  135.2860  155.3254 H   0  0  0  0  0  0  0  0  0  0  0  0  # atno 10764 bound_to 10752
  154.6402  135.5462  153.7844 H   0  0  0  0  0  0  0  0  0  0  0  0  # atno 10765 bound_to 10752
  141.1296  133.6624  156.5261 H   0  0  0  0  0  0  0  0  0  0  0  0  # atno 11005 bound_to 11000
  144.6732  140.1577  143.7425 LP  0  0  0  0  0  0  0  0  0  0  0  0  # atno 17320 bound_to 7965
  145.8870  139.2354  143.1572 LP  0  0  0  0  0  0  0  0  0  0  0  0  # atno 17321 bound_to 7965
  140.4934  143.2340  151.8785 LP  0  0  0  0  0  0  0  0  0  0  0  0  # atno 17342 bound_to 10162
  139.4795  144.5141  151.8893 LP  0  0  0  0  0  0  0  0  0  0  0  0  # atno 17343 bound_to 10162
  156.2059  130.6649  151.1218 LP  0  0  0  0  0  0  0  0  0  0  0  0  # atno 17370 bound_to 10713
  157.7130  131.0724  150.6430 LP  0  0  0  0  0  0  0  0  0  0  0  0  # atno 17371 bound_to 10713
  140.4253  134.7150  157.4912 LP  0  0  0  0  0  0  0  0  0  0  0  0  # atno 17394 bound_to 11000
  140.0331  134.6376  155.9079 LP  0  0  0  0  0  0  0  0  0  0  0  0  # atno 17395 bound_to 11000

$$$$
