AV-unprocessed.smi:1112|AV-procd|sdf|4797|dock7
  -GOLD-   22720 3343D 1   1.00000     0.00000
 Structure written by MMmdl.
 50 52  0  0  0  0  0  0  0  0  2 V2000
  145.0637  138.2205  152.6776 O   0  0  0  0  0  0  0  0  0  0  0  0
  146.1262  137.6383  152.4619 C   0  0  0  0  0  0  0  0  0  0  0  0
  146.2123  136.4359  151.8758 N   0  0  0  0  0  0  0  0  0  0  0  0
  145.0901  135.6420  151.3772 C   0  0  0  0  0  0  0  0  0  0  0  0
  145.0426  134.2178  151.9919 C   0  0  0  0  0  0  0  0  0  0  0  0
  144.8800  134.3899  153.3874 O   0  0  0  0  0  0  0  0  0  0  0  0
  143.7994  133.4337  151.5078 C   0  0  0  0  0  0  0  0  0  0  0  0
  143.9262  132.9553  150.0490 C   0  0  0  0  0  0  0  0  0  0  0  0
  145.2108  132.1398  149.8342 C   0  0  0  0  0  0  0  0  0  0  0  0
  146.4525  132.9209  150.2908 C   0  0  0  0  0  0  0  0  0  0  0  0
  146.3167  133.3682  151.7564 C   0  0  0  0  0  0  0  0  0  0  0  0
  147.3436  138.1049  152.7868 N   0  0  0  0  0  0  0  0  0  0  0  0
  147.6827  139.3293  153.4322 C   0  0  0  0  0  0  0  0  0  0  0  0
  146.9498  140.5266  153.2252 C   0  0  0  0  0  0  0  0  0  0  0  0
  147.3341  141.7074  153.8896 C   0  0  0  0  0  0  0  0  0  0  0  0
  148.4507  141.6781  154.7436 C   0  0  0  0  0  0  0  0  0  0  0  0
  149.1382  140.5288  154.9053 N   0  3  0  0  0  0  0  0  0  0  0  0
  148.8142  139.3628  154.2930 C   0  0  0  0  0  0  0  0  0  0  0  0
  149.6276  138.2302  154.5087 N   0  0  0  0  0  0  0  0  0  0  0  0
  151.0136  138.4120  154.0828 C   0  0  0  0  0  0  0  0  0  0  0  0
  151.8878  137.7164  155.1293 C   0  0  0  0  0  0  0  0  0  0  0  0
  151.0233  137.7485  156.3836 C   0  0  0  0  0  0  0  0  0  0  0  0
  149.6164  137.5744  155.8152 C   0  0  0  0  0  0  0  0  0  0  0  0
  147.1301  136.0371  151.7434 H   0  0  0  0  0  0  0  0  0  0  0  0
  144.1685  136.1794  151.6040 H   0  0  0  0  0  0  0  0  0  0  0  0
  145.1295  135.5834  150.2896 H   0  0  0  0  0  0  0  0  0  0  0  0
  143.9820  134.6310  153.5574 H   0  0  0  0  0  0  0  0  0  0  0  0
  143.6530  132.5570  152.1410 H   0  0  0  0  0  0  0  0  0  0  0  0
  142.8993  134.0398  151.6209 H   0  0  0  0  0  0  0  0  0  0  0  0
  143.0588  132.3498  149.7848 H   0  0  0  0  0  0  0  0  0  0  0  0
  143.9149  133.8081  149.3702 H   0  0  0  0  0  0  0  0  0  0  0  0
  145.1453  131.2037  150.3904 H   0  0  0  0  0  0  0  0  0  0  0  0
  145.3073  131.8675  148.7829 H   0  0  0  0  0  0  0  0  0  0  0  0
  147.3415  132.3003  150.1754 H   0  0  0  0  0  0  0  0  0  0  0  0
  146.5987  133.7876  149.6463 H   0  0  0  0  0  0  0  0  0  0  0  0
  147.2142  133.9012  152.0702 H   0  0  0  0  0  0  0  0  0  0  0  0
  146.2750  132.4753  152.3824 H   0  0  0  0  0  0  0  0  0  0  0  0
  148.1135  137.4723  152.6260 H   0  0  0  0  0  0  0  0  0  0  0  0
  146.1041  140.5668  152.5561 H   0  0  0  0  0  0  0  0  0  0  0  0
  146.7816  142.6238  153.7409 H   0  0  0  0  0  0  0  0  0  0  0  0
  148.8193  142.5345  155.2896 H   0  0  0  0  0  0  0  0  0  0  0  0
  151.1778  137.9932  153.0896 H   0  0  0  0  0  0  0  0  0  0  0  0
  151.2593  139.4747  154.0411 H   0  0  0  0  0  0  0  0  0  0  0  0
  152.0675  136.6816  154.8334 H   0  0  0  0  0  0  0  0  0  0  0  0
  152.8552  138.2012  155.2639 H   0  0  0  0  0  0  0  0  0  0  0  0
  151.2889  136.9770  157.1068 H   0  0  0  0  0  0  0  0  0  0  0  0
  151.1118  138.7197  156.8728 H   0  0  0  0  0  0  0  0  0  0  0  0
  148.8521  137.9408  156.5007 H   0  0  0  0  0  0  0  0  0  0  0  0
  149.4108  136.5160  155.6518 H   0  0  0  0  0  0  0  0  0  0  0  0
  149.9526  140.5400  155.5198 H   0  0  0  0  0  0  0  0  0  0  0  0
  1  2  2  0  0  0  0
  2  3  1  0  0  0  0
  2 12  1  0  0  0  0
  3  4  1  0  0  0  0
  3 24  1  0  0  0  0
  4  5  1  0  0  0  0
  4 25  1  0  0  0  0
  4 26  1  0  0  0  0
  5 11  1  0  0  0  0
  5  6  1  0  0  0  0
  5  7  1  0  0  0  0
  6 27  1  0  0  0  0
  7  8  1  0  0  0  0
  7 28  1  0  0  0  0
  7 29  1  0  0  0  0
  8  9  1  0  0  0  0
  8 30  1  0  0  0  0
  8 31  1  0  0  0  0
  9 10  1  0  0  0  0
  9 32  1  0  0  0  0
  9 33  1  0  0  0  0
 10 11  1  0  0  0  0
 10 34  1  0  0  0  0
 10 35  1  0  0  0  0
 11 36  1  0  0  0  0
 11 37  1  0  0  0  0
 12 13  1  0  0  0  0
 12 38  1  0  0  0  0
 13 18  1  0  0  0  0
 13 14  2  0  0  0  0
 14 15  1  0  0  0  0
 14 39  1  0  0  0  0
 15 16  2  0  0  0  0
 15 40  1  0  0  0  0
 16 17  1  0  0  0  0
 16 41  1  0  0  0  0
 17 18  2  0  0  0  0
 17 50  1  0  0  0  0
 18 19  1  0  0  0  0
 19 23  1  0  0  0  0
 19 20  1  0  0  0  0
 20 21  1  0  0  0  0
 20 42  1  0  0  0  0
 20 43  1  0  0  0  0
 21 22  1  0  0  0  0
 21 44  1  0  0  0  0
 21 45  1  0  0  0  0
 22 23  1  0  0  0  0
 22 46  1  0  0  0  0
 22 47  1  0  0  0  0
 23 48  1  0  0  0  0
 23 49  1  0  0  0  0
M  CHG  1  17   1
M  END
> <s_m_source_file>
AV-unprocessed.smi

> <i_m_source_file_index>
1112

> <i_lp_mmshare_version>
43012

> <i_f3d_flags>
0

> <s_epik_input>
W0NIMl0xW0NIMl1bQ0gyXVtDSDJdW0NIMl1DMShbT0hdKVtDSDJdW05IXUMoPU8pW05IXWMyW2NIXVtjSF1bY0hdbmMyTjNbQ0gyXVtDSDJdW0NIMl1bQ0gyXTM=

> <s_epik_cmdline>
J2VwaWtfcHl0aG9uJywgJy1waCcsICc3LjAnLCAnLXRuJywgJzgnLCAnLW1hJywgJzIwMCcsICctbWV0YWxfYmluZGluZycsICctaW1hZScsICc8aW5maWxlLm1hZT4nLCAnLW9tYWUnLCAnPG91dGZpbGUubWFlPic=

> <r_lp_tautomer_probability>
0.999994

> <r_epik_Ionization_Penalty>
1.10443

> <r_epik_Ionization_Penalty_Charging>
1.1044

> <r_epik_Ionization_Penalty_Neutral>
2.27493e-05

> <r_epik_State_Penalty>
1.16183

> <r_epik_Charging_Adjusted_Penalty>
2.26623

> <i_epik_Tot_Q>
1

> <i_epik_Tot_abs_Q>
1

> <r_epik_Metal_State_Penalty>
1.24855

> <b_epik_Metal_Only>
0

> <s_lp_Force_Field>
OPLS_2005

> <r_lp_Energy>
50.1983

> <b_lp_Chiralities_Consistent>
1

> <s_lp_Variant>
AV-unprocessed.smi:1112-2

> <Gold.Version>
5.8.1

> <Gold.Id.Protein>
6NUR|6NUR_protein|mol2

> <Gold.PLP.Fitness>
42.6920

> <Gold.PLP.PLP>
-37.2492

> <Gold.PLP.part.hbond>
-2.0392

> <Gold.PLP.part.metal>
0.0000

> <Gold.PLP.part.buried>
-3.6047

> <Gold.PLP.part.nonpolar>
-33.9894

> <Gold.PLP.part.repulsive>
3.7607

> <Gold.PLP.ligand.clash>
0.0000

> <Gold.PLP.ligand.torsion>
0.3392

> <Gold.PLP.Chemscore.Hbond>
1.9920

> <Gold.PLP.Chemscore.CHOScore>
0.0000

> <Gold.PLP.Chemscore.Metal>
0.0000

> <Gold.Chemscore.Hbonds>
donor molecule, donor type, donor heavy atom, donor atom, acceptor molecule, acceptor atom, score
      L1  H     3    24       P1  7948  0.99
      L1  H    12    38       P1  7948  1.00

> <Gold.PLP.Chemscore.Internal.Correction>
0.1452

> <Gold.Rescore>
     Score         DG    S(hbond)    S(metal)    S(lipo)     H(rot)  DE(clash)    DE(int)     intcor
     15.60     -18.69       1.90        0.00     100.61       1.92       1.74       1.35       ----

> <Gold.Chemscore.Fitness>
15.6022

> <Gold.Chemscore.DG>
-18.6938

> <Gold.Chemscore.ZeroCoef>
-5.4800

> <Gold.Chemscore.Hbond>
1.9014

> <Gold.Chemscore.Metal>
0.0000

> <Gold.Chemscore.Lipo>
100.6102

> <Gold.Chemscore.Internal_Hbond>
0.0000

> <Gold.Chemscore.DEClash>
1.7367

> <Gold.Chemscore.DEInternal>
1.3549

> <Gold.Chemscore.Rot>
1.9173

> <Gold.Chemscore.Internal.Correction>
   9.000000E+99

> <Gold.Chemscore.Hbonds>
donor molecule, donor type, donor heavy atom, donor atom, acceptor molecule, acceptor atom, score
      L1  H     3    24       P1  7948  0.94
      L1  H    12    38       P1  7948  0.98

> <Gold.Chemscore.Hbond.Weighted>
-6.3508

> <Gold.Chemscore.Metal.Weighted>
-0.0000

> <Gold.Chemscore.Lipo.Weighted>
-11.7714

> <Gold.Chemscore.Internal_Hbond.Weighted>
0.0000

> <Gold.Chemscore.DEClash.Weighted>
1.7367

> <Gold.Chemscore.DEInternal.Weighted>
1.3549

> <Gold.Chemscore.Rot.Weighted>
4.9084

> <Gold.Chemscore.Internal.Correction.Weighted>
   9.000000E+99

> <Gold.Protein.RotatedTorsions>
[ 6907 6896 6895 6894 ] final  -75.88 input  -60.11 | X-H torsion
[ 7974 7965 7964 7962 ] final  140.81 input  175.53 | X-H torsion
[ 8008 7997 7996 7995 ] final  120.52 input   59.86 | X-H torsion
[ 10167 10162 10161 10158 ] final   50.51 input  -65.29 | X-H torsion
[ 10718 10713 10712 10709 ] final   38.02 input   66.30 | X-H torsion
[ 10763 10752 10751 10750 ] final   62.19 input  -60.55 | X-H torsion
[ 11005 11000 10999 10996 ] final  -43.37 input  -57.11 | X-H torsion

> <Gold.Protein.ActiveResidues>
 VAL166  LYS551  ARG553  GLY616  TRP617  ASP618  TYR619  PRO620  LYS621  CYS622 
 ASP623  PHE694  ASN695  SER759  ASP760  ASP761  ALA762  ILE779  LEU786  VAL792 
 PHE793  MET794  SER795  GLU796  ALA797  LYS798  CYS799  TRP800  GLU811  SER814 

> <Gold.Protein.RotatedAtoms>
  150.7045  134.4655  159.5400 H   0  0  0  0  0  0  0  0  0  0  0  0  # atno 6907 bound_to 6896
  152.2322  134.8308  160.0481 H   0  0  0  0  0  0  0  0  0  0  0  0  # atno 6908 bound_to 6896
  151.9120  133.3528  159.3904 H   0  0  0  0  0  0  0  0  0  0  0  0  # atno 6909 bound_to 6896
  144.9153  139.5239  143.5689 H   0  0  0  0  0  0  0  0  0  0  0  0  # atno 7974 bound_to 7965
  156.2646  140.2829  156.1162 H   0  0  0  0  0  0  0  0  0  0  0  0  # atno 8008 bound_to 7997
  155.1204  140.0392  157.2766 H   0  0  0  0  0  0  0  0  0  0  0  0  # atno 8009 bound_to 7997
  154.6675  140.2580  155.7049 H   0  0  0  0  0  0  0  0  0  0  0  0  # atno 8010 bound_to 7997
  140.2716  144.3259  150.6288 H   0  0  0  0  0  0  0  0  0  0  0  0  # atno 10167 bound_to 10162
  157.3539  130.7613  149.6998 H   0  0  0  0  0  0  0  0  0  0  0  0  # atno 10718 bound_to 10713
  152.9975  135.5474  154.6154 H   0  0  0  0  0  0  0  0  0  0  0  0  # atno 10763 bound_to 10752
  154.5465  135.2823  155.1050 H   0  0  0  0  0  0  0  0  0  0  0  0  # atno 10764 bound_to 10752
  154.2306  135.6434  153.5227 H   0  0  0  0  0  0  0  0  0  0  0  0  # atno 10765 bound_to 10752
  141.0379  133.6792  156.2723 H   0  0  0  0  0  0  0  0  0  0  0  0  # atno 11005 bound_to 11000
  146.3179  139.7991  142.8969 LP  0  0  0  0  0  0  0  0  0  0  0  0  # atno 17320 bound_to 7965
  145.3386  141.0282  143.3405 LP  0  0  0  0  0  0  0  0  0  0  0  0  # atno 17321 bound_to 7965
  140.5885  143.2169  151.7298 LP  0  0  0  0  0  0  0  0  0  0  0  0  # atno 17342 bound_to 10162
  139.4987  144.3975  152.0216 LP  0  0  0  0  0  0  0  0  0  0  0  0  # atno 17343 bound_to 10162
  155.9726  130.4133  150.4074 LP  0  0  0  0  0  0  0  0  0  0  0  0  # atno 17370 bound_to 10713
  157.2141  131.0467  151.2583 LP  0  0  0  0  0  0  0  0  0  0  0  0  # atno 17371 bound_to 10713
  140.6288  134.5285  157.5557 LP  0  0  0  0  0  0  0  0  0  0  0  0  # atno 17394 bound_to 11000
  139.9254  134.8066  156.1085 LP  0  0  0  0  0  0  0  0  0  0  0  0  # atno 17395 bound_to 11000

$$$$
