AV-unprocessed.smi:2770|AV-procd|sdf|10660|dock3
  -GOLD-   2272015103D 1   1.00000     0.00000
 Structure written by MMmdl.
 35 36  0  0  0  0  0  0  0  0  2 V2000
  146.6436  143.0022  153.7698 C   0  0  0  0  0  0  0  0  0  0  0  0
  147.5330  142.4366  154.7725 N   0  0  0  0  0  0  0  0  0  0  0  0
  148.5554  141.6123  154.4989 C   0  0  0  0  0  0  0  0  0  0  0  0
  148.8417  141.2600  153.3539 O   0  0  0  0  0  0  0  0  0  0  0  0
  149.3879  141.1299  155.6951 C   0  0  2  0  0  0  0  0  0  0  0  0
  149.9804  142.3002  156.5128 C   0  0  0  0  0  0  0  0  0  0  0  0
  150.8426  141.7929  157.5723 N   0  0  0  0  0  0  0  0  0  0  0  0
  151.3288  142.8068  158.4077 C   0  0  0  0  0  0  0  0  0  0  0  0
  151.5403  144.1379  157.9782 C   0  0  0  0  0  0  0  0  0  0  0  0
  152.0275  145.0902  158.8969 C   0  0  0  0  0  0  0  0  0  0  0  0
  152.2932  144.6973  160.2245 C   0  0  0  0  0  0  0  0  0  0  0  0
  152.0634  143.3579  160.6033 C   0  0  0  0  0  0  0  0  0  0  0  0
  152.3213  142.8571  162.0085 C   0  0  0  0  0  0  0  0  0  0  0  0
  151.5957  142.4766  159.6911 N   0  3  0  0  0  0  0  0  0  0  0  0
  151.8796  140.8992  157.0744 C   0  0  0  0  0  0  0  0  0  0  0  0
  151.2412  139.7604  156.2636 C   0  0  0  0  0  0  0  0  0  0  0  0
  150.4563  140.3134  155.2118 O   0  0  0  0  0  0  0  0  0  0  0  0
  145.8858  143.6202  154.2509 H   0  0  0  0  0  0  0  0  0  0  0  0
  146.1367  142.2148  153.2109 H   0  0  0  0  0  0  0  0  0  0  0  0
  147.1976  143.6265  153.0678 H   0  0  0  0  0  0  0  0  0  0  0  0
  147.3614  142.6837  155.7368 H   0  0  0  0  0  0  0  0  0  0  0  0
  148.7352  140.5278  156.3300 H   0  0  0  0  0  0  0  0  0  0  0  0
  150.5525  142.9634  155.8614 H   0  0  0  0  0  0  0  0  0  0  0  0
  149.1797  142.8945  156.9555 H   0  0  0  0  0  0  0  0  0  0  0  0
  151.3297  144.4312  156.9600 H   0  0  0  0  0  0  0  0  0  0  0  0
  152.1943  146.1114  158.5871 H   0  0  0  0  0  0  0  0  0  0  0  0
  152.6664  145.4163  160.9395 H   0  0  0  0  0  0  0  0  0  0  0  0
  152.6279  143.6713  162.6659 H   0  0  0  0  0  0  0  0  0  0  0  0
  153.1115  142.1059  162.0046 H   0  0  0  0  0  0  0  0  0  0  0  0
  151.4193  142.4066  162.4234 H   0  0  0  0  0  0  0  0  0  0  0  0
  152.5785  141.4516  156.4454 H   0  0  0  0  0  0  0  0  0  0  0  0
  152.4482  140.4909  157.9108 H   0  0  0  0  0  0  0  0  0  0  0  0
  152.0150  139.1245  155.8333 H   0  0  0  0  0  0  0  0  0  0  0  0
  150.6228  139.1254  156.9002 H   0  0  0  0  0  0  0  0  0  0  0  0
  151.4363  141.5131  159.9867 H   0  0  0  0  0  0  0  0  0  0  0  0
  1  2  1  0  0  0  0
  1 18  1  0  0  0  0
  1 19  1  0  0  0  0
  1 20  1  0  0  0  0
  2  3  1  0  0  0  0
  2 21  1  0  0  0  0
  3  4  2  0  0  0  0
  3  5  1  0  0  0  0
  5 17  1  0  0  0  0
  5  6  1  0  0  0  0
  5 22  1  0  0  0  0
  6  7  1  0  0  0  0
  6 23  1  0  0  0  0
  6 24  1  0  0  0  0
  7  8  1  0  0  0  0
  7 15  1  0  0  0  0
  8 14  1  0  0  0  0
  8  9  2  0  0  0  0
  9 10  1  0  0  0  0
  9 25  1  0  0  0  0
 10 11  2  0  0  0  0
 10 26  1  0  0  0  0
 11 12  1  0  0  0  0
 11 27  1  0  0  0  0
 12 13  1  0  0  0  0
 12 14  2  0  0  0  0
 13 28  1  0  0  0  0
 13 29  1  0  0  0  0
 13 30  1  0  0  0  0
 14 35  1  0  0  0  0
 15 16  1  0  0  0  0
 15 31  1  0  0  0  0
 15 32  1  0  0  0  0
 16 17  1  0  0  0  0
 16 33  1  0  0  0  0
 16 34  1  0  0  0  0
M  CHG  1  14   1
M  END
> <s_m_source_file>
AV-unprocessed.smi

> <i_m_source_file_index>
2770

> <i_lp_mmshare_version>
43012

> <i_f3d_flags>
0

> <s_epik_input>
W0NIM11bTkhdQyg9TylbQ0BASF0xW0NIMl1OKFtDSDJdW0NIMl1PMSljMltjSF1bY0hdW2NIXWMobjIpW0NIM10=

> <s_epik_cmdline>
J2VwaWtfcHl0aG9uJywgJy1waCcsICc3LjAnLCAnLXRuJywgJzgnLCAnLW1hJywgJzIwMCcsICctbWV0YWxfYmluZGluZycsICctaW1hZScsICc8aW5maWxlLm1hZT4nLCAnLW9tYWUnLCAnPG91dGZpbGUubWFlPic=

> <r_lp_tautomer_probability>
0.999994

> <r_epik_Ionization_Penalty>
2.33902

> <r_epik_Ionization_Penalty_Charging>
2.33902

> <r_epik_Ionization_Penalty_Neutral>
5.66859e-08

> <r_epik_State_Penalty>
2.4925

> <r_epik_Charging_Adjusted_Penalty>
4.83152

> <i_epik_Tot_Q>
1

> <i_epik_Tot_abs_Q>
1

> <r_epik_Metal_State_Penalty>
2.50392

> <b_epik_Metal_Only>
0

> <s_lp_Force_Field>
OPLS_2005

> <r_lp_Energy>
23.5554

> <b_lp_Chiralities_Consistent>
1

> <s_lp_Variant>
AV-unprocessed.smi:2770-3

> <Gold.Version>
5.8.1

> <Gold.Id.Protein>
6NUR|6NUR_protein|mol2

> <Gold.PLP.Fitness>
39.5955

> <Gold.PLP.PLP>
-35.1640

> <Gold.PLP.part.hbond>
-3.0000

> <Gold.PLP.part.metal>
0.0000

> <Gold.PLP.part.buried>
-4.0352

> <Gold.PLP.part.nonpolar>
-30.6255

> <Gold.PLP.part.repulsive>
2.8197

> <Gold.PLP.ligand.clash>
0.0000

> <Gold.PLP.ligand.torsion>
0.6540

> <Gold.PLP.Chemscore.Hbond>
1.8800

> <Gold.PLP.Chemscore.CHOScore>
0.0000

> <Gold.PLP.Chemscore.Metal>
0.0000

> <Gold.Chemscore.Hbonds>
donor molecule, donor type, donor heavy atom, donor atom, acceptor molecule, acceptor atom, score
      P1  H  7989  7998       L1    17  0.70
      P1  H  8011  8017       L1     4  0.96

> <Gold.PLP.Chemscore.Internal.Correction>
0.0995

> <Gold.Rescore>
     Score         DG    S(hbond)    S(metal)    S(lipo)     H(rot)  DE(clash)    DE(int)     intcor
     15.64     -19.31       1.83        0.00      94.47       1.30       3.05       0.63       ----

> <Gold.Chemscore.Fitness>
15.6377

> <Gold.Chemscore.DG>
-19.3133

> <Gold.Chemscore.ZeroCoef>
-5.4800

> <Gold.Chemscore.Hbond>
1.8259

> <Gold.Chemscore.Metal>
0.0000

> <Gold.Chemscore.Lipo>
94.4740

> <Gold.Chemscore.Internal_Hbond>
0.0000

> <Gold.Chemscore.DEClash>
3.0476

> <Gold.Chemscore.DEInternal>
0.6280

> <Gold.Chemscore.Rot>
1.2963

> <Gold.Chemscore.Internal.Correction>
   9.000000E+99

> <Gold.Chemscore.Hbonds>
donor molecule, donor type, donor heavy atom, donor atom, acceptor molecule, acceptor atom, score
      P1  H  7989  7998       L1    17  0.58
      P1  H  8011  8017       L1     4  0.88

> <Gold.Chemscore.Hbond.Weighted>
-6.0984

> <Gold.Chemscore.Metal.Weighted>
-0.0000

> <Gold.Chemscore.Lipo.Weighted>
-11.0535

> <Gold.Chemscore.Internal_Hbond.Weighted>
0.0000

> <Gold.Chemscore.DEClash.Weighted>
3.0476

> <Gold.Chemscore.DEInternal.Weighted>
0.6280

> <Gold.Chemscore.Rot.Weighted>
3.3185

> <Gold.Chemscore.Internal.Correction.Weighted>
   9.000000E+99

> <Gold.Protein.RotatedTorsions>
[ 6907 6896 6895 6894 ] final -149.43 input  -60.11 | X-H torsion
[ 7974 7965 7964 7962 ] final  -25.26 input  175.53 | X-H torsion
[ 8008 7997 7996 7995 ] final   70.02 input   59.86 | X-H torsion
[ 10167 10162 10161 10158 ] final   39.39 input  -65.29 | X-H torsion
[ 10718 10713 10712 10709 ] final  161.20 input   66.30 | X-H torsion
[ 10763 10752 10751 10750 ] final  -91.94 input  -60.55 | X-H torsion
[ 11005 11000 10999 10996 ] final -149.77 input  -57.11 | X-H torsion

> <Gold.Protein.ActiveResidues>
 VAL166  LYS551  ARG553  GLY616  TRP617  ASP618  TYR619  PRO620  LYS621  CYS622 
 ASP623  PHE694  ASN695  SER759  ASP760  ASP761  ALA762  ILE779  LEU786  VAL792 
 PHE793  MET794  SER795  GLU796  ALA797  LYS798  CYS799  TRP800  GLU811  SER814 

> <Gold.Protein.RotatedAtoms>
  151.1840  133.4708  159.2594 H   0  0  0  0  0  0  0  0  0  0  0  0  # atno 6907 bound_to 6896
  151.1231  135.0090  159.8557 H   0  0  0  0  0  0  0  0  0  0  0  0  # atno 6908 bound_to 6896
  152.5457  134.1749  159.8665 H   0  0  0  0  0  0  0  0  0  0  0  0  # atno 6909 bound_to 6896
  146.1502  140.4862  142.8614 H   0  0  0  0  0  0  0  0  0  0  0  0  # atno 7974 bound_to 7965
  155.7325  140.3491  155.5066 H   0  0  0  0  0  0  0  0  0  0  0  0  # atno 8008 bound_to 7997
  155.9169  140.1060  157.1258 H   0  0  0  0  0  0  0  0  0  0  0  0  # atno 8009 bound_to 7997
  154.4064  140.1257  156.4616 H   0  0  0  0  0  0  0  0  0  0  0  0  # atno 8010 bound_to 7997
  140.3844  144.1937  150.6130 H   0  0  0  0  0  0  0  0  0  0  0  0  # atno 10167 bound_to 10162
  157.1398  131.0537  151.2332 H   0  0  0  0  0  0  0  0  0  0  0  0  # atno 10718 bound_to 10713
  154.6811  135.5249  153.8265 H   0  0  0  0  0  0  0  0  0  0  0  0  # atno 10763 bound_to 10752
  153.0566  135.6553  154.0573 H   0  0  0  0  0  0  0  0  0  0  0  0  # atno 10764 bound_to 10752
  154.0460  135.2973  155.3327 H   0  0  0  0  0  0  0  0  0  0  0  0  # atno 10765 bound_to 10752
  140.7473  134.3447  157.5134 H   0  0  0  0  0  0  0  0  0  0  0  0  # atno 11005 bound_to 11000
  144.7895  140.6004  143.6551 LP  0  0  0  0  0  0  0  0  0  0  0  0  # atno 17320 bound_to 7965
  145.4840  139.1493  143.3746 LP  0  0  0  0  0  0  0  0  0  0  0  0  # atno 17321 bound_to 7965
  140.4905  143.2349  151.8826 LP  0  0  0  0  0  0  0  0  0  0  0  0  # atno 17342 bound_to 10162
  139.4793  144.5171  151.8852 LP  0  0  0  0  0  0  0  0  0  0  0  0  # atno 17343 bound_to 10162
  157.4317  130.7494  149.6996 LP  0  0  0  0  0  0  0  0  0  0  0  0  # atno 17370 bound_to 10713
  155.9791  130.4044  150.3609 LP  0  0  0  0  0  0  0  0  0  0  0  0  # atno 17371 bound_to 10713
  139.8794  134.9119  156.3048 LP  0  0  0  0  0  0  0  0  0  0  0  0  # atno 17394 bound_to 11000
  140.9783  133.7283  156.0634 LP  0  0  0  0  0  0  0  0  0  0  0  0  # atno 17395 bound_to 11000

$$$$
