AV-unprocessed.smi:1631|AV-procd|sdf|6527|dock2
  -GOLD-   22720 7203D 1   1.00000     0.00000
 Structure written by MMmdl.
 38 39  0  0  0  0  0  0  0  0  1 V2000
  147.6503  141.2711  154.2489 C   0  0  0  0  0  0  0  0  0  0  0  0
  148.9921  140.7151  154.6422 C   0  0  0  0  0  0  0  0  0  0  0  0
  149.7748  141.5028  155.3027 N   0  0  0  0  0  0  0  0  0  0  0  0
  151.0220  141.0885  155.7278 N   0  0  0  0  0  0  0  0  0  0  0  0
  151.7538  142.0892  156.5166 C   0  0  0  0  0  0  0  0  0  0  0  0
  151.0329  142.4531  157.8380 C   0  0  1  0  0  0  0  0  0  0  0  0
  149.8878  141.6335  157.9490 O   0  0  0  0  0  0  0  0  0  0  0  0
  151.9331  142.3322  159.0709 C   0  0  0  0  0  0  0  0  0  0  0  0
  152.5313  141.0769  159.3295 C   0  0  0  0  0  0  0  0  0  0  0  0
  153.3936  140.8961  160.4244 C   0  0  0  0  0  0  0  0  0  0  0  0
  153.6642  141.9733  161.2828 C   0  0  0  0  0  0  0  0  0  0  0  0
  153.0649  143.2236  161.0485 C   0  0  0  0  0  0  0  0  0  0  0  0
  152.1919  143.4221  159.9521 C   0  0  0  0  0  0  0  0  0  0  0  0
  151.5487  144.7964  159.7604 C   0  0  0  0  0  0  0  0  0  0  0  0
  151.9558  145.6682  160.6837 F   0  0  0  0  0  0  0  0  0  0  0  0
  151.8693  145.2968  158.5689 F   0  0  0  0  0  0  0  0  0  0  0  0
  150.2225  144.6998  159.8586 F   0  0  0  0  0  0  0  0  0  0  0  0
  151.5625  139.8642  155.4689 C   0  0  0  0  0  0  0  0  0  0  0  0
  152.6899  139.5438  155.8485 O   0  0  0  0  0  0  0  0  0  0  0  0
  150.6711  138.9761  154.7195 C   0  0  0  0  0  0  0  0  0  0  0  0
  151.1903  137.6752  154.4450 C   0  0  0  0  0  0  0  0  0  0  0  0
  151.6048  136.6136  154.2416 N   0  0  0  0  0  0  0  0  0  0  0  0
  149.4335  139.3621  154.3201 C   0  0  0  0  0  0  0  0  0  0  0  0
  148.4681  138.4768  153.5443 C   0  0  0  0  0  0  0  0  0  0  0  0
  147.5029  141.2046  153.1708 H   0  0  0  0  0  0  0  0  0  0  0  0
  147.5467  142.3202  154.5305 H   0  0  0  0  0  0  0  0  0  0  0  0
  146.8463  140.7193  154.7362 H   0  0  0  0  0  0  0  0  0  0  0  0
  152.7622  141.7296  156.7305 H   0  0  0  0  0  0  0  0  0  0  0  0
  151.9023  142.9870  155.9136 H   0  0  0  0  0  0  0  0  0  0  0  0
  150.6572  143.4672  157.7341 H   0  0  0  0  0  0  0  0  0  0  0  0
  150.1506  140.7339  157.8275 H   0  0  0  0  0  0  0  0  0  0  0  0
  152.3358  140.2399  158.6755 H   0  0  0  0  0  0  0  0  0  0  0  0
  153.8471  139.9323  160.6036 H   0  0  0  0  0  0  0  0  0  0  0  0
  154.3264  141.8401  162.1255 H   0  0  0  0  0  0  0  0  0  0  0  0
  153.2855  144.0305  161.7306 H   0  0  0  0  0  0  0  0  0  0  0  0
  148.8469  137.4627  153.4207 H   0  0  0  0  0  0  0  0  0  0  0  0
  148.2916  138.8870  152.5495 H   0  0  0  0  0  0  0  0  0  0  0  0
  147.5108  138.4039  154.0612 H   0  0  0  0  0  0  0  0  0  0  0  0
  1  2  1  0  0  0  0
  1 25  1  0  0  0  0
  1 26  1  0  0  0  0
  1 27  1  0  0  0  0
  2 23  1  0  0  0  0
  2  3  2  0  0  0  0
  3  4  1  0  0  0  0
  4  5  1  0  0  0  0
  4 18  1  0  0  0  0
  5  6  1  0  0  0  0
  5 28  1  0  0  0  0
  5 29  1  0  0  0  0
  6  7  1  0  0  0  0
  6  8  1  0  0  0  0
  6 30  1  0  0  0  0
  7 31  1  0  0  0  0
  8 13  1  0  0  0  0
  8  9  2  0  0  0  0
  9 10  1  0  0  0  0
  9 32  1  0  0  0  0
 10 11  2  0  0  0  0
 10 33  1  0  0  0  0
 11 12  1  0  0  0  0
 11 34  1  0  0  0  0
 12 13  2  0  0  0  0
 12 35  1  0  0  0  0
 13 14  1  0  0  0  0
 14 15  1  0  0  0  0
 14 16  1  0  0  0  0
 14 17  1  0  0  0  0
 18 19  2  0  0  0  0
 18 20  1  0  0  0  0
 20 21  1  0  0  0  0
 20 23  2  0  0  0  0
 21 22  3  0  0  0  0
 23 24  1  0  0  0  0
 24 36  1  0  0  0  0
 24 37  1  0  0  0  0
 24 38  1  0  0  0  0
M  END
> <s_m_source_file>
AV-unprocessed.smi

> <i_m_source_file_index>
1631

> <i_lp_mmshare_version>
43012

> <i_f3d_flags>
0

> <s_epik_input>
TiNDYyhjMVtDSDNdKWMoPU8pbihuYzFbQ0gzXSlbQ0gyXVtDQEhdKFtPSF0pYzJbY0hdW2NIXVtjSF1bY0hdYzJDKEYpKEYpRg==

> <s_epik_cmdline>
J2VwaWtfcHl0aG9uJywgJy1waCcsICc3LjAnLCAnLXRuJywgJzgnLCAnLW1hJywgJzIwMCcsICctbWV0YWxfYmluZGluZycsICctaW1hZScsICc8aW5maWxlLm1hZT4nLCAnLW9tYWUnLCAnPG91dGZpbGUubWFlPic=

> <r_lp_tautomer_probability>
1

> <r_epik_Ionization_Penalty>
7.1854e-08

> <r_epik_Ionization_Penalty_Charging>
1.40848e-10

> <r_epik_Ionization_Penalty_Neutral>
7.17131e-08

> <r_epik_State_Penalty>
-0

> <r_epik_Charging_Adjusted_Penalty>
1.40848e-10

> <i_epik_Tot_Q>
0

> <i_epik_Tot_abs_Q>
0

> <r_epik_Metal_State_Penalty>
-0

> <b_epik_Metal_Only>
0

> <s_lp_Force_Field>
OPLS_2005

> <r_lp_Energy>
27.8833

> <b_lp_Chiralities_Consistent>
1

> <s_lp_Variant>
AV-unprocessed.smi:1631-2

> <Gold.Version>
5.8.1

> <Gold.Id.Protein>
6NUR|6NUR_protein|mol2

> <Gold.PLP.Fitness>
54.8710

> <Gold.PLP.PLP>
-50.3854

> <Gold.PLP.part.hbond>
-2.1450

> <Gold.PLP.part.metal>
0.0000

> <Gold.PLP.part.buried>
-5.8467

> <Gold.PLP.part.nonpolar>
-43.1308

> <Gold.PLP.part.repulsive>
0.8576

> <Gold.PLP.ligand.clash>
1.4769

> <Gold.PLP.ligand.torsion>
0.7696

> <Gold.PLP.Chemscore.Hbond>
2.0000

> <Gold.PLP.Chemscore.CHOScore>
0.0000

> <Gold.PLP.Chemscore.Metal>
0.0000

> <Gold.Chemscore.Hbonds>
donor molecule, donor type, donor heavy atom, donor atom, acceptor molecule, acceptor atom, score
      P1  H  7997  8009       L1    19  1.00
      P1  H 10752 10765       L1    22  1.00

> <Gold.PLP.Chemscore.Internal.Correction>
1.5017

> <Gold.Rescore>
     Score         DG    S(hbond)    S(metal)    S(lipo)     H(rot)  DE(clash)    DE(int)     intcor
     15.93     -20.90       1.99        0.00     121.23       2.11       3.30       1.68       ----

> <Gold.Chemscore.Fitness>
15.9287

> <Gold.Chemscore.DG>
-20.9002

> <Gold.Chemscore.ZeroCoef>
-5.4800

> <Gold.Chemscore.Hbond>
1.9893

> <Gold.Chemscore.Metal>
0.0000

> <Gold.Chemscore.Lipo>
121.2277

> <Gold.Chemscore.Internal_Hbond>
0.0000

> <Gold.Chemscore.DEClash>
3.2952

> <Gold.Chemscore.DEInternal>
1.6763

> <Gold.Chemscore.Rot>
2.1124

> <Gold.Chemscore.Internal.Correction>
   9.000000E+99

> <Gold.Chemscore.Hbonds>
donor molecule, donor type, donor heavy atom, donor atom, acceptor molecule, acceptor atom, score
      P1  H  7997  8009       L1    19  1.00
      P1  H 10752 10765       L1    22  0.95

> <Gold.Chemscore.Hbond.Weighted>
-6.6443

> <Gold.Chemscore.Metal.Weighted>
-0.0000

> <Gold.Chemscore.Lipo.Weighted>
-14.1836

> <Gold.Chemscore.Internal_Hbond.Weighted>
0.0000

> <Gold.Chemscore.DEClash.Weighted>
3.2952

> <Gold.Chemscore.DEInternal.Weighted>
1.6763

> <Gold.Chemscore.Rot.Weighted>
5.4078

> <Gold.Chemscore.Internal.Correction.Weighted>
   9.000000E+99

> <Gold.Protein.RotatedTorsions>
[ 6907 6896 6895 6894 ] final -117.65 input  -60.11 | X-H torsion
[ 7974 7965 7964 7962 ] final    6.95 input  175.53 | X-H torsion
[ 8008 7997 7996 7995 ] final -156.30 input   59.86 | X-H torsion
[ 10167 10162 10161 10158 ] final   71.75 input  -65.29 | X-H torsion
[ 10718 10713 10712 10709 ] final   -3.90 input   66.30 | X-H torsion
[ 10763 10752 10751 10750 ] final -178.98 input  -60.55 | X-H torsion
[ 11005 11000 10999 10996 ] final  168.49 input  -57.11 | X-H torsion

> <Gold.Protein.ActiveResidues>
 VAL166  LYS551  ARG553  GLY616  TRP617  ASP618  TYR619  PRO620  LYS621  CYS622 
 ASP623  PHE694  ASN695  SER759  ASP760  ASP761  ALA762  ILE779  LEU786  VAL792 
 PHE793  MET794  SER795  GLU796  ALA797  LYS798  CYS799  TRP800  GLU811  SER814 

> <Gold.Protein.RotatedAtoms>
  150.8154  133.8346  159.3162 H   0  0  0  0  0  0  0  0  0  0  0  0  # atno 6907 bound_to 6896
  151.6120  135.1037  160.0092 H   0  0  0  0  0  0  0  0  0  0  0  0  # atno 6908 bound_to 6896
  152.4245  133.7132  159.6547 H   0  0  0  0  0  0  0  0  0  0  0  0  # atno 6909 bound_to 6896
  146.2431  140.0157  142.8402 H   0  0  0  0  0  0  0  0  0  0  0  0  # atno 7974 bound_to 7965
  155.7151  140.0783  157.2355 H   0  0  0  0  0  0  0  0  0  0  0  0  # atno 8008 bound_to 7997
  154.4053  140.1623  156.2393 H   0  0  0  0  0  0  0  0  0  0  0  0  # atno 8009 bound_to 7997
  155.9248  140.3395  155.6204 H   0  0  0  0  0  0  0  0  0  0  0  0  # atno 8010 bound_to 7997
  140.0427  144.5376  150.7422 H   0  0  0  0  0  0  0  0  0  0  0  0  # atno 10167 bound_to 10162
  156.7692  130.5294  149.5770 H   0  0  0  0  0  0  0  0  0  0  0  0  # atno 10718 bound_to 10713
  154.5408  135.2806  155.1097 H   0  0  0  0  0  0  0  0  0  0  0  0  # atno 10763 bound_to 10752
  154.2580  135.6327  153.5268 H   0  0  0  0  0  0  0  0  0  0  0  0  # atno 10764 bound_to 10752
  152.9978  135.5598  154.5947 H   0  0  0  0  0  0  0  0  0  0  0  0  # atno 10765 bound_to 10752
  140.2878  134.7698  157.3812 H   0  0  0  0  0  0  0  0  0  0  0  0  # atno 11005 bound_to 11000
  145.1287  140.9505  143.4557 LP  0  0  0  0  0  0  0  0  0  0  0  0  # atno 17320 bound_to 7965
  145.0409  139.3261  143.5977 LP  0  0  0  0  0  0  0  0  0  0  0  0  # atno 17321 bound_to 7965
  140.7253  143.2629  151.4142 LP  0  0  0  0  0  0  0  0  0  0  0  0  # atno 17342 bound_to 10162
  139.6003  144.1309  152.2191 LP  0  0  0  0  0  0  0  0  0  0  0  0  # atno 17343 bound_to 10162
  156.1289  130.6163  151.0304 LP  0  0  0  0  0  0  0  0  0  0  0  0  # atno 17370 bound_to 10713
  157.6699  131.0864  150.7639 LP  0  0  0  0  0  0  0  0  0  0  0  0  # atno 17371 bound_to 10713
  140.1224  134.5202  155.8173 LP  0  0  0  0  0  0  0  0  0  0  0  0  # atno 17394 bound_to 11000
  141.2152  133.6761  156.6889 LP  0  0  0  0  0  0  0  0  0  0  0  0  # atno 17395 bound_to 11000

$$$$
