AV-unprocessed.smi:892|AV-procd|sdf|4065|dock3
  -GOLD-   22720 1553D 1   1.00000     0.00000
 Structure written by MMmdl.
 36 37  0  0  0  0  0  0  0  0  1 V2000
  150.4240  134.6401  155.0041 C   0  0  0  0  0  0  0  0  0  0  0  0
  150.7319  135.9987  154.5851 N   0  0  0  0  0  0  0  0  0  0  0  0
  151.5686  136.8184  155.2385 C   0  0  0  0  0  0  0  0  0  0  0  0
  152.1709  136.4941  156.2619 O   0  0  0  0  0  0  0  0  0  0  0  0
  151.7586  138.2172  154.6489 C   0  0  0  0  0  0  0  0  0  0  0  0
  151.4570  139.2651  155.6723 C   0  0  0  0  0  0  0  0  0  0  0  0
  150.2099  139.5249  156.0477 N   0  0  0  0  0  0  0  0  0  0  0  0
  150.3633  140.5431  156.9991 O   0  0  0  0  0  0  0  0  0  0  0  0
  151.6964  140.7714  157.0868 C   0  0  0  0  0  0  0  0  0  0  0  0
  152.1951  141.8217  158.0297 C   0  0  0  0  0  0  0  0  0  0  0  0
  151.9407  141.4160  159.4975 C   0  0  0  0  0  0  0  0  0  0  0  0
  152.7998  142.2000  160.5041 C   0  0  0  0  0  0  0  0  0  0  0  0
  152.2104  143.5417  160.9740 C   0  0  0  0  0  0  0  0  0  0  0  0
  151.4995  144.3935  159.9075 C   0  0  0  0  0  0  0  0  0  0  0  0
  152.1437  144.3768  158.5120 C   0  0  0  0  0  0  0  0  0  0  0  0
  151.6487  143.2092  157.6405 C   0  0  0  0  0  0  0  0  0  0  0  0
  152.4269  140.0003  156.2847 N   0  0  0  0  0  0  0  0  0  0  0  0
  149.7413  134.1775  154.2914 H   0  0  0  0  0  0  0  0  0  0  0  0
  149.9473  134.6364  155.9851 H   0  0  0  0  0  0  0  0  0  0  0  0
  151.3287  134.0328  155.0535 H   0  0  0  0  0  0  0  0  0  0  0  0
  150.2750  136.3411  153.7520 H   0  0  0  0  0  0  0  0  0  0  0  0
  152.7843  138.3297  154.2946 H   0  0  0  0  0  0  0  0  0  0  0  0
  151.1088  138.3516  153.7831 H   0  0  0  0  0  0  0  0  0  0  0  0
  153.2764  141.8559  157.8876 H   0  0  0  0  0  0  0  0  0  0  0  0
  150.8810  141.4740  159.7491 H   0  0  0  0  0  0  0  0  0  0  0  0
  152.2118  140.3644  159.6024 H   0  0  0  0  0  0  0  0  0  0  0  0
  152.9620  141.5808  161.3873 H   0  0  0  0  0  0  0  0  0  0  0  0
  153.7935  142.3636  160.0859 H   0  0  0  0  0  0  0  0  0  0  0  0
  151.5055  143.3580  161.7857 H   0  0  0  0  0  0  0  0  0  0  0  0
  153.0173  144.1269  161.4164 H   0  0  0  0  0  0  0  0  0  0  0  0
  150.4566  144.0844  159.8282 H   0  0  0  0  0  0  0  0  0  0  0  0
  151.4652  145.4216  160.2699 H   0  0  0  0  0  0  0  0  0  0  0  0
  151.8685  145.3028  158.0058 H   0  0  0  0  0  0  0  0  0  0  0  0
  153.2320  144.3873  158.5798 H   0  0  0  0  0  0  0  0  0  0  0  0
  151.9377  143.4112  156.6081 H   0  0  0  0  0  0  0  0  0  0  0  0
  150.5580  143.1939  157.6414 H   0  0  0  0  0  0  0  0  0  0  0  0
  1  2  1  0  0  0  0
  1 18  1  0  0  0  0
  1 19  1  0  0  0  0
  1 20  1  0  0  0  0
  2  3  1  0  0  0  0
  2 21  1  0  0  0  0
  3  4  2  0  0  0  0
  3  5  1  0  0  0  0
  5  6  1  0  0  0  0
  5 22  1  0  0  0  0
  5 23  1  0  0  0  0
  6 17  1  0  0  0  0
  6  7  2  0  0  0  0
  7  8  1  0  0  0  0
  8  9  1  0  0  0  0
  9 10  1  0  0  0  0
  9 17  2  0  0  0  0
 10 16  1  0  0  0  0
 10 11  1  0  0  0  0
 10 24  1  0  0  0  0
 11 12  1  0  0  0  0
 11 25  1  0  0  0  0
 11 26  1  0  0  0  0
 12 13  1  0  0  0  0
 12 27  1  0  0  0  0
 12 28  1  0  0  0  0
 13 14  1  0  0  0  0
 13 29  1  0  0  0  0
 13 30  1  0  0  0  0
 14 15  1  0  0  0  0
 14 31  1  0  0  0  0
 14 32  1  0  0  0  0
 15 16  1  0  0  0  0
 15 33  1  0  0  0  0
 15 34  1  0  0  0  0
 16 35  1  0  0  0  0
 16 36  1  0  0  0  0
M  END
> <s_m_source_file>
AV-unprocessed.smi

> <i_m_source_file_index>
892

> <i_lp_mmshare_version>
43012

> <i_f3d_flags>
0

> <s_epik_input>
W0NIM11bTkhdQyg9TylbQ0gyXWMxbm9jKG4xKVtDSF0yW0NIMl1bQ0gyXVtDSDJdW0NIMl1bQ0gyXVtDSDJdMg==

> <s_epik_cmdline>
J2VwaWtfcHl0aG9uJywgJy1waCcsICc3LjAnLCAnLXRuJywgJzgnLCAnLW1hJywgJzIwMCcsICctbWV0YWxfYmluZGluZycsICctaW1hZScsICc8aW5maWxlLm1hZT4nLCAnLW9tYWUnLCAnPG91dGZpbGUubWFlPic=

> <r_lp_tautomer_probability>
1

> <r_epik_Ionization_Penalty>
1.02916e-07

> <r_epik_Ionization_Penalty_Charging>
0

> <r_epik_Ionization_Penalty_Neutral>
1.02916e-07

> <r_epik_State_Penalty>
-0

> <r_epik_Charging_Adjusted_Penalty>
0

> <i_epik_Tot_Q>
0

> <i_epik_Tot_abs_Q>
0

> <r_epik_Metal_State_Penalty>
-0

> <b_epik_Metal_Only>
0

> <s_lp_Force_Field>
OPLS_2005

> <r_lp_Energy>
13.6586

> <b_lp_Chiralities_Consistent>
1

> <s_lp_Variant>
AV-unprocessed.smi:892-1

> <Gold.Version>
5.8.1

> <Gold.Id.Protein>
6NUR|6NUR_protein|mol2

> <Gold.PLP.Fitness>
45.2512

> <Gold.PLP.PLP>
-37.2666

> <Gold.PLP.part.hbond>
-4.0000

> <Gold.PLP.part.metal>
0.0000

> <Gold.PLP.part.buried>
-3.3606

> <Gold.PLP.part.nonpolar>
-29.4065

> <Gold.PLP.part.repulsive>
0.1187

> <Gold.PLP.ligand.clash>
0.0000

> <Gold.PLP.ligand.torsion>
0.2323

> <Gold.PLP.Chemscore.Hbond>
2.7900

> <Gold.PLP.Chemscore.CHOScore>
0.0000

> <Gold.PLP.Chemscore.Metal>
0.0000

> <Gold.Chemscore.Hbonds>
donor molecule, donor type, donor heavy atom, donor atom, acceptor molecule, acceptor atom, score
      L1  H     2    21       P1  7948  0.25
      P1  H  7997  8009       L1    17  1.00
      P1  H 10752 10763       L1     4  0.30

> <Gold.PLP.Chemscore.Internal.Correction>
0.0791

> <Gold.Rescore>
     Score         DG    S(hbond)    S(metal)    S(lipo)     H(rot)  DE(clash)    DE(int)     intcor
     17.13     -17.95       1.75        0.00      91.81       1.60       0.44       0.39       ----

> <Gold.Chemscore.Fitness>
17.1289

> <Gold.Chemscore.DG>
-17.9511

> <Gold.Chemscore.ZeroCoef>
-5.4800

> <Gold.Chemscore.Hbond>
1.7453

> <Gold.Chemscore.Metal>
0.0000

> <Gold.Chemscore.Lipo>
91.8099

> <Gold.Chemscore.Internal_Hbond>
0.0000

> <Gold.Chemscore.DEClash>
0.4362

> <Gold.Chemscore.DEInternal>
0.3860

> <Gold.Chemscore.Rot>
1.6016

> <Gold.Chemscore.Internal.Correction>
   9.000000E+99

> <Gold.Chemscore.Hbonds>
donor molecule, donor type, donor heavy atom, donor atom, acceptor molecule, acceptor atom, score
      L1  H     2    21       P1  7948  0.02
      P1  H  7997  8009       L1    17  0.98

> <Gold.Chemscore.Hbond.Weighted>
-5.8294

> <Gold.Chemscore.Metal.Weighted>
-0.0000

> <Gold.Chemscore.Lipo.Weighted>
-10.7418

> <Gold.Chemscore.Internal_Hbond.Weighted>
0.0000

> <Gold.Chemscore.DEClash.Weighted>
0.4362

> <Gold.Chemscore.DEInternal.Weighted>
0.3860

> <Gold.Chemscore.Rot.Weighted>
4.1000

> <Gold.Chemscore.Internal.Correction.Weighted>
   9.000000E+99

> <Gold.Protein.RotatedTorsions>
[ 6907 6896 6895 6894 ] final  161.97 input  -60.11 | X-H torsion
[ 7974 7965 7964 7962 ] final  147.62 input  175.53 | X-H torsion
[ 8008 7997 7996 7995 ] final -156.88 input   59.86 | X-H torsion
[ 10167 10162 10161 10158 ] final -121.09 input  -65.29 | X-H torsion
[ 10718 10713 10712 10709 ] final  115.86 input   66.30 | X-H torsion
[ 10763 10752 10751 10750 ] final   98.53 input  -60.55 | X-H torsion
[ 11005 11000 10999 10996 ] final   62.91 input  -57.11 | X-H torsion

> <Gold.Protein.ActiveResidues>
 VAL166  LYS551  ARG553  GLY616  TRP617  ASP618  TYR619  PRO620  LYS621  CYS622 
 ASP623  PHE694  ASN695  SER759  ASP760  ASP761  ALA762  ILE779  LEU786  VAL792 
 PHE793  MET794  SER795  GLU796  ALA797  LYS798  CYS799  TRP800  GLU811  SER814 

> <Gold.Protein.RotatedAtoms>
  151.9476  133.3656  159.3987 H   0  0  0  0  0  0  0  0  0  0  0  0  # atno 6907 bound_to 6896
  150.6986  134.4374  159.5285 H   0  0  0  0  0  0  0  0  0  0  0  0  # atno 6908 bound_to 6896
  152.2041  134.8561  160.0555 H   0  0  0  0  0  0  0  0  0  0  0  0  # atno 6909 bound_to 6896
  144.8577  139.6052  143.5945 H   0  0  0  0  0  0  0  0  0  0  0  0  # atno 7974 bound_to 7965
  155.7240  140.0793  157.2318 H   0  0  0  0  0  0  0  0  0  0  0  0  # atno 8008 bound_to 7997
  154.4041  140.1607  156.2488 H   0  0  0  0  0  0  0  0  0  0  0  0  # atno 8009 bound_to 7997
  155.9170  140.3400  155.6146 H   0  0  0  0  0  0  0  0  0  0  0  0  # atno 8010 bound_to 7997
  140.0288  143.5269  152.2186 H   0  0  0  0  0  0  0  0  0  0  0  0  # atno 10167 bound_to 10162
  157.6196  131.1018  150.7391 H   0  0  0  0  0  0  0  0  0  0  0  0  # atno 10718 bound_to 10713
  153.2901  135.4145  155.1159 H   0  0  0  0  0  0  0  0  0  0  0  0  # atno 10763 bound_to 10752
  154.8518  135.3516  154.5992 H   0  0  0  0  0  0  0  0  0  0  0  0  # atno 10764 bound_to 10752
  153.6415  135.7056  153.5298 H   0  0  0  0  0  0  0  0  0  0  0  0  # atno 10765 bound_to 10752
  140.0060  134.6369  155.9855 H   0  0  0  0  0  0  0  0  0  0  0  0  # atno 11005 bound_to 11000
  146.2836  139.6943  142.9211 LP  0  0  0  0  0  0  0  0  0  0  0  0  # atno 17320 bound_to 7965
  145.4374  141.0420  143.2877 LP  0  0  0  0  0  0  0  0  0  0  0  0  # atno 17321 bound_to 7965
  139.6090  144.7604  151.2995 LP  0  0  0  0  0  0  0  0  0  0  0  0  # atno 17342 bound_to 10162
  140.7311  143.6861  150.7960 LP  0  0  0  0  0  0  0  0  0  0  0  0  # atno 17343 bound_to 10162
  156.7751  130.4841  149.5411 LP  0  0  0  0  0  0  0  0  0  0  0  0  # atno 17370 bound_to 10713
  156.1335  130.6194  151.0366 LP  0  0  0  0  0  0  0  0  0  0  0  0  # atno 17371 bound_to 10713
  141.1677  133.6537  156.4538 LP  0  0  0  0  0  0  0  0  0  0  0  0  # atno 17394 bound_to 11000
  140.4641  134.6814  157.5099 LP  0  0  0  0  0  0  0  0  0  0  0  0  # atno 17395 bound_to 11000

$$$$
