AV-unprocessed.smi:525|AV-procd|sdf|2809|dock5
  -GOLD-   2262023283D 1   1.00000     0.00000
 Structure written by MMmdl.
 44 46  0  0  0  0  0  0  0  0  2 V2000
  151.5143  137.0822  155.7801 C   0  0  0  0  0  0  0  0  0  0  0  0
  152.6279  137.8790  155.4162 O   0  0  0  0  0  0  0  0  0  0  0  0
  152.3263  139.2634  155.4123 C   0  0  0  0  0  0  0  0  0  0  0  0
  152.0451  139.7106  156.8518 C   0  0  0  0  0  0  0  0  0  0  0  0
  151.5157  141.0792  156.9047 N   0  0  0  0  0  0  0  0  0  0  0  0
  150.6694  141.7330  156.0611 C   0  0  0  0  0  0  0  0  0  0  0  0
  149.9476  141.0687  154.5925 S   0  0  0  0  0  0  0  0  0  0  0  0
  148.3189  140.4002  155.0681 C   0  0  2  0  0  0  0  0  0  0  0  0
  147.9122  139.1518  154.2739 C   0  0  0  0  0  0  0  0  0  0  0  0
  148.6221  138.8397  153.1852 N   0  0  0  0  0  0  0  0  0  0  0  0
  146.9526  138.4763  154.6391 O   0  0  0  0  0  0  0  0  0  0  0  0
  147.2368  141.4723  154.9660 C   0  0  0  0  0  0  0  0  0  0  0  0
  146.4906  141.8729  156.0987 C   0  0  0  0  0  0  0  0  0  0  0  0
  145.4877  142.8541  155.9801 C   0  0  0  0  0  0  0  0  0  0  0  0
  145.2233  143.4442  154.7298 C   0  0  0  0  0  0  0  0  0  0  0  0
  145.9644  143.0542  153.5984 C   0  0  0  0  0  0  0  0  0  0  0  0
  146.9671  142.0727  153.7164 C   0  0  0  0  0  0  0  0  0  0  0  0
  150.4907  142.9910  156.5517 N   0  3  0  0  0  0  0  0  0  0  0  0
  151.2402  143.1489  157.7178 C   0  0  0  0  0  0  0  0  0  0  0  0
  151.3877  144.2427  158.5649 C   0  0  0  0  0  0  0  0  0  0  0  0
  152.2395  144.0717  159.6760 C   0  0  0  0  0  0  0  0  0  0  0  0
  152.9053  142.8509  159.9104 C   0  0  0  0  0  0  0  0  0  0  0  0
  152.7476  141.7482  159.0450 C   0  0  0  0  0  0  0  0  0  0  0  0
  151.9029  141.9252  157.9497 C   0  0  0  0  0  0  0  0  0  0  0  0
  151.7984  136.0300  155.7726 H   0  0  0  0  0  0  0  0  0  0  0  0
  150.6900  137.2131  155.0778 H   0  0  0  0  0  0  0  0  0  0  0  0
  151.1628  137.3287  156.7829 H   0  0  0  0  0  0  0  0  0  0  0  0
  153.1639  139.8268  154.9980 H   0  0  0  0  0  0  0  0  0  0  0  0
  151.4551  139.4545  154.7831 H   0  0  0  0  0  0  0  0  0  0  0  0
  151.3125  139.0494  157.3156 H   0  0  0  0  0  0  0  0  0  0  0  0
  152.9446  139.6539  157.4653 H   0  0  0  0  0  0  0  0  0  0  0  0
  148.4106  140.0982  156.1125 H   0  0  0  0  0  0  0  0  0  0  0  0
  148.3789  138.0254  152.6400 H   0  0  0  0  0  0  0  0  0  0  0  0
  149.4000  139.4221  152.9105 H   0  0  0  0  0  0  0  0  0  0  0  0
  146.6827  141.4298  157.0649 H   0  0  0  0  0  0  0  0  0  0  0  0
  144.9213  143.1547  156.8493 H   0  0  0  0  0  0  0  0  0  0  0  0
  144.4543  144.1973  154.6389 H   0  0  0  0  0  0  0  0  0  0  0  0
  145.7643  143.5094  152.6395 H   0  0  0  0  0  0  0  0  0  0  0  0
  147.5300  141.7830  152.8411 H   0  0  0  0  0  0  0  0  0  0  0  0
  150.8800  145.1794  158.3862 H   0  0  0  0  0  0  0  0  0  0  0  0
  152.3861  144.8937  160.3618 H   0  0  0  0  0  0  0  0  0  0  0  0
  153.5512  142.7584  160.7715 H   0  0  0  0  0  0  0  0  0  0  0  0
  153.2639  140.8181  159.2318 H   0  0  0  0  0  0  0  0  0  0  0  0
  149.9079  143.6918  156.1122 H   0  0  0  0  0  0  0  0  0  0  0  0
  1  2  1  0  0  0  0
  1 25  1  0  0  0  0
  1 26  1  0  0  0  0
  1 27  1  0  0  0  0
  2  3  1  0  0  0  0
  3  4  1  0  0  0  0
  3 28  1  0  0  0  0
  3 29  1  0  0  0  0
  4  5  1  0  0  0  0
  4 30  1  0  0  0  0
  4 31  1  0  0  0  0
  5 24  1  0  0  0  0
  5  6  1  0  0  0  0
  6  7  1  0  0  0  0
  6 18  2  0  0  0  0
  7  8  1  0  0  0  0
  8  9  1  0  0  0  0
  8 12  1  0  0  0  0
  8 32  1  0  0  0  0
  9 10  1  0  0  0  0
  9 11  2  0  0  0  0
 10 33  1  0  0  0  0
 10 34  1  0  0  0  0
 12 17  1  0  0  0  0
 12 13  2  0  0  0  0
 13 14  1  0  0  0  0
 13 35  1  0  0  0  0
 14 15  2  0  0  0  0
 14 36  1  0  0  0  0
 15 16  1  0  0  0  0
 15 37  1  0  0  0  0
 16 17  2  0  0  0  0
 16 38  1  0  0  0  0
 17 39  1  0  0  0  0
 18 19  1  0  0  0  0
 18 44  1  0  0  0  0
 19 24  2  0  0  0  0
 19 20  1  0  0  0  0
 20 21  2  0  0  0  0
 20 40  1  0  0  0  0
 21 22  1  0  0  0  0
 21 41  1  0  0  0  0
 22 23  2  0  0  0  0
 22 42  1  0  0  0  0
 23 24  1  0  0  0  0
 23 43  1  0  0  0  0
M  CHG  1  18   1
M  END
> <s_m_source_file>
AV-unprocessed.smi

> <i_m_source_file_index>
525

> <i_lp_mmshare_version>
43012

> <i_f3d_flags>
0

> <s_epik_input>
W2NIXTFbY0hdW2NIXVtjSF1jKGMxMiluKFtDSDJdW0NIMl1PW0NIM10pYyhuMilTW0NASF0oQyg9TylbTkgyXSljM1tjSF1bY0hdW2NIXVtjSF1bY0hdMw==

> <s_epik_cmdline>
J2VwaWtfcHl0aG9uJywgJy1waCcsICc3LjAnLCAnLXRuJywgJzgnLCAnLW1hJywgJzIwMCcsICctbWV0YWxfYmluZGluZycsICctaW1hZScsICc8aW5maWxlLm1hZT4nLCAnLW9tYWUnLCAnPG91dGZpbGUubWFlPic=

> <r_epik_Ionization_Penalty>
1.29485

> <r_epik_Ionization_Penalty_Charging>
1.29485

> <r_epik_Ionization_Penalty_Neutral>
1.02965e-06

> <r_epik_State_Penalty>
1.36828

> <r_epik_Charging_Adjusted_Penalty>
2.66313

> <i_epik_Tot_Q>
1

> <i_epik_Tot_abs_Q>
1

> <r_epik_Metal_State_Penalty>
1.43316

> <b_epik_Metal_Only>
0

> <s_lp_Force_Field>
OPLS_2005

> <r_lp_Energy>
14.4741

> <b_lp_Chiralities_Consistent>
1

> <s_lp_Variant>
AV-unprocessed.smi:525-3

> <Gold.Version>
5.8.1

> <Gold.Id.Protein>
6NUR|6NUR_protein|mol2

> <Gold.PLP.Fitness>
57.8886

> <Gold.PLP.PLP>
-50.0870

> <Gold.PLP.part.hbond>
-3.7179

> <Gold.PLP.part.metal>
0.0000

> <Gold.PLP.part.buried>
-6.4758

> <Gold.PLP.part.nonpolar>
-40.4046

> <Gold.PLP.part.repulsive>
0.2105

> <Gold.PLP.ligand.clash>
0.0000

> <Gold.PLP.ligand.torsion>
1.3436

> <Gold.PLP.Chemscore.Hbond>
3.4240

> <Gold.PLP.Chemscore.CHOScore>
0.0000

> <Gold.PLP.Chemscore.Metal>
0.0000

> <Gold.Chemscore.Hbonds>
donor molecule, donor type, donor heavy atom, donor atom, acceptor molecule, acceptor atom, score
      L1  H    10    33       P1  7948  0.94
      L1  H    10    34       P1  7957  0.43
      L1  H    18    44       P1  8028  1.92

> <Gold.PLP.Chemscore.Internal.Correction>
0.2168

> <Gold.Rescore>
     Score         DG    S(hbond)    S(metal)    S(lipo)     H(rot)  DE(clash)    DE(int)     intcor
     18.57     -22.04       2.47        0.00     126.07       2.51       1.25       2.23       ----

> <Gold.Chemscore.Fitness>
18.5699

> <Gold.Chemscore.DG>
-22.0440

> <Gold.Chemscore.ZeroCoef>
-5.4800

> <Gold.Chemscore.Hbond>
2.4703

> <Gold.Chemscore.Metal>
0.0000

> <Gold.Chemscore.Lipo>
126.0712

> <Gold.Chemscore.Internal_Hbond>
0.0000

> <Gold.Chemscore.DEClash>
1.2450

> <Gold.Chemscore.DEInternal>
2.2291

> <Gold.Chemscore.Rot>
2.5145

> <Gold.Chemscore.Internal.Correction>
   9.000000E+99

> <Gold.Chemscore.Hbonds>
donor molecule, donor type, donor heavy atom, donor atom, acceptor molecule, acceptor atom, score
      L1  H    10    33       P1  7948  0.87
      L1  H    10    34       P1  7957  0.44
      L1  H    18    44       P1  8028  0.91

> <Gold.Chemscore.Hbond.Weighted>
-8.2508

> <Gold.Chemscore.Metal.Weighted>
-0.0000

> <Gold.Chemscore.Lipo.Weighted>
-14.7503

> <Gold.Chemscore.Internal_Hbond.Weighted>
0.0000

> <Gold.Chemscore.DEClash.Weighted>
1.2450

> <Gold.Chemscore.DEInternal.Weighted>
2.2291

> <Gold.Chemscore.Rot.Weighted>
6.4372

> <Gold.Chemscore.Internal.Correction.Weighted>
   9.000000E+99

> <Gold.Protein.RotatedTorsions>
[ 6907 6896 6895 6894 ] final   43.59 input  -60.11 | X-H torsion
[ 7974 7965 7964 7962 ] final   78.23 input  175.53 | X-H torsion
[ 8008 7997 7996 7995 ] final   38.73 input   59.86 | X-H torsion
[ 10167 10162 10161 10158 ] final -175.10 input  -65.29 | X-H torsion
[ 10718 10713 10712 10709 ] final   50.99 input   66.30 | X-H torsion
[ 10763 10752 10751 10750 ] final -163.13 input  -60.55 | X-H torsion
[ 11005 11000 10999 10996 ] final   35.51 input  -57.11 | X-H torsion

> <Gold.Protein.ActiveResidues>
 VAL166  LYS551  ARG553  GLY616  TRP617  ASP618  TYR619  PRO620  LYS621  CYS622 
 ASP623  PHE694  ASN695  SER759  ASP760  ASP761  ALA762  ILE779  LEU786  VAL792 
 PHE793  MET794  SER795  GLU796  ALA797  LYS798  CYS799  TRP800  GLU811  SER814 

> <Gold.Protein.RotatedAtoms>
  152.2221  134.8402  160.0484 H   0  0  0  0  0  0  0  0  0  0  0  0  # atno 6907 bound_to 6896
  151.9182  133.3573  159.3896 H   0  0  0  0  0  0  0  0  0  0  0  0  # atno 6908 bound_to 6896
  150.7003  134.4587  159.5414 H   0  0  0  0  0  0  0  0  0  0  0  0  # atno 6909 bound_to 6896
  145.6798  139.2520  143.1821 H   0  0  0  0  0  0  0  0  0  0  0  0  # atno 7974 bound_to 7965
  155.2249  140.3334  155.4310 H   0  0  0  0  0  0  0  0  0  0  0  0  # atno 8008 bound_to 7997
  156.2318  140.1854  156.7269 H   0  0  0  0  0  0  0  0  0  0  0  0  # atno 8009 bound_to 7997
  154.5991  140.0626  156.9329 H   0  0  0  0  0  0  0  0  0  0  0  0  # atno 8010 bound_to 7997
  139.5599  144.1897  152.1221 H   0  0  0  0  0  0  0  0  0  0  0  0  # atno 10167 bound_to 10162
  157.4937  130.8393  149.8233 H   0  0  0  0  0  0  0  0  0  0  0  0  # atno 10718 bound_to 10713
  154.7151  135.3014  154.9136 H   0  0  0  0  0  0  0  0  0  0  0  0  # atno 10763 bound_to 10752
  154.0026  135.6705  153.4764 H   0  0  0  0  0  0  0  0  0  0  0  0  # atno 10764 bound_to 10752
  153.0787  135.5021  154.8373 H   0  0  0  0  0  0  0  0  0  0  0  0  # atno 10765 bound_to 10752
  140.2420  134.3404  155.7922 H   0  0  0  0  0  0  0  0  0  0  0  0  # atno 11005 bound_to 11000
  146.0974  140.7584  142.9565 LP  0  0  0  0  0  0  0  0  0  0  0  0  # atno 17320 bound_to 7965
  144.7030  140.3733  143.7141 LP  0  0  0  0  0  0  0  0  0  0  0  0  # atno 17321 bound_to 7965
  140.1408  144.5204  150.6745 LP  0  0  0  0  0  0  0  0  0  0  0  0  # atno 17342 bound_to 10162
  140.6877  143.2359  151.5216 LP  0  0  0  0  0  0  0  0  0  0  0  0  # atno 17343 bound_to 10162
  156.0188  130.3803  150.2025 LP  0  0  0  0  0  0  0  0  0  0  0  0  # atno 17370 bound_to 10713
  157.0214  130.9980  151.3338 LP  0  0  0  0  0  0  0  0  0  0  0  0  # atno 17371 bound_to 10713
  141.2209  133.7304  156.8900 LP  0  0  0  0  0  0  0  0  0  0  0  0  # atno 17394 bound_to 11000
  140.1644  134.9143  157.2755 LP  0  0  0  0  0  0  0  0  0  0  0  0  # atno 17395 bound_to 11000

$$$$
