AV-unprocessed.smi:73|AV-procd|sdf|760|dock5
  -GOLD-   2262017 93D 1   1.00000     0.00000
 Structure written by MMmdl.
 35 36  0  0  0  0  0  0  0  0  2 V2000
  151.2819  140.7975  157.4045 C   0  0  0  0  0  0  0  0  0  0  0  0
  151.3439  139.2854  157.1390 C   0  0  0  0  0  0  0  0  0  0  0  0
  150.0620  138.5999  156.8803 N   0  0  0  0  0  0  0  0  0  0  0  0
  149.1765  138.6584  158.0593 C   0  0  0  0  0  0  0  0  0  0  0  0
  148.9676  137.3545  158.7593 C   0  0  0  0  0  0  0  0  0  0  0  0
  149.4627  136.1632  158.4153 N   0  0  0  0  0  0  0  0  0  0  0  0
  148.9983  135.2775  159.3621 N   0  0  0  0  0  0  0  0  0  0  0  0
  148.2655  136.0031  160.2102 C   0  0  0  0  0  0  0  0  0  0  0  0
  147.5372  135.5244  161.4186 C   0  0  0  0  0  0  0  0  0  0  0  0
  148.2135  137.3214  159.8891 O   0  0  0  0  0  0  0  0  0  0  0  0
  149.3951  139.1793  155.6948 C   0  0  1  0  0  0  0  0  0  0  0  0
  150.1248  138.9616  154.3462 C   0  0  0  0  0  0  0  0  0  0  0  0
  149.1055  138.7515  153.3004 N   0  3  0  0  0  0  0  0  0  0  0  0
  147.7801  138.9307  153.9082 C   0  0  0  0  0  0  0  0  0  0  0  0
  147.9804  138.6350  155.3918 C   0  0  1  0  0  0  0  0  0  0  0  0
  147.9053  137.2318  155.5761 O   0  0  0  0  0  0  0  0  0  0  0  0
  147.2081  139.1157  155.9930 H   0  0  0  0  0  0  0  0  0  0  0  0
  152.2309  141.1488  157.8097 H   0  0  0  0  0  0  0  0  0  0  0  0
  150.5047  141.0423  158.1290 H   0  0  0  0  0  0  0  0  0  0  0  0
  151.1017  141.3704  156.4963 H   0  0  0  0  0  0  0  0  0  0  0  0
  152.0418  139.0884  156.3236 H   0  0  0  0  0  0  0  0  0  0  0  0
  151.8116  138.8629  158.0265 H   0  0  0  0  0  0  0  0  0  0  0  0
  149.5483  139.3938  158.7745 H   0  0  0  0  0  0  0  0  0  0  0  0
  148.1795  138.9936  157.7823 H   0  0  0  0  0  0  0  0  0  0  0  0
  147.5566  134.4354  161.4671 H   0  0  0  0  0  0  0  0  0  0  0  0
  146.4987  135.8547  161.3850 H   0  0  0  0  0  0  0  0  0  0  0  0
  148.0053  135.9239  162.3184 H   0  0  0  0  0  0  0  0  0  0  0  0
  149.2995  140.2572  155.8381 H   0  0  0  0  0  0  0  0  0  0  0  0
  150.7596  139.8114  154.0935 H   0  0  0  0  0  0  0  0  0  0  0  0
  150.7524  138.0700  154.3721 H   0  0  0  0  0  0  0  0  0  0  0  0
  149.2359  139.3857  152.5253 H   0  0  0  0  0  0  0  0  0  0  0  0
  147.4839  139.9723  153.7766 H   0  0  0  0  0  0  0  0  0  0  0  0
  147.0232  138.3045  153.4339 H   0  0  0  0  0  0  0  0  0  0  0  0
  148.2314  136.8078  154.7961 H   0  0  0  0  0  0  0  0  0  0  0  0
  149.1817  137.7977  152.9768 H   0  0  0  0  0  0  0  0  0  0  0  0
  1  2  1  0  0  0  0
  1 18  1  0  0  0  0
  1 19  1  0  0  0  0
  1 20  1  0  0  0  0
  2  3  1  0  0  0  0
  2 21  1  0  0  0  0
  2 22  1  0  0  0  0
  3  4  1  0  0  0  0
  3 11  1  0  0  0  0
  4  5  1  0  0  0  0
  4 23  1  0  0  0  0
  4 24  1  0  0  0  0
  5 10  1  0  0  0  0
  5  6  2  0  0  0  0
  6  7  1  0  0  0  0
  7  8  2  0  0  0  0
  8  9  1  0  0  0  0
  8 10  1  0  0  0  0
  9 25  1  0  0  0  0
  9 26  1  0  0  0  0
  9 27  1  0  0  0  0
 11 15  1  0  0  0  0
 11 12  1  0  0  0  0
 11 28  1  0  0  0  0
 12 13  1  0  0  0  0
 12 29  1  0  0  0  0
 12 30  1  0  0  0  0
 13 14  1  0  0  0  0
 13 31  1  0  0  0  0
 13 35  1  0  0  0  0
 14 15  1  0  0  0  0
 14 32  1  0  0  0  0
 14 33  1  0  0  0  0
 15 17  1  0  0  0  0
 15 16  1  0  0  0  0
 16 34  1  0  0  0  0
M  CHG  1  13   1
M  END
> <s_m_source_file>
AV-unprocessed.smi

> <i_m_source_file_index>
73

> <i_lp_mmshare_version>
43012

> <i_f3d_flags>
0

> <s_epik_input>
W09IXVtDQEBIXTFbQ0gyXVtOSF1bQ0gyXVtDQEhdMU4oW0NIMl1bQ0gzXSlbQ0gyXWMybm5jKG8yKVtDSDNd

> <s_epik_cmdline>
J2VwaWtfcHl0aG9uJywgJy1waCcsICc3LjAnLCAnLXRuJywgJzgnLCAnLW1hJywgJzIwMCcsICctbWV0YWxfYmluZGluZycsICctaW1hZScsICc8aW5maWxlLm1hZT4nLCAnLW9tYWUnLCAnPG91dGZpbGUubWFlPic=

> <r_lp_tautomer_probability>
1

> <r_epik_Ionization_Penalty>
0.00160433

> <r_epik_Ionization_Penalty_Charging>
0.000122314

> <r_epik_Ionization_Penalty_Neutral>
0.00148202

> <r_epik_State_Penalty>
-0

> <r_epik_Charging_Adjusted_Penalty>
0.000122314

> <i_epik_Tot_Q>
1

> <i_epik_Tot_abs_Q>
1

> <r_epik_Metal_State_Penalty>
-0

> <b_epik_Metal_Only>
0

> <s_lp_Force_Field>
OPLS_2005

> <r_lp_Energy>
44.8836

> <b_lp_Chiralities_Consistent>
1

> <s_lp_Variant>
AV-unprocessed.smi:73-2

> <Gold.Version>
5.8.1

> <Gold.Id.Protein>
6NUR|6NUR_protein|mol2

> <Gold.PLP.Fitness>
32.4174

> <Gold.PLP.PLP>
-20.7038

> <Gold.PLP.part.hbond>
-5.0736

> <Gold.PLP.part.metal>
0.0000

> <Gold.PLP.part.buried>
-3.6287

> <Gold.PLP.part.nonpolar>
-13.1410

> <Gold.PLP.part.repulsive>
0.0958

> <Gold.PLP.ligand.clash>
0.0000

> <Gold.PLP.ligand.torsion>
0.7859

> <Gold.PLP.Chemscore.Hbond>
4.4213

> <Gold.PLP.Chemscore.CHOScore>
0.0000

> <Gold.PLP.Chemscore.Metal>
0.0000

> <Gold.Chemscore.Hbonds>
donor molecule, donor type, donor heavy atom, donor atom, acceptor molecule, acceptor atom, score
      L1  H    13    31       P1  7957  1.00
      L1  H    13    35       P1  7948  2.00
      P1  H  6896  6909       L1     7  0.45
      P1  H  6931  6943       L1    10  0.10
      P1  H  6934  6947       L1    10  0.30

> <Gold.PLP.Chemscore.Internal.Correction>
0.0214

> <Gold.Rescore>
     Score         DG    S(hbond)    S(metal)    S(lipo)     H(rot)  DE(clash)    DE(int)     intcor
     11.07     -11.87       2.50        0.00      38.08       2.51       0.00       0.79       ----

> <Gold.Chemscore.Fitness>
11.0749

> <Gold.Chemscore.DG>
-11.8730

> <Gold.Chemscore.ZeroCoef>
-5.4800

> <Gold.Chemscore.Hbond>
2.5001

> <Gold.Chemscore.Metal>
0.0000

> <Gold.Chemscore.Lipo>
38.0843

> <Gold.Chemscore.Internal_Hbond>
0.0000

> <Gold.Chemscore.DEClash>
0.0038

> <Gold.Chemscore.DEInternal>
0.7943

> <Gold.Chemscore.Rot>
2.5051

> <Gold.Chemscore.Internal.Correction>
   9.000000E+99

> <Gold.Chemscore.Hbonds>
donor molecule, donor type, donor heavy atom, donor atom, acceptor molecule, acceptor atom, score
      L1  H    13    31       P1  7957  0.95
      L1  H    13    35       P1  7948  0.98
      P1  H  6896  6909       L1     7  0.02
      P1  H  6931  6943       L1    10  0.03
      P1  H  6934  6947       L1    10  0.30

> <Gold.Chemscore.Hbond.Weighted>
-8.3502

> <Gold.Chemscore.Metal.Weighted>
-0.0000

> <Gold.Chemscore.Lipo.Weighted>
-4.4559

> <Gold.Chemscore.Internal_Hbond.Weighted>
0.0000

> <Gold.Chemscore.DEClash.Weighted>
0.0038

> <Gold.Chemscore.DEInternal.Weighted>
0.7943

> <Gold.Chemscore.Rot.Weighted>
6.4131

> <Gold.Chemscore.Internal.Correction.Weighted>
   9.000000E+99

> <Gold.Protein.RotatedTorsions>
[ 6907 6896 6895 6894 ] final   62.15 input  -60.11 | X-H torsion
[ 7974 7965 7964 7962 ] final   50.82 input  175.53 | X-H torsion
[ 8008 7997 7996 7995 ] final   50.67 input   59.86 | X-H torsion
[ 10167 10162 10161 10158 ] final  -93.88 input  -65.29 | X-H torsion
[ 10718 10713 10712 10709 ] final   75.41 input   66.30 | X-H torsion
[ 10763 10752 10751 10750 ] final -154.65 input  -60.55 | X-H torsion
[ 11005 11000 10999 10996 ] final -145.97 input  -57.11 | X-H torsion

> <Gold.Protein.ActiveResidues>
 VAL166  LYS551  ARG553  GLY616  TRP617  ASP618  TYR619  PRO620  LYS621  CYS622 
 ASP623  PHE694  ASN695  SER759  ASP760  ASP761  ALA762  ILE779  LEU786  VAL792 
 PHE793  MET794  SER795  GLU796  ALA797  LYS798  CYS799  TRP800  GLU811  SER814 

> <Gold.Protein.RotatedAtoms>
  152.4148  134.6061  160.0012 H   0  0  0  0  0  0  0  0  0  0  0  0  # atno 6907 bound_to 6896
  151.6228  133.3332  159.3099 H   0  0  0  0  0  0  0  0  0  0  0  0  # atno 6908 bound_to 6896
  150.8037  134.7187  159.6690 H   0  0  0  0  0  0  0  0  0  0  0  0  # atno 6909 bound_to 6896
  145.9974  139.4403  143.0036 H   0  0  0  0  0  0  0  0  0  0  0  0  # atno 7974 bound_to 7965
  155.4227  140.3447  155.4273 H   0  0  0  0  0  0  0  0  0  0  0  0  # atno 8008 bound_to 7997
  156.1384  140.1534  156.8990 H   0  0  0  0  0  0  0  0  0  0  0  0  # atno 8009 bound_to 7997
  154.4950  140.0830  156.7658 H   0  0  0  0  0  0  0  0  0  0  0  0  # atno 8010 bound_to 7997
  140.3201  143.3054  152.0055 H   0  0  0  0  0  0  0  0  0  0  0  0  # atno 10167 bound_to 10162
  157.6633  130.9725  150.1349 H   0  0  0  0  0  0  0  0  0  0  0  0  # atno 10718 bound_to 10713
  154.7844  135.3185  154.7919 H   0  0  0  0  0  0  0  0  0  0  0  0  # atno 10763 bound_to 10752
  153.8623  135.6852  153.4786 H   0  0  0  0  0  0  0  0  0  0  0  0  # atno 10764 bound_to 10752
  153.1490  135.4707  154.9547 H   0  0  0  0  0  0  0  0  0  0  0  0  # atno 10765 bound_to 10752
  140.7868  134.3015  157.5027 H   0  0  0  0  0  0  0  0  0  0  0  0  # atno 11005 bound_to 11000
  145.7539  140.9962  143.1236 LP  0  0  0  0  0  0  0  0  0  0  0  0  # atno 17320 bound_to 7965
  144.6908  139.9248  143.7469 LP  0  0  0  0  0  0  0  0  0  0  0  0  # atno 17321 bound_to 7965
  139.4876  144.6317  151.7056 LP  0  0  0  0  0  0  0  0  0  0  0  0  # atno 17342 bound_to 10162
  140.5491  144.0455  150.6119 LP  0  0  0  0  0  0  0  0  0  0  0  0  # atno 17343 bound_to 10162
  156.2187  130.3672  149.8582 LP  0  0  0  0  0  0  0  0  0  0  0  0  # atno 17370 bound_to 10713
  156.6441  130.8717  151.3519 LP  0  0  0  0  0  0  0  0  0  0  0  0  # atno 17371 bound_to 10713
  139.8736  134.9351  156.3625 LP  0  0  0  0  0  0  0  0  0  0  0  0  # atno 17394 bound_to 11000
  140.9428  133.7503  156.0169 LP  0  0  0  0  0  0  0  0  0  0  0  0  # atno 17395 bound_to 11000

$$$$
