AV-unprocessed.smi:53|AV-procd|sdf|520|dock1
  -GOLD-   2262016393D 1   1.00000     0.00000
 Structure written by MMmdl.
 30 31  0  0  0  0  0  0  0  0  1 V2000
  150.6122  143.4649  157.4146 N   0  0  0  0  0  0  0  0  0  0  0  0
  150.8702  142.1991  157.0567 C   0  0  0  0  0  0  0  0  0  0  0  0
  150.2871  141.6467  155.8550 C   0  0  0  0  0  0  0  0  0  0  0  0
  150.5914  140.3628  155.5638 C   0  0  0  0  0  0  0  0  0  0  0  0
  151.4133  139.5946  156.3770 N   0  0  0  0  0  0  0  0  0  0  0  0
  151.7474  138.1629  156.0217 C   0  0  1  0  0  0  0  0  0  0  0  0
  151.1593  137.3168  156.9665 O   0  0  0  0  0  0  0  0  0  0  0  0
  150.4585  136.2625  156.3140 C   0  0  1  0  0  0  0  0  0  0  0  0
  149.3105  135.7683  157.2078 C   0  0  0  0  0  0  0  0  0  0  0  0
  149.6890  135.8379  158.5660 O   0  0  0  0  0  0  0  0  0  0  0  0
  149.9858  136.9268  155.0201 C   0  0  2  0  0  0  0  0  0  0  0  0
  149.6371  135.9961  154.0125 O   0  0  0  0  0  0  0  0  0  0  0  0
  151.1707  137.8081  154.6413 C   0  0  2  0  0  0  0  0  0  0  0  0
  152.1259  137.1248  153.8492 O   0  0  0  0  0  0  0  0  0  0  0  0
  151.9879  140.1705  157.5353 C   0  0  0  0  0  0  0  0  0  0  0  0
  152.7548  139.5410  158.2630 O   0  0  0  0  0  0  0  0  0  0  0  0
  151.6663  141.4715  157.8161 N   0  0  0  0  0  0  0  0  0  0  0  0
  152.8321  138.0623  156.0948 H   0  0  0  0  0  0  0  0  0  0  0  0
  151.1564  135.4562  156.0790 H   0  0  0  0  0  0  0  0  0  0  0  0
  149.1233  137.5613  155.2289 H   0  0  0  0  0  0  0  0  0  0  0  0
  150.8550  138.7030  154.1028 H   0  0  0  0  0  0  0  0  0  0  0  0
  151.0236  143.8492  158.2528 H   0  0  0  0  0  0  0  0  0  0  0  0
  150.0082  144.0348  156.8400 H   0  0  0  0  0  0  0  0  0  0  0  0
  149.6359  142.2060  155.1986 H   0  0  0  0  0  0  0  0  0  0  0  0
  150.1719  139.9395  154.6631 H   0  0  0  0  0  0  0  0  0  0  0  0
  148.3982  136.3405  157.0364 H   0  0  0  0  0  0  0  0  0  0  0  0
  149.0849  134.7249  156.9858 H   0  0  0  0  0  0  0  0  0  0  0  0
  150.3319  136.5235  158.6645 H   0  0  0  0  0  0  0  0  0  0  0  0
  149.5986  136.4508  153.1847 H   0  0  0  0  0  0  0  0  0  0  0  0
  151.7098  136.8559  153.0445 H   0  0  0  0  0  0  0  0  0  0  0  0
  1  2  1  0  0  0  0
  1 22  1  0  0  0  0
  1 23  1  0  0  0  0
  2 17  2  0  0  0  0
  2  3  1  0  0  0  0
  3  4  2  0  0  0  0
  3 24  1  0  0  0  0
  4  5  1  0  0  0  0
  4 25  1  0  0  0  0
  5  6  1  0  0  0  0
  5 15  1  0  0  0  0
  6 18  1  0  0  0  0
  6 13  1  0  0  0  0
  6  7  1  0  0  0  0
  7  8  1  0  0  0  0
  8 19  1  0  0  0  0
  8  9  1  0  0  0  0
  8 11  1  0  0  0  0
  9 10  1  0  0  0  0
  9 26  1  0  0  0  0
  9 27  1  0  0  0  0
 10 28  1  0  0  0  0
 11 20  1  0  0  0  0
 11 12  1  0  0  0  0
 11 13  1  0  0  0  0
 12 29  1  0  0  0  0
 13 21  1  0  0  0  0
 13 14  1  0  0  0  0
 14 30  1  0  0  0  0
 15 16  2  0  0  0  0
 15 17  1  0  0  0  0
M  END
> <s_m_source_file>
AV-unprocessed.smi

> <i_m_source_file_index>
53

> <i_lp_mmshare_version>
43012

> <i_f3d_flags>
0

> <s_epik_input>
W05IMl1jMVtjSF1bY0hdbihjKD1PKW4xKVtDQEBIXTJPW0NASF0oW0NIMl1bT0hdKVtDQEBIXShbT0hdKVtDQEBIXTJbT0hd

> <s_epik_cmdline>
J2VwaWtfcHl0aG9uJywgJy1waCcsICc3LjAnLCAnLXRuJywgJzgnLCAnLW1hJywgJzIwMCcsICctbWV0YWxfYmluZGluZycsICctaW1hZScsICc8aW5maWxlLm1hZT4nLCAnLW9tYWUnLCAnPG91dGZpbGUubWFlPic=

> <r_lp_tautomer_probability>
0.99996

> <r_epik_Ionization_Penalty>
0.00069087

> <r_epik_Ionization_Penalty_Charging>
2.61959e-08

> <r_epik_Ionization_Penalty_Neutral>
0.000690844

> <r_epik_State_Penalty>
1.15523e-05

> <r_epik_Charging_Adjusted_Penalty>
1.15785e-05

> <i_epik_Tot_Q>
0

> <i_epik_Tot_abs_Q>
0

> <r_epik_Metal_State_Penalty>
-0

> <b_epik_Metal_Only>
0

> <s_epik_Chemistry_Notes>
This compound contains an acetal/aminal-like group ( X-CH(R)-Y where X, Y are N, S, or O) that may be acid/base labile, releasing an aldehyde.

> <s_lp_Force_Field>
OPLS_2005

> <r_lp_Energy>
33.3856

> <b_lp_Chiralities_Consistent>
1

> <s_lp_Variant>
AV-unprocessed.smi:53-8

> <Gold.Version>
5.8.1

> <Gold.Id.Protein>
6NUR|6NUR_protein|mol2

> <Gold.PLP.Fitness>
42.1983

> <Gold.PLP.PLP>
-25.0973

> <Gold.PLP.part.hbond>
-6.0000

> <Gold.PLP.part.metal>
0.0000

> <Gold.PLP.part.buried>
-2.6853

> <Gold.PLP.part.nonpolar>
-15.7134

> <Gold.PLP.part.repulsive>
0.0100

> <Gold.PLP.ligand.clash>
0.0000

> <Gold.PLP.ligand.torsion>
0.4458

> <Gold.PLP.Chemscore.Hbond>
5.9920

> <Gold.PLP.Chemscore.CHOScore>
0.0000

> <Gold.PLP.Chemscore.Metal>
0.0000

> <Gold.Chemscore.Hbonds>
donor molecule, donor type, donor heavy atom, donor atom, acceptor molecule, acceptor atom, score
      L1  H     1    23       P1  8028  1.00
      L1  H    12    29       P1  7948  0.60
      L1  H    14    30       P1  7949  1.00
      P1  H  6896  6909       L1    10  0.55
      P1  H  7997  8009       L1    16  0.26
      P1  H 10752 10763       L1    14  0.80

> <Gold.PLP.Chemscore.Internal.Correction>
0.0166

> <Gold.Rescore>
     Score         DG    S(hbond)    S(metal)    S(lipo)     H(rot)  DE(clash)    DE(int)     intcor
     11.17     -13.02       4.09        0.00      28.84       3.71       0.31       1.54       ----

> <Gold.Chemscore.Fitness>
11.1727

> <Gold.Chemscore.DG>
-13.0204

> <Gold.Chemscore.ZeroCoef>
-5.4800

> <Gold.Chemscore.Hbond>
4.0904

> <Gold.Chemscore.Metal>
0.0000

> <Gold.Chemscore.Lipo>
28.8439

> <Gold.Chemscore.Internal_Hbond>
0.0000

> <Gold.Chemscore.DEClash>
0.3104

> <Gold.Chemscore.DEInternal>
1.5373

> <Gold.Chemscore.Rot>
3.7095

> <Gold.Chemscore.Internal.Correction>
   9.000000E+99

> <Gold.Chemscore.Hbonds>
donor molecule, donor type, donor heavy atom, donor atom, acceptor molecule, acceptor atom, score
      L1  H     1    23       P1  8028  0.97
      L1  H    12    29       P1  7948  0.23
      L1  H    14    30       P1  7949  0.99
      P1  H  6896  6909       L1    10  0.03
      P1  H  7997  8009       L1    16  0.05
      P1  H 10752 10763       L1    14  0.11

> <Gold.Chemscore.Hbond.Weighted>
-13.6620

> <Gold.Chemscore.Metal.Weighted>
-0.0000

> <Gold.Chemscore.Lipo.Weighted>
-3.3747

> <Gold.Chemscore.Internal_Hbond.Weighted>
0.0000

> <Gold.Chemscore.DEClash.Weighted>
0.3104

> <Gold.Chemscore.DEInternal.Weighted>
1.5373

> <Gold.Chemscore.Rot.Weighted>
9.4964

> <Gold.Chemscore.Internal.Correction.Weighted>
   9.000000E+99

> <Gold.Protein.RotatedTorsions>
[ 6907 6896 6895 6894 ] final   56.10 input  -60.11 | X-H torsion
[ 7974 7965 7964 7962 ] final   52.68 input  175.53 | X-H torsion
[ 8008 7997 7996 7995 ] final  143.32 input   59.86 | X-H torsion
[ 10167 10162 10161 10158 ] final   89.61 input  -65.29 | X-H torsion
[ 10718 10713 10712 10709 ] final    5.11 input   66.30 | X-H torsion
[ 10763 10752 10751 10750 ] final   29.44 input  -60.55 | X-H torsion
[ 11005 11000 10999 10996 ] final  105.95 input  -57.11 | X-H torsion

> <Gold.Protein.ActiveResidues>
 VAL166  LYS551  ARG553  GLY616  TRP617  ASP618  TYR619  PRO620  LYS621  CYS622 
 ASP623  PHE694  ASN695  SER759  ASP760  ASP761  ALA762  ILE779  LEU786  VAL792 
 PHE793  MET794  SER795  GLU796  ALA797  LYS798  CYS799  TRP800  GLU811  SER814 

> <Gold.Protein.RotatedAtoms>
  152.3604  134.6881  160.0208 H   0  0  0  0  0  0  0  0  0  0  0  0  # atno 6907 bound_to 6896
  151.7206  133.3309  159.3322 H   0  0  0  0  0  0  0  0  0  0  0  0  # atno 6908 bound_to 6896
  150.7600  134.6386  159.6269 H   0  0  0  0  0  0  0  0  0  0  0  0  # atno 6909 bound_to 6896
  145.9789  139.4222  143.0144 H   0  0  0  0  0  0  0  0  0  0  0  0  # atno 7974 bound_to 7965
  156.2932  140.2265  156.4872 H   0  0  0  0  0  0  0  0  0  0  0  0  # atno 8008 bound_to 7997
  154.7802  140.0461  157.1142 H   0  0  0  0  0  0  0  0  0  0  0  0  # atno 8009 bound_to 7997
  154.9768  140.3073  155.4967 H   0  0  0  0  0  0  0  0  0  0  0  0  # atno 8010 bound_to 7997
  139.8555  144.6571  150.9119 H   0  0  0  0  0  0  0  0  0  0  0  0  # atno 10167 bound_to 10162
  156.9026  130.5727  149.5648 H   0  0  0  0  0  0  0  0  0  0  0  0  # atno 10718 bound_to 10713
  153.0430  135.6489  154.0891 H   0  0  0  0  0  0  0  0  0  0  0  0  # atno 10763 bound_to 10752
  154.0594  135.2889  155.3329 H   0  0  0  0  0  0  0  0  0  0  0  0  # atno 10764 bound_to 10752
  154.6667  135.5371  153.8152 H   0  0  0  0  0  0  0  0  0  0  0  0  # atno 10765 bound_to 10752
  139.8808  134.9353  156.5591 H   0  0  0  0  0  0  0  0  0  0  0  0  # atno 11005 bound_to 11000
  145.7799  140.9861  143.1105 LP  0  0  0  0  0  0  0  0  0  0  0  0  # atno 17320 bound_to 7965
  144.6856  139.9551  143.7479 LP  0  0  0  0  0  0  0  0  0  0  0  0  # atno 17321 bound_to 7965
  140.7782  143.3789  151.1512 LP  0  0  0  0  0  0  0  0  0  0  0  0  # atno 17342 bound_to 10162
  139.7424  143.8904  152.3053 LP  0  0  0  0  0  0  0  0  0  0  0  0  # atno 17343 bound_to 10162
  156.0574  130.5633  150.9122 LP  0  0  0  0  0  0  0  0  0  0  0  0  # atno 17370 bound_to 10713
  157.6017  131.0941  150.8949 LP  0  0  0  0  0  0  0  0  0  0  0  0  # atno 17371 bound_to 10713
  140.8182  133.8374  155.8872 LP  0  0  0  0  0  0  0  0  0  0  0  0  # atno 17394 bound_to 11000
  140.9443  134.1861  157.4775 LP  0  0  0  0  0  0  0  0  0  0  0  0  # atno 17395 bound_to 11000

$$$$
