AV-unprocessed.smi:1523|AV-procd|sdf|6138|dock6
  -GOLD-   22720 6283D 1   1.00000     0.00000
 Structure written by MMmdl.
 37 38  0  0  0  0  0  0  0  0  1 V2000
  152.1774  143.6719  161.9772 C   0  0  0  0  0  0  0  0  0  0  0  0
  151.6890  143.7492  160.5714 C   0  0  0  0  0  0  0  0  0  0  0  0
  151.2399  142.6931  159.8885 N   0  0  0  0  0  0  0  0  0  0  0  0
  150.8389  143.0222  158.5896 C   0  0  0  0  0  0  0  0  0  0  0  0
  150.2993  141.9591  157.6817 C   0  0  0  0  0  0  0  0  0  0  0  0
  151.2057  141.7227  156.4625 C   0  0  0  0  0  0  0  0  0  0  0  0
  151.5517  140.3136  156.3172 N   0  0  0  0  0  0  0  0  0  0  0  0
  151.1756  139.5201  155.2998 C   0  0  0  0  0  0  0  0  0  0  0  0
  150.4792  139.9345  154.3720 O   0  0  0  0  0  0  0  0  0  0  0  0
  151.6210  138.2400  155.3817 N   0  0  0  0  0  0  0  0  0  0  0  0
  152.5303  137.6939  156.4054 C   0  0  0  0  0  0  0  0  0  0  0  0
  151.7260  136.7776  157.3454 C   0  0  0  0  0  0  0  0  0  0  0  0
  151.0246  135.6605  156.5467 C   0  0  0  0  0  0  0  0  0  0  0  0
  150.1675  134.9288  157.3970 O   0  0  0  0  0  0  0  0  0  0  0  0
  150.2230  136.2307  155.3595 C   0  0  0  0  0  0  0  0  0  0  0  0
  151.0973  137.1759  154.5139 C   0  0  0  0  0  0  0  0  0  0  0  0
  150.9936  144.3545  158.2972 C   0  0  0  0  0  0  0  0  0  0  0  0
  151.6515  145.2435  159.6433 S   0  0  0  0  0  0  0  0  0  0  0  0
  151.6462  142.8909  162.5220 H   0  0  0  0  0  0  0  0  0  0  0  0
  152.0143  144.6227  162.4851 H   0  0  0  0  0  0  0  0  0  0  0  0
  153.2438  143.4463  161.9891 H   0  0  0  0  0  0  0  0  0  0  0  0
  150.1803  141.0273  158.2360 H   0  0  0  0  0  0  0  0  0  0  0  0
  149.2994  142.2345  157.3437 H   0  0  0  0  0  0  0  0  0  0  0  0
  150.6945  142.0371  155.5522 H   0  0  0  0  0  0  0  0  0  0  0  0
  152.1109  142.3283  156.5347 H   0  0  0  0  0  0  0  0  0  0  0  0
  152.1195  139.9076  157.0464 H   0  0  0  0  0  0  0  0  0  0  0  0
  153.3169  137.1202  155.9130 H   0  0  0  0  0  0  0  0  0  0  0  0
  153.0534  138.4538  156.9859 H   0  0  0  0  0  0  0  0  0  0  0  0
  152.3843  136.3448  158.0995 H   0  0  0  0  0  0  0  0  0  0  0  0
  150.9864  137.3738  157.8825 H   0  0  0  0  0  0  0  0  0  0  0  0
  151.7800  134.9737  156.1625 H   0  0  0  0  0  0  0  0  0  0  0  0
  149.2793  135.2160  157.2490 H   0  0  0  0  0  0  0  0  0  0  0  0
  149.8396  135.4196  154.7395 H   0  0  0  0  0  0  0  0  0  0  0  0
  149.3535  136.7787  155.7264 H   0  0  0  0  0  0  0  0  0  0  0  0
  150.5195  137.5603  153.6722 H   0  0  0  0  0  0  0  0  0  0  0  0
  151.9291  136.6248  154.0732 H   0  0  0  0  0  0  0  0  0  0  0  0
  150.7598  144.8653  157.3748 H   0  0  0  0  0  0  0  0  0  0  0  0
  1  2  1  0  0  0  0
  1 19  1  0  0  0  0
  1 20  1  0  0  0  0
  1 21  1  0  0  0  0
  2 18  1  0  0  0  0
  2  3  2  0  0  0  0
  3  4  1  0  0  0  0
  4  5  1  0  0  0  0
  4 17  2  0  0  0  0
  5  6  1  0  0  0  0
  5 22  1  0  0  0  0
  5 23  1  0  0  0  0
  6  7  1  0  0  0  0
  6 24  1  0  0  0  0
  6 25  1  0  0  0  0
  7  8  1  0  0  0  0
  7 26  1  0  0  0  0
  8  9  2  0  0  0  0
  8 10  1  0  0  0  0
 10 16  1  0  0  0  0
 10 11  1  0  0  0  0
 11 12  1  0  0  0  0
 11 27  1  0  0  0  0
 11 28  1  0  0  0  0
 12 13  1  0  0  0  0
 12 29  1  0  0  0  0
 12 30  1  0  0  0  0
 13 14  1  0  0  0  0
 13 15  1  0  0  0  0
 13 31  1  0  0  0  0
 14 32  1  0  0  0  0
 15 16  1  0  0  0  0
 15 33  1  0  0  0  0
 15 34  1  0  0  0  0
 16 35  1  0  0  0  0
 16 36  1  0  0  0  0
 17 18  1  0  0  0  0
 17 37  1  0  0  0  0
M  END
> <s_m_source_file>
AV-unprocessed.smi

> <i_m_source_file_index>
1523

> <i_lp_mmshare_version>
43012

> <i_f3d_flags>
0

> <s_epik_input>
W0NIM11jMW5jKFtjSF1zMSlbQ0gyXVtDSDJdW05IXUMoPU8pTjJbQ0gyXVtDSDJdW0NIXShbT0hdKVtDSDJdW0NIMl0y

> <s_epik_cmdline>
J2VwaWtfcHl0aG9uJywgJy1waCcsICc3LjAnLCAnLXRuJywgJzgnLCAnLW1hJywgJzIwMCcsICctbWV0YWxfYmluZGluZycsICctaW1hZScsICc8aW5maWxlLm1hZT4nLCAnLW9tYWUnLCAnPG91dGZpbGUubWFlPic=

> <r_epik_Ionization_Penalty>
0.00204564

> <r_epik_Ionization_Penalty_Charging>
0

> <r_epik_Ionization_Penalty_Neutral>
0.00204564

> <r_epik_State_Penalty>
0.00135655

> <r_epik_Charging_Adjusted_Penalty>
0.00135655

> <i_epik_Tot_Q>
0

> <i_epik_Tot_abs_Q>
0

> <r_epik_Metal_State_Penalty>
-0

> <b_epik_Metal_Only>
0

> <s_lp_Force_Field>
OPLS_2005

> <r_lp_Energy>
24.1717

> <b_lp_Chiralities_Consistent>
1

> <s_lp_Variant>
AV-unprocessed.smi:1523-1

> <Gold.Version>
5.8.1

> <Gold.Id.Protein>
6NUR|6NUR_protein|mol2

> <Gold.PLP.Fitness>
43.8147

> <Gold.PLP.PLP>
-36.7842

> <Gold.PLP.part.hbond>
-2.3084

> <Gold.PLP.part.metal>
0.0000

> <Gold.PLP.part.buried>
-6.7253

> <Gold.PLP.part.nonpolar>
-28.0450

> <Gold.PLP.part.repulsive>
0.2620

> <Gold.PLP.ligand.clash>
0.0000

> <Gold.PLP.ligand.torsion>
0.4405

> <Gold.PLP.Chemscore.Hbond>
1.6560

> <Gold.PLP.Chemscore.CHOScore>
0.9748

> <Gold.PLP.Chemscore.Metal>
0.0000

> <Gold.Chemscore.Hbonds>
donor molecule, donor type, donor heavy atom, donor atom, acceptor molecule, acceptor atom, score
      P1  H  6896  6907       L1    14  0.48
      P1  H  7989  7998       L1     9  1.00
      L1  C    17    37       P1  8028  1.00

> <Gold.PLP.Chemscore.Internal.Correction>
0.0191

> <Gold.Rescore>
     Score         DG    S(hbond)    S(metal)    S(lipo)     H(rot)  DE(clash)    DE(int)     intcor
     15.70     -16.44       1.45        0.00      92.92       1.86       0.22       0.53       ----

> <Gold.Chemscore.Fitness>
15.6997

> <Gold.Chemscore.DG>
-16.4406

> <Gold.Chemscore.ZeroCoef>
-5.4800

> <Gold.Chemscore.Hbond>
1.4527

> <Gold.Chemscore.Metal>
0.0000

> <Gold.Chemscore.Lipo>
92.9205

> <Gold.Chemscore.Internal_Hbond>
0.0000

> <Gold.Chemscore.DEClash>
0.2158

> <Gold.Chemscore.DEInternal>
0.5251

> <Gold.Chemscore.Rot>
1.8607

> <Gold.Chemscore.Internal.Correction>
   9.000000E+99

> <Gold.Chemscore.Hbonds>
donor molecule, donor type, donor heavy atom, donor atom, acceptor molecule, acceptor atom, score
      P1  H  6896  6907       L1    14  0.46
      P1  H  7989  7998       L1     9  0.30

> <Gold.Chemscore.Hbond.Weighted>
-4.8522

> <Gold.Chemscore.Metal.Weighted>
-0.0000

> <Gold.Chemscore.Lipo.Weighted>
-10.8717

> <Gold.Chemscore.Internal_Hbond.Weighted>
0.0000

> <Gold.Chemscore.DEClash.Weighted>
0.2158

> <Gold.Chemscore.DEInternal.Weighted>
0.5251

> <Gold.Chemscore.Rot.Weighted>
4.7633

> <Gold.Chemscore.Internal.Correction.Weighted>
   9.000000E+99

> <Gold.Protein.RotatedTorsions>
[ 6907 6896 6895 6894 ] final  -96.66 input  -60.11 | X-H torsion
[ 7974 7965 7964 7962 ] final -119.44 input  175.53 | X-H torsion
[ 8008 7997 7996 7995 ] final  -40.52 input   59.86 | X-H torsion
[ 10167 10162 10161 10158 ] final   97.21 input  -65.29 | X-H torsion
[ 10718 10713 10712 10709 ] final    2.28 input   66.30 | X-H torsion
[ 10763 10752 10751 10750 ] final   63.08 input  -60.55 | X-H torsion
[ 11005 11000 10999 10996 ] final   33.48 input  -57.11 | X-H torsion

> <Gold.Protein.ActiveResidues>
 VAL166  LYS551  ARG553  GLY616  TRP617  ASP618  TYR619  PRO620  LYS621  CYS622 
 ASP623  PHE694  ASN695  SER759  ASP760  ASP761  ALA762  ILE779  LEU786  VAL792 
 PHE793  MET794  SER795  GLU796  ALA797  LYS798  CYS799  TRP800  GLU811  SER814 

> <Gold.Protein.RotatedAtoms>
  150.6994  134.1469  159.4125 H   0  0  0  0  0  0  0  0  0  0  0  0  # atno 6907 bound_to 6896
  151.9453  135.0192  160.0548 H   0  0  0  0  0  0  0  0  0  0  0  0  # atno 6908 bound_to 6896
  152.2058  133.4839  159.5120 H   0  0  0  0  0  0  0  0  0  0  0  0  # atno 6909 bound_to 6896
  145.0625  140.8300  143.4144 H   0  0  0  0  0  0  0  0  0  0  0  0  # atno 7974 bound_to 7965
  154.4011  140.1523  156.3040 H   0  0  0  0  0  0  0  0  0  0  0  0  # atno 8008 bound_to 7997
  155.8675  140.3450  155.5777 H   0  0  0  0  0  0  0  0  0  0  0  0  # atno 8009 bound_to 7997
  155.7811  140.0843  157.2049 H   0  0  0  0  0  0  0  0  0  0  0  0  # atno 8010 bound_to 7997
  139.7822  144.6884  151.0007 H   0  0  0  0  0  0  0  0  0  0  0  0  # atno 10167 bound_to 10162
  156.8607  130.5586  149.5663 H   0  0  0  0  0  0  0  0  0  0  0  0  # atno 10718 bound_to 10713
  153.0005  135.5442  154.6294 H   0  0  0  0  0  0  0  0  0  0  0  0  # atno 10763 bound_to 10752
  154.5575  135.2831  155.0952 H   0  0  0  0  0  0  0  0  0  0  0  0  # atno 10764 bound_to 10752
  154.2168  135.6457  153.5185 H   0  0  0  0  0  0  0  0  0  0  0  0  # atno 10765 bound_to 10752
  140.2626  134.3174  155.7853 H   0  0  0  0  0  0  0  0  0  0  0  0  # atno 11005 bound_to 11000
  145.1391  139.2583  143.5499 LP  0  0  0  0  0  0  0  0  0  0  0  0  # atno 17320 bound_to 7965
  146.3525  140.1063  142.8606 LP  0  0  0  0  0  0  0  0  0  0  0  0  # atno 17321 bound_to 7965
  140.7818  143.4471  151.0467 LP  0  0  0  0  0  0  0  0  0  0  0  0  # atno 17342 bound_to 10162
  139.8151  143.7897  152.3174 LP  0  0  0  0  0  0  0  0  0  0  0  0  # atno 17343 bound_to 10162
  156.0778  130.5796  150.9507 LP  0  0  0  0  0  0  0  0  0  0  0  0  # atno 17370 bound_to 10713
  157.6252  131.0926  150.8548 LP  0  0  0  0  0  0  0  0  0  0  0  0  # atno 17371 bound_to 10713
  141.2188  133.7419  156.9211 LP  0  0  0  0  0  0  0  0  0  0  0  0  # atno 17394 bound_to 11000
  140.1449  134.9269  157.2517 LP  0  0  0  0  0  0  0  0  0  0  0  0  # atno 17395 bound_to 11000

$$$$
