AV-unprocessed.smi:1920|AV-procd|sdf|7783|dock8
  -GOLD-   22720 9523D 1   1.00000     0.00000
 Structure written by MMmdl.
 36 37  0  0  0  0  0  0  0  0  1 V2000
  152.2709  139.2132  155.9268 C   0  0  0  0  0  0  0  0  0  0  0  0
  150.8400  139.7671  155.7905 C   0  0  2  0  0  0  0  0  0  0  0  0
  150.3770  139.8920  154.3253 C   0  0  0  0  0  0  0  0  0  0  0  0
  149.0329  140.4247  154.2037 N   0  0  0  0  0  0  0  0  0  0  0  0
  147.8794  139.7186  153.8892 C   0  0  0  0  0  0  0  0  0  0  0  0
  146.8479  140.6301  153.8911 C   0  0  0  0  0  0  0  0  0  0  0  0
  147.3400  141.8944  154.2067 N   0  0  0  0  0  0  0  0  0  0  0  0
  148.6399  141.6935  154.3812 C   0  0  0  0  0  0  0  0  0  0  0  0
  150.7410  141.0745  156.4332 N   0  0  0  0  0  0  0  0  0  0  0  0
  151.1363  141.3601  157.6836 C   0  0  0  0  0  0  0  0  0  0  0  0
  151.6337  140.5291  158.4434 O   0  0  0  0  0  0  0  0  0  0  0  0
  150.9399  142.8071  158.1480 C   0  0  0  0  0  0  0  0  0  0  0  0
  152.1434  143.3711  158.9346 C   0  0  1  0  0  0  0  0  0  0  0  0
  151.9155  144.7630  159.4735 C   0  0  0  0  0  0  0  0  0  0  0  0
  152.1348  144.8496  160.7834 C   0  0  0  0  0  0  0  0  0  0  0  0
  152.5523  143.5370  161.3856 C   0  0  0  0  0  0  0  0  0  0  0  0
  152.4827  142.5457  160.2024 C   0  0  0  0  0  0  0  0  0  0  0  0
  152.3517  138.2082  155.5122 H   0  0  0  0  0  0  0  0  0  0  0  0
  152.5740  139.1524  156.9725 H   0  0  0  0  0  0  0  0  0  0  0  0
  152.9911  139.8469  155.4086 H   0  0  0  0  0  0  0  0  0  0  0  0
  150.1593  139.0802  156.2973 H   0  0  0  0  0  0  0  0  0  0  0  0
  151.0505  140.5469  153.7705 H   0  0  0  0  0  0  0  0  0  0  0  0
  150.4107  138.9193  153.8320 H   0  0  0  0  0  0  0  0  0  0  0  0
  147.8884  138.6562  153.6934 H   0  0  0  0  0  0  0  0  0  0  0  0
  145.7976  140.4743  153.6930 H   0  0  0  0  0  0  0  0  0  0  0  0
  149.3229  142.4893  154.6404 H   0  0  0  0  0  0  0  0  0  0  0  0
  150.3435  141.8220  155.8830 H   0  0  0  0  0  0  0  0  0  0  0  0
  150.7341  143.4434  157.2855 H   0  0  0  0  0  0  0  0  0  0  0  0
  150.0473  142.8402  158.7737 H   0  0  0  0  0  0  0  0  0  0  0  0
  153.0208  143.4115  158.2872 H   0  0  0  0  0  0  0  0  0  0  0  0
  151.6221  145.5876  158.8401 H   0  0  0  0  0  0  0  0  0  0  0  0
  152.0436  145.7503  161.3722 H   0  0  0  0  0  0  0  0  0  0  0  0
  153.5633  143.6166  161.7860 H   0  0  0  0  0  0  0  0  0  0  0  0
  151.8772  143.2532  162.1935 H   0  0  0  0  0  0  0  0  0  0  0  0
  151.7158  141.7949  160.3975 H   0  0  0  0  0  0  0  0  0  0  0  0
  153.4253  142.0109  160.0815 H   0  0  0  0  0  0  0  0  0  0  0  0
  1  2  1  0  0  0  0
  1 18  1  0  0  0  0
  1 19  1  0  0  0  0
  1 20  1  0  0  0  0
  2  3  1  0  0  0  0
  2  9  1  0  0  0  0
  2 21  1  0  0  0  0
  3  4  1  0  0  0  0
  3 22  1  0  0  0  0
  3 23  1  0  0  0  0
  4  8  1  0  0  0  0
  4  5  1  0  0  0  0
  5  6  2  0  0  0  0
  5 24  1  0  0  0  0
  6  7  1  0  0  0  0
  6 25  1  0  0  0  0
  7  8  2  0  0  0  0
  8 26  1  0  0  0  0
  9 10  1  0  0  0  0
  9 27  1  0  0  0  0
 10 11  2  0  0  0  0
 10 12  1  0  0  0  0
 12 13  1  0  0  0  0
 12 28  1  0  0  0  0
 12 29  1  0  0  0  0
 13 17  1  0  0  0  0
 13 14  1  0  0  0  0
 13 30  1  0  0  0  0
 14 15  2  0  0  0  0
 14 31  1  0  0  0  0
 15 16  1  0  0  0  0
 15 32  1  0  0  0  0
 16 17  1  0  0  0  0
 16 33  1  0  0  0  0
 16 34  1  0  0  0  0
 17 35  1  0  0  0  0
 17 36  1  0  0  0  0
M  END
> <s_m_source_file>
AV-unprocessed.smi

> <i_m_source_file_index>
1920

> <i_lp_mmshare_version>
43012

> <i_f3d_flags>
0

> <s_epik_input>
W2NIXTFuW2NIXVtjSF1uMVtDSDJdW0NAQEhdKFtDSDNdKVtOSF1DKD1PKVtDSDJdW0NAQEhdMltDSF09W0NIXVtDSDJdW0NIMl0y

> <s_epik_cmdline>
J2VwaWtfcHl0aG9uJywgJy1waCcsICc3LjAnLCAnLXRuJywgJzgnLCAnLW1hJywgJzIwMCcsICctbWV0YWxfYmluZGluZycsICctaW1hZScsICc8aW5maWxlLm1hZT4nLCAnLW9tYWUnLCAnPG91dGZpbGUubWFlPic=

> <r_lp_tautomer_probability>
1

> <r_epik_Ionization_Penalty>
0.635367

> <r_epik_Ionization_Penalty_Charging>
0.635367

> <r_epik_Ionization_Penalty_Neutral>
2.1249e-08

> <r_epik_State_Penalty>
0.65258

> <r_epik_Charging_Adjusted_Penalty>
1.28795

> <i_epik_Tot_Q>
0

> <i_epik_Tot_abs_Q>
0

> <r_epik_Metal_State_Penalty>
0.310403

> <b_epik_Metal_Only>
0

> <s_lp_Force_Field>
OPLS_2005

> <r_lp_Energy>
18.7511

> <b_lp_Chiralities_Consistent>
1

> <s_lp_Variant>
AV-unprocessed.smi:1920-7

> <Gold.Version>
5.8.1

> <Gold.Id.Protein>
6NUR|6NUR_protein|mol2

> <Gold.PLP.Fitness>
43.6577

> <Gold.PLP.PLP>
-38.5545

> <Gold.PLP.part.hbond>
0.0000

> <Gold.PLP.part.metal>
0.0000

> <Gold.PLP.part.buried>
-2.0093

> <Gold.PLP.part.nonpolar>
-37.0494

> <Gold.PLP.part.repulsive>
0.2295

> <Gold.PLP.ligand.clash>
0.0000

> <Gold.PLP.ligand.torsion>
0.4711

> <Gold.PLP.Chemscore.Hbond>
0.0000

> <Gold.PLP.Chemscore.CHOScore>
2.0000

> <Gold.PLP.Chemscore.Metal>
0.0000

> <Gold.Chemscore.Hbonds>
donor molecule, donor type, donor heavy atom, donor atom, acceptor molecule, acceptor atom, score
      L1  C     6    25       P1 10175  1.00
      L1  C     8    26       P1  8028  1.00

> <Gold.PLP.Chemscore.Internal.Correction>
0.0453

> <Gold.Rescore>
     Score         DG    S(hbond)    S(metal)    S(lipo)     H(rot)  DE(clash)    DE(int)     intcor
      9.86     -11.54       0.00        0.00      94.04       1.93       0.04       1.64       ----

> <Gold.Chemscore.Fitness>
9.8609

> <Gold.Chemscore.DG>
-11.5405

> <Gold.Chemscore.ZeroCoef>
-5.4800

> <Gold.Chemscore.Hbond>
0.0000

> <Gold.Chemscore.Metal>
0.0000

> <Gold.Chemscore.Lipo>
94.0423

> <Gold.Chemscore.Internal_Hbond>
0.0000

> <Gold.Chemscore.DEClash>
0.0383

> <Gold.Chemscore.DEInternal>
1.6413

> <Gold.Chemscore.Rot>
1.9306

> <Gold.Chemscore.Internal.Correction>
   9.000000E+99

> <Gold.Chemscore.Hbond.Weighted>
-0.0000

> <Gold.Chemscore.Metal.Weighted>
-0.0000

> <Gold.Chemscore.Lipo.Weighted>
-11.0029

> <Gold.Chemscore.Internal_Hbond.Weighted>
0.0000

> <Gold.Chemscore.DEClash.Weighted>
0.0383

> <Gold.Chemscore.DEInternal.Weighted>
1.6413

> <Gold.Chemscore.Rot.Weighted>
4.9424

> <Gold.Chemscore.Internal.Correction.Weighted>
   9.000000E+99

> <Gold.Protein.RotatedTorsions>
[ 6907 6896 6895 6894 ] final  -50.21 input  -60.11 | X-H torsion
[ 7974 7965 7964 7962 ] final  166.56 input  175.53 | X-H torsion
[ 8008 7997 7996 7995 ] final  -74.44 input   59.86 | X-H torsion
[ 10167 10162 10161 10158 ] final -168.28 input  -65.29 | X-H torsion
[ 10718 10713 10712 10709 ] final  -33.76 input   66.30 | X-H torsion
[ 10763 10752 10751 10750 ] final  -59.36 input  -60.55 | X-H torsion
[ 11005 11000 10999 10996 ] final -142.67 input  -57.11 | X-H torsion

> <Gold.Protein.ActiveResidues>
 VAL166  LYS551  ARG553  GLY616  TRP617  ASP618  TYR619  PRO620  LYS621  CYS622 
 ASP623  PHE694  ASN695  SER759  ASP760  ASP761  ALA762  ILE779  LEU786  VAL792 
 PHE793  MET794  SER795  GLU796  ALA797  LYS798  CYS799  TRP800  GLU811  SER814 

> <Gold.Protein.RotatedAtoms>
  150.8729  134.8107  159.7168 H   0  0  0  0  0  0  0  0  0  0  0  0  # atno 6907 bound_to 6896
  152.4727  134.4917  159.9707 H   0  0  0  0  0  0  0  0  0  0  0  0  # atno 6908 bound_to 6896
  151.5003  133.3467  159.2903 H   0  0  0  0  0  0  0  0  0  0  0  0  # atno 6909 bound_to 6896
  144.7457  139.8634  143.6383 H   0  0  0  0  0  0  0  0  0  0  0  0  # atno 7974 bound_to 7965
  154.5331  140.0761  156.8380 H   0  0  0  0  0  0  0  0  0  0  0  0  # atno 8008 bound_to 7997
  155.3334  140.3403  155.4221 H   0  0  0  0  0  0  0  0  0  0  0  0  # atno 8009 bound_to 7997
  156.1801  140.1649  156.8276 H   0  0  0  0  0  0  0  0  0  0  0  0  # atno 8010 bound_to 7997
  139.5995  144.1041  152.1727 H   0  0  0  0  0  0  0  0  0  0  0  0  # atno 10167 bound_to 10162
  156.3588  130.4320  149.7641 H   0  0  0  0  0  0  0  0  0  0  0  0  # atno 10718 bound_to 10713
  154.2525  135.6323  153.5245 H   0  0  0  0  0  0  0  0  0  0  0  0  # atno 10763 bound_to 10752
  152.9910  135.5568  154.5792 H   0  0  0  0  0  0  0  0  0  0  0  0  # atno 10764 bound_to 10752
  154.5322  135.2889  155.1144 H   0  0  0  0  0  0  0  0  0  0  0  0  # atno 10765 bound_to 10752
  140.8202  134.2640  157.4903 H   0  0  0  0  0  0  0  0  0  0  0  0  # atno 11005 bound_to 11000
  146.1332  139.4372  143.0155 LP  0  0  0  0  0  0  0  0  0  0  0  0  # atno 17320 bound_to 7965
  145.7131  141.0100  143.1443 LP  0  0  0  0  0  0  0  0  0  0  0  0  # atno 17321 bound_to 7965
  140.0634  144.5838  150.7246 LP  0  0  0  0  0  0  0  0  0  0  0  0  # atno 17342 bound_to 10162
  140.7238  143.2615  151.4188 LP  0  0  0  0  0  0  0  0  0  0  0  0  # atno 17343 bound_to 10162
  156.4813  130.8042  151.3056 LP  0  0  0  0  0  0  0  0  0  0  0  0  # atno 17370 bound_to 10713
  157.7471  131.0005  150.2927 LP  0  0  0  0  0  0  0  0  0  0  0  0  # atno 17371 bound_to 10713
  139.8709  134.9531  156.4136 LP  0  0  0  0  0  0  0  0  0  0  0  0  # atno 17394 bound_to 11000
  140.9106  133.7714  155.9788 LP  0  0  0  0  0  0  0  0  0  0  0  0  # atno 17395 bound_to 11000

$$$$
