AV-unprocessed.smi:788|AV-procd|sdf|3736|dock6
  -GOLD-   22720 1173D 1   1.00000     0.00000
 Structure written by MMmdl.
 34 35  0  0  0  0  0  0  0  0  2 V2000
  153.2043  144.4878  157.2994 C   0  0  0  0  0  0  0  0  0  0  0  0
  152.5399  144.7725  158.6571 C   0  0  1  0  0  0  0  0  0  0  0  0
  151.0038  144.8356  158.5319 C   0  0  0  0  0  0  0  0  0  0  0  0
  150.3425  145.1764  159.8762 C   0  0  0  0  0  0  0  0  0  0  0  0
  150.7653  144.1916  160.9770 C   0  0  0  0  0  0  0  0  0  0  0  0
  152.3003  144.1228  161.1159 C   0  0  1  0  0  0  0  0  0  0  0  0
  152.7199  143.1723  162.2509 C   0  0  0  0  0  0  0  0  0  0  0  0
  152.9711  143.7758  159.7629 C   0  0  1  0  0  0  0  0  0  0  0  0
  152.6589  142.3974  159.3774 N   0  0  0  0  0  0  0  0  0  0  0  0
  153.1970  141.2611  159.8619 C   0  0  0  0  0  0  0  0  0  0  0  0
  154.0787  141.3295  160.7167 O   0  0  0  0  0  0  0  0  0  0  0  0
  152.7259  140.0853  159.3685 N   0  5  0  0  0  0  0  0  0  0  0  0
  152.5660  139.8705  158.0493 C   0  0  0  0  0  0  0  0  0  0  0  0
  153.3660  139.0486  157.3509 N   0  0  0  0  0  0  0  0  0  0  0  0
  153.0398  138.9851  156.0032 N   0  0  0  0  0  0  0  0  0  0  0  0
  151.9899  139.7558  155.7204 C   0  0  0  0  0  0  0  0  0  0  0  0
  151.3054  140.6307  157.0738 S   0  0  0  0  0  0  0  0  0  0  0  0
  152.8632  143.5437  156.8733 H   0  0  0  0  0  0  0  0  0  0  0  0
  154.2889  144.4362  157.3973 H   0  0  0  0  0  0  0  0  0  0  0  0
  152.9753  145.2739  156.5797 H   0  0  0  0  0  0  0  0  0  0  0  0
  152.8802  145.7613  158.9682 H   0  0  0  0  0  0  0  0  0  0  0  0
  150.7213  145.5823  157.7890 H   0  0  0  0  0  0  0  0  0  0  0  0
  150.6194  143.8818  158.1675 H   0  0  0  0  0  0  0  0  0  0  0  0
  150.6157  146.1905  160.1698 H   0  0  0  0  0  0  0  0  0  0  0  0
  149.2576  145.1681  159.7680 H   0  0  0  0  0  0  0  0  0  0  0  0
  150.3195  144.4943  161.9249 H   0  0  0  0  0  0  0  0  0  0  0  0
  150.3653  143.2014  160.7540 H   0  0  0  0  0  0  0  0  0  0  0  0
  152.6451  145.1186  161.3985 H   0  0  0  0  0  0  0  0  0  0  0  0
  152.3560  142.1578  162.0840 H   0  0  0  0  0  0  0  0  0  0  0  0
  152.3239  143.5094  163.2091 H   0  0  0  0  0  0  0  0  0  0  0  0
  153.8055  143.1255  162.3413 H   0  0  0  0  0  0  0  0  0  0  0  0
  154.0483  143.8812  159.9001 H   0  0  0  0  0  0  0  0  0  0  0  0
  151.9478  142.2912  158.6691 H   0  0  0  0  0  0  0  0  0  0  0  0
  151.6158  139.8088  154.7090 H   0  0  0  0  0  0  0  0  0  0  0  0
  1  2  1  0  0  0  0
  1 18  1  0  0  0  0
  1 19  1  0  0  0  0
  1 20  1  0  0  0  0
  2  8  1  0  0  0  0
  2  3  1  0  0  0  0
  2 21  1  0  0  0  0
  3  4  1  0  0  0  0
  3 22  1  0  0  0  0
  3 23  1  0  0  0  0
  4  5  1  0  0  0  0
  4 24  1  0  0  0  0
  4 25  1  0  0  0  0
  5  6  1  0  0  0  0
  5 26  1  0  0  0  0
  5 27  1  0  0  0  0
  6  7  1  0  0  0  0
  6  8  1  0  0  0  0
  6 28  1  0  0  0  0
  7 29  1  0  0  0  0
  7 30  1  0  0  0  0
  7 31  1  0  0  0  0
  8  9  1  0  0  0  0
  8 32  1  0  0  0  0
  9 10  1  0  0  0  0
  9 33  1  0  0  0  0
 10 11  2  0  0  0  0
 10 12  1  0  0  0  0
 12 13  1  0  0  0  0
 13 17  1  0  0  0  0
 13 14  2  0  0  0  0
 14 15  1  0  0  0  0
 15 16  2  0  0  0  0
 16 17  1  0  0  0  0
 16 34  1  0  0  0  0
M  CHG  1  12  -1
M  END
> <s_m_source_file>
AV-unprocessed.smi

> <i_m_source_file_index>
788

> <i_lp_mmshare_version>
43012

> <i_f3d_flags>
0

> <s_epik_input>
W0NIM11bQ0BASF0xW0NIMl1bQ0gyXVtDSDJdW0NAQEhdKFtDSDNdKVtDQEhdMVtOSF1DKD1PKVtOSF1jMm5uW2NIXXMy

> <s_epik_cmdline>
J2VwaWtfcHl0aG9uJywgJy1waCcsICc3LjAnLCAnLXRuJywgJzgnLCAnLW1hJywgJzIwMCcsICctbWV0YWxfYmluZGluZycsICctaW1hZScsICc8aW5maWxlLm1hZT4nLCAnLW9tYWUnLCAnPG91dGZpbGUubWFlPic=

> <r_lp_tautomer_probability>
1

> <r_epik_Ionization_Penalty>
4.58638

> <r_epik_Ionization_Penalty_Charging>
4.53816

> <r_epik_Ionization_Penalty_Neutral>
0.048215

> <r_epik_State_Penalty>
4.53788

> <r_epik_Charging_Adjusted_Penalty>
9.07605

> <i_epik_Tot_Q>
-1

> <i_epik_Tot_abs_Q>
1

> <r_epik_Metal_State_Penalty>
0.838628

> <b_epik_Metal_Only>
1

> <s_lp_Force_Field>
OPLS_2005

> <r_lp_Energy>
10.1282

> <b_lp_Chiralities_Consistent>
1

> <s_lp_Variant>
AV-unprocessed.smi:788-6

> <Gold.Version>
5.8.1

> <Gold.Id.Protein>
6NUR|6NUR_protein|mol2

> <Gold.PLP.Fitness>
34.8407

> <Gold.PLP.PLP>
-37.5021

> <Gold.PLP.part.hbond>
-2.0000

> <Gold.PLP.part.metal>
0.0000

> <Gold.PLP.part.buried>
-4.6276

> <Gold.PLP.part.nonpolar>
-30.8676

> <Gold.PLP.part.repulsive>
0.0673

> <Gold.PLP.ligand.clash>
0.0000

> <Gold.PLP.ligand.torsion>
1.3345

> <Gold.PLP.Chemscore.Hbond>
0.0000

> <Gold.PLP.Chemscore.CHOScore>
0.0000

> <Gold.PLP.Chemscore.Metal>
0.0000

> <Gold.PLP.Chemscore.Internal.Correction>
0.0075

> <Gold.Rescore>
     Score         DG    S(hbond)    S(metal)    S(lipo)     H(rot)  DE(clash)    DE(int)     intcor
     13.29     -16.45       0.00        0.00     115.61       1.00       1.49       1.66       ----

> <Gold.Chemscore.Fitness>
13.2939

> <Gold.Chemscore.DG>
-16.4461

> <Gold.Chemscore.ZeroCoef>
-5.4800

> <Gold.Chemscore.Hbond>
0.0000

> <Gold.Chemscore.Metal>
0.0000

> <Gold.Chemscore.Lipo>
115.6073

> <Gold.Chemscore.Internal_Hbond>
0.0000

> <Gold.Chemscore.DEClash>
1.4905

> <Gold.Chemscore.DEInternal>
1.6616

> <Gold.Chemscore.Rot>
1.0000

> <Gold.Chemscore.Internal.Correction>
   9.000000E+99

> <Gold.Chemscore.Hbond.Weighted>
-0.0000

> <Gold.Chemscore.Metal.Weighted>
-0.0000

> <Gold.Chemscore.Lipo.Weighted>
-13.5261

> <Gold.Chemscore.Internal_Hbond.Weighted>
0.0000

> <Gold.Chemscore.DEClash.Weighted>
1.4905

> <Gold.Chemscore.DEInternal.Weighted>
1.6616

> <Gold.Chemscore.Rot.Weighted>
2.5600

> <Gold.Chemscore.Internal.Correction.Weighted>
   9.000000E+99

> <Gold.Protein.RotatedTorsions>
[ 6907 6896 6895 6894 ] final  -53.63 input  -60.11 | X-H torsion
[ 7974 7965 7964 7962 ] final -113.97 input  175.53 | X-H torsion
[ 8008 7997 7996 7995 ] final   81.08 input   59.86 | X-H torsion
[ 10167 10162 10161 10158 ] final   80.91 input  -65.29 | X-H torsion
[ 10718 10713 10712 10709 ] final  165.57 input   66.30 | X-H torsion
[ 10763 10752 10751 10750 ] final -114.60 input  -60.55 | X-H torsion
[ 11005 11000 10999 10996 ] final -134.41 input  -57.11 | X-H torsion

> <Gold.Protein.ActiveResidues>
 VAL166  LYS551  ARG553  GLY616  TRP617  ASP618  TYR619  PRO620  LYS621  CYS622 
 ASP623  PHE694  ASN695  SER759  ASP760  ASP761  ALA762  ILE779  LEU786  VAL792 
 PHE793  MET794  SER795  GLU796  ALA797  LYS798  CYS799  TRP800  GLU811  SER814 

> <Gold.Protein.RotatedAtoms>
  150.8410  134.7702  159.6931 H   0  0  0  0  0  0  0  0  0  0  0  0  # atno 6907 bound_to 6896
  152.4497  134.5416  159.9850 H   0  0  0  0  0  0  0  0  0  0  0  0  # atno 6908 bound_to 6896
  151.5556  133.3373  159.2997 H   0  0  0  0  0  0  0  0  0  0  0  0  # atno 6909 bound_to 6896
  145.1257  140.8695  143.3787 H   0  0  0  0  0  0  0  0  0  0  0  0  # atno 7974 bound_to 7965
  155.8923  140.3438  155.5965 H   0  0  0  0  0  0  0  0  0  0  0  0  # atno 8008 bound_to 7997
  155.7597  140.0831  157.2180 H   0  0  0  0  0  0  0  0  0  0  0  0  # atno 8009 bound_to 7997
  154.4034  140.1538  156.2805 H   0  0  0  0  0  0  0  0  0  0  0  0  # atno 8010 bound_to 7997
  139.9448  144.6066  150.8217 H   0  0  0  0  0  0  0  0  0  0  0  0  # atno 10167 bound_to 10162
  157.0783  131.0385  151.2585 H   0  0  0  0  0  0  0  0  0  0  0  0  # atno 10718 bound_to 10713
  154.8447  135.4412  154.1531 H   0  0  0  0  0  0  0  0  0  0  0  0  # atno 10763 bound_to 10752
  153.2686  135.6943  153.7509 H   0  0  0  0  0  0  0  0  0  0  0  0  # atno 10764 bound_to 10752
  153.6758  135.3411  155.3141 H   0  0  0  0  0  0  0  0  0  0  0  0  # atno 10765 bound_to 10752
  140.8992  134.1712  157.4473 H   0  0  0  0  0  0  0  0  0  0  0  0  # atno 11005 bound_to 11000
  145.0691  139.3046  143.5841 LP  0  0  0  0  0  0  0  0  0  0  0  0  # atno 17320 bound_to 7965
  146.3518  140.0159  142.8663 LP  0  0  0  0  0  0  0  0  0  0  0  0  # atno 17321 bound_to 7965
  140.7600  143.3142  151.2772 LP  0  0  0  0  0  0  0  0  0  0  0  0  # atno 17342 bound_to 10162
  139.6676  144.0078  152.2733 LP  0  0  0  0  0  0  0  0  0  0  0  0  # atno 17343 bound_to 10162
  157.4821  130.7771  149.7425 LP  0  0  0  0  0  0  0  0  0  0  0  0  # atno 17370 bound_to 10713
  155.9931  130.3926  150.2915 LP  0  0  0  0  0  0  0  0  0  0  0  0  # atno 17371 bound_to 10713
  139.8740  134.9891  156.5442 LP  0  0  0  0  0  0  0  0  0  0  0  0  # atno 17394 bound_to 11000
  140.8251  133.8323  155.8931 LP  0  0  0  0  0  0  0  0  0  0  0  0  # atno 17395 bound_to 11000

$$$$
