AV-unprocessed.smi:3224|AV-procd|sdf|12309|dock4
  -GOLD-   2272018153D 1   1.00000     0.00000
 Structure written by MMmdl.
 31 32  0  0  0  0  0  0  0  0  1 V2000
  149.2172  139.9781  154.4268 C   0  0  0  0  0  0  0  0  0  0  0  0
  148.3001  141.1108  154.9371 C   0  0  0  0  0  0  0  0  0  0  0  0
  149.0727  142.0451  155.7703 N   0  0  0  0  0  0  0  0  0  0  0  0
  149.8797  141.7699  156.8090 C   0  0  0  0  0  0  0  0  0  0  0  0
  150.0979  140.6340  157.2305 O   0  0  0  0  0  0  0  0  0  0  0  0
  150.4103  142.8970  157.3151 N   0  0  0  0  0  0  0  0  0  0  0  0
  151.2836  143.0353  158.4257 C   0  0  0  0  0  0  0  0  0  0  0  0
  151.7061  142.0177  159.1854 N   0  0  0  0  0  0  0  0  0  0  0  0
  152.5523  142.4454  160.2115 C   0  0  0  0  0  0  0  0  0  0  0  0
  152.7651  143.8016  160.2182 C   0  0  0  0  0  0  0  0  0  0  0  0
  151.9069  144.6000  158.9276 S   0  0  0  0  0  0  0  0  0  0  0  0
  147.6104  141.8321  153.7535 C   0  0  0  0  0  0  0  0  0  0  0  0
  146.5228  142.8113  154.2302 C   0  0  0  0  0  0  0  0  0  0  0  0
  145.5584  142.1186  155.0140 O   0  0  0  0  0  0  0  0  0  0  0  0
  146.1116  141.5428  156.1913 C   0  0  0  0  0  0  0  0  0  0  0  0
  147.1860  140.5039  155.8173 C   0  0  0  0  0  0  0  0  0  0  0  0
  148.6471  139.2252  153.8817 H   0  0  0  0  0  0  0  0  0  0  0  0
  149.7204  139.4725  155.2515 H   0  0  0  0  0  0  0  0  0  0  0  0
  149.9848  140.3472  153.7467 H   0  0  0  0  0  0  0  0  0  0  0  0
  148.9789  143.0188  155.5211 H   0  0  0  0  0  0  0  0  0  0  0  0
  150.1498  143.7591  156.8595 H   0  0  0  0  0  0  0  0  0  0  0  0
  152.9594  141.7151  160.8951 H   0  0  0  0  0  0  0  0  0  0  0  0
  153.3719  144.3764  160.9018 H   0  0  0  0  0  0  0  0  0  0  0  0
  148.3336  142.3552  153.1284 H   0  0  0  0  0  0  0  0  0  0  0  0
  147.1431  141.0907  153.1038 H   0  0  0  0  0  0  0  0  0  0  0  0
  146.9544  143.6331  154.8033 H   0  0  0  0  0  0  0  0  0  0  0  0
  146.0196  143.2561  153.3717 H   0  0  0  0  0  0  0  0  0  0  0  0
  146.5219  142.3241  156.8327 H   0  0  0  0  0  0  0  0  0  0  0  0
  145.3104  141.0638  156.7543 H   0  0  0  0  0  0  0  0  0  0  0  0
  146.7013  139.6858  155.2823 H   0  0  0  0  0  0  0  0  0  0  0  0
  147.6093  140.0645  156.7219 H   0  0  0  0  0  0  0  0  0  0  0  0
  1  2  1  0  0  0  0
  1 17  1  0  0  0  0
  1 18  1  0  0  0  0
  1 19  1  0  0  0  0
  2 16  1  0  0  0  0
  2  3  1  0  0  0  0
  2 12  1  0  0  0  0
  3  4  1  0  0  0  0
  3 20  1  0  0  0  0
  4  5  2  0  0  0  0
  4  6  1  0  0  0  0
  6  7  1  0  0  0  0
  6 21  1  0  0  0  0
  7 11  1  0  0  0  0
  7  8  2  0  0  0  0
  8  9  1  0  0  0  0
  9 10  2  0  0  0  0
  9 22  1  0  0  0  0
 10 11  1  0  0  0  0
 10 23  1  0  0  0  0
 12 13  1  0  0  0  0
 12 24  1  0  0  0  0
 12 25  1  0  0  0  0
 13 14  1  0  0  0  0
 13 26  1  0  0  0  0
 13 27  1  0  0  0  0
 14 15  1  0  0  0  0
 15 16  1  0  0  0  0
 15 28  1  0  0  0  0
 15 29  1  0  0  0  0
 16 30  1  0  0  0  0
 16 31  1  0  0  0  0
M  END
> <s_m_source_file>
AV-unprocessed.smi

> <i_m_source_file_index>
3224

> <i_lp_mmshare_version>
43012

> <i_f3d_flags>
0

> <s_epik_input>
W0NIMl0xW0NIMl1PW0NIMl1bQ0gyXUMxKFtDSDNdKVtOSF1DKD1PKVtOSF1jMm5bY0hdW2NIXXMy

> <s_epik_cmdline>
J2VwaWtfcHl0aG9uJywgJy1waCcsICc3LjAnLCAnLXRuJywgJzgnLCAnLW1hJywgJzIwMCcsICctbWV0YWxfYmluZGluZycsICctaW1hZScsICc8aW5maWxlLm1hZT4nLCAnLW9tYWUnLCAnPG91dGZpbGUubWFlPic=

> <r_lp_tautomer_probability>
1

> <r_epik_Ionization_Penalty>
0.000150899

> <r_epik_Ionization_Penalty_Charging>
0

> <r_epik_Ionization_Penalty_Neutral>
0.000150899

> <r_epik_State_Penalty>
-0

> <r_epik_Charging_Adjusted_Penalty>
0

> <i_epik_Tot_Q>
0

> <i_epik_Tot_abs_Q>
0

> <r_epik_Metal_State_Penalty>
0.0306338

> <b_epik_Metal_Only>
0

> <s_lp_Force_Field>
OPLS_2005

> <r_lp_Energy>
7.54186

> <b_lp_Chiralities_Consistent>
1

> <s_lp_Variant>
AV-unprocessed.smi:3224-1

> <Gold.Version>
5.8.1

> <Gold.Id.Protein>
6NUR|6NUR_protein|mol2

> <Gold.PLP.Fitness>
37.2921

> <Gold.PLP.PLP>
-31.4830

> <Gold.PLP.part.hbond>
-2.0000

> <Gold.PLP.part.metal>
0.0000

> <Gold.PLP.part.buried>
-5.5509

> <Gold.PLP.part.nonpolar>
-24.3297

> <Gold.PLP.part.repulsive>
0.3091

> <Gold.PLP.ligand.clash>
0.0000

> <Gold.PLP.ligand.torsion>
0.0868

> <Gold.PLP.Chemscore.Hbond>
1.9920

> <Gold.PLP.Chemscore.CHOScore>
0.0000

> <Gold.PLP.Chemscore.Metal>
0.0000

> <Gold.Chemscore.Hbonds>
donor molecule, donor type, donor heavy atom, donor atom, acceptor molecule, acceptor atom, score
      L1  H     3    20       P1  8028  1.00
      L1  H     6    21       P1  8028  0.98

> <Gold.PLP.Chemscore.Internal.Correction>
0.0067

> <Gold.Rescore>
     Score         DG    S(hbond)    S(metal)    S(lipo)     H(rot)  DE(clash)    DE(int)     intcor
     15.95     -17.26       1.94        0.00      67.04       1.00       0.02       1.28       ----

> <Gold.Chemscore.Fitness>
15.9490

> <Gold.Chemscore.DG>
-17.2558

> <Gold.Chemscore.ZeroCoef>
-5.4800

> <Gold.Chemscore.Hbond>
1.9439

> <Gold.Chemscore.Metal>
0.0000

> <Gold.Chemscore.Lipo>
67.0352

> <Gold.Chemscore.Internal_Hbond>
0.0000

> <Gold.Chemscore.DEClash>
0.0243

> <Gold.Chemscore.DEInternal>
1.2825

> <Gold.Chemscore.Rot>
1.0000

> <Gold.Chemscore.Internal.Correction>
   9.000000E+99

> <Gold.Chemscore.Hbonds>
donor molecule, donor type, donor heavy atom, donor atom, acceptor molecule, acceptor atom, score
      L1  H     3    20       P1  8028  1.00
      L1  H     6    21       P1  8028  0.91

> <Gold.Chemscore.Hbond.Weighted>
-6.4927

> <Gold.Chemscore.Metal.Weighted>
-0.0000

> <Gold.Chemscore.Lipo.Weighted>
-7.8431

> <Gold.Chemscore.Internal_Hbond.Weighted>
0.0000

> <Gold.Chemscore.DEClash.Weighted>
0.0243

> <Gold.Chemscore.DEInternal.Weighted>
1.2825

> <Gold.Chemscore.Rot.Weighted>
2.5600

> <Gold.Chemscore.Internal.Correction.Weighted>
   9.000000E+99

> <Gold.Protein.RotatedTorsions>
[ 6907 6896 6895 6894 ] final  -90.11 input  -60.11 | X-H torsion
[ 7974 7965 7964 7962 ] final -126.50 input  175.53 | X-H torsion
[ 8008 7997 7996 7995 ] final  -91.50 input   59.86 | X-H torsion
[ 10167 10162 10161 10158 ] final  -11.89 input  -65.29 | X-H torsion
[ 10718 10713 10712 10709 ] final   56.30 input   66.30 | X-H torsion
[ 10763 10752 10751 10750 ] final   94.17 input  -60.55 | X-H torsion
[ 11005 11000 10999 10996 ] final  103.23 input  -57.11 | X-H torsion

> <Gold.Protein.ActiveResidues>
 VAL166  LYS551  ARG553  GLY616  TRP617  ASP618  TYR619  PRO620  LYS621  CYS622 
 ASP623  PHE694  ASN695  SER759  ASP760  ASP761  ALA762  ILE779  LEU786  VAL792 
 PHE793  MET794  SER795  GLU796  ALA797  LYS798  CYS799  TRP800  GLU811  SER814 

> <Gold.Protein.RotatedAtoms>
  150.6879  134.2482  159.4499 H   0  0  0  0  0  0  0  0  0  0  0  0  # atno 6907 bound_to 6896
  152.0421  134.9702  160.0583 H   0  0  0  0  0  0  0  0  0  0  0  0  # atno 6908 bound_to 6896
  152.1200  133.4313  159.4708 H   0  0  0  0  0  0  0  0  0  0  0  0  # atno 6909 bound_to 6896
  144.9866  140.7692  143.4580 H   0  0  0  0  0  0  0  0  0  0  0  0  # atno 7974 bound_to 7965
  154.7116  140.0519  157.0555 H   0  0  0  0  0  0  0  0  0  0  0  0  # atno 8008 bound_to 7997
  155.0548  140.3183  155.4661 H   0  0  0  0  0  0  0  0  0  0  0  0  # atno 8009 bound_to 7997
  156.2791  140.2109  156.5674 H   0  0  0  0  0  0  0  0  0  0  0  0  # atno 8010 bound_to 7997
  140.7149  143.5591  150.9215 H   0  0  0  0  0  0  0  0  0  0  0  0  # atno 10167 bound_to 10162
  157.5419  130.8703  149.8835 H   0  0  0  0  0  0  0  0  0  0  0  0  # atno 10718 bound_to 10713
  153.2386  135.4299  155.0673 H   0  0  0  0  0  0  0  0  0  0  0  0  # atno 10763 bound_to 10752
  154.8330  135.3397  154.6683 H   0  0  0  0  0  0  0  0  0  0  0  0  # atno 10764 bound_to 10752
  153.7107  135.7023  153.5094 H   0  0  0  0  0  0  0  0  0  0  0  0  # atno 10765 bound_to 10752
  139.8782  134.9255  156.5177 H   0  0  0  0  0  0  0  0  0  0  0  0  # atno 11005 bound_to 11000
  145.2345  139.2100  143.5025 LP  0  0  0  0  0  0  0  0  0  0  0  0  # atno 17320 bound_to 7965
  146.3421  140.2228  142.8592 LP  0  0  0  0  0  0  0  0  0  0  0  0  # atno 17321 bound_to 7965
  139.9316  143.6486  152.3075 LP  0  0  0  0  0  0  0  0  0  0  0  0  # atno 17342 bound_to 10162
  139.6939  144.7643  151.1390 LP  0  0  0  0  0  0  0  0  0  0  0  0  # atno 17343 bound_to 10162
  156.0504  130.3719  150.1216 LP  0  0  0  0  0  0  0  0  0  0  0  0  # atno 17370 bound_to 10713
  156.9395  130.9740  151.3519 LP  0  0  0  0  0  0  0  0  0  0  0  0  # atno 17371 bound_to 10713
  140.8473  133.8159  155.9134 LP  0  0  0  0  0  0  0  0  0  0  0  0  # atno 17394 bound_to 11000
  140.9179  134.2179  157.4945 LP  0  0  0  0  0  0  0  0  0  0  0  0  # atno 17395 bound_to 11000

$$$$
