AV-unprocessed.smi:107|AV-procd|sdf|1027|dock4
  -GOLD-   2262018 23D 1   1.00000     0.00000
 Structure written by MMmdl.
 30 31  0  0  0  0  0  0  0  0  2 V2000
  150.4970  142.9310  158.8145 C   0  0  0  0  0  0  0  0  0  0  0  0
  150.8078  141.9530  157.6950 C   0  0  0  0  0  0  0  0  0  0  0  0
  150.0274  141.8418  156.5969 C   0  0  0  0  0  0  0  0  0  0  0  0
  150.3174  140.9505  155.5791 N   0  0  0  0  0  0  0  0  0  0  0  0
  149.4386  140.8679  154.3542 C   0  0  2  0  0  0  0  0  0  0  0  0
  148.2945  141.8707  154.4325 C   0  0  0  0  0  0  0  0  0  0  0  0
  147.2018  141.1722  153.6319 C   0  0  2  0  0  0  0  0  0  0  0  0
  145.9623  141.2815  154.3070 O   0  0  0  0  0  0  0  0  0  0  0  0
  147.7062  139.7197  153.4443 C   0  0  2  0  0  0  0  0  0  0  0  0
  146.7012  138.6007  153.7769 C   0  0  0  0  0  0  0  0  0  0  0  0
  145.6920  138.5445  152.7910 O   0  0  0  0  0  0  0  0  0  0  0  0
  148.8346  139.6187  154.3049 O   0  0  0  0  0  0  0  0  0  0  0  0
  151.4829  140.1458  155.6595 C   0  0  0  0  0  0  0  0  0  0  0  0
  151.7364  139.3958  154.7163 O   0  0  0  0  0  0  0  0  0  0  0  0
  152.2712  140.2437  156.7681 N   0  5  0  0  0  0  0  0  0  0  0  0
  151.9981  141.0992  157.7953 C   0  0  0  0  0  0  0  0  0  0  0  0
  152.7173  141.1756  158.7911 O   0  0  0  0  0  0  0  0  0  0  0  0
  149.5899  143.4985  158.6050 H   0  0  0  0  0  0  0  0  0  0  0  0
  151.3172  143.6385  158.9399 H   0  0  0  0  0  0  0  0  0  0  0  0
  150.3529  142.3995  159.7556 H   0  0  0  0  0  0  0  0  0  0  0  0
  149.1566  142.4751  156.5124 H   0  0  0  0  0  0  0  0  0  0  0  0
  150.0775  140.9890  153.4773 H   0  0  0  0  0  0  0  0  0  0  0  0
  148.0015  141.9981  155.4765 H   0  0  0  0  0  0  0  0  0  0  0  0
  148.5933  142.8375  154.0263 H   0  0  0  0  0  0  0  0  0  0  0  0
  147.0950  141.6451  152.6549 H   0  0  0  0  0  0  0  0  0  0  0  0
  145.2689  141.0937  153.6934 H   0  0  0  0  0  0  0  0  0  0  0  0
  148.0538  139.6152  152.4147 H   0  0  0  0  0  0  0  0  0  0  0  0
  147.1994  137.6348  153.8668 H   0  0  0  0  0  0  0  0  0  0  0  0
  146.2024  138.8029  154.7251 H   0  0  0  0  0  0  0  0  0  0  0  0
  145.1723  139.3316  152.8481 H   0  0  0  0  0  0  0  0  0  0  0  0
  1  2  1  0  0  0  0
  1 18  1  0  0  0  0
  1 19  1  0  0  0  0
  1 20  1  0  0  0  0
  2 16  1  0  0  0  0
  2  3  2  0  0  0  0
  3  4  1  0  0  0  0
  3 21  1  0  0  0  0
  4  5  1  0  0  0  0
  4 13  1  0  0  0  0
  5 12  1  0  0  0  0
  5  6  1  0  0  0  0
  5 22  1  0  0  0  0
  6  7  1  0  0  0  0
  6 23  1  0  0  0  0
  6 24  1  0  0  0  0
  7  8  1  0  0  0  0
  7  9  1  0  0  0  0
  7 25  1  0  0  0  0
  8 26  1  0  0  0  0
  9 10  1  0  0  0  0
  9 12  1  0  0  0  0
  9 27  1  0  0  0  0
 10 11  1  0  0  0  0
 10 28  1  0  0  0  0
 10 29  1  0  0  0  0
 11 30  1  0  0  0  0
 13 14  2  0  0  0  0
 13 15  1  0  0  0  0
 15 16  1  0  0  0  0
 16 17  2  0  0  0  0
M  CHG  1  15  -1
M  END
> <s_m_source_file>
AV-unprocessed.smi

> <i_m_source_file_index>
107

> <i_lp_mmshare_version>
43012

> <i_f3d_flags>
0

> <s_epik_input>
Tz1jMVtuSF1jKD1PKW4oW2NIXWMxW0NIM10pW0NAQEhdMltDSDJdW0NAQEhdKFtPSF0pW0NASF0oTzIpW0NIMl1bT0hd

> <s_epik_cmdline>
J2VwaWtfcHl0aG9uJywgJy1waCcsICc3LjAnLCAnLXRuJywgJzgnLCAnLW1hJywgJzIwMCcsICctbWV0YWxfYmluZGluZycsICctaW1hZScsICc8aW5maWxlLm1hZT4nLCAnLW9tYWUnLCAnPG91dGZpbGUubWFlPic=

> <r_lp_tautomer_probability>
0.999537

> <r_epik_Ionization_Penalty>
3.66603

> <r_epik_Ionization_Penalty_Charging>
1.09773e-07

> <r_epik_Ionization_Penalty_Neutral>
3.66603

> <r_epik_State_Penalty>
3.66562

> <r_epik_Charging_Adjusted_Penalty>
3.66562

> <i_epik_Tot_Q>
-1

> <i_epik_Tot_abs_Q>
1

> <r_epik_Metal_State_Penalty>
0.234536

> <b_epik_Metal_Only>
1

> <s_epik_Chemistry_Notes>
This compound contains an acetal/aminal-like group ( X-CH(R)-Y where X, Y are N, S, or O) that may be acid/base labile, releasing an aldehyde.

> <s_lp_Force_Field>
OPLS_2005

> <r_lp_Energy>
40.7454

> <b_lp_Chiralities_Consistent>
1

> <s_lp_Variant>
AV-unprocessed.smi:107-15

> <Gold.Version>
5.8.1

> <Gold.Id.Protein>
6NUR|6NUR_protein|mol2

> <Gold.PLP.Fitness>
43.1424

> <Gold.PLP.PLP>
-27.4797

> <Gold.PLP.part.hbond>
-4.0000

> <Gold.PLP.part.metal>
0.0000

> <Gold.PLP.part.buried>
1.2838

> <Gold.PLP.part.nonpolar>
-23.7799

> <Gold.PLP.part.repulsive>
0.2018

> <Gold.PLP.ligand.clash>
0.0000

> <Gold.PLP.ligand.torsion>
0.1045

> <Gold.PLP.Chemscore.Hbond>
4.2825

> <Gold.PLP.Chemscore.CHOScore>
1.0000

> <Gold.PLP.Chemscore.Metal>
0.0000

> <Gold.Chemscore.Hbonds>
donor molecule, donor type, donor heavy atom, donor atom, acceptor molecule, acceptor atom, score
      L1  H     8    26       P1 10175  0.88
      L1  H    11    30       P1 10175  1.00
      P1  H  7989  7998       L1    14  0.55
      P1  H  7997  8010       L1    15  1.69
      L1  C     3    21       P1  8028  1.00

> <Gold.PLP.Chemscore.Internal.Correction>
0.0242

> <Gold.Rescore>
     Score         DG    S(hbond)    S(metal)    S(lipo)     H(rot)  DE(clash)    DE(int)     intcor
     10.58     -12.16       2.50        0.00      44.66       2.69       0.33       1.26       ----

> <Gold.Chemscore.Fitness>
10.5758

> <Gold.Chemscore.DG>
-12.1596

> <Gold.Chemscore.ZeroCoef>
-5.4800

> <Gold.Chemscore.Hbond>
2.4951

> <Gold.Chemscore.Metal>
0.0000

> <Gold.Chemscore.Lipo>
44.6580

> <Gold.Chemscore.Internal_Hbond>
0.0000

> <Gold.Chemscore.DEClash>
0.3257

> <Gold.Chemscore.DEInternal>
1.2580

> <Gold.Chemscore.Rot>
2.6871

> <Gold.Chemscore.Internal.Correction>
   9.000000E+99

> <Gold.Chemscore.Hbonds>
donor molecule, donor type, donor heavy atom, donor atom, acceptor molecule, acceptor atom, score
      L1  H     8    26       P1 10175  0.56
      L1  H    11    30       P1 10175  0.98
      P1  H  7989  7998       L1    14  0.03
      P1  H  7997  8010       L1    15  0.55

> <Gold.Chemscore.Hbond.Weighted>
-8.3337

> <Gold.Chemscore.Metal.Weighted>
-0.0000

> <Gold.Chemscore.Lipo.Weighted>
-5.2250

> <Gold.Chemscore.Internal_Hbond.Weighted>
0.0000

> <Gold.Chemscore.DEClash.Weighted>
0.3257

> <Gold.Chemscore.DEInternal.Weighted>
1.2580

> <Gold.Chemscore.Rot.Weighted>
6.8791

> <Gold.Chemscore.Internal.Correction.Weighted>
   9.000000E+99

> <Gold.Protein.RotatedTorsions>
[ 6907 6896 6895 6894 ] final -101.56 input  -60.11 | X-H torsion
[ 7974 7965 7964 7962 ] final -156.99 input  175.53 | X-H torsion
[ 8008 7997 7996 7995 ] final   71.02 input   59.86 | X-H torsion
[ 10167 10162 10161 10158 ] final   89.08 input  -65.29 | X-H torsion
[ 10718 10713 10712 10709 ] final   -5.79 input   66.30 | X-H torsion
[ 10763 10752 10751 10750 ] final  -89.98 input  -60.55 | X-H torsion
[ 11005 11000 10999 10996 ] final  143.21 input  -57.11 | X-H torsion

> <Gold.Protein.ActiveResidues>
 VAL166  LYS551  ARG553  GLY616  TRP617  ASP618  TYR619  PRO620  LYS621  CYS622 
 ASP623  PHE694  ASN695  SER759  ASP760  ASP761  ALA762  ILE779  LEU786  VAL792 
 PHE793  MET794  SER795  GLU796  ALA797  LYS798  CYS799  TRP800  GLU811  SER814 

> <Gold.Protein.RotatedAtoms>
  150.7160  134.0715  159.3865 H   0  0  0  0  0  0  0  0  0  0  0  0  # atno 6907 bound_to 6896
  151.8697  135.0491  160.0487 H   0  0  0  0  0  0  0  0  0  0  0  0  # atno 6908 bound_to 6896
  152.2652  133.5297  159.5442 H   0  0  0  0  0  0  0  0  0  0  0  0  # atno 6909 bound_to 6896
  144.7568  140.4032  143.6006 H   0  0  0  0  0  0  0  0  0  0  0  0  # atno 7974 bound_to 7965
  155.7475  140.3489  155.5134 H   0  0  0  0  0  0  0  0  0  0  0  0  # atno 8008 bound_to 7997
  155.9036  140.1038  157.1353 H   0  0  0  0  0  0  0  0  0  0  0  0  # atno 8009 bound_to 7997
  154.4047  140.1281  156.4454 H   0  0  0  0  0  0  0  0  0  0  0  0  # atno 8010 bound_to 7997
  139.8608  144.6545  150.9060 H   0  0  0  0  0  0  0  0  0  0  0  0  # atno 10167 bound_to 10162
  156.7413  130.5210  149.5823 H   0  0  0  0  0  0  0  0  0  0  0  0  # atno 10718 bound_to 10713
  154.6610  135.5321  153.8018 H   0  0  0  0  0  0  0  0  0  0  0  0  # atno 10763 bound_to 10752
  153.0442  135.6505  154.0872 H   0  0  0  0  0  0  0  0  0  0  0  0  # atno 10764 bound_to 10752
  154.0780  135.2949  155.3275 H   0  0  0  0  0  0  0  0  0  0  0  0  # atno 10765 bound_to 10752
  140.0536  134.9242  157.1061 H   0  0  0  0  0  0  0  0  0  0  0  0  # atno 11005 bound_to 11000
  145.6752  139.1607  143.2732 LP  0  0  0  0  0  0  0  0  0  0  0  0  # atno 17320 bound_to 7965
  146.1587  140.6819  142.9287 LP  0  0  0  0  0  0  0  0  0  0  0  0  # atno 17321 bound_to 7965
  140.7775  143.3745  151.1587 LP  0  0  0  0  0  0  0  0  0  0  0  0  # atno 17342 bound_to 10162
  139.7375  143.8976  152.3039 LP  0  0  0  0  0  0  0  0  0  0  0  0  # atno 17343 bound_to 10162
  156.1462  130.6279  151.0535 LP  0  0  0  0  0  0  0  0  0  0  0  0  # atno 17370 bound_to 10713
  157.6817  131.0836  150.7352 LP  0  0  0  0  0  0  0  0  0  0  0  0  # atno 17371 bound_to 10713
  140.3878  134.2217  155.7167 LP  0  0  0  0  0  0  0  0  0  0  0  0  # atno 17394 bound_to 11000
  141.1942  133.8134  157.0768 LP  0  0  0  0  0  0  0  0  0  0  0  0  # atno 17395 bound_to 11000

$$$$
