AV-unprocessed.smi:438|AV-procd|sdf|2568|dock4
  -GOLD-   2262022543D 1   1.00000     0.00000
 Structure written by MMmdl.
 48 49  0  0  0  0  0  0  0  0  1 V2000
  145.5864  133.1993  161.9678 C   0  0  0  0  0  0  0  0  0  0  0  0
  146.4339  133.4854  160.7410 C   0  0  0  0  0  0  0  0  0  0  0  0
  146.2079  132.6324  159.6761 N   0  0  0  0  0  0  0  0  0  0  0  0
  146.8868  132.8478  158.4871 C   0  0  0  0  0  0  0  0  0  0  0  0
  146.3318  131.6520  157.2326 S   0  0  0  0  0  0  0  0  0  0  0  0
  145.1218  132.6115  156.2713 C   0  0  0  0  0  0  0  0  0  0  0  0
  145.7005  133.1048  154.9457 C   0  0  0  0  0  0  0  0  0  0  0  0
  146.7911  133.6744  154.9248 O   0  0  0  0  0  0  0  0  0  0  0  0
  144.9740  132.8556  153.8456 N   0  0  0  0  0  0  0  0  0  0  0  0
  145.3830  133.1358  152.4699 C   0  0  1  0  0  0  0  0  0  0  0  0
  145.7753  131.8306  151.7420 C   0  0  0  0  0  0  0  0  0  0  0  0
  144.5591  130.9278  151.4719 C   0  0  0  0  0  0  0  0  0  0  0  0
  143.4740  131.6837  150.6920 C   0  0  0  0  0  0  0  0  0  0  0  0
  143.0611  132.9753  151.4153 C   0  0  0  0  0  0  0  0  0  0  0  0
  144.2720  133.8891  151.6964 C   0  0  1  0  0  0  0  0  0  0  0  0
  143.8425  135.1935  152.3896 C   0  0  0  0  0  0  0  0  0  0  0  0
  147.7754  133.7838  158.3270 N   0  0  0  0  0  0  0  0  0  0  0  0
  148.0854  134.6487  159.3867 C   0  0  0  0  0  0  0  0  0  0  0  0
  148.9500  135.5136  159.2539 O   0  0  0  0  0  0  0  0  0  0  0  0
  147.3344  134.4936  160.6499 C   0  0  0  0  0  0  0  0  0  0  0  0
  147.6190  135.4686  161.7885 C   0  0  0  0  0  0  0  0  0  0  0  0
  146.4606  136.4528  162.0077 C   0  0  0  0  0  0  0  0  0  0  0  0
  146.3473  137.3139  160.8962 O   0  0  0  0  0  0  0  0  0  0  0  0
  145.0135  134.0839  162.2478 H   0  0  0  0  0  0  0  0  0  0  0  0
  146.2191  132.9157  162.8092 H   0  0  0  0  0  0  0  0  0  0  0  0
  144.8819  132.3858  161.7899 H   0  0  0  0  0  0  0  0  0  0  0  0
  144.8322  133.4790  156.8650 H   0  0  0  0  0  0  0  0  0  0  0  0
  144.2115  132.0334  156.1078 H   0  0  0  0  0  0  0  0  0  0  0  0
  144.0901  132.3817  153.9653 H   0  0  0  0  0  0  0  0  0  0  0  0
  146.2606  133.7839  152.5036 H   0  0  0  0  0  0  0  0  0  0  0  0
  146.2487  132.0816  150.7920 H   0  0  0  0  0  0  0  0  0  0  0  0
  146.5249  131.2830  152.3145 H   0  0  0  0  0  0  0  0  0  0  0  0
  144.8693  130.0447  150.9133 H   0  0  0  0  0  0  0  0  0  0  0  0
  144.1489  130.5643  152.4143 H   0  0  0  0  0  0  0  0  0  0  0  0
  143.8443  131.9269  149.6954 H   0  0  0  0  0  0  0  0  0  0  0  0
  142.6045  131.0423  150.5501 H   0  0  0  0  0  0  0  0  0  0  0  0
  142.3244  133.5080  150.8132 H   0  0  0  0  0  0  0  0  0  0  0  0
  142.5647  132.7254  152.3520 H   0  0  0  0  0  0  0  0  0  0  0  0
  144.6923  134.1713  150.7298 H   0  0  0  0  0  0  0  0  0  0  0  0
  143.3545  135.0017  153.3457 H   0  0  0  0  0  0  0  0  0  0  0  0
  143.1399  135.7509  151.7698 H   0  0  0  0  0  0  0  0  0  0  0  0
  144.7001  135.8398  152.5767 H   0  0  0  0  0  0  0  0  0  0  0  0
  145.5190  131.9024  159.7894 H   0  0  0  0  0  0  0  0  0  0  0  0
  148.5413  136.0126  161.5787 H   0  0  0  0  0  0  0  0  0  0  0  0
  147.8111  134.9236  162.7125 H   0  0  0  0  0  0  0  0  0  0  0  0
  145.5180  135.9205  162.1363 H   0  0  0  0  0  0  0  0  0  0  0  0
  146.6249  137.0490  162.9060 H   0  0  0  0  0  0  0  0  0  0  0  0
  145.6338  137.0136  160.3539 H   0  0  0  0  0  0  0  0  0  0  0  0
  1 24  1  0  0  0  0
  1 25  1  0  0  0  0
  1 26  1  0  0  0  0
  1  2  1  0  0  0  0
  2 20  2  0  0  0  0
  2  3  1  0  0  0  0
  3  4  1  0  0  0  0
  3 43  1  0  0  0  0
  4  5  1  0  0  0  0
  4 17  2  0  0  0  0
  5  6  1  0  0  0  0
  6  7  1  0  0  0  0
  6 27  1  0  0  0  0
  6 28  1  0  0  0  0
  7  8  2  0  0  0  0
  7  9  1  0  0  0  0
  9 10  1  0  0  0  0
  9 29  1  0  0  0  0
 10 15  1  0  0  0  0
 10 11  1  0  0  0  0
 10 30  1  0  0  0  0
 11 12  1  0  0  0  0
 11 31  1  0  0  0  0
 11 32  1  0  0  0  0
 12 13  1  0  0  0  0
 12 33  1  0  0  0  0
 12 34  1  0  0  0  0
 13 14  1  0  0  0  0
 13 35  1  0  0  0  0
 13 36  1  0  0  0  0
 14 15  1  0  0  0  0
 14 37  1  0  0  0  0
 14 38  1  0  0  0  0
 15 16  1  0  0  0  0
 15 39  1  0  0  0  0
 16 40  1  0  0  0  0
 16 41  1  0  0  0  0
 16 42  1  0  0  0  0
 17 18  1  0  0  0  0
 18 19  2  0  0  0  0
 18 20  1  0  0  0  0
 20 21  1  0  0  0  0
 21 22  1  0  0  0  0
 21 44  1  0  0  0  0
 21 45  1  0  0  0  0
 22 23  1  0  0  0  0
 22 46  1  0  0  0  0
 22 47  1  0  0  0  0
 23 48  1  0  0  0  0
M  END
> <s_m_source_file>
AV-unprocessed.smi

> <i_m_source_file_index>
438

> <i_lp_mmshare_version>
43012

> <i_f3d_flags>
0

> <s_epik_input>
W09IXVtDSDJdW0NIMl1jMWMoW09IXSluYyhuYzFbQ0gzXSlTW0NIMl1DKD1PKVtOSF1bQ0BASF0yW0NIMl1bQ0gyXVtDSDJdW0NIMl1bQ0BIXTJbQ0gzXQ==

> <s_epik_cmdline>
J2VwaWtfcHl0aG9uJywgJy1waCcsICc3LjAnLCAnLXRuJywgJzgnLCAnLW1hJywgJzIwMCcsICctbWV0YWxfYmluZGluZycsICctaW1hZScsICc8aW5maWxlLm1hZT4nLCAnLW9tYWUnLCAnPG91dGZpbGUubWFlPic=

> <r_lp_tautomer_probability>
0.273662

> <r_epik_Ionization_Penalty>
0.0875285

> <r_epik_Ionization_Penalty_Charging>
0.0875254

> <r_epik_Ionization_Penalty_Neutral>
3.01536e-06

> <r_epik_State_Penalty>
0.985796

> <r_epik_Charging_Adjusted_Penalty>
1.07332

> <i_epik_Tot_Q>
0

> <i_epik_Tot_abs_Q>
0

> <r_epik_Metal_State_Penalty>
1.58101

> <b_epik_Metal_Only>
0

> <s_lp_Force_Field>
OPLS_2005

> <r_lp_Energy>
13.0189

> <b_lp_Chiralities_Consistent>
1

> <s_lp_Variant>
AV-unprocessed.smi:438-6

> <Gold.Version>
5.8.1

> <Gold.Id.Protein>
6NUR|6NUR_protein|mol2

> <Gold.PLP.Fitness>
39.5566

> <Gold.PLP.PLP>
-32.7563

> <Gold.PLP.part.hbond>
-2.9302

> <Gold.PLP.part.metal>
0.0000

> <Gold.PLP.part.buried>
-5.9729

> <Gold.PLP.part.nonpolar>
-24.8542

> <Gold.PLP.part.repulsive>
0.0307

> <Gold.PLP.ligand.clash>
0.0000

> <Gold.PLP.ligand.torsion>
0.9808

> <Gold.PLP.Chemscore.Hbond>
2.9100

> <Gold.PLP.Chemscore.CHOScore>
0.0000

> <Gold.PLP.Chemscore.Metal>
0.0000

> <Gold.Chemscore.Hbonds>
donor molecule, donor type, donor heavy atom, donor atom, acceptor molecule, acceptor atom, score
      L1  H     9    29       P1 10957  1.00
      P1  H  6896  6907       L1    19  1.00
      P1  H  6934  6947       L1    23  1.00

> <Gold.PLP.Chemscore.Internal.Correction>
0.0320

> <Gold.Rescore>
     Score         DG    S(hbond)    S(metal)    S(lipo)     H(rot)  DE(clash)    DE(int)     intcor
     15.76     -16.97       2.78        0.00      81.38       2.86       0.07       1.13       ----

> <Gold.Chemscore.Fitness>
15.7640

> <Gold.Chemscore.DG>
-16.9653

> <Gold.Chemscore.ZeroCoef>
-5.4800

> <Gold.Chemscore.Hbond>
2.7834

> <Gold.Chemscore.Metal>
0.0000

> <Gold.Chemscore.Lipo>
81.3842

> <Gold.Chemscore.Internal_Hbond>
0.0000

> <Gold.Chemscore.DEClash>
0.0726

> <Gold.Chemscore.DEInternal>
1.1286

> <Gold.Chemscore.Rot>
2.8645

> <Gold.Chemscore.Internal.Correction>
   9.000000E+99

> <Gold.Chemscore.Hbonds>
donor molecule, donor type, donor heavy atom, donor atom, acceptor molecule, acceptor atom, score
      L1  H     9    29       P1 10957  0.45
      P1  H  6896  6907       L1    19  0.75
      P1  H  6934  6947       L1    23  0.98

> <Gold.Chemscore.Hbond.Weighted>
-9.2964

> <Gold.Chemscore.Metal.Weighted>
-0.0000

> <Gold.Chemscore.Lipo.Weighted>
-9.5220

> <Gold.Chemscore.Internal_Hbond.Weighted>
0.0000

> <Gold.Chemscore.DEClash.Weighted>
0.0726

> <Gold.Chemscore.DEInternal.Weighted>
1.1286

> <Gold.Chemscore.Rot.Weighted>
7.3331

> <Gold.Chemscore.Internal.Correction.Weighted>
   9.000000E+99

> <Gold.Protein.RotatedTorsions>
[ 6907 6896 6895 6894 ] final  -55.22 input  -60.11 | X-H torsion
[ 7974 7965 7964 7962 ] final -152.75 input  175.53 | X-H torsion
[ 8008 7997 7996 7995 ] final  118.29 input   59.86 | X-H torsion
[ 10167 10162 10161 10158 ] final -140.77 input  -65.29 | X-H torsion
[ 10718 10713 10712 10709 ] final  -46.94 input   66.30 | X-H torsion
[ 10763 10752 10751 10750 ] final -122.21 input  -60.55 | X-H torsion
[ 11005 11000 10999 10996 ] final  176.96 input  -57.11 | X-H torsion

> <Gold.Protein.ActiveResidues>
 VAL166  LYS551  ARG553  GLY616  TRP617  ASP618  TYR619  PRO620  LYS621  CYS622 
 ASP623  PHE694  ASN695  SER759  ASP760  ASP761  ALA762  ILE779  LEU786  VAL792 
 PHE793  MET794  SER795  GLU796  ALA797  LYS798  CYS799  TRP800  GLU811  SER814 

> <Gold.Protein.RotatedAtoms>
  150.8270  134.7506  159.6821 H   0  0  0  0  0  0  0  0  0  0  0  0  # atno 6907 bound_to 6896
  152.4380  134.5645  159.9913 H   0  0  0  0  0  0  0  0  0  0  0  0  # atno 6908 bound_to 6896
  151.5815  133.3339  159.3045 H   0  0  0  0  0  0  0  0  0  0  0  0  # atno 6909 bound_to 6896
  144.7777  140.4620  143.5861 H   0  0  0  0  0  0  0  0  0  0  0  0  # atno 7974 bound_to 7965
  156.2538  140.2878  156.0811 H   0  0  0  0  0  0  0  0  0  0  0  0  # atno 8008 bound_to 7997
  155.1566  140.0398  157.2850 H   0  0  0  0  0  0  0  0  0  0  0  0  # atno 8009 bound_to 7997
  154.6423  140.2525  155.7315 H   0  0  0  0  0  0  0  0  0  0  0  0  # atno 8010 bound_to 7997
  139.8249  143.7524  152.2666 H   0  0  0  0  0  0  0  0  0  0  0  0  # atno 10167 bound_to 10162
  156.2133  130.4162  149.9086 H   0  0  0  0  0  0  0  0  0  0  0  0  # atno 10718 bound_to 10713
  154.8685  135.4141  154.2745 H   0  0  0  0  0  0  0  0  0  0  0  0  # atno 10763 bound_to 10752
  153.3649  135.7005  153.6689 H   0  0  0  0  0  0  0  0  0  0  0  0  # atno 10764 bound_to 10752
  153.5574  135.3616  155.2757 H   0  0  0  0  0  0  0  0  0  0  0  0  # atno 10765 bound_to 10752
  140.3789  134.6964  157.4438 H   0  0  0  0  0  0  0  0  0  0  0  0  # atno 11005 bound_to 11000
  145.6138  139.1516  143.3061 LP  0  0  0  0  0  0  0  0  0  0  0  0  # atno 17320 bound_to 7965
  146.1967  140.6252  142.9121 LP  0  0  0  0  0  0  0  0  0  0  0  0  # atno 17321 bound_to 7965
  139.7714  144.7475  151.0219 LP  0  0  0  0  0  0  0  0  0  0  0  0  # atno 17342 bound_to 10162
  140.7811  143.4641  151.0237 LP  0  0  0  0  0  0  0  0  0  0  0  0  # atno 17343 bound_to 10162
  156.6757  130.8838  151.3569 LP  0  0  0  0  0  0  0  0  0  0  0  0  # atno 17370 bound_to 10713
  157.7050  130.9375  150.0902 LP  0  0  0  0  0  0  0  0  0  0  0  0  # atno 17371 bound_to 10713
  140.0494  134.6152  155.8880 LP  0  0  0  0  0  0  0  0  0  0  0  0  # atno 17394 bound_to 11000
  141.1930  133.6577  156.5528 LP  0  0  0  0  0  0  0  0  0  0  0  0  # atno 17395 bound_to 11000

$$$$
