AV-unprocessed.smi:2001|AV-procd|sdf|8109|dock8
  -GOLD-   2272010333D 1   1.00000     0.00000
 Structure written by MMmdl.
 50 51  0  0  0  0  0  0  0  0  3 V2000
  152.4895  141.4271  159.6475 C   0  0  0  0  0  0  0  0  0  0  0  0
  153.0780  140.4880  158.7652 O   0  0  0  0  0  0  0  0  0  0  0  0
  152.2456  139.3635  158.5357 C   0  0  0  0  0  0  0  0  0  0  0  0
  151.0589  139.7932  157.6599 C   0  0  0  0  0  0  0  0  0  0  0  0
  150.6778  138.7388  156.7150 N   0  0  0  0  0  0  0  0  0  0  0  0
  150.1596  137.6037  157.3151 N   0  0  0  0  0  0  0  0  0  0  0  0
  149.7781  136.5975  156.5962 C   0  0  0  0  0  0  0  0  0  0  0  0
  149.2174  135.3685  157.2448 C   0  0  0  0  0  0  0  0  0  0  0  0
  148.9307  135.4898  158.4437 O   0  0  0  0  0  0  0  0  0  0  0  0
  149.0651  134.2329  156.4982 N   0  5  0  0  0  0  0  0  0  0  0  0
  148.0120  134.0045  155.5106 C   0  0  0  0  0  0  0  0  0  0  0  0
  148.6179  134.0235  154.0939 C   0  0  0  0  0  0  0  0  0  0  0  0
  147.5743  134.1392  153.0405 N   0  3  1  0  0  0  0  0  0  0  0  0
  147.2466  132.8389  152.4075 C   0  0  0  0  0  0  0  0  0  0  0  0
  146.2335  133.0361  151.2641 C   0  0  1  0  0  0  0  0  0  0  0  0
  145.8094  131.7052  150.6334 C   0  0  0  0  0  0  0  0  0  0  0  0
  145.0695  133.6766  151.7761 O   0  0  0  0  0  0  0  0  0  0  0  0
  145.3459  134.9646  152.3164 C   0  0  1  0  0  0  0  0  0  0  0  0
  144.0194  135.5987  152.7489 C   0  0  0  0  0  0  0  0  0  0  0  0
  146.3290  134.8139  153.4919 C   0  0  0  0  0  0  0  0  0  0  0  0
  149.8870  136.6466  155.1430 C   0  0  0  0  0  0  0  0  0  0  0  0
  150.3889  137.7634  154.5722 C   0  0  0  0  0  0  0  0  0  0  0  0
  150.8226  138.9120  155.3674 C   0  0  0  0  0  0  0  0  0  0  0  0
  151.2737  139.9433  154.8695 O   0  0  0  0  0  0  0  0  0  0  0  0
  153.1658  142.2701  159.7896 H   0  0  0  0  0  0  0  0  0  0  0  0
  152.2962  140.9825  160.6246 H   0  0  0  0  0  0  0  0  0  0  0  0
  151.5515  141.8123  159.2458 H   0  0  0  0  0  0  0  0  0  0  0  0
  152.8123  138.5749  158.0379 H   0  0  0  0  0  0  0  0  0  0  0  0
  151.8913  138.9647  159.4876 H   0  0  0  0  0  0  0  0  0  0  0  0
  150.2097  140.0669  158.2886 H   0  0  0  0  0  0  0  0  0  0  0  0
  151.3210  140.7028  157.1161 H   0  0  0  0  0  0  0  0  0  0  0  0
  147.5015  133.0523  155.6592 H   0  0  0  0  0  0  0  0  0  0  0  0
  147.2369  134.7687  155.5741 H   0  0  0  0  0  0  0  0  0  0  0  0
  149.2942  134.8778  154.0303 H   0  0  0  0  0  0  0  0  0  0  0  0
  149.2328  133.1393  153.9171 H   0  0  0  0  0  0  0  0  0  0  0  0
  148.1561  132.3824  152.0145 H   0  0  0  0  0  0  0  0  0  0  0  0
  146.8440  132.1596  153.1610 H   0  0  0  0  0  0  0  0  0  0  0  0
  146.6743  133.6628  150.4868 H   0  0  0  0  0  0  0  0  0  0  0  0
  146.6667  131.1803  150.2110 H   0  0  0  0  0  0  0  0  0  0  0  0
  145.0899  131.8661  149.8302 H   0  0  0  0  0  0  0  0  0  0  0  0
  145.3448  131.0489  151.3701 H   0  0  0  0  0  0  0  0  0  0  0  0
  145.7927  135.5908  151.5419 H   0  0  0  0  0  0  0  0  0  0  0  0
  144.1769  136.5973  153.1572 H   0  0  0  0  0  0  0  0  0  0  0  0
  143.5244  134.9986  153.5129 H   0  0  0  0  0  0  0  0  0  0  0  0
  143.3378  135.6904  151.9031 H   0  0  0  0  0  0  0  0  0  0  0  0
  145.8708  134.2334  154.2946 H   0  0  0  0  0  0  0  0  0  0  0  0
  146.5593  135.7975  153.9031 H   0  0  0  0  0  0  0  0  0  0  0  0
  149.5762  135.8205  154.5208 H   0  0  0  0  0  0  0  0  0  0  0  0
  150.4722  137.8118  153.4964 H   0  0  0  0  0  0  0  0  0  0  0  0
  147.9778  134.7125  152.3132 H   0  0  0  0  0  0  0  0  0  0  0  0
  1  2  1  0  0  0  0
  1 25  1  0  0  0  0
  1 26  1  0  0  0  0
  1 27  1  0  0  0  0
  2  3  1  0  0  0  0
  3  4  1  0  0  0  0
  3 28  1  0  0  0  0
  3 29  1  0  0  0  0
  4  5  1  0  0  0  0
  4 30  1  0  0  0  0
  4 31  1  0  0  0  0
  5 23  1  0  0  0  0
  5  6  1  0  0  0  0
  6  7  2  0  0  0  0
  7  8  1  0  0  0  0
  7 21  1  0  0  0  0
  8  9  2  0  0  0  0
  8 10  1  0  0  0  0
 10 11  1  0  0  0  0
 11 12  1  0  0  0  0
 11 32  1  0  0  0  0
 11 33  1  0  0  0  0
 12 13  1  0  0  0  0
 12 34  1  0  0  0  0
 12 35  1  0  0  0  0
 13 20  1  0  0  0  0
 13 14  1  0  0  0  0
 13 50  1  0  0  0  0
 14 15  1  0  0  0  0
 14 36  1  0  0  0  0
 14 37  1  0  0  0  0
 15 16  1  0  0  0  0
 15 17  1  0  0  0  0
 15 38  1  0  0  0  0
 16 39  1  0  0  0  0
 16 40  1  0  0  0  0
 16 41  1  0  0  0  0
 17 18  1  0  0  0  0
 18 19  1  0  0  0  0
 18 20  1  0  0  0  0
 18 42  1  0  0  0  0
 19 43  1  0  0  0  0
 19 44  1  0  0  0  0
 19 45  1  0  0  0  0
 20 46  1  0  0  0  0
 20 47  1  0  0  0  0
 21 22  2  0  0  0  0
 21 48  1  0  0  0  0
 22 23  1  0  0  0  0
 22 49  1  0  0  0  0
 23 24  2  0  0  0  0
M  CHG  1  10  -1
M  CHG  1  13   1
M  END
> <s_m_source_file>
AV-unprocessed.smi

> <i_m_source_file_index>
2001

> <i_lp_mmshare_version>
43012

> <i_f3d_flags>
0

> <s_epik_input>
W0NIM11PW0NIMl1bQ0gyXW4xbmMoW2NIXVtjSF1jMT1PKUMoPU8pW05IXVtDSDJdW0NIMl1OMltDSDJdW0NAQEhdKFtDSDNdKU9bQ0BASF0oW0NIM10pW0NIMl0y

> <s_epik_cmdline>
J2VwaWtfcHl0aG9uJywgJy1waCcsICc3LjAnLCAnLXRuJywgJzgnLCAnLW1hJywgJzIwMCcsICctbWV0YWxfYmluZGluZycsICctaW1hZScsICc8aW5maWxlLm1hZT4nLCAnLW9tYWUnLCAnPG91dGZpbGUubWFlPic=

> <r_lp_tautomer_probability>
1

> <r_epik_Ionization_Penalty>
6.90846

> <r_epik_Ionization_Penalty_Charging>
6.90846

> <r_epik_Ionization_Penalty_Neutral>
1.08445e-11

> <r_epik_State_Penalty>
7.54671

> <r_epik_Charging_Adjusted_Penalty>
14.4552

> <i_epik_Tot_Q>
0

> <i_epik_Tot_abs_Q>
2

> <r_epik_Metal_State_Penalty>
3.46181

> <b_epik_Metal_Only>
1

> <s_lp_Force_Field>
OPLS_2005

> <r_lp_Energy>
40.5373

> <b_lp_Chiralities_Consistent>
1

> <s_lp_Variant>
AV-unprocessed.smi:2001-8

> <Gold.Version>
5.8.1

> <Gold.Id.Protein>
6NUR|6NUR_protein|mol2

> <Gold.PLP.Fitness>
42.8694

> <Gold.PLP.PLP>
-31.2400

> <Gold.PLP.part.hbond>
-4.0000

> <Gold.PLP.part.metal>
0.0000

> <Gold.PLP.part.buried>
-3.7740

> <Gold.PLP.part.nonpolar>
-23.6548

> <Gold.PLP.part.repulsive>
0.1328

> <Gold.PLP.ligand.clash>
0.0000

> <Gold.PLP.ligand.torsion>
1.7031

> <Gold.PLP.Chemscore.Hbond>
4.9760

> <Gold.PLP.Chemscore.CHOScore>
0.0000

> <Gold.PLP.Chemscore.Metal>
0.0000

> <Gold.Chemscore.Hbonds>
donor molecule, donor type, donor heavy atom, donor atom, acceptor molecule, acceptor atom, score
      L1  H    13    50       P1  7948  1.98
      P1  H  6896  6909       L1     9  0.44
      P1  H  7989  7998       L1    24  1.00
      P1  H  7997  8008       L1     2  0.18

> <Gold.PLP.Chemscore.Internal.Correction>
0.1077

> <Gold.Rescore>
     Score         DG    S(hbond)    S(metal)    S(lipo)     H(rot)  DE(clash)    DE(int)     intcor
     19.61     -21.56       3.92        0.00      69.58       2.02       0.00       1.95       ----

> <Gold.Chemscore.Fitness>
19.6071

> <Gold.Chemscore.DG>
-21.5569

> <Gold.Chemscore.ZeroCoef>
-5.4800

> <Gold.Chemscore.Hbond>
3.9227

> <Gold.Chemscore.Metal>
0.0000

> <Gold.Chemscore.Lipo>
69.5803

> <Gold.Chemscore.Internal_Hbond>
0.0000

> <Gold.Chemscore.DEClash>
0.0000

> <Gold.Chemscore.DEInternal>
1.9498

> <Gold.Chemscore.Rot>
2.0179

> <Gold.Chemscore.Internal.Correction>
   9.000000E+99

> <Gold.Chemscore.Hbonds>
donor molecule, donor type, donor heavy atom, donor atom, acceptor molecule, acceptor atom, score
      L1  H    13    50       P1  7948  0.47
      P1  H  6896  6909       L1     9  0.19
      P1  H  7989  7998       L1    24  1.00
      P1  H  7997  8008       L1     2  0.04

> <Gold.Chemscore.Hbond.Weighted>
-13.1018

> <Gold.Chemscore.Metal.Weighted>
-0.0000

> <Gold.Chemscore.Lipo.Weighted>
-8.1409

> <Gold.Chemscore.Internal_Hbond.Weighted>
0.0000

> <Gold.Chemscore.DEClash.Weighted>
0.0000

> <Gold.Chemscore.DEInternal.Weighted>
1.9498

> <Gold.Chemscore.Rot.Weighted>
5.1659

> <Gold.Chemscore.Internal.Correction.Weighted>
   9.000000E+99

> <Gold.Protein.RotatedTorsions>
[ 6907 6896 6895 6894 ] final   45.06 input  -60.11 | X-H torsion
[ 7974 7965 7964 7962 ] final   12.43 input  175.53 | X-H torsion
[ 8008 7997 7996 7995 ] final  -94.17 input   59.86 | X-H torsion
[ 10167 10162 10161 10158 ] final -178.50 input  -65.29 | X-H torsion
[ 10718 10713 10712 10709 ] final  109.56 input   66.30 | X-H torsion
[ 10763 10752 10751 10750 ] final   -5.98 input  -60.55 | X-H torsion
[ 11005 11000 10999 10996 ] final   33.15 input  -57.11 | X-H torsion

> <Gold.Protein.ActiveResidues>
 VAL166  LYS551  ARG553  GLY616  TRP617  ASP618  TYR619  PRO620  LYS621  CYS622 
 ASP623  PHE694  ASN695  SER759  ASP760  ASP761  ALA762  ILE779  LEU786  VAL792 
 PHE793  MET794  SER795  GLU796  ALA797  LYS798  CYS799  TRP800  GLU811  SER814 

> <Gold.Protein.RotatedAtoms>
  152.2400  134.8238  160.0461 H   0  0  0  0  0  0  0  0  0  0  0  0  # atno 6907 bound_to 6896
  151.8956  133.3521  159.3821 H   0  0  0  0  0  0  0  0  0  0  0  0  # atno 6908 bound_to 6896
  150.7051  134.4806  159.5513 H   0  0  0  0  0  0  0  0  0  0  0  0  # atno 6909 bound_to 6896
  146.2351  139.9338  142.8492 H   0  0  0  0  0  0  0  0  0  0  0  0  # atno 7974 bound_to 7965
  154.7450  140.0492  157.0844 H   0  0  0  0  0  0  0  0  0  0  0  0  # atno 8008 bound_to 7997
  155.0130  140.3138  155.4803 H   0  0  0  0  0  0  0  0  0  0  0  0  # atno 8009 bound_to 7997
  156.2873  140.2181  156.5245 H   0  0  0  0  0  0  0  0  0  0  0  0  # atno 8010 bound_to 7997
  139.5429  144.2313  152.0932 H   0  0  0  0  0  0  0  0  0  0  0  0  # atno 10167 bound_to 10162
  157.6536  131.0916  150.6472 H   0  0  0  0  0  0  0  0  0  0  0  0  # atno 10718 bound_to 10713
  153.4061  135.7006  153.6392 H   0  0  0  0  0  0  0  0  0  0  0  0  # atno 10763 bound_to 10752
  153.4905  135.3674  155.2490 H   0  0  0  0  0  0  0  0  0  0  0  0  # atno 10764 bound_to 10752
  154.8714  135.4088  154.3404 H   0  0  0  0  0  0  0  0  0  0  0  0  # atno 10765 bound_to 10752
  140.2660  134.3137  155.7842 H   0  0  0  0  0  0  0  0  0  0  0  0  # atno 11005 bound_to 11000
  145.2018  140.9858  143.4151 LP  0  0  0  0  0  0  0  0  0  0  0  0  # atno 17320 bound_to 7965
  144.9767  139.3825  143.6282 LP  0  0  0  0  0  0  0  0  0  0  0  0  # atno 17321 bound_to 7965
  140.1794  144.4859  150.6536 LP  0  0  0  0  0  0  0  0  0  0  0  0  # atno 17342 bound_to 10162
  140.6667  143.2270  151.5726 LP  0  0  0  0  0  0  0  0  0  0  0  0  # atno 17343 bound_to 10162
  156.6780  130.4559  149.5636 LP  0  0  0  0  0  0  0  0  0  0  0  0  # atno 17370 bound_to 10713
  156.1949  130.6583  151.1103 LP  0  0  0  0  0  0  0  0  0  0  0  0  # atno 17371 bound_to 10713
  141.2184  133.7438  156.9261 LP  0  0  0  0  0  0  0  0  0  0  0  0  # atno 17394 bound_to 11000
  140.1418  134.9288  157.2477 LP  0  0  0  0  0  0  0  0  0  0  0  0  # atno 17395 bound_to 11000

$$$$
