AV-unprocessed.smi:1939|AV-procd|sdf|7836|dock1
  -GOLD-   22720 9583D 1   1.00000     0.00000
 Structure written by MMmdl.
 29 30  0  0  0  0  0  0  0  0  1 V2000
  148.9530  140.2741  156.9202 O   0  0  0  0  0  0  0  0  0  0  0  0
  149.5056  141.0626  156.1515 C   0  0  0  0  0  0  0  0  0  0  0  0
  151.0248  141.2844  156.1992 C   0  0  0  0  0  0  0  0  0  0  0  0
  151.4905  141.9078  157.4501 N   0  0  0  0  0  0  0  0  0  0  0  0
  150.9930  143.1913  157.7368 C   0  0  0  0  0  0  0  0  0  0  0  0
  151.3429  143.8522  158.8481 C   0  0  0  0  0  0  0  0  0  0  0  0
  152.2578  143.2128  159.7618 C   0  0  0  0  0  0  0  0  0  0  0  0
  152.7489  141.9760  159.5165 C   0  0  0  0  0  0  0  0  0  0  0  0
  153.7187  141.2858  160.4732 C   0  0  0  0  0  0  0  0  0  0  0  0
  153.6396  141.8247  161.6903 F   0  0  0  0  0  0  0  0  0  0  0  0
  153.4339  139.9868  160.5735 F   0  0  0  0  0  0  0  0  0  0  0  0
  154.9827  141.3944  160.0608 F   0  0  0  0  0  0  0  0  0  0  0  0
  152.3509  141.2536  158.2906 C   0  0  0  0  0  0  0  0  0  0  0  0
  152.7646  140.1231  158.0282 O   0  0  0  0  0  0  0  0  0  0  0  0
  148.8435  141.7787  155.2312 N   0  0  0  0  0  0  0  0  0  0  0  0
  147.4344  141.7422  155.0073 C   0  0  0  0  0  0  0  0  0  0  0  0
  146.9534  141.3628  153.6235 C   0  0  0  0  0  0  0  0  0  0  0  0
  146.8411  142.7884  154.0885 C   0  0  0  0  0  0  0  0  0  0  0  0
  151.5236  140.3284  156.0307 H   0  0  0  0  0  0  0  0  0  0  0  0
  151.3119  141.9048  155.3487 H   0  0  0  0  0  0  0  0  0  0  0  0
  150.3084  143.5940  157.0043 H   0  0  0  0  0  0  0  0  0  0  0  0
  150.9477  144.8355  159.0567 H   0  0  0  0  0  0  0  0  0  0  0  0
  152.5457  143.7464  160.6554 H   0  0  0  0  0  0  0  0  0  0  0  0
  149.3794  142.3999  154.6423 H   0  0  0  0  0  0  0  0  0  0  0  0
  146.8042  141.4192  155.8349 H   0  0  0  0  0  0  0  0  0  0  0  0
  147.7027  141.1398  152.8661 H   0  0  0  0  0  0  0  0  0  0  0  0
  146.0348  140.7837  153.5535 H   0  0  0  0  0  0  0  0  0  0  0  0
  145.8477  143.1617  154.3291 H   0  0  0  0  0  0  0  0  0  0  0  0
  147.5162  143.5169  153.6435 H   0  0  0  0  0  0  0  0  0  0  0  0
  1  2  2  0  0  0  0
  2  3  1  0  0  0  0
  2 15  1  0  0  0  0
  3  4  1  0  0  0  0
  3 19  1  0  0  0  0
  3 20  1  0  0  0  0
  4 13  1  0  0  0  0
  4  5  1  0  0  0  0
  5  6  2  0  0  0  0
  5 21  1  0  0  0  0
  6  7  1  0  0  0  0
  6 22  1  0  0  0  0
  7  8  2  0  0  0  0
  7 23  1  0  0  0  0
  8  9  1  0  0  0  0
  8 13  1  0  0  0  0
  9 10  1  0  0  0  0
  9 11  1  0  0  0  0
  9 12  1  0  0  0  0
 13 14  2  0  0  0  0
 15 16  1  0  0  0  0
 15 24  1  0  0  0  0
 16 18  1  0  0  0  0
 16 17  1  0  0  0  0
 16 25  1  0  0  0  0
 17 18  1  0  0  0  0
 17 26  1  0  0  0  0
 17 27  1  0  0  0  0
 18 28  1  0  0  0  0
 18 29  1  0  0  0  0
M  END
> <s_m_source_file>
AV-unprocessed.smi

> <i_m_source_file_index>
1939

> <i_lp_mmshare_version>
43012

> <i_f3d_flags>
0

> <s_epik_input>
W0NIMl0xW0NIMl1bQ0hdMVtOSF1DKD1PKVtDSDJdbjJbY0hdW2NIXVtjSF1jKEMoRikoRilGKWMyPU8=

> <s_epik_cmdline>
J2VwaWtfcHl0aG9uJywgJy1waCcsICc3LjAnLCAnLXRuJywgJzgnLCAnLW1hJywgJzIwMCcsICctbWV0YWxfYmluZGluZycsICctaW1hZScsICc8aW5maWxlLm1hZT4nLCAnLW9tYWUnLCAnPG91dGZpbGUubWFlPic=

> <r_lp_tautomer_probability>
1

> <r_epik_Ionization_Penalty>
2.25843e-08

> <r_epik_Ionization_Penalty_Charging>
1.91398e-09

> <r_epik_Ionization_Penalty_Neutral>
2.06703e-08

> <r_epik_State_Penalty>
-0

> <r_epik_Charging_Adjusted_Penalty>
1.91398e-09

> <i_epik_Tot_Q>
0

> <i_epik_Tot_abs_Q>
0

> <r_epik_Metal_State_Penalty>
-0

> <b_epik_Metal_Only>
0

> <s_lp_Force_Field>
OPLS_2005

> <r_lp_Energy>
25.9148

> <b_lp_Chiralities_Consistent>
1

> <s_lp_Variant>
AV-unprocessed.smi:1939-1

> <Gold.Version>
5.8.1

> <Gold.Id.Protein>
6NUR|6NUR_protein|mol2

> <Gold.PLP.Fitness>
44.2855

> <Gold.PLP.PLP>
-39.8685

> <Gold.PLP.part.hbond>
-2.0000

> <Gold.PLP.part.metal>
0.0000

> <Gold.PLP.part.buried>
-4.1212

> <Gold.PLP.part.nonpolar>
-33.6955

> <Gold.PLP.part.repulsive>
0.1689

> <Gold.PLP.ligand.clash>
0.0454

> <Gold.PLP.ligand.torsion>
0.9555

> <Gold.PLP.Chemscore.Hbond>
1.0000

> <Gold.PLP.Chemscore.CHOScore>
1.0000

> <Gold.PLP.Chemscore.Metal>
0.0000

> <Gold.Chemscore.Hbonds>
donor molecule, donor type, donor heavy atom, donor atom, acceptor molecule, acceptor atom, score
      P1  H  7997  8010       L1    14  0.93
      L1  C     5    21       P1  8028  1.00

> <Gold.PLP.Chemscore.Internal.Correction>
0.3734

> <Gold.Rescore>
     Score         DG    S(hbond)    S(metal)    S(lipo)     H(rot)  DE(clash)    DE(int)     intcor
     11.40     -13.19       0.91        0.00      75.24       1.62       0.07       1.72       ----

> <Gold.Chemscore.Fitness>
11.3967

> <Gold.Chemscore.DG>
-13.1891

> <Gold.Chemscore.ZeroCoef>
-5.4800

> <Gold.Chemscore.Hbond>
0.9134

> <Gold.Chemscore.Metal>
0.0000

> <Gold.Chemscore.Lipo>
75.2449

> <Gold.Chemscore.Internal_Hbond>
0.0000

> <Gold.Chemscore.DEClash>
0.0740

> <Gold.Chemscore.DEInternal>
1.7184

> <Gold.Chemscore.Rot>
1.6192

> <Gold.Chemscore.Internal.Correction>
   9.000000E+99

> <Gold.Chemscore.Hbonds>
donor molecule, donor type, donor heavy atom, donor atom, acceptor molecule, acceptor atom, score
      P1  H  7997  8010       L1    14  0.77

> <Gold.Chemscore.Hbond.Weighted>
-3.0507

> <Gold.Chemscore.Metal.Weighted>
-0.0000

> <Gold.Chemscore.Lipo.Weighted>
-8.8037

> <Gold.Chemscore.Internal_Hbond.Weighted>
0.0000

> <Gold.Chemscore.DEClash.Weighted>
0.0740

> <Gold.Chemscore.DEInternal.Weighted>
1.7184

> <Gold.Chemscore.Rot.Weighted>
4.1452

> <Gold.Chemscore.Internal.Correction.Weighted>
   9.000000E+99

> <Gold.Protein.RotatedTorsions>
[ 6907 6896 6895 6894 ] final   29.54 input  -60.11 | X-H torsion
[ 7974 7965 7964 7962 ] final  176.80 input  175.53 | X-H torsion
[ 8008 7997 7996 7995 ] final   43.25 input   59.86 | X-H torsion
[ 10167 10162 10161 10158 ] final  -61.24 input  -65.29 | X-H torsion
[ 10718 10713 10712 10709 ] final -133.14 input   66.30 | X-H torsion
[ 10763 10752 10751 10750 ] final   23.90 input  -60.55 | X-H torsion
[ 11005 11000 10999 10996 ] final   18.73 input  -57.11 | X-H torsion

> <Gold.Protein.ActiveResidues>
 VAL166  LYS551  ARG553  GLY616  TRP617  ASP618  TYR619  PRO620  LYS621  CYS622 
 ASP623  PHE694  ASN695  SER759  ASP760  ASP761  ALA762  ILE779  LEU786  VAL792 
 PHE793  MET794  SER795  GLU796  ALA797  LYS798  CYS799  TRP800  GLU811  SER814 

> <Gold.Protein.RotatedAtoms>
  152.0330  134.9756  160.0572 H   0  0  0  0  0  0  0  0  0  0  0  0  # atno 6907 bound_to 6896
  152.1225  133.4357  159.4690 H   0  0  0  0  0  0  0  0  0  0  0  0  # atno 6908 bound_to 6896
  150.6850  134.2436  159.4525 H   0  0  0  0  0  0  0  0  0  0  0  0  # atno 6909 bound_to 6896
  144.7178  140.0151  143.6440 H   0  0  0  0  0  0  0  0  0  0  0  0  # atno 7974 bound_to 7965
  155.2996  140.3384  155.4248 H   0  0  0  0  0  0  0  0  0  0  0  0  # atno 8008 bound_to 7997
  156.2007  140.1732  156.7943 H   0  0  0  0  0  0  0  0  0  0  0  0  # atno 8009 bound_to 7997
  154.5556  140.0697  156.8722 H   0  0  0  0  0  0  0  0  0  0  0  0  # atno 8010 bound_to 7997
  140.6019  143.2363  151.5909 H   0  0  0  0  0  0  0  0  0  0  0  0  # atno 10167 bound_to 10162
  156.2418  130.7100  151.0965 H   0  0  0  0  0  0  0  0  0  0  0  0  # atno 10718 bound_to 10713
  153.0804  135.6617  154.0057 H   0  0  0  0  0  0  0  0  0  0  0  0  # atno 10763 bound_to 10752
  153.9681  135.2967  155.3430 H   0  0  0  0  0  0  0  0  0  0  0  0  # atno 10764 bound_to 10752
  154.7202  135.5168  153.8871 H   0  0  0  0  0  0  0  0  0  0  0  0  # atno 10765 bound_to 10752
  140.4216  134.1513  155.7673 H   0  0  0  0  0  0  0  0  0  0  0  0  # atno 11005 bound_to 11000
  146.0226  139.3264  143.0803 LP  0  0  0  0  0  0  0  0  0  0  0  0  # atno 17320 bound_to 7965
  145.8550  140.9508  143.0730 LP  0  0  0  0  0  0  0  0  0  0  0  0  # atno 17321 bound_to 7965
  139.5297  144.2952  152.1119 LP  0  0  0  0  0  0  0  0  0  0  0  0  # atno 17342 bound_to 10162
  140.2135  144.4539  150.6375 LP  0  0  0  0  0  0  0  0  0  0  0  0  # atno 17343 bound_to 10162
  157.7178  131.0699  150.6256 LP  0  0  0  0  0  0  0  0  0  0  0  0  # atno 17370 bound_to 10713
  156.6330  130.4437  149.5780 LP  0  0  0  0  0  0  0  0  0  0  0  0  # atno 17371 bound_to 10713
  141.1782  133.8470  157.1350 LP  0  0  0  0  0  0  0  0  0  0  0  0  # atno 17394 bound_to 11000
  140.0196  134.9952  157.0565 LP  0  0  0  0  0  0  0  0  0  0  0  0  # atno 17395 bound_to 11000

$$$$
