AV-unprocessed.smi:2520|AV-procd|sdf|9909|dock1
  -GOLD-   2272013543D 1   1.00000     0.00000
 Structure written by MMmdl.
 41 44  0  0  0  0  0  0  0  0  1 V2000
  145.5732  138.5741  152.9979 O   0  0  0  0  0  0  0  0  0  0  0  0
  146.5035  137.8578  152.6325 C   0  0  0  0  0  0  0  0  0  0  0  0
  147.7861  138.2064  152.8702 N   0  0  0  0  0  0  0  0  0  0  0  0
  148.3488  139.3432  153.5220 C   0  0  0  0  0  0  0  0  0  0  0  0
  147.5204  140.4859  153.5361 C   0  0  0  0  0  0  0  0  0  0  0  0
  147.9961  141.6508  154.1619 C   0  0  0  0  0  0  0  0  0  0  0  0
  149.2767  141.5949  154.7376 C   0  0  0  0  0  0  0  0  0  0  0  0
  150.0368  140.4795  154.7051 N   0  0  0  0  0  0  0  0  0  0  0  0
  149.5760  139.3760  154.1073 N   0  0  0  0  0  0  0  0  0  0  0  0
  146.3182  136.6998  151.9818 N   0  0  0  0  0  0  0  0  0  0  0  0
  145.0290  136.1021  151.6372 C   0  0  2  0  0  0  0  0  0  0  0  0
  144.1624  135.7938  152.8799 C   0  0  2  0  0  0  0  0  0  0  0  0
  144.4862  136.3279  154.2548 C   0  0  0  0  0  0  0  0  0  0  0  0
  145.2367  135.1619  154.9054 C   0  0  0  0  0  0  0  0  0  0  0  0
  145.6960  134.3666  153.8144 O   0  0  0  0  0  0  0  0  0  0  0  0
  144.6796  134.3653  152.8145 C   0  0  2  0  0  0  0  0  0  0  0  0
  145.1487  134.5850  151.3610 C   0  0  0  0  0  0  0  0  0  0  0  0
  146.4901  133.9767  150.9491 C   0  0  0  0  0  0  0  0  0  0  0  0
  146.1975  132.5715  150.4199 C   0  0  0  0  0  0  0  0  0  0  0  0
  144.7384  132.6038  149.9555 C   0  0  0  0  0  0  0  0  0  0  0  0
  144.2274  134.0095  150.2869 C   0  0  0  0  0  0  0  0  0  0  0  0
  148.4675  137.5588  152.5022 H   0  0  0  0  0  0  0  0  0  0  0  0
  146.5420  140.4733  153.0779 H   0  0  0  0  0  0  0  0  0  0  0  0
  147.4022  142.5520  154.1991 H   0  0  0  0  0  0  0  0  0  0  0  0
  149.6986  142.4569  155.2327 H   0  0  0  0  0  0  0  0  0  0  0  0
  147.1403  136.1769  151.7135 H   0  0  0  0  0  0  0  0  0  0  0  0
  144.4753  136.6334  150.8613 H   0  0  0  0  0  0  0  0  0  0  0  0
  143.1010  135.8367  152.6305 H   0  0  0  0  0  0  0  0  0  0  0  0
  145.1062  137.2234  154.2136 H   0  0  0  0  0  0  0  0  0  0  0  0
  143.5893  136.5813  154.8205 H   0  0  0  0  0  0  0  0  0  0  0  0
  146.0636  135.4921  155.5346 H   0  0  0  0  0  0  0  0  0  0  0  0
  144.5585  134.5652  155.5169 H   0  0  0  0  0  0  0  0  0  0  0  0
  143.9135  133.6039  152.9684 H   0  0  0  0  0  0  0  0  0  0  0  0
  146.9391  134.5738  150.1540 H   0  0  0  0  0  0  0  0  0  0  0  0
  147.2128  133.9498  151.7652 H   0  0  0  0  0  0  0  0  0  0  0  0
  146.8810  132.2933  149.6170 H   0  0  0  0  0  0  0  0  0  0  0  0
  146.3133  131.8391  151.2199 H   0  0  0  0  0  0  0  0  0  0  0  0
  144.6443  132.3891  148.8904 H   0  0  0  0  0  0  0  0  0  0  0  0
  144.1604  131.8521  150.4944 H   0  0  0  0  0  0  0  0  0  0  0  0
  143.1824  133.9897  150.5980 H   0  0  0  0  0  0  0  0  0  0  0  0
  144.2744  134.6283  149.3895 H   0  0  0  0  0  0  0  0  0  0  0  0
  1  2  2  0  0  0  0
  2  3  1  0  0  0  0
  2 10  1  0  0  0  0
  3  4  1  0  0  0  0
  3 22  1  0  0  0  0
  4  9  1  0  0  0  0
  4  5  2  0  0  0  0
  5  6  1  0  0  0  0
  5 23  1  0  0  0  0
  6  7  2  0  0  0  0
  6 24  1  0  0  0  0
  7  8  1  0  0  0  0
  7 25  1  0  0  0  0
  8  9  2  0  0  0  0
 10 11  1  0  0  0  0
 10 26  1  0  0  0  0
 11 17  1  0  0  0  0
 11 12  1  0  0  0  0
 11 27  1  0  0  0  0
 12 16  1  0  0  0  0
 12 13  1  0  0  0  0
 12 28  1  0  0  0  0
 13 14  1  0  0  0  0
 13 29  1  0  0  0  0
 13 30  1  0  0  0  0
 14 15  1  0  0  0  0
 14 31  1  0  0  0  0
 14 32  1  0  0  0  0
 15 16  1  0  0  0  0
 16 17  1  0  0  0  0
 16 33  1  0  0  0  0
 17 21  1  0  0  0  0
 17 18  1  0  0  0  0
 18 19  1  0  0  0  0
 18 34  1  0  0  0  0
 18 35  1  0  0  0  0
 19 20  1  0  0  0  0
 19 36  1  0  0  0  0
 19 37  1  0  0  0  0
 20 21  1  0  0  0  0
 20 38  1  0  0  0  0
 20 39  1  0  0  0  0
 21 40  1  0  0  0  0
 21 41  1  0  0  0  0
M  END
> <s_m_source_file>
AV-unprocessed.smi

> <i_m_source_file_index>
2520

> <i_lp_mmshare_version>
43012

> <i_f3d_flags>
0

> <s_epik_input>
bjFuW2NIXVtjSF1bY0hdYzFbTkhdQyg9TylbTkhdW0NAQEhdMltDQEBIXShbQ0gyXVtDSDJdTzMpW0NASF0zQzI0W0NIMl1bQ0gyXVtDSDJdW0NIMl00

> <s_epik_cmdline>
J2VwaWtfcHl0aG9uJywgJy1waCcsICc3LjAnLCAnLXRuJywgJzgnLCAnLW1hJywgJzIwMCcsICctbWV0YWxfYmluZGluZycsICctaW1hZScsICc8aW5maWxlLm1hZT4nLCAnLW9tYWUnLCAnPG91dGZpbGUubWFlPic=

> <r_lp_tautomer_probability>
1

> <r_epik_Ionization_Penalty>
0.00552561

> <r_epik_Ionization_Penalty_Charging>
0

> <r_epik_Ionization_Penalty_Neutral>
0.00552561

> <r_epik_State_Penalty>
-0

> <r_epik_Charging_Adjusted_Penalty>
0

> <i_epik_Tot_Q>
0

> <i_epik_Tot_abs_Q>
0

> <r_epik_Metal_State_Penalty>
-0

> <b_epik_Metal_Only>
0

> <s_lp_Force_Field>
OPLS_2005

> <r_lp_Energy>
62.4196

> <b_lp_Chiralities_Consistent>
1

> <s_lp_Variant>
AV-unprocessed.smi:2520-3

> <Gold.Version>
5.8.1

> <Gold.Id.Protein>
6NUR|6NUR_protein|mol2

> <Gold.PLP.Fitness>
40.4516

> <Gold.PLP.PLP>
-29.5076

> <Gold.PLP.part.hbond>
-3.7581

> <Gold.PLP.part.metal>
0.0000

> <Gold.PLP.part.buried>
-1.0734

> <Gold.PLP.part.nonpolar>
-27.9239

> <Gold.PLP.part.repulsive>
4.1113

> <Gold.PLP.ligand.clash>
0.0000

> <Gold.PLP.ligand.torsion>
0.2691

> <Gold.PLP.Chemscore.Hbond>
2.7600

> <Gold.PLP.Chemscore.CHOScore>
1.0000

> <Gold.PLP.Chemscore.Metal>
0.0000

> <Gold.Chemscore.Hbonds>
donor molecule, donor type, donor heavy atom, donor atom, acceptor molecule, acceptor atom, score
      L1  H     3    22       P1  7948  1.00
      L1  H    10    26       P1  7948  0.83
      P1  H  7989  7998       L1     8  0.91
      L1  C     7    25       P1  8028  1.00

> <Gold.PLP.Chemscore.Internal.Correction>
0.2022

> <Gold.Rescore>
     Score         DG    S(hbond)    S(metal)    S(lipo)     H(rot)  DE(clash)    DE(int)     intcor
     12.49     -16.68       1.81        0.00      65.84       1.00       0.11       4.09       ----

> <Gold.Chemscore.Fitness>
12.4855

> <Gold.Chemscore.DG>
-16.6840

> <Gold.Chemscore.ZeroCoef>
-5.4800

> <Gold.Chemscore.Hbond>
1.8145

> <Gold.Chemscore.Metal>
0.0000

> <Gold.Chemscore.Lipo>
65.8432

> <Gold.Chemscore.Internal_Hbond>
0.0000

> <Gold.Chemscore.DEClash>
0.1103

> <Gold.Chemscore.DEInternal>
4.0881

> <Gold.Chemscore.Rot>
1.0000

> <Gold.Chemscore.Internal.Correction>
   9.000000E+99

> <Gold.Chemscore.Hbonds>
donor molecule, donor type, donor heavy atom, donor atom, acceptor molecule, acceptor atom, score
      L1  H     3    22       P1  7948  0.92
      L1  H    10    26       P1  7948  0.83
      P1  H  7989  7998       L1     8  0.12

> <Gold.Chemscore.Hbond.Weighted>
-6.0603

> <Gold.Chemscore.Metal.Weighted>
-0.0000

> <Gold.Chemscore.Lipo.Weighted>
-7.7037

> <Gold.Chemscore.Internal_Hbond.Weighted>
0.0000

> <Gold.Chemscore.DEClash.Weighted>
0.1103

> <Gold.Chemscore.DEInternal.Weighted>
4.0881

> <Gold.Chemscore.Rot.Weighted>
2.5600

> <Gold.Chemscore.Internal.Correction.Weighted>
   9.000000E+99

> <Gold.Protein.RotatedTorsions>
[ 6907 6896 6895 6894 ] final   -4.28 input  -60.11 | X-H torsion
[ 7974 7965 7964 7962 ] final   75.89 input  175.53 | X-H torsion
[ 8008 7997 7996 7995 ] final -154.24 input   59.86 | X-H torsion
[ 10167 10162 10161 10158 ] final  -75.82 input  -65.29 | X-H torsion
[ 10718 10713 10712 10709 ] final  163.40 input   66.30 | X-H torsion
[ 10763 10752 10751 10750 ] final  101.72 input  -60.55 | X-H torsion
[ 11005 11000 10999 10996 ] final  129.19 input  -57.11 | X-H torsion

> <Gold.Protein.ActiveResidues>
 VAL166  LYS551  ARG553  GLY616  TRP617  ASP618  TYR619  PRO620  LYS621  CYS622 
 ASP623  PHE694  ASN695  SER759  ASP760  ASP761  ALA762  ILE779  LEU786  VAL792 
 PHE793  MET794  SER795  GLU796  ALA797  LYS798  CYS799  TRP800  GLU811  SER814 

> <Gold.Protein.RotatedAtoms>
  151.5002  135.1061  159.9826 H   0  0  0  0  0  0  0  0  0  0  0  0  # atno 6907 bound_to 6896
  152.4705  133.8015  159.6966 H   0  0  0  0  0  0  0  0  0  0  0  0  # atno 6908 bound_to 6896
  150.8711  133.7441  159.2987 H   0  0  0  0  0  0  0  0  0  0  0  0  # atno 6909 bound_to 6896
  145.7099  139.2611  143.1657 H   0  0  0  0  0  0  0  0  0  0  0  0  # atno 7974 bound_to 7965
  155.6834  140.0747  157.2476 H   0  0  0  0  0  0  0  0  0  0  0  0  # atno 8008 bound_to 7997
  154.4101  140.1678  156.2059 H   0  0  0  0  0  0  0  0  0  0  0  0  # atno 8009 bound_to 7997
  155.9515  140.3377  155.6415 H   0  0  0  0  0  0  0  0  0  0  0  0  # atno 8010 bound_to 7997
  140.4910  143.2380  151.7907 H   0  0  0  0  0  0  0  0  0  0  0  0  # atno 10167 bound_to 10162
  157.1089  131.0462  151.2465 H   0  0  0  0  0  0  0  0  0  0  0  0  # atno 10718 bound_to 10713
  153.3303  135.4035  155.1490 H   0  0  0  0  0  0  0  0  0  0  0  0  # atno 10763 bound_to 10752
  154.8621  135.3609  154.5480 H   0  0  0  0  0  0  0  0  0  0  0  0  # atno 10764 bound_to 10752
  153.5918  135.7073  153.5479 H   0  0  0  0  0  0  0  0  0  0  0  0  # atno 10765 bound_to 10752
  139.9602  134.9604  156.9112 H   0  0  0  0  0  0  0  0  0  0  0  0  # atno 11005 bound_to 11000
  146.0722  140.7856  142.9682 LP  0  0  0  0  0  0  0  0  0  0  0  0  # atno 17320 bound_to 7965
  144.6945  140.3360  143.7207 LP  0  0  0  0  0  0  0  0  0  0  0  0  # atno 17321 bound_to 7965
  139.4851  144.4649  151.9496 LP  0  0  0  0  0  0  0  0  0  0  0  0  # atno 17342 bound_to 10162
  140.3736  144.2825  150.5917 LP  0  0  0  0  0  0  0  0  0  0  0  0  # atno 17343 bound_to 10162
  157.4576  130.7634  149.7207 LP  0  0  0  0  0  0  0  0  0  0  0  0  # atno 17370 bound_to 10713
  155.9855  130.3982  150.3258 LP  0  0  0  0  0  0  0  0  0  0  0  0  # atno 17371 bound_to 10713
  140.5518  134.0619  155.7371 LP  0  0  0  0  0  0  0  0  0  0  0  0  # atno 17394 bound_to 11000
  141.1278  133.9354  157.2599 LP  0  0  0  0  0  0  0  0  0  0  0  0  # atno 17395 bound_to 11000

$$$$
