AV-unprocessed.smi:3249|AV-procd|sdf|12424|dock1
  -GOLD-   2272018313D 1   1.00000     0.00000
 Structure written by MMmdl.
 44 45  0  0  0  0  0  0  0  0  2 V2000
  146.0613  143.5479  154.1611 C   0  0  0  0  0  0  0  0  0  0  0  0
  146.7275  142.2098  154.0188 C   0  0  0  0  0  0  0  0  0  0  0  0
  148.1214  141.9297  153.9465 C   0  0  0  0  0  0  0  0  0  0  0  0
  148.3798  140.6384  153.8216 N   0  0  0  0  0  0  0  0  0  0  0  0
  147.1642  140.0472  153.8124 N   0  0  0  0  0  0  0  0  0  0  0  0
  147.0530  138.5998  153.6814 C   0  0  1  0  0  0  0  0  0  0  0  0
  146.6379  137.9812  155.0301 C   0  0  0  0  0  0  0  0  0  0  0  0
  146.1159  138.1887  152.5135 C   0  0  1  0  0  0  0  0  0  0  0  0
  146.4872  138.8571  151.1773 C   0  0  0  0  0  0  0  0  0  0  0  0
  146.1309  136.7197  152.3318 N   0  3  0  0  0  0  0  0  0  0  0  0
  145.0550  136.1884  151.4698 C   0  0  0  0  0  0  0  0  0  0  0  0
  145.3147  134.7207  151.1039 C   0  0  1  0  0  0  0  0  0  0  0  0
  145.6388  133.8685  152.3463 C   0  0  0  0  0  0  0  0  0  0  0  0
  145.8033  132.3940  151.9609 C   0  0  0  0  0  0  0  0  0  0  0  0
  144.5705  131.9233  151.1820 C   0  0  0  0  0  0  0  0  0  0  0  0
  144.2885  132.8706  150.0052 C   0  0  0  0  0  0  0  0  0  0  0  0
  144.1395  134.2054  150.4809 O   0  0  0  0  0  0  0  0  0  0  0  0
  146.1499  140.9751  153.9278 C   0  0  0  0  0  0  0  0  0  0  0  0
  146.7518  144.3679  153.9621 H   0  0  0  0  0  0  0  0  0  0  0  0
  145.6684  143.6955  155.1670 H   0  0  0  0  0  0  0  0  0  0  0  0
  145.2259  143.6579  153.4693 H   0  0  0  0  0  0  0  0  0  0  0  0
  148.9487  142.6232  153.9801 H   0  0  0  0  0  0  0  0  0  0  0  0
  148.0542  138.2331  153.4493 H   0  0  0  0  0  0  0  0  0  0  0  0
  146.6899  136.8928  155.0052 H   0  0  0  0  0  0  0  0  0  0  0  0
  145.6189  138.2590  155.3014 H   0  0  0  0  0  0  0  0  0  0  0  0
  147.2970  138.3153  155.8323 H   0  0  0  0  0  0  0  0  0  0  0  0
  145.1001  138.5061  152.7563 H   0  0  0  0  0  0  0  0  0  0  0  0
  146.3901  139.9419  151.2252 H   0  0  0  0  0  0  0  0  0  0  0  0
  145.8331  138.5152  150.3746 H   0  0  0  0  0  0  0  0  0  0  0  0
  147.5138  138.6269  150.8904 H   0  0  0  0  0  0  0  0  0  0  0  0
  147.0151  136.4608  151.9174 H   0  0  0  0  0  0  0  0  0  0  0  0
  144.1057  136.2718  152.0004 H   0  0  0  0  0  0  0  0  0  0  0  0
  144.9739  136.7964  150.5676 H   0  0  0  0  0  0  0  0  0  0  0  0
  146.1505  134.6706  150.4033 H   0  0  0  0  0  0  0  0  0  0  0  0
  146.5479  134.2297  152.8282 H   0  0  0  0  0  0  0  0  0  0  0  0
  144.8368  133.9656  153.0795 H   0  0  0  0  0  0  0  0  0  0  0  0
  146.6957  132.2721  151.3457 H   0  0  0  0  0  0  0  0  0  0  0  0
  145.9486  131.7810  152.8509 H   0  0  0  0  0  0  0  0  0  0  0  0
  144.7174  130.9047  150.8216 H   0  0  0  0  0  0  0  0  0  0  0  0
  143.7050  131.8988  151.8454 H   0  0  0  0  0  0  0  0  0  0  0  0
  145.0901  132.8238  149.2663 H   0  0  0  0  0  0  0  0  0  0  0  0
  143.3709  132.5735  149.4973 H   0  0  0  0  0  0  0  0  0  0  0  0
  145.1098  140.6839  153.9357 H   0  0  0  0  0  0  0  0  0  0  0  0
  146.0649  136.2847  153.2407 H   0  0  0  0  0  0  0  0  0  0  0  0
  1  2  1  0  0  0  0
  1 19  1  0  0  0  0
  1 20  1  0  0  0  0
  1 21  1  0  0  0  0
  2 18  2  0  0  0  0
  2  3  1  0  0  0  0
  3  4  2  0  0  0  0
  3 22  1  0  0  0  0
  4  5  1  0  0  0  0
  5  6  1  0  0  0  0
  5 18  1  0  0  0  0
  6  7  1  0  0  0  0
  6  8  1  0  0  0  0
  6 23  1  0  0  0  0
  7 24  1  0  0  0  0
  7 25  1  0  0  0  0
  7 26  1  0  0  0  0
  8  9  1  0  0  0  0
  8 10  1  0  0  0  0
  8 27  1  0  0  0  0
  9 28  1  0  0  0  0
  9 29  1  0  0  0  0
  9 30  1  0  0  0  0
 10 11  1  0  0  0  0
 10 31  1  0  0  0  0
 10 44  1  0  0  0  0
 11 12  1  0  0  0  0
 11 32  1  0  0  0  0
 11 33  1  0  0  0  0
 12 17  1  0  0  0  0
 12 13  1  0  0  0  0
 12 34  1  0  0  0  0
 13 14  1  0  0  0  0
 13 35  1  0  0  0  0
 13 36  1  0  0  0  0
 14 15  1  0  0  0  0
 14 37  1  0  0  0  0
 14 38  1  0  0  0  0
 15 16  1  0  0  0  0
 15 39  1  0  0  0  0
 15 40  1  0  0  0  0
 16 17  1  0  0  0  0
 16 41  1  0  0  0  0
 16 42  1  0  0  0  0
 18 43  1  0  0  0  0
M  CHG  1  10   1
M  END
> <s_m_source_file>
AV-unprocessed.smi

> <i_m_source_file_index>
3249

> <i_lp_mmshare_version>
43012

> <i_f3d_flags>
0

> <s_epik_input>
W0NIM11jMVtjSF1ubihbY0hdMSlbQ0BIXShbQ0gzXSlbQ0BIXShbQ0gzXSlbTkhdW0NIMl1bQ0BASF0yW0NIMl1bQ0gyXVtDSDJdW0NIMl1PMg==

> <s_epik_cmdline>
J2VwaWtfcHl0aG9uJywgJy1waCcsICc3LjAnLCAnLXRuJywgJzgnLCAnLW1hJywgJzIwMCcsICctbWV0YWxfYmluZGluZycsICctaW1hZScsICc8aW5maWxlLm1hZT4nLCAnLW9tYWUnLCAnPG91dGZpbGUubWFlPic=

> <r_lp_tautomer_probability>
1

> <r_epik_Ionization_Penalty>
0.00659207

> <r_epik_Ionization_Penalty_Charging>
0.00656881

> <r_epik_Ionization_Penalty_Neutral>
2.32662e-05

> <r_epik_State_Penalty>
0.0048654

> <r_epik_Charging_Adjusted_Penalty>
0.0114342

> <i_epik_Tot_Q>
1

> <i_epik_Tot_abs_Q>
1

> <r_epik_Metal_State_Penalty>
-0

> <b_epik_Metal_Only>
0

> <s_lp_Force_Field>
OPLS_2005

> <r_lp_Energy>
18.7987

> <b_lp_Chiralities_Consistent>
1

> <s_lp_Variant>
AV-unprocessed.smi:3249-8

> <Gold.Version>
5.8.1

> <Gold.Id.Protein>
6NUR|6NUR_protein|mol2

> <Gold.PLP.Fitness>
44.2350

> <Gold.PLP.PLP>
-32.8881

> <Gold.PLP.part.hbond>
-1.0000

> <Gold.PLP.part.metal>
0.0000

> <Gold.PLP.part.buried>
0.6279

> <Gold.PLP.part.nonpolar>
-32.8464

> <Gold.PLP.part.repulsive>
0.5363

> <Gold.PLP.ligand.clash>
0.0000

> <Gold.PLP.ligand.torsion>
0.3667

> <Gold.PLP.Chemscore.Hbond>
2.0000

> <Gold.PLP.Chemscore.CHOScore>
1.9731

> <Gold.PLP.Chemscore.Metal>
0.0000

> <Gold.Chemscore.Hbonds>
donor molecule, donor type, donor heavy atom, donor atom, acceptor molecule, acceptor atom, score
      L1  H    10    31       P1  7948  2.00
      L1  C     3    22       P1  8028  0.55
      L1  C    18    43       P1 10175  1.00

> <Gold.PLP.Chemscore.Internal.Correction>
0.1609

> <Gold.Rescore>
     Score         DG    S(hbond)    S(metal)    S(lipo)     H(rot)  DE(clash)    DE(int)     intcor
     14.20     -15.11       1.00        0.00      87.34       1.53       0.65       0.26       ----

> <Gold.Chemscore.Fitness>
14.2042

> <Gold.Chemscore.DG>
-15.1061

> <Gold.Chemscore.ZeroCoef>
-5.4800

> <Gold.Chemscore.Hbond>
0.9978

> <Gold.Chemscore.Metal>
0.0000

> <Gold.Chemscore.Lipo>
87.3384

> <Gold.Chemscore.Internal_Hbond>
0.0000

> <Gold.Chemscore.DEClash>
0.6470

> <Gold.Chemscore.DEInternal>
0.2550

> <Gold.Chemscore.Rot>
1.5333

> <Gold.Chemscore.Internal.Correction>
   9.000000E+99

> <Gold.Chemscore.Hbonds>
donor molecule, donor type, donor heavy atom, donor atom, acceptor molecule, acceptor atom, score
      L1  H    10    31       P1  7948  0.98

> <Gold.Chemscore.Hbond.Weighted>
-3.3327

> <Gold.Chemscore.Metal.Weighted>
-0.0000

> <Gold.Chemscore.Lipo.Weighted>
-10.2186

> <Gold.Chemscore.Internal_Hbond.Weighted>
0.0000

> <Gold.Chemscore.DEClash.Weighted>
0.6470

> <Gold.Chemscore.DEInternal.Weighted>
0.2550

> <Gold.Chemscore.Rot.Weighted>
3.9252

> <Gold.Chemscore.Internal.Correction.Weighted>
   9.000000E+99

> <Gold.Protein.RotatedTorsions>
[ 6907 6896 6895 6894 ] final -177.70 input  -60.11 | X-H torsion
[ 7974 7965 7964 7962 ] final  -45.43 input  175.53 | X-H torsion
[ 8008 7997 7996 7995 ] final -146.11 input   59.86 | X-H torsion
[ 10167 10162 10161 10158 ] final   72.14 input  -65.29 | X-H torsion
[ 10718 10713 10712 10709 ] final   93.92 input   66.30 | X-H torsion
[ 10763 10752 10751 10750 ] final -122.16 input  -60.55 | X-H torsion
[ 11005 11000 10999 10996 ] final -174.39 input  -57.11 | X-H torsion

> <Gold.Protein.ActiveResidues>
 VAL166  LYS551  ARG553  GLY616  TRP617  ASP618  TYR619  PRO620  LYS621  CYS622 
 ASP623  PHE694  ASN695  SER759  ASP760  ASP761  ALA762  ILE779  LEU786  VAL792 
 PHE793  MET794  SER795  GLU796  ALA797  LYS798  CYS799  TRP800  GLU811  SER814 

> <Gold.Protein.RotatedAtoms>
  151.6252  133.3336  159.3096 H   0  0  0  0  0  0  0  0  0  0  0  0  # atno 6907 bound_to 6896
  150.8085  134.7229  159.6678 H   0  0  0  0  0  0  0  0  0  0  0  0  # atno 6908 bound_to 6896
  152.4181  134.6009  160.0051 H   0  0  0  0  0  0  0  0  0  0  0  0  # atno 6909 bound_to 6896
  145.9821  140.7272  142.9358 H   0  0  0  0  0  0  0  0  0  0  0  0  # atno 7974 bound_to 7965
  155.5541  140.0619  157.2843 H   0  0  0  0  0  0  0  0  0  0  0  0  # atno 8008 bound_to 7997
  154.4411  140.1897  156.0761 H   0  0  0  0  0  0  0  0  0  0  0  0  # atno 8009 bound_to 7997
  156.0495  140.3286  155.7338 H   0  0  0  0  0  0  0  0  0  0  0  0  # atno 8010 bound_to 7997
  140.0385  144.5409  150.7452 H   0  0  0  0  0  0  0  0  0  0  0  0  # atno 10167 bound_to 10162
  157.6951  131.0495  150.4107 H   0  0  0  0  0  0  0  0  0  0  0  0  # atno 10718 bound_to 10713
  154.8684  135.4142  154.2737 H   0  0  0  0  0  0  0  0  0  0  0  0  # atno 10763 bound_to 10752
  153.3643  135.7005  153.6693 H   0  0  0  0  0  0  0  0  0  0  0  0  # atno 10764 bound_to 10752
  153.5581  135.3615  155.2760 H   0  0  0  0  0  0  0  0  0  0  0  0  # atno 10765 bound_to 10752
  140.4751  134.6128  157.4897 H   0  0  0  0  0  0  0  0  0  0  0  0  # atno 11005 bound_to 11000
  144.6864  140.2926  143.7275 LP  0  0  0  0  0  0  0  0  0  0  0  0  # atno 17320 bound_to 7965
  145.7754  139.1872  143.2188 LP  0  0  0  0  0  0  0  0  0  0  0  0  # atno 17321 bound_to 7965
  140.7271  143.2648  151.4083 LP  0  0  0  0  0  0  0  0  0  0  0  0  # atno 17342 bound_to 10162
  139.6029  144.1257  152.2218 LP  0  0  0  0  0  0  0  0  0  0  0  0  # atno 17343 bound_to 10162
  156.4492  130.4008  149.6647 LP  0  0  0  0  0  0  0  0  0  0  0  0  # atno 17370 bound_to 10713
  156.3803  130.7575  151.2567 LP  0  0  0  0  0  0  0  0  0  0  0  0  # atno 17371 bound_to 10713
  139.9861  134.7059  155.9772 LP  0  0  0  0  0  0  0  0  0  0  0  0  # atno 17394 bound_to 11000
  141.1558  133.6543  156.4158 LP  0  0  0  0  0  0  0  0  0  0  0  0  # atno 17395 bound_to 11000

$$$$
