AV-unprocessed.smi:1107|AV-procd|sdf|4782|dock2
  -GOLD-   22720 3323D 1   1.00000     0.00000
 Structure written by MMmdl.
 49 50  0  0  0  0  0  0  0  0  2 V2000
  150.8712  143.3160  157.8163 C   0  0  0  0  0  0  0  0  0  0  0  0
  150.9304  142.0212  157.0337 C   0  0  0  0  0  0  0  0  0  0  0  0
  151.5919  140.9776  157.4132 N   0  0  0  0  0  0  0  0  0  0  0  0
  151.5724  139.8339  156.6028 C   0  0  0  0  0  0  0  0  0  0  0  0
  152.3677  138.6493  157.1250 C   0  0  0  0  0  0  0  0  0  0  0  0
  150.8756  139.8022  155.4285 C   0  0  0  0  0  0  0  0  0  0  0  0
  150.8354  138.5827  154.5074 C   0  0  0  0  0  0  0  0  0  0  0  0
  150.4085  137.2612  155.1528 C   0  0  0  0  0  0  0  0  0  0  0  0
  149.9925  137.2541  156.3104 O   0  0  0  0  0  0  0  0  0  0  0  0
  150.5298  136.1499  154.4080 N   0  0  0  0  0  0  0  0  0  0  0  0
  150.1459  134.7955  154.8035 C   0  0  1  0  0  0  0  0  0  0  0  0
  150.8943  134.4255  156.0909 C   0  0  0  0  0  0  0  0  0  0  0  0
  148.6158  134.6737  154.9899 C   0  0  0  0  0  0  0  0  0  0  0  0
  147.8767  134.5811  153.7047 N   0  3  0  0  0  0  0  0  0  0  0  0
  146.4580  135.0046  153.8234 C   0  0  0  0  0  0  0  0  0  0  0  0
  145.7798  135.0495  152.4433 C   0  0  0  0  0  0  0  0  0  0  0  0
  145.8915  133.6961  151.7290 C   0  0  0  0  0  0  0  0  0  0  0  0
  147.3609  133.2601  151.6561 C   0  0  0  0  0  0  0  0  0  0  0  0
  147.9994  133.2493  153.0546 C   0  0  0  0  0  0  0  0  0  0  0  0
  150.1291  141.0012  155.0020 C   0  0  0  0  0  0  0  0  0  0  0  0
  149.4835  141.0828  153.9585 O   0  0  0  0  0  0  0  0  0  0  0  0
  150.1995  142.0533  155.8474 N   0  0  0  0  0  0  0  0  0  0  0  0
  149.7029  142.8969  155.6006 H   0  0  0  0  0  0  0  0  0  0  0  0
  150.2590  144.0647  157.3110 H   0  0  0  0  0  0  0  0  0  0  0  0
  151.8741  143.7249  157.9430 H   0  0  0  0  0  0  0  0  0  0  0  0
  150.4455  143.1379  158.8038 H   0  0  0  0  0  0  0  0  0  0  0  0
  151.6988  137.8296  157.3878 H   0  0  0  0  0  0  0  0  0  0  0  0
  152.9344  138.9162  158.0177 H   0  0  0  0  0  0  0  0  0  0  0  0
  153.0762  138.2927  156.3782 H   0  0  0  0  0  0  0  0  0  0  0  0
  150.1599  138.7724  153.6736 H   0  0  0  0  0  0  0  0  0  0  0  0
  151.8139  138.4498  154.0430 H   0  0  0  0  0  0  0  0  0  0  0  0
  150.8865  136.2583  153.4690 H   0  0  0  0  0  0  0  0  0  0  0  0
  150.4742  134.0935  154.0359 H   0  0  0  0  0  0  0  0  0  0  0  0
  150.6629  133.4058  156.3996 H   0  0  0  0  0  0  0  0  0  0  0  0
  150.6272  135.0906  156.9132 H   0  0  0  0  0  0  0  0  0  0  0  0
  151.9739  134.4882  155.9496 H   0  0  0  0  0  0  0  0  0  0  0  0
  148.3688  133.8146  155.6155 H   0  0  0  0  0  0  0  0  0  0  0  0
  148.2747  135.5534  155.5378 H   0  0  0  0  0  0  0  0  0  0  0  0
  145.9256  134.3207  154.4862 H   0  0  0  0  0  0  0  0  0  0  0  0
  146.4047  135.9949  154.2774 H   0  0  0  0  0  0  0  0  0  0  0  0
  144.7312  135.3286  152.5508 H   0  0  0  0  0  0  0  0  0  0  0  0
  146.2455  135.8246  151.8328 H   0  0  0  0  0  0  0  0  0  0  0  0
  145.3106  132.9457  152.2668 H   0  0  0  0  0  0  0  0  0  0  0  0
  145.4667  133.7616  150.7269 H   0  0  0  0  0  0  0  0  0  0  0  0
  147.4343  132.2705  151.2041 H   0  0  0  0  0  0  0  0  0  0  0  0
  147.9149  133.9390  151.0062 H   0  0  0  0  0  0  0  0  0  0  0  0
  149.0478  132.9673  152.9633 H   0  0  0  0  0  0  0  0  0  0  0  0
  147.5232  132.4918  153.6788 H   0  0  0  0  0  0  0  0  0  0  0  0
  148.3150  135.2472  153.0842 H   0  0  0  0  0  0  0  0  0  0  0  0
  1  2  1  0  0  0  0
  1 24  1  0  0  0  0
  1 25  1  0  0  0  0
  1 26  1  0  0  0  0
  2 22  1  0  0  0  0
  2  3  2  0  0  0  0
  3  4  1  0  0  0  0
  4  5  1  0  0  0  0
  4  6  2  0  0  0  0
  5 27  1  0  0  0  0
  5 28  1  0  0  0  0
  5 29  1  0  0  0  0
  6  7  1  0  0  0  0
  6 20  1  0  0  0  0
  7  8  1  0  0  0  0
  7 30  1  0  0  0  0
  7 31  1  0  0  0  0
  8  9  2  0  0  0  0
  8 10  1  0  0  0  0
 10 11  1  0  0  0  0
 10 32  1  0  0  0  0
 11 12  1  0  0  0  0
 11 13  1  0  0  0  0
 11 33  1  0  0  0  0
 12 34  1  0  0  0  0
 12 35  1  0  0  0  0
 12 36  1  0  0  0  0
 13 14  1  0  0  0  0
 13 37  1  0  0  0  0
 13 38  1  0  0  0  0
 14 19  1  0  0  0  0
 14 15  1  0  0  0  0
 14 49  1  0  0  0  0
 15 16  1  0  0  0  0
 15 39  1  0  0  0  0
 15 40  1  0  0  0  0
 16 17  1  0  0  0  0
 16 41  1  0  0  0  0
 16 42  1  0  0  0  0
 17 18  1  0  0  0  0
 17 43  1  0  0  0  0
 17 44  1  0  0  0  0
 18 19  1  0  0  0  0
 18 45  1  0  0  0  0
 18 46  1  0  0  0  0
 19 47  1  0  0  0  0
 19 48  1  0  0  0  0
 20 21  2  0  0  0  0
 20 22  1  0  0  0  0
 22 23  1  0  0  0  0
M  CHG  1  14   1
M  END
> <s_m_source_file>
AV-unprocessed.smi

> <i_m_source_file_index>
1107

> <i_lp_mmshare_version>
43012

> <i_f3d_flags>
0

> <s_epik_input>
W0NIM11jMW5jKFtDSDNdKWMoYyg9TylbbkhdMSlbQ0gyXUMoPU8pW05IXVtDQEhdKFtDSDNdKVtDSDJdTjJbQ0gyXVtDSDJdW0NIMl1bQ0gyXVtDSDJdMg==

> <s_epik_cmdline>
J2VwaWtfcHl0aG9uJywgJy1waCcsICc3LjAnLCAnLXRuJywgJzgnLCAnLW1hJywgJzIwMCcsICctbWV0YWxfYmluZGluZycsICctaW1hZScsICc8aW5maWxlLm1hZT4nLCAnLW9tYWUnLCAnPG91dGZpbGUubWFlPic=

> <r_lp_tautomer_probability>
0.839158

> <r_epik_Ionization_Penalty>
0.00280224

> <r_epik_Ionization_Penalty_Charging>
0.00277925

> <r_epik_Ionization_Penalty_Neutral>
2.29856e-05

> <r_epik_State_Penalty>
0.09125

> <r_epik_Charging_Adjusted_Penalty>
0.0940293

> <i_epik_Tot_Q>
1

> <i_epik_Tot_abs_Q>
1

> <r_epik_Metal_State_Penalty>
0.283823

> <b_epik_Metal_Only>
0

> <s_lp_Force_Field>
OPLS_2005

> <r_lp_Energy>
24.1298

> <b_lp_Chiralities_Consistent>
1

> <s_lp_Variant>
AV-unprocessed.smi:1107-2

> <Gold.Version>
5.8.1

> <Gold.Id.Protein>
6NUR|6NUR_protein|mol2

> <Gold.PLP.Fitness>
48.6514

> <Gold.PLP.PLP>
-36.1764

> <Gold.PLP.part.hbond>
-6.0000

> <Gold.PLP.part.metal>
0.0000

> <Gold.PLP.part.buried>
-2.1995

> <Gold.PLP.part.nonpolar>
-27.9381

> <Gold.PLP.part.repulsive>
0.8921

> <Gold.PLP.ligand.clash>
0.0000

> <Gold.PLP.ligand.torsion>
0.4514

> <Gold.PLP.Chemscore.Hbond>
4.4288

> <Gold.PLP.Chemscore.CHOScore>
0.0000

> <Gold.PLP.Chemscore.Metal>
0.0000

> <Gold.Chemscore.Hbonds>
donor molecule, donor type, donor heavy atom, donor atom, acceptor molecule, acceptor atom, score
      L1  H    10    32       P1  7949  0.80
      L1  H    14    49       P1  7948  2.00
      L1  H    22    23       P1  8028  1.00
      P1  H  8011  8017       L1    21  0.66

> <Gold.PLP.Chemscore.Internal.Correction>
0.0914

> <Gold.Rescore>
     Score         DG    S(hbond)    S(metal)    S(lipo)     H(rot)  DE(clash)    DE(int)     intcor
     15.04     -16.59       2.29        0.00      73.07       1.98       0.13       1.42       ----

> <Gold.Chemscore.Fitness>
15.0382

> <Gold.Chemscore.DG>
-16.5886

> <Gold.Chemscore.ZeroCoef>
-5.4800

> <Gold.Chemscore.Hbond>
2.2868

> <Gold.Chemscore.Metal>
0.0000

> <Gold.Chemscore.Lipo>
73.0675

> <Gold.Chemscore.Internal_Hbond>
0.0000

> <Gold.Chemscore.DEClash>
0.1270

> <Gold.Chemscore.DEInternal>
1.4234

> <Gold.Chemscore.Rot>
1.9837

> <Gold.Chemscore.Internal.Correction>
   9.000000E+99

> <Gold.Chemscore.Hbonds>
donor molecule, donor type, donor heavy atom, donor atom, acceptor molecule, acceptor atom, score
      L1  H    10    32       P1  7949  0.11
      L1  H    14    49       P1  7948  0.97
      L1  H    22    23       P1  8028  0.97
      P1  H  8011  8017       L1    21  0.66

> <Gold.Chemscore.Hbond.Weighted>
-7.6380

> <Gold.Chemscore.Metal.Weighted>
-0.0000

> <Gold.Chemscore.Lipo.Weighted>
-8.5489

> <Gold.Chemscore.Internal_Hbond.Weighted>
0.0000

> <Gold.Chemscore.DEClash.Weighted>
0.1270

> <Gold.Chemscore.DEInternal.Weighted>
1.4234

> <Gold.Chemscore.Rot.Weighted>
5.0783

> <Gold.Chemscore.Internal.Correction.Weighted>
   9.000000E+99

> <Gold.Protein.RotatedTorsions>
[ 6907 6896 6895 6894 ] final  -50.97 input  -60.11 | X-H torsion
[ 7974 7965 7964 7962 ] final  -45.28 input  175.53 | X-H torsion
[ 8008 7997 7996 7995 ] final -153.75 input   59.86 | X-H torsion
[ 10167 10162 10161 10158 ] final   15.41 input  -65.29 | X-H torsion
[ 10718 10713 10712 10709 ] final   71.75 input   66.30 | X-H torsion
[ 10763 10752 10751 10750 ] final  -58.52 input  -60.55 | X-H torsion
[ 11005 11000 10999 10996 ] final  -42.64 input  -57.11 | X-H torsion

> <Gold.Protein.ActiveResidues>
 VAL166  LYS551  ARG553  GLY616  TRP617  ASP618  TYR619  PRO620  LYS621  CYS622 
 ASP623  PHE694  ASN695  SER759  ASP760  ASP761  ALA762  ILE779  LEU786  VAL792 
 PHE793  MET794  SER795  GLU796  ALA797  LYS798  CYS799  TRP800  GLU811  SER814 

> <Gold.Protein.RotatedAtoms>
  150.8655  134.8018  159.7115 H   0  0  0  0  0  0  0  0  0  0  0  0  # atno 6907 bound_to 6896
  152.4678  134.5030  159.9740 H   0  0  0  0  0  0  0  0  0  0  0  0  # atno 6908 bound_to 6896
  151.5127  133.3443  159.2923 H   0  0  0  0  0  0  0  0  0  0  0  0  # atno 6909 bound_to 6896
  145.9836  140.7257  142.9351 H   0  0  0  0  0  0  0  0  0  0  0  0  # atno 7974 bound_to 7965
  155.6757  140.0738  157.2503 H   0  0  0  0  0  0  0  0  0  0  0  0  # atno 8008 bound_to 7997
  154.4115  140.1691  156.1979 H   0  0  0  0  0  0  0  0  0  0  0  0  # atno 8009 bound_to 7997
  155.9578  140.3372  155.6467 H   0  0  0  0  0  0  0  0  0  0  0  0  # atno 8010 bound_to 7997
  140.5869  143.8872  150.6838 H   0  0  0  0  0  0  0  0  0  0  0  0  # atno 10167 bound_to 10162
  157.6467  130.9544  150.0833 H   0  0  0  0  0  0  0  0  0  0  0  0  # atno 10718 bound_to 10713
  154.2394  135.6346  153.5202 H   0  0  0  0  0  0  0  0  0  0  0  0  # atno 10763 bound_to 10752
  152.9933  135.5538  154.5926 H   0  0  0  0  0  0  0  0  0  0  0  0  # atno 10764 bound_to 10752
  154.5428  135.2896  155.1054 H   0  0  0  0  0  0  0  0  0  0  0  0  # atno 10765 bound_to 10752
  141.0330  133.6812  156.2623 H   0  0  0  0  0  0  0  0  0  0  0  0  # atno 11005 bound_to 11000
  144.6868  140.2950  143.7272 LP  0  0  0  0  0  0  0  0  0  0  0  0  # atno 17320 bound_to 7965
  145.7733  139.1865  143.2200 LP  0  0  0  0  0  0  0  0  0  0  0  0  # atno 17321 bound_to 7965
  140.2385  143.3681  152.1506 LP  0  0  0  0  0  0  0  0  0  0  0  0  # atno 17342 bound_to 10162
  139.5203  144.7031  151.5435 LP  0  0  0  0  0  0  0  0  0  0  0  0  # atno 17343 bound_to 10162
  156.1803  130.3650  149.9045 LP  0  0  0  0  0  0  0  0  0  0  0  0  # atno 17370 bound_to 10713
  156.6999  130.8929  151.3598 LP  0  0  0  0  0  0  0  0  0  0  0  0  # atno 17371 bound_to 10713
  140.6373  134.5202  157.5566 LP  0  0  0  0  0  0  0  0  0  0  0  0  # atno 17394 bound_to 11000
  139.9221  134.8129  156.1180 LP  0  0  0  0  0  0  0  0  0  0  0  0  # atno 17395 bound_to 11000

$$$$
