AV-unprocessed.smi:249|AV-procd|sdf|1918|dock6
  -GOLD-   2262021 23D 1   1.00000     0.00000
 Structure written by MMmdl.
 64 67  0  0  0  0  0  0  0  0  2 V2000
  145.5277  132.6782  152.3679 C   0  0  0  0  0  0  0  0  0  0  0  0
  146.2942  133.9321  151.9242 C   0  0  0  0  0  0  0  0  0  0  0  0
  147.4191  134.2582  152.8385 N   0  3  2  0  0  0  0  0  0  0  0  0
  148.3048  133.0991  153.1323 C   0  0  0  0  0  0  0  0  0  0  0  0
  149.5577  133.5464  153.9009 C   0  0  0  0  0  0  0  0  0  0  0  0
  149.1802  134.2772  155.2053 C   0  0  1  0  0  0  0  0  0  0  0  0
  150.3365  134.6735  156.0200 N   0  0  0  0  0  0  0  0  0  0  0  0
  151.2594  133.6238  156.4352 C   0  0  0  0  0  0  0  0  0  0  0  0
  150.1544  135.6470  156.9437 C   0  0  0  0  0  0  0  0  0  0  0  0
  149.3349  135.3705  157.9889 N   0  0  0  0  0  0  0  0  0  0  0  0
  149.1130  136.2930  158.9301 C   0  0  0  0  0  0  0  0  0  0  0  0
  149.6011  137.5322  159.0154 N   0  0  0  0  0  0  0  0  0  0  0  0
  150.4203  137.8151  157.9626 C   0  0  0  0  0  0  0  0  0  0  0  0
  150.7479  136.9407  156.8887 C   0  0  0  0  0  0  0  0  0  0  0  0
  151.6144  137.5788  156.0079 N   0  0  0  0  0  0  0  0  0  0  0  0
  151.7851  138.7634  156.5292 C   0  0  0  0  0  0  0  0  0  0  0  0
  151.1109  138.9857  157.7082 N   0  0  0  0  0  0  0  0  0  0  0  0
  151.1236  140.1983  158.5066 C   0  0  0  0  0  0  0  0  0  0  0  0
  151.1198  141.4886  157.6498 C   0  0  1  0  0  0  0  0  0  0  0  0
  149.9062  141.5637  156.6917 C   0  0  0  0  0  0  0  0  0  0  0  0
  150.1168  142.5113  155.6647 O   0  0  0  0  0  0  0  0  0  0  0  0
  151.2591  142.7573  158.5282 C   0  0  2  0  0  0  0  0  0  0  0  0
  151.6565  144.0154  157.7761 C   0  0  0  0  0  0  0  0  0  0  0  0
  152.1665  144.9154  158.8961 C   0  0  0  0  0  0  0  0  0  0  0  0
  152.7306  144.0408  159.8667 O   0  0  0  0  0  0  0  0  0  0  0  0
  152.3825  142.6927  159.5682 C   0  0  0  0  0  0  0  0  0  0  0  0
  148.2387  135.4539  154.8678 C   0  0  0  0  0  0  0  0  0  0  0  0
  147.0013  134.9971  154.0672 C   0  0  2  0  0  0  0  0  0  0  0  0
  145.9905  134.2196  154.9385 C   0  0  0  0  0  0  0  0  0  0  0  0
  144.7635  132.4180  151.6352 H   0  0  0  0  0  0  0  0  0  0  0  0
  145.0232  132.8218  153.3229 H   0  0  0  0  0  0  0  0  0  0  0  0
  146.1957  131.8218  152.4650 H   0  0  0  0  0  0  0  0  0  0  0  0
  146.6850  133.7440  150.9234 H   0  0  0  0  0  0  0  0  0  0  0  0
  145.6179  134.7838  151.8390 H   0  0  0  0  0  0  0  0  0  0  0  0
  147.7615  132.3404  153.6960 H   0  0  0  0  0  0  0  0  0  0  0  0
  148.6203  132.6241  152.2040 H   0  0  0  0  0  0  0  0  0  0  0  0
  150.1807  132.6795  154.1240 H   0  0  0  0  0  0  0  0  0  0  0  0
  150.1462  134.1973  153.2530 H   0  0  0  0  0  0  0  0  0  0  0  0
  148.6244  133.5687  155.8201 H   0  0  0  0  0  0  0  0  0  0  0  0
  152.1144  134.0426  156.9679 H   0  0  0  0  0  0  0  0  0  0  0  0
  151.6407  133.0942  155.5621 H   0  0  0  0  0  0  0  0  0  0  0  0
  150.7742  132.8965  157.0855 H   0  0  0  0  0  0  0  0  0  0  0  0
  148.4495  135.9963  159.7292 H   0  0  0  0  0  0  0  0  0  0  0  0
  152.4188  139.5092  156.0710 H   0  0  0  0  0  0  0  0  0  0  0  0
  150.2613  140.1836  159.1743 H   0  0  0  0  0  0  0  0  0  0  0  0
  152.0069  140.1612  159.1444 H   0  0  0  0  0  0  0  0  0  0  0  0
  152.0055  141.4463  157.0139 H   0  0  0  0  0  0  0  0  0  0  0  0
  149.7092  140.5931  156.2372 H   0  0  0  0  0  0  0  0  0  0  0  0
  148.9969  141.8293  157.2310 H   0  0  0  0  0  0  0  0  0  0  0  0
  149.7507  143.3386  155.9380 H   0  0  0  0  0  0  0  0  0  0  0  0
  150.3191  142.9478  159.0488 H   0  0  0  0  0  0  0  0  0  0  0  0
  152.4628  143.8014  157.0730 H   0  0  0  0  0  0  0  0  0  0  0  0
  150.8320  144.4673  157.2237 H   0  0  0  0  0  0  0  0  0  0  0  0
  152.8962  145.6455  158.5448 H   0  0  0  0  0  0  0  0  0  0  0  0
  151.3389  145.4567  159.3564 H   0  0  0  0  0  0  0  0  0  0  0  0
  152.0855  142.1584  160.4710 H   0  0  0  0  0  0  0  0  0  0  0  0
  153.2631  142.1963  159.1577 H   0  0  0  0  0  0  0  0  0  0  0  0
  147.9173  135.9649  155.7756 H   0  0  0  0  0  0  0  0  0  0  0  0
  148.7787  136.1954  154.2779 H   0  0  0  0  0  0  0  0  0  0  0  0
  146.4964  135.9051  153.7343 H   0  0  0  0  0  0  0  0  0  0  0  0
  145.7077  134.8056  155.8133 H   0  0  0  0  0  0  0  0  0  0  0  0
  146.3919  133.2740  155.3008 H   0  0  0  0  0  0  0  0  0  0  0  0
  145.0717  134.0017  154.3942 H   0  0  0  0  0  0  0  0  0  0  0  0
  147.9916  134.9149  152.3274 H   0  0  0  0  0  0  0  0  0  0  0  0
  1  2  1  0  0  0  0
  1 30  1  0  0  0  0
  1 31  1  0  0  0  0
  1 32  1  0  0  0  0
  2  3  1  0  0  0  0
  2 33  1  0  0  0  0
  2 34  1  0  0  0  0
  3 28  1  0  0  0  0
  3  4  1  0  0  0  0
  3 64  1  0  0  0  0
  4  5  1  0  0  0  0
  4 35  1  0  0  0  0
  4 36  1  0  0  0  0
  5  6  1  0  0  0  0
  5 37  1  0  0  0  0
  5 38  1  0  0  0  0
  6  7  1  0  0  0  0
  6 27  1  0  0  0  0
  6 39  1  0  0  0  0
  7  8  1  0  0  0  0
  7  9  1  0  0  0  0
  8 40  1  0  0  0  0
  8 41  1  0  0  0  0
  8 42  1  0  0  0  0
  9 14  1  0  0  0  0
  9 10  2  0  0  0  0
 10 11  1  0  0  0  0
 11 12  2  0  0  0  0
 11 43  1  0  0  0  0
 12 13  1  0  0  0  0
 13 17  1  0  0  0  0
 13 14  2  0  0  0  0
 14 15  1  0  0  0  0
 15 16  2  0  0  0  0
 16 17  1  0  0  0  0
 16 44  1  0  0  0  0
 17 18  1  0  0  0  0
 18 19  1  0  0  0  0
 18 45  1  0  0  0  0
 18 46  1  0  0  0  0
 19 20  1  0  0  0  0
 19 22  1  0  0  0  0
 19 47  1  0  0  0  0
 20 21  1  0  0  0  0
 20 48  1  0  0  0  0
 20 49  1  0  0  0  0
 21 50  1  0  0  0  0
 22 26  1  0  0  0  0
 22 23  1  0  0  0  0
 22 51  1  0  0  0  0
 23 24  1  0  0  0  0
 23 52  1  0  0  0  0
 23 53  1  0  0  0  0
 24 25  1  0  0  0  0
 24 54  1  0  0  0  0
 24 55  1  0  0  0  0
 25 26  1  0  0  0  0
 26 56  1  0  0  0  0
 26 57  1  0  0  0  0
 27 28  1  0  0  0  0
 27 58  1  0  0  0  0
 27 59  1  0  0  0  0
 28 29  1  0  0  0  0
 28 60  1  0  0  0  0
 29 61  1  0  0  0  0
 29 62  1  0  0  0  0
 29 63  1  0  0  0  0
M  CHG  1   3   1
M  END
> <s_m_source_file>
AV-unprocessed.smi

> <i_m_source_file_index>
249

> <i_lp_mmshare_version>
43012

> <i_f3d_flags>
0

> <s_epik_input>
W0NIM11bQ0gyXU4xW0NIMl1bQ0gyXVtDQEhdKFtDSDJdW0NASF0xW0NIM10pTihbQ0gzXSljKG5bY0hdbjIpYyhjMjMpbltjSF1uM1tDSDJdW0NASF0oW0NIMl1bT0hdKVtDQEBIXTRbQ0gyXVtDSDJdT1tDSDJdNA==

> <s_epik_cmdline>
J2VwaWtfcHl0aG9uJywgJy1waCcsICc3LjAnLCAnLXRuJywgJzgnLCAnLW1hJywgJzIwMCcsICctbWV0YWxfYmluZGluZycsICctaW1hZScsICc8aW5maWxlLm1hZT4nLCAnLW9tYWUnLCAnPG91dGZpbGUubWFlPic=

> <r_lp_tautomer_probability>
1

> <r_epik_Ionization_Penalty>
0.00294688

> <r_epik_Ionization_Penalty_Charging>
0.00169971

> <r_epik_Ionization_Penalty_Neutral>
0.00124717

> <r_epik_State_Penalty>
-0

> <r_epik_Charging_Adjusted_Penalty>
0.00169971

> <i_epik_Tot_Q>
1

> <i_epik_Tot_abs_Q>
1

> <r_epik_Metal_State_Penalty>
-0

> <b_epik_Metal_Only>
0

> <s_lp_Force_Field>
OPLS_2005

> <r_lp_Energy>
53.4352

> <b_lp_Chiralities_Consistent>
1

> <s_lp_Variant>
AV-unprocessed.smi:249-21

> <Gold.Version>
5.8.1

> <Gold.Id.Protein>
6NUR|6NUR_protein|mol2

> <Gold.PLP.Fitness>
52.0003

> <Gold.PLP.PLP>
-44.3223

> <Gold.PLP.part.hbond>
-2.8053

> <Gold.PLP.part.metal>
0.0000

> <Gold.PLP.part.buried>
-5.7380

> <Gold.PLP.part.nonpolar>
-35.4244

> <Gold.PLP.part.repulsive>
0.0347

> <Gold.PLP.ligand.clash>
0.0000

> <Gold.PLP.ligand.torsion>
1.1765

> <Gold.PLP.Chemscore.Hbond>
3.0000

> <Gold.PLP.Chemscore.CHOScore>
0.0000

> <Gold.PLP.Chemscore.Metal>
0.0000

> <Gold.Chemscore.Hbonds>
donor molecule, donor type, donor heavy atom, donor atom, acceptor molecule, acceptor atom, score
      L1  H     3    64       P1  7948  2.00
      L1  H    21    50       P1  8028  1.00

> <Gold.PLP.Chemscore.Internal.Correction>
1.0309

> <Gold.Rescore>
     Score         DG    S(hbond)    S(metal)    S(lipo)     H(rot)  DE(clash)    DE(int)     intcor
     15.10     -16.71       1.94        0.00     104.18       2.90       0.05       1.56       ----

> <Gold.Chemscore.Fitness>
15.1030

> <Gold.Chemscore.DG>
-16.7139

> <Gold.Chemscore.ZeroCoef>
-5.4800

> <Gold.Chemscore.Hbond>
1.9371

> <Gold.Chemscore.Metal>
0.0000

> <Gold.Chemscore.Lipo>
104.1846

> <Gold.Chemscore.Internal_Hbond>
0.0000

> <Gold.Chemscore.DEClash>
0.0519

> <Gold.Chemscore.DEInternal>
1.5589

> <Gold.Chemscore.Rot>
2.9006

> <Gold.Chemscore.Internal.Correction>
   9.000000E+99

> <Gold.Chemscore.Hbonds>
donor molecule, donor type, donor heavy atom, donor atom, acceptor molecule, acceptor atom, score
      L1  H     3    64       P1  7948  0.70
      L1  H    21    50       P1  8028  0.96

> <Gold.Chemscore.Hbond.Weighted>
-6.4699

> <Gold.Chemscore.Metal.Weighted>
-0.0000

> <Gold.Chemscore.Lipo.Weighted>
-12.1896

> <Gold.Chemscore.Internal_Hbond.Weighted>
0.0000

> <Gold.Chemscore.DEClash.Weighted>
0.0519

> <Gold.Chemscore.DEInternal.Weighted>
1.5589

> <Gold.Chemscore.Rot.Weighted>
7.4256

> <Gold.Chemscore.Internal.Correction.Weighted>
   9.000000E+99

> <Gold.Protein.RotatedTorsions>
[ 6907 6896 6895 6894 ] final   60.63 input  -60.11 | X-H torsion
[ 7974 7965 7964 7962 ] final  -37.39 input  175.53 | X-H torsion
[ 8008 7997 7996 7995 ] final  -91.70 input   59.86 | X-H torsion
[ 10167 10162 10161 10158 ] final  100.58 input  -65.29 | X-H torsion
[ 10718 10713 10712 10709 ] final  162.96 input   66.30 | X-H torsion
[ 10763 10752 10751 10750 ] final -101.99 input  -60.55 | X-H torsion
[ 11005 11000 10999 10996 ] final -171.93 input  -57.11 | X-H torsion

> <Gold.Protein.ActiveResidues>
 VAL166  LYS551  ARG553  GLY616  TRP617  ASP618  TYR619  PRO620  LYS621  CYS622 
 ASP623  PHE694  ASN695  SER759  ASP760  ASP761  ALA762  ILE779  LEU786  VAL792 
 PHE793  MET794  SER795  GLU796  ALA797  LYS798  CYS799  TRP800  GLU811  SER814 

> <Gold.Protein.RotatedAtoms>
  152.4019  134.6271  160.0065 H   0  0  0  0  0  0  0  0  0  0  0  0  # atno 6907 bound_to 6896
  151.6474  133.3317  159.3152 H   0  0  0  0  0  0  0  0  0  0  0  0  # atno 6908 bound_to 6896
  150.7918  134.6991  159.6584 H   0  0  0  0  0  0  0  0  0  0  0  0  # atno 6909 bound_to 6896
  146.0579  140.6390  142.9011 H   0  0  0  0  0  0  0  0  0  0  0  0  # atno 7974 bound_to 7965
  154.7139  140.0517  157.0576 H   0  0  0  0  0  0  0  0  0  0  0  0  # atno 8008 bound_to 7997
  155.0517  140.3180  155.4671 H   0  0  0  0  0  0  0  0  0  0  0  0  # atno 8009 bound_to 7997
  156.2797  140.2114  156.5643 H   0  0  0  0  0  0  0  0  0  0  0  0  # atno 8010 bound_to 7997
  139.7515  144.6982  151.0426 H   0  0  0  0  0  0  0  0  0  0  0  0  # atno 10167 bound_to 10162
  157.1152  131.0478  151.2439 H   0  0  0  0  0  0  0  0  0  0  0  0  # atno 10718 bound_to 10713
  154.7700  135.4877  153.9630 H   0  0  0  0  0  0  0  0  0  0  0  0  # atno 10763 bound_to 10752
  153.1355  135.6762  153.9116 H   0  0  0  0  0  0  0  0  0  0  0  0  # atno 10764 bound_to 10752
  153.8807  135.3132  155.3423 H   0  0  0  0  0  0  0  0  0  0  0  0  # atno 10765 bound_to 10752
  140.5027  134.5877  157.4993 H   0  0  0  0  0  0  0  0  0  0  0  0  # atno 11005 bound_to 11000
  144.7158  140.4205  143.7045 LP  0  0  0  0  0  0  0  0  0  0  0  0  # atno 17320 bound_to 7965
  145.6611  139.1581  143.2808 LP  0  0  0  0  0  0  0  0  0  0  0  0  # atno 17321 bound_to 7965
  140.7798  143.4804  151.0026 LP  0  0  0  0  0  0  0  0  0  0  0  0  # atno 17342 bound_to 10162
  139.8491  143.7462  152.3178 LP  0  0  0  0  0  0  0  0  0  0  0  0  # atno 17343 bound_to 10162
  157.4524  130.7606  149.7163 LP  0  0  0  0  0  0  0  0  0  0  0  0  # atno 17370 bound_to 10713
  155.9841  130.3994  150.3329 LP  0  0  0  0  0  0  0  0  0  0  0  0  # atno 17371 bound_to 10713
  139.9704  134.7303  156.0053 LP  0  0  0  0  0  0  0  0  0  0  0  0  # atno 17394 bound_to 11000
  141.1427  133.6561  156.3776 LP  0  0  0  0  0  0  0  0  0  0  0  0  # atno 17395 bound_to 11000

$$$$
