AV-unprocessed.smi:1703|AV-procd|sdf|6865|dock2
  -GOLD-   22720 8 53D 1   1.00000     0.00000
 Structure written by MMmdl.
 49 51  0  0  0  0  0  0  0  0  2 V2000
  146.5979  140.4443  157.9182 C   0  0  0  0  0  0  0  0  0  0  0  0
  147.6832  140.3001  156.8459 C   0  0  2  0  0  0  0  0  0  0  0  0
  148.8510  141.2809  157.0636 C   0  0  0  0  0  0  0  0  0  0  0  0
  149.8401  141.1555  155.9654 N   0  3  2  0  0  0  0  0  0  0  0  0
  151.0359  142.0210  156.1332 C   0  0  0  0  0  0  0  0  0  0  0  0
  151.6714  141.8836  157.5307 C   0  0  1  0  0  0  0  0  0  0  0  0
  152.6715  140.8838  157.4776 O   0  0  0  0  0  0  0  0  0  0  0  0
  152.2923  143.2111  158.0103 C   0  0  0  0  0  0  0  0  0  0  0  0
  152.4242  143.2805  159.4599 N   0  0  0  0  0  0  0  0  0  0  0  0
  151.7577  144.0862  160.3250 C   0  0  0  0  0  0  0  0  0  0  0  0
  150.7381  145.0836  159.8673 C   0  0  0  0  0  0  0  0  0  0  0  0
  149.6662  144.4860  159.1702 O   0  0  0  0  0  0  0  0  0  0  0  0
  152.0695  143.9392  161.6129 N   0  0  0  0  0  0  0  0  0  0  0  0
  153.0316  142.9490  161.5819 C   0  0  0  0  0  0  0  0  0  0  0  0
  153.7587  142.3422  162.6309 C   0  0  0  0  0  0  0  0  0  0  0  0
  154.7045  141.3337  162.3535 C   0  0  0  0  0  0  0  0  0  0  0  0
  154.9379  140.9194  161.0263 C   0  0  0  0  0  0  0  0  0  0  0  0
  154.2254  141.5116  159.9661 C   0  0  0  0  0  0  0  0  0  0  0  0
  153.2800  142.5163  160.2483 C   0  0  0  0  0  0  0  0  0  0  0  0
  149.1783  141.3441  154.6529 C   0  0  0  0  0  0  0  0  0  0  0  0
  147.9992  140.3645  154.4982 C   0  0  2  0  0  0  0  0  0  0  0  0
  147.2371  140.5787  153.1859 C   0  0  0  0  0  0  0  0  0  0  0  0
  147.0906  140.5570  155.5770 O   0  0  0  0  0  0  0  0  0  0  0  0
  147.0003  140.2523  158.9132 H   0  0  0  0  0  0  0  0  0  0  0  0
  145.7851  139.7379  157.7472 H   0  0  0  0  0  0  0  0  0  0  0  0
  146.1720  141.4482  157.9173 H   0  0  0  0  0  0  0  0  0  0  0  0
  148.0568  139.2746  156.8668 H   0  0  0  0  0  0  0  0  0  0  0  0
  148.4792  142.3062  157.1043 H   0  0  0  0  0  0  0  0  0  0  0  0
  149.3207  141.0740  158.0247 H   0  0  0  0  0  0  0  0  0  0  0  0
  151.7858  141.7588  155.3850 H   0  0  0  0  0  0  0  0  0  0  0  0
  150.7610  143.0585  155.9363 H   0  0  0  0  0  0  0  0  0  0  0  0
  150.9217  141.5682  158.2550 H   0  0  0  0  0  0  0  0  0  0  0  0
  152.2822  140.0529  157.7045 H   0  0  0  0  0  0  0  0  0  0  0  0
  153.2790  143.3504  157.5664 H   0  0  0  0  0  0  0  0  0  0  0  0
  151.6913  144.0544  157.6701 H   0  0  0  0  0  0  0  0  0  0  0  0
  150.3512  145.6377  160.7221 H   0  0  0  0  0  0  0  0  0  0  0  0
  151.2162  145.8121  159.2117 H   0  0  0  0  0  0  0  0  0  0  0  0
  149.3662  145.0886  158.5069 H   0  0  0  0  0  0  0  0  0  0  0  0
  153.5879  142.6533  163.6506 H   0  0  0  0  0  0  0  0  0  0  0  0
  155.2536  140.8762  163.1632 H   0  0  0  0  0  0  0  0  0  0  0  0
  155.6645  140.1466  160.8229 H   0  0  0  0  0  0  0  0  0  0  0  0
  154.4025  141.1946  158.9494 H   0  0  0  0  0  0  0  0  0  0  0  0
  148.8303  142.3748  154.5658 H   0  0  0  0  0  0  0  0  0  0  0  0
  149.8985  141.1785  153.8504 H   0  0  0  0  0  0  0  0  0  0  0  0
  148.3686  139.3376  154.5195 H   0  0  0  0  0  0  0  0  0  0  0  0
  147.8911  140.4389  152.3248 H   0  0  0  0  0  0  0  0  0  0  0  0
  146.8199  141.5845  153.1301 H   0  0  0  0  0  0  0  0  0  0  0  0
  146.4127  139.8710  153.0941 H   0  0  0  0  0  0  0  0  0  0  0  0
  150.1775  140.2031  155.9775 H   0  0  0  0  0  0  0  0  0  0  0  0
  1  2  1  0  0  0  0
  1 24  1  0  0  0  0
  1 25  1  0  0  0  0
  1 26  1  0  0  0  0
  2 23  1  0  0  0  0
  2  3  1  0  0  0  0
  2 27  1  0  0  0  0
  3  4  1  0  0  0  0
  3 28  1  0  0  0  0
  3 29  1  0  0  0  0
  4  5  1  0  0  0  0
  4 20  1  0  0  0  0
  4 49  1  0  0  0  0
  5  6  1  0  0  0  0
  5 30  1  0  0  0  0
  5 31  1  0  0  0  0
  6  7  1  0  0  0  0
  6  8  1  0  0  0  0
  6 32  1  0  0  0  0
  7 33  1  0  0  0  0
  8  9  1  0  0  0  0
  8 34  1  0  0  0  0
  8 35  1  0  0  0  0
  9 19  1  0  0  0  0
  9 10  1  0  0  0  0
 10 11  1  0  0  0  0
 10 13  2  0  0  0  0
 11 12  1  0  0  0  0
 11 36  1  0  0  0  0
 11 37  1  0  0  0  0
 12 38  1  0  0  0  0
 13 14  1  0  0  0  0
 14 19  2  0  0  0  0
 14 15  1  0  0  0  0
 15 16  2  0  0  0  0
 15 39  1  0  0  0  0
 16 17  1  0  0  0  0
 16 40  1  0  0  0  0
 17 18  2  0  0  0  0
 17 41  1  0  0  0  0
 18 19  1  0  0  0  0
 18 42  1  0  0  0  0
 20 21  1  0  0  0  0
 20 43  1  0  0  0  0
 20 44  1  0  0  0  0
 21 22  1  0  0  0  0
 21 23  1  0  0  0  0
 21 45  1  0  0  0  0
 22 46  1  0  0  0  0
 22 47  1  0  0  0  0
 22 48  1  0  0  0  0
M  CHG  1   4   1
M  END
> <s_m_source_file>
AV-unprocessed.smi

> <i_m_source_file_index>
1703

> <i_lp_mmshare_version>
43012

> <i_f3d_flags>
0

> <s_epik_input>
W0NIM11bQ0BASF0xW0NIMl1OKFtDSDJdW0NASF0oTzEpW0NIM10pW0NIMl1bQ0BIXShbT0hdKVtDSDJdbihjKG4yKVtDSDJdW09IXSljKGMyMylbY0hdW2NIXVtjSF1bY0hdMw==

> <s_epik_cmdline>
J2VwaWtfcHl0aG9uJywgJy1waCcsICc3LjAnLCAnLXRuJywgJzgnLCAnLW1hJywgJzIwMCcsICctbWV0YWxfYmluZGluZycsICctaW1hZScsICc8aW5maWxlLm1hZT4nLCAnLW9tYWUnLCAnPG91dGZpbGUubWFlPic=

> <r_epik_Ionization_Penalty>
0.655661

> <r_epik_Ionization_Penalty_Charging>
0.608065

> <r_epik_Ionization_Penalty_Neutral>
0.0475963

> <r_epik_State_Penalty>
0.695267

> <r_epik_Charging_Adjusted_Penalty>
1.30333

> <i_epik_Tot_Q>
1

> <i_epik_Tot_abs_Q>
1

> <r_epik_Metal_State_Penalty>
0.653591

> <b_epik_Metal_Only>
0

> <s_lp_Force_Field>
OPLS_2005

> <r_lp_Energy>
21.6457

> <b_lp_Chiralities_Consistent>
1

> <s_lp_Variant>
AV-unprocessed.smi:1703-13

> <Gold.Version>
5.8.1

> <Gold.Id.Protein>
6NUR|6NUR_protein|mol2

> <Gold.PLP.Fitness>
50.9485

> <Gold.PLP.PLP>
-49.3185

> <Gold.PLP.part.hbond>
-1.6137

> <Gold.PLP.part.metal>
0.0000

> <Gold.PLP.part.buried>
-4.6365

> <Gold.PLP.part.nonpolar>
-42.2230

> <Gold.PLP.part.repulsive>
0.3195

> <Gold.PLP.ligand.clash>
0.0000

> <Gold.PLP.ligand.torsion>
0.7418

> <Gold.PLP.Chemscore.Hbond>
1.0114

> <Gold.PLP.Chemscore.CHOScore>
0.0000

> <Gold.PLP.Chemscore.Metal>
0.0000

> <Gold.Chemscore.Hbonds>
donor molecule, donor type, donor heavy atom, donor atom, acceptor molecule, acceptor atom, score
      L1  H    12    38       P1  8029  0.84
      P1  H  7997  8008       L1     7  0.50

> <Gold.PLP.Chemscore.Internal.Correction>
0.0794

> <Gold.Rescore>
     Score         DG    S(hbond)    S(metal)    S(lipo)     H(rot)  DE(clash)    DE(int)     intcor
     13.32     -14.38       0.70        0.00     120.85       2.96       0.25       0.80       ----

> <Gold.Chemscore.Fitness>
13.3245

> <Gold.Chemscore.DG>
-14.3808

> <Gold.Chemscore.ZeroCoef>
-5.4800

> <Gold.Chemscore.Hbond>
0.7011

> <Gold.Chemscore.Metal>
0.0000

> <Gold.Chemscore.Lipo>
120.8504

> <Gold.Chemscore.Internal_Hbond>
0.0000

> <Gold.Chemscore.DEClash>
0.2536

> <Gold.Chemscore.DEInternal>
0.8026

> <Gold.Chemscore.Rot>
2.9611

> <Gold.Chemscore.Internal.Correction>
   9.000000E+99

> <Gold.Chemscore.Hbonds>
donor molecule, donor type, donor heavy atom, donor atom, acceptor molecule, acceptor atom, score
      L1  H    12    38       P1  8029  0.63
      P1  H  7997  8008       L1     7  0.07

> <Gold.Chemscore.Hbond.Weighted>
-2.3416

> <Gold.Chemscore.Metal.Weighted>
-0.0000

> <Gold.Chemscore.Lipo.Weighted>
-14.1395

> <Gold.Chemscore.Internal_Hbond.Weighted>
0.0000

> <Gold.Chemscore.DEClash.Weighted>
0.2536

> <Gold.Chemscore.DEInternal.Weighted>
0.8026

> <Gold.Chemscore.Rot.Weighted>
7.5803

> <Gold.Chemscore.Internal.Correction.Weighted>
   9.000000E+99

> <Gold.Protein.RotatedTorsions>
[ 6907 6896 6895 6894 ] final  153.43 input  -60.11 | X-H torsion
[ 7974 7965 7964 7962 ] final   52.17 input  175.53 | X-H torsion
[ 8008 7997 7996 7995 ] final  -63.00 input   59.86 | X-H torsion
[ 10167 10162 10161 10158 ] final   97.42 input  -65.29 | X-H torsion
[ 10718 10713 10712 10709 ] final  124.80 input   66.30 | X-H torsion
[ 10763 10752 10751 10750 ] final  146.67 input  -60.55 | X-H torsion
[ 11005 11000 10999 10996 ] final  176.77 input  -57.11 | X-H torsion

> <Gold.Protein.ActiveResidues>
 VAL166  LYS551  ARG553  GLY616  TRP617  ASP618  TYR619  PRO620  LYS621  CYS622 
 ASP623  PHE694  ASN695  SER759  ASP760  ASP761  ALA762  ILE779  LEU786  VAL792 
 PHE793  MET794  SER795  GLU796  ALA797  LYS798  CYS799  TRP800  GLU811  SER814 

> <Gold.Protein.RotatedAtoms>
  152.0728  133.4115  159.4466 H   0  0  0  0  0  0  0  0  0  0  0  0  # atno 6907 bound_to 6896
  150.6863  134.3072  159.4740 H   0  0  0  0  0  0  0  0  0  0  0  0  # atno 6908 bound_to 6896
  152.0905  134.9410  160.0622 H   0  0  0  0  0  0  0  0  0  0  0  0  # atno 6909 bound_to 6896
  145.9840  139.4271  143.0114 H   0  0  0  0  0  0  0  0  0  0  0  0  # atno 7974 bound_to 7965
  154.4530  140.0984  156.6675 H   0  0  0  0  0  0  0  0  0  0  0  0  # atno 8008 bound_to 7997
  155.5225  140.3479  155.4391 H   0  0  0  0  0  0  0  0  0  0  0  0  # atno 8009 bound_to 7997
  156.0721  140.1352  156.9805 H   0  0  0  0  0  0  0  0  0  0  0  0  # atno 8010 bound_to 7997
  139.7803  144.6891  151.0032 H   0  0  0  0  0  0  0  0  0  0  0  0  # atno 10167 bound_to 10162
  157.5555  131.1092  150.8629 H   0  0  0  0  0  0  0  0  0  0  0  0  # atno 10718 bound_to 10713
  154.0257  135.2902  155.3375 H   0  0  0  0  0  0  0  0  0  0  0  0  # atno 10763 bound_to 10752
  154.7019  135.5185  153.8542 H   0  0  0  0  0  0  0  0  0  0  0  0  # atno 10764 bound_to 10752
  153.0662  135.6631  154.0474 H   0  0  0  0  0  0  0  0  0  0  0  0  # atno 10765 bound_to 10752
  140.3767  134.6982  157.4426 H   0  0  0  0  0  0  0  0  0  0  0  0  # atno 11005 bound_to 11000
  145.7728  140.9889  143.1140 LP  0  0  0  0  0  0  0  0  0  0  0  0  # atno 17320 bound_to 7965
  144.6869  139.9468  143.7477 LP  0  0  0  0  0  0  0  0  0  0  0  0  # atno 17321 bound_to 7965
  140.7818  143.4490  151.0440 LP  0  0  0  0  0  0  0  0  0  0  0  0  # atno 17342 bound_to 10162
  139.8171  143.7870  152.3175 LP  0  0  0  0  0  0  0  0  0  0  0  0  # atno 17343 bound_to 10162
  156.9142  130.5291  149.5280 LP  0  0  0  0  0  0  0  0  0  0  0  0  # atno 17370 bound_to 10713
  156.0615  130.5666  150.9201 LP  0  0  0  0  0  0  0  0  0  0  0  0  # atno 17371 bound_to 10713
  140.0509  134.6131  155.8862 LP  0  0  0  0  0  0  0  0  0  0  0  0  # atno 17394 bound_to 11000
  141.1937  133.6580  156.5559 LP  0  0  0  0  0  0  0  0  0  0  0  0  # atno 17395 bound_to 11000

$$$$
