AV-unprocessed.smi:1715|AV-procd|sdf|6913|dock8
  -GOLD-   22720 8113D 1   1.00000     0.00000
 Structure written by MMmdl.
 41 42  0  0  0  0  0  0  0  0  2 V2000
  153.2025  138.6962  154.3233 C   0  0  0  0  0  0  0  0  0  0  0  0
  151.7138  138.3939  154.1199 C   0  0  1  0  0  0  0  0  0  0  0  0
  151.2602  137.1475  154.9029 C   0  0  0  0  0  0  0  0  0  0  0  0
  149.8029  136.9312  154.7405 N   0  3  1  0  0  0  0  0  0  0  0  0
  149.3359  135.7032  155.4311 C   0  0  0  0  0  0  0  0  0  0  0  0
  147.8142  135.4941  155.3028 C   0  0  0  0  0  0  0  0  0  0  0  0
  147.3956  135.4481  153.9063 N   0  0  0  0  0  0  0  0  0  0  0  0
  146.3074  134.8095  153.4530 C   0  0  0  0  0  0  0  0  0  0  0  0
  145.5394  134.1794  154.1804 O   0  0  0  0  0  0  0  0  0  0  0  0
  146.1753  134.9481  152.1236 N   0  0  0  0  0  0  0  0  0  0  0  0
  145.1562  134.4067  151.2995 C   0  0  0  0  0  0  0  0  0  0  0  0
  145.0484  133.0356  150.9407 C   0  0  0  0  0  0  0  0  0  0  0  0
  143.9964  132.8200  150.1642 N   0  0  0  0  0  0  0  0  0  0  0  0
  143.4310  134.0401  150.0244 N   0  0  0  0  0  0  0  0  0  0  0  0
  144.1032  135.0364  150.6974 C   0  0  0  0  0  0  0  0  0  0  0  0
  149.0560  138.1528  155.1300 C   0  0  0  0  0  0  0  0  0  0  0  0
  149.5697  139.3740  154.3435 C   0  0  1  0  0  0  0  0  0  0  0  0
  148.8807  140.6728  154.7758 C   0  0  0  0  0  0  0  0  0  0  0  0
  150.9674  139.5194  154.5685 O   0  0  0  0  0  0  0  0  0  0  0  0
  142.5953  134.1751  149.4730 H   0  0  0  0  0  0  0  0  0  0  0  0
  153.8224  137.8662  153.9836 H   0  0  0  0  0  0  0  0  0  0  0  0
  153.4298  138.8758  155.3745 H   0  0  0  0  0  0  0  0  0  0  0  0
  153.4996  139.5828  153.7629 H   0  0  0  0  0  0  0  0  0  0  0  0
  151.5334  138.2451  153.0537 H   0  0  0  0  0  0  0  0  0  0  0  0
  151.8051  136.2725  154.5460 H   0  0  0  0  0  0  0  0  0  0  0  0
  151.4941  137.2610  155.9631 H   0  0  0  0  0  0  0  0  0  0  0  0
  149.8338  134.8372  154.9923 H   0  0  0  0  0  0  0  0  0  0  0  0
  149.6422  135.7363  156.4779 H   0  0  0  0  0  0  0  0  0  0  0  0
  147.4923  134.5779  155.7989 H   0  0  0  0  0  0  0  0  0  0  0  0
  147.2838  136.3135  155.7886 H   0  0  0  0  0  0  0  0  0  0  0  0
  147.9706  135.9424  153.2394 H   0  0  0  0  0  0  0  0  0  0  0  0
  146.8767  135.4980  151.6493 H   0  0  0  0  0  0  0  0  0  0  0  0
  145.6853  132.2066  151.2120 H   0  0  0  0  0  0  0  0  0  0  0  0
  143.7763  136.0654  150.6836 H   0  0  0  0  0  0  0  0  0  0  0  0
  147.9913  138.0250  154.9373 H   0  0  0  0  0  0  0  0  0  0  0  0
  149.1677  138.3214  156.2026 H   0  0  0  0  0  0  0  0  0  0  0  0
  149.3916  139.2261  153.2767 H   0  0  0  0  0  0  0  0  0  0  0  0
  147.8044  140.6205  154.6109 H   0  0  0  0  0  0  0  0  0  0  0  0
  149.2623  141.5228  154.2096 H   0  0  0  0  0  0  0  0  0  0  0  0
  149.0485  140.8758  155.8339 H   0  0  0  0  0  0  0  0  0  0  0  0
  149.6456  136.7880  153.7530 H   0  0  0  0  0  0  0  0  0  0  0  0
  1  2  1  0  0  0  0
  1 21  1  0  0  0  0
  1 22  1  0  0  0  0
  1 23  1  0  0  0  0
  2 19  1  0  0  0  0
  2  3  1  0  0  0  0
  2 24  1  0  0  0  0
  3  4  1  0  0  0  0
  3 25  1  0  0  0  0
  3 26  1  0  0  0  0
  4  5  1  0  0  0  0
  4 16  1  0  0  0  0
  4 41  1  0  0  0  0
  5  6  1  0  0  0  0
  5 27  1  0  0  0  0
  5 28  1  0  0  0  0
  6  7  1  0  0  0  0
  6 29  1  0  0  0  0
  6 30  1  0  0  0  0
  7  8  1  0  0  0  0
  7 31  1  0  0  0  0
  8  9  2  0  0  0  0
  8 10  1  0  0  0  0
 10 11  1  0  0  0  0
 10 32  1  0  0  0  0
 11 15  2  0  0  0  0
 11 12  1  0  0  0  0
 12 13  2  0  0  0  0
 12 33  1  0  0  0  0
 13 14  1  0  0  0  0
 14 20  1  0  0  0  0
 14 15  1  0  0  0  0
 15 34  1  0  0  0  0
 16 17  1  0  0  0  0
 16 35  1  0  0  0  0
 16 36  1  0  0  0  0
 17 18  1  0  0  0  0
 17 19  1  0  0  0  0
 17 37  1  0  0  0  0
 18 38  1  0  0  0  0
 18 39  1  0  0  0  0
 18 40  1  0  0  0  0
M  CHG  1   4   1
M  END
> <s_m_source_file>
AV-unprocessed.smi

> <i_m_source_file_index>
1715

> <i_lp_mmshare_version>
43012

> <i_f3d_flags>
0

> <s_epik_input>
W0NIM11bQ0BASF0xW0NIMl1OKFtDSDJdW0NASF0oTzEpW0NIM10pW0NIMl1bQ0gyXVtOSF1DKD1PKVtOSF1jMltjSF1uW25IXVtjSF0y

> <s_epik_cmdline>
J2VwaWtfcHl0aG9uJywgJy1waCcsICc3LjAnLCAnLXRuJywgJzgnLCAnLW1hJywgJzIwMCcsICctbWV0YWxfYmluZGluZycsICctaW1hZScsICc8aW5maWxlLm1hZT4nLCAnLW9tYWUnLCAnPG91dGZpbGUubWFlPic=

> <r_lp_tautomer_probability>
0.5

> <r_epik_Ionization_Penalty>
0.646007

> <r_epik_Ionization_Penalty_Charging>
0.645968

> <r_epik_Ionization_Penalty_Neutral>
3.91671e-05

> <r_epik_State_Penalty>
0.664063

> <r_epik_Charging_Adjusted_Penalty>
1.31003

> <i_epik_Tot_Q>
1

> <i_epik_Tot_abs_Q>
1

> <r_epik_Metal_State_Penalty>
0.664064

> <b_epik_Metal_Only>
0

> <s_lp_Force_Field>
OPLS_2005

> <r_lp_Energy>
16.9027

> <b_lp_Chiralities_Consistent>
1

> <s_lp_Variant>
AV-unprocessed.smi:1715-5

> <Gold.Version>
5.8.1

> <Gold.Id.Protein>
6NUR|6NUR_protein|mol2

> <Gold.PLP.Fitness>
47.4260

> <Gold.PLP.PLP>
-30.3851

> <Gold.PLP.part.hbond>
-5.6263

> <Gold.PLP.part.metal>
0.0000

> <Gold.PLP.part.buried>
-4.7916

> <Gold.PLP.part.nonpolar>
-21.0065

> <Gold.PLP.part.repulsive>
0.5364

> <Gold.PLP.ligand.clash>
0.0000

> <Gold.PLP.ligand.torsion>
0.8887

> <Gold.PLP.Chemscore.Hbond>
5.2671

> <Gold.PLP.Chemscore.CHOScore>
1.0000

> <Gold.PLP.Chemscore.Metal>
0.0000

> <Gold.Chemscore.Hbonds>
donor molecule, donor type, donor heavy atom, donor atom, acceptor molecule, acceptor atom, score
      L1  H     4    41       P1  7948  1.85
      L1  H     7    31       P1  7948  1.00
      L1  H    10    32       P1  7948  0.55
      L1  H    14    20       P1 10186  0.90
      P1  H  7989  7998       L1    19  1.00
      L1  C    15    34       P1 10171  0.70

> <Gold.PLP.Chemscore.Internal.Correction>
0.0171

> <Gold.Rescore>
     Score         DG    S(hbond)    S(metal)    S(lipo)     H(rot)  DE(clash)    DE(int)     intcor
     17.49     -18.32       2.82        0.00      65.77       1.67       0.00       0.83       ----

> <Gold.Chemscore.Fitness>
17.4928

> <Gold.Chemscore.DG>
-18.3209

> <Gold.Chemscore.ZeroCoef>
-5.4800

> <Gold.Chemscore.Hbond>
2.8185

> <Gold.Chemscore.Metal>
0.0000

> <Gold.Chemscore.Lipo>
65.7680

> <Gold.Chemscore.Internal_Hbond>
0.0000

> <Gold.Chemscore.DEClash>
0.0015

> <Gold.Chemscore.DEInternal>
0.8267

> <Gold.Chemscore.Rot>
1.6671

> <Gold.Chemscore.Internal.Correction>
   9.000000E+99

> <Gold.Chemscore.Hbonds>
donor molecule, donor type, donor heavy atom, donor atom, acceptor molecule, acceptor atom, score
      L1  H     4    41       P1  7948  0.66
      L1  H     7    31       P1  7948  0.99
      L1  H    10    32       P1  7948  0.55
      L1  H    14    20       P1 10186  0.87
      P1  H  7989  7998       L1    19  0.22

> <Gold.Chemscore.Hbond.Weighted>
-9.4137

> <Gold.Chemscore.Metal.Weighted>
-0.0000

> <Gold.Chemscore.Lipo.Weighted>
-7.6949

> <Gold.Chemscore.Internal_Hbond.Weighted>
0.0000

> <Gold.Chemscore.DEClash.Weighted>
0.0015

> <Gold.Chemscore.DEInternal.Weighted>
0.8267

> <Gold.Chemscore.Rot.Weighted>
4.2677

> <Gold.Chemscore.Internal.Correction.Weighted>
   9.000000E+99

> <Gold.Protein.RotatedTorsions>
[ 6907 6896 6895 6894 ] final  -52.12 input  -60.11 | X-H torsion
[ 7974 7965 7964 7962 ] final -146.15 input  175.53 | X-H torsion
[ 8008 7997 7996 7995 ] final  104.16 input   59.86 | X-H torsion
[ 10167 10162 10161 10158 ] final -178.24 input  -65.29 | X-H torsion
[ 10718 10713 10712 10709 ] final  -63.57 input   66.30 | X-H torsion
[ 10763 10752 10751 10750 ] final  -96.91 input  -60.55 | X-H torsion
[ 11005 11000 10999 10996 ] final  127.47 input  -57.11 | X-H torsion

> <Gold.Protein.ActiveResidues>
 VAL166  LYS551  ARG553  GLY616  TRP617  ASP618  TYR619  PRO620  LYS621  CYS622 
 ASP623  PHE694  ASN695  SER759  ASP760  ASP761  ALA762  ILE779  LEU786  VAL792 
 PHE793  MET794  SER795  GLU796  ALA797  LYS798  CYS799  TRP800  GLU811  SER814 

> <Gold.Protein.RotatedAtoms>
  150.8547  134.7883  159.7036 H   0  0  0  0  0  0  0  0  0  0  0  0  # atno 6907 bound_to 6896
  152.4602  134.5197  159.9789 H   0  0  0  0  0  0  0  0  0  0  0  0  # atno 6908 bound_to 6896
  151.5312  133.3411  159.2954 H   0  0  0  0  0  0  0  0  0  0  0  0  # atno 6909 bound_to 6896
  144.8178  140.5492  143.5598 H   0  0  0  0  0  0  0  0  0  0  0  0  # atno 7974 bound_to 7965
  156.1548  140.3152  155.8708 H   0  0  0  0  0  0  0  0  0  0  0  0  # atno 8008 bound_to 7997
  155.3899  140.0493  157.3058 H   0  0  0  0  0  0  0  0  0  0  0  0  # atno 8009 bound_to 7997
  154.5091  140.2158  155.9202 H   0  0  0  0  0  0  0  0  0  0  0  0  # atno 8010 bound_to 7997
  139.5442  144.2282  152.0954 H   0  0  0  0  0  0  0  0  0  0  0  0  # atno 10167 bound_to 10162
  156.0782  130.4222  150.1297 H   0  0  0  0  0  0  0  0  0  0  0  0  # atno 10718 bound_to 10713
  154.7281  135.5066  153.8920 H   0  0  0  0  0  0  0  0  0  0  0  0  # atno 10763 bound_to 10752
  153.0924  135.6663  153.9837 H   0  0  0  0  0  0  0  0  0  0  0  0  # atno 10764 bound_to 10752
  153.9644  135.3044  155.3411 H   0  0  0  0  0  0  0  0  0  0  0  0  # atno 10765 bound_to 10752
  139.9509  134.9622  156.8860 H   0  0  0  0  0  0  0  0  0  0  0  0  # atno 11005 bound_to 11000
  145.5173  139.1477  143.3571 LP  0  0  0  0  0  0  0  0  0  0  0  0  # atno 17320 bound_to 7965
  146.2483  140.5314  142.8904 LP  0  0  0  0  0  0  0  0  0  0  0  0  # atno 17321 bound_to 7965
  140.1765  144.4885  150.6551 LP  0  0  0  0  0  0  0  0  0  0  0  0  # atno 17342 bound_to 10162
  140.6683  143.2276  151.5688 LP  0  0  0  0  0  0  0  0  0  0  0  0  # atno 17343 bound_to 10162
  156.9333  130.9721  151.3529 LP  0  0  0  0  0  0  0  0  0  0  0  0  # atno 17370 bound_to 10713
  157.5888  130.8428  149.8628 LP  0  0  0  0  0  0  0  0  0  0  0  0  # atno 17371 bound_to 10713
  140.5721  134.0433  155.7434 LP  0  0  0  0  0  0  0  0  0  0  0  0  # atno 17394 bound_to 11000
  141.1172  133.9521  157.2800 LP  0  0  0  0  0  0  0  0  0  0  0  0  # atno 17395 bound_to 11000

$$$$
