AV-unprocessed.smi:1231|AV-procd|sdf|5160|dock1
  -GOLD-   22720 4233D 1   1.00000     0.00000
 Structure written by MMmdl.
 42 43  0  0  0  0  0  0  0  0  1 V2000
  151.8633  138.1840  154.7173 C   0  0  0  0  0  0  0  0  0  0  0  0
  150.6654  139.0654  155.0856 C   0  0  2  0  0  0  0  0  0  0  0  0
  149.5118  138.9286  154.0756 C   0  0  0  0  0  0  0  0  0  0  0  0
  148.4062  139.8261  154.3854 N   0  0  0  0  0  0  0  0  0  0  0  0
  147.3076  139.6497  153.4371 C   0  0  0  0  0  0  0  0  0  0  0  0
  146.3661  138.4711  153.7496 C   0  0  0  0  0  0  0  0  0  0  0  0
  146.6416  137.3244  152.8926 N   0  0  0  0  0  0  0  0  0  0  0  0
  145.7305  136.4293  152.4848 C   0  0  0  0  0  0  0  0  0  0  0  0
  144.5439  136.4717  152.8113 O   0  0  0  0  0  0  0  0  0  0  0  0
  146.2857  135.5024  151.6843 N   0  0  0  0  0  0  0  0  0  0  0  0
  145.6569  134.3978  151.0505 C   0  0  0  0  0  0  0  0  0  0  0  0
  146.5402  133.4543  150.4784 C   0  0  0  0  0  0  0  0  0  0  0  0
  146.0164  132.3219  149.8251 C   0  0  0  0  0  0  0  0  0  0  0  0
  144.6209  132.1615  149.7615 C   0  0  0  0  0  0  0  0  0  0  0  0
  143.8121  133.1466  150.3576 C   0  0  0  0  0  0  0  0  0  0  0  0
  144.3119  134.2327  150.9839 N   0  0  0  0  0  0  0  0  0  0  0  0
  148.9045  141.2000  154.4153 C   0  0  0  0  0  0  0  0  0  0  0  0
  150.0888  141.3862  155.3850 C   0  0  1  0  0  0  0  0  0  0  0  0
  149.6714  141.3792  156.8654 C   0  0  0  0  0  0  0  0  0  0  0  0
  151.1070  140.4213  155.1170 O   0  0  0  0  0  0  0  0  0  0  0  0
  151.5843  137.1303  154.6990 H   0  0  0  0  0  0  0  0  0  0  0  0
  152.6699  138.3016  155.4414 H   0  0  0  0  0  0  0  0  0  0  0  0
  152.2572  138.4440  153.7344 H   0  0  0  0  0  0  0  0  0  0  0  0
  150.3179  138.7742  156.0774 H   0  0  0  0  0  0  0  0  0  0  0  0
  149.8810  139.1319  153.0688 H   0  0  0  0  0  0  0  0  0  0  0  0
  149.1592  137.8963  154.0747 H   0  0  0  0  0  0  0  0  0  0  0  0
  146.7299  140.5727  153.3671 H   0  0  0  0  0  0  0  0  0  0  0  0
  147.7288  139.4858  152.4442 H   0  0  0  0  0  0  0  0  0  0  0  0
  146.4506  138.1829  154.7987 H   0  0  0  0  0  0  0  0  0  0  0  0
  145.3259  138.7493  153.5852 H   0  0  0  0  0  0  0  0  0  0  0  0
  147.5942  137.2124  152.5778 H   0  0  0  0  0  0  0  0  0  0  0  0
  147.2730  135.6025  151.5008 H   0  0  0  0  0  0  0  0  0  0  0  0
  147.6101  133.5935  150.5362 H   0  0  0  0  0  0  0  0  0  0  0  0
  146.6747  131.5900  149.3809 H   0  0  0  0  0  0  0  0  0  0  0  0
  144.1816  131.3065  149.2691 H   0  0  0  0  0  0  0  0  0  0  0  0
  142.7359  133.0607  150.3311 H   0  0  0  0  0  0  0  0  0  0  0  0
  149.2238  141.4894  153.4129 H   0  0  0  0  0  0  0  0  0  0  0  0
  148.1104  141.8910  154.6958 H   0  0  0  0  0  0  0  0  0  0  0  0
  150.5327  142.3620  155.1859 H   0  0  0  0  0  0  0  0  0  0  0  0
  148.9790  142.1943  157.0767 H   0  0  0  0  0  0  0  0  0  0  0  0
  150.5385  141.5061  157.5139 H   0  0  0  0  0  0  0  0  0  0  0  0
  149.1754  140.4508  157.1480 H   0  0  0  0  0  0  0  0  0  0  0  0
  1  2  1  0  0  0  0
  1 21  1  0  0  0  0
  1 22  1  0  0  0  0
  1 23  1  0  0  0  0
  2 20  1  0  0  0  0
  2  3  1  0  0  0  0
  2 24  1  0  0  0  0
  3  4  1  0  0  0  0
  3 25  1  0  0  0  0
  3 26  1  0  0  0  0
  4  5  1  0  0  0  0
  4 17  1  0  0  0  0
  5  6  1  0  0  0  0
  5 27  1  0  0  0  0
  5 28  1  0  0  0  0
  6  7  1  0  0  0  0
  6 29  1  0  0  0  0
  6 30  1  0  0  0  0
  7  8  1  0  0  0  0
  7 31  1  0  0  0  0
  8  9  2  0  0  0  0
  8 10  1  0  0  0  0
 10 11  1  0  0  0  0
 10 32  1  0  0  0  0
 11 16  1  0  0  0  0
 11 12  2  0  0  0  0
 12 13  1  0  0  0  0
 12 33  1  0  0  0  0
 13 14  2  0  0  0  0
 13 34  1  0  0  0  0
 14 15  1  0  0  0  0
 14 35  1  0  0  0  0
 15 16  2  0  0  0  0
 15 36  1  0  0  0  0
 17 18  1  0  0  0  0
 17 37  1  0  0  0  0
 17 38  1  0  0  0  0
 18 19  1  0  0  0  0
 18 20  1  0  0  0  0
 18 39  1  0  0  0  0
 19 40  1  0  0  0  0
 19 41  1  0  0  0  0
 19 42  1  0  0  0  0
M  END
> <s_m_source_file>
AV-unprocessed.smi

> <i_m_source_file_index>
1231

> <i_lp_mmshare_version>
43012

> <i_f3d_flags>
0

> <s_epik_input>
W0NIM11bQ0BASF0xW0NIMl1OKFtDSDJdW0NASF0oTzEpW0NIM10pW0NIMl1bQ0gyXVtOSF1DKD1PKVtOSF1jMltjSF1bY0hdW2NIXVtjSF1uMg==

> <s_epik_cmdline>
J2VwaWtfcHl0aG9uJywgJy1waCcsICc3LjAnLCAnLXRuJywgJzgnLCAnLW1hJywgJzIwMCcsICctbWV0YWxfYmluZGluZycsICctaW1hZScsICc8aW5maWxlLm1hZT4nLCAnLW9tYWUnLCAnPG91dGZpbGUubWFlPic=

> <r_epik_Ionization_Penalty>
0.266037

> <r_epik_Ionization_Penalty_Charging>
0

> <r_epik_Ionization_Penalty_Neutral>
0.266037

> <r_epik_State_Penalty>
0.257924

> <r_epik_Charging_Adjusted_Penalty>
0.257924

> <i_epik_Tot_Q>
0

> <i_epik_Tot_abs_Q>
0

> <r_epik_Metal_State_Penalty>
0.257923

> <b_epik_Metal_Only>
0

> <s_lp_Force_Field>
OPLS_2005

> <r_lp_Energy>
23.857

> <b_lp_Chiralities_Consistent>
1

> <s_lp_Variant>
AV-unprocessed.smi:1231-1

> <Gold.Version>
5.8.1

> <Gold.Id.Protein>
6NUR|6NUR_protein|mol2

> <Gold.PLP.Fitness>
48.0726

> <Gold.PLP.PLP>
-37.5564

> <Gold.PLP.part.hbond>
-3.0000

> <Gold.PLP.part.metal>
0.0000

> <Gold.PLP.part.buried>
-4.3546

> <Gold.PLP.part.nonpolar>
-30.2538

> <Gold.PLP.part.repulsive>
0.5192

> <Gold.PLP.ligand.clash>
0.0000

> <Gold.PLP.ligand.torsion>
0.7659

> <Gold.PLP.Chemscore.Hbond>
3.0000

> <Gold.PLP.Chemscore.CHOScore>
1.0000

> <Gold.PLP.Chemscore.Metal>
0.0000

> <Gold.Chemscore.Hbonds>
donor molecule, donor type, donor heavy atom, donor atom, acceptor molecule, acceptor atom, score
      L1  H     7    31       P1  7948  1.00
      L1  H    10    32       P1  7948  1.00
      P1  H  7989  7998       L1    20  1.00
      L1  C    15    36       P1 10186  1.00

> <Gold.PLP.Chemscore.Internal.Correction>
0.0480

> <Gold.Rescore>
     Score         DG    S(hbond)    S(metal)    S(lipo)     H(rot)  DE(clash)    DE(int)     intcor
     18.78     -20.97       2.58        0.00      92.01       1.52       0.14       2.05       ----

> <Gold.Chemscore.Fitness>
18.7837

> <Gold.Chemscore.DG>
-20.9706

> <Gold.Chemscore.ZeroCoef>
-5.4800

> <Gold.Chemscore.Hbond>
2.5769

> <Gold.Chemscore.Metal>
0.0000

> <Gold.Chemscore.Lipo>
92.0098

> <Gold.Chemscore.Internal_Hbond>
0.0000

> <Gold.Chemscore.DEClash>
0.1394

> <Gold.Chemscore.DEInternal>
2.0475

> <Gold.Chemscore.Rot>
1.5162

> <Gold.Chemscore.Internal.Correction>
   9.000000E+99

> <Gold.Chemscore.Hbonds>
donor molecule, donor type, donor heavy atom, donor atom, acceptor molecule, acceptor atom, score
      L1  H     7    31       P1  7948  0.97
      L1  H    10    32       P1  7948  0.97
      P1  H  7989  7998       L1    20  0.23

> <Gold.Chemscore.Hbond.Weighted>
-8.6069

> <Gold.Chemscore.Metal.Weighted>
-0.0000

> <Gold.Chemscore.Lipo.Weighted>
-10.7651

> <Gold.Chemscore.Internal_Hbond.Weighted>
0.0000

> <Gold.Chemscore.DEClash.Weighted>
0.1394

> <Gold.Chemscore.DEInternal.Weighted>
2.0475

> <Gold.Chemscore.Rot.Weighted>
3.8814

> <Gold.Chemscore.Internal.Correction.Weighted>
   9.000000E+99

> <Gold.Protein.RotatedTorsions>
[ 6907 6896 6895 6894 ] final  -39.99 input  -60.11 | X-H torsion
[ 7974 7965 7964 7962 ] final  -31.41 input  175.53 | X-H torsion
[ 8008 7997 7996 7995 ] final -169.22 input   59.86 | X-H torsion
[ 10167 10162 10161 10158 ] final  152.54 input  -65.29 | X-H torsion
[ 10718 10713 10712 10709 ] final  -58.27 input   66.30 | X-H torsion
[ 10763 10752 10751 10750 ] final  -26.60 input  -60.55 | X-H torsion
[ 11005 11000 10999 10996 ] final  105.48 input  -57.11 | X-H torsion

> <Gold.Protein.ActiveResidues>
 VAL166  LYS551  ARG553  GLY616  TRP617  ASP618  TYR619  PRO620  LYS621  CYS622 
 ASP623  PHE694  ASN695  SER759  ASP760  ASP761  ALA762  ILE779  LEU786  VAL792 
 PHE793  MET794  SER795  GLU796  ALA797  LYS798  CYS799  TRP800  GLU811  SER814 

> <Gold.Protein.RotatedAtoms>
  150.9838  134.9188  159.7859 H   0  0  0  0  0  0  0  0  0  0  0  0  # atno 6907 bound_to 6896
  152.5230  134.3374  159.9215 H   0  0  0  0  0  0  0  0  0  0  0  0  # atno 6908 bound_to 6896
  151.3381  133.3932  159.2703 H   0  0  0  0  0  0  0  0  0  0  0  0  # atno 6909 bound_to 6896
  146.1069  140.5664  142.8795 H   0  0  0  0  0  0  0  0  0  0  0  0  # atno 7974 bound_to 7965
  155.9020  140.1042  157.1343 H   0  0  0  0  0  0  0  0  0  0  0  0  # atno 8008 bound_to 7997
  154.4027  140.1291  156.4512 H   0  0  0  0  0  0  0  0  0  0  0  0  # atno 8009 bound_to 7997
  155.7412  140.3467  155.5107 H   0  0  0  0  0  0  0  0  0  0  0  0  # atno 8010 bound_to 7997
  139.4832  144.5349  151.7662 H   0  0  0  0  0  0  0  0  0  0  0  0  # atno 10167 bound_to 10162
  156.1148  130.4171  150.0554 H   0  0  0  0  0  0  0  0  0  0  0  0  # atno 10718 bound_to 10713
  153.7186  135.6946  153.5018 H   0  0  0  0  0  0  0  0  0  0  0  0  # atno 10763 bound_to 10752
  153.2220  135.4366  155.0499 H   0  0  0  0  0  0  0  0  0  0  0  0  # atno 10764 bound_to 10752
  154.8292  135.3463  154.6720 H   0  0  0  0  0  0  0  0  0  0  0  0  # atno 10765 bound_to 10752
  139.8802  134.9337  156.5520 H   0  0  0  0  0  0  0  0  0  0  0  0  # atno 11005 bound_to 11000
  144.7479  140.5114  143.6823 LP  0  0  0  0  0  0  0  0  0  0  0  0  # atno 17320 bound_to 7965
  145.5742  139.1485  143.3271 LP  0  0  0  0  0  0  0  0  0  0  0  0  # atno 17321 bound_to 7965
  140.4880  144.1352  150.5945 LP  0  0  0  0  0  0  0  0  0  0  0  0  # atno 17342 bound_to 10162
  140.4203  143.2615  151.9724 LP  0  0  0  0  0  0  0  0  0  0  0  0  # atno 17343 bound_to 10162
  156.8508  130.9458  151.3625 LP  0  0  0  0  0  0  0  0  0  0  0  0  # atno 17370 bound_to 10713
  157.6331  130.8745  149.9309 LP  0  0  0  0  0  0  0  0  0  0  0  0  # atno 17371 bound_to 10713
  140.8233  133.8336  155.8916 LP  0  0  0  0  0  0  0  0  0  0  0  0  # atno 17394 bound_to 11000
  140.9398  134.1916  157.4806 LP  0  0  0  0  0  0  0  0  0  0  0  0  # atno 17395 bound_to 11000

$$$$
