AV-unprocessed.smi:1880|AV-procd|sdf|7635|dock4
  -GOLD-   22720 9363D 1   1.00000     0.00000
 Structure written by MMmdl.
 36 38  0  0  0  0  0  0  0  0  1 V2000
  149.5132  140.9507  157.7599 O   0  0  0  0  0  0  0  0  0  0  0  0
  149.8180  141.9844  156.8441 C   0  0  2  0  0  0  0  0  0  0  0  0
  149.7224  141.4134  155.4211 C   0  0  0  0  0  0  0  0  0  0  0  0
  148.3911  140.9829  155.1940 O   0  0  0  0  0  0  0  0  0  0  0  0
  147.7454  141.7090  154.1630 C   0  0  0  0  0  0  0  0  0  0  0  0
  147.1188  140.6982  153.2648 C   0  0  0  0  0  0  0  0  0  0  0  0
  146.5128  140.7740  152.0412 C   0  0  0  0  0  0  0  0  0  0  0  0
  146.1261  139.4477  151.7029 C   0  0  0  0  0  0  0  0  0  0  0  0
  146.5239  138.6618  152.7468 C   0  0  0  0  0  0  0  0  0  0  0  0
  147.1309  139.4093  153.7084 O   0  0  0  0  0  0  0  0  0  0  0  0
  151.2241  142.5323  157.1558 C   0  0  0  0  0  0  0  0  0  0  0  0
  151.2697  143.2497  158.4178 N   0  0  0  0  0  0  0  0  0  0  0  0
  150.6164  144.3867  158.7245 C   0  0  0  0  0  0  0  0  0  0  0  0
  150.7913  144.8796  159.9472 N   0  0  0  0  0  0  0  0  0  0  0  0
  151.6587  143.9534  160.5002 C   0  0  0  0  0  0  0  0  0  0  0  0
  152.2359  143.8937  161.7886 C   0  0  0  0  0  0  0  0  0  0  0  0
  153.1041  142.8374  162.1347 C   0  0  0  0  0  0  0  0  0  0  0  0
  153.6476  142.7948  163.3743 F   0  0  0  0  0  0  0  0  0  0  0  0
  153.4084  141.8266  161.1988 C   0  0  0  0  0  0  0  0  0  0  0  0
  154.2426  140.8160  161.5397 F   0  0  0  0  0  0  0  0  0  0  0  0
  152.8452  141.8650  159.9087 C   0  0  0  0  0  0  0  0  0  0  0  0
  151.9794  142.9208  159.5679 C   0  0  0  0  0  0  0  0  0  0  0  0
  148.8158  141.2490  158.3243 H   0  0  0  0  0  0  0  0  0  0  0  0
  149.0905  142.7888  156.9629 H   0  0  0  0  0  0  0  0  0  0  0  0
  149.9584  142.1920  154.6937 H   0  0  0  0  0  0  0  0  0  0  0  0
  150.4374  140.6022  155.2714 H   0  0  0  0  0  0  0  0  0  0  0  0
  146.9861  142.3757  154.5745 H   0  0  0  0  0  0  0  0  0  0  0  0
  148.4650  142.3145  153.6099 H   0  0  0  0  0  0  0  0  0  0  0  0
  146.3693  141.6731  151.4604 H   0  0  0  0  0  0  0  0  0  0  0  0
  145.6219  139.1115  150.8090 H   0  0  0  0  0  0  0  0  0  0  0  0
  146.4586  137.6044  152.9576 H   0  0  0  0  0  0  0  0  0  0  0  0
  151.9554  141.7236  157.1839 H   0  0  0  0  0  0  0  0  0  0  0  0
  151.5452  143.2142  156.3674 H   0  0  0  0  0  0  0  0  0  0  0  0
  149.9731  144.8789  158.0096 H   0  0  0  0  0  0  0  0  0  0  0  0
  152.0097  144.6613  162.5136 H   0  0  0  0  0  0  0  0  0  0  0  0
  153.0726  141.0904  159.1915 H   0  0  0  0  0  0  0  0  0  0  0  0
  1  2  1  0  0  0  0
  1 23  1  0  0  0  0
  2  3  1  0  0  0  0
  2 11  1  0  0  0  0
  2 24  1  0  0  0  0
  3  4  1  0  0  0  0
  3 25  1  0  0  0  0
  3 26  1  0  0  0  0
  4  5  1  0  0  0  0
  5  6  1  0  0  0  0
  5 27  1  0  0  0  0
  5 28  1  0  0  0  0
  6 10  1  0  0  0  0
  6  7  2  0  0  0  0
  7  8  1  0  0  0  0
  7 29  1  0  0  0  0
  8  9  2  0  0  0  0
  8 30  1  0  0  0  0
  9 10  1  0  0  0  0
  9 31  1  0  0  0  0
 11 12  1  0  0  0  0
 11 32  1  0  0  0  0
 11 33  1  0  0  0  0
 12 22  1  0  0  0  0
 12 13  1  0  0  0  0
 13 14  2  0  0  0  0
 13 34  1  0  0  0  0
 14 15  1  0  0  0  0
 15 22  2  0  0  0  0
 15 16  1  0  0  0  0
 16 17  2  0  0  0  0
 16 35  1  0  0  0  0
 17 18  1  0  0  0  0
 17 19  1  0  0  0  0
 19 20  1  0  0  0  0
 19 21  2  0  0  0  0
 21 22  1  0  0  0  0
 21 36  1  0  0  0  0
M  END
> <s_m_source_file>
AV-unprocessed.smi

> <i_m_source_file_index>
1880

> <i_lp_mmshare_version>
43012

> <i_f3d_flags>
0

> <s_epik_input>
W2NIXTFjKEYpYyhGKVtjSF1jKGMxMiluKFtjSF1uMilbQ0gyXVtDQEhdKFtPSF0pW0NIMl1PW0NIMl1jM1tjSF1bY0hdW2NIXW8z

> <s_epik_cmdline>
J2VwaWtfcHl0aG9uJywgJy1waCcsICc3LjAnLCAnLXRuJywgJzgnLCAnLW1hJywgJzIwMCcsICctbWV0YWxfYmluZGluZycsICctaW1hZScsICc8aW5maWxlLm1hZT4nLCAnLW9tYWUnLCAnPG91dGZpbGUubWFlPic=

> <r_epik_Ionization_Penalty>
0.0152348

> <r_epik_Ionization_Penalty_Charging>
0

> <r_epik_Ionization_Penalty_Neutral>
0.0152348

> <r_epik_State_Penalty>
0.0119607

> <r_epik_Charging_Adjusted_Penalty>
0.0119607

> <i_epik_Tot_Q>
0

> <i_epik_Tot_abs_Q>
0

> <r_epik_Metal_State_Penalty>
1.20821e-05

> <b_epik_Metal_Only>
0

> <s_lp_Force_Field>
OPLS_2005

> <r_lp_Energy>
7.92035

> <b_lp_Chiralities_Consistent>
1

> <s_lp_Variant>
AV-unprocessed.smi:1880-1

> <Gold.Version>
5.8.1

> <Gold.Id.Protein>
6NUR|6NUR_protein|mol2

> <Gold.PLP.Fitness>
53.0852

> <Gold.PLP.PLP>
-49.5403

> <Gold.PLP.part.hbond>
0.0000

> <Gold.PLP.part.metal>
0.0000

> <Gold.PLP.part.buried>
1.3168

> <Gold.PLP.part.nonpolar>
-51.8285

> <Gold.PLP.part.repulsive>
0.4302

> <Gold.PLP.ligand.clash>
0.0000

> <Gold.PLP.ligand.torsion>
0.8496

> <Gold.PLP.Chemscore.Hbond>
0.0000

> <Gold.PLP.Chemscore.CHOScore>
1.6990

> <Gold.PLP.Chemscore.Metal>
0.0000

> <Gold.Chemscore.Hbonds>
donor molecule, donor type, donor heavy atom, donor atom, acceptor molecule, acceptor atom, score
      L1  C    13    34       P1  8028  0.39
      L1  C    13    34       P1  8029  0.67

> <Gold.PLP.Chemscore.Internal.Correction>
0.1470

> <Gold.Rescore>
     Score         DG    S(hbond)    S(metal)    S(lipo)     H(rot)  DE(clash)    DE(int)     intcor
     11.50     -13.45       0.00        0.00     130.56       2.85       1.03       0.92       ----

> <Gold.Chemscore.Fitness>
11.5024

> <Gold.Chemscore.DG>
-13.4548

> <Gold.Chemscore.ZeroCoef>
-5.4800

> <Gold.Chemscore.Hbond>
0.0000

> <Gold.Chemscore.Metal>
0.0000

> <Gold.Chemscore.Lipo>
130.5582

> <Gold.Chemscore.Internal_Hbond>
0.0000

> <Gold.Chemscore.DEClash>
1.0334

> <Gold.Chemscore.DEInternal>
0.9190

> <Gold.Chemscore.Rot>
2.8518

> <Gold.Chemscore.Internal.Correction>
   9.000000E+99

> <Gold.Chemscore.Hbond.Weighted>
-0.0000

> <Gold.Chemscore.Metal.Weighted>
-0.0000

> <Gold.Chemscore.Lipo.Weighted>
-15.2753

> <Gold.Chemscore.Internal_Hbond.Weighted>
0.0000

> <Gold.Chemscore.DEClash.Weighted>
1.0334

> <Gold.Chemscore.DEInternal.Weighted>
0.9190

> <Gold.Chemscore.Rot.Weighted>
7.3005

> <Gold.Chemscore.Internal.Correction.Weighted>
   9.000000E+99

> <Gold.Protein.RotatedTorsions>
[ 6907 6896 6895 6894 ] final  -80.58 input  -60.11 | X-H torsion
[ 7974 7965 7964 7962 ] final -136.89 input  175.53 | X-H torsion
[ 8008 7997 7996 7995 ] final   42.80 input   59.86 | X-H torsion
[ 10167 10162 10161 10158 ] final   72.68 input  -65.29 | X-H torsion
[ 10718 10713 10712 10709 ] final   93.47 input   66.30 | X-H torsion
[ 10763 10752 10751 10750 ] final  -15.52 input  -60.55 | X-H torsion
[ 11005 11000 10999 10996 ] final  -41.66 input  -57.11 | X-H torsion

> <Gold.Protein.ActiveResidues>
 VAL166  LYS551  ARG553  GLY616  TRP617  ASP618  TYR619  PRO620  LYS621  CYS622 
 ASP623  PHE694  ASN695  SER759  ASP760  ASP761  ALA762  ILE779  LEU786  VAL792 
 PHE793  MET794  SER795  GLU796  ALA797  LYS798  CYS799  TRP800  GLU811  SER814 

> <Gold.Protein.RotatedAtoms>
  150.6927  134.3948  159.5092 H   0  0  0  0  0  0  0  0  0  0  0  0  # atno 6907 bound_to 6896
  152.1731  134.8815  160.0542 H   0  0  0  0  0  0  0  0  0  0  0  0  # atno 6908 bound_to 6896
  151.9834  133.3730  159.4153 H   0  0  0  0  0  0  0  0  0  0  0  0  # atno 6909 bound_to 6896
  144.8888  140.6612  143.5159 H   0  0  0  0  0  0  0  0  0  0  0  0  # atno 7974 bound_to 7965
  155.2921  140.3379  155.4252 H   0  0  0  0  0  0  0  0  0  0  0  0  # atno 8008 bound_to 7997
  156.2041  140.1744  156.7877 H   0  0  0  0  0  0  0  0  0  0  0  0  # atno 8009 bound_to 7997
  154.5597  140.0689  156.8784 H   0  0  0  0  0  0  0  0  0  0  0  0  # atno 8010 bound_to 7997
  140.0327  144.5453  150.7494 H   0  0  0  0  0  0  0  0  0  0  0  0  # atno 10167 bound_to 10162
  157.6954  131.0479  150.4038 H   0  0  0  0  0  0  0  0  0  0  0  0  # atno 10718 bound_to 10713
  153.5446  135.7012  153.5620 H   0  0  0  0  0  0  0  0  0  0  0  0  # atno 10763 bound_to 10752
  153.3571  135.3980  155.1690 H   0  0  0  0  0  0  0  0  0  0  0  0  # atno 10764 bound_to 10752
  154.8669  135.3779  154.4953 H   0  0  0  0  0  0  0  0  0  0  0  0  # atno 10765 bound_to 10752
  141.0261  133.6840  156.2488 H   0  0  0  0  0  0  0  0  0  0  0  0  # atno 11005 bound_to 11000
  145.3821  139.1635  143.4275 LP  0  0  0  0  0  0  0  0  0  0  0  0  # atno 17320 bound_to 7965
  146.3041  140.3902  142.8693 LP  0  0  0  0  0  0  0  0  0  0  0  0  # atno 17321 bound_to 7965
  140.7295  143.2673  151.4003 LP  0  0  0  0  0  0  0  0  0  0  0  0  # atno 17342 bound_to 10162
  139.6065  144.1186  152.2255 LP  0  0  0  0  0  0  0  0  0  0  0  0  # atno 17343 bound_to 10162
  156.4429  130.3995  149.6685 LP  0  0  0  0  0  0  0  0  0  0  0  0  # atno 17370 bound_to 10713
  156.3863  130.7604  151.2601 LP  0  0  0  0  0  0  0  0  0  0  0  0  # atno 17371 bound_to 10713
  140.6488  134.5089  157.5576 LP  0  0  0  0  0  0  0  0  0  0  0  0  # atno 17394 bound_to 11000
  139.9177  134.8212  156.1312 LP  0  0  0  0  0  0  0  0  0  0  0  0  # atno 17395 bound_to 11000

$$$$
