AV-unprocessed.smi:3189|AV-procd|sdf|12191|dock1
  -GOLD-   2272018 33D 1   1.00000     0.00000
 Structure written by MMmdl.
 31 32  0  0  0  0  0  0  0  0  2 V2000
  146.9554  139.5170  152.6470 C   0  0  0  0  0  0  0  0  0  0  0  0
  148.2030  139.6848  153.4929 C   0  0  0  0  0  0  0  0  0  0  0  0
  149.1035  138.6773  153.4909 N   0  3  0  0  0  0  0  0  0  0  0  0
  150.2519  138.7159  154.1982 C   0  0  0  0  0  0  0  0  0  0  0  0
  150.5524  139.8416  154.9894 C   0  0  0  0  0  0  0  0  0  0  0  0
  149.6341  140.9205  155.0421 C   0  0  0  0  0  0  0  0  0  0  0  0
  149.8634  142.1005  155.8019 N   0  0  0  0  0  0  0  0  0  0  0  0
  150.7001  142.2883  156.8413 C   0  0  0  0  0  0  0  0  0  0  0  0
  151.4344  141.4222  157.3121 O   0  0  0  0  0  0  0  0  0  0  0  0
  150.6280  143.5143  157.3885 N   0  0  0  0  0  0  0  0  0  0  0  0
  151.3815  144.0185  158.4963 C   0  0  2  0  0  0  0  0  0  0  0  0
  152.7112  144.6630  158.1740 C   0  0  0  0  0  0  0  0  0  0  0  0
  152.6759  143.3250  158.8653 C   0  0  1  0  0  0  0  0  0  0  0  0
  153.1041  143.2060  160.3118 C   0  0  0  0  0  0  0  0  0  0  0  0
  148.4492  140.8420  154.2688 C   0  0  0  0  0  0  0  0  0  0  0  0
  147.3063  142.1437  154.2762 Cl  0  0  0  0  0  0  0  0  0  0  0  0
  146.0650  139.5473  153.2756 H   0  0  0  0  0  0  0  0  0  0  0  0
  146.9606  138.5660  152.1129 H   0  0  0  0  0  0  0  0  0  0  0  0
  146.8852  140.3175  151.9097 H   0  0  0  0  0  0  0  0  0  0  0  0
  150.8952  137.8529  154.1062 H   0  0  0  0  0  0  0  0  0  0  0  0
  151.4860  139.8605  155.5309 H   0  0  0  0  0  0  0  0  0  0  0  0
  149.2520  142.8757  155.5888 H   0  0  0  0  0  0  0  0  0  0  0  0
  149.9083  144.1269  157.0319 H   0  0  0  0  0  0  0  0  0  0  0  0
  150.8266  144.4978  159.3018 H   0  0  0  0  0  0  0  0  0  0  0  0
  153.0335  144.6791  157.1343 H   0  0  0  0  0  0  0  0  0  0  0  0
  153.0021  145.5312  158.7624 H   0  0  0  0  0  0  0  0  0  0  0  0
  152.9517  142.4652  158.2571 H   0  0  0  0  0  0  0  0  0  0  0  0
  152.8209  144.0960  160.8749 H   0  0  0  0  0  0  0  0  0  0  0  0
  154.1856  143.0844  160.3735 H   0  0  0  0  0  0  0  0  0  0  0  0
  152.6293  142.3393  160.7716 H   0  0  0  0  0  0  0  0  0  0  0  0
  148.9085  137.8512  152.9246 H   0  0  0  0  0  0  0  0  0  0  0  0
  1  2  1  0  0  0  0
  1 17  1  0  0  0  0
  1 18  1  0  0  0  0
  1 19  1  0  0  0  0
  2 15  1  0  0  0  0
  2  3  2  0  0  0  0
  3  4  1  0  0  0  0
  3 31  1  0  0  0  0
  4  5  2  0  0  0  0
  4 20  1  0  0  0  0
  5  6  1  0  0  0  0
  5 21  1  0  0  0  0
  6  7  1  0  0  0  0
  6 15  2  0  0  0  0
  7  8  1  0  0  0  0
  7 22  1  0  0  0  0
  8  9  2  0  0  0  0
  8 10  1  0  0  0  0
 10 11  1  0  0  0  0
 10 23  1  0  0  0  0
 11 13  1  0  0  0  0
 11 12  1  0  0  0  0
 11 24  1  0  0  0  0
 12 13  1  0  0  0  0
 12 25  1  0  0  0  0
 12 26  1  0  0  0  0
 13 14  1  0  0  0  0
 13 27  1  0  0  0  0
 14 28  1  0  0  0  0
 14 29  1  0  0  0  0
 14 30  1  0  0  0  0
 15 16  1  0  0  0  0
M  CHG  1   3   1
M  END
> <s_m_source_file>
AV-unprocessed.smi

> <i_m_source_file_index>
3189

> <i_lp_mmshare_version>
43012

> <i_f3d_flags>
0

> <s_epik_input>
W0NIM11jMW5bY0hdW2NIXWMoYzFDbClbTkhdQyg9TylbTkhdW0NAQEhdMltDSDJdW0NASF0yW0NIM10=

> <s_epik_cmdline>
J2VwaWtfcHl0aG9uJywgJy1waCcsICc3LjAnLCAnLXRuJywgJzgnLCAnLW1hJywgJzIwMCcsICctbWV0YWxfYmluZGluZycsICctaW1hZScsICc8aW5maWxlLm1hZT4nLCAnLW9tYWUnLCAnPG91dGZpbGUubWFlPic=

> <r_epik_Ionization_Penalty>
2.42914

> <r_epik_Ionization_Penalty_Charging>
2.42912

> <r_epik_Ionization_Penalty_Neutral>
2.15137e-05

> <r_epik_State_Penalty>
2.58904

> <r_epik_Charging_Adjusted_Penalty>
5.01816

> <i_epik_Tot_Q>
1

> <i_epik_Tot_abs_Q>
1

> <r_epik_Metal_State_Penalty>
2.59882

> <b_epik_Metal_Only>
0

> <s_lp_Force_Field>
OPLS_2005

> <r_lp_Energy>
37.5636

> <b_lp_Chiralities_Consistent>
1

> <s_lp_Variant>
AV-unprocessed.smi:3189-5

> <Gold.Version>
5.8.1

> <Gold.Id.Protein>
6NUR|6NUR_protein|mol2

> <Gold.PLP.Fitness>
52.1624

> <Gold.PLP.PLP>
-40.9495

> <Gold.PLP.part.hbond>
-4.0000

> <Gold.PLP.part.metal>
0.0000

> <Gold.PLP.part.buried>
0.1089

> <Gold.PLP.part.nonpolar>
-37.4899

> <Gold.PLP.part.repulsive>
0.2343

> <Gold.PLP.ligand.clash>
0.0000

> <Gold.PLP.ligand.torsion>
0.4113

> <Gold.PLP.Chemscore.Hbond>
4.0000

> <Gold.PLP.Chemscore.CHOScore>
0.0000

> <Gold.PLP.Chemscore.Metal>
0.0000

> <Gold.Chemscore.Hbonds>
donor molecule, donor type, donor heavy atom, donor atom, acceptor molecule, acceptor atom, score
      L1  H     3    31       P1  7948  2.00
      L1  H     7    22       P1  8028  1.00
      L1  H    10    23       P1  8028  1.00

> <Gold.PLP.Chemscore.Internal.Correction>
0.0355

> <Gold.Rescore>
     Score         DG    S(hbond)    S(metal)    S(lipo)     H(rot)  DE(clash)    DE(int)     intcor
     20.95     -24.20       2.84        0.00     100.91       1.00       0.20       3.05       ----

> <Gold.Chemscore.Fitness>
20.9519

> <Gold.Chemscore.DG>
-24.2038

> <Gold.Chemscore.ZeroCoef>
-5.4800

> <Gold.Chemscore.Hbond>
2.8375

> <Gold.Chemscore.Metal>
0.0000

> <Gold.Chemscore.Lipo>
100.9113

> <Gold.Chemscore.Internal_Hbond>
0.0000

> <Gold.Chemscore.DEClash>
0.2042

> <Gold.Chemscore.DEInternal>
3.0477

> <Gold.Chemscore.Rot>
1.0000

> <Gold.Chemscore.Internal.Correction>
   9.000000E+99

> <Gold.Chemscore.Hbonds>
donor molecule, donor type, donor heavy atom, donor atom, acceptor molecule, acceptor atom, score
      L1  H     3    31       P1  7948  1.00
      L1  H     7    22       P1  8028  0.94
      L1  H    10    23       P1  8028  0.79

> <Gold.Chemscore.Hbond.Weighted>
-9.4772

> <Gold.Chemscore.Metal.Weighted>
-0.0000

> <Gold.Chemscore.Lipo.Weighted>
-11.8066

> <Gold.Chemscore.Internal_Hbond.Weighted>
0.0000

> <Gold.Chemscore.DEClash.Weighted>
0.2042

> <Gold.Chemscore.DEInternal.Weighted>
3.0477

> <Gold.Chemscore.Rot.Weighted>
2.5600

> <Gold.Chemscore.Internal.Correction.Weighted>
   9.000000E+99

> <Gold.Protein.RotatedTorsions>
[ 6907 6896 6895 6894 ] final  168.84 input  -60.11 | X-H torsion
[ 7974 7965 7964 7962 ] final -179.20 input  175.53 | X-H torsion
[ 8008 7997 7996 7995 ] final  -73.03 input   59.86 | X-H torsion
[ 10167 10162 10161 10158 ] final   20.33 input  -65.29 | X-H torsion
[ 10718 10713 10712 10709 ] final  -99.84 input   66.30 | X-H torsion
[ 10763 10752 10751 10750 ] final  -12.24 input  -60.55 | X-H torsion
[ 11005 11000 10999 10996 ] final  128.80 input  -57.11 | X-H torsion

> <Gold.Protein.ActiveResidues>
 VAL166  LYS551  ARG553  GLY616  TRP617  ASP618  TYR619  PRO620  LYS621  CYS622 
 ASP623  PHE694  ASN695  SER759  ASP760  ASP761  ALA762  ILE779  LEU786  VAL792 
 PHE793  MET794  SER795  GLU796  ALA797  LYS798  CYS799  TRP800  GLU811  SER814 

> <Gold.Protein.RotatedAtoms>
  151.8412  133.3424  159.3643 H   0  0  0  0  0  0  0  0  0  0  0  0  # atno 6907 bound_to 6896
  150.7234  134.5389  159.5746 H   0  0  0  0  0  0  0  0  0  0  0  0  # atno 6908 bound_to 6896
  152.2863  134.7773  160.0438 H   0  0  0  0  0  0  0  0  0  0  0  0  # atno 6909 bound_to 6896
  144.7135  140.0753  143.6428 H   0  0  0  0  0  0  0  0  0  0  0  0  # atno 7974 bound_to 7965
  154.5214  140.0786  156.8179 H   0  0  0  0  0  0  0  0  0  0  0  0  # atno 8008 bound_to 7997
  155.3567  140.3415  155.4222 H   0  0  0  0  0  0  0  0  0  0  0  0  # atno 8009 bound_to 7997
  156.1685  140.1612  156.8476 H   0  0  0  0  0  0  0  0  0  0  0  0  # atno 8010 bound_to 7997
  140.5511  143.9507  150.6579 H   0  0  0  0  0  0  0  0  0  0  0  0  # atno 10167 bound_to 10162
  156.0145  130.5300  150.6729 H   0  0  0  0  0  0  0  0  0  0  0  0  # atno 10718 bound_to 10713
  153.4956  135.7017  153.5860 H   0  0  0  0  0  0  0  0  0  0  0  0  # atno 10763 bound_to 10752
  153.4014  135.3871  155.1990 H   0  0  0  0  0  0  0  0  0  0  0  0  # atno 10764 bound_to 10752
  154.8714  135.3882  154.4421 H   0  0  0  0  0  0  0  0  0  0  0  0  # atno 10765 bound_to 10752
  139.9580  134.9608  156.9055 H   0  0  0  0  0  0  0  0  0  0  0  0  # atno 11005 bound_to 11000
  145.9748  139.2897  143.1077 LP  0  0  0  0  0  0  0  0  0  0  0  0  # atno 17320 bound_to 7965
  145.9076  140.9201  143.0471 LP  0  0  0  0  0  0  0  0  0  0  0  0  # atno 17321 bound_to 7965
  140.2933  143.3309  152.1042 LP  0  0  0  0  0  0  0  0  0  0  0  0  # atno 17342 bound_to 10162
  139.5028  144.6742  151.6169 LP  0  0  0  0  0  0  0  0  0  0  0  0  # atno 17343 bound_to 10162
  157.4448  131.0865  151.0907 LP  0  0  0  0  0  0  0  0  0  0  0  0  # atno 17370 bound_to 10713
  157.1440  130.6155  149.5563 LP  0  0  0  0  0  0  0  0  0  0  0  0  # atno 17371 bound_to 10713
  140.5564  134.0577  155.7385 LP  0  0  0  0  0  0  0  0  0  0  0  0  # atno 17394 bound_to 11000
  141.1254  133.9391  157.2645 LP  0  0  0  0  0  0  0  0  0  0  0  0  # atno 17395 bound_to 11000

$$$$
