AV-unprocessed.smi:3014|AV-procd|sdf|11468|dock7
  -GOLD-   2272016403D 1   1.00000     0.00000
 Structure written by MMmdl.
 45 46  0  0  0  0  0  0  0  0  1 V2000
  146.8206  138.8002  152.2918 C   0  0  0  0  0  0  0  0  0  0  0  0
  147.4035  139.5086  153.5230 C   0  0  2  0  0  0  0  0  0  0  0  0
  146.9449  140.9780  153.5963 C   0  0  0  0  0  0  0  0  0  0  0  0
  147.5347  141.6924  154.8227 C   0  0  0  0  0  0  0  0  0  0  0  0
  149.0676  141.5957  154.8360 C   0  0  0  0  0  0  0  0  0  0  0  0
  149.5328  140.1311  154.7843 C   0  0  2  0  0  0  0  0  0  0  0  0
  150.9577  140.1390  154.7251 O   0  0  0  0  0  0  0  0  0  0  0  0
  151.6331  139.2338  155.5953 C   0  0  0  0  0  0  0  0  0  0  0  0
  152.0444  139.9290  156.8980 C   0  0  0  0  0  0  0  0  0  0  0  0
  152.8456  139.3781  157.6533 O   0  0  0  0  0  0  0  0  0  0  0  0
  151.4820  141.1314  157.1204 N   0  0  0  0  0  0  0  0  0  0  0  0
  151.6809  142.0005  158.2249 C   0  0  0  0  0  0  0  0  0  0  0  0
  151.1900  143.3147  158.0705 C   0  0  0  0  0  0  0  0  0  0  0  0
  151.3721  144.1985  159.1515 C   0  0  0  0  0  0  0  0  0  0  0  0
  151.9880  143.8137  160.2879 N   0  0  0  0  0  0  0  0  0  0  0  0
  152.4257  142.5503  160.3526 C   0  0  0  0  0  0  0  0  0  0  0  0
  153.0650  142.1467  161.5282 N   0  0  0  0  0  0  0  0  0  0  0  0
  153.9658  140.9972  161.5403 C   0  0  0  0  0  0  0  0  0  0  0  0
  152.8508  142.8545  162.7871 C   0  0  0  0  0  0  0  0  0  0  0  0
  152.2977  141.6413  159.3773 N   0  0  0  0  0  0  0  0  0  0  0  0
  148.9425  139.4201  153.5489 C   0  0  0  0  0  0  0  0  0  0  0  0
  147.1566  139.2708  151.3671 H   0  0  0  0  0  0  0  0  0  0  0  0
  145.7308  138.8283  152.3023 H   0  0  0  0  0  0  0  0  0  0  0  0
  147.1225  137.7530  152.2610 H   0  0  0  0  0  0  0  0  0  0  0  0
  147.0242  138.9942  154.4075 H   0  0  0  0  0  0  0  0  0  0  0  0
  147.2471  141.5048  152.6901 H   0  0  0  0  0  0  0  0  0  0  0  0
  145.8561  141.0280  153.6334 H   0  0  0  0  0  0  0  0  0  0  0  0
  147.2284  142.7389  154.8269 H   0  0  0  0  0  0  0  0  0  0  0  0
  147.1328  141.2482  155.7341 H   0  0  0  0  0  0  0  0  0  0  0  0
  149.4743  142.1428  153.9845 H   0  0  0  0  0  0  0  0  0  0  0  0
  149.4613  142.0786  155.7310 H   0  0  0  0  0  0  0  0  0  0  0  0
  149.1819  139.6348  155.6903 H   0  0  0  0  0  0  0  0  0  0  0  0
  151.0288  138.3475  155.7915 H   0  0  0  0  0  0  0  0  0  0  0  0
  152.5387  138.8916  155.0943 H   0  0  0  0  0  0  0  0  0  0  0  0
  150.8388  141.4616  156.4160 H   0  0  0  0  0  0  0  0  0  0  0  0
  150.6945  143.6360  157.1659 H   0  0  0  0  0  0  0  0  0  0  0  0
  151.0218  145.2189  159.1036 H   0  0  0  0  0  0  0  0  0  0  0  0
  154.8053  141.1656  160.8648 H   0  0  0  0  0  0  0  0  0  0  0  0
  153.4402  140.0980  161.2173 H   0  0  0  0  0  0  0  0  0  0  0  0
  154.3709  140.8061  162.5339 H   0  0  0  0  0  0  0  0  0  0  0  0
  151.7989  142.8135  163.0711 H   0  0  0  0  0  0  0  0  0  0  0  0
  153.1407  143.9011  162.6897 H   0  0  0  0  0  0  0  0  0  0  0  0
  153.4329  142.4238  163.6019 H   0  0  0  0  0  0  0  0  0  0  0  0
  149.2432  138.3725  153.5371 H   0  0  0  0  0  0  0  0  0  0  0  0
  149.3512  139.8676  152.6417 H   0  0  0  0  0  0  0  0  0  0  0  0
  1  2  1  0  0  0  0
  1 22  1  0  0  0  0
  1 23  1  0  0  0  0
  1 24  1  0  0  0  0
  2 21  1  0  0  0  0
  2  3  1  0  0  0  0
  2 25  1  0  0  0  0
  3  4  1  0  0  0  0
  3 26  1  0  0  0  0
  3 27  1  0  0  0  0
  4  5  1  0  0  0  0
  4 28  1  0  0  0  0
  4 29  1  0  0  0  0
  5  6  1  0  0  0  0
  5 30  1  0  0  0  0
  5 31  1  0  0  0  0
  6  7  1  0  0  0  0
  6 21  1  0  0  0  0
  6 32  1  0  0  0  0
  7  8  1  0  0  0  0
  8  9  1  0  0  0  0
  8 33  1  0  0  0  0
  8 34  1  0  0  0  0
  9 10  2  0  0  0  0
  9 11  1  0  0  0  0
 11 12  1  0  0  0  0
 11 35  1  0  0  0  0
 12 20  1  0  0  0  0
 12 13  2  0  0  0  0
 13 14  1  0  0  0  0
 13 36  1  0  0  0  0
 14 15  2  0  0  0  0
 14 37  1  0  0  0  0
 15 16  1  0  0  0  0
 16 17  1  0  0  0  0
 16 20  2  0  0  0  0
 17 18  1  0  0  0  0
 17 19  1  0  0  0  0
 18 38  1  0  0  0  0
 18 39  1  0  0  0  0
 18 40  1  0  0  0  0
 19 41  1  0  0  0  0
 19 42  1  0  0  0  0
 19 43  1  0  0  0  0
 21 44  1  0  0  0  0
 21 45  1  0  0  0  0
M  END
> <s_m_source_file>
AV-unprocessed.smi

> <i_m_source_file_index>
3014

> <i_lp_mmshare_version>
43012

> <i_f3d_flags>
0

> <s_epik_input>
W0NIM11bQ0BASF0xW0NIMl1bQ0gyXVtDSDJdW0NASF0oW0NIMl0xKU9bQ0gyXUMoPU8pW05IXWMyW2NIXVtjSF1uYyhuMilOKFtDSDNdKVtDSDNd

> <s_epik_cmdline>
J2VwaWtfcHl0aG9uJywgJy1waCcsICc3LjAnLCAnLXRuJywgJzgnLCAnLW1hJywgJzIwMCcsICctbWV0YWxfYmluZGluZycsICctaW1hZScsICc8aW5maWxlLm1hZT4nLCAnLW9tYWUnLCAnPG91dGZpbGUubWFlPic=

> <r_lp_tautomer_probability>
1

> <r_epik_Ionization_Penalty>
0.000308195

> <r_epik_Ionization_Penalty_Charging>
0

> <r_epik_Ionization_Penalty_Neutral>
0.000308195

> <r_epik_State_Penalty>
-0

> <r_epik_Charging_Adjusted_Penalty>
0

> <i_epik_Tot_Q>
0

> <i_epik_Tot_abs_Q>
0

> <r_epik_Metal_State_Penalty>
-0

> <b_epik_Metal_Only>
0

> <s_lp_Force_Field>
OPLS_2005

> <r_lp_Energy>
8.92974

> <b_lp_Chiralities_Consistent>
1

> <s_lp_Variant>
AV-unprocessed.smi:3014-3

> <Gold.Version>
5.8.1

> <Gold.Id.Protein>
6NUR|6NUR_protein|mol2

> <Gold.PLP.Fitness>
51.9540

> <Gold.PLP.PLP>
-48.4964

> <Gold.PLP.part.hbond>
-2.0000

> <Gold.PLP.part.metal>
0.0000

> <Gold.PLP.part.buried>
0.6949

> <Gold.PLP.part.nonpolar>
-45.5605

> <Gold.PLP.part.repulsive>
0.2144

> <Gold.PLP.ligand.clash>
0.0000

> <Gold.PLP.ligand.torsion>
1.2808

> <Gold.PLP.Chemscore.Hbond>
2.0000

> <Gold.PLP.Chemscore.CHOScore>
0.0000

> <Gold.PLP.Chemscore.Metal>
0.0000

> <Gold.Chemscore.Hbonds>
donor molecule, donor type, donor heavy atom, donor atom, acceptor molecule, acceptor atom, score
      P1  H  7989  7998       L1     7  1.00
      P1  H  7997  8009       L1    10  1.00

> <Gold.PLP.Chemscore.Internal.Correction>
0.0193

> <Gold.Rescore>
     Score         DG    S(hbond)    S(metal)    S(lipo)     H(rot)  DE(clash)    DE(int)     intcor
     15.80     -19.80       1.81        0.00     102.01       1.43       1.39       2.62       ----

> <Gold.Chemscore.Fitness>
15.8014

> <Gold.Chemscore.DG>
-19.8040

> <Gold.Chemscore.ZeroCoef>
-5.4800

> <Gold.Chemscore.Hbond>
1.8120

> <Gold.Chemscore.Metal>
0.0000

> <Gold.Chemscore.Lipo>
102.0106

> <Gold.Chemscore.Internal_Hbond>
0.0000

> <Gold.Chemscore.DEClash>
1.3860

> <Gold.Chemscore.DEInternal>
2.6165

> <Gold.Chemscore.Rot>
1.4310

> <Gold.Chemscore.Internal.Correction>
   9.000000E+99

> <Gold.Chemscore.Hbonds>
donor molecule, donor type, donor heavy atom, donor atom, acceptor molecule, acceptor atom, score
      P1  H  7989  7998       L1     7  0.93
      P1  H  7997  8009       L1    10  0.39

> <Gold.Chemscore.Hbond.Weighted>
-6.0520

> <Gold.Chemscore.Metal.Weighted>
-0.0000

> <Gold.Chemscore.Lipo.Weighted>
-11.9352

> <Gold.Chemscore.Internal_Hbond.Weighted>
0.0000

> <Gold.Chemscore.DEClash.Weighted>
1.3860

> <Gold.Chemscore.DEInternal.Weighted>
2.6165

> <Gold.Chemscore.Rot.Weighted>
3.6632

> <Gold.Chemscore.Internal.Correction.Weighted>
   9.000000E+99

> <Gold.Protein.RotatedTorsions>
[ 6907 6896 6895 6894 ] final  -77.16 input  -60.11 | X-H torsion
[ 7974 7965 7964 7962 ] final   33.06 input  175.53 | X-H torsion
[ 8008 7997 7996 7995 ] final  155.42 input   59.86 | X-H torsion
[ 10167 10162 10161 10158 ] final  -12.84 input  -65.29 | X-H torsion
[ 10718 10713 10712 10709 ] final  -16.39 input   66.30 | X-H torsion
[ 10763 10752 10751 10750 ] final  -37.61 input  -60.55 | X-H torsion
[ 11005 11000 10999 10996 ] final -127.05 input  -57.11 | X-H torsion

> <Gold.Protein.ActiveResidues>
 VAL166  LYS551  ARG553  GLY616  TRP617  ASP618  TYR619  PRO620  LYS621  CYS622 
 ASP623  PHE694  ASN695  SER759  ASP760  ASP761  ALA762  ILE779  LEU786  VAL792 
 PHE793  MET794  SER795  GLU796  ALA797  LYS798  CYS799  TRP800  GLU811  SER814 

> <Gold.Protein.RotatedAtoms>
  150.7006  134.4464  159.5315 H   0  0  0  0  0  0  0  0  0  0  0  0  # atno 6907 bound_to 6896
  152.2164  134.8451  160.0500 H   0  0  0  0  0  0  0  0  0  0  0  0  # atno 6908 bound_to 6896
  151.9317  133.3578  159.3970 H   0  0  0  0  0  0  0  0  0  0  0  0  # atno 6909 bound_to 6896
  146.1446  139.6446  142.9140 H   0  0  0  0  0  0  0  0  0  0  0  0  # atno 7974 bound_to 7965
  156.2479  140.1940  156.6798 H   0  0  0  0  0  0  0  0  0  0  0  0  # atno 8008 bound_to 7997
  154.6330  140.0593  156.9781 H   0  0  0  0  0  0  0  0  0  0  0  0  # atno 8009 bound_to 7997
  155.1681  140.3266  155.4401 H   0  0  0  0  0  0  0  0  0  0  0  0  # atno 8010 bound_to 7997
  140.7170  143.5489  150.9323 H   0  0  0  0  0  0  0  0  0  0  0  0  # atno 10167 bound_to 10162
  156.5882  130.4792  149.6291 H   0  0  0  0  0  0  0  0  0  0  0  0  # atno 10718 bound_to 10713
  153.8991  135.6804  153.4756 H   0  0  0  0  0  0  0  0  0  0  0  0  # atno 10763 bound_to 10752
  153.1139  135.4770  154.9080 H   0  0  0  0  0  0  0  0  0  0  0  0  # atno 10764 bound_to 10752
  154.7584  135.3204  154.8379 H   0  0  0  0  0  0  0  0  0  0  0  0  # atno 10765 bound_to 10752
  140.9631  134.0908  157.3947 H   0  0  0  0  0  0  0  0  0  0  0  0  # atno 11005 bound_to 11000
  145.4968  141.0438  143.2563 LP  0  0  0  0  0  0  0  0  0  0  0  0  # atno 17320 bound_to 7965
  144.7831  139.6483  143.7146 LP  0  0  0  0  0  0  0  0  0  0  0  0  # atno 17321 bound_to 7965
  139.9213  143.6602  152.3096 LP  0  0  0  0  0  0  0  0  0  0  0  0  # atno 17342 bound_to 10162
  139.7020  144.7633  151.1257 LP  0  0  0  0  0  0  0  0  0  0  0  0  # atno 17343 bound_to 10162
  156.2572  130.6941  151.1699 LP  0  0  0  0  0  0  0  0  0  0  0  0  # atno 17370 bound_to 10713
  157.7310  131.0612  150.5699 LP  0  0  0  0  0  0  0  0  0  0  0  0  # atno 17371 bound_to 10713
  139.8885  135.0098  156.6624 LP  0  0  0  0  0  0  0  0  0  0  0  0  # atno 17394 bound_to 11000
  140.7438  133.8955  155.8297 LP  0  0  0  0  0  0  0  0  0  0  0  0  # atno 17395 bound_to 11000

$$$$
