AV-unprocessed.smi:3242|AV-procd|sdf|12393|dock4
  -GOLD-   2272018263D 1   1.00000     0.00000
 Structure written by MMmdl.
 40 41  0  0  0  0  0  0  0  0  1 V2000
  146.5445  139.4400  151.9048 C   0  0  0  0  0  0  0  0  0  0  0  0
  147.1618  140.2392  152.9413 N   0  0  0  0  0  0  0  0  0  0  0  0
  148.0955  139.8579  153.8803 C   0  0  0  0  0  0  0  0  0  0  0  0
  148.3866  140.9569  154.6392 C   0  0  0  0  0  0  0  0  0  0  0  0
  149.3567  141.0836  155.7851 C   0  0  0  0  0  0  0  0  0  0  0  0
  148.7315  141.7591  157.0173 C   0  0  0  0  0  0  0  0  0  0  0  0
  149.7371  142.4862  157.7857 N   0  0  0  0  0  0  0  0  0  0  0  0
  150.8937  141.9760  158.2416 C   0  0  0  0  0  0  0  0  0  0  0  0
  151.2009  140.7953  158.0665 O   0  0  0  0  0  0  0  0  0  0  0  0
  151.7180  142.8791  158.8360 N   0  0  0  0  0  0  0  0  0  0  0  0
  151.3134  144.2573  159.1897 C   0  0  0  0  0  0  0  0  0  0  0  0
  151.9422  144.8162  160.4840 C   0  0  0  0  0  0  0  0  0  0  0  0
  151.9249  143.8450  161.6793 C   0  0  0  0  0  0  0  0  0  0  0  0
  153.1400  142.9026  161.7113 C   0  0  0  0  0  0  0  0  0  0  0  0
  153.1833  141.8704  160.5738 C   0  0  0  0  0  0  0  0  0  0  0  0
  153.0984  142.4962  159.1704 C   0  0  0  0  0  0  0  0  0  0  0  0
  147.5605  141.9725  154.0787 C   0  0  0  0  0  0  0  0  0  0  0  0
  146.8311  141.5411  153.0627 N   0  0  0  0  0  0  0  0  0  0  0  0
  146.8927  138.4088  151.9699 H   0  0  0  0  0  0  0  0  0  0  0  0
  146.8059  139.8413  150.9253 H   0  0  0  0  0  0  0  0  0  0  0  0
  145.4603  139.4559  152.0218 H   0  0  0  0  0  0  0  0  0  0  0  0
  148.4788  138.8491  153.9266 H   0  0  0  0  0  0  0  0  0  0  0  0
  149.7287  140.1004  156.0755 H   0  0  0  0  0  0  0  0  0  0  0  0
  150.2372  141.6493  155.4795 H   0  0  0  0  0  0  0  0  0  0  0  0
  147.9451  142.4498  156.7119 H   0  0  0  0  0  0  0  0  0  0  0  0
  148.2582  140.9968  157.6386 H   0  0  0  0  0  0  0  0  0  0  0  0
  149.5623  143.4673  157.9470 H   0  0  0  0  0  0  0  0  0  0  0  0
  151.5414  144.9176  158.3521 H   0  0  0  0  0  0  0  0  0  0  0  0
  150.2342  144.3155  159.3372 H   0  0  0  0  0  0  0  0  0  0  0  0
  152.9608  145.1583  160.2976 H   0  0  0  0  0  0  0  0  0  0  0  0
  151.3894  145.7155  160.7576 H   0  0  0  0  0  0  0  0  0  0  0  0
  151.9388  144.4340  162.5968 H   0  0  0  0  0  0  0  0  0  0  0  0
  150.9932  143.2780  161.7025 H   0  0  0  0  0  0  0  0  0  0  0  0
  154.0553  143.4954  161.6958 H   0  0  0  0  0  0  0  0  0  0  0  0
  153.1494  142.3702  162.6627 H   0  0  0  0  0  0  0  0  0  0  0  0
  154.1179  141.3147  160.6543 H   0  0  0  0  0  0  0  0  0  0  0  0
  152.3889  141.1348  160.7072 H   0  0  0  0  0  0  0  0  0  0  0  0
  153.4775  141.7829  158.4364 H   0  0  0  0  0  0  0  0  0  0  0  0
  153.7697  143.3514  159.0863 H   0  0  0  0  0  0  0  0  0  0  0  0
  147.4751  143.0074  154.3753 H   0  0  0  0  0  0  0  0  0  0  0  0
  1  2  1  0  0  0  0
  1 19  1  0  0  0  0
  1 20  1  0  0  0  0
  1 21  1  0  0  0  0
  2 18  1  0  0  0  0
  2  3  1  0  0  0  0
  3  4  2  0  0  0  0
  3 22  1  0  0  0  0
  4  5  1  0  0  0  0
  4 17  1  0  0  0  0
  5  6  1  0  0  0  0
  5 23  1  0  0  0  0
  5 24  1  0  0  0  0
  6  7  1  0  0  0  0
  6 25  1  0  0  0  0
  6 26  1  0  0  0  0
  7  8  1  0  0  0  0
  7 27  1  0  0  0  0
  8  9  2  0  0  0  0
  8 10  1  0  0  0  0
 10 16  1  0  0  0  0
 10 11  1  0  0  0  0
 11 12  1  0  0  0  0
 11 28  1  0  0  0  0
 11 29  1  0  0  0  0
 12 13  1  0  0  0  0
 12 30  1  0  0  0  0
 12 31  1  0  0  0  0
 13 14  1  0  0  0  0
 13 32  1  0  0  0  0
 13 33  1  0  0  0  0
 14 15  1  0  0  0  0
 14 34  1  0  0  0  0
 14 35  1  0  0  0  0
 15 16  1  0  0  0  0
 15 36  1  0  0  0  0
 15 37  1  0  0  0  0
 16 38  1  0  0  0  0
 16 39  1  0  0  0  0
 17 18  2  0  0  0  0
 17 40  1  0  0  0  0
M  END
> <s_m_source_file>
AV-unprocessed.smi

> <i_m_source_file_index>
3242

> <i_lp_mmshare_version>
43012

> <i_f3d_flags>
0

> <s_epik_input>
W0NIM11uMVtjSF1jKFtjSF1uMSlbQ0gyXVtDSDJdW05IXUMoPU8pTjJbQ0gyXVtDSDJdW0NIMl1bQ0gyXVtDSDJdW0NIMl0y

> <s_epik_cmdline>
J2VwaWtfcHl0aG9uJywgJy1waCcsICc3LjAnLCAnLXRuJywgJzgnLCAnLW1hJywgJzIwMCcsICctbWV0YWxfYmluZGluZycsICctaW1hZScsICc8aW5maWxlLm1hZT4nLCAnLW9tYWUnLCAnPG91dGZpbGUubWFlPic=

> <r_lp_tautomer_probability>
1

> <r_epik_Ionization_Penalty>
0.000572484

> <r_epik_Ionization_Penalty_Charging>
0

> <r_epik_Ionization_Penalty_Neutral>
0.000572484

> <r_epik_State_Penalty>
-0

> <r_epik_Charging_Adjusted_Penalty>
0

> <i_epik_Tot_Q>
0

> <i_epik_Tot_abs_Q>
0

> <r_epik_Metal_State_Penalty>
-0

> <b_epik_Metal_Only>
0

> <s_lp_Force_Field>
OPLS_2005

> <r_lp_Energy>
29.8159

> <b_lp_Chiralities_Consistent>
1

> <s_lp_Variant>
AV-unprocessed.smi:3242-1

> <Gold.Version>
5.8.1

> <Gold.Id.Protein>
6NUR|6NUR_protein|mol2

> <Gold.PLP.Fitness>
41.2868

> <Gold.PLP.PLP>
-39.0855

> <Gold.PLP.part.hbond>
-0.4132

> <Gold.PLP.part.metal>
0.0000

> <Gold.PLP.part.buried>
-0.0723

> <Gold.PLP.part.nonpolar>
-39.2075

> <Gold.PLP.part.repulsive>
0.2812

> <Gold.PLP.ligand.clash>
0.0000

> <Gold.PLP.ligand.torsion>
0.3446

> <Gold.PLP.Chemscore.Hbond>
0.0000

> <Gold.PLP.Chemscore.CHOScore>
0.9476

> <Gold.PLP.Chemscore.Metal>
0.0000

> <Gold.Chemscore.Hbonds>
donor molecule, donor type, donor heavy atom, donor atom, acceptor molecule, acceptor atom, score
      L1  C    17    40       P1  8028  1.00

> <Gold.PLP.Chemscore.Internal.Correction>
0.0477

> <Gold.Rescore>
     Score         DG    S(hbond)    S(metal)    S(lipo)     H(rot)  DE(clash)    DE(int)     intcor
     13.50     -14.77       0.00        0.00     108.78       1.34       0.31       0.96       ----

> <Gold.Chemscore.Fitness>
13.5006

> <Gold.Chemscore.DG>
-14.7728

> <Gold.Chemscore.ZeroCoef>
-5.4800

> <Gold.Chemscore.Hbond>
0.0000

> <Gold.Chemscore.Metal>
0.0000

> <Gold.Chemscore.Lipo>
108.7764

> <Gold.Chemscore.Internal_Hbond>
0.0000

> <Gold.Chemscore.DEClash>
0.3108

> <Gold.Chemscore.DEInternal>
0.9615

> <Gold.Chemscore.Rot>
1.3415

> <Gold.Chemscore.Internal.Correction>
   9.000000E+99

> <Gold.Chemscore.Hbond.Weighted>
-0.0002

> <Gold.Chemscore.Metal.Weighted>
-0.0000

> <Gold.Chemscore.Lipo.Weighted>
-12.7268

> <Gold.Chemscore.Internal_Hbond.Weighted>
0.0000

> <Gold.Chemscore.DEClash.Weighted>
0.3108

> <Gold.Chemscore.DEInternal.Weighted>
0.9615

> <Gold.Chemscore.Rot.Weighted>
3.4342

> <Gold.Chemscore.Internal.Correction.Weighted>
   9.000000E+99

> <Gold.Protein.RotatedTorsions>
[ 6907 6896 6895 6894 ] final -139.51 input  -60.11 | X-H torsion
[ 7974 7965 7964 7962 ] final  -56.77 input  175.53 | X-H torsion
[ 8008 7997 7996 7995 ] final  -22.48 input   59.86 | X-H torsion
[ 10167 10162 10161 10158 ] final  103.92 input  -65.29 | X-H torsion
[ 10718 10713 10712 10709 ] final  -30.73 input   66.30 | X-H torsion
[ 10763 10752 10751 10750 ] final -153.92 input  -60.55 | X-H torsion
[ 11005 11000 10999 10996 ] final -149.25 input  -57.11 | X-H torsion

> <Gold.Protein.ActiveResidues>
 VAL166  LYS551  ARG553  GLY616  TRP617  ASP618  TYR619  PRO620  LYS621  CYS622 
 ASP623  PHE694  ASN695  SER759  ASP760  ASP761  ALA762  ILE779  LEU786  VAL792 
 PHE793  MET794  SER795  GLU796  ALA797  LYS798  CYS799  TRP800  GLU811  SER814 

> <Gold.Protein.RotatedAtoms>
  151.0487  133.5642  159.2644 H   0  0  0  0  0  0  0  0  0  0  0  0  # atno 6907 bound_to 6896
  151.2661  135.0669  159.9126 H   0  0  0  0  0  0  0  0  0  0  0  0  # atno 6908 bound_to 6896
  152.5378  134.0225  159.8042 H   0  0  0  0  0  0  0  0  0  0  0  0  # atno 6909 bound_to 6896
  145.8588  140.8300  142.9947 H   0  0  0  0  0  0  0  0  0  0  0  0  # atno 7974 bound_to 7965
  154.4642  140.2006  156.0164 H   0  0  0  0  0  0  0  0  0  0  0  0  # atno 8008 bound_to 7997
  156.0895  140.3260  155.7769 H   0  0  0  0  0  0  0  0  0  0  0  0  # atno 8009 bound_to 7997
  155.4979  140.0551  157.2934 H   0  0  0  0  0  0  0  0  0  0  0  0  # atno 8010 bound_to 7997
  139.7221  144.7056  151.0855 H   0  0  0  0  0  0  0  0  0  0  0  0  # atno 10167 bound_to 10162
  156.3961  130.4381  149.7358 H   0  0  0  0  0  0  0  0  0  0  0  0  # atno 10718 bound_to 10713
  154.7895  135.3202  154.7810 H   0  0  0  0  0  0  0  0  0  0  0  0  # atno 10763 bound_to 10752
  153.8502  135.6863  153.4797 H   0  0  0  0  0  0  0  0  0  0  0  0  # atno 10764 bound_to 10752
  153.1559  135.4680  154.9644 H   0  0  0  0  0  0  0  0  0  0  0  0  # atno 10765 bound_to 10752
  140.7527  134.3388  157.5122 H   0  0  0  0  0  0  0  0  0  0  0  0  # atno 11005 bound_to 11000
  144.6727  140.1065  143.7458 LP  0  0  0  0  0  0  0  0  0  0  0  0  # atno 17320 bound_to 7965
  145.9272  139.2583  143.1346 LP  0  0  0  0  0  0  0  0  0  0  0  0  # atno 17321 bound_to 7965
  140.7756  143.5152  150.9603 LP  0  0  0  0  0  0  0  0  0  0  0  0  # atno 17342 bound_to 10162
  139.8839  143.7037  152.3153 LP  0  0  0  0  0  0  0  0  0  0  0  0  # atno 17343 bound_to 10162
  156.4392  130.7853  151.2874 LP  0  0  0  0  0  0  0  0  0  0  0  0  # atno 17370 bound_to 10713
  157.7501  131.0130  150.3407 LP  0  0  0  0  0  0  0  0  0  0  0  0  # atno 17371 bound_to 10713
  139.8784  134.9152  156.3125 LP  0  0  0  0  0  0  0  0  0  0  0  0  # atno 17394 bound_to 11000
  140.9736  133.7312  156.0570 LP  0  0  0  0  0  0  0  0  0  0  0  0  # atno 17395 bound_to 11000

$$$$
