AV-unprocessed.smi:114|AV-procd|sdf|1110|dock1
  -GOLD-   2262018223D 1   1.00000     0.00000
 Structure written by MMmdl.
 32 34  0  0  0  0  0  0  0  0  1 V2000
  151.7116  133.2563  155.2587 N   0  0  0  0  0  0  0  0  0  0  0  0
  150.8067  132.4923  154.6304 C   0  0  0  0  0  0  0  0  0  0  0  0
  150.9738  131.1499  154.6466 N   0  0  0  0  0  0  0  0  0  0  0  0
  150.0932  130.3530  154.0297 C   0  0  0  0  0  0  0  0  0  0  0  0
  150.3347  129.0226  154.0966 F   0  0  0  0  0  0  0  0  0  0  0  0
  149.0002  130.7234  153.3547 N   0  0  0  0  0  0  0  0  0  0  0  0
  148.8245  132.0761  153.3336 C   0  0  0  0  0  0  0  0  0  0  0  0
  149.6846  133.0256  153.9499 C   0  0  0  0  0  0  0  0  0  0  0  0
  149.2075  134.3103  153.7340 N   0  0  0  0  0  0  0  0  0  0  0  0
  148.1258  134.1259  153.0265 C   0  0  0  0  0  0  0  0  0  0  0  0
  147.8208  132.8145  152.7346 N   0  0  0  0  0  0  0  0  0  0  0  0
  146.6445  132.3309  151.9449 C   0  0  1  0  0  0  0  0  0  0  0  0
  145.4732  132.5561  152.6662 O   0  0  0  0  0  0  0  0  0  0  0  0
  144.4313  133.0591  151.8260 C   0  0  1  0  0  0  0  0  0  0  0  0
  144.0495  134.4666  152.3318 C   0  0  0  0  0  0  0  0  0  0  0  0
  143.6636  134.4015  153.6880 O   0  0  0  0  0  0  0  0  0  0  0  0
  145.0212  133.0116  150.4021 C   0  0  1  0  0  0  0  0  0  0  0  0
  144.5688  134.0554  149.5606 O   0  0  0  0  0  0  0  0  0  0  0  0
  146.5222  133.0938  150.6285 C   0  0  2  0  0  0  0  0  0  0  0  0
  147.1910  132.4322  149.5725 O   0  0  0  0  0  0  0  0  0  0  0  0
  146.7979  131.2578  151.8210 H   0  0  0  0  0  0  0  0  0  0  0  0
  143.5610  132.4038  151.8787 H   0  0  0  0  0  0  0  0  0  0  0  0
  144.7623  132.0523  149.9501 H   0  0  0  0  0  0  0  0  0  0  0  0
  146.8584  134.1244  150.7571 H   0  0  0  0  0  0  0  0  0  0  0  0
  151.6072  134.2608  155.2589 H   0  0  0  0  0  0  0  0  0  0  0  0
  152.4965  132.8278  155.7275 H   0  0  0  0  0  0  0  0  0  0  0  0
  147.5114  134.9504  152.6947 H   0  0  0  0  0  0  0  0  0  0  0  0
  144.8594  135.1815  152.1931 H   0  0  0  0  0  0  0  0  0  0  0  0
  143.1879  134.8554  151.7895 H   0  0  0  0  0  0  0  0  0  0  0  0
  143.3392  133.5320  153.8665 H   0  0  0  0  0  0  0  0  0  0  0  0
  145.1417  134.1075  148.8110 H   0  0  0  0  0  0  0  0  0  0  0  0
  147.8307  131.8435  149.9427 H   0  0  0  0  0  0  0  0  0  0  0  0
  1  2  1  0  0  0  0
  1 25  1  0  0  0  0
  1 26  1  0  0  0  0
  2  8  1  0  0  0  0
  2  3  2  0  0  0  0
  3  4  1  0  0  0  0
  4  5  1  0  0  0  0
  4  6  2  0  0  0  0
  6  7  1  0  0  0  0
  7 11  1  0  0  0  0
  7  8  2  0  0  0  0
  8  9  1  0  0  0  0
  9 10  2  0  0  0  0
 10 11  1  0  0  0  0
 10 27  1  0  0  0  0
 11 12  1  0  0  0  0
 12 21  1  0  0  0  0
 12 19  1  0  0  0  0
 12 13  1  0  0  0  0
 13 14  1  0  0  0  0
 14 22  1  0  0  0  0
 14 15  1  0  0  0  0
 14 17  1  0  0  0  0
 15 16  1  0  0  0  0
 15 28  1  0  0  0  0
 15 29  1  0  0  0  0
 16 30  1  0  0  0  0
 17 23  1  0  0  0  0
 17 18  1  0  0  0  0
 17 19  1  0  0  0  0
 18 31  1  0  0  0  0
 19 24  1  0  0  0  0
 19 20  1  0  0  0  0
 20 32  1  0  0  0  0
M  END
> <s_m_source_file>
AV-unprocessed.smi

> <i_m_source_file_index>
114

> <i_lp_mmshare_version>
43012

> <i_f3d_flags>
0

> <s_epik_input>
RmMobjEpbmMoW05IMl0pYyhjMTIpbltjSF1uMltDQEBIXTNPW0NASF0oW0NIMl1bT0hdKVtDQEBIXShbT0hdKVtDQEBIXTNbT0hd

> <s_epik_cmdline>
J2VwaWtfcHl0aG9uJywgJy1waCcsICc3LjAnLCAnLXRuJywgJzgnLCAnLW1hJywgJzIwMCcsICctbWV0YWxfYmluZGluZycsICctaW1hZScsICc8aW5maWxlLm1hZT4nLCAnLW9tYWUnLCAnPG91dGZpbGUubWFlPic=

> <r_lp_tautomer_probability>
1

> <r_epik_Ionization_Penalty>
1.13199e-05

> <r_epik_Ionization_Penalty_Charging>
0

> <r_epik_Ionization_Penalty_Neutral>
1.13199e-05

> <r_epik_State_Penalty>
-0

> <r_epik_Charging_Adjusted_Penalty>
0

> <i_epik_Tot_Q>
0

> <i_epik_Tot_abs_Q>
0

> <r_epik_Metal_State_Penalty>
-0

> <b_epik_Metal_Only>
0

> <s_epik_Chemistry_Notes>
This compound contains an acetal/aminal-like group ( X-CH(R)-Y where X, Y are N, S, or O) that may be acid/base labile, releasing an aldehyde.

> <s_lp_Force_Field>
OPLS_2005

> <r_lp_Energy>
42.0862

> <b_lp_Chiralities_Consistent>
1

> <s_lp_Variant>
AV-unprocessed.smi:114-4

> <Gold.Version>
5.8.1

> <Gold.Id.Protein>
6NUR|6NUR_protein|mol2

> <Gold.PLP.Fitness>
41.5657

> <Gold.PLP.PLP>
-30.9866

> <Gold.PLP.part.hbond>
-3.8102

> <Gold.PLP.part.metal>
0.0000

> <Gold.PLP.part.buried>
-3.8732

> <Gold.PLP.part.nonpolar>
-23.5535

> <Gold.PLP.part.repulsive>
0.5126

> <Gold.PLP.ligand.clash>
0.0000

> <Gold.PLP.ligand.torsion>
0.1885

> <Gold.PLP.Chemscore.Hbond>
3.0000

> <Gold.PLP.Chemscore.CHOScore>
0.6499

> <Gold.PLP.Chemscore.Metal>
0.0000

> <Gold.Chemscore.Hbonds>
donor molecule, donor type, donor heavy atom, donor atom, acceptor molecule, acceptor atom, score
      L1  H    16    30       P1 10957  0.83
      L1  H    18    31       P1  7921  1.00
      L1  H    20    32       P1 10747  0.99
      L1  C    10    27       P1  7948  0.41

> <Gold.PLP.Chemscore.Internal.Correction>
0.0066

> <Gold.Rescore>
     Score         DG    S(hbond)    S(metal)    S(lipo)     H(rot)  DE(clash)    DE(int)     intcor
      8.50      -8.76       2.98        0.00      30.98       4.03       0.19       0.07       ----

> <Gold.Chemscore.Fitness>
8.5026

> <Gold.Chemscore.DG>
-8.7595

> <Gold.Chemscore.ZeroCoef>
-5.4800

> <Gold.Chemscore.Hbond>
2.9838

> <Gold.Chemscore.Metal>
0.0000

> <Gold.Chemscore.Lipo>
30.9805

> <Gold.Chemscore.Internal_Hbond>
0.0000

> <Gold.Chemscore.DEClash>
0.1858

> <Gold.Chemscore.DEInternal>
0.0711

> <Gold.Chemscore.Rot>
4.0277

> <Gold.Chemscore.Internal.Correction>
   9.000000E+99

> <Gold.Chemscore.Hbonds>
donor molecule, donor type, donor heavy atom, donor atom, acceptor molecule, acceptor atom, score
      L1  H    16    30       P1 10957  0.80
      L1  H    18    31       P1  7921  0.98
      L1  H    20    32       P1 10747  0.92

> <Gold.Chemscore.Hbond.Weighted>
-9.9658

> <Gold.Chemscore.Metal.Weighted>
-0.0000

> <Gold.Chemscore.Lipo.Weighted>
-3.6247

> <Gold.Chemscore.Internal_Hbond.Weighted>
0.0000

> <Gold.Chemscore.DEClash.Weighted>
0.1858

> <Gold.Chemscore.DEInternal.Weighted>
0.0711

> <Gold.Chemscore.Rot.Weighted>
10.3110

> <Gold.Chemscore.Internal.Correction.Weighted>
   9.000000E+99

> <Gold.Protein.RotatedTorsions>
[ 6907 6896 6895 6894 ] final  -52.10 input  -60.11 | X-H torsion
[ 7974 7965 7964 7962 ] final  -77.48 input  175.53 | X-H torsion
[ 8008 7997 7996 7995 ] final  -61.96 input   59.86 | X-H torsion
[ 10167 10162 10161 10158 ] final -148.77 input  -65.29 | X-H torsion
[ 10718 10713 10712 10709 ] final  132.15 input   66.30 | X-H torsion
[ 10763 10752 10751 10750 ] final  -49.55 input  -60.55 | X-H torsion
[ 11005 11000 10999 10996 ] final   10.60 input  -57.11 | X-H torsion

> <Gold.Protein.ActiveResidues>
 VAL166  LYS551  ARG553  GLY616  TRP617  ASP618  TYR619  PRO620  LYS621  CYS622 
 ASP623  PHE694  ASN695  SER759  ASP760  ASP761  ALA762  ILE779  LEU786  VAL792 
 PHE793  MET794  SER795  GLU796  ALA797  LYS798  CYS799  TRP800  GLU811  SER814 

> <Gold.Protein.RotatedAtoms>
  150.8549  134.7885  159.7037 H   0  0  0  0  0  0  0  0  0  0  0  0  # atno 6907 bound_to 6896
  152.4603  134.5195  159.9788 H   0  0  0  0  0  0  0  0  0  0  0  0  # atno 6908 bound_to 6896
  151.5309  133.3411  159.2954 H   0  0  0  0  0  0  0  0  0  0  0  0  # atno 6909 bound_to 6896
  145.5992  140.9412  143.1250 H   0  0  0  0  0  0  0  0  0  0  0  0  # atno 7974 bound_to 7965
  154.4474  140.1006  156.6512 H   0  0  0  0  0  0  0  0  0  0  0  0  # atno 8008 bound_to 7997
  155.5395  140.3483  155.4425 H   0  0  0  0  0  0  0  0  0  0  0  0  # atno 8009 bound_to 7997
  156.0607  140.1325  156.9934 H   0  0  0  0  0  0  0  0  0  0  0  0  # atno 8010 bound_to 7997
  139.7502  143.8530  152.2584 H   0  0  0  0  0  0  0  0  0  0  0  0  # atno 10167 bound_to 10162
  157.4899  131.1090  150.9570 H   0  0  0  0  0  0  0  0  0  0  0  0  # atno 10718 bound_to 10713
  154.0959  135.6570  153.4860 H   0  0  0  0  0  0  0  0  0  0  0  0  # atno 10763 bound_to 10752
  153.0305  135.5213  154.7335 H   0  0  0  0  0  0  0  0  0  0  0  0  # atno 10764 bound_to 10752
  154.6472  135.2996  155.0000 H   0  0  0  0  0  0  0  0  0  0  0  0  # atno 10765 bound_to 10752
  140.5127  134.0636  155.7822 H   0  0  0  0  0  0  0  0  0  0  0  0  # atno 11005 bound_to 11000
  144.7317  139.7705  143.7344 LP  0  0  0  0  0  0  0  0  0  0  0  0  # atno 17320 bound_to 7965
  146.1589  139.4696  143.0001 LP  0  0  0  0  0  0  0  0  0  0  0  0  # atno 17321 bound_to 7965
  139.8506  144.7166  150.9219 LP  0  0  0  0  0  0  0  0  0  0  0  0  # atno 17342 bound_to 10162
  140.7797  143.3903  151.1322 LP  0  0  0  0  0  0  0  0  0  0  0  0  # atno 17343 bound_to 10162
  157.0275  130.5698  149.5339 LP  0  0  0  0  0  0  0  0  0  0  0  0  # atno 17370 bound_to 10713
  156.0167  130.5262  150.8157 LP  0  0  0  0  0  0  0  0  0  0  0  0  # atno 17371 bound_to 10713
  141.1377  133.9193  157.2397 LP  0  0  0  0  0  0  0  0  0  0  0  0  # atno 17394 bound_to 11000
  139.9650  135.0144  156.9362 LP  0  0  0  0  0  0  0  0  0  0  0  0  # atno 17395 bound_to 11000

$$$$
