AV-unprocessed.smi:151|AV-procd|sdf|1245|dock3
  -GOLD-   2262018463D 1   1.00000     0.00000
 Structure written by MMmdl.
 56 59  0  0  0  0  0  0  0  0  1 V2000
  151.7471  138.0362  154.7460 C   0  0  0  0  0  0  0  0  0  0  0  0
  150.2767  138.1313  154.3165 C   0  0  0  0  0  0  0  0  0  0  0  0
  149.4032  139.0328  155.2288 C   0  0  1  0  0  0  0  0  0  0  0  0
  149.8887  140.4994  155.1879 C   0  0  0  0  0  0  0  0  0  0  0  0
  149.0503  141.3465  155.9697 O   0  0  0  0  0  0  0  0  0  0  0  0
  147.6682  141.3402  155.6084 C   0  0  0  0  0  0  0  0  0  0  0  0
  146.9616  142.1928  156.6736 C   0  0  0  0  0  0  0  0  0  0  0  0
  147.4447  141.9738  154.2185 C   0  0  0  0  0  0  0  0  0  0  0  0
  147.1565  139.8872  155.6739 C   0  0  0  0  0  0  0  0  0  0  0  0
  147.9822  138.9962  154.8643 N   0  0  0  0  0  0  0  0  0  0  0  0
  147.4361  137.7631  154.7656 C   0  0  0  0  0  0  0  0  0  0  0  0
  147.6795  136.8302  155.7235 N   0  0  0  0  0  0  0  0  0  0  0  0
  147.1544  135.6069  155.6080 C   0  0  0  0  0  0  0  0  0  0  0  0
  146.3818  135.1182  154.6353 N   0  0  0  0  0  0  0  0  0  0  0  0
  146.1399  136.0537  153.6711 C   0  0  0  0  0  0  0  0  0  0  0  0
  146.6236  137.3916  153.6631 C   0  0  0  0  0  0  0  0  0  0  0  0
  146.1807  138.0554  152.5274 N   0  0  0  0  0  0  0  0  0  0  0  0
  145.4733  137.1585  151.8953 C   0  0  0  0  0  0  0  0  0  0  0  0
  145.3973  135.9264  152.5077 N   0  0  0  0  0  0  0  0  0  0  0  0
  144.6913  134.7733  152.0225 C   0  0  0  0  0  0  0  0  0  0  0  0
  145.1881  133.3582  152.3256 C   0  0  0  0  0  0  0  0  0  0  0  0
  144.7820  132.8959  150.9079 C   0  0  0  0  0  0  0  0  0  0  0  0
  145.8604  132.1065  150.1502 C   0  0  0  0  0  0  0  0  0  0  0  0
  147.1571  132.5678  150.4709 O   0  0  0  0  0  0  0  0  0  0  0  0
  143.4613  132.1061  150.7785 C   0  0  0  0  0  0  0  0  0  0  0  0
  142.9780  132.0503  149.4514 O   0  0  0  0  0  0  0  0  0  0  0  0
  144.7138  134.3955  150.5390 C   0  0  0  0  0  0  0  0  0  0  0  0
  152.2804  137.3125  154.1293 H   0  0  0  0  0  0  0  0  0  0  0  0
  151.8336  137.7134  155.7837 H   0  0  0  0  0  0  0  0  0  0  0  0
  152.2636  138.9899  154.6425 H   0  0  0  0  0  0  0  0  0  0  0  0
  150.2206  138.4840  153.2858 H   0  0  0  0  0  0  0  0  0  0  0  0
  149.8865  137.1136  154.3071 H   0  0  0  0  0  0  0  0  0  0  0  0
  149.4897  138.6738  156.2556 H   0  0  0  0  0  0  0  0  0  0  0  0
  150.8943  140.5785  155.5992 H   0  0  0  0  0  0  0  0  0  0  0  0
  149.9486  140.8645  154.1625 H   0  0  0  0  0  0  0  0  0  0  0  0
  145.8856  142.2326  156.5009 H   0  0  0  0  0  0  0  0  0  0  0  0
  147.3362  143.2170  156.6711 H   0  0  0  0  0  0  0  0  0  0  0  0
  147.1212  141.7886  157.6739 H   0  0  0  0  0  0  0  0  0  0  0  0
  146.3805  142.0701  154.0017 H   0  0  0  0  0  0  0  0  0  0  0  0
  147.8779  141.3795  153.4144 H   0  0  0  0  0  0  0  0  0  0  0  0
  147.8831  142.9707  154.1665 H   0  0  0  0  0  0  0  0  0  0  0  0
  147.1721  139.5419  156.7090 H   0  0  0  0  0  0  0  0  0  0  0  0
  146.1182  139.8410  155.3411 H   0  0  0  0  0  0  0  0  0  0  0  0
  147.3898  134.9195  156.4070 H   0  0  0  0  0  0  0  0  0  0  0  0
  144.9858  137.3746  150.9556 H   0  0  0  0  0  0  0  0  0  0  0  0
  143.6593  134.8802  152.3596 H   0  0  0  0  0  0  0  0  0  0  0  0
  146.2652  133.3149  152.4920 H   0  0  0  0  0  0  0  0  0  0  0  0
  144.6528  132.8624  153.1358 H   0  0  0  0  0  0  0  0  0  0  0  0
  145.7998  131.0403  150.3711 H   0  0  0  0  0  0  0  0  0  0  0  0
  145.7304  132.2062  149.0718 H   0  0  0  0  0  0  0  0  0  0  0  0
  147.7626  131.8482  150.3767 H   0  0  0  0  0  0  0  0  0  0  0  0
  143.5890  131.0811  151.1286 H   0  0  0  0  0  0  0  0  0  0  0  0
  142.6769  132.5498  151.3921 H   0  0  0  0  0  0  0  0  0  0  0  0
  142.3890  132.7770  149.3162 H   0  0  0  0  0  0  0  0  0  0  0  0
  143.8180  134.6915  149.9919 H   0  0  0  0  0  0  0  0  0  0  0  0
  145.6080  134.7492  150.0247 H   0  0  0  0  0  0  0  0  0  0  0  0
  1  2  1  0  0  0  0
  1 28  1  0  0  0  0
  1 29  1  0  0  0  0
  1 30  1  0  0  0  0
  2  3  1  0  0  0  0
  2 31  1  0  0  0  0
  2 32  1  0  0  0  0
  3 10  1  0  0  0  0
  3  4  1  0  0  0  0
  3 33  1  0  0  0  0
  4  5  1  0  0  0  0
  4 34  1  0  0  0  0
  4 35  1  0  0  0  0
  5  6  1  0  0  0  0
  6  7  1  0  0  0  0
  6  8  1  0  0  0  0
  6  9  1  0  0  0  0
  7 36  1  0  0  0  0
  7 37  1  0  0  0  0
  7 38  1  0  0  0  0
  8 39  1  0  0  0  0
  8 40  1  0  0  0  0
  8 41  1  0  0  0  0
  9 10  1  0  0  0  0
  9 42  1  0  0  0  0
  9 43  1  0  0  0  0
 10 11  1  0  0  0  0
 11 16  1  0  0  0  0
 11 12  2  0  0  0  0
 12 13  1  0  0  0  0
 13 14  2  0  0  0  0
 13 44  1  0  0  0  0
 14 15  1  0  0  0  0
 15 19  1  0  0  0  0
 15 16  2  0  0  0  0
 16 17  1  0  0  0  0
 17 18  2  0  0  0  0
 18 19  1  0  0  0  0
 18 45  1  0  0  0  0
 19 20  1  0  0  0  0
 20 27  1  0  0  0  0
 20 21  1  0  0  0  0
 20 46  1  0  0  0  0
 21 22  1  0  0  0  0
 21 47  1  0  0  0  0
 21 48  1  0  0  0  0
 22 23  1  0  0  0  0
 22 25  1  0  0  0  0
 22 27  1  0  0  0  0
 23 24  1  0  0  0  0
 23 49  1  0  0  0  0
 23 50  1  0  0  0  0
 24 51  1  0  0  0  0
 25 26  1  0  0  0  0
 25 52  1  0  0  0  0
 25 53  1  0  0  0  0
 26 54  1  0  0  0  0
 27 55  1  0  0  0  0
 27 56  1  0  0  0  0
M  END
> <s_m_source_file>
AV-unprocessed.smi

> <i_m_source_file_index>
151

> <i_lp_mmshare_version>
43012

> <i_f3d_flags>
0

> <s_epik_input>
W0NIM11DMShbQ0gzXSlPW0NIMl1bQ0BASF0oW0NIMl1bQ0gzXSlOKFtDSDJdMSljKG5bY0hdbjIpYyhjMjMpbltjSF1uM1tDSF0oW0NIMl00KVtDSDJdQzQoW0NIMl1bT0hdKVtDSDJdW09IXQ==

> <s_epik_cmdline>
J2VwaWtfcHl0aG9uJywgJy1waCcsICc3LjAnLCAnLXRuJywgJzgnLCAnLW1hJywgJzIwMCcsICctbWV0YWxfYmluZGluZycsICctaW1hZScsICc8aW5maWxlLm1hZT4nLCAnLW9tYWUnLCAnPG91dGZpbGUubWFlPic=

> <r_lp_tautomer_probability>
1

> <r_epik_Ionization_Penalty>
0.000102837

> <r_epik_Ionization_Penalty_Charging>
0

> <r_epik_Ionization_Penalty_Neutral>
0.000102837

> <r_epik_State_Penalty>
-0

> <r_epik_Charging_Adjusted_Penalty>
0

> <i_epik_Tot_Q>
0

> <i_epik_Tot_abs_Q>
0

> <r_epik_Metal_State_Penalty>
-0

> <b_epik_Metal_Only>
0

> <s_lp_Force_Field>
OPLS_2005

> <r_lp_Energy>
49.3626

> <b_lp_Chiralities_Consistent>
1

> <s_lp_Variant>
AV-unprocessed.smi:151-2

> <Gold.Version>
5.8.1

> <Gold.Id.Protein>
6NUR|6NUR_protein|mol2

> <Gold.PLP.Fitness>
46.2624

> <Gold.PLP.PLP>
-37.8561

> <Gold.PLP.part.hbond>
-4.3894

> <Gold.PLP.part.metal>
0.0000

> <Gold.PLP.part.buried>
-4.1865

> <Gold.PLP.part.nonpolar>
-30.9140

> <Gold.PLP.part.repulsive>
0.5780

> <Gold.PLP.ligand.clash>
0.0000

> <Gold.PLP.ligand.torsion>
1.4498

> <Gold.PLP.Chemscore.Hbond>
2.7387

> <Gold.PLP.Chemscore.CHOScore>
0.8474

> <Gold.PLP.Chemscore.Metal>
0.0000

> <Gold.Chemscore.Hbonds>
donor molecule, donor type, donor heavy atom, donor atom, acceptor molecule, acceptor atom, score
      L1  H    24    51       P1 10747  1.00
      L1  H    26    54       P1 10186  0.70
      P1  H 10785 10796       L1    26  0.96
      L1  C    18    45       P1 10171  0.94

> <Gold.PLP.Chemscore.Internal.Correction>
0.5477

> <Gold.Rescore>
     Score         DG    S(hbond)    S(metal)    S(lipo)     H(rot)  DE(clash)    DE(int)     intcor
     14.22     -15.71       2.57        0.00      85.38       3.26       0.07       1.42       ----

> <Gold.Chemscore.Fitness>
14.2159

> <Gold.Chemscore.DG>
-15.7120

> <Gold.Chemscore.ZeroCoef>
-5.4800

> <Gold.Chemscore.Hbond>
2.5711

> <Gold.Chemscore.Metal>
0.0000

> <Gold.Chemscore.Lipo>
85.3781

> <Gold.Chemscore.Internal_Hbond>
0.0000

> <Gold.Chemscore.DEClash>
0.0741

> <Gold.Chemscore.DEInternal>
1.4220

> <Gold.Chemscore.Rot>
3.2596

> <Gold.Chemscore.Internal.Correction>
   9.000000E+99

> <Gold.Chemscore.Hbonds>
donor molecule, donor type, donor heavy atom, donor atom, acceptor molecule, acceptor atom, score
      L1  H    24    51       P1 10747  0.96
      L1  H    26    54       P1 10186  0.69
      P1  H 10785 10796       L1    26  0.64

> <Gold.Chemscore.Hbond.Weighted>
-8.5874

> <Gold.Chemscore.Metal.Weighted>
-0.0000

> <Gold.Chemscore.Lipo.Weighted>
-9.9892

> <Gold.Chemscore.Internal_Hbond.Weighted>
0.0000

> <Gold.Chemscore.DEClash.Weighted>
0.0741

> <Gold.Chemscore.DEInternal.Weighted>
1.4220

> <Gold.Chemscore.Rot.Weighted>
8.3447

> <Gold.Chemscore.Internal.Correction.Weighted>
   9.000000E+99

> <Gold.Protein.RotatedTorsions>
[ 6907 6896 6895 6894 ] final  144.45 input  -60.11 | X-H torsion
[ 7974 7965 7964 7962 ] final  -98.76 input  175.53 | X-H torsion
[ 8008 7997 7996 7995 ] final   45.14 input   59.86 | X-H torsion
[ 10167 10162 10161 10158 ] final   42.30 input  -65.29 | X-H torsion
[ 10718 10713 10712 10709 ] final  -41.66 input   66.30 | X-H torsion
[ 10763 10752 10751 10750 ] final  162.17 input  -60.55 | X-H torsion
[ 11005 11000 10999 10996 ] final   56.75 input  -57.11 | X-H torsion

> <Gold.Protein.ActiveResidues>
 VAL166  LYS551  ARG553  GLY616  TRP617  ASP618  TYR619  PRO620  LYS621  CYS622 
 ASP623  PHE694  ASN695  SER759  ASP760  ASP761  ALA762  ILE779  LEU786  VAL792 
 PHE793  MET794  SER795  GLU796  ALA797  LYS798  CYS799  TRP800  GLU811  SER814 

> <Gold.Protein.RotatedAtoms>
  152.1935  133.4789  159.5019 H   0  0  0  0  0  0  0  0  0  0  0  0  # atno 6907 bound_to 6896
  150.6955  134.1682  159.4211 H   0  0  0  0  0  0  0  0  0  0  0  0  # atno 6908 bound_to 6896
  151.9598  135.0129  160.0597 H   0  0  0  0  0  0  0  0  0  0  0  0  # atno 6909 bound_to 6896
  145.3164  140.9412  143.2740 H   0  0  0  0  0  0  0  0  0  0  0  0  # atno 7974 bound_to 7965
  155.3309  140.3402  155.4239 H   0  0  0  0  0  0  0  0  0  0  0  0  # atno 8008 bound_to 7997
  156.1862  140.1681  156.8218 H   0  0  0  0  0  0  0  0  0  0  0  0  # atno 8009 bound_to 7997
  154.5389  140.0729  156.8458 H   0  0  0  0  0  0  0  0  0  0  0  0  # atno 8010 bound_to 7997
  140.3557  144.2293  150.6142 H   0  0  0  0  0  0  0  0  0  0  0  0  # atno 10167 bound_to 10162
  156.2680  130.4203  149.8469 H   0  0  0  0  0  0  0  0  0  0  0  0  # atno 10718 bound_to 10713
  154.2743  135.2765  155.2725 H   0  0  0  0  0  0  0  0  0  0  0  0  # atno 10763 bound_to 10752
  154.5274  135.5739  153.6734 H   0  0  0  0  0  0  0  0  0  0  0  0  # atno 10764 bound_to 10752
  152.9940  135.6219  154.2899 H   0  0  0  0  0  0  0  0  0  0  0  0  # atno 10765 bound_to 10752
  140.0505  134.5743  155.9269 H   0  0  0  0  0  0  0  0  0  0  0  0  # atno 11005 bound_to 11000
  144.8974  139.4693  143.6649 LP  0  0  0  0  0  0  0  0  0  0  0  0  # atno 17320 bound_to 7965
  146.3099  139.7709  142.9028 LP  0  0  0  0  0  0  0  0  0  0  0  0  # atno 17321 bound_to 7965
  140.5176  143.2274  151.8439 LP  0  0  0  0  0  0  0  0  0  0  0  0  # atno 17342 bound_to 10162
  139.4820  144.4876  151.9227 LP  0  0  0  0  0  0  0  0  0  0  0  0  # atno 17343 bound_to 10162
  156.5961  130.8527  151.3420 LP  0  0  0  0  0  0  0  0  0  0  0  0  # atno 17370 bound_to 10713
  157.7274  130.9642  150.1697 LP  0  0  0  0  0  0  0  0  0  0  0  0  # atno 17371 bound_to 10713
  141.1928  133.6576  156.5518 LP  0  0  0  0  0  0  0  0  0  0  0  0  # atno 17394 bound_to 11000
  140.3925  134.7428  157.4730 LP  0  0  0  0  0  0  0  0  0  0  0  0  # atno 17395 bound_to 11000

$$$$
