AV-unprocessed.smi:252|AV-procd|sdf|1937|dock6
  -GOLD-   2262021 63D 1   1.00000     0.00000
 Structure written by MMmdl.
 56 59  0  0  0  0  0  0  0  0  1 V2000
  151.6496  140.9108  157.9831 C   0  0  0  0  0  0  0  0  0  0  0  0
  151.9293  140.0883  156.7156 C   0  0  0  0  0  0  0  0  0  0  0  0
  150.7470  140.0480  155.7422 C   0  0  0  0  0  0  0  0  0  0  0  0
  150.8939  139.6472  154.5868 O   0  0  0  0  0  0  0  0  0  0  0  0
  149.5719  140.4786  156.2271 N   0  0  0  0  0  0  0  0  0  0  0  0
  148.3205  140.5350  155.4783 C   0  0  1  0  0  0  0  0  0  0  0  0
  148.5020  141.4112  154.2254 C   0  0  0  0  0  0  0  0  0  0  0  0
  147.2208  141.4119  153.3766 C   0  0  0  0  0  0  0  0  0  0  0  0
  146.7819  139.9788  153.0347 C   0  0  0  0  0  0  0  0  0  0  0  0
  146.6583  139.1717  154.2492 N   0  0  0  0  0  0  0  0  0  0  0  0
  145.9699  138.0047  154.1715 C   0  0  0  0  0  0  0  0  0  0  0  0
  145.4012  137.4754  155.2878 N   0  0  0  0  0  0  0  0  0  0  0  0
  144.7080  136.3352  155.2157 C   0  0  0  0  0  0  0  0  0  0  0  0
  144.4640  135.5724  154.1486 N   0  0  0  0  0  0  0  0  0  0  0  0
  145.0380  136.0934  153.0267 C   0  0  0  0  0  0  0  0  0  0  0  0
  145.8045  137.2907  152.9511 C   0  0  0  0  0  0  0  0  0  0  0  0
  146.2429  137.4895  151.6470 N   0  0  0  0  0  0  0  0  0  0  0  0
  145.7528  136.4758  150.9879 C   0  0  0  0  0  0  0  0  0  0  0  0
  145.0069  135.5933  151.7363 N   0  0  0  0  0  0  0  0  0  0  0  0
  144.3429  134.3899  151.2580 C   0  0  0  0  0  0  0  0  0  0  0  0
  145.3059  133.1875  151.0736 C   0  0  1  0  0  0  0  0  0  0  0  0
  146.3672  133.6028  150.2304 O   0  0  0  0  0  0  0  0  0  0  0  0
  145.9176  132.6892  152.3802 C   0  0  0  0  0  0  0  0  0  0  0  0
  146.1825  131.2192  152.0949 C   0  0  0  0  0  0  0  0  0  0  0  0
  145.0358  130.8418  151.3540 O   0  0  0  0  0  0  0  0  0  0  0  0
  144.6930  131.8970  150.4587 C   0  0  1  0  0  0  0  0  0  0  0  0
  143.1673  131.8733  150.2773 C   0  0  0  0  0  0  0  0  0  0  0  0
  147.8603  139.1179  155.0802 C   0  0  0  0  0  0  0  0  0  0  0  0
  152.5323  140.9446  158.6220 H   0  0  0  0  0  0  0  0  0  0  0  0
  150.8378  140.4780  158.5690 H   0  0  0  0  0  0  0  0  0  0  0  0
  151.3798  141.9391  157.7390 H   0  0  0  0  0  0  0  0  0  0  0  0
  152.7980  140.5037  156.2028 H   0  0  0  0  0  0  0  0  0  0  0  0
  152.1868  139.0652  156.9904 H   0  0  0  0  0  0  0  0  0  0  0  0
  149.5421  140.7922  157.1864 H   0  0  0  0  0  0  0  0  0  0  0  0
  147.5538  140.9923  156.1070 H   0  0  0  0  0  0  0  0  0  0  0  0
  148.7589  142.4321  154.5109 H   0  0  0  0  0  0  0  0  0  0  0  0
  149.3324  141.0354  153.6258 H   0  0  0  0  0  0  0  0  0  0  0  0
  146.4221  141.9154  153.9226 H   0  0  0  0  0  0  0  0  0  0  0  0
  147.3778  141.9823  152.4609 H   0  0  0  0  0  0  0  0  0  0  0  0
  145.8293  140.0092  152.5040 H   0  0  0  0  0  0  0  0  0  0  0  0
  147.5096  139.5149  152.3673 H   0  0  0  0  0  0  0  0  0  0  0  0
  144.2864  135.9848  156.1464 H   0  0  0  0  0  0  0  0  0  0  0  0
  145.9203  136.3463  149.9286 H   0  0  0  0  0  0  0  0  0  0  0  0
  143.5583  134.1446  151.9742 H   0  0  0  0  0  0  0  0  0  0  0  0
  143.8416  134.6252  150.3185 H   0  0  0  0  0  0  0  0  0  0  0  0
  146.0060  134.1165  149.5244 H   0  0  0  0  0  0  0  0  0  0  0  0
  146.8102  133.2359  152.6882 H   0  0  0  0  0  0  0  0  0  0  0  0
  145.1880  132.7621  153.1877 H   0  0  0  0  0  0  0  0  0  0  0  0
  147.0777  131.0903  151.4847 H   0  0  0  0  0  0  0  0  0  0  0  0
  146.2908  130.6246  153.0020 H   0  0  0  0  0  0  0  0  0  0  0  0
  145.1561  131.6768  149.4950 H   0  0  0  0  0  0  0  0  0  0  0  0
  142.8358  132.6479  149.5858 H   0  0  0  0  0  0  0  0  0  0  0  0
  142.6482  132.0152  151.2253 H   0  0  0  0  0  0  0  0  0  0  0  0
  142.8446  130.9147  149.8706 H   0  0  0  0  0  0  0  0  0  0  0  0
  148.6469  138.6157  154.5154 H   0  0  0  0  0  0  0  0  0  0  0  0
  147.6961  138.5211  155.9766 H   0  0  0  0  0  0  0  0  0  0  0  0
  1  2  1  0  0  0  0
  1 29  1  0  0  0  0
  1 30  1  0  0  0  0
  1 31  1  0  0  0  0
  2  3  1  0  0  0  0
  2 32  1  0  0  0  0
  2 33  1  0  0  0  0
  3  4  2  0  0  0  0
  3  5  1  0  0  0  0
  5  6  1  0  0  0  0
  5 34  1  0  0  0  0
  6 28  1  0  0  0  0
  6  7  1  0  0  0  0
  6 35  1  0  0  0  0
  7  8  1  0  0  0  0
  7 36  1  0  0  0  0
  7 37  1  0  0  0  0
  8  9  1  0  0  0  0
  8 38  1  0  0  0  0
  8 39  1  0  0  0  0
  9 10  1  0  0  0  0
  9 40  1  0  0  0  0
  9 41  1  0  0  0  0
 10 11  1  0  0  0  0
 10 28  1  0  0  0  0
 11 16  1  0  0  0  0
 11 12  2  0  0  0  0
 12 13  1  0  0  0  0
 13 14  2  0  0  0  0
 13 42  1  0  0  0  0
 14 15  1  0  0  0  0
 15 19  1  0  0  0  0
 15 16  2  0  0  0  0
 16 17  1  0  0  0  0
 17 18  2  0  0  0  0
 18 19  1  0  0  0  0
 18 43  1  0  0  0  0
 19 20  1  0  0  0  0
 20 21  1  0  0  0  0
 20 44  1  0  0  0  0
 20 45  1  0  0  0  0
 21 26  1  0  0  0  0
 21 22  1  0  0  0  0
 21 23  1  0  0  0  0
 22 46  1  0  0  0  0
 23 24  1  0  0  0  0
 23 47  1  0  0  0  0
 23 48  1  0  0  0  0
 24 25  1  0  0  0  0
 24 49  1  0  0  0  0
 24 50  1  0  0  0  0
 25 26  1  0  0  0  0
 26 27  1  0  0  0  0
 26 51  1  0  0  0  0
 27 52  1  0  0  0  0
 27 53  1  0  0  0  0
 27 54  1  0  0  0  0
 28 55  1  0  0  0  0
 28 56  1  0  0  0  0
M  END
> <s_m_source_file>
AV-unprocessed.smi

> <i_m_source_file_index>
252

> <i_lp_mmshare_version>
43012

> <i_f3d_flags>
0

> <s_epik_input>
W0NIM11bQ0gyXUMoPU8pW05IXVtDQEBIXTFbQ0gyXVtDSDJdW0NIMl1OKFtDSDJdMSljKG5bY0hdbjIpYyhjMjMpbltjSF1uM1tDSDJdW0NAQF00KFtPSF0pW0NIMl1bQ0gyXU9bQ0BIXTRbQ0gzXQ==

> <s_epik_cmdline>
J2VwaWtfcHl0aG9uJywgJy1waCcsICc3LjAnLCAnLXRuJywgJzgnLCAnLW1hJywgJzIwMCcsICctbWV0YWxfYmluZGluZycsICctaW1hZScsICc8aW5maWxlLm1hZT4nLCAnLW9tYWUnLCAnPG91dGZpbGUubWFlPic=

> <r_lp_tautomer_probability>
1

> <r_epik_Ionization_Penalty>
0.00182575

> <r_epik_Ionization_Penalty_Charging>
0

> <r_epik_Ionization_Penalty_Neutral>
0.00182575

> <r_epik_State_Penalty>
0.00104524

> <r_epik_Charging_Adjusted_Penalty>
0.00104524

> <i_epik_Tot_Q>
0

> <i_epik_Tot_abs_Q>
0

> <r_epik_Metal_State_Penalty>
-0

> <b_epik_Metal_Only>
0

> <s_lp_Force_Field>
OPLS_2005

> <r_lp_Energy>
35.3243

> <b_lp_Chiralities_Consistent>
1

> <s_lp_Variant>
AV-unprocessed.smi:252-2

> <Gold.Version>
5.8.1

> <Gold.Id.Protein>
6NUR|6NUR_protein|mol2

> <Gold.PLP.Fitness>
40.2650

> <Gold.PLP.PLP>
-33.6266

> <Gold.PLP.part.hbond>
-2.6599

> <Gold.PLP.part.metal>
0.0000

> <Gold.PLP.part.buried>
-0.3113

> <Gold.PLP.part.nonpolar>
-33.2215

> <Gold.PLP.part.repulsive>
1.8385

> <Gold.PLP.ligand.clash>
0.0000

> <Gold.PLP.ligand.torsion>
0.8123

> <Gold.PLP.Chemscore.Hbond>
1.9500

> <Gold.PLP.Chemscore.CHOScore>
0.6664

> <Gold.PLP.Chemscore.Metal>
0.0000

> <Gold.Chemscore.Hbonds>
donor molecule, donor type, donor heavy atom, donor atom, acceptor molecule, acceptor atom, score
      L1  H    22    46       P1  7921  0.98
      P1  H  7989  7998       L1     4  1.00
      L1  C    18    43       P1  7921  0.46

> <Gold.PLP.Chemscore.Internal.Correction>
0.4137

> <Gold.Rescore>
     Score         DG    S(hbond)    S(metal)    S(lipo)     H(rot)  DE(clash)    DE(int)     intcor
      7.63     -11.70       1.04        0.00      82.66       2.70       0.44       3.64       ----

> <Gold.Chemscore.Fitness>
7.6253

> <Gold.Chemscore.DG>
-11.7031

> <Gold.Chemscore.ZeroCoef>
-5.4800

> <Gold.Chemscore.Hbond>
1.0403

> <Gold.Chemscore.Metal>
0.0000

> <Gold.Chemscore.Lipo>
82.6592

> <Gold.Chemscore.Internal_Hbond>
0.0000

> <Gold.Chemscore.DEClash>
0.4360

> <Gold.Chemscore.DEInternal>
3.6418

> <Gold.Chemscore.Rot>
2.7041

> <Gold.Chemscore.Internal.Correction>
   9.000000E+99

> <Gold.Chemscore.Hbonds>
donor molecule, donor type, donor heavy atom, donor atom, acceptor molecule, acceptor atom, score
      L1  H    22    46       P1  7921  0.23
      P1  H  7989  7998       L1     4  0.88

> <Gold.Chemscore.Hbond.Weighted>
-3.4745

> <Gold.Chemscore.Metal.Weighted>
-0.0000

> <Gold.Chemscore.Lipo.Weighted>
-9.6711

> <Gold.Chemscore.Internal_Hbond.Weighted>
0.0000

> <Gold.Chemscore.DEClash.Weighted>
0.4360

> <Gold.Chemscore.DEInternal.Weighted>
3.6418

> <Gold.Chemscore.Rot.Weighted>
6.9225

> <Gold.Chemscore.Internal.Correction.Weighted>
   9.000000E+99

> <Gold.Protein.RotatedTorsions>
[ 6907 6896 6895 6894 ] final   16.34 input  -60.11 | X-H torsion
[ 7974 7965 7964 7962 ] final  140.12 input  175.53 | X-H torsion
[ 8008 7997 7996 7995 ] final  159.85 input   59.86 | X-H torsion
[ 10167 10162 10161 10158 ] final   75.64 input  -65.29 | X-H torsion
[ 10718 10713 10712 10709 ] final  159.40 input   66.30 | X-H torsion
[ 10763 10752 10751 10750 ] final  150.56 input  -60.55 | X-H torsion
[ 11005 11000 10999 10996 ] final  105.57 input  -57.11 | X-H torsion

> <Gold.Protein.ActiveResidues>
 VAL166  LYS551  ARG553  GLY616  TRP617  ASP618  TYR619  PRO620  LYS621  CYS622 
 ASP623  PHE694  ASN695  SER759  ASP760  ASP761  ALA762  ILE779  LEU786  VAL792 
 PHE793  MET794  SER795  GLU796  ALA797  LYS798  CYS799  TRP800  GLU811  SER814 

> <Gold.Protein.RotatedAtoms>
  151.8324  135.0617  160.0438 H   0  0  0  0  0  0  0  0  0  0  0  0  # atno 6907 bound_to 6896
  152.2870  133.5520  159.5542 H   0  0  0  0  0  0  0  0  0  0  0  0  # atno 6908 bound_to 6896
  150.7214  134.0398  159.3804 H   0  0  0  0  0  0  0  0  0  0  0  0  # atno 6909 bound_to 6896
  144.9216  139.5161  143.5661 H   0  0  0  0  0  0  0  0  0  0  0  0  # atno 7974 bound_to 7965
  156.2211  140.1820  156.7473 H   0  0  0  0  0  0  0  0  0  0  0  0  # atno 8008 bound_to 7997
  154.5867  140.0657  156.9210 H   0  0  0  0  0  0  0  0  0  0  0  0  # atno 8009 bound_to 7997
  155.2406  140.3321  155.4295 H   0  0  0  0  0  0  0  0  0  0  0  0  # atno 8010 bound_to 7997
  140.0008  144.5688  150.7739 H   0  0  0  0  0  0  0  0  0  0  0  0  # atno 10167 bound_to 10162
  157.1647  131.0595  151.2214 H   0  0  0  0  0  0  0  0  0  0  0  0  # atno 10718 bound_to 10713
  154.0895  135.2853  155.3274 H   0  0  0  0  0  0  0  0  0  0  0  0  # atno 10763 bound_to 10752
  154.6629  135.5328  153.8044 H   0  0  0  0  0  0  0  0  0  0  0  0  # atno 10764 bound_to 10752
  153.0418  135.6538  154.1065 H   0  0  0  0  0  0  0  0  0  0  0  0  # atno 10765 bound_to 10752
  139.8803  134.9340  156.5534 H   0  0  0  0  0  0  0  0  0  0  0  0  # atno 11005 bound_to 11000
  146.3207  139.8099  142.8948 LP  0  0  0  0  0  0  0  0  0  0  0  0  # atno 17320 bound_to 7965
  145.3287  141.0261  143.3459 LP  0  0  0  0  0  0  0  0  0  0  0  0  # atno 17321 bound_to 7965
  140.7420  143.2825  151.3557 LP  0  0  0  0  0  0  0  0  0  0  0  0  # atno 17342 bound_to 10162
  139.6273  144.0788  152.2446 LP  0  0  0  0  0  0  0  0  0  0  0  0  # atno 17343 bound_to 10162
  157.4100  130.7380  149.6831 LP  0  0  0  0  0  0  0  0  0  0  0  0  # atno 17370 bound_to 10713
  155.9748  130.4098  150.3896 LP  0  0  0  0  0  0  0  0  0  0  0  0  # atno 17371 bound_to 10713
  140.8223  133.8344  155.8907 LP  0  0  0  0  0  0  0  0  0  0  0  0  # atno 17394 bound_to 11000
  140.9406  134.1905  157.4800 LP  0  0  0  0  0  0  0  0  0  0  0  0  # atno 17395 bound_to 11000

$$$$
