AV-unprocessed.smi:3311|AV-procd|sdf|12719|dock1
  -GOLD-   2272019 53D 1   1.00000     0.00000
 Structure written by MMmdl.
 44 45  0  0  0  0  0  0  0  0  2 V2000
  152.3736  139.2312  159.3878 C   0  0  0  0  0  0  0  0  0  0  0  0
  151.9080  140.6677  159.6779 C   0  0  2  0  0  0  0  0  0  0  0  0
  150.6896  140.9411  158.8817 N   0  3  0  0  0  0  0  0  0  0  0  0
  150.8804  140.9212  157.4153 C   0  0  0  0  0  0  0  0  0  0  0  0
  149.5705  141.2189  156.6539 C   0  0  0  0  0  0  0  0  0  0  0  0
  149.1226  142.4951  157.0773 O   0  0  0  0  0  0  0  0  0  0  0  0
  149.7838  141.2262  155.1196 C   0  0  0  0  0  0  0  0  0  0  0  0
  148.4710  141.3876  154.3324 C   0  0  0  0  0  0  0  0  0  0  0  0
  147.4434  140.3199  154.7323 C   0  0  0  0  0  0  0  0  0  0  0  0
  147.1816  140.3500  156.2443 C   0  0  0  0  0  0  0  0  0  0  0  0
  148.4882  140.1832  157.0414 C   0  0  0  0  0  0  0  0  0  0  0  0
  152.9958  141.7323  159.3715 C   0  0  2  0  0  0  0  0  0  0  0  0
  154.2782  141.5525  160.2060 C   0  0  0  0  0  0  0  0  0  0  0  0
  152.4774  143.0847  159.5465 N   0  0  0  0  0  0  0  0  0  0  0  0
  152.3120  144.0660  158.5905 C   0  0  0  0  0  0  0  0  0  0  0  0
  151.7825  145.1592  159.2139 C   0  0  0  0  0  0  0  0  0  0  0  0
  151.6606  144.7494  160.5705 C   0  0  0  0  0  0  0  0  0  0  0  0
  152.0768  143.5092  160.7665 N   0  0  0  0  0  0  0  0  0  0  0  0
  153.1978  138.9362  160.0368 H   0  0  0  0  0  0  0  0  0  0  0  0
  152.7031  139.1189  158.3543 H   0  0  0  0  0  0  0  0  0  0  0  0
  151.5664  138.5178  159.5589 H   0  0  0  0  0  0  0  0  0  0  0  0
  151.6609  140.7209  160.7398 H   0  0  0  0  0  0  0  0  0  0  0  0
  150.0019  140.2366  159.1078 H   0  0  0  0  0  0  0  0  0  0  0  0
  151.6458  141.6516  157.1492 H   0  0  0  0  0  0  0  0  0  0  0  0
  151.2623  139.9425  157.1210 H   0  0  0  0  0  0  0  0  0  0  0  0
  149.1633  143.0862  156.3404 H   0  0  0  0  0  0  0  0  0  0  0  0
  150.4743  142.0187  154.8297 H   0  0  0  0  0  0  0  0  0  0  0  0
  150.2561  140.2897  154.8197 H   0  0  0  0  0  0  0  0  0  0  0  0
  148.0547  142.3804  154.5071 H   0  0  0  0  0  0  0  0  0  0  0  0
  148.6720  141.3241  153.2626 H   0  0  0  0  0  0  0  0  0  0  0  0
  146.5109  140.4786  154.1897 H   0  0  0  0  0  0  0  0  0  0  0  0
  147.8065  139.3332  154.4417 H   0  0  0  0  0  0  0  0  0  0  0  0
  146.6988  141.2898  156.5145 H   0  0  0  0  0  0  0  0  0  0  0  0
  146.4813  139.5588  156.5136 H   0  0  0  0  0  0  0  0  0  0  0  0
  148.8739  139.1777  156.8669 H   0  0  0  0  0  0  0  0  0  0  0  0
  148.2744  140.2407  158.1097 H   0  0  0  0  0  0  0  0  0  0  0  0
  153.2769  141.6362  158.3213 H   0  0  0  0  0  0  0  0  0  0  0  0
  154.7858  140.6179  159.9695 H   0  0  0  0  0  0  0  0  0  0  0  0
  154.0643  141.5555  161.2752 H   0  0  0  0  0  0  0  0  0  0  0  0
  154.9874  142.3572  160.0086 H   0  0  0  0  0  0  0  0  0  0  0  0
  152.5788  143.9070  157.5559 H   0  0  0  0  0  0  0  0  0  0  0  0
  151.5230  146.1083  158.7690 H   0  0  0  0  0  0  0  0  0  0  0  0
  151.2844  145.3117  161.4125 H   0  0  0  0  0  0  0  0  0  0  0  0
  150.3213  141.8427  159.1481 H   0  0  0  0  0  0  0  0  0  0  0  0
  1  2  1  0  0  0  0
  1 19  1  0  0  0  0
  1 20  1  0  0  0  0
  1 21  1  0  0  0  0
  2  3  1  0  0  0  0
  2 12  1  0  0  0  0
  2 22  1  0  0  0  0
  3  4  1  0  0  0  0
  3 23  1  0  0  0  0
  3 44  1  0  0  0  0
  4  5  1  0  0  0  0
  4 24  1  0  0  0  0
  4 25  1  0  0  0  0
  5 11  1  0  0  0  0
  5  6  1  0  0  0  0
  5  7  1  0  0  0  0
  6 26  1  0  0  0  0
  7  8  1  0  0  0  0
  7 27  1  0  0  0  0
  7 28  1  0  0  0  0
  8  9  1  0  0  0  0
  8 29  1  0  0  0  0
  8 30  1  0  0  0  0
  9 10  1  0  0  0  0
  9 31  1  0  0  0  0
  9 32  1  0  0  0  0
 10 11  1  0  0  0  0
 10 33  1  0  0  0  0
 10 34  1  0  0  0  0
 11 35  1  0  0  0  0
 11 36  1  0  0  0  0
 12 13  1  0  0  0  0
 12 14  1  0  0  0  0
 12 37  1  0  0  0  0
 13 38  1  0  0  0  0
 13 39  1  0  0  0  0
 13 40  1  0  0  0  0
 14 18  1  0  0  0  0
 14 15  1  0  0  0  0
 15 16  2  0  0  0  0
 15 41  1  0  0  0  0
 16 17  1  0  0  0  0
 16 42  1  0  0  0  0
 17 18  2  0  0  0  0
 17 43  1  0  0  0  0
M  CHG  1   3   1
M  END
> <s_m_source_file>
AV-unprocessed.smi

> <i_m_source_file_index>
3311

> <i_lp_mmshare_version>
43012

> <i_f3d_flags>
0

> <s_epik_input>
bjFbY0hdW2NIXVtjSF1uMVtDQEBIXShbQ0gzXSlbQ0BIXShbQ0gzXSlbTkhdW0NIMl1DMihbT0hdKVtDSDJdW0NIMl1bQ0gyXVtDSDJdW0NIMl0y

> <s_epik_cmdline>
J2VwaWtfcHl0aG9uJywgJy1waCcsICc3LjAnLCAnLXRuJywgJzgnLCAnLW1hJywgJzIwMCcsICctbWV0YWxfYmluZGluZycsICctaW1hZScsICc8aW5maWxlLm1hZT4nLCAnLW9tYWUnLCAnPG91dGZpbGUubWFlPic=

> <r_lp_tautomer_probability>
1

> <r_epik_Ionization_Penalty>
0.0141403

> <r_epik_Ionization_Penalty_Charging>
0.0141276

> <r_epik_Ionization_Penalty_Neutral>
1.27139e-05

> <r_epik_State_Penalty>
0.0110334

> <r_epik_Charging_Adjusted_Penalty>
0.025161

> <i_epik_Tot_Q>
1

> <i_epik_Tot_abs_Q>
1

> <r_epik_Metal_State_Penalty>
0.0110573

> <b_epik_Metal_Only>
0

> <s_lp_Force_Field>
OPLS_2005

> <r_lp_Energy>
21.8269

> <b_lp_Chiralities_Consistent>
1

> <s_lp_Variant>
AV-unprocessed.smi:3311-1

> <Gold.Version>
5.8.1

> <Gold.Id.Protein>
6NUR|6NUR_protein|mol2

> <Gold.PLP.Fitness>
42.6189

> <Gold.PLP.PLP>
-39.6488

> <Gold.PLP.part.hbond>
-1.0000

> <Gold.PLP.part.metal>
0.0000

> <Gold.PLP.part.buried>
-4.6095

> <Gold.PLP.part.nonpolar>
-34.3752

> <Gold.PLP.part.repulsive>
0.2590

> <Gold.PLP.ligand.clash>
0.0000

> <Gold.PLP.ligand.torsion>
0.0485

> <Gold.PLP.Chemscore.Hbond>
1.0000

> <Gold.PLP.Chemscore.CHOScore>
0.0000

> <Gold.PLP.Chemscore.Metal>
0.0000

> <Gold.Chemscore.Hbonds>
donor molecule, donor type, donor heavy atom, donor atom, acceptor molecule, acceptor atom, score
      L1  H     6    26       P1  8028  0.98

> <Gold.PLP.Chemscore.Internal.Correction>
0.0671

> <Gold.Rescore>
     Score         DG    S(hbond)    S(metal)    S(lipo)     H(rot)  DE(clash)    DE(int)     intcor
     15.53     -15.59       0.99        0.00     105.05       2.14       0.01       0.04       ----

> <Gold.Chemscore.Fitness>
15.5277

> <Gold.Chemscore.DG>
-15.5853

> <Gold.Chemscore.ZeroCoef>
-5.4800

> <Gold.Chemscore.Hbond>
0.9878

> <Gold.Chemscore.Metal>
0.0000

> <Gold.Chemscore.Lipo>
105.0476

> <Gold.Chemscore.Internal_Hbond>
0.0000

> <Gold.Chemscore.DEClash>
0.0147

> <Gold.Chemscore.DEInternal>
0.0429

> <Gold.Chemscore.Rot>
2.1424

> <Gold.Chemscore.Internal.Correction>
   9.000000E+99

> <Gold.Chemscore.Hbonds>
donor molecule, donor type, donor heavy atom, donor atom, acceptor molecule, acceptor atom, score
      L1  H     6    26       P1  8028  0.93

> <Gold.Chemscore.Hbond.Weighted>
-3.2994

> <Gold.Chemscore.Metal.Weighted>
-0.0000

> <Gold.Chemscore.Lipo.Weighted>
-12.2906

> <Gold.Chemscore.Internal_Hbond.Weighted>
0.0000

> <Gold.Chemscore.DEClash.Weighted>
0.0147

> <Gold.Chemscore.DEInternal.Weighted>
0.0429

> <Gold.Chemscore.Rot.Weighted>
5.4846

> <Gold.Chemscore.Internal.Correction.Weighted>
   9.000000E+99

> <Gold.Protein.RotatedTorsions>
[ 6907 6896 6895 6894 ] final -135.78 input  -60.11 | X-H torsion
[ 7974 7965 7964 7962 ] final   91.81 input  175.53 | X-H torsion
[ 8008 7997 7996 7995 ] final   10.27 input   59.86 | X-H torsion
[ 10167 10162 10161 10158 ] final   25.96 input  -65.29 | X-H torsion
[ 10718 10713 10712 10709 ] final    6.78 input   66.30 | X-H torsion
[ 10763 10752 10751 10750 ] final  -86.68 input  -60.55 | X-H torsion
[ 11005 11000 10999 10996 ] final  157.32 input  -57.11 | X-H torsion

> <Gold.Protein.ActiveResidues>
 VAL166  LYS551  ARG553  GLY616  TRP617  ASP618  TYR619  PRO620  LYS621  CYS622 
 ASP623  PHE694  ASN695  SER759  ASP760  ASP761  ALA762  ILE779  LEU786  VAL792 
 PHE793  MET794  SER795  GLU796  ALA797  LYS798  CYS799  TRP800  GLU811  SER814 

> <Gold.Protein.RotatedAtoms>
  151.0020  133.6047  159.2693 H   0  0  0  0  0  0  0  0  0  0  0  0  # atno 6907 bound_to 6896
  151.3229  135.0822  159.9322 H   0  0  0  0  0  0  0  0  0  0  0  0  # atno 6908 bound_to 6896
  152.5276  133.9664  159.7795 H   0  0  0  0  0  0  0  0  0  0  0  0  # atno 6909 bound_to 6896
  145.5006  139.2276  143.2779 H   0  0  0  0  0  0  0  0  0  0  0  0  # atno 7974 bound_to 7965
  154.7911  140.2836  155.5991 H   0  0  0  0  0  0  0  0  0  0  0  0  # atno 8008 bound_to 7997
  156.2964  140.2604  156.2687 H   0  0  0  0  0  0  0  0  0  0  0  0  # atno 8009 bound_to 7997
  154.9669  140.0376  157.2206 H   0  0  0  0  0  0  0  0  0  0  0  0  # atno 8010 bound_to 7997
  140.5062  144.0234  150.6353 H   0  0  0  0  0  0  0  0  0  0  0  0  # atno 10167 bound_to 10162
  156.9272  130.5813  149.5649 H   0  0  0  0  0  0  0  0  0  0  0  0  # atno 10718 bound_to 10713
  154.6252  135.5440  153.7619 H   0  0  0  0  0  0  0  0  0  0  0  0  # atno 10763 bound_to 10752
  153.0257  135.6422  154.1382 H   0  0  0  0  0  0  0  0  0  0  0  0  # atno 10764 bound_to 10752
  154.1315  135.2914  155.3164 H   0  0  0  0  0  0  0  0  0  0  0  0  # atno 10765 bound_to 10752
  140.1758  134.8510  157.2745 H   0  0  0  0  0  0  0  0  0  0  0  0  # atno 11005 bound_to 11000
  146.2228  140.5807  142.9009 LP  0  0  0  0  0  0  0  0  0  0  0  0  # atno 17320 bound_to 7965
  144.7782  140.5784  143.6623 LP  0  0  0  0  0  0  0  0  0  0  0  0  # atno 17321 bound_to 7965
  140.3544  143.2944  152.0452 LP  0  0  0  0  0  0  0  0  0  0  0  0  # atno 17342 bound_to 10162
  139.4884  144.6350  151.6994 LP  0  0  0  0  0  0  0  0  0  0  0  0  # atno 17343 bound_to 10162
  156.0463  130.5539  150.8889 LP  0  0  0  0  0  0  0  0  0  0  0  0  # atno 17370 bound_to 10713
  157.5870  131.0945  150.9181 LP  0  0  0  0  0  0  0  0  0  0  0  0  # atno 17371 bound_to 10713
  140.2324  134.3893  155.7516 LP  0  0  0  0  0  0  0  0  0  0  0  0  # atno 17394 bound_to 11000
  141.2220  133.7222  156.8661 LP  0  0  0  0  0  0  0  0  0  0  0  0  # atno 17395 bound_to 11000

$$$$
