AV-unprocessed.smi:3331|AV-procd|sdf|12828|dock6
  -GOLD-   2272019203D 1   1.00000     0.00000
 Structure written by MMmdl.
 46 47  0  0  0  0  0  0  0  0  1 V2000
  146.5254  141.5943  157.5876 C   0  0  0  0  0  0  0  0  0  0  0  0
  147.4218  141.0636  156.4603 C   0  0  1  0  0  0  0  0  0  0  0  0
  146.7592  141.2514  155.0759 C   0  0  0  0  0  0  0  0  0  0  0  0
  147.6882  140.8598  153.9043 C   0  0  2  0  0  0  0  0  0  0  0  0
  147.7855  139.3341  153.7257 C   0  0  0  0  0  0  0  0  0  0  0  0
  149.0670  141.5322  154.0832 C   0  0  0  0  0  0  0  0  0  0  0  0
  149.6278  141.1697  155.3929 N   0  0  0  0  0  0  0  0  0  0  0  0
  150.6985  140.3663  155.6205 C   0  0  0  0  0  0  0  0  0  0  0  0
  151.3090  139.8213  154.6984 O   0  0  0  0  0  0  0  0  0  0  0  0
  151.1907  140.1088  157.0650 C   0  0  1  0  0  0  0  0  0  0  0  0
  152.3470  139.0966  157.0502 C   0  0  0  0  0  0  0  0  0  0  0  0
  151.6181  141.3333  157.7677 N   0  0  0  0  0  0  0  0  0  0  0  0
  152.3166  141.0746  159.0223 C   0  0  0  0  0  0  0  0  0  0  0  0
  153.1338  142.3132  159.4154 C   0  0  0  0  0  0  0  0  0  0  0  0
  152.3106  143.5067  159.4488 N   0  0  0  0  0  0  0  0  0  0  0  0
  152.1718  144.4240  160.4692 C   0  0  0  0  0  0  0  0  0  0  0  0
  151.2927  145.3774  160.0412 C   0  0  0  0  0  0  0  0  0  0  0  0
  150.9441  144.9507  158.7293 C   0  0  0  0  0  0  0  0  0  0  0  0
  151.5540  143.8300  158.3780 N   0  0  0  0  0  0  0  0  0  0  0  0
  148.8156  141.7260  156.4838 C   0  0  0  0  0  0  0  0  0  0  0  0
  146.3570  142.6671  157.4894 H   0  0  0  0  0  0  0  0  0  0  0  0
  146.9764  141.4159  158.5641 H   0  0  0  0  0  0  0  0  0  0  0  0
  145.5528  141.1018  157.5796 H   0  0  0  0  0  0  0  0  0  0  0  0
  147.5568  139.9945  156.6302 H   0  0  0  0  0  0  0  0  0  0  0  0
  145.8253  140.6903  155.0226 H   0  0  0  0  0  0  0  0  0  0  0  0
  146.4845  142.3009  154.9598 H   0  0  0  0  0  0  0  0  0  0  0  0
  147.2456  141.2530  152.9883 H   0  0  0  0  0  0  0  0  0  0  0  0
  148.2085  138.8453  154.6032 H   0  0  0  0  0  0  0  0  0  0  0  0
  148.4127  139.0798  152.8713 H   0  0  0  0  0  0  0  0  0  0  0  0
  146.8019  138.8985  153.5495 H   0  0  0  0  0  0  0  0  0  0  0  0
  149.7188  141.3120  153.2405 H   0  0  0  0  0  0  0  0  0  0  0  0
  148.9450  142.6159  154.0497 H   0  0  0  0  0  0  0  0  0  0  0  0
  150.3834  139.6919  157.6633 H   0  0  0  0  0  0  0  0  0  0  0  0
  152.0506  138.1583  156.5800 H   0  0  0  0  0  0  0  0  0  0  0  0
  152.6747  138.8620  158.0635 H   0  0  0  0  0  0  0  0  0  0  0  0
  153.2093  139.4825  156.5044 H   0  0  0  0  0  0  0  0  0  0  0  0
  150.8415  141.9592  157.9272 H   0  0  0  0  0  0  0  0  0  0  0  0
  151.6108  140.8385  159.8190 H   0  0  0  0  0  0  0  0  0  0  0  0
  152.9762  140.2136  158.9048 H   0  0  0  0  0  0  0  0  0  0  0  0
  153.5919  142.1781  160.3967 H   0  0  0  0  0  0  0  0  0  0  0  0
  153.9464  142.4746  158.7053 H   0  0  0  0  0  0  0  0  0  0  0  0
  152.7046  144.3245  161.4034 H   0  0  0  0  0  0  0  0  0  0  0  0
  150.9509  146.2471  160.5824 H   0  0  0  0  0  0  0  0  0  0  0  0
  150.2700  145.4182  158.0268 H   0  0  0  0  0  0  0  0  0  0  0  0
  148.7249  142.8056  156.3543 H   0  0  0  0  0  0  0  0  0  0  0  0
  149.2731  141.5881  157.4645 H   0  0  0  0  0  0  0  0  0  0  0  0
  1  2  1  0  0  0  0
  1 21  1  0  0  0  0
  1 22  1  0  0  0  0
  1 23  1  0  0  0  0
  2 20  1  0  0  0  0
  2  3  1  0  0  0  0
  2 24  1  0  0  0  0
  3  4  1  0  0  0  0
  3 25  1  0  0  0  0
  3 26  1  0  0  0  0
  4  5  1  0  0  0  0
  4  6  1  0  0  0  0
  4 27  1  0  0  0  0
  5 28  1  0  0  0  0
  5 29  1  0  0  0  0
  5 30  1  0  0  0  0
  6  7  1  0  0  0  0
  6 31  1  0  0  0  0
  6 32  1  0  0  0  0
  7  8  1  0  0  0  0
  7 20  1  0  0  0  0
  8  9  2  0  0  0  0
  8 10  1  0  0  0  0
 10 11  1  0  0  0  0
 10 12  1  0  0  0  0
 10 33  1  0  0  0  0
 11 34  1  0  0  0  0
 11 35  1  0  0  0  0
 11 36  1  0  0  0  0
 12 13  1  0  0  0  0
 12 37  1  0  0  0  0
 13 14  1  0  0  0  0
 13 38  1  0  0  0  0
 13 39  1  0  0  0  0
 14 15  1  0  0  0  0
 14 40  1  0  0  0  0
 14 41  1  0  0  0  0
 15 19  1  0  0  0  0
 15 16  1  0  0  0  0
 16 17  2  0  0  0  0
 16 42  1  0  0  0  0
 17 18  1  0  0  0  0
 17 43  1  0  0  0  0
 18 19  2  0  0  0  0
 18 44  1  0  0  0  0
 20 45  1  0  0  0  0
 20 46  1  0  0  0  0
M  END
> <s_m_source_file>
AV-unprocessed.smi

> <i_m_source_file_index>
3331

> <i_lp_mmshare_version>
43012

> <i_f3d_flags>
0

> <s_epik_input>
W0NIM11bQ0BASF0xW0NIMl1bQ0BASF0oW0NIM10pW0NIMl1OKFtDSDJdMSlDKD1PKVtDQEhdKFtDSDNdKVtOSF1bQ0gyXVtDSDJdbjJbY0hdW2NIXVtjSF1uMg==

> <s_epik_cmdline>
J2VwaWtfcHl0aG9uJywgJy1waCcsICc3LjAnLCAnLXRuJywgJzgnLCAnLW1hJywgJzIwMCcsICctbWV0YWxfYmluZGluZycsICctaW1hZScsICc8aW5maWxlLm1hZT4nLCAnLW9tYWUnLCAnPG91dGZpbGUubWFlPic=

> <r_lp_tautomer_probability>
1

> <r_epik_Ionization_Penalty>
0.767994

> <r_epik_Ionization_Penalty_Charging>
0

> <r_epik_Ionization_Penalty_Neutral>
0.767994

> <r_epik_State_Penalty>
0.795453

> <r_epik_Charging_Adjusted_Penalty>
0.795453

> <i_epik_Tot_Q>
0

> <i_epik_Tot_abs_Q>
0

> <r_epik_Metal_State_Penalty>
0.794784

> <b_epik_Metal_Only>
0

> <s_lp_Force_Field>
OPLS_2005

> <r_lp_Energy>
29.1639

> <b_lp_Chiralities_Consistent>
1

> <s_lp_Variant>
AV-unprocessed.smi:3331-12

> <Gold.Version>
5.8.1

> <Gold.Id.Protein>
6NUR|6NUR_protein|mol2

> <Gold.PLP.Fitness>
45.7190

> <Gold.PLP.PLP>
-40.4289

> <Gold.PLP.part.hbond>
-1.0000

> <Gold.PLP.part.metal>
0.0000

> <Gold.PLP.part.buried>
-3.7727

> <Gold.PLP.part.nonpolar>
-35.7830

> <Gold.PLP.part.repulsive>
0.1594

> <Gold.PLP.ligand.clash>
0.0000

> <Gold.PLP.ligand.torsion>
0.2626

> <Gold.PLP.Chemscore.Hbond>
1.0000

> <Gold.PLP.Chemscore.CHOScore>
0.9186

> <Gold.PLP.Chemscore.Metal>
0.0000

> <Gold.Chemscore.Hbonds>
donor molecule, donor type, donor heavy atom, donor atom, acceptor molecule, acceptor atom, score
      P1  H  7989  7998       L1     9  1.00
      L1  C    18    44       P1  8028  0.09
      L1  C    18    44       P1  8029  0.79

> <Gold.PLP.Chemscore.Internal.Correction>
0.0595

> <Gold.Rescore>
     Score         DG    S(hbond)    S(metal)    S(lipo)     H(rot)  DE(clash)    DE(int)     intcor
     13.46     -15.28       0.88        0.00      95.04       1.66       0.09       1.73       ----

> <Gold.Chemscore.Fitness>
13.4624

> <Gold.Chemscore.DG>
-15.2798

> <Gold.Chemscore.ZeroCoef>
-5.4800

> <Gold.Chemscore.Hbond>
0.8809

> <Gold.Chemscore.Metal>
0.0000

> <Gold.Chemscore.Lipo>
95.0395

> <Gold.Chemscore.Internal_Hbond>
0.0000

> <Gold.Chemscore.DEClash>
0.0859

> <Gold.Chemscore.DEInternal>
1.7316

> <Gold.Chemscore.Rot>
1.6649

> <Gold.Chemscore.Internal.Correction>
   9.000000E+99

> <Gold.Chemscore.Hbonds>
donor molecule, donor type, donor heavy atom, donor atom, acceptor molecule, acceptor atom, score
      P1  H  7989  7998       L1     9  0.81

> <Gold.Chemscore.Hbond.Weighted>
-2.9423

> <Gold.Chemscore.Metal.Weighted>
-0.0000

> <Gold.Chemscore.Lipo.Weighted>
-11.1196

> <Gold.Chemscore.Internal_Hbond.Weighted>
0.0000

> <Gold.Chemscore.DEClash.Weighted>
0.0859

> <Gold.Chemscore.DEInternal.Weighted>
1.7316

> <Gold.Chemscore.Rot.Weighted>
4.2621

> <Gold.Chemscore.Internal.Correction.Weighted>
   9.000000E+99

> <Gold.Protein.RotatedTorsions>
[ 6907 6896 6895 6894 ] final -158.77 input  -60.11 | X-H torsion
[ 7974 7965 7964 7962 ] final -132.43 input  175.53 | X-H torsion
[ 8008 7997 7996 7995 ] final  158.82 input   59.86 | X-H torsion
[ 10167 10162 10161 10158 ] final   18.29 input  -65.29 | X-H torsion
[ 10718 10713 10712 10709 ] final   92.51 input   66.30 | X-H torsion
[ 10763 10752 10751 10750 ] final  167.85 input  -60.55 | X-H torsion
[ 11005 11000 10999 10996 ] final   85.40 input  -57.11 | X-H torsion

> <Gold.Protein.ActiveResidues>
 VAL166  LYS551  ARG553  GLY616  TRP617  ASP618  TYR619  PRO620  LYS621  CYS622 
 ASP623  PHE694  ASN695  SER759  ASP760  ASP761  ALA762  ILE779  LEU786  VAL792 
 PHE793  MET794  SER795  GLU796  ALA797  LYS798  CYS799  TRP800  GLU811  SER814 

> <Gold.Protein.RotatedAtoms>
  151.3233  133.4031  159.2656 H   0  0  0  0  0  0  0  0  0  0  0  0  # atno 6907 bound_to 6896
  151.0017  134.9327  159.7968 H   0  0  0  0  0  0  0  0  0  0  0  0  # atno 6908 bound_to 6896
  152.5277  134.3197  159.9196 H   0  0  0  0  0  0  0  0  0  0  0  0  # atno 6909 bound_to 6896
  144.9286  140.7102  143.4920 H   0  0  0  0  0  0  0  0  0  0  0  0  # atno 7974 bound_to 7965
  156.2278  140.1848  156.7318 H   0  0  0  0  0  0  0  0  0  0  0  0  # atno 8008 bound_to 7997
  154.5971  140.0641  156.9346 H   0  0  0  0  0  0  0  0  0  0  0  0  # atno 8009 bound_to 7997
  155.2237  140.3309  155.4314 H   0  0  0  0  0  0  0  0  0  0  0  0  # atno 8010 bound_to 7997
  140.5664  143.9243  150.6680 H   0  0  0  0  0  0  0  0  0  0  0  0  # atno 10167 bound_to 10162
  157.6958  131.0445  150.3892 H   0  0  0  0  0  0  0  0  0  0  0  0  # atno 10718 bound_to 10713
  154.3599  135.2753  155.2325 H   0  0  0  0  0  0  0  0  0  0  0  0  # atno 10763 bound_to 10752
  154.4518  135.5929  153.6200 H   0  0  0  0  0  0  0  0  0  0  0  0  # atno 10764 bound_to 10752
  152.9844  135.6043  154.3819 H   0  0  0  0  0  0  0  0  0  0  0  0  # atno 10765 bound_to 10752
  139.8972  134.8284  156.2577 H   0  0  0  0  0  0  0  0  0  0  0  0  # atno 11005 bound_to 11000
  145.3178  139.1798  143.4604 LP  0  0  0  0  0  0  0  0  0  0  0  0  # atno 17320 bound_to 7965
  146.3237  140.3191  142.8632 LP  0  0  0  0  0  0  0  0  0  0  0  0  # atno 17321 bound_to 7965
  140.2707  143.3458  152.1240 LP  0  0  0  0  0  0  0  0  0  0  0  0  # atno 17342 bound_to 10162
  139.5095  144.6868  151.5866 LP  0  0  0  0  0  0  0  0  0  0  0  0  # atno 17343 bound_to 10162
  156.4297  130.3969  149.6768 LP  0  0  0  0  0  0  0  0  0  0  0  0  # atno 17370 bound_to 10713
  156.3990  130.7665  151.2671 LP  0  0  0  0  0  0  0  0  0  0  0  0  # atno 17371 bound_to 10713
  141.0183  133.7056  156.1225 LP  0  0  0  0  0  0  0  0  0  0  0  0  # atno 17394 bound_to 11000
  140.7270  134.4296  157.5569 LP  0  0  0  0  0  0  0  0  0  0  0  0  # atno 17395 bound_to 11000

$$$$
