AV-unprocessed.smi:797|AV-procd|sdf|3768|dock4
  -GOLD-   22720 1203D 1   1.00000     0.00000
 Structure written by MMmdl.
 34 35  0  0  0  0  0  0  0  0  2 V2000
  147.6444  139.4472  153.6745 C   0  0  0  0  0  0  0  0  0  0  0  0
  149.0640  139.5972  154.1353 C   0  0  0  0  0  0  0  0  0  0  0  0
  150.0344  138.5815  154.3516 C   0  0  0  0  0  0  0  0  0  0  0  0
  151.1376  139.2716  154.7677 C   0  0  0  0  0  0  0  0  0  0  0  0
  152.5107  138.8469  155.1733 C   0  0  0  0  0  0  0  0  0  0  0  0
  152.4677  138.0327  156.8288 S   0  0  0  0  0  0  0  0  0  0  0  0
  151.0452  137.9526  157.1982 O   0  0  0  0  0  0  0  0  0  0  0  0
  153.1971  136.7616  156.6866 O   0  0  0  0  0  0  0  0  0  0  0  0
  153.2692  139.1249  157.7230 N   0  5  0  0  0  0  0  0  0  0  0  0
  152.5310  140.0913  158.5223 C   0  0  0  0  0  0  0  0  0  0  0  0
  151.8315  141.1153  157.5948 C   0  0  0  0  0  0  0  0  0  0  0  0
  151.1308  142.2624  158.3668 C   0  0  0  0  0  0  0  0  0  0  0  0
  152.0899  143.0123  159.3150 C   0  0  0  0  0  0  0  0  0  0  0  0
  152.7875  142.0021  160.2498 C   0  0  0  0  0  0  0  0  0  0  0  0
  153.4850  140.8546  159.4762 C   0  0  0  0  0  0  0  0  0  0  0  0
  150.8726  140.6034  154.7955 O   0  0  0  0  0  0  0  0  0  0  0  0
  149.5483  140.8013  154.3892 N   0  0  0  0  0  0  0  0  0  0  0  0
  147.2769  138.4376  153.8597 H   0  0  0  0  0  0  0  0  0  0  0  0
  147.5586  139.6414  152.6054 H   0  0  0  0  0  0  0  0  0  0  0  0
  146.9822  140.1400  154.1945 H   0  0  0  0  0  0  0  0  0  0  0  0
  149.9372  137.5128  154.2319 H   0  0  0  0  0  0  0  0  0  0  0  0
  152.9483  138.1595  154.4499 H   0  0  0  0  0  0  0  0  0  0  0  0
  153.1648  139.7153  155.2464 H   0  0  0  0  0  0  0  0  0  0  0  0
  151.7592  139.6074  159.1222 H   0  0  0  0  0  0  0  0  0  0  0  0
  152.5645  141.5516  156.9143 H   0  0  0  0  0  0  0  0  0  0  0  0
  151.1010  140.6044  156.9666 H   0  0  0  0  0  0  0  0  0  0  0  0
  150.7015  142.9683  157.6552 H   0  0  0  0  0  0  0  0  0  0  0  0
  150.2880  141.8695  158.9394 H   0  0  0  0  0  0  0  0  0  0  0  0
  152.8381  143.5495  158.7311 H   0  0  0  0  0  0  0  0  0  0  0  0
  151.5474  143.7583  159.8963 H   0  0  0  0  0  0  0  0  0  0  0  0
  153.5232  142.5243  160.8621 H   0  0  0  0  0  0  0  0  0  0  0  0
  152.0574  141.5913  160.9501 H   0  0  0  0  0  0  0  0  0  0  0  0
  153.9299  140.1639  160.1926 H   0  0  0  0  0  0  0  0  0  0  0  0
  154.3148  141.2722  158.9039 H   0  0  0  0  0  0  0  0  0  0  0  0
  1  2  1  0  0  0  0
  1 18  1  0  0  0  0
  1 19  1  0  0  0  0
  1 20  1  0  0  0  0
  2 17  2  0  0  0  0
  2  3  1  0  0  0  0
  3  4  2  0  0  0  0
  3 21  1  0  0  0  0
  4  5  1  0  0  0  0
  4 16  1  0  0  0  0
  5  6  1  0  0  0  0
  5 22  1  0  0  0  0
  5 23  1  0  0  0  0
  6  7  2  0  0  0  0
  6  8  2  0  0  0  0
  6  9  1  0  0  0  0
  9 10  1  0  0  0  0
 10 15  1  0  0  0  0
 10 11  1  0  0  0  0
 10 24  1  0  0  0  0
 11 12  1  0  0  0  0
 11 25  1  0  0  0  0
 11 26  1  0  0  0  0
 12 13  1  0  0  0  0
 12 27  1  0  0  0  0
 12 28  1  0  0  0  0
 13 14  1  0  0  0  0
 13 29  1  0  0  0  0
 13 30  1  0  0  0  0
 14 15  1  0  0  0  0
 14 31  1  0  0  0  0
 14 32  1  0  0  0  0
 15 33  1  0  0  0  0
 15 34  1  0  0  0  0
 16 17  1  0  0  0  0
M  CHG  1   9  -1
M  END
> <s_m_source_file>
AV-unprocessed.smi

> <i_m_source_file_index>
797

> <i_lp_mmshare_version>
43012

> <i_f3d_flags>
0

> <s_epik_input>
W0NIM11jMVtjSF1jKG9uMSlbQ0gyXVMoPU8pKD1PKVtOSF1bQ0hdMltDSDJdW0NIMl1bQ0gyXVtDSDJdW0NIMl0y

> <s_epik_cmdline>
J2VwaWtfcHl0aG9uJywgJy1waCcsICc3LjAnLCAnLXRuJywgJzgnLCAnLW1hJywgJzIwMCcsICctbWV0YWxfYmluZGluZycsICctaW1hZScsICc8aW5maWxlLm1hZT4nLCAnLW9tYWUnLCAnPG91dGZpbGUubWFlPic=

> <r_lp_tautomer_probability>
1

> <r_epik_Ionization_Penalty>
5.48284

> <r_epik_Ionization_Penalty_Charging>
5.48284

> <r_epik_Ionization_Penalty_Neutral>
9.17401e-10

> <r_epik_State_Penalty>
5.48278

> <r_epik_Charging_Adjusted_Penalty>
10.9656

> <i_epik_Tot_Q>
-1

> <i_epik_Tot_abs_Q>
1

> <r_epik_Metal_State_Penalty>
1.49378

> <b_epik_Metal_Only>
1

> <s_lp_Force_Field>
OPLS_2005

> <r_lp_Energy>
6.0802

> <b_lp_Chiralities_Consistent>
1

> <s_lp_Variant>
AV-unprocessed.smi:797-2

> <Gold.Version>
5.8.1

> <Gold.Id.Protein>
6NUR|6NUR_protein|mol2

> <Gold.PLP.Fitness>
43.4975

> <Gold.PLP.PLP>
-32.2777

> <Gold.PLP.part.hbond>
-3.8875

> <Gold.PLP.part.metal>
0.0000

> <Gold.PLP.part.buried>
-2.5438

> <Gold.PLP.part.nonpolar>
-26.1918

> <Gold.PLP.part.repulsive>
0.2046

> <Gold.PLP.ligand.clash>
0.0000

> <Gold.PLP.ligand.torsion>
0.8112

> <Gold.PLP.Chemscore.Hbond>
3.9500

> <Gold.PLP.Chemscore.CHOScore>
0.0000

> <Gold.PLP.Chemscore.Metal>
0.0000

> <Gold.Chemscore.Hbonds>
donor molecule, donor type, donor heavy atom, donor atom, acceptor molecule, acceptor atom, score
      P1  H  7989  7998       L1    16  0.68
      P1  H  7997  8010       L1     9  2.00
      P1  H 10752 10765       L1     8  0.93

> <Gold.PLP.Chemscore.Internal.Correction>
0.9922

> <Gold.Rescore>
     Score         DG    S(hbond)    S(metal)    S(lipo)     H(rot)  DE(clash)    DE(int)     intcor
     17.66     -18.43       2.13        0.00      79.50       1.35       0.00       0.77       ----

> <Gold.Chemscore.Fitness>
17.6571

> <Gold.Chemscore.DG>
-18.4304

> <Gold.Chemscore.ZeroCoef>
-5.4800

> <Gold.Chemscore.Hbond>
2.1308

> <Gold.Chemscore.Metal>
0.0000

> <Gold.Chemscore.Lipo>
79.4980

> <Gold.Chemscore.Internal_Hbond>
0.0000

> <Gold.Chemscore.DEClash>
0.0000

> <Gold.Chemscore.DEInternal>
0.7732

> <Gold.Chemscore.Rot>
1.3546

> <Gold.Chemscore.Internal.Correction>
   9.000000E+99

> <Gold.Chemscore.Hbonds>
donor molecule, donor type, donor heavy atom, donor atom, acceptor molecule, acceptor atom, score
      P1  H  7989  7998       L1    16  0.02
      P1  H  7997  8010       L1     9  0.47
      P1  H 10752 10765       L1     8  0.88

> <Gold.Chemscore.Hbond.Weighted>
-7.1170

> <Gold.Chemscore.Metal.Weighted>
-0.0000

> <Gold.Chemscore.Lipo.Weighted>
-9.3013

> <Gold.Chemscore.Internal_Hbond.Weighted>
0.0000

> <Gold.Chemscore.DEClash.Weighted>
0.0000

> <Gold.Chemscore.DEInternal.Weighted>
0.7732

> <Gold.Chemscore.Rot.Weighted>
3.4679

> <Gold.Chemscore.Internal.Correction.Weighted>
   9.000000E+99

> <Gold.Protein.RotatedTorsions>
[ 6907 6896 6895 6894 ] final   55.99 input  -60.11 | X-H torsion
[ 7974 7965 7964 7962 ] final   75.01 input  175.53 | X-H torsion
[ 8008 7997 7996 7995 ] final   56.75 input   59.86 | X-H torsion
[ 10167 10162 10161 10158 ] final   -8.86 input  -65.29 | X-H torsion
[ 10718 10713 10712 10709 ] final  137.08 input   66.30 | X-H torsion
[ 10763 10752 10751 10750 ] final -116.79 input  -60.55 | X-H torsion
[ 11005 11000 10999 10996 ] final   92.62 input  -57.11 | X-H torsion

> <Gold.Protein.ActiveResidues>
 VAL166  LYS551  ARG553  GLY616  TRP617  ASP618  TYR619  PRO620  LYS621  CYS622 
 ASP623  PHE694  ASN695  SER759  ASP760  ASP761  ALA762  ILE779  LEU786  VAL792 
 PHE793  MET794  SER795  GLU796  ALA797  LYS798  CYS799  TRP800  GLU811  SER814 

> <Gold.Protein.RotatedAtoms>
  152.3593  134.6895  160.0211 H   0  0  0  0  0  0  0  0  0  0  0  0  # atno 6907 bound_to 6896
  151.7224  133.3309  159.3327 H   0  0  0  0  0  0  0  0  0  0  0  0  # atno 6908 bound_to 6896
  150.7593  134.6370  159.6261 H   0  0  0  0  0  0  0  0  0  0  0  0  # atno 6909 bound_to 6896
  145.7209  139.2648  143.1596 H   0  0  0  0  0  0  0  0  0  0  0  0  # atno 7974 bound_to 7965
  155.5225  140.3480  155.4410 H   0  0  0  0  0  0  0  0  0  0  0  0  # atno 8008 bound_to 7997
  156.0774  140.1378  156.9781 H   0  0  0  0  0  0  0  0  0  0  0  0  # atno 8009 bound_to 7997
  154.4561  140.0953  156.6736 H   0  0  0  0  0  0  0  0  0  0  0  0  # atno 8010 bound_to 7997
  140.7071  143.5922  150.8882 H   0  0  0  0  0  0  0  0  0  0  0  0  # atno 10167 bound_to 10162
  157.4399  131.1056  151.0155 H   0  0  0  0  0  0  0  0  0  0  0  0  # atno 10718 bound_to 10713
  154.8532  135.4333  154.1877 H   0  0  0  0  0  0  0  0  0  0  0  0  # atno 10763 bound_to 10752
  153.2953  135.6964  153.7260 H   0  0  0  0  0  0  0  0  0  0  0  0  # atno 10764 bound_to 10752
  153.6411  135.3468  155.3046 H   0  0  0  0  0  0  0  0  0  0  0  0  # atno 10765 bound_to 10752
  139.8821  134.8743  156.3599 H   0  0  0  0  0  0  0  0  0  0  0  0  # atno 11005 bound_to 11000
  146.0626  140.7954  142.9727 LP  0  0  0  0  0  0  0  0  0  0  0  0  # atno 17320 bound_to 7965
  144.6917  140.3220  143.7230 LP  0  0  0  0  0  0  0  0  0  0  0  0  # atno 17321 bound_to 7965
  139.9647  143.6124  152.2992 LP  0  0  0  0  0  0  0  0  0  0  0  0  # atno 17342 bound_to 10162
  139.6689  144.7661  151.1820 LP  0  0  0  0  0  0  0  0  0  0  0  0  # atno 17343 bound_to 10162
  157.1022  130.5986  149.5463 LP  0  0  0  0  0  0  0  0  0  0  0  0  # atno 17370 bound_to 10713
  155.9945  130.5009  150.7421 LP  0  0  0  0  0  0  0  0  0  0  0  0  # atno 17371 bound_to 10713
  140.9537  133.7434  156.0306 LP  0  0  0  0  0  0  0  0  0  0  0  0  # atno 17394 bound_to 11000
  140.8075  134.3438  157.5422 LP  0  0  0  0  0  0  0  0  0  0  0  0  # atno 17395 bound_to 11000

$$$$
