AV-unprocessed.smi:278|AV-procd|sdf|2091|dock1
  -GOLD-   2262021373D 1   1.00000     0.00000
 Structure written by MMmdl.
 50 54  0  0  0  0  0  0  0  0  1 V2000
  150.0493  131.5678  158.0181 O   0  0  0  0  0  0  0  0  0  0  0  0
  150.5950  132.5308  157.0497 S   0  0  0  0  0  0  0  0  0  0  0  0
  151.7217  133.4045  157.4127 O   0  0  0  0  0  0  0  0  0  0  0  0
  151.0020  131.6468  155.4940 C   0  0  0  0  0  0  0  0  0  0  0  0
  149.8715  131.9679  154.5074 C   0  0  0  0  0  0  0  0  0  0  0  0
  149.2853  133.3513  154.8431 C   0  0  2  0  0  0  0  0  0  0  0  0
  150.1694  134.5252  154.4086 C   0  0  0  0  0  0  0  0  0  0  0  0
  149.8768  135.5910  155.3566 N   0  0  0  0  0  0  0  0  0  0  0  0
  150.5845  136.7507  155.3546 C   0  0  0  0  0  0  0  0  0  0  0  0
  151.4829  136.9673  154.3568 N   0  0  0  0  0  0  0  0  0  0  0  0
  152.1976  138.0954  154.3179 C   0  0  0  0  0  0  0  0  0  0  0  0
  152.1684  139.1304  155.1586 N   0  0  0  0  0  0  0  0  0  0  0  0
  151.2604  138.9292  156.1552 C   0  0  0  0  0  0  0  0  0  0  0  0
  150.4342  137.7813  156.3293 C   0  0  0  0  0  0  0  0  0  0  0  0
  149.6326  137.9517  157.4540 N   0  0  0  0  0  0  0  0  0  0  0  0
  149.9713  139.1226  157.9197 C   0  0  0  0  0  0  0  0  0  0  0  0
  150.9407  139.7792  157.1981 N   0  0  0  0  0  0  0  0  0  0  0  0
  151.5009  141.0881  157.4820 C   0  0  0  0  0  0  0  0  0  0  0  0
  150.4754  142.2205  157.2850 C   0  0  2  0  0  0  0  0  0  0  0  0
  150.4071  142.5988  155.9228 O   0  0  0  0  0  0  0  0  0  0  0  0
  150.7606  143.4450  158.1786 C   0  0  2  0  0  0  0  0  0  0  0  0
  152.1717  144.0346  158.1017 C   0  0  0  0  0  0  0  0  0  0  0  0
  152.2591  144.7575  159.4274 C   0  0  0  0  0  0  0  0  0  0  0  0
  151.5224  143.7951  160.3557 C   0  0  0  0  0  0  0  0  0  0  0  0
  150.5198  143.1715  159.5571 O   0  0  0  0  0  0  0  0  0  0  0  0
  149.3630  135.0350  156.6017 C   0  0  0  0  0  0  0  0  0  0  0  0
  149.2051  133.5267  156.3605 C   0  0  2  0  0  0  0  0  0  0  0  0
  148.2948  133.4718  154.4020 H   0  0  0  0  0  0  0  0  0  0  0  0
  148.2736  133.1359  156.7708 H   0  0  0  0  0  0  0  0  0  0  0  0
  151.9550  132.0308  155.1295 H   0  0  0  0  0  0  0  0  0  0  0  0
  151.1098  130.5789  155.6841 H   0  0  0  0  0  0  0  0  0  0  0  0
  150.2092  131.9073  153.4723 H   0  0  0  0  0  0  0  0  0  0  0  0
  149.0847  131.2221  154.6265 H   0  0  0  0  0  0  0  0  0  0  0  0
  151.2273  134.2667  154.4715 H   0  0  0  0  0  0  0  0  0  0  0  0
  149.9527  134.8305  153.3843 H   0  0  0  0  0  0  0  0  0  0  0  0
  152.8909  138.1811  153.4943 H   0  0  0  0  0  0  0  0  0  0  0  0
  149.5217  139.5419  158.8081 H   0  0  0  0  0  0  0  0  0  0  0  0
  151.8686  141.0867  158.5087 H   0  0  0  0  0  0  0  0  0  0  0  0
  152.3697  141.2396  156.8399 H   0  0  0  0  0  0  0  0  0  0  0  0
  149.4879  141.8401  157.5493 H   0  0  0  0  0  0  0  0  0  0  0  0
  149.9327  143.4137  155.8619 H   0  0  0  0  0  0  0  0  0  0  0  0
  150.0578  144.2347  157.9074 H   0  0  0  0  0  0  0  0  0  0  0  0
  152.9340  143.2560  158.0610 H   0  0  0  0  0  0  0  0  0  0  0  0
  152.3112  144.6938  157.2443 H   0  0  0  0  0  0  0  0  0  0  0  0
  153.2837  144.9556  159.7436 H   0  0  0  0  0  0  0  0  0  0  0  0
  151.7271  145.7084  159.3723 H   0  0  0  0  0  0  0  0  0  0  0  0
  152.2026  143.0233  160.7186 H   0  0  0  0  0  0  0  0  0  0  0  0
  151.0895  144.2983  161.2208 H   0  0  0  0  0  0  0  0  0  0  0  0
  150.0112  135.2486  157.4519 H   0  0  0  0  0  0  0  0  0  0  0  0
  148.3905  135.4840  156.8048 H   0  0  0  0  0  0  0  0  0  0  0  0
  1  2  2  0  0  0  0
  2 27  1  0  0  0  0
  2  3  2  0  0  0  0
  2  4  1  0  0  0  0
  4  5  1  0  0  0  0
  4 30  1  0  0  0  0
  4 31  1  0  0  0  0
  5  6  1  0  0  0  0
  5 32  1  0  0  0  0
  5 33  1  0  0  0  0
  6 28  1  0  0  0  0
  6 27  1  0  0  0  0
  6  7  1  0  0  0  0
  7  8  1  0  0  0  0
  7 34  1  0  0  0  0
  7 35  1  0  0  0  0
  8  9  1  0  0  0  0
  8 26  1  0  0  0  0
  9 14  1  0  0  0  0
  9 10  2  0  0  0  0
 10 11  1  0  0  0  0
 11 12  2  0  0  0  0
 11 36  1  0  0  0  0
 12 13  1  0  0  0  0
 13 17  1  0  0  0  0
 13 14  2  0  0  0  0
 14 15  1  0  0  0  0
 15 16  2  0  0  0  0
 16 17  1  0  0  0  0
 16 37  1  0  0  0  0
 17 18  1  0  0  0  0
 18 19  1  0  0  0  0
 18 38  1  0  0  0  0
 18 39  1  0  0  0  0
 19 20  1  0  0  0  0
 19 21  1  0  0  0  0
 19 40  1  0  0  0  0
 20 41  1  0  0  0  0
 21 25  1  0  0  0  0
 21 22  1  0  0  0  0
 21 42  1  0  0  0  0
 22 23  1  0  0  0  0
 22 43  1  0  0  0  0
 22 44  1  0  0  0  0
 23 24  1  0  0  0  0
 23 45  1  0  0  0  0
 23 46  1  0  0  0  0
 24 25  1  0  0  0  0
 24 47  1  0  0  0  0
 24 48  1  0  0  0  0
 26 27  1  0  0  0  0
 26 49  1  0  0  0  0
 26 50  1  0  0  0  0
 27 29  1  0  0  0  0
M  END
> <s_m_source_file>
AV-unprocessed.smi

> <i_m_source_file_index>
278

> <i_lp_mmshare_version>
43012

> <i_f3d_flags>
0

> <s_epik_input>
W0NIMl0xW0NIMl1TKD1PKSg9TylbQ0BASF0oW0NAQEhdMTIpW0NIMl1OKFtDSDJdMiljKG5bY0hdbjMpYyhjMzQpbltjSF1uNFtDSDJdW0NASF0oW09IXSlbQ0BASF01W0NIMl1bQ0gyXVtDSDJdTzU=

> <s_epik_cmdline>
J2VwaWtfcHl0aG9uJywgJy1waCcsICc3LjAnLCAnLXRuJywgJzgnLCAnLW1hJywgJzIwMCcsICctbWV0YWxfYmluZGluZycsICctaW1hZScsICc8aW5maWxlLm1hZT4nLCAnLW9tYWUnLCAnPG91dGZpbGUubWFlPic=

> <r_lp_tautomer_probability>
1

> <r_epik_Ionization_Penalty>
0.000636766

> <r_epik_Ionization_Penalty_Charging>
0

> <r_epik_Ionization_Penalty_Neutral>
0.000636766

> <r_epik_State_Penalty>
0.000329976

> <r_epik_Charging_Adjusted_Penalty>
0.000329976

> <i_epik_Tot_Q>
0

> <i_epik_Tot_abs_Q>
0

> <r_epik_Metal_State_Penalty>
-0

> <b_epik_Metal_Only>
0

> <s_lp_Force_Field>
OPLS_2005

> <r_lp_Energy>
50.4142

> <b_lp_Chiralities_Consistent>
1

> <s_lp_Variant>
AV-unprocessed.smi:278-5

> <Gold.Version>
5.8.1

> <Gold.Id.Protein>
6NUR|6NUR_protein|mol2

> <Gold.PLP.Fitness>
49.8826

> <Gold.PLP.PLP>
-42.9897

> <Gold.PLP.part.hbond>
-4.6595

> <Gold.PLP.part.metal>
0.0000

> <Gold.PLP.part.buried>
-7.1491

> <Gold.PLP.part.nonpolar>
-31.7641

> <Gold.PLP.part.repulsive>
0.9462

> <Gold.PLP.ligand.clash>
0.0000

> <Gold.PLP.ligand.torsion>
0.6346

> <Gold.PLP.Chemscore.Hbond>
2.5858

> <Gold.PLP.Chemscore.CHOScore>
0.0000

> <Gold.PLP.Chemscore.Metal>
0.0000

> <Gold.Chemscore.Hbonds>
donor molecule, donor type, donor heavy atom, donor atom, acceptor molecule, acceptor atom, score
      L1  H    20    41       P1  8028  1.00
      P1  H  6896  6909       L1     3  0.35
      P1  H 10752 10764       L1    10  0.90

> <Gold.PLP.Chemscore.Internal.Correction>
0.4046

> <Gold.Rescore>
     Score         DG    S(hbond)    S(metal)    S(lipo)     H(rot)  DE(clash)    DE(int)     intcor
     18.14     -19.81       2.62        0.00      94.35       2.13       0.22       1.45       ----

> <Gold.Chemscore.Fitness>
18.1377

> <Gold.Chemscore.DG>
-19.8116

> <Gold.Chemscore.ZeroCoef>
-5.4800

> <Gold.Chemscore.Hbond>
2.6221

> <Gold.Chemscore.Metal>
0.0000

> <Gold.Chemscore.Lipo>
94.3462

> <Gold.Chemscore.Internal_Hbond>
0.0000

> <Gold.Chemscore.DEClash>
0.2192

> <Gold.Chemscore.DEInternal>
1.4547

> <Gold.Chemscore.Rot>
2.1346

> <Gold.Chemscore.Internal.Correction>
   9.000000E+99

> <Gold.Chemscore.Hbonds>
donor molecule, donor type, donor heavy atom, donor atom, acceptor molecule, acceptor atom, score
      L1  H    20    41       P1  8028  1.00
      P1  H  6896  6909       L1     3  0.25
      P1  H  7989  7998       L1    12  0.01
      P1  H 10752 10764       L1    10  0.17

> <Gold.Chemscore.Hbond.Weighted>
-8.7577

> <Gold.Chemscore.Metal.Weighted>
-0.0000

> <Gold.Chemscore.Lipo.Weighted>
-11.0385

> <Gold.Chemscore.Internal_Hbond.Weighted>
0.0000

> <Gold.Chemscore.DEClash.Weighted>
0.2192

> <Gold.Chemscore.DEInternal.Weighted>
1.4547

> <Gold.Chemscore.Rot.Weighted>
5.4646

> <Gold.Chemscore.Internal.Correction.Weighted>
   9.000000E+99

> <Gold.Protein.RotatedTorsions>
[ 6907 6896 6895 6894 ] final  -82.11 input  -60.11 | X-H torsion
[ 7974 7965 7964 7962 ] final  -23.58 input  175.53 | X-H torsion
[ 8008 7997 7996 7995 ] final -159.49 input   59.86 | X-H torsion
[ 10167 10162 10161 10158 ] final   -8.08 input  -65.29 | X-H torsion
[ 10718 10713 10712 10709 ] final   -1.80 input   66.30 | X-H torsion
[ 10763 10752 10751 10750 ] final  -85.72 input  -60.55 | X-H torsion
[ 11005 11000 10999 10996 ] final  -83.09 input  -57.11 | X-H torsion

> <Gold.Protein.ActiveResidues>
 VAL166  LYS551  ARG553  GLY616  TRP617  ASP618  TYR619  PRO620  LYS621  CYS622 
 ASP623  PHE694  ASN695  SER759  ASP760  ASP761  ALA762  ILE779  LEU786  VAL792 
 PHE793  MET794  SER795  GLU796  ALA797  LYS798  CYS799  TRP800  GLU811  SER814 

> <Gold.Protein.RotatedAtoms>
  150.6902  134.3714  159.4993 H   0  0  0  0  0  0  0  0  0  0  0  0  # atno 6907 bound_to 6896
  152.1530  134.8971  160.0556 H   0  0  0  0  0  0  0  0  0  0  0  0  # atno 6908 bound_to 6896
  152.0061  133.3809  159.4238 H   0  0  0  0  0  0  0  0  0  0  0  0  # atno 6909 bound_to 6896
  146.1607  140.4635  142.8572 H   0  0  0  0  0  0  0  0  0  0  0  0  # atno 7974 bound_to 7965
  155.7633  140.0842  157.2144 H   0  0  0  0  0  0  0  0  0  0  0  0  # atno 8008 bound_to 7997
  154.4002  140.1539  156.2914 H   0  0  0  0  0  0  0  0  0  0  0  0  # atno 8009 bound_to 7997
  155.8818  140.3420  155.5896 H   0  0  0  0  0  0  0  0  0  0  0  0  # atno 8010 bound_to 7997
  140.7048  143.6009  150.8799 H   0  0  0  0  0  0  0  0  0  0  0  0  # atno 10167 bound_to 10162
  156.8002  130.5390  149.5723 H   0  0  0  0  0  0  0  0  0  0  0  0  # atno 10718 bound_to 10713
  154.6143  135.5475  153.7506 H   0  0  0  0  0  0  0  0  0  0  0  0  # atno 10763 bound_to 10752
  153.0209  135.6397  154.1533 H   0  0  0  0  0  0  0  0  0  0  0  0  # atno 10764 bound_to 10752
  154.1470  135.2905  155.3125 H   0  0  0  0  0  0  0  0  0  0  0  0  # atno 10765 bound_to 10752
  141.1660  133.7277  156.8668 H   0  0  0  0  0  0  0  0  0  0  0  0  # atno 11005 bound_to 11000
  144.8024  140.6237  143.6469 LP  0  0  0  0  0  0  0  0  0  0  0  0  # atno 17320 bound_to 7965
  145.4594  139.1514  143.3874 LP  0  0  0  0  0  0  0  0  0  0  0  0  # atno 17321 bound_to 7965
  139.9733  143.6032  152.2966 LP  0  0  0  0  0  0  0  0  0  0  0  0  # atno 17342 bound_to 10162
  139.6627  144.7662  151.1932 LP  0  0  0  0  0  0  0  0  0  0  0  0  # atno 17343 bound_to 10162
  156.1106  130.6037  151.0041 LP  0  0  0  0  0  0  0  0  0  0  0  0  # atno 17370 bound_to 10713
  157.6557  131.0889  150.7951 LP  0  0  0  0  0  0  0  0  0  0  0  0  # atno 17371 bound_to 10713
  140.1810  134.9033  157.2948 LP  0  0  0  0  0  0  0  0  0  0  0  0  # atno 17394 bound_to 11000
  140.2395  134.3812  155.7486 LP  0  0  0  0  0  0  0  0  0  0  0  0  # atno 17395 bound_to 11000

$$$$
