AV-unprocessed.smi:1763|AV-procd|sdf|7130|dock3
  -GOLD-   22720 8363D 1   1.00000     0.00000
 Structure written by MMmdl.
 42 43  0  0  0  0  0  0  0  0  3 V2000
  143.4417  137.1799  152.5978 C   0  0  0  0  0  0  0  0  0  0  0  0
  144.3629  136.5381  153.5284 N   0  5  0  0  0  0  0  0  0  0  0  0
  145.7170  136.6584  153.4478 C   0  0  0  0  0  0  0  0  0  0  0  0
  146.6177  135.9831  153.9556 O   0  0  0  0  0  0  0  0  0  0  0  0
  146.1121  137.8513  152.5686 C   0  0  0  0  0  0  0  0  0  0  0  0
  146.7687  138.9073  153.3811 N   0  3  2  0  0  0  0  0  0  0  0  0
  147.0813  140.1233  152.5899 C   0  0  0  0  0  0  0  0  0  0  0  0
  147.6082  141.2508  153.4934 C   0  0  0  0  0  0  0  0  0  0  0  0
  148.8403  140.7939  154.2911 C   0  0  1  0  0  0  0  0  0  0  0  0
  149.2632  141.8529  155.2030 N   0  0  0  0  0  0  0  0  0  0  0  0
  150.1554  141.7071  156.1937 C   0  0  0  0  0  0  0  0  0  0  0  0
  150.7329  140.6463  156.4345 O   0  0  0  0  0  0  0  0  0  0  0  0
  150.3209  142.8558  156.8732 N   0  0  0  0  0  0  0  0  0  0  0  0
  151.1585  143.0992  157.9945 C   0  0  0  0  0  0  0  0  0  0  0  0
  151.5281  141.9482  158.7265 C   0  0  0  0  0  0  0  0  0  0  0  0
  152.3603  142.0824  159.8548 C   0  0  0  0  0  0  0  0  0  0  0  0
  152.8007  143.3661  160.2234 C   0  0  0  0  0  0  0  0  0  0  0  0
  152.3853  144.4596  159.4413 C   0  0  0  0  0  0  0  0  0  0  0  0
  151.5888  144.3330  158.3591 N   0  0  0  0  0  0  0  0  0  0  0  0
  148.5041  139.5080  155.0684 C   0  0  0  0  0  0  0  0  0  0  0  0
  147.9556  138.4190  154.1321 C   0  0  0  0  0  0  0  0  0  0  0  0
  142.4017  136.9946  152.8656 H   0  0  0  0  0  0  0  0  0  0  0  0
  143.5660  136.8178  151.5768 H   0  0  0  0  0  0  0  0  0  0  0  0
  143.5652  138.2628  152.5670 H   0  0  0  0  0  0  0  0  0  0  0  0
  146.7671  137.5342  151.7554 H   0  0  0  0  0  0  0  0  0  0  0  0
  145.2040  138.2378  152.1025 H   0  0  0  0  0  0  0  0  0  0  0  0
  147.8154  139.8796  151.8201 H   0  0  0  0  0  0  0  0  0  0  0  0
  146.1834  140.4685  152.0761 H   0  0  0  0  0  0  0  0  0  0  0  0
  147.8561  142.1227  152.8868 H   0  0  0  0  0  0  0  0  0  0  0  0
  146.8171  141.5638  154.1768 H   0  0  0  0  0  0  0  0  0  0  0  0
  149.6454  140.5835  153.5841 H   0  0  0  0  0  0  0  0  0  0  0  0
  148.8363  142.7592  155.0772 H   0  0  0  0  0  0  0  0  0  0  0  0
  149.7761  143.6455  156.5602 H   0  0  0  0  0  0  0  0  0  0  0  0
  151.1812  140.9690  158.4295 H   0  0  0  0  0  0  0  0  0  0  0  0
  152.6551  141.2149  160.4265 H   0  0  0  0  0  0  0  0  0  0  0  0
  153.4397  143.5093  161.0822 H   0  0  0  0  0  0  0  0  0  0  0  0
  152.7014  145.4620  159.6896 H   0  0  0  0  0  0  0  0  0  0  0  0
  149.3908  139.1353  155.5828 H   0  0  0  0  0  0  0  0  0  0  0  0
  147.7658  139.7236  155.8422 H   0  0  0  0  0  0  0  0  0  0  0  0
  147.6924  137.5414  154.7233 H   0  0  0  0  0  0  0  0  0  0  0  0
  148.7287  138.1050  153.4290 H   0  0  0  0  0  0  0  0  0  0  0  0
  146.0769  139.1812  154.0652 H   0  0  0  0  0  0  0  0  0  0  0  0
  1  2  1  0  0  0  0
  1 22  1  0  0  0  0
  1 23  1  0  0  0  0
  1 24  1  0  0  0  0
  2  3  1  0  0  0  0
  3  4  2  0  0  0  0
  3  5  1  0  0  0  0
  5  6  1  0  0  0  0
  5 25  1  0  0  0  0
  5 26  1  0  0  0  0
  6 21  1  0  0  0  0
  6  7  1  0  0  0  0
  6 42  1  0  0  0  0
  7  8  1  0  0  0  0
  7 27  1  0  0  0  0
  7 28  1  0  0  0  0
  8  9  1  0  0  0  0
  8 29  1  0  0  0  0
  8 30  1  0  0  0  0
  9 10  1  0  0  0  0
  9 20  1  0  0  0  0
  9 31  1  0  0  0  0
 10 11  1  0  0  0  0
 10 32  1  0  0  0  0
 11 12  2  0  0  0  0
 11 13  1  0  0  0  0
 13 14  1  0  0  0  0
 13 33  1  0  0  0  0
 14 19  1  0  0  0  0
 14 15  2  0  0  0  0
 15 16  1  0  0  0  0
 15 34  1  0  0  0  0
 16 17  2  0  0  0  0
 16 35  1  0  0  0  0
 17 18  1  0  0  0  0
 17 36  1  0  0  0  0
 18 19  2  0  0  0  0
 18 37  1  0  0  0  0
 20 21  1  0  0  0  0
 20 38  1  0  0  0  0
 20 39  1  0  0  0  0
 21 40  1  0  0  0  0
 21 41  1  0  0  0  0
M  CHG  1   2  -1
M  CHG  1   6   1
M  END
> <s_m_source_file>
AV-unprocessed.smi

> <i_m_source_file_index>
1763

> <i_lp_mmshare_version>
43012

> <i_f3d_flags>
0

> <s_epik_input>
W0NIM11bTkhdQyg9TylbQ0gyXU4xW0NIMl1bQ0gyXVtDSF0oW0NIMl1bQ0gyXTEpW05IXUMoPU8pW05IXWMyW2NIXVtjSF1bY0hdW2NIXW4y

> <s_epik_cmdline>
J2VwaWtfcHl0aG9uJywgJy1waCcsICc3LjAnLCAnLXRuJywgJzgnLCAnLW1hJywgJzIwMCcsICctbWV0YWxfYmluZGluZycsICctaW1hZScsICc8aW5maWxlLm1hZT4nLCAnLW9tYWUnLCAnPG91dGZpbGUubWFlPic=

> <r_epik_Ionization_Penalty>
6.1395

> <r_epik_Ionization_Penalty_Charging>
6.13946

> <r_epik_Ionization_Penalty_Neutral>
3.77655e-05

> <r_epik_State_Penalty>
6.9595

> <r_epik_Charging_Adjusted_Penalty>
13.099

> <i_epik_Tot_Q>
0

> <i_epik_Tot_abs_Q>
2

> <r_epik_Metal_State_Penalty>
2.8914

> <b_epik_Metal_Only>
1

> <s_lp_Force_Field>
OPLS_2005

> <r_lp_Energy>
11.9175

> <b_lp_Chiralities_Consistent>
1

> <s_lp_Variant>
AV-unprocessed.smi:1763-4

> <Gold.Version>
5.8.1

> <Gold.Id.Protein>
6NUR|6NUR_protein|mol2

> <Gold.PLP.Fitness>
40.9360

> <Gold.PLP.PLP>
-35.8406

> <Gold.PLP.part.hbond>
-2.0000

> <Gold.PLP.part.metal>
0.0000

> <Gold.PLP.part.buried>
-4.3902

> <Gold.PLP.part.nonpolar>
-30.9645

> <Gold.PLP.part.repulsive>
0.9776

> <Gold.PLP.ligand.clash>
0.0000

> <Gold.PLP.ligand.torsion>
0.3588

> <Gold.PLP.Chemscore.Hbond>
1.9120

> <Gold.PLP.Chemscore.CHOScore>
0.0000

> <Gold.PLP.Chemscore.Metal>
0.0000

> <Gold.Chemscore.Hbonds>
donor molecule, donor type, donor heavy atom, donor atom, acceptor molecule, acceptor atom, score
      L1  H    10    32       P1  8028  0.90
      L1  H    13    33       P1  8028  1.00

> <Gold.PLP.Chemscore.Internal.Correction>
0.0772

> <Gold.Rescore>
     Score         DG    S(hbond)    S(metal)    S(lipo)     H(rot)  DE(clash)    DE(int)     intcor
     12.97     -17.48       1.93        0.00      84.10       1.67       0.03       4.47       ----

> <Gold.Chemscore.Fitness>
12.9746

> <Gold.Chemscore.DG>
-17.4779

> <Gold.Chemscore.ZeroCoef>
-5.4800

> <Gold.Chemscore.Hbond>
1.9286

> <Gold.Chemscore.Metal>
0.0000

> <Gold.Chemscore.Lipo>
84.0970

> <Gold.Chemscore.Internal_Hbond>
0.0000

> <Gold.Chemscore.DEClash>
0.0341

> <Gold.Chemscore.DEInternal>
4.4692

> <Gold.Chemscore.Rot>
1.6730

> <Gold.Chemscore.Internal.Correction>
   9.000000E+99

> <Gold.Chemscore.Hbonds>
donor molecule, donor type, donor heavy atom, donor atom, acceptor molecule, acceptor atom, score
      L1  H    10    32       P1  8028  0.83
      L1  H    13    33       P1  8028  1.00

> <Gold.Chemscore.Hbond.Weighted>
-6.4415

> <Gold.Chemscore.Metal.Weighted>
-0.0000

> <Gold.Chemscore.Lipo.Weighted>
-9.8393

> <Gold.Chemscore.Internal_Hbond.Weighted>
0.0000

> <Gold.Chemscore.DEClash.Weighted>
0.0341

> <Gold.Chemscore.DEInternal.Weighted>
4.4692

> <Gold.Chemscore.Rot.Weighted>
4.2830

> <Gold.Chemscore.Internal.Correction.Weighted>
   9.000000E+99

> <Gold.Protein.RotatedTorsions>
[ 6907 6896 6895 6894 ] final   51.30 input  -60.11 | X-H torsion
[ 7974 7965 7964 7962 ] final -177.44 input  175.53 | X-H torsion
[ 8008 7997 7996 7995 ] final  178.42 input   59.86 | X-H torsion
[ 10167 10162 10161 10158 ] final -121.23 input  -65.29 | X-H torsion
[ 10718 10713 10712 10709 ] final   83.83 input   66.30 | X-H torsion
[ 10763 10752 10751 10750 ] final  -46.25 input  -60.55 | X-H torsion
[ 11005 11000 10999 10996 ] final -154.32 input  -57.11 | X-H torsion

> <Gold.Protein.ActiveResidues>
 VAL166  LYS551  ARG553  GLY616  TRP617  ASP618  TYR619  PRO620  LYS621  CYS622 
 ASP623  PHE694  ASN695  SER759  ASP760  ASP761  ALA762  ILE779  LEU786  VAL792 
 PHE793  MET794  SER795  GLU796  ALA797  LYS798  CYS799  TRP800  GLU811  SER814 

> <Gold.Protein.RotatedAtoms>
  152.3111  134.7496  160.0335 H   0  0  0  0  0  0  0  0  0  0  0  0  # atno 6907 bound_to 6896
  151.7976  133.3361  159.3525 H   0  0  0  0  0  0  0  0  0  0  0  0  # atno 6908 bound_to 6896
  150.7321  134.5714  159.5937 H   0  0  0  0  0  0  0  0  0  0  0  0  # atno 6909 bound_to 6896
  144.7128  140.1019  143.6416 H   0  0  0  0  0  0  0  0  0  0  0  0  # atno 7974 bound_to 7965
  156.0549  140.1334  157.0008 H   0  0  0  0  0  0  0  0  0  0  0  0  # atno 8008 bound_to 7997
  154.4452  140.1003  156.6501 H   0  0  0  0  0  0  0  0  0  0  0  0  # atno 8009 bound_to 7997
  155.5467  140.3462  155.4461 H   0  0  0  0  0  0  0  0  0  0  0  0  # atno 8010 bound_to 7997
  140.0272  143.5284  152.2193 H   0  0  0  0  0  0  0  0  0  0  0  0  # atno 10167 bound_to 10162
  157.6886  131.0107  150.2582 H   0  0  0  0  0  0  0  0  0  0  0  0  # atno 10718 bound_to 10713
  154.0420  135.6643  153.4791 H   0  0  0  0  0  0  0  0  0  0  0  0  # atno 10763 bound_to 10752
  153.0498  135.5092  154.7833 H   0  0  0  0  0  0  0  0  0  0  0  0  # atno 10764 bound_to 10752
  154.6812  135.3045  154.9576 H   0  0  0  0  0  0  0  0  0  0  0  0  # atno 10765 bound_to 10752
  140.6986  134.3963  157.5212 H   0  0  0  0  0  0  0  0  0  0  0  0  # atno 11005 bound_to 11000
  145.9530  139.2747  143.1201 LP  0  0  0  0  0  0  0  0  0  0  0  0  # atno 17320 bound_to 7965
  145.9302  140.9053  143.0360 LP  0  0  0  0  0  0  0  0  0  0  0  0  # atno 17321 bound_to 7965
  139.6100  144.7606  151.2974 LP  0  0  0  0  0  0  0  0  0  0  0  0  # atno 17342 bound_to 10162
  140.7317  143.6843  150.7974 LP  0  0  0  0  0  0  0  0  0  0  0  0  # atno 17343 bound_to 10162
  156.3166  130.3779  149.7613 LP  0  0  0  0  0  0  0  0  0  0  0  0  # atno 17370 bound_to 10713
  156.5196  130.8209  151.3199 LP  0  0  0  0  0  0  0  0  0  0  0  0  # atno 17371 bound_to 10713
  139.8903  134.8808  156.2376 LP  0  0  0  0  0  0  0  0  0  0  0  0  # atno 17394 bound_to 11000
  141.0183  133.7056  156.1225 LP  0  0  0  0  0  0  0  0  0  0  0  0  # atno 17395 bound_to 11000

$$$$
