AV-unprocessed.smi:1738|AV-procd|sdf|7002|dock8
  -GOLD-   22720 8213D 1   1.00000     0.00000
 Structure written by MMmdl.
 46 48  0  0  0  0  0  0  0  0  2 V2000
  154.9801  135.8542  157.5865 C   0  0  0  0  0  0  0  0  0  0  0  0
  153.6717  136.9793  158.2217 S   0  0  0  0  0  0  0  0  0  0  0  0
  153.2586  136.5031  159.5512 O   0  0  0  0  0  0  0  0  0  0  0  0
  154.1484  138.3619  158.0614 O   0  0  0  0  0  0  0  0  0  0  0  0
  152.3056  136.7212  157.0953 C   0  0  0  0  0  0  0  0  0  0  0  0
  152.1230  137.5731  155.9877 C   0  0  0  0  0  0  0  0  0  0  0  0
  151.0533  137.3048  155.1123 C   0  0  0  0  0  0  0  0  0  0  0  0
  150.2211  136.1867  155.3693 C   0  0  0  0  0  0  0  0  0  0  0  0
  149.1001  135.8122  154.5780 N   0  0  0  0  0  0  0  0  0  0  0  0
  147.9641  135.1983  154.9518 C   0  0  0  0  0  0  0  0  0  0  0  0
  147.6753  134.8634  156.0999 O   0  0  0  0  0  0  0  0  0  0  0  0
  147.1563  134.9958  153.9013 N   0  0  0  0  0  0  0  0  0  0  0  0
  145.8481  134.3496  153.9592 C   0  0  1  0  0  0  0  0  0  0  0  0
  144.7179  135.3168  154.3533 C   0  0  0  0  0  0  0  0  0  0  0  0
  143.5003  134.8885  153.5105 C   0  0  0  0  0  0  0  0  0  0  0  0
  143.9382  133.6893  152.7708 N   0  3  1  0  0  0  0  0  0  0  0  0
  143.2310  133.3795  151.5091 C   0  0  0  0  0  0  0  0  0  0  0  0
  143.7702  132.0533  150.9368 C   0  0  0  0  0  0  0  0  0  0  0  0
  145.3056  132.0735  150.7949 C   0  0  0  0  0  0  0  0  0  0  0  0
  145.9814  132.4939  152.1143 C   0  0  0  0  0  0  0  0  0  0  0  0
  145.3911  133.8313  152.5932 C   0  0  2  0  0  0  0  0  0  0  0  0
  150.5064  135.4020  156.5077 C   0  0  0  0  0  0  0  0  0  0  0  0
  151.5289  135.6481  157.3529 N   0  0  0  0  0  0  0  0  0  0  0  0
  155.8675  135.9405  158.2128 H   0  0  0  0  0  0  0  0  0  0  0  0
  155.2300  136.1288  156.5619 H   0  0  0  0  0  0  0  0  0  0  0  0
  154.6184  134.8264  157.6092 H   0  0  0  0  0  0  0  0  0  0  0  0
  152.7770  138.4141  155.8117 H   0  0  0  0  0  0  0  0  0  0  0  0
  150.8943  137.9661  154.2757 H   0  0  0  0  0  0  0  0  0  0  0  0
  149.1593  136.0744  153.6048 H   0  0  0  0  0  0  0  0  0  0  0  0
  147.4707  135.3091  152.9944 H   0  0  0  0  0  0  0  0  0  0  0  0
  145.8577  133.5261  154.6767 H   0  0  0  0  0  0  0  0  0  0  0  0
  144.5107  135.2630  155.4224 H   0  0  0  0  0  0  0  0  0  0  0  0
  144.9793  136.3507  154.1222 H   0  0  0  0  0  0  0  0  0  0  0  0
  142.6277  134.6647  154.1247 H   0  0  0  0  0  0  0  0  0  0  0  0
  143.2297  135.6833  152.8135 H   0  0  0  0  0  0  0  0  0  0  0  0
  142.1602  133.2999  151.6990 H   0  0  0  0  0  0  0  0  0  0  0  0
  143.3735  134.1910  150.7938 H   0  0  0  0  0  0  0  0  0  0  0  0
  143.4823  131.2332  151.5961 H   0  0  0  0  0  0  0  0  0  0  0  0
  143.3082  131.8471  149.9709 H   0  0  0  0  0  0  0  0  0  0  0  0
  145.6668  131.0931  150.4834 H   0  0  0  0  0  0  0  0  0  0  0  0
  145.5862  132.7717  150.0053 H   0  0  0  0  0  0  0  0  0  0  0  0
  145.8324  131.7234  152.8720 H   0  0  0  0  0  0  0  0  0  0  0  0
  147.0574  132.5841  151.9655 H   0  0  0  0  0  0  0  0  0  0  0  0
  145.5755  134.5999  151.8387 H   0  0  0  0  0  0  0  0  0  0  0  0
  149.8957  134.5439  156.7477 H   0  0  0  0  0  0  0  0  0  0  0  0
  143.8029  132.9042  153.3919 H   0  0  0  0  0  0  0  0  0  0  0  0
  1  2  1  0  0  0  0
  1 24  1  0  0  0  0
  1 25  1  0  0  0  0
  1 26  1  0  0  0  0
  2  3  2  0  0  0  0
  2  4  2  0  0  0  0
  2  5  1  0  0  0  0
  5 23  1  0  0  0  0
  5  6  2  0  0  0  0
  6  7  1  0  0  0  0
  6 27  1  0  0  0  0
  7  8  2  0  0  0  0
  7 28  1  0  0  0  0
  8  9  1  0  0  0  0
  8 22  1  0  0  0  0
  9 10  1  0  0  0  0
  9 29  1  0  0  0  0
 10 11  2  0  0  0  0
 10 12  1  0  0  0  0
 12 13  1  0  0  0  0
 12 30  1  0  0  0  0
 13 21  1  0  0  0  0
 13 14  1  0  0  0  0
 13 31  1  0  0  0  0
 14 15  1  0  0  0  0
 14 32  1  0  0  0  0
 14 33  1  0  0  0  0
 15 16  1  0  0  0  0
 15 34  1  0  0  0  0
 15 35  1  0  0  0  0
 16 21  1  0  0  0  0
 16 17  1  0  0  0  0
 16 46  1  0  0  0  0
 17 18  1  0  0  0  0
 17 36  1  0  0  0  0
 17 37  1  0  0  0  0
 18 19  1  0  0  0  0
 18 38  1  0  0  0  0
 18 39  1  0  0  0  0
 19 20  1  0  0  0  0
 19 40  1  0  0  0  0
 19 41  1  0  0  0  0
 20 21  1  0  0  0  0
 20 42  1  0  0  0  0
 20 43  1  0  0  0  0
 21 44  1  0  0  0  0
 22 23  2  0  0  0  0
 22 45  1  0  0  0  0
M  CHG  1  16   1
M  END
> <s_m_source_file>
AV-unprocessed.smi

> <i_m_source_file_index>
1738

> <i_lp_mmshare_version>
43012

> <i_f3d_flags>
0

> <s_epik_input>
W0NIM11TKD1PKSg9TyljMVtjSF1bY0hdYyhbY0hdbjEpW05IXUMoPU8pW05IXVtDQEhdKFtDSDJdW0NIMl0yKVtDQEBIXShOMjMpW0NIMl1bQ0gyXVtDSDJdW0NIMl0z

> <s_epik_cmdline>
J2VwaWtfcHl0aG9uJywgJy1waCcsICc3LjAnLCAnLXRuJywgJzgnLCAnLW1hJywgJzIwMCcsICctbWV0YWxfYmluZGluZycsICctaW1hZScsICc8aW5maWxlLm1hZT4nLCAnLW9tYWUnLCAnPG91dGZpbGUubWFlPic=

> <r_epik_Ionization_Penalty>
0.00100042

> <r_epik_Ionization_Penalty_Charging>
0.000974069

> <r_epik_Ionization_Penalty_Neutral>
2.63543e-05

> <r_epik_State_Penalty>
0.000633842

> <r_epik_Charging_Adjusted_Penalty>
0.00160791

> <i_epik_Tot_Q>
1

> <i_epik_Tot_abs_Q>
1

> <r_epik_Metal_State_Penalty>
-0

> <b_epik_Metal_Only>
0

> <s_lp_Force_Field>
OPLS_2005

> <r_lp_Energy>
37.3337

> <b_lp_Chiralities_Consistent>
1

> <s_lp_Variant>
AV-unprocessed.smi:1738-6

> <Gold.Version>
5.8.1

> <Gold.Id.Protein>
6NUR|6NUR_protein|mol2

> <Gold.PLP.Fitness>
43.0330

> <Gold.PLP.PLP>
-27.1498

> <Gold.PLP.part.hbond>
-6.0000

> <Gold.PLP.part.metal>
0.0000

> <Gold.PLP.part.buried>
-5.7404

> <Gold.PLP.part.nonpolar>
-17.8453

> <Gold.PLP.part.repulsive>
0.0283

> <Gold.PLP.ligand.clash>
0.0000

> <Gold.PLP.ligand.torsion>
1.5128

> <Gold.PLP.Chemscore.Hbond>
5.6265

> <Gold.PLP.Chemscore.CHOScore>
0.0000

> <Gold.PLP.Chemscore.Metal>
0.0000

> <Gold.Chemscore.Hbonds>
donor molecule, donor type, donor heavy atom, donor atom, acceptor molecule, acceptor atom, score
      L1  H     9    29       P1  7948  1.00
      L1  H    12    30       P1  7948  0.89
      L1  H    16    46       P1 10957  1.56
      P1  H  6896  6908       L1     3  1.00
      P1  H  7997  8010       L1     4  1.00

> <Gold.PLP.Chemscore.Internal.Correction>
2.0293

> <Gold.Rescore>
     Score         DG    S(hbond)    S(metal)    S(lipo)     H(rot)  DE(clash)    DE(int)     intcor
     21.75     -24.54       4.34        0.00      60.90       1.00       0.03       2.77       ----

> <Gold.Chemscore.Fitness>
21.7497

> <Gold.Chemscore.DG>
-24.5434

> <Gold.Chemscore.ZeroCoef>
-5.4800

> <Gold.Chemscore.Hbond>
4.3407

> <Gold.Chemscore.Metal>
0.0000

> <Gold.Chemscore.Lipo>
60.9009

> <Gold.Chemscore.Internal_Hbond>
0.0000

> <Gold.Chemscore.DEClash>
0.0270

> <Gold.Chemscore.DEInternal>
2.7667

> <Gold.Chemscore.Rot>
1.0000

> <Gold.Chemscore.Internal.Correction>
   9.000000E+99

> <Gold.Chemscore.Hbonds>
donor molecule, donor type, donor heavy atom, donor atom, acceptor molecule, acceptor atom, score
      L1  H     9    29       P1  7948  0.91
      L1  H    12    30       P1  7948  0.83
      L1  H    16    46       P1 10957  0.52
      P1  H  6896  6908       L1     3  0.99
      P1  H  7997  8010       L1     4  0.96

> <Gold.Chemscore.Hbond.Weighted>
-14.4980

> <Gold.Chemscore.Metal.Weighted>
-0.0000

> <Gold.Chemscore.Lipo.Weighted>
-7.1254

> <Gold.Chemscore.Internal_Hbond.Weighted>
0.0000

> <Gold.Chemscore.DEClash.Weighted>
0.0270

> <Gold.Chemscore.DEInternal.Weighted>
2.7667

> <Gold.Chemscore.Rot.Weighted>
2.5600

> <Gold.Chemscore.Internal.Correction.Weighted>
   9.000000E+99

> <Gold.Protein.RotatedTorsions>
[ 6907 6896 6895 6894 ] final  -84.25 input  -60.11 | X-H torsion
[ 7974 7965 7964 7962 ] final   35.61 input  175.53 | X-H torsion
[ 8008 7997 7996 7995 ] final   16.54 input   59.86 | X-H torsion
[ 10167 10162 10161 10158 ] final -119.09 input  -65.29 | X-H torsion
[ 10718 10713 10712 10709 ] final -139.51 input   66.30 | X-H torsion
[ 10763 10752 10751 10750 ] final   94.38 input  -60.55 | X-H torsion
[ 11005 11000 10999 10996 ] final  172.40 input  -57.11 | X-H torsion

> <Gold.Protein.ActiveResidues>
 VAL166  LYS551  ARG553  GLY616  TRP617  ASP618  TYR619  PRO620  LYS621  CYS622 
 ASP623  PHE694  ASN695  SER759  ASP760  ASP761  ALA762  ILE779  LEU786  VAL792 
 PHE793  MET794  SER795  GLU796  ALA797  LYS798  CYS799  TRP800  GLU811  SER814 

> <Gold.Protein.RotatedAtoms>
  150.6878  134.3387  159.4858 H   0  0  0  0  0  0  0  0  0  0  0  0  # atno 6907 bound_to 6896
  152.1243  134.9180  160.0571 H   0  0  0  0  0  0  0  0  0  0  0  0  # atno 6908 bound_to 6896
  152.0374  133.3928  159.4359 H   0  0  0  0  0  0  0  0  0  0  0  0  # atno 6909 bound_to 6896
  146.1271  139.6121  142.9251 H   0  0  0  0  0  0  0  0  0  0  0  0  # atno 7974 bound_to 7965
  154.8784  140.2969  155.5440 H   0  0  0  0  0  0  0  0  0  0  0  0  # atno 8008 bound_to 7997
  156.3022  140.2447  156.3716 H   0  0  0  0  0  0  0  0  0  0  0  0  # atno 8009 bound_to 7997
  154.8743  140.0400  157.1733 H   0  0  0  0  0  0  0  0  0  0  0  0  # atno 8010 bound_to 7997
  140.0504  143.5066  152.2085 H   0  0  0  0  0  0  0  0  0  0  0  0  # atno 10167 bound_to 10162
  156.3116  130.7485  151.1562 H   0  0  0  0  0  0  0  0  0  0  0  0  # atno 10718 bound_to 10713
  153.2410  135.4292  155.0697 H   0  0  0  0  0  0  0  0  0  0  0  0  # atno 10763 bound_to 10752
  154.8340  135.3402  154.6650 H   0  0  0  0  0  0  0  0  0  0  0  0  # atno 10764 bound_to 10752
  153.7073  135.7025  153.5103 H   0  0  0  0  0  0  0  0  0  0  0  0  # atno 10765 bound_to 10752
  140.3293  134.7371  157.4122 H   0  0  0  0  0  0  0  0  0  0  0  0  # atno 11005 bound_to 11000
  145.5342  141.0425  143.2366 LP  0  0  0  0  0  0  0  0  0  0  0  0  # atno 17320 bound_to 7965
  144.7653  139.6860  143.7217 LP  0  0  0  0  0  0  0  0  0  0  0  0  # atno 17321 bound_to 7965
  139.5957  144.7566  151.3292 LP  0  0  0  0  0  0  0  0  0  0  0  0  # atno 17342 bound_to 10162
  140.7219  143.7111  150.7769 LP  0  0  0  0  0  0  0  0  0  0  0  0  # atno 17343 bound_to 10162
  157.7392  131.0532  150.5246 LP  0  0  0  0  0  0  0  0  0  0  0  0  # atno 17370 bound_to 10713
  156.5386  130.4202  149.6165 LP  0  0  0  0  0  0  0  0  0  0  0  0  # atno 17371 bound_to 10713
  140.0874  134.5647  155.8478 LP  0  0  0  0  0  0  0  0  0  0  0  0  # atno 17394 bound_to 11000
  141.2067  133.6658  156.6261 LP  0  0  0  0  0  0  0  0  0  0  0  0  # atno 17395 bound_to 11000

$$$$
