AV-unprocessed.smi:834|AV-procd|sdf|3884|dock5
  -GOLD-   22720 1343D 1   1.00000     0.00000
 Structure written by MMmdl.
 39 40  0  0  0  0  0  0  0  0  1 V2000
  152.1496  140.2254  158.4785 C   0  0  0  0  0  0  0  0  0  0  0  0
  151.7115  139.8569  157.1021 C   0  0  0  0  0  0  0  0  0  0  0  0
  152.5329  139.8897  156.0457 N   0  0  0  0  0  0  0  0  0  0  0  0
  151.8974  139.5068  154.8728 N   0  0  0  0  0  0  0  0  0  0  0  0
  150.6103  139.1966  155.0802 C   0  0  0  0  0  0  0  0  0  0  0  0
  149.7236  138.7775  154.0534 N   0  0  0  0  0  0  0  0  0  0  0  0
  148.4734  139.2058  153.8050 C   0  0  0  0  0  0  0  0  0  0  0  0
  147.8800  140.0789  154.4388 O   0  0  0  0  0  0  0  0  0  0  0  0
  147.9376  138.5574  152.7610 N   0  0  0  0  0  0  0  0  0  0  0  0
  146.5951  138.7806  152.2362 C   0  0  0  0  0  0  0  0  0  0  0  0
  146.2679  137.8084  151.0857 C   0  0  0  0  0  0  0  0  0  0  0  0
  145.5354  136.5483  151.5573 C   0  0  0  0  0  0  0  0  0  0  0  0
  144.3823  136.6148  151.9840 O   0  0  0  0  0  0  0  0  0  0  0  0
  146.2209  135.3979  151.4704 N   0  0  0  0  0  0  0  0  0  0  0  0
  145.7205  134.0871  151.8771 C   0  0  0  0  0  0  0  0  0  0  0  0
  146.6929  132.9720  151.4467 C   0  0  0  0  0  0  0  0  0  0  0  0
  145.8361  131.8956  150.7783 C   0  0  0  0  0  0  0  0  0  0  0  0
  144.6627  132.6649  150.1804 C   0  0  0  0  0  0  0  0  0  0  0  0
  144.3705  133.7599  151.2071 C   0  0  0  0  0  0  0  0  0  0  0  0
  150.0662  139.3482  156.7423 S   0  0  0  0  0  0  0  0  0  0  0  0
  153.2364  140.2972  158.5304 H   0  0  0  0  0  0  0  0  0  0  0  0
  151.8161  139.4710  159.1912 H   0  0  0  0  0  0  0  0  0  0  0  0
  151.7213  141.1874  158.7596 H   0  0  0  0  0  0  0  0  0  0  0  0
  150.0810  138.0596  153.4406 H   0  0  0  0  0  0  0  0  0  0  0  0
  148.4955  137.8550  152.2976 H   0  0  0  0  0  0  0  0  0  0  0  0
  145.8913  138.6408  153.0576 H   0  0  0  0  0  0  0  0  0  0  0  0
  146.4901  139.8174  151.9106 H   0  0  0  0  0  0  0  0  0  0  0  0
  145.6516  138.3053  150.3355 H   0  0  0  0  0  0  0  0  0  0  0  0
  147.1922  137.5127  150.5863 H   0  0  0  0  0  0  0  0  0  0  0  0
  147.1605  135.4323  151.1024 H   0  0  0  0  0  0  0  0  0  0  0  0
  145.6020  134.0634  152.9621 H   0  0  0  0  0  0  0  0  0  0  0  0
  147.4151  133.3495  150.7205 H   0  0  0  0  0  0  0  0  0  0  0  0
  147.2618  132.5745  152.2879 H   0  0  0  0  0  0  0  0  0  0  0  0
  146.3878  131.3233  150.0319 H   0  0  0  0  0  0  0  0  0  0  0  0
  145.4708  131.1963  151.5315 H   0  0  0  0  0  0  0  0  0  0  0  0
  144.9637  133.1176  149.2345 H   0  0  0  0  0  0  0  0  0  0  0  0
  143.7982  132.0292  149.9862 H   0  0  0  0  0  0  0  0  0  0  0  0
  143.6833  133.3724  151.9606 H   0  0  0  0  0  0  0  0  0  0  0  0
  143.8877  134.6261  150.7520 H   0  0  0  0  0  0  0  0  0  0  0  0
  1  2  1  0  0  0  0
  1 21  1  0  0  0  0
  1 22  1  0  0  0  0
  1 23  1  0  0  0  0
  2 20  1  0  0  0  0
  2  3  2  0  0  0  0
  3  4  1  0  0  0  0
  4  5  2  0  0  0  0
  5  6  1  0  0  0  0
  5 20  1  0  0  0  0
  6  7  1  0  0  0  0
  6 24  1  0  0  0  0
  7  8  2  0  0  0  0
  7  9  1  0  0  0  0
  9 10  1  0  0  0  0
  9 25  1  0  0  0  0
 10 11  1  0  0  0  0
 10 26  1  0  0  0  0
 10 27  1  0  0  0  0
 11 12  1  0  0  0  0
 11 28  1  0  0  0  0
 11 29  1  0  0  0  0
 12 13  2  0  0  0  0
 12 14  1  0  0  0  0
 14 15  1  0  0  0  0
 14 30  1  0  0  0  0
 15 19  1  0  0  0  0
 15 16  1  0  0  0  0
 15 31  1  0  0  0  0
 16 17  1  0  0  0  0
 16 32  1  0  0  0  0
 16 33  1  0  0  0  0
 17 18  1  0  0  0  0
 17 34  1  0  0  0  0
 17 35  1  0  0  0  0
 18 19  1  0  0  0  0
 18 36  1  0  0  0  0
 18 37  1  0  0  0  0
 19 38  1  0  0  0  0
 19 39  1  0  0  0  0
M  END
> <s_m_source_file>
AV-unprocessed.smi

> <i_m_source_file_index>
834

> <i_lp_mmshare_version>
43012

> <i_f3d_flags>
0

> <s_epik_input>
W0NIM11jMW5uYyhzMSlbTkhdQyg9TylbTkhdW0NIMl1bQ0gyXUMoPU8pW05IXVtDSF0yW0NIMl1bQ0gyXVtDSDJdW0NIMl0y

> <s_epik_cmdline>
J2VwaWtfcHl0aG9uJywgJy1waCcsICc3LjAnLCAnLXRuJywgJzgnLCAnLW1hJywgJzIwMCcsICctbWV0YWxfYmluZGluZycsICctaW1hZScsICc8aW5maWxlLm1hZT4nLCAnLW9tYWUnLCAnPG91dGZpbGUubWFlPic=

> <r_lp_tautomer_probability>
1

> <r_epik_Ionization_Penalty>
0.00240541

> <r_epik_Ionization_Penalty_Charging>
0

> <r_epik_Ionization_Penalty_Neutral>
0.00240541

> <r_epik_State_Penalty>
-0

> <r_epik_Charging_Adjusted_Penalty>
0

> <i_epik_Tot_Q>
0

> <i_epik_Tot_abs_Q>
0

> <r_epik_Metal_State_Penalty>
0.349697

> <b_epik_Metal_Only>
0

> <s_lp_Force_Field>
OPLS_2005

> <r_lp_Energy>
16.3225

> <b_lp_Chiralities_Consistent>
1

> <s_lp_Variant>
AV-unprocessed.smi:834-1

> <Gold.Version>
5.8.1

> <Gold.Id.Protein>
6NUR|6NUR_protein|mol2

> <Gold.PLP.Fitness>
43.1353

> <Gold.PLP.PLP>
-33.5720

> <Gold.PLP.part.hbond>
-5.5433

> <Gold.PLP.part.metal>
0.0000

> <Gold.PLP.part.buried>
0.0467

> <Gold.PLP.part.nonpolar>
-28.5944

> <Gold.PLP.part.repulsive>
1.2849

> <Gold.PLP.ligand.clash>
0.0000

> <Gold.PLP.ligand.torsion>
0.7498

> <Gold.PLP.Chemscore.Hbond>
3.6800

> <Gold.PLP.Chemscore.CHOScore>
0.0000

> <Gold.PLP.Chemscore.Metal>
0.0000

> <Gold.Chemscore.Hbonds>
donor molecule, donor type, donor heavy atom, donor atom, acceptor molecule, acceptor atom, score
      L1  H     9    25       P1  7948  1.00
      L1  H    14    30       P1  7948  0.66
      P1  H  7989  7998       L1     4  0.94
      P1  H  7997  8008       L1     3  1.00

> <Gold.PLP.Chemscore.Internal.Correction>
0.0227

> <Gold.Rescore>
     Score         DG    S(hbond)    S(metal)    S(lipo)     H(rot)  DE(clash)    DE(int)     intcor
     16.57     -17.62       2.99        0.00      61.80       1.99       0.25       0.80       ----

> <Gold.Chemscore.Fitness>
16.5668

> <Gold.Chemscore.DG>
-17.6204

> <Gold.Chemscore.ZeroCoef>
-5.4800

> <Gold.Chemscore.Hbond>
2.9917

> <Gold.Chemscore.Metal>
0.0000

> <Gold.Chemscore.Lipo>
61.8016

> <Gold.Chemscore.Internal_Hbond>
0.0000

> <Gold.Chemscore.DEClash>
0.2541

> <Gold.Chemscore.DEInternal>
0.7994

> <Gold.Chemscore.Rot>
1.9855

> <Gold.Chemscore.Internal.Correction>
   9.000000E+99

> <Gold.Chemscore.Hbonds>
donor molecule, donor type, donor heavy atom, donor atom, acceptor molecule, acceptor atom, score
      L1  H     9    25       P1  7948  0.99
      L1  H    14    30       P1  7948  0.49
      P1  H  7989  7998       L1     4  0.19
      P1  H  7997  8008       L1     3  0.87

> <Gold.Chemscore.Hbond.Weighted>
-9.9924

> <Gold.Chemscore.Metal.Weighted>
-0.0000

> <Gold.Chemscore.Lipo.Weighted>
-7.2308

> <Gold.Chemscore.Internal_Hbond.Weighted>
0.0000

> <Gold.Chemscore.DEClash.Weighted>
0.2541

> <Gold.Chemscore.DEInternal.Weighted>
0.7994

> <Gold.Chemscore.Rot.Weighted>
5.0828

> <Gold.Chemscore.Internal.Correction.Weighted>
   9.000000E+99

> <Gold.Protein.RotatedTorsions>
[ 6907 6896 6895 6894 ] final  153.72 input  -60.11 | X-H torsion
[ 7974 7965 7964 7962 ] final -141.59 input  175.53 | X-H torsion
[ 8008 7997 7996 7995 ] final  -52.37 input   59.86 | X-H torsion
[ 10167 10162 10161 10158 ] final  177.82 input  -65.29 | X-H torsion
[ 10718 10713 10712 10709 ] final -177.62 input   66.30 | X-H torsion
[ 10763 10752 10751 10750 ] final   61.40 input  -60.55 | X-H torsion
[ 11005 11000 10999 10996 ] final  144.56 input  -57.11 | X-H torsion

> <Gold.Protein.ActiveResidues>
 VAL166  LYS551  ARG553  GLY616  TRP617  ASP618  TYR619  PRO620  LYS621  CYS622 
 ASP623  PHE694  ASN695  SER759  ASP760  ASP761  ALA762  ILE779  LEU786  VAL792 
 PHE793  MET794  SER795  GLU796  ALA797  LYS798  CYS799  TRP800  GLU811  SER814 

> <Gold.Protein.RotatedAtoms>
  152.0687  133.4096  159.4449 H   0  0  0  0  0  0  0  0  0  0  0  0  # atno 6907 bound_to 6896
  150.6864  134.3117  159.4758 H   0  0  0  0  0  0  0  0  0  0  0  0  # atno 6908 bound_to 6896
  152.0946  134.9383  160.0621 H   0  0  0  0  0  0  0  0  0  0  0  0  # atno 6909 bound_to 6896
  144.8508  140.6061  143.5391 H   0  0  0  0  0  0  0  0  0  0  0  0  # atno 7974 bound_to 7965
  154.4105  140.1225  156.4980 H   0  0  0  0  0  0  0  0  0  0  0  0  # atno 8008 bound_to 7997
  155.6924  140.3495  155.4879 H   0  0  0  0  0  0  0  0  0  0  0  0  # atno 8009 bound_to 7997
  155.9457  140.1095  157.1008 H   0  0  0  0  0  0  0  0  0  0  0  0  # atno 8010 bound_to 7997
  139.5269  144.2752  152.0593 H   0  0  0  0  0  0  0  0  0  0  0  0  # atno 10167 bound_to 10162
  156.8322  130.9657  151.3106 H   0  0  0  0  0  0  0  0  0  0  0  0  # atno 10718 bound_to 10713
  152.9949  135.5502  154.6028 H   0  0  0  0  0  0  0  0  0  0  0  0  # atno 10763 bound_to 10752
  154.5365  135.2817  155.1135 H   0  0  0  0  0  0  0  0  0  0  0  0  # atno 10764 bound_to 10752
  154.2430  135.6413  153.5266 H   0  0  0  0  0  0  0  0  0  0  0  0  # atno 10765 bound_to 10752
  140.0642  134.9188  157.1236 H   0  0  0  0  0  0  0  0  0  0  0  0  # atno 11005 bound_to 11000
  145.4505  139.1524  143.3921 LP  0  0  0  0  0  0  0  0  0  0  0  0  # atno 17320 bound_to 7965
  146.2783  140.4630  142.8787 LP  0  0  0  0  0  0  0  0  0  0  0  0  # atno 17321 bound_to 7965
  140.2210  144.4466  150.6342 LP  0  0  0  0  0  0  0  0  0  0  0  0  # atno 17342 bound_to 10162
  140.6418  143.2205  151.6273 LP  0  0  0  0  0  0  0  0  0  0  0  0  # atno 17343 bound_to 10162
  157.6401  130.8798  149.9432 LP  0  0  0  0  0  0  0  0  0  0  0  0  # atno 17370 bound_to 10713
  156.0928  130.3662  150.0363 LP  0  0  0  0  0  0  0  0  0  0  0  0  # atno 17371 bound_to 10713
  140.3724  134.2376  155.7177 LP  0  0  0  0  0  0  0  0  0  0  0  0  # atno 17394 bound_to 11000
  141.1986  133.8032  157.0576 LP  0  0  0  0  0  0  0  0  0  0  0  0  # atno 17395 bound_to 11000

$$$$
