AV-unprocessed.smi:1906|AV-procd|sdf|7727|dock2
  -GOLD-   22720 9463D 1   1.00000     0.00000
 Structure written by MMmdl.
 35 37  0  0  0  0  0  0  0  0  1 V2000
  152.0895  138.6171  155.4071 C   0  0  0  0  0  0  0  0  0  0  0  0
  150.7810  139.1212  154.8865 C   0  0  0  0  0  0  0  0  0  0  0  0
  149.9696  138.3615  154.1498 N   0  0  0  0  0  0  0  0  0  0  0  0
  148.9051  139.2067  153.9016 C   0  0  0  0  0  0  0  0  0  0  0  0
  147.7124  138.9945  153.1735 C   0  0  0  0  0  0  0  0  0  0  0  0
  146.7550  140.0236  153.0560 C   0  0  0  0  0  0  0  0  0  0  0  0
  146.9755  141.2769  153.6632 C   0  0  0  0  0  0  0  0  0  0  0  0
  148.1568  141.5094  154.3936 C   0  0  0  0  0  0  0  0  0  0  0  0
  149.1088  140.4787  154.5076 C   0  0  0  0  0  0  0  0  0  0  0  0
  150.3444  140.3803  155.1382 N   0  0  0  0  0  0  0  0  0  0  0  0
  150.9987  141.4305  155.9062 C   0  0  0  0  0  0  0  0  0  0  0  0
  150.3729  141.6212  157.3020 C   0  0  2  0  0  0  0  0  0  0  0  0
  149.1098  142.2465  157.1840 O   0  0  0  0  0  0  0  0  0  0  0  0
  151.3081  142.3855  158.2252 C   0  0  0  0  0  0  0  0  0  0  0  0
  151.6122  143.7426  157.9789 C   0  0  0  0  0  0  0  0  0  0  0  0
  152.4904  144.4392  158.8319 C   0  0  0  0  0  0  0  0  0  0  0  0
  153.0700  143.7831  159.9349 C   0  0  0  0  0  0  0  0  0  0  0  0
  152.7716  142.4296  160.1838 C   0  0  0  0  0  0  0  0  0  0  0  0
  153.3297  141.7968  161.2427 F   0  0  0  0  0  0  0  0  0  0  0  0
  151.8944  141.7326  159.3306 C   0  0  0  0  0  0  0  0  0  0  0  0
  152.2893  137.6128  155.0318 H   0  0  0  0  0  0  0  0  0  0  0  0
  152.0715  138.5791  156.4964 H   0  0  0  0  0  0  0  0  0  0  0  0
  152.9031  139.2685  155.0884 H   0  0  0  0  0  0  0  0  0  0  0  0
  147.5334  138.0385  152.7046 H   0  0  0  0  0  0  0  0  0  0  0  0
  145.8467  139.8504  152.4976 H   0  0  0  0  0  0  0  0  0  0  0  0
  146.2375  142.0599  153.5682 H   0  0  0  0  0  0  0  0  0  0  0  0
  148.3292  142.4679  154.8602 H   0  0  0  0  0  0  0  0  0  0  0  0
  152.0502  141.1590  156.0085 H   0  0  0  0  0  0  0  0  0  0  0  0
  150.9816  142.3640  155.3437 H   0  0  0  0  0  0  0  0  0  0  0  0
  150.1905  140.6397  157.7417 H   0  0  0  0  0  0  0  0  0  0  0  0
  149.2249  143.0717  156.7380 H   0  0  0  0  0  0  0  0  0  0  0  0
  151.1753  144.2522  157.1322 H   0  0  0  0  0  0  0  0  0  0  0  0
  152.7210  145.4766  158.6388 H   0  0  0  0  0  0  0  0  0  0  0  0
  153.7440  144.3173  160.5883 H   0  0  0  0  0  0  0  0  0  0  0  0
  151.6753  140.6934  159.5276 H   0  0  0  0  0  0  0  0  0  0  0  0
  1  2  1  0  0  0  0
  1 21  1  0  0  0  0
  1 22  1  0  0  0  0
  1 23  1  0  0  0  0
  2 10  1  0  0  0  0
  2  3  2  0  0  0  0
  3  4  1  0  0  0  0
  4  9  2  0  0  0  0
  4  5  1  0  0  0  0
  5  6  2  0  0  0  0
  5 24  1  0  0  0  0
  6  7  1  0  0  0  0
  6 25  1  0  0  0  0
  7  8  2  0  0  0  0
  7 26  1  0  0  0  0
  8  9  1  0  0  0  0
  8 27  1  0  0  0  0
  9 10  1  0  0  0  0
 10 11  1  0  0  0  0
 11 12  1  0  0  0  0
 11 28  1  0  0  0  0
 11 29  1  0  0  0  0
 12 13  1  0  0  0  0
 12 14  1  0  0  0  0
 12 30  1  0  0  0  0
 13 31  1  0  0  0  0
 14 20  1  0  0  0  0
 14 15  2  0  0  0  0
 15 16  1  0  0  0  0
 15 32  1  0  0  0  0
 16 17  2  0  0  0  0
 16 33  1  0  0  0  0
 17 18  1  0  0  0  0
 17 34  1  0  0  0  0
 18 19  1  0  0  0  0
 18 20  2  0  0  0  0
 20 35  1  0  0  0  0
M  END
> <s_m_source_file>
AV-unprocessed.smi

> <i_m_source_file_index>
1906

> <i_lp_mmshare_version>
43012

> <i_f3d_flags>
0

> <s_epik_input>
W2NIXTFbY0hdW2NIXVtjSF1jKGMxMiluKGMobjIpW0NIM10pW0NIMl1bQ0BIXShbT0hdKWMzW2NIXVtjSF1bY0hdYyhGKVtjSF0z

> <s_epik_cmdline>
J2VwaWtfcHl0aG9uJywgJy1waCcsICc3LjAnLCAnLXRuJywgJzgnLCAnLW1hJywgJzIwMCcsICctbWV0YWxfYmluZGluZycsICctaW1hZScsICc8aW5maWxlLm1hZT4nLCAnLW9tYWUnLCAnPG91dGZpbGUubWFlPic=

> <r_epik_Ionization_Penalty>
0.129664

> <r_epik_Ionization_Penalty_Charging>
0

> <r_epik_Ionization_Penalty_Neutral>
0.129664

> <r_epik_State_Penalty>
0.119073

> <r_epik_Charging_Adjusted_Penalty>
0.119073

> <i_epik_Tot_Q>
0

> <i_epik_Tot_abs_Q>
0

> <r_epik_Metal_State_Penalty>
0.000131867

> <b_epik_Metal_Only>
0

> <s_lp_Force_Field>
OPLS_2005

> <r_lp_Energy>
10.1528

> <b_lp_Chiralities_Consistent>
1

> <s_lp_Variant>
AV-unprocessed.smi:1906-1

> <Gold.Version>
5.8.1

> <Gold.Id.Protein>
6NUR|6NUR_protein|mol2

> <Gold.PLP.Fitness>
49.7765

> <Gold.PLP.PLP>
-47.5340

> <Gold.PLP.part.hbond>
-1.0000

> <Gold.PLP.part.metal>
0.0000

> <Gold.PLP.part.buried>
0.3677

> <Gold.PLP.part.nonpolar>
-45.6260

> <Gold.PLP.part.repulsive>
0.2390

> <Gold.PLP.ligand.clash>
0.0000

> <Gold.PLP.ligand.torsion>
0.3936

> <Gold.PLP.Chemscore.Hbond>
1.0000

> <Gold.PLP.Chemscore.CHOScore>
0.0000

> <Gold.PLP.Chemscore.Metal>
0.0000

> <Gold.Chemscore.Hbonds>
donor molecule, donor type, donor heavy atom, donor atom, acceptor molecule, acceptor atom, score
      L1  H    13    31       P1  8028  1.00

> <Gold.PLP.Chemscore.Internal.Correction>
0.0296

> <Gold.Rescore>
     Score         DG    S(hbond)    S(metal)    S(lipo)     H(rot)  DE(clash)    DE(int)     intcor
     18.54     -19.30       0.98        0.00     129.48       1.79       0.26       0.50       ----

> <Gold.Chemscore.Fitness>
18.5377

> <Gold.Chemscore.DG>
-19.2969

> <Gold.Chemscore.ZeroCoef>
-5.4800

> <Gold.Chemscore.Hbond>
0.9751

> <Gold.Chemscore.Metal>
0.0000

> <Gold.Chemscore.Lipo>
129.4793

> <Gold.Chemscore.Internal_Hbond>
0.0000

> <Gold.Chemscore.DEClash>
0.2631

> <Gold.Chemscore.DEInternal>
0.4961

> <Gold.Chemscore.Rot>
1.7926

> <Gold.Chemscore.Internal.Correction>
   9.000000E+99

> <Gold.Chemscore.Hbonds>
donor molecule, donor type, donor heavy atom, donor atom, acceptor molecule, acceptor atom, score
      L1  H    13    31       P1  8028  0.95

> <Gold.Chemscore.Hbond.Weighted>
-3.2569

> <Gold.Chemscore.Metal.Weighted>
-0.0000

> <Gold.Chemscore.Lipo.Weighted>
-15.1491

> <Gold.Chemscore.Internal_Hbond.Weighted>
0.0000

> <Gold.Chemscore.DEClash.Weighted>
0.2631

> <Gold.Chemscore.DEInternal.Weighted>
0.4961

> <Gold.Chemscore.Rot.Weighted>
4.5890

> <Gold.Chemscore.Internal.Correction.Weighted>
   9.000000E+99

> <Gold.Protein.RotatedTorsions>
[ 6907 6896 6895 6894 ] final -162.64 input  -60.11 | X-H torsion
[ 7974 7965 7964 7962 ] final -109.22 input  175.53 | X-H torsion
[ 8008 7997 7996 7995 ] final    2.44 input   59.86 | X-H torsion
[ 10167 10162 10161 10158 ] final  -87.51 input  -65.29 | X-H torsion
[ 10718 10713 10712 10709 ] final   -4.67 input   66.30 | X-H torsion
[ 10763 10752 10751 10750 ] final  -92.33 input  -60.55 | X-H torsion
[ 11005 11000 10999 10996 ] final   76.15 input  -57.11 | X-H torsion

> <Gold.Protein.ActiveResidues>
 VAL166  LYS551  ARG553  GLY616  TRP617  ASP618  TYR619  PRO620  LYS621  CYS622 
 ASP623  PHE694  ASN695  SER759  ASP760  ASP761  ALA762  ILE779  LEU786  VAL792 
 PHE793  MET794  SER795  GLU796  ALA797  LYS798  CYS799  TRP800  GLU811  SER814 

> <Gold.Protein.RotatedAtoms>
  151.3835  133.3813  159.2712 H   0  0  0  0  0  0  0  0  0  0  0  0  # atno 6907 bound_to 6896
  150.9559  134.8955  159.7711 H   0  0  0  0  0  0  0  0  0  0  0  0  # atno 6908 bound_to 6896
  152.5130  134.3792  159.9397 H   0  0  0  0  0  0  0  0  0  0  0  0  # atno 6909 bound_to 6896
  145.1832  140.8981  143.3468 H   0  0  0  0  0  0  0  0  0  0  0  0  # atno 7974 bound_to 7965
  154.6916  140.2654  155.6807 H   0  0  0  0  0  0  0  0  0  0  0  0  # atno 8008 bound_to 7997
  156.2734  140.2790  156.1420 H   0  0  0  0  0  0  0  0  0  0  0  0  # atno 8009 bound_to 7997
  155.0888  140.0373  157.2652 H   0  0  0  0  0  0  0  0  0  0  0  0  # atno 8010 bound_to 7997
  140.3837  143.2737  151.9352 H   0  0  0  0  0  0  0  0  0  0  0  0  # atno 10167 bound_to 10162
  156.7578  130.5260  149.5791 H   0  0  0  0  0  0  0  0  0  0  0  0  # atno 10718 bound_to 10713
  154.6850  135.5235  153.8314 H   0  0  0  0  0  0  0  0  0  0  0  0  # atno 10763 bound_to 10752
  153.0591  135.6561  154.0515 H   0  0  0  0  0  0  0  0  0  0  0  0  # atno 10764 bound_to 10752
  154.0398  135.2978  155.3336 H   0  0  0  0  0  0  0  0  0  0  0  0  # atno 10765 bound_to 10752
  139.9311  134.7577  156.1359 H   0  0  0  0  0  0  0  0  0  0  0  0  # atno 11005 bound_to 11000
  145.0115  139.3505  143.6117 LP  0  0  0  0  0  0  0  0  0  0  0  0  # atno 17320 bound_to 7965
  146.3449  139.9379  142.8745 LP  0  0  0  0  0  0  0  0  0  0  0  0  # atno 17321 bound_to 7965
  139.4793  144.5794  151.7958 LP  0  0  0  0  0  0  0  0  0  0  0  0  # atno 17342 bound_to 10162
  140.4911  144.1309  150.5950 LP  0  0  0  0  0  0  0  0  0  0  0  0  # atno 17343 bound_to 10162
  156.1359  130.6210  151.0399 LP  0  0  0  0  0  0  0  0  0  0  0  0  # atno 17370 bound_to 10713
  157.6748  131.0853  150.7522 LP  0  0  0  0  0  0  0  0  0  0  0  0  # atno 17371 bound_to 10713
  141.0900  133.6718  156.2520 LP  0  0  0  0  0  0  0  0  0  0  0  0  # atno 17394 bound_to 11000
  140.6199  134.5372  157.5546 LP  0  0  0  0  0  0  0  0  0  0  0  0  # atno 17395 bound_to 11000

$$$$
