AV-unprocessed.smi:1831|AV-procd|sdf|7456|dock5
  -GOLD-   22720 9143D 1   1.00000     0.00000
 Structure written by MMmdl.
 41 42  0  0  0  0  0  0  0  0  2 V2000
  150.8355  142.2773  156.3590 C   0  0  0  0  0  0  0  0  0  0  0  0
  150.3956  141.1198  155.5292 C   0  0  0  0  0  0  0  0  0  0  0  0
  151.2454  140.1948  155.0651 N   0  0  0  0  0  0  0  0  0  0  0  0
  150.6046  139.2158  154.3173 N   0  0  0  0  0  0  0  0  0  0  0  0
  149.2884  139.4306  154.2373 C   0  0  0  0  0  0  0  0  0  0  0  0
  148.5050  138.5056  153.5026 N   0  0  0  0  0  0  0  0  0  0  0  0
  147.1668  138.3983  153.4715 C   0  0  0  0  0  0  0  0  0  0  0  0
  146.3799  139.1150  154.0896 O   0  0  0  0  0  0  0  0  0  0  0  0
  146.7789  137.3973  152.6677 N   0  0  0  0  0  0  0  0  0  0  0  0
  145.3972  136.9909  152.4276 C   0  0  0  0  0  0  0  0  0  0  0  0
  145.3018  135.7855  151.4718 C   0  0  2  0  0  0  0  0  0  0  0  0
  143.8839  135.3593  151.0949 C   0  0  0  0  0  0  0  0  0  0  0  0
  144.0763  133.9112  150.6614 C   0  0  0  0  0  0  0  0  0  0  0  0
  145.0838  133.3609  151.5948 N   0  3  1  0  0  0  0  0  0  0  0  0
  145.8290  132.1646  151.1099 C   0  0  0  0  0  0  0  0  0  0  0  0
  146.1296  132.2517  149.6012 C   0  0  0  0  0  0  0  0  0  0  0  0
  145.0482  130.8687  151.4014 C   0  0  0  0  0  0  0  0  0  0  0  0
  145.9289  134.5001  152.0372 C   0  0  0  0  0  0  0  0  0  0  0  0
  148.7134  140.8693  155.0797 S   0  0  0  0  0  0  0  0  0  0  0  0
  151.8340  142.1042  156.7616 H   0  0  0  0  0  0  0  0  0  0  0  0
  150.1461  142.4247  157.1903 H   0  0  0  0  0  0  0  0  0  0  0  0
  150.8537  143.1833  155.7531 H   0  0  0  0  0  0  0  0  0  0  0  0
  149.0260  137.8468  152.9426 H   0  0  0  0  0  0  0  0  0  0  0  0
  147.4959  136.8616  152.2002 H   0  0  0  0  0  0  0  0  0  0  0  0
  144.9621  136.7243  153.3913 H   0  0  0  0  0  0  0  0  0  0  0  0
  144.8072  137.8283  152.0507 H   0  0  0  0  0  0  0  0  0  0  0  0
  145.8287  136.0302  150.5478 H   0  0  0  0  0  0  0  0  0  0  0  0
  143.2279  135.4005  151.9659 H   0  0  0  0  0  0  0  0  0  0  0  0
  143.4468  135.9791  150.3112 H   0  0  0  0  0  0  0  0  0  0  0  0
  143.1437  133.3466  150.6892 H   0  0  0  0  0  0  0  0  0  0  0  0
  144.4625  133.8838  149.6409 H   0  0  0  0  0  0  0  0  0  0  0  0
  146.7812  132.1199  151.6410 H   0  0  0  0  0  0  0  0  0  0  0  0
  146.6329  131.3497  149.2517 H   0  0  0  0  0  0  0  0  0  0  0  0
  146.7849  133.0890  149.3610 H   0  0  0  0  0  0  0  0  0  0  0  0
  145.2138  132.3640  149.0199 H   0  0  0  0  0  0  0  0  0  0  0  0
  145.5875  129.9967  151.0299 H   0  0  0  0  0  0  0  0  0  0  0  0
  144.0697  130.8800  150.9200 H   0  0  0  0  0  0  0  0  0  0  0  0
  144.8916  130.7112  152.4682 H   0  0  0  0  0  0  0  0  0  0  0  0
  146.9593  134.4111  151.6909 H   0  0  0  0  0  0  0  0  0  0  0  0
  145.9482  134.5073  153.1277 H   0  0  0  0  0  0  0  0  0  0  0  0
  144.5665  133.0701  152.4121 H   0  0  0  0  0  0  0  0  0  0  0  0
  1  2  1  0  0  0  0
  1 20  1  0  0  0  0
  1 21  1  0  0  0  0
  1 22  1  0  0  0  0
  2 19  1  0  0  0  0
  2  3  2  0  0  0  0
  3  4  1  0  0  0  0
  4  5  2  0  0  0  0
  5  6  1  0  0  0  0
  5 19  1  0  0  0  0
  6  7  1  0  0  0  0
  6 23  1  0  0  0  0
  7  8  2  0  0  0  0
  7  9  1  0  0  0  0
  9 10  1  0  0  0  0
  9 24  1  0  0  0  0
 10 11  1  0  0  0  0
 10 25  1  0  0  0  0
 10 26  1  0  0  0  0
 11 18  1  0  0  0  0
 11 12  1  0  0  0  0
 11 27  1  0  0  0  0
 12 13  1  0  0  0  0
 12 28  1  0  0  0  0
 12 29  1  0  0  0  0
 13 14  1  0  0  0  0
 13 30  1  0  0  0  0
 13 31  1  0  0  0  0
 14 15  1  0  0  0  0
 14 18  1  0  0  0  0
 14 41  1  0  0  0  0
 15 16  1  0  0  0  0
 15 17  1  0  0  0  0
 15 32  1  0  0  0  0
 16 33  1  0  0  0  0
 16 34  1  0  0  0  0
 16 35  1  0  0  0  0
 17 36  1  0  0  0  0
 17 37  1  0  0  0  0
 17 38  1  0  0  0  0
 18 39  1  0  0  0  0
 18 40  1  0  0  0  0
M  CHG  1  14   1
M  END
> <s_m_source_file>
AV-unprocessed.smi

> <i_m_source_file_index>
1831

> <i_lp_mmshare_version>
43012

> <i_f3d_flags>
0

> <s_epik_input>
W0NIM11jMW5uYyhzMSlbTkhdQyg9TylbTkhdW0NIMl1bQ0BASF0yW0NIMl1bQ0gyXU4oW0NIMl0yKVtDSF0oW0NIM10pW0NIM10=

> <s_epik_cmdline>
J2VwaWtfcHl0aG9uJywgJy1waCcsICc3LjAnLCAnLXRuJywgJzgnLCAnLW1hJywgJzIwMCcsICctbWV0YWxfYmluZGluZycsICctaW1hZScsICc8aW5maWxlLm1hZT4nLCAnLW9tYWUnLCAnPG91dGZpbGUubWFlPic=

> <r_lp_tautomer_probability>
1

> <r_epik_Ionization_Penalty>
0.00080807

> <r_epik_Ionization_Penalty_Charging>
0.000218981

> <r_epik_Ionization_Penalty_Neutral>
0.00058909

> <r_epik_State_Penalty>
-0

> <r_epik_Charging_Adjusted_Penalty>
0.000218981

> <i_epik_Tot_Q>
1

> <i_epik_Tot_abs_Q>
1

> <r_epik_Metal_State_Penalty>
0.236062

> <b_epik_Metal_Only>
0

> <s_lp_Force_Field>
OPLS_2005

> <r_lp_Energy>
28.9112

> <b_lp_Chiralities_Consistent>
1

> <s_lp_Variant>
AV-unprocessed.smi:1831-1

> <Gold.Version>
5.8.1

> <Gold.Id.Protein>
6NUR|6NUR_protein|mol2

> <Gold.PLP.Fitness>
38.9223

> <Gold.PLP.PLP>
-33.6029

> <Gold.PLP.part.hbond>
-4.7470

> <Gold.PLP.part.metal>
0.0000

> <Gold.PLP.part.buried>
-3.9166

> <Gold.PLP.part.nonpolar>
-26.2414

> <Gold.PLP.part.repulsive>
0.4224

> <Gold.PLP.ligand.clash>
0.0000

> <Gold.PLP.ligand.torsion>
0.6756

> <Gold.PLP.Chemscore.Hbond>
2.2100

> <Gold.PLP.Chemscore.CHOScore>
0.0000

> <Gold.PLP.Chemscore.Metal>
0.0000

> <Gold.Chemscore.Hbonds>
donor molecule, donor type, donor heavy atom, donor atom, acceptor molecule, acceptor atom, score
      L1  H     6    23       P1  7948  0.96
      L1  H     9    24       P1  7948  1.00
      P1  H  7989  7998       L1     3  0.20

> <Gold.PLP.Chemscore.Internal.Correction>
0.0406

> <Gold.Rescore>
     Score         DG    S(hbond)    S(metal)    S(lipo)     H(rot)  DE(clash)    DE(int)     intcor
     16.67     -17.26       1.92        0.00      79.48       1.54       0.06       0.53       ----

> <Gold.Chemscore.Fitness>
16.6681

> <Gold.Chemscore.DG>
-17.2596

> <Gold.Chemscore.ZeroCoef>
-5.4800

> <Gold.Chemscore.Hbond>
1.9226

> <Gold.Chemscore.Metal>
0.0000

> <Gold.Chemscore.Lipo>
79.4836

> <Gold.Chemscore.Internal_Hbond>
0.0000

> <Gold.Chemscore.DEClash>
0.0618

> <Gold.Chemscore.DEInternal>
0.5298

> <Gold.Chemscore.Rot>
1.5396

> <Gold.Chemscore.Internal.Correction>
   9.000000E+99

> <Gold.Chemscore.Hbonds>
donor molecule, donor type, donor heavy atom, donor atom, acceptor molecule, acceptor atom, score
      L1  H     6    23       P1  7948  0.92
      L1  H     9    24       P1  7948  0.99

> <Gold.Chemscore.Hbond.Weighted>
-6.4214

> <Gold.Chemscore.Metal.Weighted>
-0.0000

> <Gold.Chemscore.Lipo.Weighted>
-9.2996

> <Gold.Chemscore.Internal_Hbond.Weighted>
0.0000

> <Gold.Chemscore.DEClash.Weighted>
0.0618

> <Gold.Chemscore.DEInternal.Weighted>
0.5298

> <Gold.Chemscore.Rot.Weighted>
3.9413

> <Gold.Chemscore.Internal.Correction.Weighted>
   9.000000E+99

> <Gold.Protein.RotatedTorsions>
[ 6907 6896 6895 6894 ] final   14.60 input  -60.11 | X-H torsion
[ 7974 7965 7964 7962 ] final  178.56 input  175.53 | X-H torsion
[ 8008 7997 7996 7995 ] final -173.55 input   59.86 | X-H torsion
[ 10167 10162 10161 10158 ] final   82.72 input  -65.29 | X-H torsion
[ 10718 10713 10712 10709 ] final -151.72 input   66.30 | X-H torsion
[ 10763 10752 10751 10750 ] final -169.58 input  -60.55 | X-H torsion
[ 11005 11000 10999 10996 ] final  130.31 input  -57.11 | X-H torsion

> <Gold.Protein.ActiveResidues>
 VAL166  LYS551  ARG553  GLY616  TRP617  ASP618  TYR619  PRO620  LYS621  CYS622 
 ASP623  PHE694  ASN695  SER759  ASP760  ASP761  ALA762  ILE779  LEU786  VAL792 
 PHE793  MET794  SER795  GLU796  ALA797  LYS798  CYS799  TRP800  GLU811  SER814 

> <Gold.Protein.RotatedAtoms>
  151.8047  135.0698  160.0404 H   0  0  0  0  0  0  0  0  0  0  0  0  # atno 6907 bound_to 6896
  152.3063  133.5702  159.5660 H   0  0  0  0  0  0  0  0  0  0  0  0  # atno 6908 bound_to 6896
  150.7298  134.0133  159.3719 H   0  0  0  0  0  0  0  0  0  0  0  0  # atno 6909 bound_to 6896
  144.7155  140.0416  143.6437 H   0  0  0  0  0  0  0  0  0  0  0  0  # atno 7974 bound_to 7965
  155.9589  140.1140  157.0913 H   0  0  0  0  0  0  0  0  0  0  0  0  # atno 8008 bound_to 7997
  154.4127  140.1186  156.5219 H   0  0  0  0  0  0  0  0  0  0  0  0  # atno 8009 bound_to 7997
  155.6746  140.3473  155.4834 H   0  0  0  0  0  0  0  0  0  0  0  0  # atno 8010 bound_to 7997
  139.9258  144.6184  150.8394 H   0  0  0  0  0  0  0  0  0  0  0  0  # atno 10167 bound_to 10162
  156.4629  130.8222  151.2453 H   0  0  0  0  0  0  0  0  0  0  0  0  # atno 10718 bound_to 10713
  154.6508  135.2911  154.9990 H   0  0  0  0  0  0  0  0  0  0  0  0  # atno 10763 bound_to 10752
  154.1083  135.6566  153.4884 H   0  0  0  0  0  0  0  0  0  0  0  0  # atno 10764 bound_to 10752
  153.0375  135.5259  154.7415 H   0  0  0  0  0  0  0  0  0  0  0  0  # atno 10765 bound_to 10752
  139.9664  134.9589  156.9274 H   0  0  0  0  0  0  0  0  0  0  0  0  # atno 11005 bound_to 11000
  146.0019  139.3098  143.0922 LP  0  0  0  0  0  0  0  0  0  0  0  0  # atno 17320 bound_to 7965
  145.8783  140.9378  143.0614 LP  0  0  0  0  0  0  0  0  0  0  0  0  # atno 17321 bound_to 7965
  140.7650  143.3265  151.2505 LP  0  0  0  0  0  0  0  0  0  0  0  0  # atno 17342 bound_to 10162
  139.6823  143.9833  152.2815 LP  0  0  0  0  0  0  0  0  0  0  0  0  # atno 17343 bound_to 10162
  157.7496  131.0101  150.3293 LP  0  0  0  0  0  0  0  0  0  0  0  0  # atno 17370 bound_to 10713
  156.3697  130.3861  149.7185 LP  0  0  0  0  0  0  0  0  0  0  0  0  # atno 17371 bound_to 10713
  140.5386  134.0742  155.7335 LP  0  0  0  0  0  0  0  0  0  0  0  0  # atno 17394 bound_to 11000
  141.1344  133.9247  157.2466 LP  0  0  0  0  0  0  0  0  0  0  0  0  # atno 17395 bound_to 11000

$$$$
