AV-unprocessed.smi:1199|AV-procd|sdf|5016|dock3
  -GOLD-   22720 4 33D 1   1.00000     0.00000
 Structure written by MMmdl.
 41 42  0  0  0  0  0  0  0  0  3 V2000
  150.0599  133.8460  156.1546 C   0  0  0  0  0  0  0  0  0  0  0  0
  149.0330  134.5333  155.2449 C   0  0  2  0  0  0  0  0  0  0  0  0
  148.4946  133.5732  154.1585 C   0  0  0  0  0  0  0  0  0  0  0  0
  147.5657  134.2268  153.1992 N   0  3  0  0  0  0  0  0  0  0  0  0
  147.1335  133.3229  152.1077 C   0  0  0  0  0  0  0  0  0  0  0  0
  146.2439  134.0814  151.1079 C   0  0  0  0  0  0  0  0  0  0  0  0
  145.1342  134.6577  151.7867 O   0  0  0  0  0  0  0  0  0  0  0  0
  145.5423  135.5859  152.7843 C   0  0  0  0  0  0  0  0  0  0  0  0
  146.3876  134.8569  153.8414 C   0  0  0  0  0  0  0  0  0  0  0  0
  149.6353  135.7136  154.6267 N   0  0  0  0  0  0  0  0  0  0  0  0
  150.2870  136.6909  155.2761 C   0  0  0  0  0  0  0  0  0  0  0  0
  150.5768  136.6374  156.4718 O   0  0  0  0  0  0  0  0  0  0  0  0
  150.6452  137.9277  154.4461 C   0  0  0  0  0  0  0  0  0  0  0  0
  150.6563  139.1396  155.2757 N   0  0  0  0  0  0  0  0  0  0  0  0
  151.7061  139.1395  156.2935 N   0  5  0  0  0  0  0  0  0  0  0  0
  151.8155  140.2064  157.1294 C   0  0  0  0  0  0  0  0  0  0  0  0
  152.6582  140.2690  158.0211 O   0  0  0  0  0  0  0  0  0  0  0  0
  150.8979  141.3180  156.9457 C   0  0  0  0  0  0  0  0  0  0  0  0
  149.9558  141.3006  155.9825 C   0  0  0  0  0  0  0  0  0  0  0  0
  149.7916  140.1743  155.0722 C   0  0  0  0  0  0  0  0  0  0  0  0
  148.9381  140.1576  154.1856 O   0  0  0  0  0  0  0  0  0  0  0  0
  149.6273  132.9710  156.6404 H   0  0  0  0  0  0  0  0  0  0  0  0
  150.4030  134.5211  156.9392 H   0  0  0  0  0  0  0  0  0  0  0  0
  150.9344  133.5165  155.5923 H   0  0  0  0  0  0  0  0  0  0  0  0
  148.1997  134.8335  155.8817 H   0  0  0  0  0  0  0  0  0  0  0  0
  149.3480  133.1879  153.5981 H   0  0  0  0  0  0  0  0  0  0  0  0
  148.0121  132.7066  154.6130 H   0  0  0  0  0  0  0  0  0  0  0  0
  148.0052  132.9235  151.5881 H   0  0  0  0  0  0  0  0  0  0  0  0
  146.5904  132.4746  152.5271 H   0  0  0  0  0  0  0  0  0  0  0  0
  146.8145  134.8557  150.5964 H   0  0  0  0  0  0  0  0  0  0  0  0
  145.8745  133.4012  150.3405 H   0  0  0  0  0  0  0  0  0  0  0  0
  146.1028  136.4070  152.3341 H   0  0  0  0  0  0  0  0  0  0  0  0
  144.6562  136.0206  153.2465 H   0  0  0  0  0  0  0  0  0  0  0  0
  145.7881  134.0945  154.3409 H   0  0  0  0  0  0  0  0  0  0  0  0
  146.6997  135.5660  154.6066 H   0  0  0  0  0  0  0  0  0  0  0  0
  149.4664  135.8446  153.6395 H   0  0  0  0  0  0  0  0  0  0  0  0
  151.6116  137.7611  153.9676 H   0  0  0  0  0  0  0  0  0  0  0  0
  149.9332  138.0512  153.6277 H   0  0  0  0  0  0  0  0  0  0  0  0
  150.9739  142.1781  157.5947 H   0  0  0  0  0  0  0  0  0  0  0  0
  149.2960  142.1495  155.8820 H   0  0  0  0  0  0  0  0  0  0  0  0
  148.0887  134.9707  152.7568 H   0  0  0  0  0  0  0  0  0  0  0  0
  1  2  1  0  0  0  0
  1 22  1  0  0  0  0
  1 23  1  0  0  0  0
  1 24  1  0  0  0  0
  2  3  1  0  0  0  0
  2 10  1  0  0  0  0
  2 25  1  0  0  0  0
  3  4  1  0  0  0  0
  3 26  1  0  0  0  0
  3 27  1  0  0  0  0
  4  9  1  0  0  0  0
  4  5  1  0  0  0  0
  4 41  1  0  0  0  0
  5  6  1  0  0  0  0
  5 28  1  0  0  0  0
  5 29  1  0  0  0  0
  6  7  1  0  0  0  0
  6 30  1  0  0  0  0
  6 31  1  0  0  0  0
  7  8  1  0  0  0  0
  8  9  1  0  0  0  0
  8 32  1  0  0  0  0
  8 33  1  0  0  0  0
  9 34  1  0  0  0  0
  9 35  1  0  0  0  0
 10 11  1  0  0  0  0
 10 36  1  0  0  0  0
 11 12  2  0  0  0  0
 11 13  1  0  0  0  0
 13 37  1  0  0  0  0
 13 38  1  0  0  0  0
 13 14  1  0  0  0  0
 14 15  1  0  0  0  0
 14 20  1  0  0  0  0
 15 16  1  0  0  0  0
 16 17  2  0  0  0  0
 16 18  1  0  0  0  0
 18 39  1  0  0  0  0
 18 19  2  0  0  0  0
 19 40  1  0  0  0  0
 19 20  1  0  0  0  0
 20 21  2  0  0  0  0
M  CHG  1   4   1
M  CHG  1  15  -1
M  END
> <s_m_source_file>
AV-unprocessed.smi

> <i_m_source_file_index>
1199

> <i_lp_mmshare_version>
43012

> <i_f3d_flags>
0

> <s_epik_input>
W0NIMl0xW0NIMl1PW0NIMl1bQ0gyXU4xW0NIMl1bQ0BASF0oW0NIM10pW05IXUMoPU8pW0NIMl1uMltuSF1jKD1PKVtjSF1bY0hdYzI9Tw==

> <s_epik_cmdline>
J2VwaWtfcHl0aG9uJywgJy1waCcsICc3LjAnLCAnLXRuJywgJzgnLCAnLW1hJywgJzIwMCcsICctbWV0YWxfYmluZGluZycsICctaW1hZScsICc8aW5maWxlLm1hZT4nLCAnLW9tYWUnLCAnPG91dGZpbGUubWFlPic=

> <r_lp_tautomer_probability>
1

> <r_epik_Ionization_Penalty>
0.741876

> <r_epik_Ionization_Penalty_Charging>
0.741876

> <r_epik_Ionization_Penalty_Neutral>
9.12373e-08

> <r_epik_State_Penalty>
0.692284

> <r_epik_Charging_Adjusted_Penalty>
1.43416

> <i_epik_Tot_Q>
0

> <i_epik_Tot_abs_Q>
2

> <r_epik_Metal_State_Penalty>
0.692284

> <b_epik_Metal_Only>
0

> <s_lp_Force_Field>
OPLS_2005

> <r_lp_Energy>
28.0654

> <b_lp_Chiralities_Consistent>
1

> <s_lp_Variant>
AV-unprocessed.smi:1199-3

> <Gold.Version>
5.8.1

> <Gold.Id.Protein>
6NUR|6NUR_protein|mol2

> <Gold.PLP.Fitness>
43.1143

> <Gold.PLP.PLP>
-32.0885

> <Gold.PLP.part.hbond>
-3.3281

> <Gold.PLP.part.metal>
0.0000

> <Gold.PLP.part.buried>
-4.5001

> <Gold.PLP.part.nonpolar>
-26.0971

> <Gold.PLP.part.repulsive>
0.9778

> <Gold.PLP.ligand.clash>
0.0000

> <Gold.PLP.ligand.torsion>
0.4681

> <Gold.PLP.Chemscore.Hbond>
3.9600

> <Gold.PLP.Chemscore.CHOScore>
0.0000

> <Gold.PLP.Chemscore.Metal>
0.0000

> <Gold.Chemscore.Hbonds>
donor molecule, donor type, donor heavy atom, donor atom, acceptor molecule, acceptor atom, score
      L1  H     4    41       P1  7948  2.00
      L1  H    10    36       P1  7948  1.00
      P1  H  7997  8008       L1    17  0.60

> <Gold.PLP.Chemscore.Internal.Correction>
0.0819

> <Gold.Rescore>
     Score         DG    S(hbond)    S(metal)    S(lipo)     H(rot)  DE(clash)    DE(int)     intcor
      7.86     -11.00       1.85        0.00      46.45       2.37       0.00       3.15       ----

> <Gold.Chemscore.Fitness>
7.8553

> <Gold.Chemscore.DG>
-11.0024

> <Gold.Chemscore.ZeroCoef>
-5.4800

> <Gold.Chemscore.Hbond>
1.8463

> <Gold.Chemscore.Metal>
0.0000

> <Gold.Chemscore.Lipo>
46.4509

> <Gold.Chemscore.Internal_Hbond>
0.0000

> <Gold.Chemscore.DEClash>
0.0000

> <Gold.Chemscore.DEInternal>
3.1471

> <Gold.Chemscore.Rot>
2.3747

> <Gold.Chemscore.Internal.Correction>
   9.000000E+99

> <Gold.Chemscore.Hbonds>
donor molecule, donor type, donor heavy atom, donor atom, acceptor molecule, acceptor atom, score
      L1  H     4    41       P1  7948  0.88
      L1  H    10    36       P1  7948  0.45
      P1  H  7997  8008       L1    17  0.13

> <Gold.Chemscore.Hbond.Weighted>
-6.1667

> <Gold.Chemscore.Metal.Weighted>
-0.0000

> <Gold.Chemscore.Lipo.Weighted>
-5.4348

> <Gold.Chemscore.Internal_Hbond.Weighted>
0.0000

> <Gold.Chemscore.DEClash.Weighted>
0.0000

> <Gold.Chemscore.DEInternal.Weighted>
3.1471

> <Gold.Chemscore.Rot.Weighted>
6.0791

> <Gold.Chemscore.Internal.Correction.Weighted>
   9.000000E+99

> <Gold.Protein.RotatedTorsions>
[ 6907 6896 6895 6894 ] final   20.38 input  -60.11 | X-H torsion
[ 7974 7965 7964 7962 ] final   30.00 input  175.53 | X-H torsion
[ 8008 7997 7996 7995 ] final  -70.04 input   59.86 | X-H torsion
[ 10167 10162 10161 10158 ] final  -23.21 input  -65.29 | X-H torsion
[ 10718 10713 10712 10709 ] final -129.34 input   66.30 | X-H torsion
[ 10763 10752 10751 10750 ] final   66.31 input  -60.55 | X-H torsion
[ 11005 11000 10999 10996 ] final   41.42 input  -57.11 | X-H torsion

> <Gold.Protein.ActiveResidues>
 VAL166  LYS551  ARG553  GLY616  TRP617  ASP618  TYR619  PRO620  LYS621  CYS622 
 ASP623  PHE694  ASN695  SER759  ASP760  ASP761  ALA762  ILE779  LEU786  VAL792 
 PHE793  MET794  SER795  GLU796  ALA797  LYS798  CYS799  TRP800  GLU811  SER814 

> <Gold.Protein.RotatedAtoms>
  151.8955  135.0399  160.0501 H   0  0  0  0  0  0  0  0  0  0  0  0  # atno 6907 bound_to 6896
  152.2401  133.5124  159.5273 H   0  0  0  0  0  0  0  0  0  0  0  0  # atno 6908 bound_to 6896
  150.7051  134.1017  159.4011 H   0  0  0  0  0  0  0  0  0  0  0  0  # atno 6909 bound_to 6896
  146.1638  139.6847  142.9015 H   0  0  0  0  0  0  0  0  0  0  0  0  # atno 7974 bound_to 7965
  154.4982  140.0842  156.7742 H   0  0  0  0  0  0  0  0  0  0  0  0  # atno 8008 bound_to 7997
  155.4065  140.3439  155.4242 H   0  0  0  0  0  0  0  0  0  0  0  0  # atno 8009 bound_to 7997
  156.1422  140.1533  156.8890 H   0  0  0  0  0  0  0  0  0  0  0  0  # atno 8010 bound_to 7997
  140.7287  143.4464  151.0580 H   0  0  0  0  0  0  0  0  0  0  0  0  # atno 10167 bound_to 10162
  156.2037  130.6874  151.0570 H   0  0  0  0  0  0  0  0  0  0  0  0  # atno 10718 bound_to 10713
  153.0134  135.5325  154.6803 H   0  0  0  0  0  0  0  0  0  0  0  0  # atno 10763 bound_to 10752
  154.5965  135.2864  155.0583 H   0  0  0  0  0  0  0  0  0  0  0  0  # atno 10764 bound_to 10752
  154.1656  135.6540  153.5049 H   0  0  0  0  0  0  0  0  0  0  0  0  # atno 10765 bound_to 10752
  140.1836  134.4073  155.8186 H   0  0  0  0  0  0  0  0  0  0  0  0  # atno 11005 bound_to 11000
  145.4520  141.0429  143.2799 LP  0  0  0  0  0  0  0  0  0  0  0  0  # atno 17320 bound_to 7965
  144.8064  139.6044  143.7049 LP  0  0  0  0  0  0  0  0  0  0  0  0  # atno 17321 bound_to 7965
  139.8136  143.7916  152.3173 LP  0  0  0  0  0  0  0  0  0  0  0  0  # atno 17342 bound_to 10162
  139.7975  144.7387  150.9871 LP  0  0  0  0  0  0  0  0  0  0  0  0  # atno 17343 bound_to 10162
  157.7000  131.0779  150.6849 LP  0  0  0  0  0  0  0  0  0  0  0  0  # atno 17370 bound_to 10713
  156.6907  130.4594  149.5600 LP  0  0  0  0  0  0  0  0  0  0  0  0  # atno 17371 bound_to 10713
  141.2224  133.7012  156.7974 LP  0  0  0  0  0  0  0  0  0  0  0  0  # atno 17394 bound_to 11000
  140.2239  134.8736  157.3406 LP  0  0  0  0  0  0  0  0  0  0  0  0  # atno 17395 bound_to 11000

$$$$
