AV-unprocessed.smi:2937|AV-procd|sdf|11259|dock2
  -GOLD-   2272016153D 1   1.00000     0.00000
 Structure written by MMmdl.
 33 34  0  0  0  0  0  0  0  0  1 V2000
  151.6538  137.9023  154.8486 C   0  0  0  0  0  0  0  0  0  0  0  0
  151.8510  138.4895  156.1298 O   0  0  0  0  0  0  0  0  0  0  0  0
  151.3631  139.7624  156.3502 C   0  0  0  0  0  0  0  0  0  0  0  0
  150.5949  140.3426  155.3951 N   0  0  0  0  0  0  0  0  0  0  0  0
  150.1483  141.5722  155.6435 C   0  0  0  0  0  0  0  0  0  0  0  0
  149.3752  142.1543  154.6690 N   0  0  0  0  0  0  0  0  0  0  0  0
  150.3723  142.2964  156.7387 N   0  0  0  0  0  0  0  0  0  0  0  0
  151.1329  141.7396  157.7128 C   0  0  0  0  0  0  0  0  0  0  0  0
  151.3487  142.4871  158.8858 N   0  0  0  0  0  0  0  0  0  0  0  0
  150.5673  143.7166  158.9378 C   0  0  0  0  0  0  0  0  0  0  0  0
  150.6705  144.3459  160.3379 C   0  0  0  0  0  0  0  0  0  0  0  0
  152.0402  144.5536  160.6724 O   0  0  0  0  0  0  0  0  0  0  0  0
  152.7783  143.3349  160.6915 C   0  0  0  0  0  0  0  0  0  0  0  0
  152.7349  142.6855  159.2980 C   0  0  0  0  0  0  0  0  0  0  0  0
  151.6728  140.4340  157.5568 C   0  0  0  0  0  0  0  0  0  0  0  0
  152.5619  139.7704  158.6009 C   0  0  0  0  0  0  0  0  0  0  0  0
  153.8009  139.3497  158.0710 O   0  0  0  0  0  0  0  0  0  0  0  0
  152.0919  136.9043  154.8384 H   0  0  0  0  0  0  0  0  0  0  0  0
  152.1377  138.4841  154.0630 H   0  0  0  0  0  0  0  0  0  0  0  0
  150.5927  137.7999  154.6167 H   0  0  0  0  0  0  0  0  0  0  0  0
  149.1689  141.6564  153.8153 H   0  0  0  0  0  0  0  0  0  0  0  0
  149.0172  143.0903  154.7921 H   0  0  0  0  0  0  0  0  0  0  0  0
  150.9448  144.4117  158.1865 H   0  0  0  0  0  0  0  0  0  0  0  0
  149.5230  143.5238  158.6946 H   0  0  0  0  0  0  0  0  0  0  0  0
  150.1503  145.3036  160.3587 H   0  0  0  0  0  0  0  0  0  0  0  0
  150.1957  143.7084  161.0853 H   0  0  0  0  0  0  0  0  0  0  0  0
  153.8089  143.5480  160.9753 H   0  0  0  0  0  0  0  0  0  0  0  0
  152.3710  142.6622  161.4480 H   0  0  0  0  0  0  0  0  0  0  0  0
  153.2590  141.7290  159.3130 H   0  0  0  0  0  0  0  0  0  0  0  0
  153.2466  143.3271  158.5790 H   0  0  0  0  0  0  0  0  0  0  0  0
  152.7524  140.4761  159.4100 H   0  0  0  0  0  0  0  0  0  0  0  0
  152.0640  138.9165  159.0594 H   0  0  0  0  0  0  0  0  0  0  0  0
  154.3951  139.1887  158.7881 H   0  0  0  0  0  0  0  0  0  0  0  0
  1  2  1  0  0  0  0
  1 18  1  0  0  0  0
  1 19  1  0  0  0  0
  1 20  1  0  0  0  0
  2  3  1  0  0  0  0
  3 15  1  0  0  0  0
  3  4  2  0  0  0  0
  4  5  1  0  0  0  0
  5  6  1  0  0  0  0
  5  7  2  0  0  0  0
  6 21  1  0  0  0  0
  6 22  1  0  0  0  0
  7  8  1  0  0  0  0
  8  9  1  0  0  0  0
  8 15  2  0  0  0  0
  9 14  1  0  0  0  0
  9 10  1  0  0  0  0
 10 11  1  0  0  0  0
 10 23  1  0  0  0  0
 10 24  1  0  0  0  0
 11 12  1  0  0  0  0
 11 25  1  0  0  0  0
 11 26  1  0  0  0  0
 12 13  1  0  0  0  0
 13 14  1  0  0  0  0
 13 27  1  0  0  0  0
 13 28  1  0  0  0  0
 14 29  1  0  0  0  0
 14 30  1  0  0  0  0
 15 16  1  0  0  0  0
 16 17  1  0  0  0  0
 16 31  1  0  0  0  0
 16 32  1  0  0  0  0
 17 33  1  0  0  0  0
M  END
> <s_m_source_file>
AV-unprocessed.smi

> <i_m_source_file_index>
2937

> <i_lp_mmshare_version>
43012

> <i_f3d_flags>
0

> <s_epik_input>
W0NIM11PYzFuYyhbTkgyXSluYyhjMVtDSDJdW09IXSlOMltDSDJdW0NIMl1PW0NIMl1bQ0gyXTI=

> <s_epik_cmdline>
J2VwaWtfcHl0aG9uJywgJy1waCcsICc3LjAnLCAnLXRuJywgJzgnLCAnLW1hJywgJzIwMCcsICctbWV0YWxfYmluZGluZycsICctaW1hZScsICc8aW5maWxlLm1hZT4nLCAnLW9tYWUnLCAnPG91dGZpbGUubWFlPic=

> <r_lp_tautomer_probability>
1

> <r_epik_Ionization_Penalty>
0.000679252

> <r_epik_Ionization_Penalty_Charging>
0

> <r_epik_Ionization_Penalty_Neutral>
0.000679252

> <r_epik_State_Penalty>
0.00040271

> <r_epik_Charging_Adjusted_Penalty>
0.00040271

> <i_epik_Tot_Q>
0

> <i_epik_Tot_abs_Q>
0

> <r_epik_Metal_State_Penalty>
-0

> <b_epik_Metal_Only>
0

> <s_lp_Force_Field>
OPLS_2005

> <r_lp_Energy>
14.7013

> <b_lp_Chiralities_Consistent>
1

> <s_lp_Variant>
AV-unprocessed.smi:2937-1

> <Gold.Version>
5.8.1

> <Gold.Id.Protein>
6NUR|6NUR_protein|mol2

> <Gold.PLP.Fitness>
35.0504

> <Gold.PLP.PLP>
-28.1809

> <Gold.PLP.part.hbond>
-2.3140

> <Gold.PLP.part.metal>
0.0000

> <Gold.PLP.part.buried>
-5.5015

> <Gold.PLP.part.nonpolar>
-21.5945

> <Gold.PLP.part.repulsive>
2.4227

> <Gold.PLP.ligand.clash>
0.0000

> <Gold.PLP.ligand.torsion>
0.1676

> <Gold.PLP.Chemscore.Hbond>
2.3413

> <Gold.PLP.Chemscore.CHOScore>
0.0000

> <Gold.PLP.Chemscore.Metal>
0.0000

> <Gold.Chemscore.Hbonds>
donor molecule, donor type, donor heavy atom, donor atom, acceptor molecule, acceptor atom, score
      L1  H     6    22       P1  8028  1.00
      P1  H  7989  7998       L1     4  0.39
      P1  H  7997  8009       L1    17  1.00

> <Gold.PLP.Chemscore.Internal.Correction>
0.1809

> <Gold.Rescore>
     Score         DG    S(hbond)    S(metal)    S(lipo)     H(rot)  DE(clash)    DE(int)     intcor
     12.66     -12.93       1.91        0.00      59.65       2.31       0.02       0.25       ----

> <Gold.Chemscore.Fitness>
12.6614

> <Gold.Chemscore.DG>
-12.9320

> <Gold.Chemscore.ZeroCoef>
-5.4800

> <Gold.Chemscore.Hbond>
1.9136

> <Gold.Chemscore.Metal>
0.0000

> <Gold.Chemscore.Lipo>
59.6482

> <Gold.Chemscore.Internal_Hbond>
0.0000

> <Gold.Chemscore.DEClash>
0.0174

> <Gold.Chemscore.DEInternal>
0.2532

> <Gold.Chemscore.Rot>
2.3118

> <Gold.Chemscore.Internal.Correction>
   9.000000E+99

> <Gold.Chemscore.Hbonds>
donor molecule, donor type, donor heavy atom, donor atom, acceptor molecule, acceptor atom, score
      L1  H     6    22       P1  8028  0.98
      P1  H  7989  7998       L1     4  0.04
      P1  H  7997  8009       L1    17  0.74

> <Gold.Chemscore.Hbond.Weighted>
-6.3913

> <Gold.Chemscore.Metal.Weighted>
-0.0000

> <Gold.Chemscore.Lipo.Weighted>
-6.9788

> <Gold.Chemscore.Internal_Hbond.Weighted>
0.0000

> <Gold.Chemscore.DEClash.Weighted>
0.0174

> <Gold.Chemscore.DEInternal.Weighted>
0.2532

> <Gold.Chemscore.Rot.Weighted>
5.9181

> <Gold.Chemscore.Internal.Correction.Weighted>
   9.000000E+99

> <Gold.Protein.RotatedTorsions>
[ 6907 6896 6895 6894 ] final  -45.12 input  -60.11 | X-H torsion
[ 7974 7965 7964 7962 ] final   89.62 input  175.53 | X-H torsion
[ 8008 7997 7996 7995 ] final  165.59 input   59.86 | X-H torsion
[ 10167 10162 10161 10158 ] final  -96.93 input  -65.29 | X-H torsion
[ 10718 10713 10712 10709 ] final   85.28 input   66.30 | X-H torsion
[ 10763 10752 10751 10750 ] final  -75.27 input  -60.55 | X-H torsion
[ 11005 11000 10999 10996 ] final   -7.57 input  -57.11 | X-H torsion

> <Gold.Protein.ActiveResidues>
 VAL166  LYS551  ARG553  GLY616  TRP617  ASP618  TYR619  PRO620  LYS621  CYS622 
 ASP623  PHE694  ASN695  SER759  ASP760  ASP761  ALA762  ILE779  LEU786  VAL792 
 PHE793  MET794  SER795  GLU796  ALA797  LYS798  CYS799  TRP800  GLU811  SER814 

> <Gold.Protein.RotatedAtoms>
  150.9253  134.8670  159.7515 H   0  0  0  0  0  0  0  0  0  0  0  0  # atno 6907 bound_to 6896
  152.5012  134.4158  159.9474 H   0  0  0  0  0  0  0  0  0  0  0  0  # atno 6908 bound_to 6896
  151.4188  133.3665  159.2788 H   0  0  0  0  0  0  0  0  0  0  0  0  # atno 6909 bound_to 6896
  145.5299  139.2283  143.2624 H   0  0  0  0  0  0  0  0  0  0  0  0  # atno 7974 bound_to 7965
  156.1788  140.1666  156.8313 H   0  0  0  0  0  0  0  0  0  0  0  0  # atno 8008 bound_to 7997
  154.5337  140.0751  156.8423 H   0  0  0  0  0  0  0  0  0  0  0  0  # atno 8009 bound_to 7997
  155.3355  140.3381  155.4241 H   0  0  0  0  0  0  0  0  0  0  0  0  # atno 8010 bound_to 7997
  140.2887  143.3235  152.0368 H   0  0  0  0  0  0  0  0  0  0  0  0  # atno 10167 bound_to 10162
  157.6912  131.0168  150.2798 H   0  0  0  0  0  0  0  0  0  0  0  0  # atno 10718 bound_to 10713
  154.4843  135.5837  153.6412 H   0  0  0  0  0  0  0  0  0  0  0  0  # atno 10763 bound_to 10752
  152.9852  135.6097  154.3206 H   0  0  0  0  0  0  0  0  0  0  0  0  # atno 10764 bound_to 10752
  154.3100  135.2845  155.2549 H   0  0  0  0  0  0  0  0  0  0  0  0  # atno 10765 bound_to 10752
  140.7142  133.8883  155.8773 H   0  0  0  0  0  0  0  0  0  0  0  0  # atno 11005 bound_to 11000
  146.2051  140.6115  142.9085 LP  0  0  0  0  0  0  0  0  0  0  0  0  # atno 17320 bound_to 7965
  144.7631  140.5468  143.6722 LP  0  0  0  0  0  0  0  0  0  0  0  0  # atno 17321 bound_to 7965
  139.4943  144.6541  151.6612 LP  0  0  0  0  0  0  0  0  0  0  0  0  # atno 17342 bound_to 10162
  140.5751  144.0043  150.6237 LP  0  0  0  0  0  0  0  0  0  0  0  0  # atno 17343 bound_to 10162
  156.3347  130.3806  149.7460 LP  0  0  0  0  0  0  0  0  0  0  0  0  # atno 17370 bound_to 10713
  156.4989  130.8119  151.3124 LP  0  0  0  0  0  0  0  0  0  0  0  0  # atno 17371 bound_to 10713
  141.0059  134.1087  157.4271 LP  0  0  0  0  0  0  0  0  0  0  0  0  # atno 17394 bound_to 11000
  139.8864  135.0081  156.6496 LP  0  0  0  0  0  0  0  0  0  0  0  0  # atno 17395 bound_to 11000

$$$$
