AV-unprocessed.smi:38|AV-procd|sdf|335|dock1
  -GOLD-   2262016173D 1   1.00000     0.00000
 Structure written by MMmdl.
 28 29  0  0  0  0  0  0  0  0  1 V2000
  151.9002  137.1634  160.1255 O   0  0  0  0  0  0  0  0  0  0  0  0
  151.6473  137.6409  159.0211 C   0  0  0  0  0  0  0  0  0  0  0  0
  152.6849  138.0359  158.1713 N   0  0  0  0  0  0  0  0  0  0  0  0
  152.5275  138.5859  156.8974 C   0  0  0  0  0  0  0  0  0  0  0  0
  153.5199  138.8842  156.2346 O   0  0  0  0  0  0  0  0  0  0  0  0
  151.2048  138.7619  156.4314 N   0  0  0  0  0  0  0  0  0  0  0  0
  150.9549  139.3628  155.0669 C   0  0  1  0  0  0  0  0  0  0  0  0
  150.1378  138.4099  154.1886 C   0  0  0  0  0  0  0  0  0  0  0  0
  148.7760  139.0789  154.1584 C   0  0  2  0  0  0  0  0  0  0  0  0
  148.1122  138.8091  152.9406 O   0  0  0  0  0  0  0  0  0  0  0  0
  149.1316  140.5600  154.3143 C   0  0  1  0  0  0  0  0  0  0  0  0
  147.9867  141.4096  154.8870 C   0  0  0  0  0  0  0  0  0  0  0  0
  147.9947  142.6926  154.2988 O   0  0  0  0  0  0  0  0  0  0  0  0
  150.2197  140.5372  155.2328 O   0  0  0  0  0  0  0  0  0  0  0  0
  150.1433  138.3828  157.2419 C   0  0  0  0  0  0  0  0  0  0  0  0
  150.3096  137.8480  158.4744 C   0  0  0  0  0  0  0  0  0  0  0  0
  149.2317  137.5062  159.2006 F   0  0  0  0  0  0  0  0  0  0  0  0
  153.6289  137.9117  158.5068 H   0  0  0  0  0  0  0  0  0  0  0  0
  151.9201  139.6191  154.6285 H   0  0  0  0  0  0  0  0  0  0  0  0
  148.1694  138.7354  154.9970 H   0  0  0  0  0  0  0  0  0  0  0  0
  149.4827  140.9555  153.3588 H   0  0  0  0  0  0  0  0  0  0  0  0
  150.5912  138.3919  153.1961 H   0  0  0  0  0  0  0  0  0  0  0  0
  150.1192  137.3931  154.5831 H   0  0  0  0  0  0  0  0  0  0  0  0
  148.7012  138.9992  152.2263 H   0  0  0  0  0  0  0  0  0  0  0  0
  147.0254  140.9509  154.6544 H   0  0  0  0  0  0  0  0  0  0  0  0
  148.0547  141.4872  155.9726 H   0  0  0  0  0  0  0  0  0  0  0  0
  148.2858  143.3183  154.9443 H   0  0  0  0  0  0  0  0  0  0  0  0
  149.1334  138.5179  156.8842 H   0  0  0  0  0  0  0  0  0  0  0  0
  1  2  2  0  0  0  0
  2 16  1  0  0  0  0
  2  3  1  0  0  0  0
  3 18  1  0  0  0  0
  3  4  1  0  0  0  0
  4  5  2  0  0  0  0
  4  6  1  0  0  0  0
  6  7  1  0  0  0  0
  6 15  1  0  0  0  0
  7 19  1  0  0  0  0
  7 14  1  0  0  0  0
  7  8  1  0  0  0  0
  8  9  1  0  0  0  0
  8 22  1  0  0  0  0
  8 23  1  0  0  0  0
  9 20  1  0  0  0  0
  9 10  1  0  0  0  0
  9 11  1  0  0  0  0
 10 24  1  0  0  0  0
 11 21  1  0  0  0  0
 11 12  1  0  0  0  0
 11 14  1  0  0  0  0
 12 13  1  0  0  0  0
 12 25  1  0  0  0  0
 12 26  1  0  0  0  0
 13 27  1  0  0  0  0
 15 16  2  0  0  0  0
 15 28  1  0  0  0  0
 16 17  1  0  0  0  0
M  END
> <s_m_source_file>
AV-unprocessed.smi

> <i_m_source_file_index>
38

> <i_lp_mmshare_version>
43012

> <i_f3d_flags>
0

> <s_epik_input>
Tz1jMVtuSF1jKD1PKW4oW2NIXWMxRilbQ0BIXTJbQ0gyXVtDQEhdKFtPSF0pW0NASF0oTzIpW0NIMl1bT0hd

> <s_epik_cmdline>
J2VwaWtfcHl0aG9uJywgJy1waCcsICc3LjAnLCAnLXRuJywgJzgnLCAnLW1hJywgJzIwMCcsICctbWV0YWxfYmluZGluZycsICctaW1hZScsICc8aW5maWxlLm1hZT4nLCAnLW9tYWUnLCAnPG91dGZpbGUubWFlPic=

> <r_lp_tautomer_probability>
0.999537

> <r_epik_Ionization_Penalty>
0.0357432

> <r_epik_Ionization_Penalty_Charging>
0.0357431

> <r_epik_Ionization_Penalty_Neutral>
1.19946e-07

> <r_epik_State_Penalty>
0.0298169

> <r_epik_Charging_Adjusted_Penalty>
0.06556

> <i_epik_Tot_Q>
0

> <i_epik_Tot_abs_Q>
0

> <r_epik_Metal_State_Penalty>
2.348

> <b_epik_Metal_Only>
0

> <s_epik_Chemistry_Notes>
This compound contains an acetal/aminal-like group ( X-CH(R)-Y where X, Y are N, S, or O) that may be acid/base labile, releasing an aldehyde.

> <s_lp_Force_Field>
OPLS_2005

> <r_lp_Energy>
27.0042

> <b_lp_Chiralities_Consistent>
1

> <s_lp_Variant>
AV-unprocessed.smi:38-1

> <Gold.Version>
5.8.1

> <Gold.Id.Protein>
6NUR|6NUR_protein|mol2

> <Gold.PLP.Fitness>
37.3277

> <Gold.PLP.PLP>
-26.5757

> <Gold.PLP.part.hbond>
-7.4176

> <Gold.PLP.part.metal>
0.0000

> <Gold.PLP.part.buried>
1.5016

> <Gold.PLP.part.nonpolar>
-19.4391

> <Gold.PLP.part.repulsive>
0.1860

> <Gold.PLP.ligand.clash>
0.0000

> <Gold.PLP.ligand.torsion>
0.5315

> <Gold.PLP.Chemscore.Hbond>
3.9353

> <Gold.PLP.Chemscore.CHOScore>
0.0000

> <Gold.PLP.Chemscore.Metal>
0.0000

> <Gold.Chemscore.Hbonds>
donor molecule, donor type, donor heavy atom, donor atom, acceptor molecule, acceptor atom, score
      L1  H    10    24       P1  7957  1.00
      L1  H    13    27       P1  8028  1.00
      P1  H  6896  6907       L1     1  1.00
      P1  H  7997  8010       L1     5  0.78

> <Gold.PLP.Chemscore.Internal.Correction>
0.0092

> <Gold.Rescore>
     Score         DG    S(hbond)    S(metal)    S(lipo)     H(rot)  DE(clash)    DE(int)     intcor
     13.82     -14.48       3.75        0.00      33.46       2.91       0.19       0.47       ----

> <Gold.Chemscore.Fitness>
13.8189

> <Gold.Chemscore.DG>
-14.4758

> <Gold.Chemscore.ZeroCoef>
-5.4800

> <Gold.Chemscore.Hbond>
3.7547

> <Gold.Chemscore.Metal>
0.0000

> <Gold.Chemscore.Lipo>
33.4620

> <Gold.Chemscore.Internal_Hbond>
0.0000

> <Gold.Chemscore.DEClash>
0.1853

> <Gold.Chemscore.DEInternal>
0.4716

> <Gold.Chemscore.Rot>
2.9141

> <Gold.Chemscore.Internal.Correction>
   9.000000E+99

> <Gold.Chemscore.Hbonds>
donor molecule, donor type, donor heavy atom, donor atom, acceptor molecule, acceptor atom, score
      L1  H    10    24       P1  7957  0.97
      L1  H    13    27       P1  8028  0.97
      P1  H  6896  6907       L1     1  0.67
      P1  H  7997  8010       L1     5  0.73

> <Gold.Chemscore.Hbond.Weighted>
-12.5408

> <Gold.Chemscore.Metal.Weighted>
-0.0000

> <Gold.Chemscore.Lipo.Weighted>
-3.9151

> <Gold.Chemscore.Internal_Hbond.Weighted>
0.0000

> <Gold.Chemscore.DEClash.Weighted>
0.1853

> <Gold.Chemscore.DEInternal.Weighted>
0.4716

> <Gold.Chemscore.Rot.Weighted>
7.4601

> <Gold.Chemscore.Internal.Correction.Weighted>
   9.000000E+99

> <Gold.Protein.RotatedTorsions>
[ 6907 6896 6895 6894 ] final    6.61 input  -60.11 | X-H torsion
[ 7974 7965 7964 7962 ] final  141.15 input  175.53 | X-H torsion
[ 8008 7997 7996 7995 ] final   91.54 input   59.86 | X-H torsion
[ 10167 10162 10161 10158 ] final   49.30 input  -65.29 | X-H torsion
[ 10718 10713 10712 10709 ] final    2.37 input   66.30 | X-H torsion
[ 10763 10752 10751 10750 ] final  -79.76 input  -60.55 | X-H torsion
[ 11005 11000 10999 10996 ] final  -45.72 input  -57.11 | X-H torsion

> <Gold.Protein.ActiveResidues>
 VAL166  LYS551  ARG553  GLY616  TRP617  ASP618  TYR619  PRO620  LYS621  CYS622 
 ASP623  PHE694  ASN695  SER759  ASP760  ASP761  ALA762  ILE779  LEU786  VAL792 
 PHE793  MET794  SER795  GLU796  ALA797  LYS798  CYS799  TRP800  GLU811  SER814 

> <Gold.Protein.RotatedAtoms>
  151.6765  135.0968  160.0207 H   0  0  0  0  0  0  0  0  0  0  0  0  # atno 6907 bound_to 6896
  152.3861  133.6608  159.6208 H   0  0  0  0  0  0  0  0  0  0  0  0  # atno 6908 bound_to 6896
  150.7786  133.8950  159.3366 H   0  0  0  0  0  0  0  0  0  0  0  0  # atno 6909 bound_to 6896
  144.9122  139.5278  143.5703 H   0  0  0  0  0  0  0  0  0  0  0  0  # atno 7974 bound_to 7965
  156.0250  140.3336  155.7078 H   0  0  0  0  0  0  0  0  0  0  0  0  # atno 8008 bound_to 7997
  155.5968  140.0651  157.2761 H   0  0  0  0  0  0  0  0  0  0  0  0  # atno 8009 bound_to 7997
  154.4330  140.1817  156.1119 H   0  0  0  0  0  0  0  0  0  0  0  0  # atno 8010 bound_to 7997
  140.2843  144.3120  150.6256 H   0  0  0  0  0  0  0  0  0  0  0  0  # atno 10167 bound_to 10162
  156.8620  130.5590  149.5662 H   0  0  0  0  0  0  0  0  0  0  0  0  # atno 10718 bound_to 10713
  154.5427  135.5684  153.6853 H   0  0  0  0  0  0  0  0  0  0  0  0  # atno 10763 bound_to 10752
  152.9968  135.6232  154.2480 H   0  0  0  0  0  0  0  0  0  0  0  0  # atno 10764 bound_to 10752
  154.2411  135.2862  155.2833 H   0  0  0  0  0  0  0  0  0  0  0  0  # atno 10765 bound_to 10752
  141.0533  133.6735  156.3053 H   0  0  0  0  0  0  0  0  0  0  0  0  # atno 11005 bound_to 11000
  146.3164  139.7937  142.8980 LP  0  0  0  0  0  0  0  0  0  0  0  0  # atno 17320 bound_to 7965
  145.3435  141.0293  143.3379 LP  0  0  0  0  0  0  0  0  0  0  0  0  # atno 17321 bound_to 7965
  140.5786  143.2174  151.7470 LP  0  0  0  0  0  0  0  0  0  0  0  0  # atno 17342 bound_to 10162
  139.4954  144.4113  152.0077 LP  0  0  0  0  0  0  0  0  0  0  0  0  # atno 17343 bound_to 10162
  156.0772  130.5791  150.9495 LP  0  0  0  0  0  0  0  0  0  0  0  0  # atno 17370 bound_to 10713
  157.6245  131.0927  150.8560 LP  0  0  0  0  0  0  0  0  0  0  0  0  # atno 17371 bound_to 10713
  140.6012  134.5552  157.5518 LP  0  0  0  0  0  0  0  0  0  0  0  0  # atno 17394 bound_to 11000
  139.9369  134.7859  156.0780 LP  0  0  0  0  0  0  0  0  0  0  0  0  # atno 17395 bound_to 11000

$$$$
