AV-unprocessed.smi:303|AV-procd|sdf|2274|dock7
  -GOLD-   2262022163D 1   1.00000     0.00000
 Structure written by MMmdl.
 45 46  0  0  0  0  0  0  0  0  1 V2000
  153.0502  142.1787  159.5007 C   0  0  0  0  0  0  0  0  0  0  0  0
  151.7489  141.9033  158.7377 C   0  0  0  0  0  0  0  0  0  0  0  0
  151.7478  140.2287  157.9537 S   0  0  0  0  0  0  0  0  0  0  0  0
  153.1149  139.6895  158.0200 O   0  0  0  0  0  0  0  0  0  0  0  0
  150.6279  139.4476  158.5020 O   0  0  0  0  0  0  0  0  0  0  0  0
  151.3951  140.5434  156.2774 N   0  0  0  0  0  0  0  0  0  0  0  0
  151.5930  139.4807  155.2733 C   0  0  0  0  0  0  0  0  0  0  0  0
  150.2555  138.8399  154.8633 C   0  0  0  0  0  0  0  0  0  0  0  0
  149.2569  139.9016  154.3684 C   0  0  0  0  0  0  0  0  0  0  0  0
  147.9120  139.2707  153.9884 C   0  0  0  0  0  0  0  0  0  0  0  0
  147.0189  139.1618  154.8295 O   0  0  0  0  0  0  0  0  0  0  0  0
  147.7744  138.8825  152.7104 N   0  0  0  0  0  0  0  0  0  0  0  0
  146.5535  138.3480  152.1117 C   0  0  0  0  0  0  0  0  0  0  0  0
  145.7857  137.4272  153.0808 C   0  0  0  0  0  0  0  0  0  0  0  0
  145.2044  136.1912  152.4152 C   0  0  0  0  0  0  0  0  0  0  0  0
  145.4391  135.9292  151.0478 C   0  0  0  0  0  0  0  0  0  0  0  0
  144.8423  134.7920  150.4707 C   0  0  0  0  0  0  0  0  0  0  0  0
  144.0429  133.9615  151.2794 C   0  0  0  0  0  0  0  0  0  0  0  0
  143.8765  134.3063  152.6357 C   0  0  0  0  0  0  0  0  0  0  0  0
  144.4421  135.3956  153.1985 N   0  0  0  0  0  0  0  0  0  0  0  0
  149.0670  140.9651  155.4653 C   0  0  0  0  0  0  0  0  0  0  0  0
  150.4105  141.5780  155.8973 C   0  0  0  0  0  0  0  0  0  0  0  0
  153.0199  143.1591  159.9759 H   0  0  0  0  0  0  0  0  0  0  0  0
  153.9103  142.1624  158.8310 H   0  0  0  0  0  0  0  0  0  0  0  0
  153.2196  141.4363  160.2799 H   0  0  0  0  0  0  0  0  0  0  0  0
  150.8790  142.0035  159.3816 H   0  0  0  0  0  0  0  0  0  0  0  0
  151.6406  142.6378  157.9399 H   0  0  0  0  0  0  0  0  0  0  0  0
  152.0742  139.9178  154.3977 H   0  0  0  0  0  0  0  0  0  0  0  0
  152.2769  138.7229  155.6549 H   0  0  0  0  0  0  0  0  0  0  0  0
  150.4346  138.1021  154.0803 H   0  0  0  0  0  0  0  0  0  0  0  0
  149.8372  138.2912  155.7070 H   0  0  0  0  0  0  0  0  0  0  0  0
  149.6785  140.3855  153.4855 H   0  0  0  0  0  0  0  0  0  0  0  0
  148.5641  139.0064  152.0936 H   0  0  0  0  0  0  0  0  0  0  0  0
  145.9196  139.1891  151.8309 H   0  0  0  0  0  0  0  0  0  0  0  0
  146.7769  137.8153  151.1859 H   0  0  0  0  0  0  0  0  0  0  0  0
  146.4456  137.1174  153.8922 H   0  0  0  0  0  0  0  0  0  0  0  0
  144.9754  137.9863  153.5507 H   0  0  0  0  0  0  0  0  0  0  0  0
  146.0486  136.5911  150.4504 H   0  0  0  0  0  0  0  0  0  0  0  0
  144.9920  134.5631  149.4260 H   0  0  0  0  0  0  0  0  0  0  0  0
  143.5688  133.0813  150.8711 H   0  0  0  0  0  0  0  0  0  0  0  0
  143.2713  133.6918  153.2855 H   0  0  0  0  0  0  0  0  0  0  0  0
  148.4152  141.7598  155.1001 H   0  0  0  0  0  0  0  0  0  0  0  0
  148.5578  140.5397  156.3293 H   0  0  0  0  0  0  0  0  0  0  0  0
  150.2589  142.2824  156.7143 H   0  0  0  0  0  0  0  0  0  0  0  0
  150.8258  142.1554  155.0708 H   0  0  0  0  0  0  0  0  0  0  0  0
  1  2  1  0  0  0  0
  1 23  1  0  0  0  0
  1 24  1  0  0  0  0
  1 25  1  0  0  0  0
  2  3  1  0  0  0  0
  2 26  1  0  0  0  0
  2 27  1  0  0  0  0
  3  4  2  0  0  0  0
  3  5  2  0  0  0  0
  3  6  1  0  0  0  0
  6 22  1  0  0  0  0
  6  7  1  0  0  0  0
  7  8  1  0  0  0  0
  7 28  1  0  0  0  0
  7 29  1  0  0  0  0
  8  9  1  0  0  0  0
  8 30  1  0  0  0  0
  8 31  1  0  0  0  0
  9 10  1  0  0  0  0
  9 21  1  0  0  0  0
  9 32  1  0  0  0  0
 10 11  2  0  0  0  0
 10 12  1  0  0  0  0
 12 13  1  0  0  0  0
 12 33  1  0  0  0  0
 13 14  1  0  0  0  0
 13 34  1  0  0  0  0
 13 35  1  0  0  0  0
 14 15  1  0  0  0  0
 14 36  1  0  0  0  0
 14 37  1  0  0  0  0
 15 20  1  0  0  0  0
 15 16  2  0  0  0  0
 16 17  1  0  0  0  0
 16 38  1  0  0  0  0
 17 18  2  0  0  0  0
 17 39  1  0  0  0  0
 18 19  1  0  0  0  0
 18 40  1  0  0  0  0
 19 20  2  0  0  0  0
 19 41  1  0  0  0  0
 21 22  1  0  0  0  0
 21 42  1  0  0  0  0
 21 43  1  0  0  0  0
 22 44  1  0  0  0  0
 22 45  1  0  0  0  0
M  END
> <s_m_source_file>
AV-unprocessed.smi

> <i_m_source_file_index>
303

> <i_lp_mmshare_version>
43012

> <i_f3d_flags>
0

> <s_epik_input>
W0NIM11bQ0gyXVMoPU8pKD1PKU4xW0NIMl1bQ0gyXVtDSF0oW0NIMl1bQ0gyXTEpQyg9TylbTkhdW0NIMl1bQ0gyXWMyW2NIXVtjSF1bY0hdW2NIXW4y

> <s_epik_cmdline>
J2VwaWtfcHl0aG9uJywgJy1waCcsICc3LjAnLCAnLXRuJywgJzgnLCAnLW1hJywgJzIwMCcsICctbWV0YWxfYmluZGluZycsICctaW1hZScsICc8aW5maWxlLm1hZT4nLCAnLW9tYWUnLCAnPG91dGZpbGUubWFlPic=

> <r_epik_Ionization_Penalty>
0.0277532

> <r_epik_Ionization_Penalty_Charging>
0

> <r_epik_Ionization_Penalty_Neutral>
0.0277532

> <r_epik_State_Penalty>
0.022734

> <r_epik_Charging_Adjusted_Penalty>
0.022734

> <i_epik_Tot_Q>
0

> <i_epik_Tot_abs_Q>
0

> <r_epik_Metal_State_Penalty>
0.021713

> <b_epik_Metal_Only>
0

> <s_lp_Force_Field>
OPLS_2005

> <r_lp_Energy>
1.72058

> <b_lp_Chiralities_Consistent>
1

> <s_lp_Variant>
AV-unprocessed.smi:303-1

> <Gold.Version>
5.8.1

> <Gold.Id.Protein>
6NUR|6NUR_protein|mol2

> <Gold.PLP.Fitness>
48.9407

> <Gold.PLP.PLP>
-42.6596

> <Gold.PLP.part.hbond>
-2.9747

> <Gold.PLP.part.metal>
0.0000

> <Gold.PLP.part.buried>
-4.1427

> <Gold.PLP.part.nonpolar>
-36.8327

> <Gold.PLP.part.repulsive>
0.1874

> <Gold.PLP.ligand.clash>
0.0000

> <Gold.PLP.ligand.torsion>
2.4709

> <Gold.PLP.Chemscore.Hbond>
2.0000

> <Gold.PLP.Chemscore.CHOScore>
1.0000

> <Gold.PLP.Chemscore.Metal>
0.0000

> <Gold.Chemscore.Hbonds>
donor molecule, donor type, donor heavy atom, donor atom, acceptor molecule, acceptor atom, score
      L1  H    12    33       P1  7957  1.00
      P1  H  7997  8009       L1     4  1.00
      L1  C    19    41       P1 10957  1.00

> <Gold.PLP.Chemscore.Internal.Correction>
2.2229

> <Gold.Rescore>
     Score         DG    S(hbond)    S(metal)    S(lipo)     H(rot)  DE(clash)    DE(int)     intcor
     14.77     -18.83       1.95        0.00      94.55       1.66       0.02       4.04       ----

> <Gold.Chemscore.Fitness>
14.7679

> <Gold.Chemscore.DG>
-18.8256

> <Gold.Chemscore.ZeroCoef>
-5.4800

> <Gold.Chemscore.Hbond>
1.9531

> <Gold.Chemscore.Metal>
0.0000

> <Gold.Chemscore.Lipo>
94.5507

> <Gold.Chemscore.Internal_Hbond>
0.0000

> <Gold.Chemscore.DEClash>
0.0199

> <Gold.Chemscore.DEInternal>
4.0378

> <Gold.Chemscore.Rot>
1.6563

> <Gold.Chemscore.Internal.Correction>
   9.000000E+99

> <Gold.Chemscore.Hbonds>
donor molecule, donor type, donor heavy atom, donor atom, acceptor molecule, acceptor atom, score
      L1  H    12    33       P1  7957  0.93
      P1  H  7997  8009       L1     4  0.98

> <Gold.Chemscore.Hbond.Weighted>
-6.5232

> <Gold.Chemscore.Metal.Weighted>
-0.0000

> <Gold.Chemscore.Lipo.Weighted>
-11.0624

> <Gold.Chemscore.Internal_Hbond.Weighted>
0.0000

> <Gold.Chemscore.DEClash.Weighted>
0.0199

> <Gold.Chemscore.DEInternal.Weighted>
4.0378

> <Gold.Chemscore.Rot.Weighted>
4.2401

> <Gold.Chemscore.Internal.Correction.Weighted>
   9.000000E+99

> <Gold.Protein.RotatedTorsions>
[ 6907 6896 6895 6894 ] final -151.12 input  -60.11 | X-H torsion
[ 7974 7965 7964 7962 ] final  131.81 input  175.53 | X-H torsion
[ 8008 7997 7996 7995 ] final  172.33 input   59.86 | X-H torsion
[ 10167 10162 10161 10158 ] final    1.38 input  -65.29 | X-H torsion
[ 10718 10713 10712 10709 ] final  127.31 input   66.30 | X-H torsion
[ 10763 10752 10751 10750 ] final   23.53 input  -60.55 | X-H torsion
[ 11005 11000 10999 10996 ] final  110.11 input  -57.11 | X-H torsion

> <Gold.Protein.ActiveResidues>
 VAL166  LYS551  ARG553  GLY616  TRP617  ASP618  TYR619  PRO620  LYS621  CYS622 
 ASP623  PHE694  ASN695  SER759  ASP760  ASP761  ALA762  ILE779  LEU786  VAL792 
 PHE793  MET794  SER795  GLU796  ALA797  LYS798  CYS799  TRP800  GLU811  SER814 

> <Gold.Protein.RotatedAtoms>
  151.2084  133.4570  159.2597 H   0  0  0  0  0  0  0  0  0  0  0  0  # atno 6907 bound_to 6896
  151.1000  134.9967  159.8454 H   0  0  0  0  0  0  0  0  0  0  0  0  # atno 6908 bound_to 6896
  152.5442  134.2012  159.8765 H   0  0  0  0  0  0  0  0  0  0  0  0  # atno 6909 bound_to 6896
  145.0034  139.4290  143.5281 H   0  0  0  0  0  0  0  0  0  0  0  0  # atno 7974 bound_to 7965
  156.1185  140.1488  156.9239 H   0  0  0  0  0  0  0  0  0  0  0  0  # atno 8008 bound_to 7997
  154.4818  140.0877  156.7436 H   0  0  0  0  0  0  0  0  0  0  0  0  # atno 8009 bound_to 7997
  155.4471  140.3433  155.4298 H   0  0  0  0  0  0  0  0  0  0  0  0  # atno 8010 bound_to 7997
  140.6685  143.7113  150.7875 H   0  0  0  0  0  0  0  0  0  0  0  0  # atno 10167 bound_to 10162
  157.5344  131.1098  150.8959 H   0  0  0  0  0  0  0  0  0  0  0  0  # atno 10718 bound_to 10713
  153.0832  135.6625  154.0003 H   0  0  0  0  0  0  0  0  0  0  0  0  # atno 10763 bound_to 10752
  153.9619  135.2973  155.3434 H   0  0  0  0  0  0  0  0  0  0  0  0  # atno 10764 bound_to 10752
  154.7235  135.5154  153.8921 H   0  0  0  0  0  0  0  0  0  0  0  0  # atno 10765 bound_to 10752
  139.8875  134.9476  156.6229 H   0  0  0  0  0  0  0  0  0  0  0  0  # atno 11005 bound_to 11000
  146.3456  139.9436  142.8738 LP  0  0  0  0  0  0  0  0  0  0  0  0  # atno 17320 bound_to 7965
  145.2122  140.9900  143.4094 LP  0  0  0  0  0  0  0  0  0  0  0  0  # atno 17321 bound_to 7965
  140.0794  143.4983  152.2538 LP  0  0  0  0  0  0  0  0  0  0  0  0  # atno 17342 bound_to 10162
  139.5944  144.7561  151.3323 LP  0  0  0  0  0  0  0  0  0  0  0  0  # atno 17343 bound_to 10162
  156.9530  130.5427  149.5283 LP  0  0  0  0  0  0  0  0  0  0  0  0  # atno 17370 bound_to 10713
  156.0447  130.5525  150.8853 LP  0  0  0  0  0  0  0  0  0  0  0  0  # atno 17371 bound_to 10713
  140.7726  133.8726  155.8503 LP  0  0  0  0  0  0  0  0  0  0  0  0  # atno 17394 bound_to 11000
  140.9829  134.1381  157.4478 LP  0  0  0  0  0  0  0  0  0  0  0  0  # atno 17395 bound_to 11000

$$$$
