AV-unprocessed.smi:2963|AV-procd|sdf|11319|dock10
  -GOLD-   2272016223D 1   1.00000     0.00000
 Structure written by MMmdl.
 41 43  0  0  0  0  0  0  0  0  1 V2000
  149.0193  141.0336  154.5485 C   0  0  0  0  0  0  0  0  0  0  0  0
  150.2415  140.4328  154.9465 O   0  0  0  0  0  0  0  0  0  0  0  0
  150.8773  141.0995  156.0285 C   0  0  0  0  0  0  0  0  0  0  0  0
  150.4830  140.4995  157.3901 C   0  0  0  0  0  0  0  0  0  0  0  0
  151.2897  141.0375  158.4766 N   0  0  0  0  0  0  0  0  0  0  0  0
  152.1301  140.3779  159.3115 C   0  0  0  0  0  0  0  0  0  0  0  0
  152.3874  138.6394  159.2055 S   0  0  0  0  0  0  0  0  0  0  0  0
  153.4980  138.4735  160.6357 C   0  0  0  0  0  0  0  0  0  0  0  0
  153.7410  137.0249  161.0885 C   0  0  0  0  0  0  0  0  0  0  0  0
  153.6316  136.1191  160.2580 O   0  0  0  0  0  0  0  0  0  0  0  0
  154.0750  136.8202  162.3906 N   0  0  0  0  0  0  0  0  0  0  0  0
  154.1938  137.8997  163.3725 C   0  0  0  0  0  0  0  0  0  0  0  0
  154.5670  137.1907  164.6697 C   0  0  0  0  0  0  0  0  0  0  0  0
  154.6249  135.8117  164.2528 N   0  0  0  0  0  0  0  0  0  0  0  0
  154.3430  135.6217  162.9617 C   0  0  0  0  0  0  0  0  0  0  0  0
  154.3414  134.5141  162.4229 O   0  0  0  0  0  0  0  0  0  0  0  0
  152.7574  141.1309  160.2155 N   0  0  0  0  0  0  0  0  0  0  0  0
  152.2773  142.3966  159.9443 C   0  0  0  0  0  0  0  0  0  0  0  0
  152.5600  143.6379  160.5579 C   0  0  0  0  0  0  0  0  0  0  0  0
  151.9394  144.8185  160.0995 C   0  0  0  0  0  0  0  0  0  0  0  0
  151.0302  144.7750  159.0227 C   0  0  0  0  0  0  0  0  0  0  0  0
  150.7341  143.5483  158.3976 C   0  0  0  0  0  0  0  0  0  0  0  0
  151.3554  142.3729  158.8602 C   0  0  0  0  0  0  0  0  0  0  0  0
  148.5811  140.4610  153.7312 H   0  0  0  0  0  0  0  0  0  0  0  0
  149.1804  142.0522  154.1935 H   0  0  0  0  0  0  0  0  0  0  0  0
  148.2957  141.0604  155.3632 H   0  0  0  0  0  0  0  0  0  0  0  0
  151.9536  140.9915  155.8923 H   0  0  0  0  0  0  0  0  0  0  0  0
  150.6762  142.1717  156.0021 H   0  0  0  0  0  0  0  0  0  0  0  0
  149.4371  140.7257  157.6004 H   0  0  0  0  0  0  0  0  0  0  0  0
  150.5546  139.4127  157.3759 H   0  0  0  0  0  0  0  0  0  0  0  0
  154.4554  138.9207  160.3667 H   0  0  0  0  0  0  0  0  0  0  0  0
  153.0839  139.0541  161.4604 H   0  0  0  0  0  0  0  0  0  0  0  0
  154.9712  138.6092  163.0844 H   0  0  0  0  0  0  0  0  0  0  0  0
  153.2519  138.4393  163.4830 H   0  0  0  0  0  0  0  0  0  0  0  0
  155.5337  137.5174  165.0547 H   0  0  0  0  0  0  0  0  0  0  0  0
  153.8103  137.3253  165.4435 H   0  0  0  0  0  0  0  0  0  0  0  0
  154.8584  135.0645  164.8906 H   0  0  0  0  0  0  0  0  0  0  0  0
  153.2553  143.6821  161.3828 H   0  0  0  0  0  0  0  0  0  0  0  0
  152.1628  145.7619  160.5757 H   0  0  0  0  0  0  0  0  0  0  0  0
  150.5604  145.6841  158.6767 H   0  0  0  0  0  0  0  0  0  0  0  0
  150.0393  143.5114  157.5718 H   0  0  0  0  0  0  0  0  0  0  0  0
  1  2  1  0  0  0  0
  1 24  1  0  0  0  0
  1 25  1  0  0  0  0
  1 26  1  0  0  0  0
  2  3  1  0  0  0  0
  3  4  1  0  0  0  0
  3 27  1  0  0  0  0
  3 28  1  0  0  0  0
  4  5  1  0  0  0  0
  4 29  1  0  0  0  0
  4 30  1  0  0  0  0
  5 23  1  0  0  0  0
  5  6  1  0  0  0  0
  6  7  1  0  0  0  0
  6 17  2  0  0  0  0
  7  8  1  0  0  0  0
  8  9  1  0  0  0  0
  8 31  1  0  0  0  0
  8 32  1  0  0  0  0
  9 10  2  0  0  0  0
  9 11  1  0  0  0  0
 11 15  1  0  0  0  0
 11 12  1  0  0  0  0
 12 13  1  0  0  0  0
 12 33  1  0  0  0  0
 12 34  1  0  0  0  0
 13 14  1  0  0  0  0
 13 35  1  0  0  0  0
 13 36  1  0  0  0  0
 14 15  1  0  0  0  0
 14 37  1  0  0  0  0
 15 16  2  0  0  0  0
 17 18  1  0  0  0  0
 18 23  2  0  0  0  0
 18 19  1  0  0  0  0
 19 20  2  0  0  0  0
 19 38  1  0  0  0  0
 20 21  1  0  0  0  0
 20 39  1  0  0  0  0
 21 22  2  0  0  0  0
 21 40  1  0  0  0  0
 22 23  1  0  0  0  0
 22 41  1  0  0  0  0
M  END
> <s_m_source_file>
AV-unprocessed.smi

> <i_m_source_file_index>
2963

> <i_lp_mmshare_version>
43012

> <i_f3d_flags>
0

> <s_epik_input>
W2NIXTFbY0hdW2NIXVtjSF1jKGMxMiluKFtDSDJdW0NIMl1PW0NIM10pYyhuMilTW0NIMl1DKD1PKU4zW0NIMl1bQ0gyXVtOSF1DMz1P

> <s_epik_cmdline>
J2VwaWtfcHl0aG9uJywgJy1waCcsICc3LjAnLCAnLXRuJywgJzgnLCAnLW1hJywgJzIwMCcsICctbWV0YWxfYmluZGluZycsICctaW1hZScsICc8aW5maWxlLm1hZT4nLCAnLW9tYWUnLCAnPG91dGZpbGUubWFlPic=

> <r_lp_tautomer_probability>
0.9999

> <r_epik_Ionization_Penalty>
0.0341365

> <r_epik_Ionization_Penalty_Charging>
0

> <r_epik_Ionization_Penalty_Neutral>
0.0341365

> <r_epik_State_Penalty>
0.0283589

> <r_epik_Charging_Adjusted_Penalty>
0.0283589

> <i_epik_Tot_Q>
0

> <i_epik_Tot_abs_Q>
0

> <r_epik_Metal_State_Penalty>
0.0267964

> <b_epik_Metal_Only>
0

> <s_lp_Force_Field>
OPLS_2005

> <r_lp_Energy>
40.6732

> <b_lp_Chiralities_Consistent>
1

> <s_lp_Variant>
AV-unprocessed.smi:2963-1

> <Gold.Version>
5.8.1

> <Gold.Id.Protein>
6NUR|6NUR_protein|mol2

> <Gold.PLP.Fitness>
53.8322

> <Gold.PLP.PLP>
-49.0729

> <Gold.PLP.part.hbond>
-2.0000

> <Gold.PLP.part.metal>
0.0000

> <Gold.PLP.part.buried>
-6.9283

> <Gold.PLP.part.nonpolar>
-39.2753

> <Gold.PLP.part.repulsive>
0.0880

> <Gold.PLP.ligand.clash>
0.0000

> <Gold.PLP.ligand.torsion>
0.6488

> <Gold.PLP.Chemscore.Hbond>
2.0000

> <Gold.PLP.Chemscore.CHOScore>
0.0000

> <Gold.PLP.Chemscore.Metal>
0.0000

> <Gold.Chemscore.Hbonds>
donor molecule, donor type, donor heavy atom, donor atom, acceptor molecule, acceptor atom, score
      P1  H  6896  6909       L1    10  1.00
      P1  H  7989  7998       L1     2  0.85

> <Gold.PLP.Chemscore.Internal.Correction>
0.0570

> <Gold.Rescore>
     Score         DG    S(hbond)    S(metal)    S(lipo)     H(rot)  DE(clash)    DE(int)     intcor
     16.63     -18.40       1.79        0.00     110.36       2.33       0.02       1.75       ----

> <Gold.Chemscore.Fitness>
16.6252

> <Gold.Chemscore.DG>
-18.3966

> <Gold.Chemscore.ZeroCoef>
-5.4800

> <Gold.Chemscore.Hbond>
1.7858

> <Gold.Chemscore.Metal>
0.0000

> <Gold.Chemscore.Lipo>
110.3580

> <Gold.Chemscore.Internal_Hbond>
0.0000

> <Gold.Chemscore.DEClash>
0.0164

> <Gold.Chemscore.DEInternal>
1.7549

> <Gold.Chemscore.Rot>
2.3280

> <Gold.Chemscore.Internal.Correction>
   9.000000E+99

> <Gold.Chemscore.Hbonds>
donor molecule, donor type, donor heavy atom, donor atom, acceptor molecule, acceptor atom, score
      P1  H  6896  6909       L1    10  1.00
      P1  H  7989  7998       L1     2  0.09

> <Gold.Chemscore.Hbond.Weighted>
-5.9645

> <Gold.Chemscore.Metal.Weighted>
-0.0000

> <Gold.Chemscore.Lipo.Weighted>
-12.9119

> <Gold.Chemscore.Internal_Hbond.Weighted>
0.0000

> <Gold.Chemscore.DEClash.Weighted>
0.0164

> <Gold.Chemscore.DEInternal.Weighted>
1.7549

> <Gold.Chemscore.Rot.Weighted>
5.9598

> <Gold.Chemscore.Internal.Correction.Weighted>
   9.000000E+99

> <Gold.Protein.RotatedTorsions>
[ 6907 6896 6895 6894 ] final  176.21 input  -60.11 | X-H torsion
[ 7974 7965 7964 7962 ] final   97.63 input  175.53 | X-H torsion
[ 8008 7997 7996 7995 ] final  164.91 input   59.86 | X-H torsion
[ 10167 10162 10161 10158 ] final   31.16 input  -65.29 | X-H torsion
[ 10718 10713 10712 10709 ] final   57.27 input   66.30 | X-H torsion
[ 10763 10752 10751 10750 ] final  144.35 input  -60.55 | X-H torsion
[ 11005 11000 10999 10996 ] final   63.07 input  -57.11 | X-H torsion

> <Gold.Protein.ActiveResidues>
 VAL166  LYS551  ARG553  GLY616  TRP617  ASP618  TYR619  PRO620  LYS621  CYS622 
 ASP623  PHE694  ASN695  SER759  ASP760  ASP761  ALA762  ILE779  LEU786  VAL792 
 PHE793  MET794  SER795  GLU796  ALA797  LYS798  CYS799  TRP800  GLU811  SER814 

> <Gold.Protein.RotatedAtoms>
  151.7238  133.3315  159.3321 H   0  0  0  0  0  0  0  0  0  0  0  0  # atno 6907 bound_to 6896
  150.7641  134.6424  159.6254 H   0  0  0  0  0  0  0  0  0  0  0  0  # atno 6908 bound_to 6896
  152.3635  134.6840  160.0251 H   0  0  0  0  0  0  0  0  0  0  0  0  # atno 6909 bound_to 6896
  145.4229  139.2319  143.3186 H   0  0  0  0  0  0  0  0  0  0  0  0  # atno 7974 bound_to 7965
  156.1843  140.1684  156.8215 H   0  0  0  0  0  0  0  0  0  0  0  0  # atno 8008 bound_to 7997
  154.5395  140.0739  156.8519 H   0  0  0  0  0  0  0  0  0  0  0  0  # atno 8009 bound_to 7997
  155.3242  140.3375  155.4243 H   0  0  0  0  0  0  0  0  0  0  0  0  # atno 8010 bound_to 7997
  140.4613  144.0901  150.6213 H   0  0  0  0  0  0  0  0  0  0  0  0  # atno 10167 bound_to 10162
  157.5501  130.8759  149.8950 H   0  0  0  0  0  0  0  0  0  0  0  0  # atno 10718 bound_to 10713
  153.9874  135.2935  155.3415 H   0  0  0  0  0  0  0  0  0  0  0  0  # atno 10763 bound_to 10752
  154.7234  135.5099  153.8851 H   0  0  0  0  0  0  0  0  0  0  0  0  # atno 10764 bound_to 10752
  153.0826  135.6683  154.0130 H   0  0  0  0  0  0  0  0  0  0  0  0  # atno 10765 bound_to 10752
  140.0049  134.6384  155.9871 H   0  0  0  0  0  0  0  0  0  0  0  0  # atno 11005 bound_to 11000
  146.2647  140.4955  142.8839 LP  0  0  0  0  0  0  0  0  0  0  0  0  # atno 17320 bound_to 7965
  144.8233  140.6587  143.6338 LP  0  0  0  0  0  0  0  0  0  0  0  0  # atno 17321 bound_to 7965
  140.4089  143.2666  151.9857 LP  0  0  0  0  0  0  0  0  0  0  0  0  # atno 17342 bound_to 10162
  139.4806  144.5932  151.7735 LP  0  0  0  0  0  0  0  0  0  0  0  0  # atno 17343 bound_to 10162
  156.0569  130.3707  150.1071 LP  0  0  0  0  0  0  0  0  0  0  0  0  # atno 17370 bound_to 10713
  156.9244  130.9693  151.3543 LP  0  0  0  0  0  0  0  0  0  0  0  0  # atno 17371 bound_to 10713
  141.1670  133.6537  156.4514 LP  0  0  0  0  0  0  0  0  0  0  0  0  # atno 17394 bound_to 11000
  140.4659  134.6798  157.5107 LP  0  0  0  0  0  0  0  0  0  0  0  0  # atno 17395 bound_to 11000

$$$$
