AV-unprocessed.smi:157|AV-procd|sdf|1296|dock6
  -GOLD-   2262018583D 1   1.00000     0.00000
 Structure written by MMmdl.
 35 37  0  0  0  0  0  0  0  0  1 V2000
  148.1485  142.8699  154.0750 O   0  0  0  0  0  0  0  0  0  0  0  0
  147.5173  141.8960  154.8793 C   0  0  0  0  0  0  0  0  0  0  0  0
  148.5613  140.9456  155.4913 C   0  0  2  0  0  0  0  0  0  0  0  0
  149.5226  141.6698  156.2592 O   0  0  0  0  0  0  0  0  0  0  0  0
  150.7967  141.1347  156.0607 C   0  0  1  0  0  0  0  0  0  0  0  0
  151.4609  140.9335  157.3888 N   0  0  0  0  0  0  0  0  0  0  0  0
  151.9594  139.7707  157.8257 C   0  0  0  0  0  0  0  0  0  0  0  0
  152.4984  139.8192  159.0317 N   0  0  0  0  0  0  0  0  0  0  0  0
  152.3442  141.1501  159.4153 C   0  0  0  0  0  0  0  0  0  0  0  0
  151.7073  141.8627  158.4085 C   0  0  0  0  0  0  0  0  0  0  0  0
  151.2941  143.1695  158.2322 N   0  0  0  0  0  0  0  0  0  0  0  0
  151.8371  144.0851  158.9707 C   0  0  0  0  0  0  0  0  0  0  0  0
  152.7319  143.9686  160.0244 N   0  0  0  0  0  0  0  0  0  0  0  0
  152.5313  143.0494  161.1313 C   0  0  0  0  0  0  0  0  0  0  0  0
  152.8176  141.5856  160.7733 C   0  0  2  0  0  0  0  0  0  0  0  0
  154.2119  141.3599  160.8182 O   0  0  0  0  0  0  0  0  0  0  0  0
  150.6335  139.8126  155.3106 C   0  0  0  0  0  0  0  0  0  0  0  0
  149.3740  140.0790  154.5136 C   0  0  2  0  0  0  0  0  0  0  0  0
  149.6802  140.7570  153.3090 O   0  0  0  0  0  0  0  0  0  0  0  0
  148.0579  140.2793  156.1941 H   0  0  0  0  0  0  0  0  0  0  0  0
  151.4166  141.8549  155.5244 H   0  0  0  0  0  0  0  0  0  0  0  0
  152.3721  140.9513  161.5403 H   0  0  0  0  0  0  0  0  0  0  0  0
  148.8500  139.1562  154.2635 H   0  0  0  0  0  0  0  0  0  0  0  0
  148.3706  143.6100  154.6192 H   0  0  0  0  0  0  0  0  0  0  0  0
  146.9175  142.3817  155.6491 H   0  0  0  0  0  0  0  0  0  0  0  0
  146.8280  141.3313  154.2512 H   0  0  0  0  0  0  0  0  0  0  0  0
  151.9197  138.8605  157.2454 H   0  0  0  0  0  0  0  0  0  0  0  0
  151.5756  145.1269  158.7803 H   0  0  0  0  0  0  0  0  0  0  0  0
  153.2367  144.7917  160.3200 H   0  0  0  0  0  0  0  0  0  0  0  0
  153.1246  143.3643  161.9903 H   0  0  0  0  0  0  0  0  0  0  0  0
  151.4872  143.1362  161.4354 H   0  0  0  0  0  0  0  0  0  0  0  0
  154.5616  141.8263  161.5623 H   0  0  0  0  0  0  0  0  0  0  0  0
  151.5131  139.5826  154.7083 H   0  0  0  0  0  0  0  0  0  0  0  0
  150.4659  138.9987  156.0166 H   0  0  0  0  0  0  0  0  0  0  0  0
  149.5657  140.1535  152.5906 H   0  0  0  0  0  0  0  0  0  0  0  0
  1  2  1  0  0  0  0
  1 24  1  0  0  0  0
  2  3  1  0  0  0  0
  2 25  1  0  0  0  0
  2 26  1  0  0  0  0
  3 20  1  0  0  0  0
  3 18  1  0  0  0  0
  3  4  1  0  0  0  0
  4  5  1  0  0  0  0
  5 21  1  0  0  0  0
  5  6  1  0  0  0  0
  5 17  1  0  0  0  0
  6 10  1  0  0  0  0
  6  7  1  0  0  0  0
  7  8  2  0  0  0  0
  7 27  1  0  0  0  0
  8  9  1  0  0  0  0
  9 15  1  0  0  0  0
  9 10  2  0  0  0  0
 10 11  1  0  0  0  0
 11 12  2  0  0  0  0
 12 13  1  0  0  0  0
 12 28  1  0  0  0  0
 13 14  1  0  0  0  0
 13 29  1  0  0  0  0
 14 15  1  0  0  0  0
 14 30  1  0  0  0  0
 14 31  1  0  0  0  0
 15 22  1  0  0  0  0
 15 16  1  0  0  0  0
 16 32  1  0  0  0  0
 17 18  1  0  0  0  0
 17 33  1  0  0  0  0
 17 34  1  0  0  0  0
 18 23  1  0  0  0  0
 18 19  1  0  0  0  0
 19 35  1  0  0  0  0
M  END
> <s_m_source_file>
AV-unprocessed.smi

> <i_m_source_file_index>
157

> <i_lp_mmshare_version>
43012

> <i_f3d_flags>
0

> <s_epik_input>
W09IXVtDSDJdW0NASF0xT1tDQEhdKFtDSDJdW0NAQEhdMVtPSF0pbihbY0hdbjIpYyhjMjMpTj1bQ0hdW05IXVtDSDJdW0NASF0zW09IXQ==

> <s_epik_cmdline>
J2VwaWtfcHl0aG9uJywgJy1waCcsICc3LjAnLCAnLXRuJywgJzgnLCAnLW1hJywgJzIwMCcsICctbWV0YWxfYmluZGluZycsICctaW1hZScsICc8aW5maWxlLm1hZT4nLCAnLW9tYWUnLCAnPG91dGZpbGUubWFlPic=

> <r_lp_tautomer_probability>
1

> <r_epik_Ionization_Penalty>
0.0357149

> <r_epik_Ionization_Penalty_Charging>
0.0355056

> <r_epik_Ionization_Penalty_Neutral>
0.000209255

> <r_epik_State_Penalty>
0.0296046

> <r_epik_Charging_Adjusted_Penalty>
0.0651102

> <i_epik_Tot_Q>
0

> <i_epik_Tot_abs_Q>
0

> <r_epik_Metal_State_Penalty>
3.03559e-05

> <b_epik_Metal_Only>
0

> <s_epik_Chemistry_Notes>
This compound has an imine and may undergo hydrolysis. This compound contains an acetal/aminal-like group ( X-CH(R)-Y where X, Y are N, S, or O) that may be acid/base labile, releasing an aldehyde.

> <s_lp_Force_Field>
OPLS_2005

> <r_lp_Energy>
46.6241

> <b_lp_Chiralities_Consistent>
1

> <s_lp_Variant>
AV-unprocessed.smi:157-6

> <Gold.Version>
5.8.1

> <Gold.Id.Protein>
6NUR|6NUR_protein|mol2

> <Gold.PLP.Fitness>
46.9342

> <Gold.PLP.PLP>
-38.4965

> <Gold.PLP.part.hbond>
-5.4243

> <Gold.PLP.part.metal>
0.0000

> <Gold.PLP.part.buried>
-3.0962

> <Gold.PLP.part.nonpolar>
-28.9162

> <Gold.PLP.part.repulsive>
0.2171

> <Gold.PLP.ligand.clash>
0.0000

> <Gold.PLP.ligand.torsion>
0.0479

> <Gold.PLP.Chemscore.Hbond>
2.8437

> <Gold.PLP.Chemscore.CHOScore>
0.0000

> <Gold.PLP.Chemscore.Metal>
0.0000

> <Gold.Chemscore.Hbonds>
donor molecule, donor type, donor heavy atom, donor atom, acceptor molecule, acceptor atom, score
      L1  H     1    24       P1  8028  1.00
      L1  H    19    35       P1  7957  0.66
      P1  H  7989  7998       L1    19  0.29
      P1  H  8011  8017       L1    19  0.95

> <Gold.PLP.Chemscore.Internal.Correction>
0.0024

> <Gold.Rescore>
     Score         DG    S(hbond)    S(metal)    S(lipo)     H(rot)  DE(clash)    DE(int)     intcor
      8.85      -9.03       1.96        0.00      53.91       3.64       0.17       0.01       ----

> <Gold.Chemscore.Fitness>
8.8521

> <Gold.Chemscore.DG>
-9.0306

> <Gold.Chemscore.ZeroCoef>
-5.4800

> <Gold.Chemscore.Hbond>
1.9618

> <Gold.Chemscore.Metal>
0.0000

> <Gold.Chemscore.Lipo>
53.9062

> <Gold.Chemscore.Internal_Hbond>
0.0000

> <Gold.Chemscore.DEClash>
0.1694

> <Gold.Chemscore.DEInternal>
0.0091

> <Gold.Chemscore.Rot>
3.6362

> <Gold.Chemscore.Internal.Correction>
   9.000000E+99

> <Gold.Chemscore.Hbonds>
donor molecule, donor type, donor heavy atom, donor atom, acceptor molecule, acceptor atom, score
      L1  H     1    24       P1  8028  0.95
      L1  H    19    35       P1  7957  0.63
      P1  H  7989  7998       L1    19  0.03
      P1  H  8011  8017       L1    19  0.21

> <Gold.Chemscore.Hbond.Weighted>
-6.5523

> <Gold.Chemscore.Metal.Weighted>
-0.0000

> <Gold.Chemscore.Lipo.Weighted>
-6.3070

> <Gold.Chemscore.Internal_Hbond.Weighted>
0.0000

> <Gold.Chemscore.DEClash.Weighted>
0.1694

> <Gold.Chemscore.DEInternal.Weighted>
0.0091

> <Gold.Chemscore.Rot.Weighted>
9.3087

> <Gold.Chemscore.Internal.Correction.Weighted>
   9.000000E+99

> <Gold.Protein.RotatedTorsions>
[ 6907 6896 6895 6894 ] final -115.36 input  -60.11 | X-H torsion
[ 7974 7965 7964 7962 ] final  -48.44 input  175.53 | X-H torsion
[ 8008 7997 7996 7995 ] final -117.68 input   59.86 | X-H torsion
[ 10167 10162 10161 10158 ] final    6.19 input  -65.29 | X-H torsion
[ 10718 10713 10712 10709 ] final -111.66 input   66.30 | X-H torsion
[ 10763 10752 10751 10750 ] final  -16.54 input  -60.55 | X-H torsion
[ 11005 11000 10999 10996 ] final   61.37 input  -57.11 | X-H torsion

> <Gold.Protein.ActiveResidues>
 VAL166  LYS551  ARG553  GLY616  TRP617  ASP618  TYR619  PRO620  LYS621  CYS622 
 ASP623  PHE694  ASN695  SER759  ASP760  ASP761  ALA762  ILE779  LEU786  VAL792 
 PHE793  MET794  SER795  GLU796  ALA797  LYS798  CYS799  TRP800  GLU811  SER814 

> <Gold.Protein.RotatedAtoms>
  150.7972  133.8669  159.3247 H   0  0  0  0  0  0  0  0  0  0  0  0  # atno 6907 bound_to 6896
  151.6491  135.1002  160.0166 H   0  0  0  0  0  0  0  0  0  0  0  0  # atno 6908 bound_to 6896
  152.4055  133.6843  159.6388 H   0  0  0  0  0  0  0  0  0  0  0  0  # atno 6909 bound_to 6896
  145.9511  140.7571  142.9504 H   0  0  0  0  0  0  0  0  0  0  0  0  # atno 7974 bound_to 7965
  155.0876  140.0394  157.2658 H   0  0  0  0  0  0  0  0  0  0  0  0  # atno 8008 bound_to 7997
  154.6857  140.2642  155.6838 H   0  0  0  0  0  0  0  0  0  0  0  0  # atno 8009 bound_to 7997
  156.2711  140.2769  156.1418 H   0  0  0  0  0  0  0  0  0  0  0  0  # atno 8010 bound_to 7997
  140.6441  143.7704  150.7472 H   0  0  0  0  0  0  0  0  0  0  0  0  # atno 10167 bound_to 10162
  156.0660  130.5879  150.8403 H   0  0  0  0  0  0  0  0  0  0  0  0  # atno 10718 bound_to 10713
  153.5602  135.7010  153.5551 H   0  0  0  0  0  0  0  0  0  0  0  0  # atno 10763 bound_to 10752
  153.3436  135.4014  155.1591 H   0  0  0  0  0  0  0  0  0  0  0  0  # atno 10764 bound_to 10752
  154.8649  135.3748  154.5118 H   0  0  0  0  0  0  0  0  0  0  0  0  # atno 10765 bound_to 10752
  140.0166  134.6216  155.9701 H   0  0  0  0  0  0  0  0  0  0  0  0  # atno 11005 bound_to 11000
  144.6796  140.2437  143.7340 LP  0  0  0  0  0  0  0  0  0  0  0  0  # atno 17320 bound_to 7965
  145.8169  139.2027  143.1960 LP  0  0  0  0  0  0  0  0  0  0  0  0  # atno 17321 bound_to 7965
  140.1341  143.4499  152.2235 LP  0  0  0  0  0  0  0  0  0  0  0  0  # atno 17342 bound_to 10162
  139.5651  144.7430  151.4045 LP  0  0  0  0  0  0  0  0  0  0  0  0  # atno 17343 bound_to 10162
  157.5701  131.0946  150.9430 LP  0  0  0  0  0  0  0  0  0  0  0  0  # atno 17370 bound_to 10713
  156.9648  130.5469  149.5287 LP  0  0  0  0  0  0  0  0  0  0  0  0  # atno 17371 bound_to 10713
  141.1747  133.6539  156.4782 LP  0  0  0  0  0  0  0  0  0  0  0  0  # atno 17394 bound_to 11000
  140.4460  134.6972  157.5016 LP  0  0  0  0  0  0  0  0  0  0  0  0  # atno 17395 bound_to 11000

$$$$
