AV-unprocessed.smi:1803|AV-procd|sdf|7289|dock4
  -GOLD-   22720 8543D 1   1.00000     0.00000
 Structure written by MMmdl.
 35 37  0  0  0  0  0  0  0  0  3 V2000
  149.8584  136.5607  157.7904 O   0  0  0  0  0  0  0  0  0  0  0  0
  149.1498  135.5623  157.6700 C   0  0  0  0  0  0  0  0  0  0  0  0
  148.7179  134.8200  158.7225 N   0  5  0  0  0  0  0  0  0  0  0  0
  148.2236  135.3731  159.8461 C   0  0  0  0  0  0  0  0  0  0  0  0
  148.2078  136.7002  160.0505 N   0  0  0  0  0  0  0  0  0  0  0  0
  147.6479  137.0577  161.2695 N   0  0  0  0  0  0  0  0  0  0  0  0
  147.2634  135.9852  161.9611 C   0  0  0  0  0  0  0  0  0  0  0  0
  147.5450  134.4418  161.1836 S   0  0  0  0  0  0  0  0  0  0  0  0
  148.7752  135.1768  156.4360 N   0  0  0  0  0  0  0  0  0  0  0  0
  149.1380  135.8360  155.1877 C   0  0  2  0  0  0  0  0  0  0  0  0
  150.6544  136.0354  155.0000 C   0  0  0  0  0  0  0  0  0  0  0  0
  150.8049  137.4214  154.3425 C   0  0  0  0  0  0  0  0  0  0  0  0
  149.4265  137.8884  154.0978 N   0  3  2  0  0  0  0  0  0  0  0  0
  149.2148  139.3486  153.9967 C   0  0  0  0  0  0  0  0  0  0  0  0
  147.7340  139.6265  153.6664 C   0  0  0  0  0  0  0  0  0  0  0  0
  146.7836  138.9329  154.6645 C   0  0  0  0  0  0  0  0  0  0  0  0
  147.1123  137.4332  154.7948 C   0  0  0  0  0  0  0  0  0  0  0  0
  148.6002  137.2637  155.1408 C   0  0  1  0  0  0  0  0  0  0  0  0
  146.8121  136.1035  162.9349 H   0  0  0  0  0  0  0  0  0  0  0  0
  148.1890  134.3578  156.3663 H   0  0  0  0  0  0  0  0  0  0  0  0
  148.7380  135.2746  154.3407 H   0  0  0  0  0  0  0  0  0  0  0  0
  151.1785  136.0219  155.9569 H   0  0  0  0  0  0  0  0  0  0  0  0
  151.0801  135.2431  154.3832 H   0  0  0  0  0  0  0  0  0  0  0  0
  151.3183  138.1032  155.0223 H   0  0  0  0  0  0  0  0  0  0  0  0
  151.3705  137.3813  153.4114 H   0  0  0  0  0  0  0  0  0  0  0  0
  149.4940  139.8306  154.9350 H   0  0  0  0  0  0  0  0  0  0  0  0
  149.8584  139.7590  153.2180 H   0  0  0  0  0  0  0  0  0  0  0  0
  147.5482  140.7009  153.6580 H   0  0  0  0  0  0  0  0  0  0  0  0
  147.5171  139.2695  152.6588 H   0  0  0  0  0  0  0  0  0  0  0  0
  146.8738  139.4098  155.6415 H   0  0  0  0  0  0  0  0  0  0  0  0
  145.7476  139.0646  154.3509 H   0  0  0  0  0  0  0  0  0  0  0  0
  146.4903  136.9768  155.5656 H   0  0  0  0  0  0  0  0  0  0  0  0
  146.8818  136.9199  153.8602 H   0  0  0  0  0  0  0  0  0  0  0  0
  148.8108  137.7577  156.0926 H   0  0  0  0  0  0  0  0  0  0  0  0
  149.1360  137.4780  153.2219 H   0  0  0  0  0  0  0  0  0  0  0  0
  1  2  2  0  0  0  0
  2  3  1  0  0  0  0
  2  9  1  0  0  0  0
  3  4  1  0  0  0  0
  4  8  1  0  0  0  0
  4  5  2  0  0  0  0
  5  6  1  0  0  0  0
  6  7  2  0  0  0  0
  7  8  1  0  0  0  0
  7 19  1  0  0  0  0
  9 10  1  0  0  0  0
  9 20  1  0  0  0  0
 10 18  1  0  0  0  0
 10 11  1  0  0  0  0
 10 21  1  0  0  0  0
 11 12  1  0  0  0  0
 11 22  1  0  0  0  0
 11 23  1  0  0  0  0
 12 13  1  0  0  0  0
 12 24  1  0  0  0  0
 12 25  1  0  0  0  0
 13 18  1  0  0  0  0
 13 14  1  0  0  0  0
 13 35  1  0  0  0  0
 14 15  1  0  0  0  0
 14 26  1  0  0  0  0
 14 27  1  0  0  0  0
 15 16  1  0  0  0  0
 15 28  1  0  0  0  0
 15 29  1  0  0  0  0
 16 17  1  0  0  0  0
 16 30  1  0  0  0  0
 16 31  1  0  0  0  0
 17 18  1  0  0  0  0
 17 32  1  0  0  0  0
 17 33  1  0  0  0  0
 18 34  1  0  0  0  0
M  CHG  1   3  -1
M  CHG  1  13   1
M  END
> <s_m_source_file>
AV-unprocessed.smi

> <i_m_source_file_index>
1803

> <i_lp_mmshare_version>
43012

> <i_f3d_flags>
0

> <s_epik_input>
czFbY0hdbm5jMVtOSF1DKD1PKVtOSF1bQ0BIXShbQ0gyXVtDSDJdMilbQ0BASF0oTjIzKVtDSDJdW0NIMl1bQ0gyXVtDSDJdMw==

> <s_epik_cmdline>
J2VwaWtfcHl0aG9uJywgJy1waCcsICc3LjAnLCAnLXRuJywgJzgnLCAnLW1hJywgJzIwMCcsICctbWV0YWxfYmluZGluZycsICctaW1hZScsICc8aW5maWxlLm1hZT4nLCAnLW9tYWUnLCAnPG91dGZpbGUubWFlPic=

> <r_lp_tautomer_probability>
1

> <r_epik_Ionization_Penalty>
3.78828

> <r_epik_Ionization_Penalty_Charging>
3.7591

> <r_epik_Ionization_Penalty_Neutral>
0.0291838

> <r_epik_State_Penalty>
3.757

> <r_epik_Charging_Adjusted_Penalty>
7.51609

> <i_epik_Tot_Q>
0

> <i_epik_Tot_abs_Q>
2

> <r_epik_Metal_State_Penalty>
0.558016

> <b_epik_Metal_Only>
1

> <s_lp_Force_Field>
OPLS_2005

> <r_lp_Energy>
28.5802

> <b_lp_Chiralities_Consistent>
1

> <s_lp_Variant>
AV-unprocessed.smi:1803-11

> <Gold.Version>
5.8.1

> <Gold.Id.Protein>
6NUR|6NUR_protein|mol2

> <Gold.PLP.Fitness>
38.7786

> <Gold.PLP.PLP>
-22.6191

> <Gold.PLP.part.hbond>
-4.4219

> <Gold.PLP.part.metal>
0.0000

> <Gold.PLP.part.buried>
-1.0370

> <Gold.PLP.part.nonpolar>
-16.8387

> <Gold.PLP.part.repulsive>
0.0499

> <Gold.PLP.ligand.clash>
0.0000

> <Gold.PLP.ligand.torsion>
0.3972

> <Gold.PLP.Chemscore.Hbond>
5.6480

> <Gold.PLP.Chemscore.CHOScore>
0.0000

> <Gold.PLP.Chemscore.Metal>
0.0000

> <Gold.Chemscore.Hbonds>
donor molecule, donor type, donor heavy atom, donor atom, acceptor molecule, acceptor atom, score
      L1  H    13    35       P1  7948  2.00
      P1  H  6896  6909       L1     3  1.06
      P1  H  6931  6943       L1     6  0.95
      P1  H  6934  6947       L1     6  0.86

> <Gold.PLP.Chemscore.Internal.Correction>
0.0099

> <Gold.Rescore>
     Score         DG    S(hbond)    S(metal)    S(lipo)     H(rot)  DE(clash)    DE(int)     intcor
     11.17     -16.74       2.20        0.00      55.31       1.00       1.68       3.89       ----

> <Gold.Chemscore.Fitness>
11.1719

> <Gold.Chemscore.DG>
-16.7394

> <Gold.Chemscore.ZeroCoef>
-5.4800

> <Gold.Chemscore.Hbond>
2.2001

> <Gold.Chemscore.Metal>
0.0000

> <Gold.Chemscore.Lipo>
55.3083

> <Gold.Chemscore.Internal_Hbond>
0.0000

> <Gold.Chemscore.DEClash>
1.6766

> <Gold.Chemscore.DEInternal>
3.8909

> <Gold.Chemscore.Rot>
1.0000

> <Gold.Chemscore.Internal.Correction>
   9.000000E+99

> <Gold.Chemscore.Hbonds>
donor molecule, donor type, donor heavy atom, donor atom, acceptor molecule, acceptor atom, score
      L1  H    13    35       P1  7948  0.99
      P1  H  6896  6909       L1     3  0.01
      P1  H  6931  6943       L1     6  0.20
      P1  H  6934  6947       L1     6  0.24

> <Gold.Chemscore.Hbond.Weighted>
-7.3484

> <Gold.Chemscore.Metal.Weighted>
-0.0000

> <Gold.Chemscore.Lipo.Weighted>
-6.4711

> <Gold.Chemscore.Internal_Hbond.Weighted>
0.0000

> <Gold.Chemscore.DEClash.Weighted>
1.6766

> <Gold.Chemscore.DEInternal.Weighted>
3.8909

> <Gold.Chemscore.Rot.Weighted>
2.5600

> <Gold.Chemscore.Internal.Correction.Weighted>
   9.000000E+99

> <Gold.Protein.RotatedTorsions>
[ 6907 6896 6895 6894 ] final   40.22 input  -60.11 | X-H torsion
[ 7974 7965 7964 7962 ] final   63.04 input  175.53 | X-H torsion
[ 8008 7997 7996 7995 ] final   63.54 input   59.86 | X-H torsion
[ 10167 10162 10161 10158 ] final -133.33 input  -65.29 | X-H torsion
[ 10718 10713 10712 10709 ] final   59.01 input   66.30 | X-H torsion
[ 10763 10752 10751 10750 ] final  -34.85 input  -60.55 | X-H torsion
[ 11005 11000 10999 10996 ] final   63.07 input  -57.11 | X-H torsion

> <Gold.Protein.ActiveResidues>
 VAL166  LYS551  ARG553  GLY616  TRP617  ASP618  TYR619  PRO620  LYS621  CYS622 
 ASP623  PHE694  ASN695  SER759  ASP760  ASP761  ALA762  ILE779  LEU786  VAL792 
 PHE793  MET794  SER795  GLU796  ALA797  LYS798  CYS799  TRP800  GLU811  SER814 

> <Gold.Protein.RotatedAtoms>
  152.1797  134.8764  160.0527 H   0  0  0  0  0  0  0  0  0  0  0  0  # atno 6907 bound_to 6896
  151.9693  133.3715  159.4073 H   0  0  0  0  0  0  0  0  0  0  0  0  # atno 6908 bound_to 6896
  150.6915  134.4080  159.5193 H   0  0  0  0  0  0  0  0  0  0  0  0  # atno 6909 bound_to 6896
  145.8664  139.3349  143.0788 H   0  0  0  0  0  0  0  0  0  0  0  0  # atno 7974 bound_to 7965
  155.6318  140.3496  155.4685 H   0  0  0  0  0  0  0  0  0  0  0  0  # atno 8008 bound_to 7997
  155.9997  140.1210  157.0583 H   0  0  0  0  0  0  0  0  0  0  0  0  # atno 8009 bound_to 7997
  154.4245  140.1103  156.5666 H   0  0  0  0  0  0  0  0  0  0  0  0  # atno 8010 bound_to 7997
  139.8994  143.6626  152.2598 H   0  0  0  0  0  0  0  0  0  0  0  0  # atno 10167 bound_to 10162
  157.5641  130.8858  149.9159 H   0  0  0  0  0  0  0  0  0  0  0  0  # atno 10718 bound_to 10713
  153.8536  135.6846  153.4790 H   0  0  0  0  0  0  0  0  0  0  0  0  # atno 10763 bound_to 10752
  153.1383  135.4668  154.9454 H   0  0  0  0  0  0  0  0  0  0  0  0  # atno 10764 bound_to 10752
  154.7791  135.3263  154.7977 H   0  0  0  0  0  0  0  0  0  0  0  0  # atno 10765 bound_to 10752
  140.0049  134.6385  155.9871 H   0  0  0  0  0  0  0  0  0  0  0  0  # atno 11005 bound_to 11000
  145.9188  140.9129  143.0416 LP  0  0  0  0  0  0  0  0  0  0  0  0  # atno 17320 bound_to 7965
  144.6726  140.1260  143.7447 LP  0  0  0  0  0  0  0  0  0  0  0  0  # atno 17321 bound_to 7965
  139.7039  144.7631  151.1226 LP  0  0  0  0  0  0  0  0  0  0  0  0  # atno 17342 bound_to 10162
  140.7710  143.5421  150.9301 LP  0  0  0  0  0  0  0  0  0  0  0  0  # atno 17343 bound_to 10162
  156.0691  130.3688  150.0814 LP  0  0  0  0  0  0  0  0  0  0  0  0  # atno 17370 bound_to 10713
  156.8975  130.9609  151.3580 LP  0  0  0  0  0  0  0  0  0  0  0  0  # atno 17371 bound_to 10713
  141.1669  133.6537  156.4513 LP  0  0  0  0  0  0  0  0  0  0  0  0  # atno 17394 bound_to 11000
  140.4659  134.6798  157.5107 LP  0  0  0  0  0  0  0  0  0  0  0  0  # atno 17395 bound_to 11000

$$$$
