AV-unprocessed.smi:3350|AV-procd|sdf|12943|dock4
  -GOLD-   2272019373D 1   1.00000     0.00000
 Structure written by MMmdl.
 41 42  0  0  0  0  0  0  0  0  1 V2000
  144.2757  135.2895  153.2488 C   0  0  0  0  0  0  0  0  0  0  0  0
  144.7730  136.2107  152.1265 C   0  0  2  0  0  0  0  0  0  0  0  0
  144.7789  135.4845  150.7632 C   0  0  0  0  0  0  0  0  0  0  0  0
  144.6612  134.0423  150.8931 N   0  0  0  0  0  0  0  0  0  0  0  0
  143.5294  133.2907  151.1332 C   0  0  0  0  0  0  0  0  0  0  0  0
  143.9152  131.9824  151.1907 C   0  0  0  0  0  0  0  0  0  0  0  0
  145.3196  132.0347  150.9695 C   0  0  0  0  0  0  0  0  0  0  0  0
  145.7625  133.2682  150.7872 N   0  0  0  0  0  0  0  0  0  0  0  0
  146.1139  136.6879  152.4625 N   0  0  0  0  0  0  0  0  0  0  0  0
  146.3954  137.6910  153.3064 C   0  0  0  0  0  0  0  0  0  0  0  0
  145.5493  138.2985  153.9626 O   0  0  0  0  0  0  0  0  0  0  0  0
  147.7076  137.9714  153.3153 N   0  0  0  0  0  0  0  0  0  0  0  0
  148.3736  139.0708  154.0174 C   0  0  2  0  0  0  0  0  0  0  0  0
  147.7852  140.4338  153.6066 C   0  0  0  0  0  0  0  0  0  0  0  0
  149.9100  139.0013  153.8583 C   0  0  1  0  0  0  0  0  0  0  0  0
  150.6877  139.9694  154.7529 C   0  0  0  0  0  0  0  0  0  0  0  0
  152.0249  139.2756  154.9714 C   0  0  0  0  0  0  0  0  0  0  0  0
  151.8127  137.8671  154.4129 C   0  0  0  0  0  0  0  0  0  0  0  0
  150.4051  137.7398  154.2827 O   0  0  0  0  0  0  0  0  0  0  0  0
  143.2648  134.9346  153.0450 H   0  0  0  0  0  0  0  0  0  0  0  0
  144.2522  135.8129  154.2053 H   0  0  0  0  0  0  0  0  0  0  0  0
  144.9184  134.4156  153.3615 H   0  0  0  0  0  0  0  0  0  0  0  0
  144.0819  137.0541  152.0736 H   0  0  0  0  0  0  0  0  0  0  0  0
  143.9658  135.8464  150.1324 H   0  0  0  0  0  0  0  0  0  0  0  0
  145.7048  135.6996  150.2278 H   0  0  0  0  0  0  0  0  0  0  0  0
  142.5567  133.7450  151.2509 H   0  0  0  0  0  0  0  0  0  0  0  0
  143.2902  131.1196  151.3664 H   0  0  0  0  0  0  0  0  0  0  0  0
  146.0256  131.2181  150.9348 H   0  0  0  0  0  0  0  0  0  0  0  0
  146.8831  136.2532  151.9744 H   0  0  0  0  0  0  0  0  0  0  0  0
  148.3026  137.4007  152.7329 H   0  0  0  0  0  0  0  0  0  0  0  0
  148.1408  138.9203  155.0722 H   0  0  0  0  0  0  0  0  0  0  0  0
  148.1783  141.2361  154.2313 H   0  0  0  0  0  0  0  0  0  0  0  0
  146.7002  140.4412  153.7135 H   0  0  0  0  0  0  0  0  0  0  0  0
  148.0198  140.6823  152.5715 H   0  0  0  0  0  0  0  0  0  0  0  0
  150.2042  139.1591  152.8190 H   0  0  0  0  0  0  0  0  0  0  0  0
  150.7939  140.9566  154.3023 H   0  0  0  0  0  0  0  0  0  0  0  0
  150.1820  140.0922  155.7118 H   0  0  0  0  0  0  0  0  0  0  0  0
  152.8377  139.7829  154.4511 H   0  0  0  0  0  0  0  0  0  0  0  0
  152.2709  139.2480  156.0336 H   0  0  0  0  0  0  0  0  0  0  0  0
  152.2740  137.7727  153.4291 H   0  0  0  0  0  0  0  0  0  0  0  0
  152.2245  137.0909  155.0581 H   0  0  0  0  0  0  0  0  0  0  0  0
  1  2  1  0  0  0  0
  1 20  1  0  0  0  0
  1 21  1  0  0  0  0
  1 22  1  0  0  0  0
  2  3  1  0  0  0  0
  2  9  1  0  0  0  0
  2 23  1  0  0  0  0
  3  4  1  0  0  0  0
  3 24  1  0  0  0  0
  3 25  1  0  0  0  0
  4  8  1  0  0  0  0
  4  5  1  0  0  0  0
  5  6  2  0  0  0  0
  5 26  1  0  0  0  0
  6  7  1  0  0  0  0
  6 27  1  0  0  0  0
  7  8  2  0  0  0  0
  7 28  1  0  0  0  0
  9 10  1  0  0  0  0
  9 29  1  0  0  0  0
 10 11  2  0  0  0  0
 10 12  1  0  0  0  0
 12 13  1  0  0  0  0
 12 30  1  0  0  0  0
 13 14  1  0  0  0  0
 13 15  1  0  0  0  0
 13 31  1  0  0  0  0
 14 32  1  0  0  0  0
 14 33  1  0  0  0  0
 14 34  1  0  0  0  0
 15 19  1  0  0  0  0
 15 16  1  0  0  0  0
 15 35  1  0  0  0  0
 16 17  1  0  0  0  0
 16 36  1  0  0  0  0
 16 37  1  0  0  0  0
 17 18  1  0  0  0  0
 17 38  1  0  0  0  0
 17 39  1  0  0  0  0
 18 19  1  0  0  0  0
 18 40  1  0  0  0  0
 18 41  1  0  0  0  0
M  END
> <s_m_source_file>
AV-unprocessed.smi

> <i_m_source_file_index>
3350

> <i_lp_mmshare_version>
43012

> <i_f3d_flags>
0

> <s_epik_input>
bjFbY0hdW2NIXVtjSF1uMVtDSDJdW0NAQEhdKFtDSDNdKVtOSF1DKD1PKVtOSF1bQ0BIXShbQ0gzXSlbQ0BASF0yW0NIMl1bQ0gyXVtDSDJdTzI=

> <s_epik_cmdline>
J2VwaWtfcHl0aG9uJywgJy1waCcsICc3LjAnLCAnLXRuJywgJzgnLCAnLW1hJywgJzIwMCcsICctbWV0YWxfYmluZGluZycsICctaW1hZScsICc8aW5maWxlLm1hZT4nLCAnLW9tYWUnLCAnPG91dGZpbGUubWFlPic=

> <r_lp_tautomer_probability>
1

> <r_epik_Ionization_Penalty>
6.42349e-05

> <r_epik_Ionization_Penalty_Charging>
0

> <r_epik_Ionization_Penalty_Neutral>
6.42349e-05

> <r_epik_State_Penalty>
-0

> <r_epik_Charging_Adjusted_Penalty>
0

> <i_epik_Tot_Q>
0

> <i_epik_Tot_abs_Q>
0

> <r_epik_Metal_State_Penalty>
-0

> <b_epik_Metal_Only>
0

> <s_lp_Force_Field>
OPLS_2005

> <r_lp_Energy>
15.1483

> <b_lp_Chiralities_Consistent>
1

> <s_lp_Variant>
AV-unprocessed.smi:3350-5

> <Gold.Version>
5.8.1

> <Gold.Id.Protein>
6NUR|6NUR_protein|mol2

> <Gold.PLP.Fitness>
43.9234

> <Gold.PLP.PLP>
-34.4339

> <Gold.PLP.part.hbond>
-2.0000

> <Gold.PLP.part.metal>
0.0000

> <Gold.PLP.part.buried>
-4.4355

> <Gold.PLP.part.nonpolar>
-29.5733

> <Gold.PLP.part.repulsive>
0.5884

> <Gold.PLP.ligand.clash>
0.0000

> <Gold.PLP.ligand.torsion>
1.2596

> <Gold.PLP.Chemscore.Hbond>
1.9600

> <Gold.PLP.Chemscore.CHOScore>
2.0000

> <Gold.PLP.Chemscore.Metal>
0.0000

> <Gold.Chemscore.Hbonds>
donor molecule, donor type, donor heavy atom, donor atom, acceptor molecule, acceptor atom, score
      L1  H     9    29       P1  7948  0.84
      L1  H    12    30       P1  7948  1.00
      L1  C     5    26       P1 10186  0.99

> <Gold.PLP.Chemscore.Internal.Correction>
0.1287

> <Gold.Rescore>
     Score         DG    S(hbond)    S(metal)    S(lipo)     H(rot)  DE(clash)    DE(int)     intcor
     13.81     -16.68       1.94        0.00      80.26       1.82       0.19       2.68       ----

> <Gold.Chemscore.Fitness>
13.8109

> <Gold.Chemscore.DG>
-16.6799

> <Gold.Chemscore.ZeroCoef>
-5.4800

> <Gold.Chemscore.Hbond>
1.9363

> <Gold.Chemscore.Metal>
0.0000

> <Gold.Chemscore.Lipo>
80.2640

> <Gold.Chemscore.Internal_Hbond>
0.0000

> <Gold.Chemscore.DEClash>
0.1864

> <Gold.Chemscore.DEInternal>
2.6827

> <Gold.Chemscore.Rot>
1.8197

> <Gold.Chemscore.Internal.Correction>
   9.000000E+99

> <Gold.Chemscore.Hbonds>
donor molecule, donor type, donor heavy atom, donor atom, acceptor molecule, acceptor atom, score
      L1  H     9    29       P1  7948  0.78
      L1  H    12    30       P1  7948  0.98

> <Gold.Chemscore.Hbond.Weighted>
-6.4674

> <Gold.Chemscore.Metal.Weighted>
-0.0000

> <Gold.Chemscore.Lipo.Weighted>
-9.3909

> <Gold.Chemscore.Internal_Hbond.Weighted>
0.0000

> <Gold.Chemscore.DEClash.Weighted>
0.1864

> <Gold.Chemscore.DEInternal.Weighted>
2.6827

> <Gold.Chemscore.Rot.Weighted>
4.6583

> <Gold.Chemscore.Internal.Correction.Weighted>
   9.000000E+99

> <Gold.Protein.RotatedTorsions>
[ 6907 6896 6895 6894 ] final -164.86 input  -60.11 | X-H torsion
[ 7974 7965 7964 7962 ] final -109.56 input  175.53 | X-H torsion
[ 8008 7997 7996 7995 ] final  -49.27 input   59.86 | X-H torsion
[ 10167 10162 10161 10158 ] final   22.16 input  -65.29 | X-H torsion
[ 10718 10713 10712 10709 ] final  175.13 input   66.30 | X-H torsion
[ 10763 10752 10751 10750 ] final -159.63 input  -60.55 | X-H torsion
[ 11005 11000 10999 10996 ] final   50.44 input  -57.11 | X-H torsion

> <Gold.Protein.ActiveResidues>
 VAL166  LYS551  ARG553  GLY616  TRP617  ASP618  TYR619  PRO620  LYS621  CYS622 
 ASP623  PHE694  ASN695  SER759  ASP760  ASP761  ALA762  ILE779  LEU786  VAL792 
 PHE793  MET794  SER795  GLU796  ALA797  LYS798  CYS799  TRP800  GLU811  SER814 

> <Gold.Protein.RotatedAtoms>
  151.4185  133.3705  159.2752 H   0  0  0  0  0  0  0  0  0  0  0  0  # atno 6907 bound_to 6896
  150.9311  134.8727  159.7562 H   0  0  0  0  0  0  0  0  0  0  0  0  # atno 6908 bound_to 6896
  152.5028  134.4130  159.9507 H   0  0  0  0  0  0  0  0  0  0  0  0  # atno 6909 bound_to 6896
  145.1791  140.8962  143.3490 H   0  0  0  0  0  0  0  0  0  0  0  0  # atno 7974 bound_to 7965
  154.4041  140.1301  156.4476 H   0  0  0  0  0  0  0  0  0  0  0  0  # atno 8008 bound_to 7997
  155.7398  140.3490  155.5079 H   0  0  0  0  0  0  0  0  0  0  0  0  # atno 8009 bound_to 7997
  155.9050  140.1026  157.1312 H   0  0  0  0  0  0  0  0  0  0  0  0  # atno 8010 bound_to 7997
  140.5370  143.9742  150.6497 H   0  0  0  0  0  0  0  0  0  0  0  0  # atno 10167 bound_to 10162
  156.9394  130.9996  151.2971 H   0  0  0  0  0  0  0  0  0  0  0  0  # atno 10718 bound_to 10713
  154.7458  135.3080  154.8646 H   0  0  0  0  0  0  0  0  0  0  0  0  # atno 10763 bound_to 10752
  153.9448  135.6770  153.4748 H   0  0  0  0  0  0  0  0  0  0  0  0  # atno 10764 bound_to 10752
  153.1055  135.4891  154.8870 H   0  0  0  0  0  0  0  0  0  0  0  0  # atno 10765 bound_to 10752
  140.1017  134.5072  155.8756 H   0  0  0  0  0  0  0  0  0  0  0  0  # atno 11005 bound_to 11000
  145.0155  139.3471  143.6099 LP  0  0  0  0  0  0  0  0  0  0  0  0  # atno 17320 bound_to 7965
  146.3456  139.9434  142.8738 LP  0  0  0  0  0  0  0  0  0  0  0  0  # atno 17321 bound_to 7965
  140.3133  143.3184  152.0857 LP  0  0  0  0  0  0  0  0  0  0  0  0  # atno 17342 bound_to 10162
  139.4975  144.6622  151.6438 LP  0  0  0  0  0  0  0  0  0  0  0  0  # atno 17343 bound_to 10162
  157.5795  130.8366  149.8502 LP  0  0  0  0  0  0  0  0  0  0  0  0  # atno 17370 bound_to 10713
  156.0411  130.3739  150.1433 LP  0  0  0  0  0  0  0  0  0  0  0  0  # atno 17371 bound_to 10713
  141.2107  133.6698  156.6531 LP  0  0  0  0  0  0  0  0  0  0  0  0  # atno 17394 bound_to 11000
  140.3211  134.8007  157.4253 LP  0  0  0  0  0  0  0  0  0  0  0  0  # atno 17395 bound_to 11000

$$$$
