AV-unprocessed.smi:3014|AV-procd|sdf|11469|dock5
  -GOLD-   2272016403D 1   1.00000     0.00000
 Structure written by MMmdl.
 45 46  0  0  0  0  0  0  0  0  1 V2000
  152.1784  144.1729  159.0551 C   0  0  0  0  0  0  0  0  0  0  0  0
  152.5780  142.7001  158.8860 C   0  0  1  0  0  0  0  0  0  0  0  0
  153.4037  142.2017  160.0874 C   0  0  0  0  0  0  0  0  0  0  0  0
  153.7992  140.7253  159.9296 C   0  0  0  0  0  0  0  0  0  0  0  0
  152.5648  139.8361  159.7057 C   0  0  0  0  0  0  0  0  0  0  0  0
  151.7263  140.3141  158.5073 C   0  0  2  0  0  0  0  0  0  0  0  0
  152.4955  140.0972  157.3299 O   0  0  0  0  0  0  0  0  0  0  0  0
  152.0138  139.0591  156.4847 C   0  0  0  0  0  0  0  0  0  0  0  0
  150.8904  139.5966  155.5960 C   0  0  0  0  0  0  0  0  0  0  0  0
  151.0648  139.6469  154.3785 O   0  0  0  0  0  0  0  0  0  0  0  0
  149.7696  140.0003  156.2246 N   0  0  0  0  0  0  0  0  0  0  0  0
  148.5905  140.5464  155.6546 C   0  0  0  0  0  0  0  0  0  0  0  0
  148.2292  140.0425  154.3866 C   0  0  0  0  0  0  0  0  0  0  0  0
  147.0615  140.5647  153.7979 C   0  0  0  0  0  0  0  0  0  0  0  0
  146.3148  141.5039  154.4132 N   0  0  0  0  0  0  0  0  0  0  0  0
  146.7265  141.9271  155.6146 C   0  0  0  0  0  0  0  0  0  0  0  0
  145.9536  142.8985  156.2572 N   0  0  0  0  0  0  0  0  0  0  0  0
  146.1889  143.2503  157.6545 C   0  0  0  0  0  0  0  0  0  0  0  0
  144.8789  143.5944  155.5551 C   0  0  0  0  0  0  0  0  0  0  0  0
  147.8215  141.4904  156.2502 N   0  0  0  0  0  0  0  0  0  0  0  0
  151.3434  141.8014  158.6708 C   0  0  0  0  0  0  0  0  0  0  0  0
  151.5465  144.3152  159.9325 H   0  0  0  0  0  0  0  0  0  0  0  0
  151.6274  144.5332  158.1861 H   0  0  0  0  0  0  0  0  0  0  0  0
  153.0579  144.8065  159.1722 H   0  0  0  0  0  0  0  0  0  0  0  0
  153.2039  142.6319  157.9948 H   0  0  0  0  0  0  0  0  0  0  0  0
  154.3022  142.8093  160.2007 H   0  0  0  0  0  0  0  0  0  0  0  0
  152.8298  142.3265  161.0068 H   0  0  0  0  0  0  0  0  0  0  0  0
  154.4862  140.6192  159.0891 H   0  0  0  0  0  0  0  0  0  0  0  0
  154.3415  140.3905  160.8142 H   0  0  0  0  0  0  0  0  0  0  0  0
  152.8730  138.8006  159.5577 H   0  0  0  0  0  0  0  0  0  0  0  0
  151.9473  139.8462  160.6048 H   0  0  0  0  0  0  0  0  0  0  0  0
  150.8215  139.7055  158.4630 H   0  0  0  0  0  0  0  0  0  0  0  0
  152.8150  138.6843  155.8464 H   0  0  0  0  0  0  0  0  0  0  0  0
  151.6328  138.2229  157.0710 H   0  0  0  0  0  0  0  0  0  0  0  0
  149.7624  139.8947  157.2287 H   0  0  0  0  0  0  0  0  0  0  0  0
  148.8181  139.2895  153.8834 H   0  0  0  0  0  0  0  0  0  0  0  0
  146.7249  140.2262  152.8292 H   0  0  0  0  0  0  0  0  0  0  0  0
  146.1151  142.3661  158.2886 H   0  0  0  0  0  0  0  0  0  0  0  0
  145.4656  143.9799  158.0187 H   0  0  0  0  0  0  0  0  0  0  0  0
  147.1847  143.6782  157.7745 H   0  0  0  0  0  0  0  0  0  0  0  0
  144.1017  142.8898  155.2576 H   0  0  0  0  0  0  0  0  0  0  0  0
  145.2619  144.0825  154.6583 H   0  0  0  0  0  0  0  0  0  0  0  0
  144.4157  144.3612  156.1760 H   0  0  0  0  0  0  0  0  0  0  0  0
  150.6762  141.8998  159.5281 H   0  0  0  0  0  0  0  0  0  0  0  0
  150.7707  142.1497  157.8120 H   0  0  0  0  0  0  0  0  0  0  0  0
  1  2  1  0  0  0  0
  1 22  1  0  0  0  0
  1 23  1  0  0  0  0
  1 24  1  0  0  0  0
  2 21  1  0  0  0  0
  2  3  1  0  0  0  0
  2 25  1  0  0  0  0
  3  4  1  0  0  0  0
  3 26  1  0  0  0  0
  3 27  1  0  0  0  0
  4  5  1  0  0  0  0
  4 28  1  0  0  0  0
  4 29  1  0  0  0  0
  5  6  1  0  0  0  0
  5 30  1  0  0  0  0
  5 31  1  0  0  0  0
  6  7  1  0  0  0  0
  6 21  1  0  0  0  0
  6 32  1  0  0  0  0
  7  8  1  0  0  0  0
  8  9  1  0  0  0  0
  8 33  1  0  0  0  0
  8 34  1  0  0  0  0
  9 10  2  0  0  0  0
  9 11  1  0  0  0  0
 11 12  1  0  0  0  0
 11 35  1  0  0  0  0
 12 20  1  0  0  0  0
 12 13  2  0  0  0  0
 13 14  1  0  0  0  0
 13 36  1  0  0  0  0
 14 15  2  0  0  0  0
 14 37  1  0  0  0  0
 15 16  1  0  0  0  0
 16 17  1  0  0  0  0
 16 20  2  0  0  0  0
 17 18  1  0  0  0  0
 17 19  1  0  0  0  0
 18 38  1  0  0  0  0
 18 39  1  0  0  0  0
 18 40  1  0  0  0  0
 19 41  1  0  0  0  0
 19 42  1  0  0  0  0
 19 43  1  0  0  0  0
 21 44  1  0  0  0  0
 21 45  1  0  0  0  0
M  END
> <s_m_source_file>
AV-unprocessed.smi

> <i_m_source_file_index>
3014

> <i_lp_mmshare_version>
43012

> <i_f3d_flags>
0

> <s_epik_input>
W0NIM11bQ0BASF0xW0NIMl1bQ0gyXVtDSDJdW0NASF0oW0NIMl0xKU9bQ0gyXUMoPU8pW05IXWMyW2NIXVtjSF1uYyhuMilOKFtDSDNdKVtDSDNd

> <s_epik_cmdline>
J2VwaWtfcHl0aG9uJywgJy1waCcsICc3LjAnLCAnLXRuJywgJzgnLCAnLW1hJywgJzIwMCcsICctbWV0YWxfYmluZGluZycsICctaW1hZScsICc8aW5maWxlLm1hZT4nLCAnLW9tYWUnLCAnPG91dGZpbGUubWFlPic=

> <r_lp_tautomer_probability>
1

> <r_epik_Ionization_Penalty>
0.000308195

> <r_epik_Ionization_Penalty_Charging>
0

> <r_epik_Ionization_Penalty_Neutral>
0.000308195

> <r_epik_State_Penalty>
-0

> <r_epik_Charging_Adjusted_Penalty>
0

> <i_epik_Tot_Q>
0

> <i_epik_Tot_abs_Q>
0

> <r_epik_Metal_State_Penalty>
-0

> <b_epik_Metal_Only>
0

> <s_lp_Force_Field>
OPLS_2005

> <r_lp_Energy>
6.78662

> <b_lp_Chiralities_Consistent>
1

> <s_lp_Variant>
AV-unprocessed.smi:3014-4

> <Gold.Version>
5.8.1

> <Gold.Id.Protein>
6NUR|6NUR_protein|mol2

> <Gold.PLP.Fitness>
38.6292

> <Gold.PLP.PLP>
-35.0094

> <Gold.PLP.part.hbond>
-2.0000

> <Gold.PLP.part.metal>
0.0000

> <Gold.PLP.part.buried>
-5.0464

> <Gold.PLP.part.nonpolar>
-29.8376

> <Gold.PLP.part.repulsive>
0.4203

> <Gold.PLP.ligand.clash>
0.0000

> <Gold.PLP.ligand.torsion>
1.1327

> <Gold.PLP.Chemscore.Hbond>
1.9513

> <Gold.PLP.Chemscore.CHOScore>
0.0000

> <Gold.PLP.Chemscore.Metal>
0.0000

> <Gold.Chemscore.Hbonds>
donor molecule, donor type, donor heavy atom, donor atom, acceptor molecule, acceptor atom, score
      P1  H  7989  7998       L1    10  1.00
      P1  H  7997  8010       L1     7  0.98

> <Gold.PLP.Chemscore.Internal.Correction>
0.0315

> <Gold.Rescore>
     Score         DG    S(hbond)    S(metal)    S(lipo)     H(rot)  DE(clash)    DE(int)     intcor
     14.72     -17.19       1.69        0.00      83.21       1.43       0.00       2.47       ----

> <Gold.Chemscore.Fitness>
14.7155

> <Gold.Chemscore.DG>
-17.1894

> <Gold.Chemscore.ZeroCoef>
-5.4800

> <Gold.Chemscore.Hbond>
1.6878

> <Gold.Chemscore.Metal>
0.0000

> <Gold.Chemscore.Lipo>
83.2082

> <Gold.Chemscore.Internal_Hbond>
0.0000

> <Gold.Chemscore.DEClash>
0.0000

> <Gold.Chemscore.DEInternal>
2.4740

> <Gold.Chemscore.Rot>
1.4310

> <Gold.Chemscore.Internal.Correction>
   9.000000E+99

> <Gold.Chemscore.Hbonds>
donor molecule, donor type, donor heavy atom, donor atom, acceptor molecule, acceptor atom, score
      P1  H  7989  7998       L1    10  0.99
      P1  H  7997  8010       L1     7  0.26

> <Gold.Chemscore.Hbond.Weighted>
-5.6373

> <Gold.Chemscore.Metal.Weighted>
-0.0000

> <Gold.Chemscore.Lipo.Weighted>
-9.7354

> <Gold.Chemscore.Internal_Hbond.Weighted>
0.0000

> <Gold.Chemscore.DEClash.Weighted>
0.0000

> <Gold.Chemscore.DEInternal.Weighted>
2.4740

> <Gold.Chemscore.Rot.Weighted>
3.6632

> <Gold.Chemscore.Internal.Correction.Weighted>
   9.000000E+99

> <Gold.Protein.RotatedTorsions>
[ 6907 6896 6895 6894 ] final   68.43 input  -60.11 | X-H torsion
[ 7974 7965 7964 7962 ] final   56.40 input  175.53 | X-H torsion
[ 8008 7997 7996 7995 ] final   45.19 input   59.86 | X-H torsion
[ 10167 10162 10161 10158 ] final  128.89 input  -65.29 | X-H torsion
[ 10718 10713 10712 10709 ] final  -71.85 input   66.30 | X-H torsion
[ 10763 10752 10751 10750 ] final  130.16 input  -60.55 | X-H torsion
[ 11005 11000 10999 10996 ] final  -95.12 input  -57.11 | X-H torsion

> <Gold.Protein.ActiveResidues>
 VAL166  LYS551  ARG553  GLY616  TRP617  ASP618  TYR619  PRO620  LYS621  CYS622 
 ASP623  PHE694  ASN695  SER759  ASP760  ASP761  ALA762  ILE779  LEU786  VAL792 
 PHE793  MET794  SER795  GLU796  ALA797  LYS798  CYS799  TRP800  GLU811  SER814 

> <Gold.Protein.RotatedAtoms>
  152.4620  134.5163  159.9768 H   0  0  0  0  0  0  0  0  0  0  0  0  # atno 6907 bound_to 6896
  151.5210  133.3461  159.2909 H   0  0  0  0  0  0  0  0  0  0  0  0  # atno 6908 bound_to 6896
  150.8587  134.7962  159.7128 H   0  0  0  0  0  0  0  0  0  0  0  0  # atno 6909 bound_to 6896
  145.9402  139.3882  143.0368 H   0  0  0  0  0  0  0  0  0  0  0  0  # atno 7974 bound_to 7965
  155.3318  140.3403  155.4239 H   0  0  0  0  0  0  0  0  0  0  0  0  # atno 8008 bound_to 7997
  156.1858  140.1680  156.8225 H   0  0  0  0  0  0  0  0  0  0  0  0  # atno 8009 bound_to 7997
  154.5384  140.0730  156.8451 H   0  0  0  0  0  0  0  0  0  0  0  0  # atno 8010 bound_to 7997
  139.5505  144.6809  151.4340 H   0  0  0  0  0  0  0  0  0  0  0  0  # atno 10167 bound_to 10162
  156.0345  130.4360  150.2506 H   0  0  0  0  0  0  0  0  0  0  0  0  # atno 10718 bound_to 10713
  153.7534  135.3206  155.3325 H   0  0  0  0  0  0  0  0  0  0  0  0  # atno 10763 bound_to 10752
  154.8255  135.4573  154.0909 H   0  0  0  0  0  0  0  0  0  0  0  0  # atno 10764 bound_to 10752
  153.2118  135.6937  153.8187 H   0  0  0  0  0  0  0  0  0  0  0  0  # atno 10765 bound_to 10752
  141.1451  133.8003  157.0391 H   0  0  0  0  0  0  0  0  0  0  0  0  # atno 11005 bound_to 11000
  145.8310  140.9631  143.0849 LP  0  0  0  0  0  0  0  0  0  0  0  0  # atno 17320 bound_to 7965
  144.6778  140.0162  143.7484 LP  0  0  0  0  0  0  0  0  0  0  0  0  # atno 17321 bound_to 7965
  140.6766  143.8177  150.7066 LP  0  0  0  0  0  0  0  0  0  0  0  0  # atno 17342 bound_to 10162
  140.1617  143.4270  152.2062 LP  0  0  0  0  0  0  0  0  0  0  0  0  # atno 17343 bound_to 10162
  157.0606  131.0089  151.3224 LP  0  0  0  0  0  0  0  0  0  0  0  0  # atno 17370 bound_to 10713
  157.5073  130.7917  149.7668 LP  0  0  0  0  0  0  0  0  0  0  0  0  # atno 17371 bound_to 10713
  140.0704  134.9705  157.1458 LP  0  0  0  0  0  0  0  0  0  0  0  0  # atno 17394 bound_to 11000
  140.3719  134.2381  155.7177 LP  0  0  0  0  0  0  0  0  0  0  0  0  # atno 17395 bound_to 11000

$$$$
