AV-unprocessed.smi:1394|AV-procd|sdf|5666|dock3
  -GOLD-   22720 5293D 1   1.00000     0.00000
 Structure written by MMmdl.
 41 42  0  0  0  0  0  0  0  0  1 V2000
  151.6597  144.0745  159.2873 C   0  0  0  0  0  0  0  0  0  0  0  0
  152.7389  143.3932  160.1460 C   0  0  1  0  0  0  0  0  0  0  0  0
  152.2627  143.1932  161.5996 C   0  0  0  0  0  0  0  0  0  0  0  0
  153.3641  142.5750  162.4753 C   0  0  0  0  0  0  0  0  0  0  0  0
  153.8714  141.2520  161.8829 C   0  0  0  0  0  0  0  0  0  0  0  0
  154.3486  141.4376  160.4321 C   0  0  0  0  0  0  0  0  0  0  0  0
  153.2635  142.0677  159.5350 C   0  0  1  0  0  0  0  0  0  0  0  0
  152.1870  141.1006  159.3088 N   0  0  0  0  0  0  0  0  0  0  0  0
  152.2609  139.9964  158.5496 C   0  0  0  0  0  0  0  0  0  0  0  0
  153.2674  139.6767  157.9152 O   0  0  0  0  0  0  0  0  0  0  0  0
  150.9868  139.1407  158.4935 C   0  0  0  0  0  0  0  0  0  0  0  0
  150.8807  138.3237  157.2719 N   0  0  0  0  0  0  0  0  0  0  0  0
  150.9921  138.9996  156.0438 C   0  0  0  0  0  0  0  0  0  0  0  0
  150.9189  138.3525  154.8729 C   0  0  0  0  0  0  0  0  0  0  0  0
  150.7246  136.9234  154.8946 C   0  0  0  0  0  0  0  0  0  0  0  0
  150.6156  136.2450  156.0604 C   0  0  0  0  0  0  0  0  0  0  0  0
  150.4203  134.7311  156.1012 C   0  0  0  0  0  0  0  0  0  0  0  0
  151.5321  134.1248  156.5199 F   0  0  0  0  0  0  0  0  0  0  0  0
  149.4307  134.4093  156.9352 F   0  0  0  0  0  0  0  0  0  0  0  0
  150.1168  134.2389  154.8990 F   0  0  0  0  0  0  0  0  0  0  0  0
  150.6919  136.9694  157.3457 C   0  0  0  0  0  0  0  0  0  0  0  0
  150.5936  136.3968  158.4324 O   0  0  0  0  0  0  0  0  0  0  0  0
  150.7398  143.4904  159.2554 H   0  0  0  0  0  0  0  0  0  0  0  0
  152.0040  144.2130  158.2622 H   0  0  0  0  0  0  0  0  0  0  0  0
  151.4093  145.0581  159.6854 H   0  0  0  0  0  0  0  0  0  0  0  0
  153.5852  144.0812  160.1796 H   0  0  0  0  0  0  0  0  0  0  0  0
  151.9563  144.1496  162.0247 H   0  0  0  0  0  0  0  0  0  0  0  0
  151.3795  142.5533  161.6175 H   0  0  0  0  0  0  0  0  0  0  0  0
  154.1945  143.2764  162.5664 H   0  0  0  0  0  0  0  0  0  0  0  0
  152.9875  142.4100  163.4852 H   0  0  0  0  0  0  0  0  0  0  0  0
  154.6860  140.8609  162.4929 H   0  0  0  0  0  0  0  0  0  0  0  0
  153.0765  140.5060  161.9189 H   0  0  0  0  0  0  0  0  0  0  0  0
  155.2308  142.0788  160.4285 H   0  0  0  0  0  0  0  0  0  0  0  0
  154.6703  140.4803  160.0198 H   0  0  0  0  0  0  0  0  0  0  0  0
  153.7375  142.3008  158.5799 H   0  0  0  0  0  0  0  0  0  0  0  0
  151.3143  141.2847  159.7820 H   0  0  0  0  0  0  0  0  0  0  0  0
  150.9456  138.5021  159.3778 H   0  0  0  0  0  0  0  0  0  0  0  0
  150.1274  139.8065  158.5850 H   0  0  0  0  0  0  0  0  0  0  0  0
  151.1451  140.0667  156.1152 H   0  0  0  0  0  0  0  0  0  0  0  0
  151.0087  138.8861  153.9380 H   0  0  0  0  0  0  0  0  0  0  0  0
  150.6714  136.3992  153.9522 H   0  0  0  0  0  0  0  0  0  0  0  0
  1  2  1  0  0  0  0
  1 23  1  0  0  0  0
  1 24  1  0  0  0  0
  1 25  1  0  0  0  0
  2  7  1  0  0  0  0
  2  3  1  0  0  0  0
  2 26  1  0  0  0  0
  3  4  1  0  0  0  0
  3 27  1  0  0  0  0
  3 28  1  0  0  0  0
  4  5  1  0  0  0  0
  4 29  1  0  0  0  0
  4 30  1  0  0  0  0
  5  6  1  0  0  0  0
  5 31  1  0  0  0  0
  5 32  1  0  0  0  0
  6  7  1  0  0  0  0
  6 33  1  0  0  0  0
  6 34  1  0  0  0  0
  7  8  1  0  0  0  0
  7 35  1  0  0  0  0
  8  9  1  0  0  0  0
  8 36  1  0  0  0  0
  9 10  2  0  0  0  0
  9 11  1  0  0  0  0
 11 12  1  0  0  0  0
 11 37  1  0  0  0  0
 11 38  1  0  0  0  0
 12 21  1  0  0  0  0
 12 13  1  0  0  0  0
 13 14  2  0  0  0  0
 13 39  1  0  0  0  0
 14 15  1  0  0  0  0
 14 40  1  0  0  0  0
 15 16  2  0  0  0  0
 15 41  1  0  0  0  0
 16 17  1  0  0  0  0
 16 21  1  0  0  0  0
 17 18  1  0  0  0  0
 17 19  1  0  0  0  0
 17 20  1  0  0  0  0
 21 22  2  0  0  0  0
M  END
> <s_m_source_file>
AV-unprocessed.smi

> <i_m_source_file_index>
1394

> <i_lp_mmshare_version>
43012

> <i_f3d_flags>
0

> <s_epik_input>
W0NIM11bQ0BASF0xW0NIMl1bQ0gyXVtDSDJdW0NIMl1bQ0BIXTFbTkhdQyg9TylbQ0gyXW4yW2NIXVtjSF1bY0hdYyhDKEYpKEYpRiljMj1P

> <s_epik_cmdline>
J2VwaWtfcHl0aG9uJywgJy1waCcsICc3LjAnLCAnLXRuJywgJzgnLCAnLW1hJywgJzIwMCcsICctbWV0YWxfYmluZGluZycsICctaW1hZScsICc8aW5maWxlLm1hZT4nLCAnLW9tYWUnLCAnPG91dGZpbGUubWFlPic=

> <r_lp_tautomer_probability>
1

> <r_epik_Ionization_Penalty>
2.11487e-08

> <r_epik_Ionization_Penalty_Charging>
2.10183e-09

> <r_epik_Ionization_Penalty_Neutral>
1.90469e-08

> <r_epik_State_Penalty>
-0

> <r_epik_Charging_Adjusted_Penalty>
2.10183e-09

> <i_epik_Tot_Q>
0

> <i_epik_Tot_abs_Q>
0

> <r_epik_Metal_State_Penalty>
-0

> <b_epik_Metal_Only>
0

> <s_lp_Force_Field>
OPLS_2005

> <r_lp_Energy>
19.806

> <b_lp_Chiralities_Consistent>
1

> <s_lp_Variant>
AV-unprocessed.smi:1394-2

> <Gold.Version>
5.8.1

> <Gold.Id.Protein>
6NUR|6NUR_protein|mol2

> <Gold.PLP.Fitness>
48.9714

> <Gold.PLP.PLP>
-44.7479

> <Gold.PLP.part.hbond>
-2.0000

> <Gold.PLP.part.metal>
0.0000

> <Gold.PLP.part.buried>
-6.1461

> <Gold.PLP.part.nonpolar>
-37.1694

> <Gold.PLP.part.repulsive>
0.1339

> <Gold.PLP.ligand.clash>
0.0000

> <Gold.PLP.ligand.torsion>
0.9202

> <Gold.PLP.Chemscore.Hbond>
1.9040

> <Gold.PLP.Chemscore.CHOScore>
0.0000

> <Gold.PLP.Chemscore.Metal>
0.0000

> <Gold.Chemscore.Hbonds>
donor molecule, donor type, donor heavy atom, donor atom, acceptor molecule, acceptor atom, score
      P1  H  6896  6908       L1    22  0.88
      P1  H  7997  8009       L1    10  1.00

> <Gold.PLP.Chemscore.Internal.Correction>
0.3518

> <Gold.Rescore>
     Score         DG    S(hbond)    S(metal)    S(lipo)     H(rot)  DE(clash)    DE(int)     intcor
     17.55     -20.76       1.95        0.00     108.30       1.52       0.08       3.13       ----

> <Gold.Chemscore.Fitness>
17.5465

> <Gold.Chemscore.DG>
-20.7584

> <Gold.Chemscore.ZeroCoef>
-5.4800

> <Gold.Chemscore.Hbond>
1.9490

> <Gold.Chemscore.Metal>
0.0000

> <Gold.Chemscore.Lipo>
108.2957

> <Gold.Chemscore.Internal_Hbond>
0.0000

> <Gold.Chemscore.DEClash>
0.0819

> <Gold.Chemscore.DEInternal>
3.1301

> <Gold.Chemscore.Rot>
1.5242

> <Gold.Chemscore.Internal.Correction>
   9.000000E+99

> <Gold.Chemscore.Hbonds>
donor molecule, donor type, donor heavy atom, donor atom, acceptor molecule, acceptor atom, score
      P1  H  6896  6908       L1    22  0.85
      P1  H  7997  8009       L1    10  0.99

> <Gold.Chemscore.Hbond.Weighted>
-6.5097

> <Gold.Chemscore.Metal.Weighted>
-0.0000

> <Gold.Chemscore.Lipo.Weighted>
-12.6706

> <Gold.Chemscore.Internal_Hbond.Weighted>
0.0000

> <Gold.Chemscore.DEClash.Weighted>
0.0819

> <Gold.Chemscore.DEInternal.Weighted>
3.1301

> <Gold.Chemscore.Rot.Weighted>
3.9019

> <Gold.Chemscore.Internal.Correction.Weighted>
   9.000000E+99

> <Gold.Protein.RotatedTorsions>
[ 6907 6896 6895 6894 ] final -158.88 input  -60.11 | X-H torsion
[ 7974 7965 7964 7962 ] final   19.63 input  175.53 | X-H torsion
[ 8008 7997 7996 7995 ] final  154.57 input   59.86 | X-H torsion
[ 10167 10162 10161 10158 ] final -165.47 input  -65.29 | X-H torsion
[ 10718 10713 10712 10709 ] final  147.83 input   66.30 | X-H torsion
[ 10763 10752 10751 10750 ] final  -40.57 input  -60.55 | X-H torsion
[ 11005 11000 10999 10996 ] final   40.24 input  -57.11 | X-H torsion

> <Gold.Protein.ActiveResidues>
 VAL166  LYS551  ARG553  GLY616  TRP617  ASP618  TYR619  PRO620  LYS621  CYS622 
 ASP623  PHE694  ASN695  SER759  ASP760  ASP761  ALA762  ILE779  LEU786  VAL792 
 PHE793  MET794  SER795  GLU796  ALA797  LYS798  CYS799  TRP800  GLU811  SER814 

> <Gold.Protein.RotatedAtoms>
  151.3250  133.4024  159.2657 H   0  0  0  0  0  0  0  0  0  0  0  0  # atno 6907 bound_to 6896
  151.0003  134.9317  159.7960 H   0  0  0  0  0  0  0  0  0  0  0  0  # atno 6908 bound_to 6896
  152.5273  134.3215  159.9202 H   0  0  0  0  0  0  0  0  0  0  0  0  # atno 6909 bound_to 6896
  146.2142  139.8286  142.8665 H   0  0  0  0  0  0  0  0  0  0  0  0  # atno 7974 bound_to 7965
  156.2524  140.1963  156.6666 H   0  0  0  0  0  0  0  0  0  0  0  0  # atno 8008 bound_to 7997
  154.6424  140.0582  156.9886 H   0  0  0  0  0  0  0  0  0  0  0  0  # atno 8009 bound_to 7997
  155.1542  140.3254  155.4427 H   0  0  0  0  0  0  0  0  0  0  0  0  # atno 8010 bound_to 7997
  139.6180  144.0681  152.1906 H   0  0  0  0  0  0  0  0  0  0  0  0  # atno 10167 bound_to 10162
  157.3161  131.0896  151.1278 H   0  0  0  0  0  0  0  0  0  0  0  0  # atno 10718 bound_to 10713
  153.9482  135.6753  153.4744 H   0  0  0  0  0  0  0  0  0  0  0  0  # atno 10763 bound_to 10752
  153.0898  135.4880  154.8664 H   0  0  0  0  0  0  0  0  0  0  0  0  # atno 10764 bound_to 10752
  154.7340  135.3145  154.8802 H   0  0  0  0  0  0  0  0  0  0  0  0  # atno 10765 bound_to 10752
  140.1950  134.3940  155.8126 H   0  0  0  0  0  0  0  0  0  0  0  0  # atno 11005 bound_to 11000
  145.3021  141.0197  143.3602 LP  0  0  0  0  0  0  0  0  0  0  0  0  # atno 17320 bound_to 7965
  144.8998  139.4664  143.6638 LP  0  0  0  0  0  0  0  0  0  0  0  0  # atno 17321 bound_to 7965
  140.0316  144.6077  150.7483 LP  0  0  0  0  0  0  0  0  0  0  0  0  # atno 17342 bound_to 10162
  140.7364  143.2752  151.3764 LP  0  0  0  0  0  0  0  0  0  0  0  0  # atno 17343 bound_to 10162
  157.2581  130.6646  149.5962 LP  0  0  0  0  0  0  0  0  0  0  0  0  # atno 17370 bound_to 10713
  155.9681  130.4517  150.5746 LP  0  0  0  0  0  0  0  0  0  0  0  0  # atno 17371 bound_to 10713
  141.2227  133.7065  156.8161 LP  0  0  0  0  0  0  0  0  0  0  0  0  # atno 17394 bound_to 11000
  140.2117  134.8822  157.3282 LP  0  0  0  0  0  0  0  0  0  0  0  0  # atno 17395 bound_to 11000

$$$$
