AV-unprocessed.smi:1533|AV-procd|sdf|6164|dock9
  -GOLD-   22720 6313D 1   1.00000     0.00000
 Structure written by MMmdl.
 37 39  0  0  0  0  0  0  0  0  1 V2000
  144.4486  144.1147  154.4199 C   0  0  0  0  0  0  0  0  0  0  0  0
  145.6241  143.2625  154.7579 C   0  0  0  0  0  0  0  0  0  0  0  0
  145.8696  142.8860  156.0072 N   0  0  0  0  0  0  0  0  0  0  0  0
  147.0319  142.1103  155.8886 O   0  0  0  0  0  0  0  0  0  0  0  0
  147.3572  142.1313  154.5737 C   0  0  0  0  0  0  0  0  0  0  0  0
  148.5401  141.3481  154.1123 C   0  0  0  0  0  0  0  0  0  0  0  0
  149.4832  140.9767  155.2676 C   0  0  0  0  0  0  0  0  0  0  0  0
  149.7247  142.1111  156.1517 N   0  0  0  0  0  0  0  0  0  0  0  0
  150.3359  142.0439  157.3443 C   0  0  0  0  0  0  0  0  0  0  0  0
  150.7715  140.9926  157.8153 O   0  0  0  0  0  0  0  0  0  0  0  0
  150.4960  143.3774  158.0962 C   0  0  2  0  0  0  0  0  0  0  0  0
  151.5629  144.3312  157.5039 C   0  0  0  0  0  0  0  0  0  0  0  0
  152.4485  144.6582  158.7210 C   0  0  2  0  0  0  0  0  0  0  0  0
  153.3085  143.4308  159.0763 C   0  0  0  0  0  0  0  0  0  0  0  0
  152.2868  142.4763  159.7206 C   0  0  0  0  0  0  0  0  0  0  0  0
  150.9577  143.2498  159.5726 C   0  0  1  0  0  0  0  0  0  0  0  0
  151.4296  144.6730  159.8552 C   0  0  0  0  0  0  0  0  0  0  0  0
  146.5044  142.8199  153.8187 N   0  0  0  0  0  0  0  0  0  0  0  0
  143.8371  144.3052  155.3027 H   0  0  0  0  0  0  0  0  0  0  0  0
  143.8283  143.6207  153.6717 H   0  0  0  0  0  0  0  0  0  0  0  0
  144.7811  145.0716  154.0173 H   0  0  0  0  0  0  0  0  0  0  0  0
  148.1836  140.4494  153.6071 H   0  0  0  0  0  0  0  0  0  0  0  0
  149.0744  141.9356  153.3645 H   0  0  0  0  0  0  0  0  0  0  0  0
  149.0434  140.1751  155.8619 H   0  0  0  0  0  0  0  0  0  0  0  0
  150.4294  140.5933  154.8812 H   0  0  0  0  0  0  0  0  0  0  0  0
  149.4027  143.0143  155.8345 H   0  0  0  0  0  0  0  0  0  0  0  0
  149.5342  143.8937  158.0791 H   0  0  0  0  0  0  0  0  0  0  0  0
  152.1424  143.9070  156.6826 H   0  0  0  0  0  0  0  0  0  0  0  0
  151.0871  145.2368  157.1257 H   0  0  0  0  0  0  0  0  0  0  0  0
  153.0249  145.5766  158.6063 H   0  0  0  0  0  0  0  0  0  0  0  0
  153.7864  142.9955  158.1978 H   0  0  0  0  0  0  0  0  0  0  0  0
  154.0915  143.6926  159.7891 H   0  0  0  0  0  0  0  0  0  0  0  0
  152.2789  141.4880  159.2625 H   0  0  0  0  0  0  0  0  0  0  0  0
  152.5227  142.3340  160.7761 H   0  0  0  0  0  0  0  0  0  0  0  0
  150.1726  142.8989  160.2430 H   0  0  0  0  0  0  0  0  0  0  0  0
  151.8820  144.7947  160.8412 H   0  0  0  0  0  0  0  0  0  0  0  0
  150.6487  145.4249  159.7268 H   0  0  0  0  0  0  0  0  0  0  0  0
  1  2  1  0  0  0  0
  1 19  1  0  0  0  0
  1 20  1  0  0  0  0
  1 21  1  0  0  0  0
  2 18  1  0  0  0  0
  2  3  2  0  0  0  0
  3  4  1  0  0  0  0
  4  5  1  0  0  0  0
  5  6  1  0  0  0  0
  5 18  2  0  0  0  0
  6  7  1  0  0  0  0
  6 22  1  0  0  0  0
  6 23  1  0  0  0  0
  7  8  1  0  0  0  0
  7 24  1  0  0  0  0
  7 25  1  0  0  0  0
  8  9  1  0  0  0  0
  8 26  1  0  0  0  0
  9 10  2  0  0  0  0
  9 11  1  0  0  0  0
 11 16  1  0  0  0  0
 11 12  1  0  0  0  0
 11 27  1  0  0  0  0
 12 13  1  0  0  0  0
 12 28  1  0  0  0  0
 12 29  1  0  0  0  0
 13 17  1  0  0  0  0
 13 14  1  0  0  0  0
 13 30  1  0  0  0  0
 14 15  1  0  0  0  0
 14 31  1  0  0  0  0
 14 32  1  0  0  0  0
 15 16  1  0  0  0  0
 15 33  1  0  0  0  0
 15 34  1  0  0  0  0
 16 17  1  0  0  0  0
 16 35  1  0  0  0  0
 17 36  1  0  0  0  0
 17 37  1  0  0  0  0
M  END
> <s_m_source_file>
AV-unprocessed.smi

> <i_m_source_file_index>
1533

> <i_lp_mmshare_version>
43012

> <i_f3d_flags>
0

> <s_epik_input>
W0NIM11jMW5vYyhuMSlbQ0gyXVtDSDJdW05IXUMoPU8pW0NASF0oW0NIMl1bQ0BASF0yMylbQ0BASF0oW0NIMl0zKVtDSDJdW0NIMl0y

> <s_epik_cmdline>
J2VwaWtfcHl0aG9uJywgJy1waCcsICc3LjAnLCAnLXRuJywgJzgnLCAnLW1hJywgJzIwMCcsICctbWV0YWxfYmluZGluZycsICctaW1hZScsICc8aW5maWxlLm1hZT4nLCAnLW9tYWUnLCAnPG91dGZpbGUubWFlPic=

> <r_lp_tautomer_probability>
1

> <r_epik_Ionization_Penalty>
1.90116e-08

> <r_epik_Ionization_Penalty_Charging>
0

> <r_epik_Ionization_Penalty_Neutral>
1.90116e-08

> <r_epik_State_Penalty>
-0

> <r_epik_Charging_Adjusted_Penalty>
0

> <i_epik_Tot_Q>
0

> <i_epik_Tot_abs_Q>
0

> <r_epik_Metal_State_Penalty>
-0

> <b_epik_Metal_Only>
0

> <s_lp_Force_Field>
OPLS_2005

> <r_lp_Energy>
42.9891

> <b_lp_Chiralities_Consistent>
1

> <s_lp_Variant>
AV-unprocessed.smi:1533-3

> <Gold.Version>
5.8.1

> <Gold.Id.Protein>
6NUR|6NUR_protein|mol2

> <Gold.PLP.Fitness>
41.5060

> <Gold.PLP.PLP>
-39.6780

> <Gold.PLP.part.hbond>
-1.0000

> <Gold.PLP.part.metal>
0.0000

> <Gold.PLP.part.buried>
-3.3497

> <Gold.PLP.part.nonpolar>
-36.1144

> <Gold.PLP.part.repulsive>
0.5886

> <Gold.PLP.ligand.clash>
0.0000

> <Gold.PLP.ligand.torsion>
0.5936

> <Gold.PLP.Chemscore.Hbond>
1.0000

> <Gold.PLP.Chemscore.CHOScore>
0.0000

> <Gold.PLP.Chemscore.Metal>
0.0000

> <Gold.Chemscore.Hbonds>
donor molecule, donor type, donor heavy atom, donor atom, acceptor molecule, acceptor atom, score
      L1  H     8    26       P1  8028  1.00

> <Gold.PLP.Chemscore.Internal.Correction>
0.0153

> <Gold.Rescore>
     Score         DG    S(hbond)    S(metal)    S(lipo)     H(rot)  DE(clash)    DE(int)     intcor
     14.22     -15.97       1.00        0.00     101.56       1.85       0.04       1.70       ----

> <Gold.Chemscore.Fitness>
14.2250

> <Gold.Chemscore.DG>
-15.9687

> <Gold.Chemscore.ZeroCoef>
-5.4800

> <Gold.Chemscore.Hbond>
0.9998

> <Gold.Chemscore.Metal>
0.0000

> <Gold.Chemscore.Lipo>
101.5612

> <Gold.Chemscore.Internal_Hbond>
0.0000

> <Gold.Chemscore.DEClash>
0.0428

> <Gold.Chemscore.DEInternal>
1.7010

> <Gold.Chemscore.Rot>
1.8490

> <Gold.Chemscore.Internal.Correction>
   9.000000E+99

> <Gold.Chemscore.Hbonds>
donor molecule, donor type, donor heavy atom, donor atom, acceptor molecule, acceptor atom, score
      L1  H     8    26       P1  8028  1.00

> <Gold.Chemscore.Hbond.Weighted>
-3.3394

> <Gold.Chemscore.Metal.Weighted>
-0.0000

> <Gold.Chemscore.Lipo.Weighted>
-11.8827

> <Gold.Chemscore.Internal_Hbond.Weighted>
0.0000

> <Gold.Chemscore.DEClash.Weighted>
0.0428

> <Gold.Chemscore.DEInternal.Weighted>
1.7010

> <Gold.Chemscore.Rot.Weighted>
4.7334

> <Gold.Chemscore.Internal.Correction.Weighted>
   9.000000E+99

> <Gold.Protein.RotatedTorsions>
[ 6907 6896 6895 6894 ] final  139.24 input  -60.11 | X-H torsion
[ 7974 7965 7964 7962 ] final  105.76 input  175.53 | X-H torsion
[ 8008 7997 7996 7995 ] final -102.95 input   59.86 | X-H torsion
[ 10167 10162 10161 10158 ] final  110.29 input  -65.29 | X-H torsion
[ 10718 10713 10712 10709 ] final   52.26 input   66.30 | X-H torsion
[ 10763 10752 10751 10750 ] final  100.47 input  -60.55 | X-H torsion
[ 11005 11000 10999 10996 ] final  179.34 input  -57.11 | X-H torsion

> <Gold.Protein.ActiveResidues>
 VAL166  LYS551  ARG553  GLY616  TRP617  ASP618  TYR619  PRO620  LYS621  CYS622 
 ASP623  PHE694  ASN695  SER759  ASP760  ASP761  ALA762  ILE779  LEU786  VAL792 
 PHE793  MET794  SER795  GLU796  ALA797  LYS798  CYS799  TRP800  GLU811  SER814 

> <Gold.Protein.RotatedAtoms>
  152.2573  133.5266  159.5360 H   0  0  0  0  0  0  0  0  0  0  0  0  # atno 6907 bound_to 6896
  150.7113  134.0878  159.3930 H   0  0  0  0  0  0  0  0  0  0  0  0  # atno 6908 bound_to 6896
  151.8797  135.0458  160.0538 H   0  0  0  0  0  0  0  0  0  0  0  0  # atno 6909 bound_to 6896
  145.3155  139.2528  143.3740 H   0  0  0  0  0  0  0  0  0  0  0  0  # atno 7974 bound_to 7965
  154.8640  140.0425  157.1683 H   0  0  0  0  0  0  0  0  0  0  0  0  # atno 8008 bound_to 7997
  154.8810  140.2972  155.5404 H   0  0  0  0  0  0  0  0  0  0  0  0  # atno 8009 bound_to 7997
  156.2999  140.2411  156.3813 H   0  0  0  0  0  0  0  0  0  0  0  0  # atno 8010 bound_to 7997
  139.6699  144.7126  151.1706 H   0  0  0  0  0  0  0  0  0  0  0  0  # atno 10167 bound_to 10162
  157.5058  130.8468  149.8373 H   0  0  0  0  0  0  0  0  0  0  0  0  # atno 10718 bound_to 10713
  153.3143  135.4078  155.1363 H   0  0  0  0  0  0  0  0  0  0  0  0  # atno 10763 bound_to 10752
  154.8584  135.3572  154.5681 H   0  0  0  0  0  0  0  0  0  0  0  0  # atno 10764 bound_to 10752
  153.6111  135.7068  153.5405 H   0  0  0  0  0  0  0  0  0  0  0  0  # atno 10765 bound_to 10752
  140.4051  134.6742  157.4583 H   0  0  0  0  0  0  0  0  0  0  0  0  # atno 11005 bound_to 11000
  146.3102  140.3701  142.8673 LP  0  0  0  0  0  0  0  0  0  0  0  0  # atno 17320 bound_to 7965
  144.8981  140.7608  143.5884 LP  0  0  0  0  0  0  0  0  0  0  0  0  # atno 17321 bound_to 7965
  140.7614  143.5860  150.8845 LP  0  0  0  0  0  0  0  0  0  0  0  0  # atno 17342 bound_to 10162
  139.9524  143.6256  152.3025 LP  0  0  0  0  0  0  0  0  0  0  0  0  # atno 17343 bound_to 10162
  156.0258  130.3780  150.1829 LP  0  0  0  0  0  0  0  0  0  0  0  0  # atno 17370 bound_to 10713
  157.0018  130.9924  151.3389 LP  0  0  0  0  0  0  0  0  0  0  0  0  # atno 17371 bound_to 10713
  140.0308  134.6409  155.9110 LP  0  0  0  0  0  0  0  0  0  0  0  0  # atno 17394 bound_to 11000
  141.1842  133.6552  156.5148 LP  0  0  0  0  0  0  0  0  0  0  0  0  # atno 17395 bound_to 11000

$$$$
