AV-unprocessed.smi:3046|AV-procd|sdf|11616|dock1
  -GOLD-   2272016593D 1   1.00000     0.00000
 Structure written by MMmdl.
 38 38  0  0  0  0  0  0  0  0  2 V2000
  151.7069  138.0260  155.8460 C   0  0  0  0  0  0  0  0  0  0  0  0
  150.5664  137.8484  155.1628 C   0  0  0  0  0  0  0  0  0  0  0  0
  149.5303  138.9268  154.9313 C   0  0  0  0  0  0  0  0  0  0  0  0
  148.5271  138.4753  153.9787 N   0  0  0  0  0  0  0  0  0  0  0  0
  147.2354  138.8321  154.0162 C   0  0  0  0  0  0  0  0  0  0  0  0
  146.7665  139.5801  154.8749 O   0  0  0  0  0  0  0  0  0  0  0  0
  146.3283  138.2438  152.9274 C   0  0  1  0  0  0  0  0  0  0  0  0
  146.7880  138.7304  151.5448 C   0  0  0  0  0  0  0  0  0  0  0  0
  146.3218  136.7620  152.9593 N   0  3  0  0  0  0  0  0  0  0  0  0
  145.2455  136.1030  152.1821 C   0  0  1  0  0  0  0  0  0  0  0  0
  145.6218  136.0861  150.6919 C   0  0  0  0  0  0  0  0  0  0  0  0
  144.9730  134.6892  152.7386 C   0  0  0  0  0  0  0  0  0  0  0  0
  145.0064  133.6648  151.7111 N   0  0  0  0  0  0  0  0  0  0  0  0
  144.1130  133.4455  150.6835 C   0  0  0  0  0  0  0  0  0  0  0  0
  144.5698  132.3736  149.9714 C   0  0  0  0  0  0  0  0  0  0  0  0
  145.7676  132.0047  150.6455 C   0  0  0  0  0  0  0  0  0  0  0  0
  146.0268  132.7805  151.6856 N   0  0  0  0  0  0  0  0  0  0  0  0
  151.9550  138.9803  156.2871 H   0  0  0  0  0  0  0  0  0  0  0  0
  152.4093  137.2152  155.9729 H   0  0  0  0  0  0  0  0  0  0  0  0
  150.3559  136.8797  154.7330 H   0  0  0  0  0  0  0  0  0  0  0  0
  149.0520  139.2003  155.8733 H   0  0  0  0  0  0  0  0  0  0  0  0
  150.0312  139.8161  154.5460 H   0  0  0  0  0  0  0  0  0  0  0  0
  148.8359  137.8501  153.2481 H   0  0  0  0  0  0  0  0  0  0  0  0
  145.3055  138.5943  153.0781 H   0  0  0  0  0  0  0  0  0  0  0  0
  146.7696  139.8193  151.4819 H   0  0  0  0  0  0  0  0  0  0  0  0
  146.1355  138.3485  150.7587 H   0  0  0  0  0  0  0  0  0  0  0  0
  147.8036  138.4019  151.3194 H   0  0  0  0  0  0  0  0  0  0  0  0
  147.2012  136.4511  152.5722 H   0  0  0  0  0  0  0  0  0  0  0  0
  144.3299  136.6896  152.2759 H   0  0  0  0  0  0  0  0  0  0  0  0
  144.8168  135.6776  150.0806 H   0  0  0  0  0  0  0  0  0  0  0  0
  146.5133  135.4836  150.5142 H   0  0  0  0  0  0  0  0  0  0  0  0
  145.8230  137.0942  150.3281 H   0  0  0  0  0  0  0  0  0  0  0  0
  145.7067  134.4355  153.5048 H   0  0  0  0  0  0  0  0  0  0  0  0
  143.9956  134.6458  153.2197 H   0  0  0  0  0  0  0  0  0  0  0  0
  143.2359  134.0607  150.5462 H   0  0  0  0  0  0  0  0  0  0  0  0
  144.1187  131.9229  149.0999 H   0  0  0  0  0  0  0  0  0  0  0  0
  146.4517  131.2024  150.4114 H   0  0  0  0  0  0  0  0  0  0  0  0
  146.2721  136.4571  153.9212 H   0  0  0  0  0  0  0  0  0  0  0  0
  1  2  2  0  0  0  0
  1 18  1  0  0  0  0
  1 19  1  0  0  0  0
  2  3  1  0  0  0  0
  2 20  1  0  0  0  0
  3  4  1  0  0  0  0
  3 21  1  0  0  0  0
  3 22  1  0  0  0  0
  4  5  1  0  0  0  0
  4 23  1  0  0  0  0
  5  6  2  0  0  0  0
  5  7  1  0  0  0  0
  7  8  1  0  0  0  0
  7  9  1  0  0  0  0
  7 24  1  0  0  0  0
  8 25  1  0  0  0  0
  8 26  1  0  0  0  0
  8 27  1  0  0  0  0
  9 10  1  0  0  0  0
  9 28  1  0  0  0  0
  9 38  1  0  0  0  0
 10 11  1  0  0  0  0
 10 12  1  0  0  0  0
 10 29  1  0  0  0  0
 11 30  1  0  0  0  0
 11 31  1  0  0  0  0
 11 32  1  0  0  0  0
 12 13  1  0  0  0  0
 12 33  1  0  0  0  0
 12 34  1  0  0  0  0
 13 17  1  0  0  0  0
 13 14  1  0  0  0  0
 14 15  2  0  0  0  0
 14 35  1  0  0  0  0
 15 16  1  0  0  0  0
 15 36  1  0  0  0  0
 16 17  2  0  0  0  0
 16 37  1  0  0  0  0
M  CHG  1   9   1
M  END
> <s_m_source_file>
AV-unprocessed.smi

> <i_m_source_file_index>
3046

> <i_lp_mmshare_version>
43012

> <i_f3d_flags>
0

> <s_epik_input>
W0NIMl09W0NIXVtDSDJdW05IXUMoPU8pW0NASF0oW0NIM10pW05IXVtDQEhdKFtDSDNdKVtDSDJdbjFbY0hdW2NIXVtjSF1uMQ==

> <s_epik_cmdline>
J2VwaWtfcHl0aG9uJywgJy1waCcsICc3LjAnLCAnLXRuJywgJzgnLCAnLW1hJywgJzIwMCcsICctbWV0YWxfYmluZGluZycsICctaW1hZScsICc8aW5maWxlLm1hZT4nLCAnLW9tYWUnLCAnPG91dGZpbGUubWFlPic=

> <r_lp_tautomer_probability>
1

> <r_epik_Ionization_Penalty>
0.132961

> <r_epik_Ionization_Penalty_Charging>
0.132956

> <r_epik_Ionization_Penalty_Neutral>
5.00268e-06

> <r_epik_State_Penalty>
0.122332

> <r_epik_Charging_Adjusted_Penalty>
0.255288

> <i_epik_Tot_Q>
1

> <i_epik_Tot_abs_Q>
1

> <r_epik_Metal_State_Penalty>
0.122338

> <b_epik_Metal_Only>
0

> <s_lp_Force_Field>
OPLS_2005

> <r_lp_Energy>
6.90886

> <b_lp_Chiralities_Consistent>
1

> <s_lp_Variant>
AV-unprocessed.smi:3046-4

> <Gold.Version>
5.8.1

> <Gold.Id.Protein>
6NUR|6NUR_protein|mol2

> <Gold.PLP.Fitness>
47.3948

> <Gold.PLP.PLP>
-35.2885

> <Gold.PLP.part.hbond>
-3.0000

> <Gold.PLP.part.metal>
0.0000

> <Gold.PLP.part.buried>
-0.9057

> <Gold.PLP.part.nonpolar>
-32.1515

> <Gold.PLP.part.repulsive>
0.3574

> <Gold.PLP.ligand.clash>
0.0000

> <Gold.PLP.ligand.torsion>
1.3489

> <Gold.PLP.Chemscore.Hbond>
2.8800

> <Gold.PLP.Chemscore.CHOScore>
2.0000

> <Gold.PLP.Chemscore.Metal>
0.0000

> <Gold.Chemscore.Hbonds>
donor molecule, donor type, donor heavy atom, donor atom, acceptor molecule, acceptor atom, score
      L1  H     4    23       P1  7948  0.80
      L1  H     9    28       P1  7948  2.00
      L1  C    14    35       P1 10186  1.00
      L1  C    16    37       P1 10747  0.97

> <Gold.PLP.Chemscore.Internal.Correction>
0.1642

> <Gold.Rescore>
     Score         DG    S(hbond)    S(metal)    S(lipo)     H(rot)  DE(clash)    DE(int)     intcor
     13.44     -15.82       1.97        0.00      81.55       2.26       0.83       1.55       ----

> <Gold.Chemscore.Fitness>
13.4377

> <Gold.Chemscore.DG>
-15.8198

> <Gold.Chemscore.ZeroCoef>
-5.4800

> <Gold.Chemscore.Hbond>
1.9732

> <Gold.Chemscore.Metal>
0.0000

> <Gold.Chemscore.Lipo>
81.5497

> <Gold.Chemscore.Internal_Hbond>
0.0000

> <Gold.Chemscore.DEClash>
0.8312

> <Gold.Chemscore.DEInternal>
1.5508

> <Gold.Chemscore.Rot>
2.2626

> <Gold.Chemscore.Internal.Correction>
   9.000000E+99

> <Gold.Chemscore.Hbonds>
donor molecule, donor type, donor heavy atom, donor atom, acceptor molecule, acceptor atom, score
      L1  H     4    23       P1  7948  0.79
      L1  H     9    28       P1  7948  1.00

> <Gold.Chemscore.Hbond.Weighted>
-6.5906

> <Gold.Chemscore.Metal.Weighted>
-0.0000

> <Gold.Chemscore.Lipo.Weighted>
-9.5413

> <Gold.Chemscore.Internal_Hbond.Weighted>
0.0000

> <Gold.Chemscore.DEClash.Weighted>
0.8312

> <Gold.Chemscore.DEInternal.Weighted>
1.5508

> <Gold.Chemscore.Rot.Weighted>
5.7922

> <Gold.Chemscore.Internal.Correction.Weighted>
   9.000000E+99

> <Gold.Protein.RotatedTorsions>
[ 6907 6896 6895 6894 ] final   72.68 input  -60.11 | X-H torsion
[ 7974 7965 7964 7962 ] final  142.83 input  175.53 | X-H torsion
[ 8008 7997 7996 7995 ] final -149.15 input   59.86 | X-H torsion
[ 10167 10162 10161 10158 ] final  103.21 input  -65.29 | X-H torsion
[ 10718 10713 10712 10709 ] final  -96.43 input   66.30 | X-H torsion
[ 10763 10752 10751 10750 ] final -159.16 input  -60.55 | X-H torsion
[ 11005 11000 10999 10996 ] final -176.16 input  -57.11 | X-H torsion

> <Gold.Protein.ActiveResidues>
 VAL166  LYS551  ARG553  GLY616  TRP617  ASP618  TYR619  PRO620  LYS621  CYS622 
 ASP623  PHE694  ASN695  SER759  ASP760  ASP761  ALA762  ILE779  LEU786  VAL792 
 PHE793  MET794  SER795  GLU796  ALA797  LYS798  CYS799  TRP800  GLU811  SER814 

> <Gold.Protein.RotatedAtoms>
  152.4882  134.4534  159.9581 H   0  0  0  0  0  0  0  0  0  0  0  0  # atno 6907 bound_to 6896
  151.4527  133.3607  159.2805 H   0  0  0  0  0  0  0  0  0  0  0  0  # atno 6908 bound_to 6896
  150.9011  134.8447  159.7421 H   0  0  0  0  0  0  0  0  0  0  0  0  # atno 6909 bound_to 6896
  144.8973  139.5473  143.5770 H   0  0  0  0  0  0  0  0  0  0  0  0  # atno 7974 bound_to 7965
  155.6030  140.0664  157.2727 H   0  0  0  0  0  0  0  0  0  0  0  0  # atno 8008 bound_to 7997
  154.4273  140.1815  156.1241 H   0  0  0  0  0  0  0  0  0  0  0  0  # atno 8009 bound_to 7997
  156.0144  140.3323  155.6977 H   0  0  0  0  0  0  0  0  0  0  0  0  # atno 8010 bound_to 7997
  139.7283  144.7042  151.0763 H   0  0  0  0  0  0  0  0  0  0  0  0  # atno 10167 bound_to 10162
  156.0062  130.5151  150.6225 H   0  0  0  0  0  0  0  0  0  0  0  0  # atno 10718 bound_to 10713
  154.7498  135.3089  154.8579 H   0  0  0  0  0  0  0  0  0  0  0  0  # atno 10763 bound_to 10752
  153.9369  135.6779  153.4749 H   0  0  0  0  0  0  0  0  0  0  0  0  # atno 10764 bound_to 10752
  153.1094  135.4874  154.8936 H   0  0  0  0  0  0  0  0  0  0  0  0  # atno 10765 bound_to 10752
  140.4551  134.6306  157.4818 H   0  0  0  0  0  0  0  0  0  0  0  0  # atno 11005 bound_to 11000
  146.3088  139.7674  142.9035 LP  0  0  0  0  0  0  0  0  0  0  0  0  # atno 17320 bound_to 7965
  145.3678  141.0337  143.3248 LP  0  0  0  0  0  0  0  0  0  0  0  0  # atno 17321 bound_to 7965
  140.7766  143.5076  150.9692 LP  0  0  0  0  0  0  0  0  0  0  0  0  # atno 17342 bound_to 10162
  139.8764  143.7127  152.3161 LP  0  0  0  0  0  0  0  0  0  0  0  0  # atno 17343 bound_to 10162
  157.4038  131.0814  151.1284 LP  0  0  0  0  0  0  0  0  0  0  0  0  # atno 17370 bound_to 10713
  157.1937  130.6363  149.5714 LP  0  0  0  0  0  0  0  0  0  0  0  0  # atno 17371 bound_to 10713
  139.9981  134.6879  155.9575 LP  0  0  0  0  0  0  0  0  0  0  0  0  # atno 17394 bound_to 11000
  141.1646  133.6537  156.4436 LP  0  0  0  0  0  0  0  0  0  0  0  0  # atno 17395 bound_to 11000

$$$$
