AV-unprocessed.smi:2451|AV-procd|sdf|9673|dock5
  -GOLD-   2272013313D 1   1.00000     0.00000
 Structure written by MMmdl.
 38 39  0  0  0  0  0  0  0  0  1 V2000
  152.7208  144.2461  158.3938 C   0  0  0  0  0  0  0  0  0  0  0  0
  151.8413  143.3638  159.3040 C   0  0  2  0  0  0  0  0  0  0  0  0
  152.4751  143.1827  160.6979 C   0  0  0  0  0  0  0  0  0  0  0  0
  153.6977  142.2528  160.6617 C   0  0  0  0  0  0  0  0  0  0  0  0
  153.3326  140.8875  160.0640 C   0  0  0  0  0  0  0  0  0  0  0  0
  152.6845  141.0218  158.6726 C   0  0  1  0  0  0  0  0  0  0  0  0
  152.2650  139.6911  158.2224 N   0  0  0  0  0  0  0  0  0  0  0  0
  153.3496  138.3660  158.4257 S   0  0  0  0  0  0  0  0  0  0  0  0
  154.7177  138.8805  158.2573 O   0  0  0  0  0  0  0  0  0  0  0  0
  152.9735  137.6729  159.6672 O   0  0  0  0  0  0  0  0  0  0  0  0
  152.9435  137.2940  156.9839 C   0  0  0  0  0  0  0  0  0  0  0  0
  152.2805  138.1159  155.9161 C   0  0  0  0  0  0  0  0  0  0  0  0
  151.2870  137.7137  154.9808 C   0  0  0  0  0  0  0  0  0  0  0  0
  151.0531  138.8473  154.2572 C   0  0  0  0  0  0  0  0  0  0  0  0
  151.8358  139.8635  154.7005 O   0  0  0  0  0  0  0  0  0  0  0  0
  152.6171  139.3863  155.7590 N   0  0  0  0  0  0  0  0  0  0  0  0
  151.4713  141.9859  158.6906 C   0  0  2  0  0  0  0  0  0  0  0  0
  150.8073  142.1276  157.3063 C   0  0  0  0  0  0  0  0  0  0  0  0
  153.6544  143.7549  158.1214 H   0  0  0  0  0  0  0  0  0  0  0  0
  152.9766  145.1823  158.8907 H   0  0  0  0  0  0  0  0  0  0  0  0
  152.2051  144.5105  157.4710 H   0  0  0  0  0  0  0  0  0  0  0  0
  150.9107  143.9137  159.4515 H   0  0  0  0  0  0  0  0  0  0  0  0
  152.7549  144.1510  161.1145 H   0  0  0  0  0  0  0  0  0  0  0  0
  151.7318  142.7661  161.3789 H   0  0  0  0  0  0  0  0  0  0  0  0
  154.4999  142.7085  160.0805 H   0  0  0  0  0  0  0  0  0  0  0  0
  154.0902  142.1205  161.6703 H   0  0  0  0  0  0  0  0  0  0  0  0
  154.2249  140.2630  160.0029 H   0  0  0  0  0  0  0  0  0  0  0  0
  152.6463  140.3767  160.7414 H   0  0  0  0  0  0  0  0  0  0  0  0
  153.4316  141.4083  157.9784 H   0  0  0  0  0  0  0  0  0  0  0  0
  151.3309  139.4628  158.5615 H   0  0  0  0  0  0  0  0  0  0  0  0
  153.8642  136.8338  156.6242 H   0  0  0  0  0  0  0  0  0  0  0  0
  152.2834  136.4967  157.3254 H   0  0  0  0  0  0  0  0  0  0  0  0
  150.8178  136.7482  154.8636 H   0  0  0  0  0  0  0  0  0  0  0  0
  150.3932  139.0799  153.4345 H   0  0  0  0  0  0  0  0  0  0  0  0
  150.7210  141.5459  159.3501 H   0  0  0  0  0  0  0  0  0  0  0  0
  151.5216  142.4493  156.5482 H   0  0  0  0  0  0  0  0  0  0  0  0
  149.9944  142.8534  157.3322 H   0  0  0  0  0  0  0  0  0  0  0  0
  150.3833  141.1815  156.9694 H   0  0  0  0  0  0  0  0  0  0  0  0
  1  2  1  0  0  0  0
  1 19  1  0  0  0  0
  1 20  1  0  0  0  0
  1 21  1  0  0  0  0
  2 17  1  0  0  0  0
  2  3  1  0  0  0  0
  2 22  1  0  0  0  0
  3  4  1  0  0  0  0
  3 23  1  0  0  0  0
  3 24  1  0  0  0  0
  4  5  1  0  0  0  0
  4 25  1  0  0  0  0
  4 26  1  0  0  0  0
  5  6  1  0  0  0  0
  5 27  1  0  0  0  0
  5 28  1  0  0  0  0
  6  7  1  0  0  0  0
  6 17  1  0  0  0  0
  6 29  1  0  0  0  0
  7  8  1  0  0  0  0
  7 30  1  0  0  0  0
  8  9  2  0  0  0  0
  8 10  2  0  0  0  0
  8 11  1  0  0  0  0
 11 12  1  0  0  0  0
 11 31  1  0  0  0  0
 11 32  1  0  0  0  0
 12 16  2  0  0  0  0
 12 13  1  0  0  0  0
 13 14  2  0  0  0  0
 13 33  1  0  0  0  0
 14 15  1  0  0  0  0
 14 34  1  0  0  0  0
 15 16  1  0  0  0  0
 17 18  1  0  0  0  0
 17 35  1  0  0  0  0
 18 36  1  0  0  0  0
 18 37  1  0  0  0  0
 18 38  1  0  0  0  0
M  END
> <s_m_source_file>
AV-unprocessed.smi

> <i_m_source_file_index>
2451

> <i_lp_mmshare_version>
43012

> <i_f3d_flags>
0

> <s_epik_input>
W0NIM11bQ0BASF0xW0NIMl1bQ0gyXVtDSDJdW0NASF0oW0NASF0xW0NIM10pW05IXVMoPU8pKD1PKVtDSDJdYzJbY0hdW2NIXW9uMg==

> <s_epik_cmdline>
J2VwaWtfcHl0aG9uJywgJy1waCcsICc3LjAnLCAnLXRuJywgJzgnLCAnLW1hJywgJzIwMCcsICctbWV0YWxfYmluZGluZycsICctaW1hZScsICc8aW5maWxlLm1hZT4nLCAnLW9tYWUnLCAnPG91dGZpbGUubWFlPic=

> <r_lp_tautomer_probability>
1

> <r_epik_Ionization_Penalty>
8.73668e-05

> <r_epik_Ionization_Penalty_Charging>
0

> <r_epik_Ionization_Penalty_Neutral>
8.73668e-05

> <r_epik_State_Penalty>
-0

> <r_epik_Charging_Adjusted_Penalty>
0

> <i_epik_Tot_Q>
0

> <i_epik_Tot_abs_Q>
0

> <r_epik_Metal_State_Penalty>
0.0716439

> <b_epik_Metal_Only>
0

> <s_lp_Force_Field>
OPLS_2005

> <r_lp_Energy>
8.38809

> <b_lp_Chiralities_Consistent>
1

> <s_lp_Variant>
AV-unprocessed.smi:2451-5

> <Gold.Version>
5.8.1

> <Gold.Id.Protein>
6NUR|6NUR_protein|mol2

> <Gold.PLP.Fitness>
46.0529

> <Gold.PLP.PLP>
-37.1827

> <Gold.PLP.part.hbond>
-2.6787

> <Gold.PLP.part.metal>
0.0000

> <Gold.PLP.part.buried>
-5.1226

> <Gold.PLP.part.nonpolar>
-28.2785

> <Gold.PLP.part.repulsive>
0.0674

> <Gold.PLP.ligand.clash>
0.0000

> <Gold.PLP.ligand.torsion>
1.4344

> <Gold.PLP.Chemscore.Hbond>
2.9840

> <Gold.PLP.Chemscore.CHOScore>
0.8837

> <Gold.PLP.Chemscore.Metal>
0.0000

> <Gold.Chemscore.Hbonds>
donor molecule, donor type, donor heavy atom, donor atom, acceptor molecule, acceptor atom, score
      P1  H  7989  7998       L1    15  0.99
      P1  H  7997  8008       L1     9  0.99
      P1  H  7997  8009       L1    16  1.00
      L1  C    14    34       P1  7957  0.88

> <Gold.PLP.Chemscore.Internal.Correction>
0.1359

> <Gold.Rescore>
     Score         DG    S(hbond)    S(metal)    S(lipo)     H(rot)  DE(clash)    DE(int)     intcor
     18.63     -22.08       2.59        0.00     104.15       1.66       0.02       3.42       ----

> <Gold.Chemscore.Fitness>
18.6340

> <Gold.Chemscore.DG>
-22.0790

> <Gold.Chemscore.ZeroCoef>
-5.4800

> <Gold.Chemscore.Hbond>
2.5927

> <Gold.Chemscore.Metal>
0.0000

> <Gold.Chemscore.Lipo>
104.1543

> <Gold.Chemscore.Internal_Hbond>
0.0000

> <Gold.Chemscore.DEClash>
0.0211

> <Gold.Chemscore.DEInternal>
3.4238

> <Gold.Chemscore.Rot>
1.6588

> <Gold.Chemscore.Internal.Correction>
   9.000000E+99

> <Gold.Chemscore.Hbonds>
donor molecule, donor type, donor heavy atom, donor atom, acceptor molecule, acceptor atom, score
      P1  H  7989  7998       L1    15  0.23
      P1  H  7997  8008       L1     9  0.89
      P1  H  7997  8009       L1    16  0.78

> <Gold.Chemscore.Hbond.Weighted>
-8.6595

> <Gold.Chemscore.Metal.Weighted>
-0.0000

> <Gold.Chemscore.Lipo.Weighted>
-12.1860

> <Gold.Chemscore.Internal_Hbond.Weighted>
0.0000

> <Gold.Chemscore.DEClash.Weighted>
0.0211

> <Gold.Chemscore.DEInternal.Weighted>
3.4238

> <Gold.Chemscore.Rot.Weighted>
4.2466

> <Gold.Chemscore.Internal.Correction.Weighted>
   9.000000E+99

> <Gold.Protein.RotatedTorsions>
[ 6907 6896 6895 6894 ] final  154.58 input  -60.11 | X-H torsion
[ 7974 7965 7964 7962 ] final -162.41 input  175.53 | X-H torsion
[ 8008 7997 7996 7995 ] final -132.21 input   59.86 | X-H torsion
[ 10167 10162 10161 10158 ] final -157.86 input  -65.29 | X-H torsion
[ 10718 10713 10712 10709 ] final   -3.04 input   66.30 | X-H torsion
[ 10763 10752 10751 10750 ] final  169.54 input  -60.55 | X-H torsion
[ 11005 11000 10999 10996 ] final -115.01 input  -57.11 | X-H torsion

> <Gold.Protein.ActiveResidues>
 VAL166  LYS551  ARG553  GLY616  TRP617  ASP618  TYR619  PRO620  LYS621  CYS622 
 ASP623  PHE694  ASN695  SER759  ASP760  ASP761  ALA762  ILE779  LEU786  VAL792 
 PHE793  MET794  SER795  GLU796  ALA797  LYS798  CYS799  TRP800  GLU811  SER814 

> <Gold.Protein.RotatedAtoms>
  152.0564  133.4042  159.4398 H   0  0  0  0  0  0  0  0  0  0  0  0  # atno 6907 bound_to 6896
  150.6868  134.3250  159.4812 H   0  0  0  0  0  0  0  0  0  0  0  0  # atno 6908 bound_to 6896
  152.1066  134.9304  160.0618 H   0  0  0  0  0  0  0  0  0  0  0  0  # atno 6909 bound_to 6896
  144.7358  140.3257  143.6162 H   0  0  0  0  0  0  0  0  0  0  0  0  # atno 7974 bound_to 7965
  155.3251  140.0464  157.3040 H   0  0  0  0  0  0  0  0  0  0  0  0  # atno 8008 bound_to 7997
  154.5358  140.2272  155.8690 H   0  0  0  0  0  0  0  0  0  0  0  0  # atno 8009 bound_to 7997
  156.1834  140.3068  155.9198 H   0  0  0  0  0  0  0  0  0  0  0  0  # atno 8010 bound_to 7997
  139.6737  143.9700  152.2298 H   0  0  0  0  0  0  0  0  0  0  0  0  # atno 10167 bound_to 10162
  156.7819  130.5333  149.5749 H   0  0  0  0  0  0  0  0  0  0  0  0  # atno 10718 bound_to 10713
  154.3846  135.2753  155.2191 H   0  0  0  0  0  0  0  0  0  0  0  0  # atno 10763 bound_to 10752
  154.4283  135.5983  153.6056 H   0  0  0  0  0  0  0  0  0  0  0  0  # atno 10764 bound_to 10752
  152.9833  135.5989  154.4093 H   0  0  0  0  0  0  0  0  0  0  0  0  # atno 10765 bound_to 10752
  141.0515  133.9679  157.2828 H   0  0  0  0  0  0  0  0  0  0  0  0  # atno 11005 bound_to 11000
  145.7523  139.1797  143.2314 LP  0  0  0  0  0  0  0  0  0  0  0  0  # atno 17320 bound_to 7965
  146.1051  140.7497  142.9530 LP  0  0  0  0  0  0  0  0  0  0  0  0  # atno 17321 bound_to 7965
  139.9471  144.6644  150.8208 LP  0  0  0  0  0  0  0  0  0  0  0  0  # atno 17342 bound_to 10162
  140.7627  143.3206  151.2631 LP  0  0  0  0  0  0  0  0  0  0  0  0  # atno 17343 bound_to 10162
  156.1213  130.6112  151.0197 LP  0  0  0  0  0  0  0  0  0  0  0  0  # atno 17370 bound_to 10713
  157.6642  131.0875  150.7767 LP  0  0  0  0  0  0  0  0  0  0  0  0  # atno 17371 bound_to 10713
  139.9354  135.0197  156.8540 LP  0  0  0  0  0  0  0  0  0  0  0  0  # atno 17394 bound_to 11000
  140.6046  134.0140  155.7551 LP  0  0  0  0  0  0  0  0  0  0  0  0  # atno 17395 bound_to 11000

$$$$
