AV-unprocessed.smi:238|AV-procd|sdf|1819|dock1
  -GOLD-   2262020413D 1   1.00000     0.00000
 Structure written by MMmdl.
 52 54  0  0  0  0  0  0  0  0  1 V2000
  151.0148  141.3711  155.9287 C   0  0  0  0  0  0  0  0  0  0  0  0
  151.1464  140.3168  154.9827 O   0  0  0  0  0  0  0  0  0  0  0  0
  150.6194  139.0301  155.3258 C   0  0  0  0  0  0  0  0  0  0  0  0
  150.9149  138.1414  154.1040 C   0  0  0  0  0  0  0  0  0  0  0  0
  151.3600  138.4323  156.5423 C   0  0  0  0  0  0  0  0  0  0  0  0
  149.0974  139.1189  155.6393 C   0  0  0  0  0  0  0  0  0  0  0  0
  148.3460  137.8715  155.4737 N   0  0  0  0  0  0  0  0  0  0  0  0
  148.8264  136.6379  156.0897 C   0  0  0  0  0  0  0  0  0  0  0  0
  147.4718  137.7718  154.4417 C   0  0  0  0  0  0  0  0  0  0  0  0
  147.2137  138.8743  153.6902 N   0  0  0  0  0  0  0  0  0  0  0  0
  146.3282  138.8179  152.6919 C   0  0  0  0  0  0  0  0  0  0  0  0
  145.6087  137.7754  152.2734 N   0  0  0  0  0  0  0  0  0  0  0  0
  145.8826  136.6573  153.0049 C   0  0  0  0  0  0  0  0  0  0  0  0
  146.7907  136.5692  154.0982 C   0  0  0  0  0  0  0  0  0  0  0  0
  146.8038  135.2711  154.5930 N   0  0  0  0  0  0  0  0  0  0  0  0
  145.9346  134.6373  153.8552 C   0  0  0  0  0  0  0  0  0  0  0  0
  145.3559  135.3850  152.8528 N   0  0  0  0  0  0  0  0  0  0  0  0
  144.3506  134.9611  151.9147 C   0  0  0  0  0  0  0  0  0  0  0  0
  143.8141  133.5232  151.9054 C   0  0  0  0  0  0  0  0  0  0  0  0
  144.7056  133.1904  150.6893 C   0  0  0  0  0  0  0  0  0  0  0  0
  146.0774  132.5719  151.0280 C   0  0  0  0  0  0  0  0  0  0  0  0
  146.9035  132.4853  149.8844 O   0  0  0  0  0  0  0  0  0  0  0  0
  144.0352  132.3554  149.5856 C   0  0  0  0  0  0  0  0  0  0  0  0
  142.6689  132.6891  149.4463 O   0  0  0  0  0  0  0  0  0  0  0  0
  144.7200  134.7143  150.4468 C   0  0  0  0  0  0  0  0  0  0  0  0
  151.2809  142.3136  155.4503 H   0  0  0  0  0  0  0  0  0  0  0  0
  151.6900  141.2335  156.7731 H   0  0  0  0  0  0  0  0  0  0  0  0
  149.9997  141.4690  156.3088 H   0  0  0  0  0  0  0  0  0  0  0  0
  150.4739  137.1503  154.2143 H   0  0  0  0  0  0  0  0  0  0  0  0
  151.9886  138.0116  153.9645 H   0  0  0  0  0  0  0  0  0  0  0  0
  150.5321  138.5823  153.1840 H   0  0  0  0  0  0  0  0  0  0  0  0
  151.0531  137.4007  156.7179 H   0  0  0  0  0  0  0  0  0  0  0  0
  151.1536  138.9833  157.4601 H   0  0  0  0  0  0  0  0  0  0  0  0
  152.4397  138.4304  156.3889 H   0  0  0  0  0  0  0  0  0  0  0  0
  148.9778  139.4304  156.6774 H   0  0  0  0  0  0  0  0  0  0  0  0
  148.6324  139.9151  155.0615 H   0  0  0  0  0  0  0  0  0  0  0  0
  147.9837  136.0227  156.4071 H   0  0  0  0  0  0  0  0  0  0  0  0
  149.4309  136.8535  156.9710 H   0  0  0  0  0  0  0  0  0  0  0  0
  149.4333  136.0521  155.3995 H   0  0  0  0  0  0  0  0  0  0  0  0
  146.1729  139.7402  152.1520 H   0  0  0  0  0  0  0  0  0  0  0  0
  145.7030  133.5970  154.0271 H   0  0  0  0  0  0  0  0  0  0  0  0
  143.5401  135.6856  152.0032 H   0  0  0  0  0  0  0  0  0  0  0  0
  144.0226  132.9300  152.7949 H   0  0  0  0  0  0  0  0  0  0  0  0
  142.7490  133.4884  151.6698 H   0  0  0  0  0  0  0  0  0  0  0  0
  146.5972  133.1485  151.7933 H   0  0  0  0  0  0  0  0  0  0  0  0
  145.9678  131.5667  151.4348 H   0  0  0  0  0  0  0  0  0  0  0  0
  147.4256  131.7002  149.9510 H   0  0  0  0  0  0  0  0  0  0  0  0
  144.5324  132.4873  148.6242 H   0  0  0  0  0  0  0  0  0  0  0  0
  144.0946  131.2911  149.8157 H   0  0  0  0  0  0  0  0  0  0  0  0
  142.1533  131.9108  149.5938 H   0  0  0  0  0  0  0  0  0  0  0  0
  143.9351  135.0441  149.7638 H   0  0  0  0  0  0  0  0  0  0  0  0
  145.6891  135.1061  150.1374 H   0  0  0  0  0  0  0  0  0  0  0  0
  1  2  1  0  0  0  0
  1 26  1  0  0  0  0
  1 27  1  0  0  0  0
  1 28  1  0  0  0  0
  2  3  1  0  0  0  0
  3  4  1  0  0  0  0
  3  5  1  0  0  0  0
  3  6  1  0  0  0  0
  4 29  1  0  0  0  0
  4 30  1  0  0  0  0
  4 31  1  0  0  0  0
  5 32  1  0  0  0  0
  5 33  1  0  0  0  0
  5 34  1  0  0  0  0
  6  7  1  0  0  0  0
  6 35  1  0  0  0  0
  6 36  1  0  0  0  0
  7  8  1  0  0  0  0
  7  9  1  0  0  0  0
  8 37  1  0  0  0  0
  8 38  1  0  0  0  0
  8 39  1  0  0  0  0
  9 14  1  0  0  0  0
  9 10  2  0  0  0  0
 10 11  1  0  0  0  0
 11 12  2  0  0  0  0
 11 40  1  0  0  0  0
 12 13  1  0  0  0  0
 13 17  1  0  0  0  0
 13 14  2  0  0  0  0
 14 15  1  0  0  0  0
 15 16  2  0  0  0  0
 16 17  1  0  0  0  0
 16 41  1  0  0  0  0
 17 18  1  0  0  0  0
 18 25  1  0  0  0  0
 18 19  1  0  0  0  0
 18 42  1  0  0  0  0
 19 20  1  0  0  0  0
 19 43  1  0  0  0  0
 19 44  1  0  0  0  0
 20 21  1  0  0  0  0
 20 23  1  0  0  0  0
 20 25  1  0  0  0  0
 21 22  1  0  0  0  0
 21 45  1  0  0  0  0
 21 46  1  0  0  0  0
 22 47  1  0  0  0  0
 23 24  1  0  0  0  0
 23 48  1  0  0  0  0
 23 49  1  0  0  0  0
 24 50  1  0  0  0  0
 25 51  1  0  0  0  0
 25 52  1  0  0  0  0
M  END
> <s_m_source_file>
AV-unprocessed.smi

> <i_m_source_file_index>
238

> <i_lp_mmshare_version>
43012

> <i_f3d_flags>
0

> <s_epik_input>
W0NIM11PQyhbQ0gzXSkoW0NIM10pW0NIMl1OKFtDSDNdKWMobltjSF1uMSljKGMxMiluW2NIXW4yW0NIXShbQ0gyXTMpW0NIMl1DMyhbQ0gyXVtPSF0pW0NIMl1bT0hd

> <s_epik_cmdline>
J2VwaWtfcHl0aG9uJywgJy1waCcsICc3LjAnLCAnLXRuJywgJzgnLCAnLW1hJywgJzIwMCcsICctbWV0YWxfYmluZGluZycsICctaW1hZScsICc8aW5maWxlLm1hZT4nLCAnLW9tYWUnLCAnPG91dGZpbGUubWFlPic=

> <r_lp_tautomer_probability>
1

> <r_epik_Ionization_Penalty>
0.00209421

> <r_epik_Ionization_Penalty_Charging>
0

> <r_epik_Ionization_Penalty_Neutral>
0.00209421

> <r_epik_State_Penalty>
0.00129171

> <r_epik_Charging_Adjusted_Penalty>
0.00129171

> <i_epik_Tot_Q>
0

> <i_epik_Tot_abs_Q>
0

> <r_epik_Metal_State_Penalty>
-0

> <b_epik_Metal_Only>
0

> <s_lp_Force_Field>
OPLS_2005

> <r_lp_Energy>
43.4617

> <b_lp_Chiralities_Consistent>
1

> <s_lp_Variant>
AV-unprocessed.smi:238-1

> <Gold.Version>
5.8.1

> <Gold.Id.Protein>
6NUR|6NUR_protein|mol2

> <Gold.PLP.Fitness>
43.6011

> <Gold.PLP.PLP>
-33.9084

> <Gold.PLP.part.hbond>
-4.1623

> <Gold.PLP.part.metal>
0.0000

> <Gold.PLP.part.buried>
-4.8259

> <Gold.PLP.part.nonpolar>
-25.1311

> <Gold.PLP.part.repulsive>
0.6378

> <Gold.PLP.ligand.clash>
0.0000

> <Gold.PLP.ligand.torsion>
0.9297

> <Gold.PLP.Chemscore.Hbond>
3.0000

> <Gold.PLP.Chemscore.CHOScore>
0.5545

> <Gold.PLP.Chemscore.Metal>
0.0000

> <Gold.Chemscore.Hbonds>
donor molecule, donor type, donor heavy atom, donor atom, acceptor molecule, acceptor atom, score
      L1  H    22    47       P1 10747  1.00
      L1  H    24    50       P1 10952  0.96
      P1  H  7989  7998       L1     2  1.00
      L1  C    11    40       P1 10175  0.47

> <Gold.PLP.Chemscore.Internal.Correction>
0.8885

> <Gold.Rescore>
     Score         DG    S(hbond)    S(metal)    S(lipo)     H(rot)  DE(clash)    DE(int)     intcor
     11.88     -14.30       2.87        0.00      72.83       3.63       0.02       2.40       ----

> <Gold.Chemscore.Fitness>
11.8807

> <Gold.Chemscore.DG>
-14.3032

> <Gold.Chemscore.ZeroCoef>
-5.4800

> <Gold.Chemscore.Hbond>
2.8699

> <Gold.Chemscore.Metal>
0.0000

> <Gold.Chemscore.Lipo>
72.8265

> <Gold.Chemscore.Internal_Hbond>
0.0000

> <Gold.Chemscore.DEClash>
0.0248

> <Gold.Chemscore.DEInternal>
2.3977

> <Gold.Chemscore.Rot>
3.6261

> <Gold.Chemscore.Internal.Correction>
   9.000000E+99

> <Gold.Chemscore.Hbonds>
donor molecule, donor type, donor heavy atom, donor atom, acceptor molecule, acceptor atom, score
      L1  H    22    47       P1 10747  0.96
      L1  H    24    50       P1 10952  0.91
      P1  H  7989  7998       L1     2  0.81

> <Gold.Chemscore.Hbond.Weighted>
-9.5854

> <Gold.Chemscore.Metal.Weighted>
-0.0000

> <Gold.Chemscore.Lipo.Weighted>
-8.5207

> <Gold.Chemscore.Internal_Hbond.Weighted>
0.0000

> <Gold.Chemscore.DEClash.Weighted>
0.0248

> <Gold.Chemscore.DEInternal.Weighted>
2.3977

> <Gold.Chemscore.Rot.Weighted>
9.2829

> <Gold.Chemscore.Internal.Correction.Weighted>
   9.000000E+99

> <Gold.Protein.RotatedTorsions>
[ 6907 6896 6895 6894 ] final -171.48 input  -60.11 | X-H torsion
[ 7974 7965 7964 7962 ] final  -56.13 input  175.53 | X-H torsion
[ 8008 7997 7996 7995 ] final -136.36 input   59.86 | X-H torsion
[ 10167 10162 10161 10158 ] final  120.53 input  -65.29 | X-H torsion
[ 10718 10713 10712 10709 ] final  120.92 input   66.30 | X-H torsion
[ 10763 10752 10751 10750 ] final  159.35 input  -60.55 | X-H torsion
[ 11005 11000 10999 10996 ] final   28.33 input  -57.11 | X-H torsion

> <Gold.Protein.ActiveResidues>
 VAL166  LYS551  ARG553  GLY616  TRP617  ASP618  TYR619  PRO620  LYS621  CYS622 
 ASP623  PHE694  ASN695  SER759  ASP760  ASP761  ALA762  ILE779  LEU786  VAL792 
 PHE793  MET794  SER795  GLU796  ALA797  LYS798  CYS799  TRP800  GLU811  SER814 

> <Gold.Protein.RotatedAtoms>
  151.5245  133.3460  159.2907 H   0  0  0  0  0  0  0  0  0  0  0  0  # atno 6907 bound_to 6896
  150.8631  134.7991  159.7109 H   0  0  0  0  0  0  0  0  0  0  0  0  # atno 6908 bound_to 6896
  152.4644  134.5118  159.9808 H   0  0  0  0  0  0  0  0  0  0  0  0  # atno 6909 bound_to 6896
  145.8663  140.8249  142.9911 H   0  0  0  0  0  0  0  0  0  0  0  0  # atno 7974 bound_to 7965
  155.3939  140.0501  157.3039 H   0  0  0  0  0  0  0  0  0  0  0  0  # atno 8008 bound_to 7997
  154.5023  140.2161  155.9283 H   0  0  0  0  0  0  0  0  0  0  0  0  # atno 8009 bound_to 7997
  156.1482  140.3141  155.8611 H   0  0  0  0  0  0  0  0  0  0  0  0  # atno 8010 bound_to 7997
  139.5976  144.7047  151.3138 H   0  0  0  0  0  0  0  0  0  0  0  0  # atno 10167 bound_to 10162
  157.5856  131.1070  150.8102 H   0  0  0  0  0  0  0  0  0  0  0  0  # atno 10718 bound_to 10713
  154.2304  135.2778  155.2892 H   0  0  0  0  0  0  0  0  0  0  0  0  # atno 10763 bound_to 10752
  154.5629  135.5642  153.7027 H   0  0  0  0  0  0  0  0  0  0  0  0  # atno 10764 bound_to 10752
  153.0021  135.6302  154.2445 H   0  0  0  0  0  0  0  0  0  0  0  0  # atno 10765 bound_to 10752
  140.3168  134.2588  155.7724 H   0  0  0  0  0  0  0  0  0  0  0  0  # atno 11005 bound_to 11000
  144.6726  140.1171  143.7452 LP  0  0  0  0  0  0  0  0  0  0  0  0  # atno 17320 bound_to 7965
  145.9190  139.2533  143.1393 LP  0  0  0  0  0  0  0  0  0  0  0  0  # atno 17321 bound_to 7965
  140.7224  143.7097  150.7779 LP  0  0  0  0  0  0  0  0  0  0  0  0  # atno 17342 bound_to 10162
  140.0667  143.5101  152.2600 LP  0  0  0  0  0  0  0  0  0  0  0  0  # atno 17343 bound_to 10162
  156.8537  130.5089  149.5309 LP  0  0  0  0  0  0  0  0  0  0  0  0  # atno 17370 bound_to 10713
  156.0905  130.5892  150.9724 LP  0  0  0  0  0  0  0  0  0  0  0  0  # atno 17371 bound_to 10713
  141.2096  133.7745  156.9988 LP  0  0  0  0  0  0  0  0  0  0  0  0  # atno 17394 bound_to 11000
  140.0977  134.9554  157.1874 LP  0  0  0  0  0  0  0  0  0  0  0  0  # atno 17395 bound_to 11000

$$$$
