AV-unprocessed.smi:1148|AV-procd|sdf|4889|dock3
  -GOLD-   22720 3463D 1   1.00000     0.00000
 Structure written by MMmdl.
 45 47  0  0  0  0  0  0  0  0  1 V2000
  147.2788  132.1712  152.5846 C   0  0  0  0  0  0  0  0  0  0  0  0
  148.4844  132.8613  152.8949 O   0  0  0  0  0  0  0  0  0  0  0  0
  149.1884  132.4853  154.0232 C   0  0  0  0  0  0  0  0  0  0  0  0
  149.1156  131.1920  154.4276 N   0  0  0  0  0  0  0  0  0  0  0  0
  149.8039  130.8225  155.5271 C   0  0  0  0  0  0  0  0  0  0  0  0
  150.6008  131.7109  156.2720 C   0  0  0  0  0  0  0  0  0  0  0  0
  150.6775  133.0528  155.8552 C   0  0  0  0  0  0  0  0  0  0  0  0
  149.9478  133.4598  154.7121 C   0  0  0  0  0  0  0  0  0  0  0  0
  149.9697  134.7851  154.1976 N   0  0  0  0  0  0  0  0  0  0  0  0
  150.6013  135.8623  154.6940 C   0  0  0  0  0  0  0  0  0  0  0  0
  151.3019  135.8733  155.7062 O   0  0  0  0  0  0  0  0  0  0  0  0
  150.3557  136.9509  153.9511 N   0  0  0  0  0  0  0  0  0  0  0  0
  150.8557  138.2938  154.2300 C   0  0  0  0  0  0  0  0  0  0  0  0
  152.3139  138.2084  154.7302 C   0  0  0  0  0  0  0  0  0  0  0  0
  152.8154  139.5827  155.2051 C   0  0  0  0  0  0  0  0  0  0  0  0
  151.9124  140.0755  156.2541 N   0  0  0  0  0  0  0  0  0  0  0  0
  152.2085  140.1841  157.5734 C   0  0  0  0  0  0  0  0  0  0  0  0
  153.2943  139.8282  158.0338 O   0  0  0  0  0  0  0  0  0  0  0  0
  151.1626  140.7906  158.4591 C   0  0  0  0  0  0  0  0  0  0  0  0
  150.6252  142.1660  158.1055 C   0  0  0  0  0  0  0  0  0  0  0  0
  151.5694  142.0044  159.2679 C   0  0  0  0  0  0  0  0  0  0  0  0
  150.5725  140.3453  155.7177 C   0  0  0  0  0  0  0  0  0  0  0  0
  149.9485  139.0160  155.2534 C   0  0  0  0  0  0  0  0  0  0  0  0
  146.8491  132.5884  151.6740 H   0  0  0  0  0  0  0  0  0  0  0  0
  146.5398  132.2828  153.3794 H   0  0  0  0  0  0  0  0  0  0  0  0
  147.4590  131.1098  152.4085 H   0  0  0  0  0  0  0  0  0  0  0  0
  149.7223  129.7856  155.8180 H   0  0  0  0  0  0  0  0  0  0  0  0
  151.1442  131.3699  157.1406 H   0  0  0  0  0  0  0  0  0  0  0  0
  151.3021  133.7366  156.4088 H   0  0  0  0  0  0  0  0  0  0  0  0
  149.3629  134.9507  153.4079 H   0  0  0  0  0  0  0  0  0  0  0  0
  149.7678  136.8466  153.1373 H   0  0  0  0  0  0  0  0  0  0  0  0
  150.8593  138.8736  153.3049 H   0  0  0  0  0  0  0  0  0  0  0  0
  152.3846  137.4972  155.5549 H   0  0  0  0  0  0  0  0  0  0  0  0
  152.9604  137.8297  153.9378 H   0  0  0  0  0  0  0  0  0  0  0  0
  153.8584  139.5216  155.5133 H   0  0  0  0  0  0  0  0  0  0  0  0
  152.8096  140.2849  154.3703 H   0  0  0  0  0  0  0  0  0  0  0  0
  150.4432  140.1040  158.9020 H   0  0  0  0  0  0  0  0  0  0  0  0
  151.0091  142.6787  157.2253 H   0  0  0  0  0  0  0  0  0  0  0  0
  149.5763  142.3565  158.3239 H   0  0  0  0  0  0  0  0  0  0  0  0
  151.1630  142.0852  160.2740 H   0  0  0  0  0  0  0  0  0  0  0  0
  152.5819  142.3860  159.1471 H   0  0  0  0  0  0  0  0  0  0  0  0
  149.9139  140.8278  156.4409 H   0  0  0  0  0  0  0  0  0  0  0  0
  150.6481  141.0385  154.8785 H   0  0  0  0  0  0  0  0  0  0  0  0
  148.9640  139.2002  154.8216 H   0  0  0  0  0  0  0  0  0  0  0  0
  149.7892  138.3755  156.1223 H   0  0  0  0  0  0  0  0  0  0  0  0
  1  2  1  0  0  0  0
  1 24  1  0  0  0  0
  1 25  1  0  0  0  0
  1 26  1  0  0  0  0
  2  3  1  0  0  0  0
  3  8  1  0  0  0  0
  3  4  2  0  0  0  0
  4  5  1  0  0  0  0
  5  6  2  0  0  0  0
  5 27  1  0  0  0  0
  6  7  1  0  0  0  0
  6 28  1  0  0  0  0
  7  8  2  0  0  0  0
  7 29  1  0  0  0  0
  8  9  1  0  0  0  0
  9 10  1  0  0  0  0
  9 30  1  0  0  0  0
 10 11  2  0  0  0  0
 10 12  1  0  0  0  0
 12 13  1  0  0  0  0
 12 31  1  0  0  0  0
 13 23  1  0  0  0  0
 13 14  1  0  0  0  0
 13 32  1  0  0  0  0
 14 15  1  0  0  0  0
 14 33  1  0  0  0  0
 14 34  1  0  0  0  0
 15 16  1  0  0  0  0
 15 35  1  0  0  0  0
 15 36  1  0  0  0  0
 16 17  1  0  0  0  0
 16 22  1  0  0  0  0
 17 18  2  0  0  0  0
 17 19  1  0  0  0  0
 19 21  1  0  0  0  0
 19 20  1  0  0  0  0
 19 37  1  0  0  0  0
 20 21  1  0  0  0  0
 20 38  1  0  0  0  0
 20 39  1  0  0  0  0
 21 40  1  0  0  0  0
 21 41  1  0  0  0  0
 22 23  1  0  0  0  0
 22 42  1  0  0  0  0
 22 43  1  0  0  0  0
 23 44  1  0  0  0  0
 23 45  1  0  0  0  0
M  END
> <s_m_source_file>
AV-unprocessed.smi

> <i_m_source_file_index>
1148

> <i_lp_mmshare_version>
43012

> <i_f3d_flags>
0

> <s_epik_input>
W0NIM11PYzFuW2NIXVtjSF1bY0hdYzFbTkhdQyg9TylbTkhdW0NIXTJbQ0gyXVtDSDJdTihbQ0gyXVtDSDJdMilDKD1PKVtDSF0zW0NIMl1bQ0gyXTM=

> <s_epik_cmdline>
J2VwaWtfcHl0aG9uJywgJy1waCcsICc3LjAnLCAnLXRuJywgJzgnLCAnLW1hJywgJzIwMCcsICctbWV0YWxfYmluZGluZycsICctaW1hZScsICc8aW5maWxlLm1hZT4nLCAnLW9tYWUnLCAnPG91dGZpbGUubWFlPic=

> <r_lp_tautomer_probability>
1

> <r_epik_Ionization_Penalty>
9.48164e-05

> <r_epik_Ionization_Penalty_Charging>
0

> <r_epik_Ionization_Penalty_Neutral>
9.48164e-05

> <r_epik_State_Penalty>
-0

> <r_epik_Charging_Adjusted_Penalty>
0

> <i_epik_Tot_Q>
0

> <i_epik_Tot_abs_Q>
0

> <r_epik_Metal_State_Penalty>
-0

> <b_epik_Metal_Only>
0

> <s_lp_Force_Field>
OPLS_2005

> <r_lp_Energy>
31.242

> <b_lp_Chiralities_Consistent>
1

> <s_lp_Variant>
AV-unprocessed.smi:1148-1

> <Gold.Version>
5.8.1

> <Gold.Id.Protein>
6NUR|6NUR_protein|mol2

> <Gold.PLP.Fitness>
45.7864

> <Gold.PLP.PLP>
-37.0661

> <Gold.PLP.part.hbond>
-5.2927

> <Gold.PLP.part.metal>
0.0000

> <Gold.PLP.part.buried>
2.4842

> <Gold.PLP.part.nonpolar>
-33.8191

> <Gold.PLP.part.repulsive>
0.4020

> <Gold.PLP.ligand.clash>
0.8794

> <Gold.PLP.ligand.torsion>
0.7372

> <Gold.PLP.Chemscore.Hbond>
3.6528

> <Gold.PLP.Chemscore.CHOScore>
0.0000

> <Gold.PLP.Chemscore.Metal>
0.0000

> <Gold.Chemscore.Hbonds>
donor molecule, donor type, donor heavy atom, donor atom, acceptor molecule, acceptor atom, score
      L1  H     9    30       P1  7948  0.53
      L1  H    12    31       P1  7948  1.00
      P1  H  7997  8010       L1    18  0.98
      P1  H 10752 10765       L1    11  1.00

> <Gold.PLP.Chemscore.Internal.Correction>
0.1158

> <Gold.Rescore>
     Score         DG    S(hbond)    S(metal)    S(lipo)     H(rot)  DE(clash)    DE(int)     intcor
     16.19     -21.18       2.90        0.00      83.24       1.46       1.23       3.76       ----

> <Gold.Chemscore.Fitness>
16.1882

> <Gold.Chemscore.DG>
-21.1767

> <Gold.Chemscore.ZeroCoef>
-5.4800

> <Gold.Chemscore.Hbond>
2.9002

> <Gold.Chemscore.Metal>
0.0000

> <Gold.Chemscore.Lipo>
83.2353

> <Gold.Chemscore.Internal_Hbond>
0.0000

> <Gold.Chemscore.DEClash>
1.2260

> <Gold.Chemscore.DEInternal>
3.7625

> <Gold.Chemscore.Rot>
1.4564

> <Gold.Chemscore.Internal.Correction>
   9.000000E+99

> <Gold.Chemscore.Hbonds>
donor molecule, donor type, donor heavy atom, donor atom, acceptor molecule, acceptor atom, score
      L1  H     9    30       P1  7948  0.04
      L1  H    12    31       P1  7948  0.29
      P1  H  7997  8010       L1    18  0.52
      P1  H 10752 10765       L1    11  0.34

> <Gold.Chemscore.Hbond.Weighted>
-9.6867

> <Gold.Chemscore.Metal.Weighted>
-0.0000

> <Gold.Chemscore.Lipo.Weighted>
-9.7385

> <Gold.Chemscore.Internal_Hbond.Weighted>
0.0000

> <Gold.Chemscore.DEClash.Weighted>
1.2260

> <Gold.Chemscore.DEInternal.Weighted>
3.7625

> <Gold.Chemscore.Rot.Weighted>
3.7285

> <Gold.Chemscore.Internal.Correction.Weighted>
   9.000000E+99

> <Gold.Protein.RotatedTorsions>
[ 6907 6896 6895 6894 ] final -169.90 input  -60.11 | X-H torsion
[ 7974 7965 7964 7962 ] final  120.98 input  175.53 | X-H torsion
[ 8008 7997 7996 7995 ] final   52.93 input   59.86 | X-H torsion
[ 10167 10162 10161 10158 ] final  -23.12 input  -65.29 | X-H torsion
[ 10718 10713 10712 10709 ] final   34.46 input   66.30 | X-H torsion
[ 10763 10752 10751 10750 ] final -155.88 input  -60.55 | X-H torsion
[ 11005 11000 10999 10996 ] final  126.63 input  -57.11 | X-H torsion

> <Gold.Protein.ActiveResidues>
 VAL166  LYS551  ARG553  GLY616  TRP617  ASP618  TYR619  PRO620  LYS621  CYS622 
 ASP623  PHE694  ASN695  SER759  ASP760  ASP761  ALA762  ILE779  LEU786  VAL792 
 PHE793  MET794  SER795  GLU796  ALA797  LYS798  CYS799  TRP800  GLU811  SER814 

> <Gold.Protein.RotatedAtoms>
  151.4990  133.3508  159.2865 H   0  0  0  0  0  0  0  0  0  0  0  0  # atno 6907 bound_to 6896
  150.8785  134.8174  159.7218 H   0  0  0  0  0  0  0  0  0  0  0  0  # atno 6908 bound_to 6896
  152.4747  134.4884  159.9739 H   0  0  0  0  0  0  0  0  0  0  0  0  # atno 6909 bound_to 6896
  145.1247  139.3366  143.4696 H   0  0  0  0  0  0  0  0  0  0  0  0  # atno 7974 bound_to 7965
  155.4599  140.3461  155.4311 H   0  0  0  0  0  0  0  0  0  0  0  0  # atno 8008 bound_to 7997
  156.1167  140.1476  156.9291 H   0  0  0  0  0  0  0  0  0  0  0  0  # atno 8009 bound_to 7997
  154.4794  140.0874  156.7320 H   0  0  0  0  0  0  0  0  0  0  0  0  # atno 8010 bound_to 7997
  140.7287  143.4472  151.0569 H   0  0  0  0  0  0  0  0  0  0  0  0  # atno 10167 bound_to 10162
  157.3105  130.7397  149.6722 H   0  0  0  0  0  0  0  0  0  0  0  0  # atno 10718 bound_to 10713
  154.7754  135.3158  154.8102 H   0  0  0  0  0  0  0  0  0  0  0  0  # atno 10763 bound_to 10752
  153.8827  135.6833  153.4770 H   0  0  0  0  0  0  0  0  0  0  0  0  # atno 10764 bound_to 10752
  153.1377  135.4752  154.9384 H   0  0  0  0  0  0  0  0  0  0  0  0  # atno 10765 bound_to 10752
  139.9466  134.9628  156.8736 H   0  0  0  0  0  0  0  0  0  0  0  0  # atno 11005 bound_to 11000
  146.3518  140.1221  142.8600 LP  0  0  0  0  0  0  0  0  0  0  0  0  # atno 17320 bound_to 7965
  145.0701  140.9149  143.4887 LP  0  0  0  0  0  0  0  0  0  0  0  0  # atno 17321 bound_to 7965
  139.8145  143.7905  152.3173 LP  0  0  0  0  0  0  0  0  0  0  0  0  # atno 17342 bound_to 10162
  139.7966  144.7390  150.9882 LP  0  0  0  0  0  0  0  0  0  0  0  0  # atno 17343 bound_to 10162
  155.9677  130.4252  150.4646 LP  0  0  0  0  0  0  0  0  0  0  0  0  # atno 17370 bound_to 10713
  157.2643  131.0573  151.2300 LP  0  0  0  0  0  0  0  0  0  0  0  0  # atno 17371 bound_to 10713
  140.5820  134.0343  155.7467 LP  0  0  0  0  0  0  0  0  0  0  0  0  # atno 17394 bound_to 11000
  141.1118  133.9604  157.2896 LP  0  0  0  0  0  0  0  0  0  0  0  0  # atno 17395 bound_to 11000

$$$$
