AV-unprocessed.smi:1171|AV-procd|sdf|4942|dock7
  -GOLD-   22720 3523D 1   1.00000     0.00000
 Structure written by MMmdl.
 32 33  0  0  0  0  0  0  0  0  1 V2000
  151.6427  138.2067  153.9248 C   0  0  0  0  0  0  0  0  0  0  0  0
  150.9613  139.4518  154.4099 C   0  0  0  0  0  0  0  0  0  0  0  0
  151.3551  140.3090  155.4786 C   0  0  0  0  0  0  0  0  0  0  0  0
  150.3803  141.2685  155.4688 C   0  0  0  0  0  0  0  0  0  0  0  0
  150.2510  142.3637  156.2634 N   0  0  0  0  0  0  0  0  0  0  0  0
  150.9229  142.6783  157.3884 C   0  0  0  0  0  0  0  0  0  0  0  0
  151.7486  141.9510  157.9371 O   0  0  0  0  0  0  0  0  0  0  0  0
  150.5857  143.8678  157.9195 N   0  0  0  0  0  0  0  0  0  0  0  0
  151.1084  144.4886  159.1006 C   0  0  0  0  0  0  0  0  0  0  0  0
  152.2461  145.4701  158.9185 C   0  0  0  0  0  0  0  0  0  0  0  0
  152.5124  144.1231  159.5319 C   0  0  0  0  0  0  0  0  0  0  0  0
  149.4848  140.9839  154.4618 N   0  0  0  0  0  0  0  0  0  0  0  0
  148.2990  141.7090  154.0457 C   0  0  0  0  0  0  0  0  0  0  0  0
  147.0465  140.8337  154.1552 C   0  0  0  0  0  0  0  0  0  0  0  0
  147.0934  139.6689  153.2598 C   0  0  0  0  0  0  0  0  0  0  0  0
  147.1300  138.7528  152.5544 N   0  0  0  0  0  0  0  0  0  0  0  0
  149.8503  139.8607  153.8074 N   0  0  0  0  0  0  0  0  0  0  0  0
  152.5679  138.0249  154.4720 H   0  0  0  0  0  0  0  0  0  0  0  0
  151.8932  138.2827  152.8664 H   0  0  0  0  0  0  0  0  0  0  0  0
  151.0029  137.3336  154.0557 H   0  0  0  0  0  0  0  0  0  0  0  0
  152.2146  140.2199  156.1259 H   0  0  0  0  0  0  0  0  0  0  0  0
  149.5615  143.0358  155.9610 H   0  0  0  0  0  0  0  0  0  0  0  0
  149.8239  144.3565  157.4715 H   0  0  0  0  0  0  0  0  0  0  0  0
  150.4079  144.7454  159.8942 H   0  0  0  0  0  0  0  0  0  0  0  0
  152.6152  145.6435  157.9092 H   0  0  0  0  0  0  0  0  0  0  0  0
  152.2727  146.3352  159.5782 H   0  0  0  0  0  0  0  0  0  0  0  0
  152.7154  144.0887  160.6004 H   0  0  0  0  0  0  0  0  0  0  0  0
  153.0570  143.3965  158.9314 H   0  0  0  0  0  0  0  0  0  0  0  0
  148.1926  142.6027  154.6625 H   0  0  0  0  0  0  0  0  0  0  0  0
  148.4385  142.0500  153.0192 H   0  0  0  0  0  0  0  0  0  0  0  0
  146.9248  140.4655  155.1743 H   0  0  0  0  0  0  0  0  0  0  0  0
  146.1549  141.4112  153.9098 H   0  0  0  0  0  0  0  0  0  0  0  0
  1  2  1  0  0  0  0
  1 18  1  0  0  0  0
  1 19  1  0  0  0  0
  1 20  1  0  0  0  0
  2 17  2  0  0  0  0
  2  3  1  0  0  0  0
  3  4  2  0  0  0  0
  3 21  1  0  0  0  0
  4  5  1  0  0  0  0
  4 12  1  0  0  0  0
  5  6  1  0  0  0  0
  5 22  1  0  0  0  0
  6  7  2  0  0  0  0
  6  8  1  0  0  0  0
  8  9  1  0  0  0  0
  8 23  1  0  0  0  0
  9 11  1  0  0  0  0
  9 10  1  0  0  0  0
  9 24  1  0  0  0  0
 10 11  1  0  0  0  0
 10 25  1  0  0  0  0
 10 26  1  0  0  0  0
 11 27  1  0  0  0  0
 11 28  1  0  0  0  0
 12 13  1  0  0  0  0
 12 17  1  0  0  0  0
 13 14  1  0  0  0  0
 13 29  1  0  0  0  0
 13 30  1  0  0  0  0
 14 15  1  0  0  0  0
 14 31  1  0  0  0  0
 14 32  1  0  0  0  0
 15 16  3  0  0  0  0
M  END
> <s_m_source_file>
AV-unprocessed.smi

> <i_m_source_file_index>
1171

> <i_lp_mmshare_version>
43012

> <i_f3d_flags>
0

> <s_epik_input>
TiNDW0NIMl1bQ0gyXW4objEpYyhbY0hdYzFbQ0gzXSlbTkhdQyg9TylbTkhdW0NIXTJbQ0gyXVtDSDJdMg==

> <s_epik_cmdline>
J2VwaWtfcHl0aG9uJywgJy1waCcsICc3LjAnLCAnLXRuJywgJzgnLCAnLW1hJywgJzIwMCcsICctbWV0YWxfYmluZGluZycsICctaW1hZScsICc8aW5maWxlLm1hZT4nLCAnLW9tYWUnLCAnPG91dGZpbGUubWFlPic=

> <r_lp_tautomer_probability>
1

> <r_epik_Ionization_Penalty>
3.70036e-05

> <r_epik_Ionization_Penalty_Charging>
0

> <r_epik_Ionization_Penalty_Neutral>
3.70036e-05

> <r_epik_State_Penalty>
-0

> <r_epik_Charging_Adjusted_Penalty>
0

> <i_epik_Tot_Q>
0

> <i_epik_Tot_abs_Q>
0

> <r_epik_Metal_State_Penalty>
-0

> <b_epik_Metal_Only>
0

> <s_lp_Force_Field>
OPLS_2005

> <r_lp_Energy>
27.1595

> <b_lp_Chiralities_Consistent>
1

> <s_lp_Variant>
AV-unprocessed.smi:1171-1

> <Gold.Version>
5.8.1

> <Gold.Id.Protein>
6NUR|6NUR_protein|mol2

> <Gold.PLP.Fitness>
44.6665

> <Gold.PLP.PLP>
-39.3951

> <Gold.PLP.part.hbond>
-2.6292

> <Gold.PLP.part.metal>
0.0000

> <Gold.PLP.part.buried>
-4.8152

> <Gold.PLP.part.nonpolar>
-34.2274

> <Gold.PLP.part.repulsive>
2.0512

> <Gold.PLP.ligand.clash>
0.0000

> <Gold.PLP.ligand.torsion>
0.3874

> <Gold.PLP.Chemscore.Hbond>
2.0000

> <Gold.PLP.Chemscore.CHOScore>
0.0000

> <Gold.PLP.Chemscore.Metal>
0.0000

> <Gold.Chemscore.Hbonds>
donor molecule, donor type, donor heavy atom, donor atom, acceptor molecule, acceptor atom, score
      L1  H     5    22       P1  8028  1.00
      L1  H     8    23       P1  8028  0.89

> <Gold.PLP.Chemscore.Internal.Correction>
0.0461

> <Gold.Rescore>
     Score         DG    S(hbond)    S(metal)    S(lipo)     H(rot)  DE(clash)    DE(int)     intcor
     11.15     -15.79       1.65        0.00      76.22       1.61       0.39       4.24       ----

> <Gold.Chemscore.Fitness>
11.1539

> <Gold.Chemscore.DG>
-15.7873

> <Gold.Chemscore.ZeroCoef>
-5.4800

> <Gold.Chemscore.Hbond>
1.6467

> <Gold.Chemscore.Metal>
0.0000

> <Gold.Chemscore.Lipo>
76.2196

> <Gold.Chemscore.Internal_Hbond>
0.0000

> <Gold.Chemscore.DEClash>
0.3896

> <Gold.Chemscore.DEInternal>
4.2438

> <Gold.Chemscore.Rot>
1.6056

> <Gold.Chemscore.Internal.Correction>
   9.000000E+99

> <Gold.Chemscore.Hbonds>
donor molecule, donor type, donor heavy atom, donor atom, acceptor molecule, acceptor atom, score
      L1  H     5    22       P1  8028  0.98
      L1  H     8    23       P1  8028  0.21

> <Gold.Chemscore.Hbond.Weighted>
-5.4998

> <Gold.Chemscore.Metal.Weighted>
-0.0000

> <Gold.Chemscore.Lipo.Weighted>
-8.9177

> <Gold.Chemscore.Internal_Hbond.Weighted>
0.0000

> <Gold.Chemscore.DEClash.Weighted>
0.3896

> <Gold.Chemscore.DEInternal.Weighted>
4.2438

> <Gold.Chemscore.Rot.Weighted>
4.1102

> <Gold.Chemscore.Internal.Correction.Weighted>
   9.000000E+99

> <Gold.Protein.RotatedTorsions>
[ 6907 6896 6895 6894 ] final  -50.38 input  -60.11 | X-H torsion
[ 7974 7965 7964 7962 ] final -105.77 input  175.53 | X-H torsion
[ 8008 7997 7996 7995 ] final   14.28 input   59.86 | X-H torsion
[ 10167 10162 10161 10158 ] final  -77.18 input  -65.29 | X-H torsion
[ 10718 10713 10712 10709 ] final -159.39 input   66.30 | X-H torsion
[ 10763 10752 10751 10750 ] final  -20.53 input  -60.55 | X-H torsion
[ 11005 11000 10999 10996 ] final  117.17 input  -57.11 | X-H torsion

> <Gold.Protein.ActiveResidues>
 VAL166  LYS551  ARG553  GLY616  TRP617  ASP618  TYR619  PRO620  LYS621  CYS622 
 ASP623  PHE694  ASN695  SER759  ASP760  ASP761  ALA762  ILE779  LEU786  VAL792 
 PHE793  MET794  SER795  GLU796  ALA797  LYS798  CYS799  TRP800  GLU811  SER814 

> <Gold.Protein.RotatedAtoms>
  150.8712  134.8087  159.7156 H   0  0  0  0  0  0  0  0  0  0  0  0  # atno 6907 bound_to 6896
  152.4716  134.4943  159.9715 H   0  0  0  0  0  0  0  0  0  0  0  0  # atno 6908 bound_to 6896
  151.5031  133.3461  159.2908 H   0  0  0  0  0  0  0  0  0  0  0  0  # atno 6909 bound_to 6896
  145.2263  140.9153  143.3230 H   0  0  0  0  0  0  0  0  0  0  0  0  # atno 7974 bound_to 7965
  154.8462  140.2922  155.5627 H   0  0  0  0  0  0  0  0  0  0  0  0  # atno 8008 bound_to 7997
  156.3014  140.2504  156.3345 H   0  0  0  0  0  0  0  0  0  0  0  0  # atno 8009 bound_to 7997
  154.9071  140.0389  157.1915 H   0  0  0  0  0  0  0  0  0  0  0  0  # atno 8010 bound_to 7997
  140.4792  143.2406  151.8084 H   0  0  0  0  0  0  0  0  0  0  0  0  # atno 10167 bound_to 10162
  156.5675  130.8674  151.2828 H   0  0  0  0  0  0  0  0  0  0  0  0  # atno 10718 bound_to 10713
  153.6219  135.6992  153.5307 H   0  0  0  0  0  0  0  0  0  0  0  0  # atno 10763 bound_to 10752
  153.2930  135.4151  155.1184 H   0  0  0  0  0  0  0  0  0  0  0  0  # atno 10764 bound_to 10752
  154.8541  135.3630  154.5760 H   0  0  0  0  0  0  0  0  0  0  0  0  # atno 10765 bound_to 10752
  139.9065  134.9607  156.7310 H   0  0  0  0  0  0  0  0  0  0  0  0  # atno 11005 bound_to 11000
  144.9718  139.3872  143.6305 LP  0  0  0  0  0  0  0  0  0  0  0  0  # atno 17320 bound_to 7965
  146.3364  139.8819  142.8823 LP  0  0  0  0  0  0  0  0  0  0  0  0  # atno 17321 bound_to 7965
  139.4830  144.4794  151.9326 LP  0  0  0  0  0  0  0  0  0  0  0  0  # atno 17342 bound_to 10162
  140.3879  144.2653  150.5902 LP  0  0  0  0  0  0  0  0  0  0  0  0  # atno 17343 bound_to 10162
  157.7355  130.9764  150.2087 LP  0  0  0  0  0  0  0  0  0  0  0  0  # atno 17370 bound_to 10713
  156.2744  130.3725  149.7999 LP  0  0  0  0  0  0  0  0  0  0  0  0  # atno 17371 bound_to 10713
  140.6925  133.9378  155.7975 LP  0  0  0  0  0  0  0  0  0  0  0  0  # atno 17394 bound_to 11000
  141.0431  134.0592  157.3877 LP  0  0  0  0  0  0  0  0  0  0  0  0  # atno 17395 bound_to 11000

$$$$
