AV-unprocessed.smi:1382|AV-procd|sdf|5620|dock2
  -GOLD-   22720 5233D 1   1.00000     0.00000
 Structure written by MMmdl.
 44 45  0  0  0  0  0  0  0  0  1 V2000
  145.5268  134.4688  150.9228 C   0  0  0  0  0  0  0  0  0  0  0  0
  146.7404  133.5445  151.0877 C   0  0  0  0  0  0  0  0  0  0  0  0
  147.2412  133.4356  152.5363 C   0  0  0  0  0  0  0  0  0  0  0  0
  148.7218  133.0266  152.6465 C   0  0  0  0  0  0  0  0  0  0  0  0
  149.1682  132.9332  154.0225 N   0  0  0  0  0  0  0  0  0  0  0  0
  149.2816  134.0357  154.8749 C   0  0  0  0  0  0  0  0  0  0  0  0
  148.9333  135.2829  154.3765 N   0  0  0  0  0  0  0  0  0  0  0  0
  149.7149  133.9049  156.1645 C   0  0  0  0  0  0  0  0  0  0  0  0
  149.8700  135.0219  157.0056 N   0  0  0  0  0  0  0  0  0  0  0  0
  148.9779  135.1122  158.1651 C   0  0  0  0  0  0  0  0  0  0  0  0
  150.8193  135.9727  156.8086 C   0  0  0  0  0  0  0  0  0  0  0  0
  151.6562  135.8731  155.9091 O   0  0  0  0  0  0  0  0  0  0  0  0
  150.8534  137.2273  157.7091 C   0  0  2  0  0  0  0  0  0  0  0  0
  151.9753  138.2245  157.3594 C   0  0  0  0  0  0  0  0  0  0  0  0
  152.9840  138.0333  158.4730 C   0  0  0  0  0  0  0  0  0  0  0  0
  152.0805  137.6613  159.6390 C   0  0  0  0  0  0  0  0  0  0  0  0
  151.1187  136.8030  159.0458 O   0  0  0  0  0  0  0  0  0  0  0  0
  150.1244  132.5933  156.6854 C   0  0  0  0  0  0  0  0  0  0  0  0
  150.5604  132.3719  157.8142 O   0  0  0  0  0  0  0  0  0  0  0  0
  150.0065  131.5412  155.7808 N   0  0  0  0  0  0  0  0  0  0  0  0
  149.5539  131.6467  154.4705 C   0  0  0  0  0  0  0  0  0  0  0  0
  149.5159  130.6396  153.7628 O   0  0  0  0  0  0  0  0  0  0  0  0
  150.2843  130.6247  156.1008 H   0  0  0  0  0  0  0  0  0  0  0  0
  145.2514  134.5589  149.8717 H   0  0  0  0  0  0  0  0  0  0  0  0
  145.7411  135.4706  151.2959 H   0  0  0  0  0  0  0  0  0  0  0  0
  144.6565  134.0888  151.4575 H   0  0  0  0  0  0  0  0  0  0  0  0
  146.5046  132.5522  150.7017 H   0  0  0  0  0  0  0  0  0  0  0  0
  147.5511  133.9256  150.4657 H   0  0  0  0  0  0  0  0  0  0  0  0
  147.1026  134.4020  153.0225 H   0  0  0  0  0  0  0  0  0  0  0  0
  146.6175  132.7299  153.0864 H   0  0  0  0  0  0  0  0  0  0  0  0
  148.9124  132.0569  152.1890 H   0  0  0  0  0  0  0  0  0  0  0  0
  149.3798  133.7193  152.1192 H   0  0  0  0  0  0  0  0  0  0  0  0
  148.6062  135.4045  153.4286 H   0  0  0  0  0  0  0  0  0  0  0  0
  148.9703  136.1149  154.9477 H   0  0  0  0  0  0  0  0  0  0  0  0
  149.5475  135.0857  159.0949 H   0  0  0  0  0  0  0  0  0  0  0  0
  148.2632  134.2885  158.1905 H   0  0  0  0  0  0  0  0  0  0  0  0
  148.4037  136.0393  158.1391 H   0  0  0  0  0  0  0  0  0  0  0  0
  149.9062  137.7662  157.6827 H   0  0  0  0  0  0  0  0  0  0  0  0
  152.4167  138.0821  156.3721 H   0  0  0  0  0  0  0  0  0  0  0  0
  151.5816  139.2414  157.3901 H   0  0  0  0  0  0  0  0  0  0  0  0
  153.6534  137.2049  158.2375 H   0  0  0  0  0  0  0  0  0  0  0  0
  153.5871  138.9210  158.6636 H   0  0  0  0  0  0  0  0  0  0  0  0
  152.6164  137.1659  160.4487 H   0  0  0  0  0  0  0  0  0  0  0  0
  151.5816  138.5439  160.0422 H   0  0  0  0  0  0  0  0  0  0  0  0
  1  2  1  0  0  0  0
  1 24  1  0  0  0  0
  1 25  1  0  0  0  0
  1 26  1  0  0  0  0
  2  3  1  0  0  0  0
  2 27  1  0  0  0  0
  2 28  1  0  0  0  0
  3  4  1  0  0  0  0
  3 29  1  0  0  0  0
  3 30  1  0  0  0  0
  4  5  1  0  0  0  0
  4 31  1  0  0  0  0
  4 32  1  0  0  0  0
  5 21  1  0  0  0  0
  5  6  1  0  0  0  0
  6  7  1  0  0  0  0
  6  8  2  0  0  0  0
  7 33  1  0  0  0  0
  7 34  1  0  0  0  0
  8  9  1  0  0  0  0
  8 18  1  0  0  0  0
  9 10  1  0  0  0  0
  9 11  1  0  0  0  0
 10 35  1  0  0  0  0
 10 36  1  0  0  0  0
 10 37  1  0  0  0  0
 11 12  2  0  0  0  0
 11 13  1  0  0  0  0
 13 17  1  0  0  0  0
 13 14  1  0  0  0  0
 13 38  1  0  0  0  0
 14 15  1  0  0  0  0
 14 39  1  0  0  0  0
 14 40  1  0  0  0  0
 15 16  1  0  0  0  0
 15 41  1  0  0  0  0
 15 42  1  0  0  0  0
 16 17  1  0  0  0  0
 16 43  1  0  0  0  0
 16 44  1  0  0  0  0
 18 19  2  0  0  0  0
 18 20  1  0  0  0  0
 20 23  1  0  0  0  0
 20 21  1  0  0  0  0
 21 22  2  0  0  0  0
M  END
> <s_m_source_file>
AV-unprocessed.smi

> <i_m_source_file_index>
1382

> <i_lp_mmshare_version>
43012

> <i_f3d_flags>
0

> <s_epik_input>
W0NIM11bQ0gyXVtDSDJdW0NIMl1uMWMoW05IMl0pYyhjKD1PKVtuSF1jMT1PKU4oW0NIM10pQyg9TylbQ0BASF0yW0NIMl1bQ0gyXVtDSDJdTzI=

> <s_epik_cmdline>
J2VwaWtfcHl0aG9uJywgJy1waCcsICc3LjAnLCAnLXRuJywgJzgnLCAnLW1hJywgJzIwMCcsICctbWV0YWxfYmluZGluZycsICctaW1hZScsICc8aW5maWxlLm1hZT4nLCAnLW9tYWUnLCAnPG91dGZpbGUubWFlPic=

> <r_lp_tautomer_probability>
1

> <r_epik_Ionization_Penalty>
1.19634e-05

> <r_epik_Ionization_Penalty_Charging>
6.01811e-06

> <r_epik_Ionization_Penalty_Neutral>
5.94533e-06

> <r_epik_State_Penalty>
-0

> <r_epik_Charging_Adjusted_Penalty>
6.01811e-06

> <i_epik_Tot_Q>
0

> <i_epik_Tot_abs_Q>
0

> <r_epik_Metal_State_Penalty>
-0

> <b_epik_Metal_Only>
0

> <s_epik_Chemistry_Notes>
This compound has an imine and may undergo hydrolysis.

> <s_lp_Force_Field>
OPLS_2005

> <r_lp_Energy>
42.2822

> <b_lp_Chiralities_Consistent>
1

> <s_lp_Variant>
AV-unprocessed.smi:1382-1

> <Gold.Version>
5.8.1

> <Gold.Id.Protein>
6NUR|6NUR_protein|mol2

> <Gold.PLP.Fitness>
40.7680

> <Gold.PLP.PLP>
-29.8724

> <Gold.PLP.part.hbond>
-4.0000

> <Gold.PLP.part.metal>
0.0000

> <Gold.PLP.part.buried>
-4.3457

> <Gold.PLP.part.nonpolar>
-21.9845

> <Gold.PLP.part.repulsive>
0.1357

> <Gold.PLP.ligand.clash>
0.0000

> <Gold.PLP.ligand.torsion>
1.4934

> <Gold.PLP.Chemscore.Hbond>
3.8560

> <Gold.PLP.Chemscore.CHOScore>
0.0000

> <Gold.PLP.Chemscore.Metal>
0.0000

> <Gold.Chemscore.Hbonds>
donor molecule, donor type, donor heavy atom, donor atom, acceptor molecule, acceptor atom, score
      L1  H     7    33       P1  7948  0.86
      P1  H  6896  6908       L1    19  1.00
      P1  H  6896  6909       L1    17  0.94
      P1  H 10752 10763       L1    12  1.00

> <Gold.PLP.Chemscore.Internal.Correction>
2.3144

> <Gold.Rescore>
     Score         DG    S(hbond)    S(metal)    S(lipo)     H(rot)  DE(clash)    DE(int)     intcor
     16.61     -19.37       3.76        0.00      48.60       1.69       0.00       2.76       ----

> <Gold.Chemscore.Fitness>
16.6115

> <Gold.Chemscore.DG>
-19.3744

> <Gold.Chemscore.ZeroCoef>
-5.4800

> <Gold.Chemscore.Hbond>
3.7560

> <Gold.Chemscore.Metal>
0.0000

> <Gold.Chemscore.Lipo>
48.6034

> <Gold.Chemscore.Internal_Hbond>
0.0000

> <Gold.Chemscore.DEClash>
0.0015

> <Gold.Chemscore.DEInternal>
2.7614

> <Gold.Chemscore.Rot>
1.6942

> <Gold.Chemscore.Internal.Correction>
   9.000000E+99

> <Gold.Chemscore.Hbonds>
donor molecule, donor type, donor heavy atom, donor atom, acceptor molecule, acceptor atom, score
      L1  H     7    33       P1  7948  0.82
      P1  H  6896  6908       L1    19  1.00
      P1  H  6896  6909       L1    17  0.81
      P1  H 10752 10763       L1    12  1.00

> <Gold.Chemscore.Hbond.Weighted>
-12.5451

> <Gold.Chemscore.Metal.Weighted>
-0.0000

> <Gold.Chemscore.Lipo.Weighted>
-5.6866

> <Gold.Chemscore.Internal_Hbond.Weighted>
0.0000

> <Gold.Chemscore.DEClash.Weighted>
0.0015

> <Gold.Chemscore.DEInternal.Weighted>
2.7614

> <Gold.Chemscore.Rot.Weighted>
4.3372

> <Gold.Chemscore.Internal.Correction.Weighted>
   9.000000E+99

> <Gold.Protein.RotatedTorsions>
[ 6907 6896 6895 6894 ] final   87.26 input  -60.11 | X-H torsion
[ 7974 7965 7964 7962 ] final   16.29 input  175.53 | X-H torsion
[ 8008 7997 7996 7995 ] final -102.15 input   59.86 | X-H torsion
[ 10167 10162 10161 10158 ] final -169.90 input  -65.29 | X-H torsion
[ 10718 10713 10712 10709 ] final -153.14 input   66.30 | X-H torsion
[ 10763 10752 10751 10750 ] final   83.73 input  -60.55 | X-H torsion
[ 11005 11000 10999 10996 ] final  -39.27 input  -57.11 | X-H torsion

> <Gold.Protein.ActiveResidues>
 VAL166  LYS551  ARG553  GLY616  TRP617  ASP618  TYR619  PRO620  LYS621  CYS622 
 ASP623  PHE694  ASN695  SER759  ASP760  ASP761  ALA762  ILE779  LEU786  VAL792 
 PHE793  MET794  SER795  GLU796  ALA797  LYS798  CYS799  TRP800  GLU811  SER814 

> <Gold.Protein.RotatedAtoms>
  152.5408  134.2303  159.8822 H   0  0  0  0  0  0  0  0  0  0  0  0  # atno 6907 bound_to 6896
  151.2276  133.4461  159.2610 H   0  0  0  0  0  0  0  0  0  0  0  0  # atno 6908 bound_to 6896
  151.0746  134.9833  159.8382 H   0  0  0  0  0  0  0  0  0  0  0  0  # atno 6909 bound_to 6896
  146.2254  139.8770  142.8577 H   0  0  0  0  0  0  0  0  0  0  0  0  # atno 7974 bound_to 7965
  154.8526  140.0430  157.1614 H   0  0  0  0  0  0  0  0  0  0  0  0  # atno 8008 bound_to 7997
  154.8926  140.2988  155.5341 H   0  0  0  0  0  0  0  0  0  0  0  0  # atno 8009 bound_to 7997
  156.2996  140.2390  156.3944 H   0  0  0  0  0  0  0  0  0  0  0  0  # atno 8010 bound_to 7997
  139.5894  144.1246  152.1616 H   0  0  0  0  0  0  0  0  0  0  0  0  # atno 10167 bound_to 10162
  156.4819  130.8307  151.2533 H   0  0  0  0  0  0  0  0  0  0  0  0  # atno 10718 bound_to 10713
  153.1317  135.4680  154.9359 H   0  0  0  0  0  0  0  0  0  0  0  0  # atno 10763 bound_to 10752
  154.7670  135.3147  154.8269 H   0  0  0  0  0  0  0  0  0  0  0  0  # atno 10764 bound_to 10752
  153.8810  135.6894  153.4821 H   0  0  0  0  0  0  0  0  0  0  0  0  # atno 10765 bound_to 10752
  141.0090  133.6917  156.2165 H   0  0  0  0  0  0  0  0  0  0  0  0  # atno 11005 bound_to 11000
  145.2551  141.0057  143.3859 LP  0  0  0  0  0  0  0  0  0  0  0  0  # atno 17320 bound_to 7965
  144.9343  139.4262  143.6480 LP  0  0  0  0  0  0  0  0  0  0  0  0  # atno 17321 bound_to 7965
  140.0817  144.5695  150.7118 LP  0  0  0  0  0  0  0  0  0  0  0  0  # atno 17342 bound_to 10162
  140.7160  143.2545  151.4432 LP  0  0  0  0  0  0  0  0  0  0  0  0  # atno 17343 bound_to 10162
  157.7482  131.0042  150.3067 LP  0  0  0  0  0  0  0  0  0  0  0  0  # atno 17370 bound_to 10713
  156.3513  130.3831  149.7327 LP  0  0  0  0  0  0  0  0  0  0  0  0  # atno 17371 bound_to 10713
  140.6765  134.4812  157.5588 LP  0  0  0  0  0  0  0  0  0  0  0  0  # atno 17394 bound_to 11000
  139.9079  134.8408  156.1637 LP  0  0  0  0  0  0  0  0  0  0  0  0  # atno 17395 bound_to 11000

$$$$
