AV-unprocessed.smi:3311|AV-procd|sdf|12726|dock9
  -GOLD-   2272019 73D 1   1.00000     0.00000
 Structure written by MMmdl.
 43 44  0  0  0  0  0  0  0  0  1 V2000
  151.9943  139.0894  156.4373 C   0  0  0  0  0  0  0  0  0  0  0  0
  150.7116  139.9094  156.2169 C   0  0  1  0  0  0  0  0  0  0  0  0
  150.9780  141.2996  156.6056 N   0  0  0  0  0  0  0  0  0  0  0  0
  151.8091  141.4830  157.7989 C   0  0  0  0  0  0  0  0  0  0  0  0
  151.3933  142.7205  158.6269 C   0  0  0  0  0  0  0  0  0  0  0  0
  150.0381  142.5359  158.9959 O   0  0  0  0  0  0  0  0  0  0  0  0
  152.2274  142.7694  159.9295 C   0  0  0  0  0  0  0  0  0  0  0  0
  151.9483  144.0208  160.7817 C   0  0  0  0  0  0  0  0  0  0  0  0
  152.1483  145.3054  159.9661 C   0  0  0  0  0  0  0  0  0  0  0  0
  151.2763  145.2934  158.7032 C   0  0  0  0  0  0  0  0  0  0  0  0
  151.5488  144.0477  157.8409 C   0  0  0  0  0  0  0  0  0  0  0  0
  150.1895  139.7532  154.7569 C   0  0  1  0  0  0  0  0  0  0  0  0
  150.2354  138.3282  154.1799 C   0  0  0  0  0  0  0  0  0  0  0  0
  148.8788  140.3624  154.5499 N   0  0  0  0  0  0  0  0  0  0  0  0
  148.4659  141.6503  154.8318 C   0  0  0  0  0  0  0  0  0  0  0  0
  147.1590  141.7553  154.4515 C   0  0  0  0  0  0  0  0  0  0  0  0
  146.8526  140.4644  153.9391 C   0  0  0  0  0  0  0  0  0  0  0  0
  147.8814  139.6350  153.9981 N   0  0  0  0  0  0  0  0  0  0  0  0
  151.8399  138.0414  156.1797 H   0  0  0  0  0  0  0  0  0  0  0  0
  152.3065  139.1250  157.4816 H   0  0  0  0  0  0  0  0  0  0  0  0
  152.8232  139.4610  155.8340 H   0  0  0  0  0  0  0  0  0  0  0  0
  149.9614  139.4917  156.8896 H   0  0  0  0  0  0  0  0  0  0  0  0
  151.4039  141.7921  155.8272 H   0  0  0  0  0  0  0  0  0  0  0  0
  151.7911  140.6032  158.4364 H   0  0  0  0  0  0  0  0  0  0  0  0
  152.8472  141.6035  157.4871 H   0  0  0  0  0  0  0  0  0  0  0  0
  149.9873  142.5051  159.9388 H   0  0  0  0  0  0  0  0  0  0  0  0
  152.0500  141.8732  160.5260 H   0  0  0  0  0  0  0  0  0  0  0  0
  153.2885  142.7550  159.6764 H   0  0  0  0  0  0  0  0  0  0  0  0
  150.9297  143.9866  161.1697 H   0  0  0  0  0  0  0  0  0  0  0  0
  152.6061  144.0292  161.6515 H   0  0  0  0  0  0  0  0  0  0  0  0
  151.9071  146.1761  160.5770 H   0  0  0  0  0  0  0  0  0  0  0  0
  153.1982  145.4039  159.6865 H   0  0  0  0  0  0  0  0  0  0  0  0
  150.2231  145.3241  158.9850 H   0  0  0  0  0  0  0  0  0  0  0  0
  151.4621  146.1940  158.1176 H   0  0  0  0  0  0  0  0  0  0  0  0
  152.5631  144.1114  157.4443 H   0  0  0  0  0  0  0  0  0  0  0  0
  150.8841  144.0647  156.9764 H   0  0  0  0  0  0  0  0  0  0  0  0
  150.8943  140.3163  154.1417 H   0  0  0  0  0  0  0  0  0  0  0  0
  151.1926  137.8487  154.3855 H   0  0  0  0  0  0  0  0  0  0  0  0
  150.1060  138.3497  153.0975 H   0  0  0  0  0  0  0  0  0  0  0  0
  149.4422  137.6971  154.5790 H   0  0  0  0  0  0  0  0  0  0  0  0
  149.1308  142.3785  155.2729 H   0  0  0  0  0  0  0  0  0  0  0  0
  146.5203  142.6227  154.5265 H   0  0  0  0  0  0  0  0  0  0  0  0
  145.9197  140.1079  153.5279 H   0  0  0  0  0  0  0  0  0  0  0  0
  1  2  1  0  0  0  0
  1 19  1  0  0  0  0
  1 20  1  0  0  0  0
  1 21  1  0  0  0  0
  2  3  1  0  0  0  0
  2 12  1  0  0  0  0
  2 22  1  0  0  0  0
  3  4  1  0  0  0  0
  3 23  1  0  0  0  0
  4  5  1  0  0  0  0
  4 24  1  0  0  0  0
  4 25  1  0  0  0  0
  5 11  1  0  0  0  0
  5  6  1  0  0  0  0
  5  7  1  0  0  0  0
  6 26  1  0  0  0  0
  7  8  1  0  0  0  0
  7 27  1  0  0  0  0
  7 28  1  0  0  0  0
  8  9  1  0  0  0  0
  8 29  1  0  0  0  0
  8 30  1  0  0  0  0
  9 10  1  0  0  0  0
  9 31  1  0  0  0  0
  9 32  1  0  0  0  0
 10 11  1  0  0  0  0
 10 33  1  0  0  0  0
 10 34  1  0  0  0  0
 11 35  1  0  0  0  0
 11 36  1  0  0  0  0
 12 13  1  0  0  0  0
 12 14  1  0  0  0  0
 12 37  1  0  0  0  0
 13 38  1  0  0  0  0
 13 39  1  0  0  0  0
 13 40  1  0  0  0  0
 14 18  1  0  0  0  0
 14 15  1  0  0  0  0
 15 16  2  0  0  0  0
 15 41  1  0  0  0  0
 16 17  1  0  0  0  0
 16 42  1  0  0  0  0
 17 18  2  0  0  0  0
 17 43  1  0  0  0  0
M  END
> <s_m_source_file>
AV-unprocessed.smi

> <i_m_source_file_index>
3311

> <i_lp_mmshare_version>
43012

> <i_f3d_flags>
0

> <s_epik_input>
bjFbY0hdW2NIXVtjSF1uMVtDQEBIXShbQ0gzXSlbQ0BIXShbQ0gzXSlbTkhdW0NIMl1DMihbT0hdKVtDSDJdW0NIMl1bQ0gyXVtDSDJdW0NIMl0y

> <s_epik_cmdline>
J2VwaWtfcHl0aG9uJywgJy1waCcsICc3LjAnLCAnLXRuJywgJzgnLCAnLW1hJywgJzIwMCcsICctbWV0YWxfYmluZGluZycsICctaW1hZScsICc8aW5maWxlLm1hZT4nLCAnLW9tYWUnLCAnPG91dGZpbGUubWFlPic=

> <r_lp_tautomer_probability>
1

> <r_epik_Ionization_Penalty>
2.222

> <r_epik_Ionization_Penalty_Charging>
0

> <r_epik_Ionization_Penalty_Neutral>
2.222

> <r_epik_State_Penalty>
2.36562

> <r_epik_Charging_Adjusted_Penalty>
2.36562

> <i_epik_Tot_Q>
0

> <i_epik_Tot_abs_Q>
0

> <r_epik_Metal_State_Penalty>
2.36435

> <b_epik_Metal_Only>
0

> <s_lp_Force_Field>
OPLS_2005

> <r_lp_Energy>
31.437

> <b_lp_Chiralities_Consistent>
1

> <s_lp_Variant>
AV-unprocessed.smi:3311-8

> <Gold.Version>
5.8.1

> <Gold.Id.Protein>
6NUR|6NUR_protein|mol2

> <Gold.PLP.Fitness>
47.5317

> <Gold.PLP.PLP>
-42.6585

> <Gold.PLP.part.hbond>
-0.7202

> <Gold.PLP.part.metal>
0.0000

> <Gold.PLP.part.buried>
-3.4616

> <Gold.PLP.part.nonpolar>
-38.4742

> <Gold.PLP.part.repulsive>
0.4304

> <Gold.PLP.ligand.clash>
0.0000

> <Gold.PLP.ligand.torsion>
0.6370

> <Gold.PLP.Chemscore.Hbond>
0.0000

> <Gold.PLP.Chemscore.CHOScore>
1.9650

> <Gold.PLP.Chemscore.Metal>
0.0000

> <Gold.Chemscore.Hbonds>
donor molecule, donor type, donor heavy atom, donor atom, acceptor molecule, acceptor atom, score
      L1  C    15    41       P1  8028  1.00
      L1  C    17    43       P1 10175  1.00

> <Gold.PLP.Chemscore.Internal.Correction>
0.2522

> <Gold.Rescore>
     Score         DG    S(hbond)    S(metal)    S(lipo)     H(rot)  DE(clash)    DE(int)     intcor
     13.60     -14.38       0.00        0.00     121.34       2.07       0.09       0.69       ----

> <Gold.Chemscore.Fitness>
13.6025

> <Gold.Chemscore.DG>
-14.3809

> <Gold.Chemscore.ZeroCoef>
-5.4800

> <Gold.Chemscore.Hbond>
0.0000

> <Gold.Chemscore.Metal>
0.0000

> <Gold.Chemscore.Lipo>
121.3386

> <Gold.Chemscore.Internal_Hbond>
0.0000

> <Gold.Chemscore.DEClash>
0.0918

> <Gold.Chemscore.DEInternal>
0.6866

> <Gold.Chemscore.Rot>
2.0686

> <Gold.Chemscore.Internal.Correction>
   9.000000E+99

> <Gold.Chemscore.Hbond.Weighted>
-0.0000

> <Gold.Chemscore.Metal.Weighted>
-0.0000

> <Gold.Chemscore.Lipo.Weighted>
-14.1966

> <Gold.Chemscore.Internal_Hbond.Weighted>
0.0000

> <Gold.Chemscore.DEClash.Weighted>
0.0918

> <Gold.Chemscore.DEInternal.Weighted>
0.6866

> <Gold.Chemscore.Rot.Weighted>
5.2957

> <Gold.Chemscore.Internal.Correction.Weighted>
   9.000000E+99

> <Gold.Protein.RotatedTorsions>
[ 6907 6896 6895 6894 ] final    3.10 input  -60.11 | X-H torsion
[ 7974 7965 7964 7962 ] final   99.54 input  175.53 | X-H torsion
[ 8008 7997 7996 7995 ] final  105.77 input   59.86 | X-H torsion
[ 10167 10162 10161 10158 ] final -122.37 input  -65.29 | X-H torsion
[ 10718 10713 10712 10709 ] final -117.83 input   66.30 | X-H torsion
[ 10763 10752 10751 10750 ] final  109.35 input  -60.55 | X-H torsion
[ 11005 11000 10999 10996 ] final -171.60 input  -57.11 | X-H torsion

> <Gold.Protein.ActiveResidues>
 VAL166  LYS551  ARG553  GLY616  TRP617  ASP618  TYR619  PRO620  LYS621  CYS622 
 ASP623  PHE694  ASN695  SER759  ASP760  ASP761  ALA762  ILE779  LEU786  VAL792 
 PHE793  MET794  SER795  GLU796  ALA797  LYS798  CYS799  TRP800  GLU811  SER814 

> <Gold.Protein.RotatedAtoms>
  151.6195  135.1033  160.0098 H   0  0  0  0  0  0  0  0  0  0  0  0  # atno 6907 bound_to 6896
  152.4165  133.7042  159.6452 H   0  0  0  0  0  0  0  0  0  0  0  0  # atno 6908 bound_to 6896
  150.8053  133.8448  159.3230 H   0  0  0  0  0  0  0  0  0  0  0  0  # atno 6909 bound_to 6896
  145.3975  139.2353  143.3318 H   0  0  0  0  0  0  0  0  0  0  0  0  # atno 7974 bound_to 7965
  156.1687  140.3124  155.8935 H   0  0  0  0  0  0  0  0  0  0  0  0  # atno 8008 bound_to 7997
  155.3632  140.0477  157.3063 H   0  0  0  0  0  0  0  0  0  0  0  0  # atno 8009 bound_to 7997
  154.5219  140.2201  155.8971 H   0  0  0  0  0  0  0  0  0  0  0  0  # atno 8010 bound_to 7997
  140.0150  143.5402  152.2246 H   0  0  0  0  0  0  0  0  0  0  0  0  # atno 10167 bound_to 10162
  156.1062  130.6212  150.9214 H   0  0  0  0  0  0  0  0  0  0  0  0  # atno 10718 bound_to 10713
  153.4335  135.3783  155.2185 H   0  0  0  0  0  0  0  0  0  0  0  0  # atno 10763 bound_to 10752
  154.8751  135.3845  154.4239 H   0  0  0  0  0  0  0  0  0  0  0  0  # atno 10764 bound_to 10752
  153.4775  135.7088  153.6020 H   0  0  0  0  0  0  0  0  0  0  0  0  # atno 10765 bound_to 10752
  140.5064  134.5844  157.5004 H   0  0  0  0  0  0  0  0  0  0  0  0  # atno 11005 bound_to 11000
  146.2768  140.4668  142.8792 LP  0  0  0  0  0  0  0  0  0  0  0  0  # atno 17320 bound_to 7965
  144.8397  140.6837  143.6237 LP  0  0  0  0  0  0  0  0  0  0  0  0  # atno 17321 bound_to 7965
  139.6179  144.7623  151.2806 LP  0  0  0  0  0  0  0  0  0  0  0  0  # atno 17342 bound_to 10162
  140.7366  143.6703  150.8087 LP  0  0  0  0  0  0  0  0  0  0  0  0  # atno 17343 bound_to 10162
  157.6239  131.0927  150.8571 LP  0  0  0  0  0  0  0  0  0  0  0  0  # atno 17370 bound_to 10713
  156.8689  130.5139  149.5298 LP  0  0  0  0  0  0  0  0  0  0  0  0  # atno 17371 bound_to 10713
  139.9684  134.7334  156.0091 LP  0  0  0  0  0  0  0  0  0  0  0  0  # atno 17394 bound_to 11000
  141.1409  133.6565  156.3726 LP  0  0  0  0  0  0  0  0  0  0  0  0  # atno 17395 bound_to 11000

$$$$
