AV-unprocessed.smi:1244|AV-procd|sdf|5235|dock3
  -GOLD-   22720 4343D 1   1.00000     0.00000
 Structure written by MMmdl.
 55 57  0  0  0  0  0  0  0  0  4 V2000
  145.7140  136.8817  150.8739 C   0  0  0  0  0  0  0  0  0  0  0  0
  144.9173  135.9678  151.8218 C   0  0  2  0  0  0  0  0  0  0  0  0
  145.4405  135.9801  153.2716 C   0  0  0  0  0  0  0  0  0  0  0  0
  146.7128  135.2276  153.3883 N   0  3  1  0  0  0  0  0  0  0  0  0
  147.2948  135.2860  154.7557 C   0  0  0  0  0  0  0  0  0  0  0  0
  147.2020  136.6987  155.3675 C   0  0  0  0  0  0  0  0  0  0  0  0
  147.8273  136.7120  156.6896 N   0  5  0  0  0  0  0  0  0  0  0  0
  148.8166  137.5620  157.0749 C   0  0  0  0  0  0  0  0  0  0  0  0
  149.7468  137.3337  157.8564 O   0  0  0  0  0  0  0  0  0  0  0  0
  148.6862  138.7728  156.5055 N   0  0  0  0  0  0  0  0  0  0  0  0
  149.4857  139.9390  156.6720 C   0  0  0  0  0  0  0  0  0  0  0  0
  150.7487  139.8826  157.3149 C   0  0  0  0  0  0  0  0  0  0  0  0
  151.5067  141.0569  157.4806 C   0  0  0  0  0  0  0  0  0  0  0  0
  150.9938  142.2710  156.9940 C   0  0  0  0  0  0  0  0  0  0  0  0
  149.8007  142.2883  156.3648 N   0  3  0  0  0  0  0  0  0  0  0  0
  149.0307  141.1898  156.1611 C   0  0  0  0  0  0  0  0  0  0  0  0
  147.8102  141.3623  155.4678 N   0  0  0  0  0  0  0  0  0  0  0  0
  146.7032  142.0829  156.0859 C   0  0  0  0  0  0  0  0  0  0  0  0
  145.7260  142.3611  154.9468 C   0  0  0  0  0  0  0  0  0  0  0  0
  146.6594  142.5887  153.7616 C   0  0  0  0  0  0  0  0  0  0  0  0
  147.8308  141.6395  154.0349 C   0  0  0  0  0  0  0  0  0  0  0  0
  146.5385  133.8483  152.8651 C   0  0  0  0  0  0  0  0  0  0  0  0
  146.0488  133.8871  151.4072 C   0  0  1  0  0  0  0  0  0  0  0  0
  145.7782  132.4834  150.8546 C   0  0  0  0  0  0  0  0  0  0  0  0
  144.8331  134.6278  151.3362 O   0  0  0  0  0  0  0  0  0  0  0  0
  145.6485  137.9215  151.1952 H   0  0  0  0  0  0  0  0  0  0  0  0
  145.3202  136.8259  149.8589 H   0  0  0  0  0  0  0  0  0  0  0  0
  146.7716  136.6212  150.8381 H   0  0  0  0  0  0  0  0  0  0  0  0
  143.8950  136.3468  151.8364 H   0  0  0  0  0  0  0  0  0  0  0  0
  145.5792  137.0095  153.6050 H   0  0  0  0  0  0  0  0  0  0  0  0
  144.7006  135.5296  153.9353 H   0  0  0  0  0  0  0  0  0  0  0  0
  146.7529  134.6008  155.4099 H   0  0  0  0  0  0  0  0  0  0  0  0
  148.3268  134.9317  154.7388 H   0  0  0  0  0  0  0  0  0  0  0  0
  147.6929  137.4060  154.6993 H   0  0  0  0  0  0  0  0  0  0  0  0
  146.1563  137.0086  155.3952 H   0  0  0  0  0  0  0  0  0  0  0  0
  147.8438  138.8987  155.9644 H   0  0  0  0  0  0  0  0  0  0  0  0
  151.1529  138.9509  157.6803 H   0  0  0  0  0  0  0  0  0  0  0  0
  152.4666  141.0246  157.9748 H   0  0  0  0  0  0  0  0  0  0  0  0
  151.5015  143.2208  157.0781 H   0  0  0  0  0  0  0  0  0  0  0  0
  146.2414  141.4976  156.8818 H   0  0  0  0  0  0  0  0  0  0  0  0
  147.0513  143.0264  156.5084 H   0  0  0  0  0  0  0  0  0  0  0  0
  145.1029  141.4838  154.7665 H   0  0  0  0  0  0  0  0  0  0  0  0
  145.0706  143.2094  155.1456 H   0  0  0  0  0  0  0  0  0  0  0  0
  146.1808  142.4042  152.7995 H   0  0  0  0  0  0  0  0  0  0  0  0
  147.0136  143.6205  153.7682 H   0  0  0  0  0  0  0  0  0  0  0  0
  148.7774  142.0757  153.7125 H   0  0  0  0  0  0  0  0  0  0  0  0
  147.6857  140.7032  153.4945 H   0  0  0  0  0  0  0  0  0  0  0  0
  147.4807  133.3020  152.9174 H   0  0  0  0  0  0  0  0  0  0  0  0
  145.8242  133.3093  153.4900 H   0  0  0  0  0  0  0  0  0  0  0  0
  146.8052  134.3567  150.7783 H   0  0  0  0  0  0  0  0  0  0  0  0
  146.6805  131.8719  150.8766 H   0  0  0  0  0  0  0  0  0  0  0  0
  145.4353  132.5312  149.8207 H   0  0  0  0  0  0  0  0  0  0  0  0
  145.0118  131.9703  151.4363 H   0  0  0  0  0  0  0  0  0  0  0  0
  147.3741  135.6958  152.7849 H   0  0  0  0  0  0  0  0  0  0  0  0
  149.4605  143.1826  156.0119 H   0  0  0  0  0  0  0  0  0  0  0  0
  1  2  1  0  0  0  0
  1 26  1  0  0  0  0
  1 27  1  0  0  0  0
  1 28  1  0  0  0  0
  2 25  1  0  0  0  0
  2  3  1  0  0  0  0
  2 29  1  0  0  0  0
  3  4  1  0  0  0  0
  3 30  1  0  0  0  0
  3 31  1  0  0  0  0
  4  5  1  0  0  0  0
  4 22  1  0  0  0  0
  4 54  1  0  0  0  0
  5  6  1  0  0  0  0
  5 32  1  0  0  0  0
  5 33  1  0  0  0  0
  6  7  1  0  0  0  0
  6 34  1  0  0  0  0
  6 35  1  0  0  0  0
  7  8  1  0  0  0  0
  8  9  2  0  0  0  0
  8 10  1  0  0  0  0
 10 11  1  0  0  0  0
 10 36  1  0  0  0  0
 11 16  1  0  0  0  0
 11 12  2  0  0  0  0
 12 13  1  0  0  0  0
 12 37  1  0  0  0  0
 13 14  2  0  0  0  0
 13 38  1  0  0  0  0
 14 15  1  0  0  0  0
 14 39  1  0  0  0  0
 15 16  2  0  0  0  0
 15 55  1  0  0  0  0
 16 17  1  0  0  0  0
 17 21  1  0  0  0  0
 17 18  1  0  0  0  0
 18 19  1  0  0  0  0
 18 40  1  0  0  0  0
 18 41  1  0  0  0  0
 19 20  1  0  0  0  0
 19 42  1  0  0  0  0
 19 43  1  0  0  0  0
 20 21  1  0  0  0  0
 20 44  1  0  0  0  0
 20 45  1  0  0  0  0
 21 46  1  0  0  0  0
 21 47  1  0  0  0  0
 22 23  1  0  0  0  0
 22 48  1  0  0  0  0
 22 49  1  0  0  0  0
 23 24  1  0  0  0  0
 23 25  1  0  0  0  0
 23 50  1  0  0  0  0
 24 51  1  0  0  0  0
 24 52  1  0  0  0  0
 24 53  1  0  0  0  0
M  CHG  1   4   1
M  CHG  1   7  -1
M  CHG  1  15   1
M  END
> <s_m_source_file>
AV-unprocessed.smi

> <i_m_source_file_index>
1244

> <i_lp_mmshare_version>
43012

> <i_f3d_flags>
0

> <s_epik_input>
W0NIM11bQ0BASF0xW0NIMl1OKFtDSDJdW0NASF0oTzEpW0NIM10pW0NIMl1bQ0gyXVtOSF1DKD1PKVtOSF1jMltjSF1bY0hdW2NIXW5jMk4zW0NIMl1bQ0gyXVtDSDJdW0NIMl0z

> <s_epik_cmdline>
J2VwaWtfcHl0aG9uJywgJy1waCcsICc3LjAnLCAnLXRuJywgJzgnLCAnLW1hJywgJzIwMCcsICctbWV0YWxfYmluZGluZycsICctaW1hZScsICc8aW5maWxlLm1hZT4nLCAnLW9tYWUnLCAnPG91dGZpbGUubWFlPic=

> <r_lp_tautomer_probability>
0.999994

> <r_epik_Ionization_Penalty>
8.60539

> <r_epik_Ionization_Penalty_Charging>
8.60539

> <r_epik_Ionization_Penalty_Neutral>
3.60441e-06

> <r_epik_State_Penalty>
8.59967

> <r_epik_Charging_Adjusted_Penalty>
17.2051

> <i_epik_Tot_Q>
1

> <i_epik_Tot_abs_Q>
3

> <r_epik_Metal_State_Penalty>
4.59489

> <b_epik_Metal_Only>
1

> <s_lp_Force_Field>
OPLS_2005

> <r_lp_Energy>
46.9863

> <b_lp_Chiralities_Consistent>
1

> <s_lp_Variant>
AV-unprocessed.smi:1244-15

> <Gold.Version>
5.8.1

> <Gold.Id.Protein>
6NUR|6NUR_protein|mol2

> <Gold.PLP.Fitness>
43.9648

> <Gold.PLP.PLP>
-32.6638

> <Gold.PLP.part.hbond>
-2.0000

> <Gold.PLP.part.metal>
0.0000

> <Gold.PLP.part.buried>
-3.4151

> <Gold.PLP.part.nonpolar>
-27.7796

> <Gold.PLP.part.repulsive>
0.3299

> <Gold.PLP.ligand.clash>
0.0000

> <Gold.PLP.ligand.torsion>
0.5931

> <Gold.PLP.Chemscore.Hbond>
4.0000

> <Gold.PLP.Chemscore.CHOScore>
0.0000

> <Gold.PLP.Chemscore.Metal>
0.0000

> <Gold.Chemscore.Hbonds>
donor molecule, donor type, donor heavy atom, donor atom, acceptor molecule, acceptor atom, score
      L1  H     4    54       P1  7948  2.00
      L1  H    15    55       P1  8028  2.00

> <Gold.PLP.Chemscore.Internal.Correction>
0.4873

> <Gold.Rescore>
     Score         DG    S(hbond)    S(metal)    S(lipo)     H(rot)  DE(clash)    DE(int)     intcor
     15.20     -17.62       2.00        0.00      81.66       1.60       0.42       2.00       ----

> <Gold.Chemscore.Fitness>
15.2032

> <Gold.Chemscore.DG>
-17.6234

> <Gold.Chemscore.ZeroCoef>
-5.4800

> <Gold.Chemscore.Hbond>
2.0000

> <Gold.Chemscore.Metal>
0.0000

> <Gold.Chemscore.Lipo>
81.6575

> <Gold.Chemscore.Internal_Hbond>
0.0000

> <Gold.Chemscore.DEClash>
0.4222

> <Gold.Chemscore.DEInternal>
1.9980

> <Gold.Chemscore.Rot>
1.5978

> <Gold.Chemscore.Internal.Correction>
   9.000000E+99

> <Gold.Chemscore.Hbonds>
donor molecule, donor type, donor heavy atom, donor atom, acceptor molecule, acceptor atom, score
      L1  H     4    54       P1  7948  1.00
      L1  H    15    55       P1  8028  1.00

> <Gold.Chemscore.Hbond.Weighted>
-6.6800

> <Gold.Chemscore.Metal.Weighted>
-0.0000

> <Gold.Chemscore.Lipo.Weighted>
-9.5539

> <Gold.Chemscore.Internal_Hbond.Weighted>
0.0000

> <Gold.Chemscore.DEClash.Weighted>
0.4222

> <Gold.Chemscore.DEInternal.Weighted>
1.9980

> <Gold.Chemscore.Rot.Weighted>
4.0905

> <Gold.Chemscore.Internal.Correction.Weighted>
   9.000000E+99

> <Gold.Protein.RotatedTorsions>
[ 6907 6896 6895 6894 ] final   37.53 input  -60.11 | X-H torsion
[ 7974 7965 7964 7962 ] final  148.50 input  175.53 | X-H torsion
[ 8008 7997 7996 7995 ] final   13.09 input   59.86 | X-H torsion
[ 10167 10162 10161 10158 ] final  -15.29 input  -65.29 | X-H torsion
[ 10718 10713 10712 10709 ] final  -88.62 input   66.30 | X-H torsion
[ 10763 10752 10751 10750 ] final -106.88 input  -60.55 | X-H torsion
[ 11005 11000 10999 10996 ] final  122.25 input  -57.11 | X-H torsion

> <Gold.Protein.ActiveResidues>
 VAL166  LYS551  ARG553  GLY616  TRP617  ASP618  TYR619  PRO620  LYS621  CYS622 
 ASP623  PHE694  ASN695  SER759  ASP760  ASP761  ALA762  ILE779  LEU786  VAL792 
 PHE793  MET794  SER795  GLU796  ALA797  LYS798  CYS799  TRP800  GLU811  SER814 

> <Gold.Protein.RotatedAtoms>
  152.1444  134.9037  160.0551 H   0  0  0  0  0  0  0  0  0  0  0  0  # atno 6907 bound_to 6896
  152.0092  133.3850  159.4221 H   0  0  0  0  0  0  0  0  0  0  0  0  # atno 6908 bound_to 6896
  150.6868  134.3670  159.5019 H   0  0  0  0  0  0  0  0  0  0  0  0  # atno 6909 bound_to 6896
  144.8509  139.6161  143.5974 H   0  0  0  0  0  0  0  0  0  0  0  0  # atno 7974 bound_to 7965
  154.8296  140.2897  155.5731 H   0  0  0  0  0  0  0  0  0  0  0  0  # atno 8008 bound_to 7997
  156.3004  140.2534  156.3150 H   0  0  0  0  0  0  0  0  0  0  0  0  # atno 8009 bound_to 7997
  154.9246  140.0385  157.2005 H   0  0  0  0  0  0  0  0  0  0  0  0  # atno 8010 bound_to 7997
  140.7216  143.5233  150.9607 H   0  0  0  0  0  0  0  0  0  0  0  0  # atno 10167 bound_to 10162
  155.9983  130.4842  150.5047 H   0  0  0  0  0  0  0  0  0  0  0  0  # atno 10718 bound_to 10713
  154.8040  135.4695  154.0347 H   0  0  0  0  0  0  0  0  0  0  0  0  # atno 10763 bound_to 10752
  153.1830  135.6843  153.8460 H   0  0  0  0  0  0  0  0  0  0  0  0  # atno 10764 bound_to 10752
  153.8004  135.3231  155.3367 H   0  0  0  0  0  0  0  0  0  0  0  0  # atno 10765 bound_to 10752
  139.9260  134.9641  156.8080 H   0  0  0  0  0  0  0  0  0  0  0  0  # atno 11005 bound_to 11000
  146.2784  139.6813  142.9246 LP  0  0  0  0  0  0  0  0  0  0  0  0  # atno 17320 bound_to 7965
  145.4501  141.0428  143.2809 LP  0  0  0  0  0  0  0  0  0  0  0  0  # atno 17321 bound_to 7965
  139.8951  143.6904  152.3139 LP  0  0  0  0  0  0  0  0  0  0  0  0  # atno 17342 bound_to 10162
  139.7234  144.7598  151.0918 LP  0  0  0  0  0  0  0  0  0  0  0  0  # atno 17343 bound_to 10162
  157.3027  131.0648  151.2057 LP  0  0  0  0  0  0  0  0  0  0  0  0  # atno 17370 bound_to 10713
  157.3030  130.6852  149.6174 LP  0  0  0  0  0  0  0  0  0  0  0  0  # atno 17371 bound_to 10713
  140.6335  133.9884  155.7673 LP  0  0  0  0  0  0  0  0  0  0  0  0  # atno 17394 bound_to 11000
  141.0818  134.0051  157.3375 LP  0  0  0  0  0  0  0  0  0  0  0  0  # atno 17395 bound_to 11000

$$$$
