AV-unprocessed.smi:2629|AV-procd|sdf|10244|dock2
  -GOLD-   2272014253D 1   1.00000     0.00000
 Structure written by MMmdl.
 24 25  0  0  0  0  0  0  0  0  3 V2000
  151.9417  137.5120  154.1298 O   0  0  0  0  0  0  0  0  0  0  0  0
  151.8222  138.3879  154.9832 C   0  0  0  0  0  0  0  0  0  0  0  0
  150.7615  139.4506  154.8316 N   0  0  0  0  0  0  0  0  0  0  0  0
  150.6537  140.3392  155.7129 N   0  3  0  0  0  0  0  0  0  0  0  0
  151.4673  140.4455  156.8878 C   0  0  0  0  0  0  0  0  0  0  0  0
  151.2512  141.4735  157.7861 N   0  0  0  0  0  0  0  0  0  0  0  0
  150.5625  142.7007  157.4193 C   0  0  0  0  0  0  0  0  0  0  0  0
  151.5591  143.8722  157.3801 C   0  0  0  0  0  0  0  0  0  0  0  0
  152.2274  143.9724  158.6348 O   0  0  0  0  0  0  0  0  0  0  0  0
  152.9590  142.7914  158.9525 C   0  0  0  0  0  0  0  0  0  0  0  0
  151.9963  141.5937  159.0292 C   0  0  0  0  0  0  0  0  0  0  0  0
  152.4455  139.4738  157.0385 C   0  0  0  0  0  0  0  0  0  0  0  0
  153.3210  139.2369  157.8995 O   0  5  0  0  0  0  0  0  0  0  0  0
  152.5936  138.4728  156.0811 N   0  0  0  0  0  0  0  0  0  0  0  0
  149.9308  141.0378  155.5790 H   0  0  0  0  0  0  0  0  0  0  0  0
  149.7762  142.8968  158.1489 H   0  0  0  0  0  0  0  0  0  0  0  0
  150.0762  142.5825  156.4502 H   0  0  0  0  0  0  0  0  0  0  0  0
  152.2871  143.7354  156.5788 H   0  0  0  0  0  0  0  0  0  0  0  0
  151.0351  144.8067  157.1796 H   0  0  0  0  0  0  0  0  0  0  0  0
  153.7339  142.6189  158.2039 H   0  0  0  0  0  0  0  0  0  0  0  0
  153.4637  142.9313  159.9085 H   0  0  0  0  0  0  0  0  0  0  0  0
  152.5488  140.6741  159.2256 H   0  0  0  0  0  0  0  0  0  0  0  0
  151.2930  141.7250  159.8522 H   0  0  0  0  0  0  0  0  0  0  0  0
  153.3197  137.7882  156.2353 H   0  0  0  0  0  0  0  0  0  0  0  0
  1  2  2  0  0  0  0
  2 14  1  0  0  0  0
  2  3  1  0  0  0  0
  3  4  2  0  0  0  0
  4 15  1  0  0  0  0
  4  5  1  0  0  0  0
  5 12  2  0  0  0  0
  5  6  1  0  0  0  0
  6 11  1  0  0  0  0
  6  7  1  0  0  0  0
  7  8  1  0  0  0  0
  7 16  1  0  0  0  0
  7 17  1  0  0  0  0
  8  9  1  0  0  0  0
  8 18  1  0  0  0  0
  8 19  1  0  0  0  0
  9 10  1  0  0  0  0
 10 11  1  0  0  0  0
 10 20  1  0  0  0  0
 10 21  1  0  0  0  0
 11 22  1  0  0  0  0
 11 23  1  0  0  0  0
 12 13  1  0  0  0  0
 12 14  1  0  0  0  0
 14 24  1  0  0  0  0
M  CHG  1   4   1
M  CHG  1  13  -1
M  END
> <s_m_source_file>
AV-unprocessed.smi

> <i_m_source_file_index>
2629

> <i_lp_mmshare_version>
43012

> <i_f3d_flags>
0

> <s_epik_input>
Tz1jMVtuSF1uYyhjKD1PKVtuSF0xKU4yW0NIMl1bQ0gyXU9bQ0gyXVtDSDJdMg==

> <s_epik_cmdline>
J2VwaWtfcHl0aG9uJywgJy1waCcsICc3LjAnLCAnLXRuJywgJzgnLCAnLW1hJywgJzIwMCcsICctbWV0YWxfYmluZGluZycsICctaW1hZScsICc8aW5maWxlLm1hZT4nLCAnLW9tYWUnLCAnPG91dGZpbGUubWFlPic=

> <r_lp_tautomer_probability>
1

> <r_epik_Ionization_Penalty>
6.1095

> <r_epik_Ionization_Penalty_Charging>
6.1095

> <r_epik_Ionization_Penalty_Neutral>
3.71443e-10

> <r_epik_State_Penalty>
-0

> <r_epik_Charging_Adjusted_Penalty>
6.1095

> <i_epik_Tot_Q>
0

> <i_epik_Tot_abs_Q>
2

> <r_epik_Metal_State_Penalty>
6.62767

> <b_epik_Metal_Only>
0

> <s_lp_Force_Field>
OPLS_2005

> <r_lp_Energy>
17.9127

> <b_lp_Chiralities_Consistent>
1

> <s_lp_Variant>
AV-unprocessed.smi:2629-1

> <Gold.Version>
5.8.1

> <Gold.Id.Protein>
6NUR|6NUR_protein|mol2

> <Gold.PLP.Fitness>
31.7148

> <Gold.PLP.PLP>
-22.2471

> <Gold.PLP.part.hbond>
-2.5188

> <Gold.PLP.part.metal>
0.0000

> <Gold.PLP.part.buried>
-2.9946

> <Gold.PLP.part.nonpolar>
-16.7699

> <Gold.PLP.part.repulsive>
0.5412

> <Gold.PLP.ligand.clash>
0.0000

> <Gold.PLP.ligand.torsion>
0.0998

> <Gold.PLP.Chemscore.Hbond>
3.1984

> <Gold.PLP.Chemscore.CHOScore>
0.0000

> <Gold.PLP.Chemscore.Metal>
0.0000

> <Gold.Chemscore.Hbonds>
donor molecule, donor type, donor heavy atom, donor atom, acceptor molecule, acceptor atom, score
      P1  H  7989  7998       L1     3  0.41
      P1  H  7997  8009       L1    13  1.89
      P1  H 10752 10763       L1     1  0.76

> <Gold.PLP.Chemscore.Internal.Correction>
0.0720

> <Gold.Rescore>
     Score         DG    S(hbond)    S(metal)    S(lipo)     H(rot)  DE(clash)    DE(int)     intcor
     14.31     -15.74       1.76        0.00      37.40       0.00       0.09       1.35       ----

> <Gold.Chemscore.Fitness>
14.3051

> <Gold.Chemscore.DG>
-15.7433

> <Gold.Chemscore.ZeroCoef>
-5.4800

> <Gold.Chemscore.Hbond>
1.7627

> <Gold.Chemscore.Metal>
0.0000

> <Gold.Chemscore.Lipo>
37.4014

> <Gold.Chemscore.Internal_Hbond>
0.0000

> <Gold.Chemscore.DEClash>
0.0901

> <Gold.Chemscore.DEInternal>
1.3480

> <Gold.Chemscore.Rot>
0.0000

> <Gold.Chemscore.Internal.Correction>
   9.000000E+99

> <Gold.Chemscore.Hbonds>
donor molecule, donor type, donor heavy atom, donor atom, acceptor molecule, acceptor atom, score
      P1  H  7989  7998       L1     3  0.01
      P1  H  7997  8009       L1    13  0.41
      P1  H 10752 10763       L1     1  0.72

> <Gold.Chemscore.Hbond.Weighted>
-5.8873

> <Gold.Chemscore.Metal.Weighted>
-0.0000

> <Gold.Chemscore.Lipo.Weighted>
-4.3760

> <Gold.Chemscore.Internal_Hbond.Weighted>
0.0000

> <Gold.Chemscore.DEClash.Weighted>
0.0901

> <Gold.Chemscore.DEInternal.Weighted>
1.3480

> <Gold.Chemscore.Rot.Weighted>
0.0000

> <Gold.Chemscore.Internal.Correction.Weighted>
   9.000000E+99

> <Gold.Protein.RotatedTorsions>
[ 6907 6896 6895 6894 ] final  105.50 input  -60.11 | X-H torsion
[ 7974 7965 7964 7962 ] final    9.52 input  175.53 | X-H torsion
[ 8008 7997 7996 7995 ] final  134.56 input   59.86 | X-H torsion
[ 10167 10162 10161 10158 ] final -121.88 input  -65.29 | X-H torsion
[ 10718 10713 10712 10709 ] final   47.66 input   66.30 | X-H torsion
[ 10763 10752 10751 10750 ] final   40.92 input  -60.55 | X-H torsion
[ 11005 11000 10999 10996 ] final   -2.54 input  -57.11 | X-H torsion

> <Gold.Protein.ActiveResidues>
 VAL166  LYS551  ARG553  GLY616  TRP617  ASP618  TYR619  PRO620  LYS621  CYS622 
 ASP623  PHE694  ASN695  SER759  ASP760  ASP761  ALA762  ILE779  LEU786  VAL792 
 PHE793  MET794  SER795  GLU796  ALA797  LYS798  CYS799  TRP800  GLU811  SER814 

> <Gold.Protein.RotatedAtoms>
  152.5228  133.9519  159.7675 H   0  0  0  0  0  0  0  0  0  0  0  0  # atno 6907 bound_to 6896
  150.9827  133.6220  159.2727 H   0  0  0  0  0  0  0  0  0  0  0  0  # atno 6908 bound_to 6896
  151.3392  135.0865  159.9418 H   0  0  0  0  0  0  0  0  0  0  0  0  # atno 6909 bound_to 6896
  146.2402  139.9771  142.8440 H   0  0  0  0  0  0  0  0  0  0  0  0  # atno 7974 bound_to 7965
  156.2999  140.2493  156.3438 H   0  0  0  0  0  0  0  0  0  0  0  0  # atno 8008 bound_to 7997
  154.9030  140.0405  157.1923 H   0  0  0  0  0  0  0  0  0  0  0  0  # atno 8009 bound_to 7997
  154.8481  140.2901  155.5620 H   0  0  0  0  0  0  0  0  0  0  0  0  # atno 8010 bound_to 7997
  140.0202  143.5352  152.2224 H   0  0  0  0  0  0  0  0  0  0  0  0  # atno 10167 bound_to 10162
  157.4607  130.8195  149.7884 H   0  0  0  0  0  0  0  0  0  0  0  0  # atno 10718 bound_to 10713
  152.9922  135.6177  154.2704 H   0  0  0  0  0  0  0  0  0  0  0  0  # atno 10763 bound_to 10752
  154.2437  135.2787  155.2845 H   0  0  0  0  0  0  0  0  0  0  0  0  # atno 10764 bound_to 10752
  154.5347  135.5778  153.6846 H   0  0  0  0  0  0  0  0  0  0  0  0  # atno 10765 bound_to 10752
  140.6595  133.9333  155.8427 H   0  0  0  0  0  0  0  0  0  0  0  0  # atno 11005 bound_to 11000
  145.1626  140.9681  143.4368 LP  0  0  0  0  0  0  0  0  0  0  0  0  # atno 17320 bound_to 7965
  145.0102  139.3517  143.6124 LP  0  0  0  0  0  0  0  0  0  0  0  0  # atno 17321 bound_to 7965
  139.6145  144.7616  151.2878 LP  0  0  0  0  0  0  0  0  0  0  0  0  # atno 17342 bound_to 10162
  140.7345  143.6763  150.8039 LP  0  0  0  0  0  0  0  0  0  0  0  0  # atno 17343 bound_to 10162
  156.0027  130.3871  150.2544 LP  0  0  0  0  0  0  0  0  0  0  0  0  # atno 17370 bound_to 10713
  157.0721  131.0119  151.3186 LP  0  0  0  0  0  0  0  0  0  0  0  0  # atno 17371 bound_to 10713
  141.0476  134.0531  157.3824 LP  0  0  0  0  0  0  0  0  0  0  0  0  # atno 17394 bound_to 11000
  139.9018  135.0167  156.7303 LP  0  0  0  0  0  0  0  0  0  0  0  0  # atno 17395 bound_to 11000

$$$$
