AV-unprocessed.smi:54|AV-procd|sdf|546|dock2
  -GOLD-   2262016443D 1   1.00000     0.00000
 Structure written by MMmdl.
 43 45  0  0  0  0  0  0  0  0  2 V2000
  145.9873  135.5989  161.4923 C   0  0  0  0  0  0  0  0  0  0  0  0
  146.8022  135.4232  160.2002 C   0  0  0  0  0  0  0  0  0  0  0  0
  147.3143  133.9804  160.0548 C   0  0  0  0  0  0  0  0  0  0  0  0
  147.9669  136.4225  160.1531 C   0  0  0  0  0  0  0  0  0  0  0  0
  148.1379  137.1907  161.1022 O   0  0  0  0  0  0  0  0  0  0  0  0
  148.7174  136.3816  159.0305 N   0  0  0  0  0  0  0  0  0  0  0  0
  149.8208  137.1680  158.6828 C   0  0  0  0  0  0  0  0  0  0  0  0
  149.6402  137.8475  157.5773 N   0  0  0  0  0  0  0  0  0  0  0  0
  150.7412  138.6056  157.2288 C   0  0  0  0  0  0  0  0  0  0  0  0
  151.9355  138.6937  157.8910 C   0  0  0  0  0  0  0  0  0  0  0  0
  152.8110  139.5609  157.2492 N   0  0  0  0  0  0  0  0  0  0  0  0
  152.0873  139.9657  156.2075 C   0  0  0  0  0  0  0  0  0  0  0  0
  150.8457  139.4482  156.1236 N   0  0  0  0  0  0  0  0  0  0  0  0
  149.8399  139.7507  155.0521 C   0  0  1  0  0  0  0  0  0  0  0  0
  148.6307  139.1182  155.3586 O   0  0  0  0  0  0  0  0  0  0  0  0
  147.5824  140.0769  155.5022 C   0  0  2  0  0  0  0  0  0  0  0  0
  146.2492  139.4588  155.0543 C   0  0  0  0  0  0  0  0  0  0  0  0
  146.2017  139.3726  153.6461 O   0  0  0  0  0  0  0  0  0  0  0  0
  148.0552  141.2266  154.6110 C   0  0  1  0  0  0  0  0  0  0  0  0
  147.4196  142.4578  154.8958 O   0  0  0  0  0  0  0  0  0  0  0  0
  149.5517  141.2554  154.8860 C   0  0  1  0  0  0  0  0  0  0  0  0
  149.8766  142.0314  156.0298 O   0  0  0  0  0  0  0  0  0  0  0  0
  152.0798  137.8873  159.1260 C   0  0  0  0  0  0  0  0  0  0  0  0
  153.1383  137.9327  159.7500 O   0  0  0  0  0  0  0  0  0  0  0  0
  150.9882  137.1414  159.4716 N   0  5  0  0  0  0  0  0  0  0  0  0
  150.2515  139.2981  154.1489 H   0  0  0  0  0  0  0  0  0  0  0  0
  147.5285  140.4178  156.5373 H   0  0  0  0  0  0  0  0  0  0  0  0
  147.8846  140.9716  153.5640 H   0  0  0  0  0  0  0  0  0  0  0  0
  150.1129  141.6446  154.0360 H   0  0  0  0  0  0  0  0  0  0  0  0
  145.6186  136.6206  161.5919 H   0  0  0  0  0  0  0  0  0  0  0  0
  146.5831  135.3718  162.3774 H   0  0  0  0  0  0  0  0  0  0  0  0
  145.1211  134.9371  161.4990 H   0  0  0  0  0  0  0  0  0  0  0  0
  146.1391  135.6261  159.3573 H   0  0  0  0  0  0  0  0  0  0  0  0
  147.9029  133.8583  159.1446 H   0  0  0  0  0  0  0  0  0  0  0  0
  146.4835  133.2763  160.0031 H   0  0  0  0  0  0  0  0  0  0  0  0
  147.9414  133.6893  160.8986 H   0  0  0  0  0  0  0  0  0  0  0  0
  148.3847  135.7461  158.3205 H   0  0  0  0  0  0  0  0  0  0  0  0
  152.4719  140.6665  155.4812 H   0  0  0  0  0  0  0  0  0  0  0  0
  146.1544  138.4457  155.4460 H   0  0  0  0  0  0  0  0  0  0  0  0
  145.4008  140.0318  155.4294 H   0  0  0  0  0  0  0  0  0  0  0  0
  145.3244  139.5787  153.3622 H   0  0  0  0  0  0  0  0  0  0  0  0
  148.0878  143.0851  155.1284 H   0  0  0  0  0  0  0  0  0  0  0  0
  149.5671  142.9141  155.8950 H   0  0  0  0  0  0  0  0  0  0  0  0
  1  2  1  0  0  0  0
  1 30  1  0  0  0  0
  1 31  1  0  0  0  0
  1 32  1  0  0  0  0
  2  3  1  0  0  0  0
  2  4  1  0  0  0  0
  2 33  1  0  0  0  0
  3 34  1  0  0  0  0
  3 35  1  0  0  0  0
  3 36  1  0  0  0  0
  4  5  2  0  0  0  0
  4  6  1  0  0  0  0
  6 37  1  0  0  0  0
  6  7  1  0  0  0  0
  7 25  1  0  0  0  0
  7  8  2  0  0  0  0
  8  9  1  0  0  0  0
  9 13  1  0  0  0  0
  9 10  2  0  0  0  0
 10 11  1  0  0  0  0
 10 23  1  0  0  0  0
 11 12  2  0  0  0  0
 12 13  1  0  0  0  0
 12 38  1  0  0  0  0
 13 14  1  0  0  0  0
 14 26  1  0  0  0  0
 14 21  1  0  0  0  0
 14 15  1  0  0  0  0
 15 16  1  0  0  0  0
 16 27  1  0  0  0  0
 16 17  1  0  0  0  0
 16 19  1  0  0  0  0
 17 18  1  0  0  0  0
 17 39  1  0  0  0  0
 17 40  1  0  0  0  0
 18 41  1  0  0  0  0
 19 28  1  0  0  0  0
 19 20  1  0  0  0  0
 19 21  1  0  0  0  0
 20 42  1  0  0  0  0
 21 29  1  0  0  0  0
 21 22  1  0  0  0  0
 22 43  1  0  0  0  0
 23 24  2  0  0  0  0
 23 25  1  0  0  0  0
M  CHG  1  25  -1
M  END
> <s_m_source_file>
AV-unprocessed.smi

> <i_m_source_file_index>
54

> <i_lp_mmshare_version>
43012

> <i_f3d_flags>
0

> <s_epik_input>
W0NIM11bQ0hdKFtDSDNdKUMoPU8pW05IXWMobjEpW25IXWMoPU8pYyhjMTIpbltjSF1uMltDQEBIXTNPW0NASF0oW0NIMl1bT0hdKVtDQEBIXShbT0hdKVtDQEhdM1tPSF0=

> <s_epik_cmdline>
J2VwaWtfcHl0aG9uJywgJy1waCcsICc3LjAnLCAnLXRuJywgJzgnLCAnLW1hJywgJzIwMCcsICctbWV0YWxfYmluZGluZycsICctaW1hZScsICc8aW5maWxlLm1hZT4nLCAnLW9tYWUnLCAnPG91dGZpbGUubWFlPic=

> <r_lp_tautomer_probability>
0.85571

> <r_epik_Ionization_Penalty>
1.75936

> <r_epik_Ionization_Penalty_Charging>
4.55893e-11

> <r_epik_Ionization_Penalty_Neutral>
1.75936

> <r_epik_State_Penalty>
1.72072

> <r_epik_Charging_Adjusted_Penalty>
1.72072

> <i_epik_Tot_Q>
-1

> <i_epik_Tot_abs_Q>
1

> <r_epik_Metal_State_Penalty>
0.400338

> <b_epik_Metal_Only>
1

> <s_epik_Chemistry_Notes>
This compound contains an acetal/aminal-like group ( X-CH(R)-Y where X, Y are N, S, or O) that may be acid/base labile, releasing an aldehyde.

> <s_lp_Force_Field>
OPLS_2005

> <r_lp_Energy>
68.5195

> <b_lp_Chiralities_Consistent>
1

> <s_lp_Variant>
AV-unprocessed.smi:54-18

> <Gold.Version>
5.8.1

> <Gold.Id.Protein>
6NUR|6NUR_protein|mol2

> <Gold.PLP.Fitness>
50.9130

> <Gold.PLP.PLP>
-29.4806

> <Gold.PLP.part.hbond>
-6.9941

> <Gold.PLP.part.metal>
0.0000

> <Gold.PLP.part.buried>
-4.7522

> <Gold.PLP.part.nonpolar>
-18.3109

> <Gold.PLP.part.repulsive>
0.1965

> <Gold.PLP.ligand.clash>
0.0000

> <Gold.PLP.ligand.torsion>
0.7797

> <Gold.PLP.Chemscore.Hbond>
7.6453

> <Gold.PLP.Chemscore.CHOScore>
0.0000

> <Gold.PLP.Chemscore.Metal>
0.0000

> <Gold.Chemscore.Hbonds>
donor molecule, donor type, donor heavy atom, donor atom, acceptor molecule, acceptor atom, score
      L1  H    18    41       P1 10175  0.89
      L1  H    20    42       P1  8028  1.00
      L1  H    22    43       P1  8028  1.00
      P1  H  6896  6908       L1    25  1.82
      P1  H  6931  6943       L1     5  1.00
      P1  H  6934  6947       L1     5  0.60
      P1  H  7997  8010       L1    11  1.00

> <Gold.PLP.Chemscore.Internal.Correction>
0.0560

> <Gold.Rescore>
     Score         DG    S(hbond)    S(metal)    S(lipo)     H(rot)  DE(clash)    DE(int)     intcor
     16.38     -19.43       6.04        0.00      34.65       4.02       0.03       3.03       ----

> <Gold.Chemscore.Fitness>
16.3761

> <Gold.Chemscore.DG>
-19.4339

> <Gold.Chemscore.ZeroCoef>
-5.4800

> <Gold.Chemscore.Hbond>
6.0445

> <Gold.Chemscore.Metal>
0.0000

> <Gold.Chemscore.Lipo>
34.6549

> <Gold.Chemscore.Internal_Hbond>
0.0000

> <Gold.Chemscore.DEClash>
0.0291

> <Gold.Chemscore.DEInternal>
3.0286

> <Gold.Chemscore.Rot>
4.0192

> <Gold.Chemscore.Internal.Correction>
   9.000000E+99

> <Gold.Chemscore.Hbonds>
donor molecule, donor type, donor heavy atom, donor atom, acceptor molecule, acceptor atom, score
      L1  H    18    41       P1 10175  0.87
      L1  H    20    42       P1  8028  0.92
      L1  H    22    43       P1  8028  0.99
      P1  H  6896  6908       L1    25  0.37
      P1  H  6931  6943       L1     5  0.93
      P1  H  6934  6947       L1     5  0.54
      P1  H  7997  8010       L1    11  0.60

> <Gold.Chemscore.Hbond.Weighted>
-20.1885

> <Gold.Chemscore.Metal.Weighted>
-0.0000

> <Gold.Chemscore.Lipo.Weighted>
-4.0546

> <Gold.Chemscore.Internal_Hbond.Weighted>
0.0000

> <Gold.Chemscore.DEClash.Weighted>
0.0291

> <Gold.Chemscore.DEInternal.Weighted>
3.0286

> <Gold.Chemscore.Rot.Weighted>
10.2893

> <Gold.Chemscore.Internal.Correction.Weighted>
   9.000000E+99

> <Gold.Protein.RotatedTorsions>
[ 6907 6896 6895 6894 ] final -138.29 input  -60.11 | X-H torsion
[ 7974 7965 7964 7962 ] final  165.04 input  175.53 | X-H torsion
[ 8008 7997 7996 7995 ] final   41.17 input   59.86 | X-H torsion
[ 10167 10162 10161 10158 ] final -106.87 input  -65.29 | X-H torsion
[ 10718 10713 10712 10709 ] final  -14.96 input   66.30 | X-H torsion
[ 10763 10752 10751 10750 ] final  -86.86 input  -60.55 | X-H torsion
[ 11005 11000 10999 10996 ] final   67.16 input  -57.11 | X-H torsion

> <Gold.Protein.ActiveResidues>
 VAL166  LYS551  ARG553  GLY616  TRP617  ASP618  TYR619  PRO620  LYS621  CYS622 
 ASP623  PHE694  ASN695  SER759  ASP760  ASP761  ALA762  ILE779  LEU786  VAL792 
 PHE793  MET794  SER795  GLU796  ALA797  LYS798  CYS799  TRP800  GLU811  SER814 

> <Gold.Protein.RotatedAtoms>
  151.0332  133.5772  159.2658 H   0  0  0  0  0  0  0  0  0  0  0  0  # atno 6907 bound_to 6896
  151.2846  135.0723  159.9191 H   0  0  0  0  0  0  0  0  0  0  0  0  # atno 6908 bound_to 6896
  152.5349  134.0041  159.7962 H   0  0  0  0  0  0  0  0  0  0  0  0  # atno 6909 bound_to 6896
  144.7519  139.8413  143.6363 H   0  0  0  0  0  0  0  0  0  0  0  0  # atno 7974 bound_to 7965
  155.2652  140.3362  155.4270 H   0  0  0  0  0  0  0  0  0  0  0  0  # atno 8008 bound_to 7997
  156.2157  140.1788  156.7637 H   0  0  0  0  0  0  0  0  0  0  0  0  # atno 8009 bound_to 7997
  154.5750  140.0663  156.9005 H   0  0  0  0  0  0  0  0  0  0  0  0  # atno 8010 bound_to 7997
  140.1831  143.3951  152.1266 H   0  0  0  0  0  0  0  0  0  0  0  0  # atno 10167 bound_to 10162
  156.6085  130.4843  149.6211 H   0  0  0  0  0  0  0  0  0  0  0  0  # atno 10718 bound_to 10713
  154.6272  135.5434  153.7640 H   0  0  0  0  0  0  0  0  0  0  0  0  # atno 10763 bound_to 10752
  153.0267  135.6427  154.1354 H   0  0  0  0  0  0  0  0  0  0  0  0  # atno 10764 bound_to 10752
  154.1286  135.2915  155.3171 H   0  0  0  0  0  0  0  0  0  0  0  0  # atno 10765 bound_to 10752
  139.9787  134.6779  156.0303 H   0  0  0  0  0  0  0  0  0  0  0  0  # atno 11005 bound_to 11000
  146.1481  139.4556  143.0066 LP  0  0  0  0  0  0  0  0  0  0  0  0  # atno 17320 bound_to 7965
  145.6913  141.0163  143.1553 LP  0  0  0  0  0  0  0  0  0  0  0  0  # atno 17321 bound_to 7965
  139.5288  144.7134  151.5132 LP  0  0  0  0  0  0  0  0  0  0  0  0  # atno 17342 bound_to 10162
  140.6506  143.8704  150.6782 LP  0  0  0  0  0  0  0  0  0  0  0  0  # atno 17343 bound_to 10162
  156.2409  130.6851  151.1555 LP  0  0  0  0  0  0  0  0  0  0  0  0  # atno 17370 bound_to 10713
  157.7260  131.0649  150.5926 LP  0  0  0  0  0  0  0  0  0  0  0  0  # atno 17371 bound_to 10713
  141.1462  133.6555  156.3874 LP  0  0  0  0  0  0  0  0  0  0  0  0  # atno 17394 bound_to 11000
  140.5141  134.6367  157.5295 LP  0  0  0  0  0  0  0  0  0  0  0  0  # atno 17395 bound_to 11000

$$$$
