AV-unprocessed.smi:2889|AV-procd|sdf|11112|dock10
  -GOLD-   2272015583D 1   1.00000     0.00000
 Structure written by MMmdl.
 35 36  0  0  0  0  0  0  0  0  2 V2000
  150.8822  145.4579  159.6457 C   0  0  0  0  0  0  0  0  0  0  0  0
  151.1014  144.2448  158.3171 S   0  0  0  0  0  0  0  0  0  0  0  0
  151.4946  142.7495  159.2825 C   0  0  2  0  0  0  0  0  0  0  0  0
  152.4873  143.1027  160.4260 C   0  0  0  0  0  0  0  0  0  0  0  0
  152.8996  141.8838  161.2760 C   0  0  0  0  0  0  0  0  0  0  0  0
  153.4533  140.7810  160.3542 C   0  0  0  0  0  0  0  0  0  0  0  0
  152.4616  140.4055  159.2272 C   0  0  0  0  0  0  0  0  0  0  0  0
  152.0212  141.6126  158.3592 C   0  0  1  0  0  0  0  0  0  0  0  0
  150.9830  141.1917  157.4261 N   0  5  0  0  0  0  0  0  0  0  0  0
  151.2924  140.0107  156.3592 S   0  0  0  0  0  0  0  0  0  0  0  0
  150.5775  140.1949  155.0857 O   0  0  0  0  0  0  0  0  0  0  0  0
  152.7253  139.6826  156.2772 O   0  0  0  0  0  0  0  0  0  0  0  0
  150.4856  138.5788  157.1957 C   0  0  0  0  0  0  0  0  0  0  0  0
  150.8540  137.2963  156.5029 C   0  0  0  0  0  0  0  0  0  0  0  0
  150.0088  136.3959  155.7963 C   0  0  0  0  0  0  0  0  0  0  0  0
  150.8631  135.4182  155.3757 C   0  0  0  0  0  0  0  0  0  0  0  0
  152.1310  135.6914  155.7739 O   0  0  0  0  0  0  0  0  0  0  0  0
  152.1159  136.8939  156.4898 N   0  0  0  0  0  0  0  0  0  0  0  0
  150.6011  146.4236  159.2259 H   0  0  0  0  0  0  0  0  0  0  0  0
  151.8044  145.5858  160.2112 H   0  0  0  0  0  0  0  0  0  0  0  0
  150.0950  145.1366  160.3278 H   0  0  0  0  0  0  0  0  0  0  0  0
  150.5651  142.4059  159.7395 H   0  0  0  0  0  0  0  0  0  0  0  0
  153.3835  143.5697  160.0124 H   0  0  0  0  0  0  0  0  0  0  0  0
  152.0433  143.8501  161.0828 H   0  0  0  0  0  0  0  0  0  0  0  0
  153.6451  142.1707  162.0180 H   0  0  0  0  0  0  0  0  0  0  0  0
  152.0354  141.5072  161.8245 H   0  0  0  0  0  0  0  0  0  0  0  0
  154.4041  141.1061  159.9268 H   0  0  0  0  0  0  0  0  0  0  0  0
  153.6812  139.8945  160.9467 H   0  0  0  0  0  0  0  0  0  0  0  0
  152.9149  139.6407  158.5960 H   0  0  0  0  0  0  0  0  0  0  0  0
  151.5828  139.9426  159.6788 H   0  0  0  0  0  0  0  0  0  0  0  0
  152.9015  141.9911  157.8378 H   0  0  0  0  0  0  0  0  0  0  0  0
  150.8072  138.5658  158.2366 H   0  0  0  0  0  0  0  0  0  0  0  0
  149.4077  138.7433  157.1832 H   0  0  0  0  0  0  0  0  0  0  0  0
  148.9430  136.4564  155.6332 H   0  0  0  0  0  0  0  0  0  0  0  0
  150.7289  134.5089  154.8087 H   0  0  0  0  0  0  0  0  0  0  0  0
  1  2  1  0  0  0  0
  1 19  1  0  0  0  0
  1 20  1  0  0  0  0
  1 21  1  0  0  0  0
  2  3  1  0  0  0  0
  3  8  1  0  0  0  0
  3  4  1  0  0  0  0
  3 22  1  0  0  0  0
  4  5  1  0  0  0  0
  4 23  1  0  0  0  0
  4 24  1  0  0  0  0
  5  6  1  0  0  0  0
  5 25  1  0  0  0  0
  5 26  1  0  0  0  0
  6  7  1  0  0  0  0
  6 27  1  0  0  0  0
  6 28  1  0  0  0  0
  7  8  1  0  0  0  0
  7 29  1  0  0  0  0
  7 30  1  0  0  0  0
  8  9  1  0  0  0  0
  8 31  1  0  0  0  0
  9 10  1  0  0  0  0
 10 11  2  0  0  0  0
 10 12  2  0  0  0  0
 10 13  1  0  0  0  0
 13 14  1  0  0  0  0
 13 32  1  0  0  0  0
 13 33  1  0  0  0  0
 14 18  2  0  0  0  0
 14 15  1  0  0  0  0
 15 16  2  0  0  0  0
 15 34  1  0  0  0  0
 16 17  1  0  0  0  0
 16 35  1  0  0  0  0
 17 18  1  0  0  0  0
M  CHG  1   9  -1
M  END
> <s_m_source_file>
AV-unprocessed.smi

> <i_m_source_file_index>
2889

> <i_lp_mmshare_version>
43012

> <i_f3d_flags>
0

> <s_epik_input>
W0NIM11TW0NAQEhdMVtDSDJdW0NIMl1bQ0gyXVtDSDJdW0NASF0xW05IXVMoPU8pKD1PKVtDSDJdYzJbY0hdW2NIXW9uMg==

> <s_epik_cmdline>
J2VwaWtfcHl0aG9uJywgJy1waCcsICc3LjAnLCAnLXRuJywgJzgnLCAnLW1hJywgJzIwMCcsICctbWV0YWxfYmluZGluZycsICctaW1hZScsICc8aW5maWxlLm1hZT4nLCAnLW9tYWUnLCAnPG91dGZpbGUubWFlPic=

> <r_lp_tautomer_probability>
1

> <r_epik_Ionization_Penalty>
4.65467

> <r_epik_Ionization_Penalty_Charging>
4.65467

> <r_epik_Ionization_Penalty_Neutral>
2.71476e-10

> <r_epik_State_Penalty>
4.65444

> <r_epik_Charging_Adjusted_Penalty>
9.30911

> <i_epik_Tot_Q>
-1

> <i_epik_Tot_abs_Q>
1

> <r_epik_Metal_State_Penalty>
0.901484

> <b_epik_Metal_Only>
1

> <s_lp_Force_Field>
OPLS_2005

> <r_lp_Energy>
8.40565

> <b_lp_Chiralities_Consistent>
1

> <s_lp_Variant>
AV-unprocessed.smi:2889-5

> <Gold.Version>
5.8.1

> <Gold.Id.Protein>
6NUR|6NUR_protein|mol2

> <Gold.PLP.Fitness>
44.4589

> <Gold.PLP.PLP>
-35.9809

> <Gold.PLP.part.hbond>
-3.0000

> <Gold.PLP.part.metal>
0.0000

> <Gold.PLP.part.buried>
-5.3352

> <Gold.PLP.part.nonpolar>
-27.4509

> <Gold.PLP.part.repulsive>
0.1182

> <Gold.PLP.ligand.clash>
0.0000

> <Gold.PLP.ligand.torsion>
0.7643

> <Gold.PLP.Chemscore.Hbond>
3.0000

> <Gold.PLP.Chemscore.CHOScore>
0.0000

> <Gold.PLP.Chemscore.Metal>
0.0000

> <Gold.Chemscore.Hbonds>
donor molecule, donor type, donor heavy atom, donor atom, acceptor molecule, acceptor atom, score
      P1  H  7989  7998       L1    11  1.00
      P1  H  7997  8008       L1    12  1.00
      P1  H 10752 10764       L1    17  0.32

> <Gold.PLP.Chemscore.Internal.Correction>
1.0065

> <Gold.Rescore>
     Score         DG    S(hbond)    S(metal)    S(lipo)     H(rot)  DE(clash)    DE(int)     intcor
     19.45     -21.77       2.65        0.00      97.04       1.53       0.02       2.30       ----

> <Gold.Chemscore.Fitness>
19.4504

> <Gold.Chemscore.DG>
-21.7676

> <Gold.Chemscore.ZeroCoef>
-5.4800

> <Gold.Chemscore.Hbond>
2.6511

> <Gold.Chemscore.Metal>
0.0000

> <Gold.Chemscore.Lipo>
97.0366

> <Gold.Chemscore.Internal_Hbond>
0.0000

> <Gold.Chemscore.DEClash>
0.0174

> <Gold.Chemscore.DEInternal>
2.2998

> <Gold.Chemscore.Rot>
1.5314

> <Gold.Chemscore.Internal.Correction>
   9.000000E+99

> <Gold.Chemscore.Hbonds>
donor molecule, donor type, donor heavy atom, donor atom, acceptor molecule, acceptor atom, score
      P1  H  7989  7998       L1    11  0.90
      P1  H  7997  8008       L1    12  1.00
      P1  H 10752 10764       L1    17  0.31

> <Gold.Chemscore.Hbond.Weighted>
-8.8547

> <Gold.Chemscore.Metal.Weighted>
-0.0000

> <Gold.Chemscore.Lipo.Weighted>
-11.3533

> <Gold.Chemscore.Internal_Hbond.Weighted>
0.0000

> <Gold.Chemscore.DEClash.Weighted>
0.0174

> <Gold.Chemscore.DEInternal.Weighted>
2.2998

> <Gold.Chemscore.Rot.Weighted>
3.9205

> <Gold.Chemscore.Internal.Correction.Weighted>
   9.000000E+99

> <Gold.Protein.RotatedTorsions>
[ 6907 6896 6895 6894 ] final -174.91 input  -60.11 | X-H torsion
[ 7974 7965 7964 7962 ] final  -13.47 input  175.53 | X-H torsion
[ 8008 7997 7996 7995 ] final  -42.50 input   59.86 | X-H torsion
[ 10167 10162 10161 10158 ] final  170.16 input  -65.29 | X-H torsion
[ 10718 10713 10712 10709 ] final  -14.37 input   66.30 | X-H torsion
[ 10763 10752 10751 10750 ] final  -28.82 input  -60.55 | X-H torsion
[ 11005 11000 10999 10996 ] final  -68.67 input  -57.11 | X-H torsion

> <Gold.Protein.ActiveResidues>
 VAL166  LYS551  ARG553  GLY616  TRP617  ASP618  TYR619  PRO620  LYS621  CYS622 
 ASP623  PHE694  ASN695  SER759  ASP760  ASP761  ALA762  ILE779  LEU786  VAL792 
 PHE793  MET794  SER795  GLU796  ALA797  LYS798  CYS799  TRP800  GLU811  SER814 

> <Gold.Protein.RotatedAtoms>
  151.5800  133.3379  159.3006 H   0  0  0  0  0  0  0  0  0  0  0  0  # atno 6907 bound_to 6896
  150.8319  134.7578  159.6872 H   0  0  0  0  0  0  0  0  0  0  0  0  # atno 6908 bound_to 6896
  152.4401  134.5614  159.9947 H   0  0  0  0  0  0  0  0  0  0  0  0  # atno 6909 bound_to 6896
  146.2113  140.3208  142.8390 H   0  0  0  0  0  0  0  0  0  0  0  0  # atno 7974 bound_to 7965
  154.3999  140.1472  156.3366 H   0  0  0  0  0  0  0  0  0  0  0  0  # atno 8008 bound_to 7997
  155.8395  140.3462  155.5602 H   0  0  0  0  0  0  0  0  0  0  0  0  # atno 8009 bound_to 7997
  155.8102  140.0883  157.1898 H   0  0  0  0  0  0  0  0  0  0  0  0  # atno 8010 bound_to 7997
  139.5011  144.3627  151.9808 H   0  0  0  0  0  0  0  0  0  0  0  0  # atno 10167 bound_to 10162
  156.6169  130.4865  149.6179 H   0  0  0  0  0  0  0  0  0  0  0  0  # atno 10718 bound_to 10713
  153.7546  135.6923  153.4938 H   0  0  0  0  0  0  0  0  0  0  0  0  # atno 10763 bound_to 10752
  153.1980  135.4447  155.0230 H   0  0  0  0  0  0  0  0  0  0  0  0  # atno 10764 bound_to 10752
  154.8175  135.3406  154.7065 H   0  0  0  0  0  0  0  0  0  0  0  0  # atno 10765 bound_to 10752
  141.1537  133.6746  156.6482 H   0  0  0  0  0  0  0  0  0  0  0  0  # atno 11005 bound_to 11000
  144.8921  140.7537  143.5920 LP  0  0  0  0  0  0  0  0  0  0  0  0  # atno 17320 bound_to 7965
  145.3131  139.1812  143.4628 LP  0  0  0  0  0  0  0  0  0  0  0  0  # atno 17321 bound_to 7965
  140.3063  144.3589  150.6046 LP  0  0  0  0  0  0  0  0  0  0  0  0  # atno 17342 bound_to 10162
  140.5834  143.2171  151.7387 LP  0  0  0  0  0  0  0  0  0  0  0  0  # atno 17343 bound_to 10162
  156.2343  130.6813  151.1494 LP  0  0  0  0  0  0  0  0  0  0  0  0  # atno 17370 bound_to 10713
  157.7238  131.0663  150.6020 LP  0  0  0  0  0  0  0  0  0  0  0  0  # atno 17371 bound_to 10713
  140.3341  134.7904  157.4348 LP  0  0  0  0  0  0  0  0  0  0  0  0  # atno 17394 bound_to 11000
  140.0992  134.5495  155.8369 LP  0  0  0  0  0  0  0  0  0  0  0  0  # atno 17395 bound_to 11000

$$$$
