AV-unprocessed.smi:271|AV-procd|sdf|2051|dock2
  -GOLD-   2262021283D 1   1.00000     0.00000
 Structure written by MMmdl.
 58 60  0  0  0  0  0  0  0  0  1 V2000
  152.2174  144.8034  158.0761 C   0  0  0  0  0  0  0  0  0  0  0  0
  151.6245  144.0753  159.2919 C   0  0  0  0  0  0  0  0  0  0  0  0
  151.6944  144.9750  160.5377 C   0  0  0  0  0  0  0  0  0  0  0  0
  152.3286  142.7229  159.5141 C   0  0  0  0  0  0  0  0  0  0  0  0
  151.7026  141.5582  158.7152 C   0  0  0  0  0  0  0  0  0  0  0  0
  152.3174  140.2573  158.9863 N   0  0  0  0  0  0  0  0  0  0  0  0
  153.7353  140.3078  159.3343 C   0  0  0  0  0  0  0  0  0  0  0  0
  153.9868  140.5425  160.8322 C   0  0  0  0  0  0  0  0  0  0  0  0
  155.4159  140.4919  161.1733 C   0  0  0  0  0  0  0  0  0  0  0  0
  156.5405  140.4518  161.4422 N   0  0  0  0  0  0  0  0  0  0  0  0
  152.0409  139.3198  158.0512 C   0  0  0  0  0  0  0  0  0  0  0  0
  152.6798  139.4247  156.8600 N   0  0  0  0  0  0  0  0  0  0  0  0
  152.4916  138.4956  155.9180 C   0  0  0  0  0  0  0  0  0  0  0  0
  151.7343  137.3975  155.9675 N   0  0  0  0  0  0  0  0  0  0  0  0
  151.0860  137.2953  157.1632 C   0  0  0  0  0  0  0  0  0  0  0  0
  151.1660  138.2140  158.2462 C   0  0  0  0  0  0  0  0  0  0  0  0
  150.3529  137.7898  159.2903 N   0  0  0  0  0  0  0  0  0  0  0  0
  149.8406  136.6699  158.8594 C   0  0  0  0  0  0  0  0  0  0  0  0
  150.2562  136.2806  157.6057 N   0  0  0  0  0  0  0  0  0  0  0  0
  149.8794  135.0674  156.9046 C   0  0  0  0  0  0  0  0  0  0  0  0
  149.6291  135.2579  155.3842 C   0  0  2  0  0  0  0  0  0  0  0  0
  148.5806  136.3758  155.1783 C   0  0  0  0  0  0  0  0  0  0  0  0
  149.0347  137.3589  154.2697 O   0  0  0  0  0  0  0  0  0  0  0  0
  149.2735  133.9499  154.6141 C   0  0  1  0  0  0  0  0  0  0  0  0
  150.2619  132.8096  154.8070 C   0  0  0  0  0  0  0  0  0  0  0  0
  149.4532  131.6019  154.3576 C   0  0  0  0  0  0  0  0  0  0  0  0
  148.1481  131.8526  154.8533 O   0  0  0  0  0  0  0  0  0  0  0  0
  147.9653  133.2540  155.0331 C   0  0  0  0  0  0  0  0  0  0  0  0
  153.2738  145.0290  158.2258 H   0  0  0  0  0  0  0  0  0  0  0  0
  151.6995  145.7447  157.8899 H   0  0  0  0  0  0  0  0  0  0  0  0
  152.1306  144.1986  157.1729 H   0  0  0  0  0  0  0  0  0  0  0  0
  150.5739  143.8806  159.0724 H   0  0  0  0  0  0  0  0  0  0  0  0
  152.7274  145.1767  160.8234 H   0  0  0  0  0  0  0  0  0  0  0  0
  151.1954  144.5212  161.3932 H   0  0  0  0  0  0  0  0  0  0  0  0
  151.2090  145.9341  160.3555 H   0  0  0  0  0  0  0  0  0  0  0  0
  153.3764  142.8095  159.2233 H   0  0  0  0  0  0  0  0  0  0  0  0
  152.3294  142.5064  160.5832 H   0  0  0  0  0  0  0  0  0  0  0  0
  150.6316  141.4948  158.9022 H   0  0  0  0  0  0  0  0  0  0  0  0
  151.8085  141.7686  157.6504 H   0  0  0  0  0  0  0  0  0  0  0  0
  154.2243  139.3865  159.0148 H   0  0  0  0  0  0  0  0  0  0  0  0
  154.2005  141.1154  158.7678 H   0  0  0  0  0  0  0  0  0  0  0  0
  153.6075  141.5194  161.1336 H   0  0  0  0  0  0  0  0  0  0  0  0
  153.4805  139.7930  161.4403 H   0  0  0  0  0  0  0  0  0  0  0  0
  153.0349  138.6476  154.9971 H   0  0  0  0  0  0  0  0  0  0  0  0
  149.1638  136.0798  159.4601 H   0  0  0  0  0  0  0  0  0  0  0  0
  150.6599  134.3231  157.0665 H   0  0  0  0  0  0  0  0  0  0  0  0
  148.9808  134.6791  157.3855 H   0  0  0  0  0  0  0  0  0  0  0  0
  150.5527  135.6415  154.9493 H   0  0  0  0  0  0  0  0  0  0  0  0
  147.6486  135.9561  154.7988 H   0  0  0  0  0  0  0  0  0  0  0  0
  148.3297  136.8590  156.1224 H   0  0  0  0  0  0  0  0  0  0  0  0
  148.7958  137.0933  153.3949 H   0  0  0  0  0  0  0  0  0  0  0  0
  149.2213  134.1670  153.5458 H   0  0  0  0  0  0  0  0  0  0  0  0
  151.1789  132.9317  154.2296 H   0  0  0  0  0  0  0  0  0  0  0  0
  150.5292  132.7067  155.8599 H   0  0  0  0  0  0  0  0  0  0  0  0
  149.4164  131.5483  153.2687 H   0  0  0  0  0  0  0  0  0  0  0  0
  149.8522  130.6601  154.7345 H   0  0  0  0  0  0  0  0  0  0  0  0
  147.7393  133.4284  156.0854 H   0  0  0  0  0  0  0  0  0  0  0  0
  147.1138  133.5916  154.4439 H   0  0  0  0  0  0  0  0  0  0  0  0
  1  2  1  0  0  0  0
  1 29  1  0  0  0  0
  1 30  1  0  0  0  0
  1 31  1  0  0  0  0
  2  3  1  0  0  0  0
  2  4  1  0  0  0  0
  2 32  1  0  0  0  0
  3 33  1  0  0  0  0
  3 34  1  0  0  0  0
  3 35  1  0  0  0  0
  4  5  1  0  0  0  0
  4 36  1  0  0  0  0
  4 37  1  0  0  0  0
  5  6  1  0  0  0  0
  5 38  1  0  0  0  0
  5 39  1  0  0  0  0
  6  7  1  0  0  0  0
  6 11  1  0  0  0  0
  7  8  1  0  0  0  0
  7 40  1  0  0  0  0
  7 41  1  0  0  0  0
  8  9  1  0  0  0  0
  8 42  1  0  0  0  0
  8 43  1  0  0  0  0
  9 10  3  0  0  0  0
 11 16  1  0  0  0  0
 11 12  2  0  0  0  0
 12 13  1  0  0  0  0
 13 14  2  0  0  0  0
 13 44  1  0  0  0  0
 14 15  1  0  0  0  0
 15 19  1  0  0  0  0
 15 16  2  0  0  0  0
 16 17  1  0  0  0  0
 17 18  2  0  0  0  0
 18 19  1  0  0  0  0
 18 45  1  0  0  0  0
 19 20  1  0  0  0  0
 20 21  1  0  0  0  0
 20 46  1  0  0  0  0
 20 47  1  0  0  0  0
 21 22  1  0  0  0  0
 21 24  1  0  0  0  0
 21 48  1  0  0  0  0
 22 23  1  0  0  0  0
 22 49  1  0  0  0  0
 22 50  1  0  0  0  0
 23 51  1  0  0  0  0
 24 28  1  0  0  0  0
 24 25  1  0  0  0  0
 24 52  1  0  0  0  0
 25 26  1  0  0  0  0
 25 53  1  0  0  0  0
 25 54  1  0  0  0  0
 26 27  1  0  0  0  0
 26 55  1  0  0  0  0
 26 56  1  0  0  0  0
 27 28  1  0  0  0  0
 28 57  1  0  0  0  0
 28 58  1  0  0  0  0
M  END
> <s_m_source_file>
AV-unprocessed.smi

> <i_m_source_file_index>
271

> <i_lp_mmshare_version>
43012

> <i_f3d_flags>
0

> <s_epik_input>
W0NIM11bQ0hdKFtDSDNdKVtDSDJdW0NIMl1OKFtDSDJdW0NIMl1DI04pYyhuW2NIXW4xKWMoYzEyKW5bY0hdbjJbQ0gyXVtDQEhdKFtDSDJdW09IXSlbQ0BASF0zW0NIMl1bQ0gyXU9bQ0gyXTM=

> <s_epik_cmdline>
J2VwaWtfcHl0aG9uJywgJy1waCcsICc3LjAnLCAnLXRuJywgJzgnLCAnLW1hJywgJzIwMCcsICctbWV0YWxfYmluZGluZycsICctaW1hZScsICc8aW5maWxlLm1hZT4nLCAnLW9tYWUnLCAnPG91dGZpbGUubWFlPic=

> <r_lp_tautomer_probability>
1

> <r_epik_Ionization_Penalty>
0.000825874

> <r_epik_Ionization_Penalty_Charging>
0

> <r_epik_Ionization_Penalty_Neutral>
0.000825874

> <r_epik_State_Penalty>
0.000396768

> <r_epik_Charging_Adjusted_Penalty>
0.000396768

> <i_epik_Tot_Q>
0

> <i_epik_Tot_abs_Q>
0

> <r_epik_Metal_State_Penalty>
-0

> <b_epik_Metal_Only>
0

> <s_lp_Force_Field>
OPLS_2005

> <r_lp_Energy>
35.9661

> <b_lp_Chiralities_Consistent>
1

> <s_lp_Variant>
AV-unprocessed.smi:271-3

> <Gold.Version>
5.8.1

> <Gold.Id.Protein>
6NUR|6NUR_protein|mol2

> <Gold.PLP.Fitness>
49.5347

> <Gold.PLP.PLP>
-47.0576

> <Gold.PLP.part.hbond>
-3.6758

> <Gold.PLP.part.metal>
0.0000

> <Gold.PLP.part.buried>
-5.5220

> <Gold.PLP.part.nonpolar>
-37.8736

> <Gold.PLP.part.repulsive>
0.0232

> <Gold.PLP.ligand.clash>
0.0000

> <Gold.PLP.ligand.torsion>
2.1826

> <Gold.PLP.Chemscore.Hbond>
2.0000

> <Gold.PLP.Chemscore.CHOScore>
0.0000

> <Gold.PLP.Chemscore.Metal>
0.0000

> <Gold.Chemscore.Hbonds>
donor molecule, donor type, donor heavy atom, donor atom, acceptor molecule, acceptor atom, score
      L1  H    23    51       P1  7948  1.00
      P1  H  7997  8010       L1    12  0.95

> <Gold.PLP.Chemscore.Internal.Correction>
0.8422

> <Gold.Rescore>
     Score         DG    S(hbond)    S(metal)    S(lipo)     H(rot)  DE(clash)    DE(int)     intcor
     11.28     -14.53       1.87        0.00     106.38       3.77       0.10       3.14       ----

> <Gold.Chemscore.Fitness>
11.2848

> <Gold.Chemscore.DG>
-14.5256

> <Gold.Chemscore.ZeroCoef>
-5.4800

> <Gold.Chemscore.Hbond>
1.8701

> <Gold.Chemscore.Metal>
0.0000

> <Gold.Chemscore.Lipo>
106.3781

> <Gold.Chemscore.Internal_Hbond>
0.0000

> <Gold.Chemscore.DEClash>
0.0991

> <Gold.Chemscore.DEInternal>
3.1417

> <Gold.Chemscore.Rot>
3.7683

> <Gold.Chemscore.Internal.Correction>
   9.000000E+99

> <Gold.Chemscore.Hbonds>
donor molecule, donor type, donor heavy atom, donor atom, acceptor molecule, acceptor atom, score
      L1  H    23    51       P1  7948  0.99
      P1  H  7997  8010       L1    12  0.21

> <Gold.Chemscore.Hbond.Weighted>
-6.2462

> <Gold.Chemscore.Metal.Weighted>
-0.0000

> <Gold.Chemscore.Lipo.Weighted>
-12.4462

> <Gold.Chemscore.Internal_Hbond.Weighted>
0.0000

> <Gold.Chemscore.DEClash.Weighted>
0.0991

> <Gold.Chemscore.DEInternal.Weighted>
3.1417

> <Gold.Chemscore.Rot.Weighted>
9.6468

> <Gold.Chemscore.Internal.Correction.Weighted>
   9.000000E+99

> <Gold.Protein.RotatedTorsions>
[ 6907 6896 6895 6894 ] final   47.29 input  -60.11 | X-H torsion
[ 7974 7965 7964 7962 ] final  -93.33 input  175.53 | X-H torsion
[ 8008 7997 7996 7995 ] final   83.21 input   59.86 | X-H torsion
[ 10167 10162 10161 10158 ] final  -28.65 input  -65.29 | X-H torsion
[ 10718 10713 10712 10709 ] final   83.46 input   66.30 | X-H torsion
[ 10763 10752 10751 10750 ] final  -32.52 input  -60.55 | X-H torsion
[ 11005 11000 10999 10996 ] final  -95.52 input  -57.11 | X-H torsion

> <Gold.Protein.ActiveResidues>
 VAL166  LYS551  ARG553  GLY616  TRP617  ASP618  TYR619  PRO620  LYS621  CYS622 
 ASP623  PHE694  ASN695  SER759  ASP760  ASP761  ALA762  ILE779  LEU786  VAL792 
 PHE793  MET794  SER795  GLU796  ALA797  LYS798  CYS799  TRP800  GLU811  SER814 

> <Gold.Protein.RotatedAtoms>
  152.2663  134.7981  160.0421 H   0  0  0  0  0  0  0  0  0  0  0  0  # atno 6907 bound_to 6896
  151.8609  133.3452  159.3712 H   0  0  0  0  0  0  0  0  0  0  0  0  # atno 6908 bound_to 6896
  150.7135  134.5134  159.5663 H   0  0  0  0  0  0  0  0  0  0  0  0  # atno 6909 bound_to 6896
  145.3880  140.9525  143.2356 H   0  0  0  0  0  0  0  0  0  0  0  0  # atno 7974 bound_to 7965
  155.9208  140.3421  155.6172 H   0  0  0  0  0  0  0  0  0  0  0  0  # atno 8008 bound_to 7997
  155.7275  140.0791  157.2322 H   0  0  0  0  0  0  0  0  0  0  0  0  # atno 8009 bound_to 7997
  154.4069  140.1594  156.2459 H   0  0  0  0  0  0  0  0  0  0  0  0  # atno 8010 bound_to 7997
  140.7268  143.3993  151.1293 H   0  0  0  0  0  0  0  0  0  0  0  0  # atno 10167 bound_to 10162
  157.6879  131.0092  150.2526 H   0  0  0  0  0  0  0  0  0  0  0  0  # atno 10718 bound_to 10713
  153.8151  135.6879  153.4835 H   0  0  0  0  0  0  0  0  0  0  0  0  # atno 10763 bound_to 10752
  153.1604  135.4582  154.9762 H   0  0  0  0  0  0  0  0  0  0  0  0  # atno 10764 bound_to 10752
  154.7951  135.3316  154.7628 H   0  0  0  0  0  0  0  0  0  0  0  0  # atno 10765 bound_to 10752
  141.1439  133.8032  157.0447 H   0  0  0  0  0  0  0  0  0  0  0  0  # atno 11005 bound_to 11000
  144.8460  139.5396  143.6878 LP  0  0  0  0  0  0  0  0  0  0  0  0  # atno 17320 bound_to 7965
  146.2811  139.6880  142.9228 LP  0  0  0  0  0  0  0  0  0  0  0  0  # atno 17321 bound_to 7965
  139.7610  143.8636  152.3100 LP  0  0  0  0  0  0  0  0  0  0  0  0  # atno 17342 bound_to 10162
  139.8521  144.7159  150.9201 LP  0  0  0  0  0  0  0  0  0  0  0  0  # atno 17343 bound_to 10162
  156.3120  130.3773  149.7653 LP  0  0  0  0  0  0  0  0  0  0  0  0  # atno 17370 bound_to 10713
  156.5250  130.8232  151.3217 LP  0  0  0  0  0  0  0  0  0  0  0  0  # atno 17371 bound_to 10713
  140.0670  134.9723  157.1403 LP  0  0  0  0  0  0  0  0  0  0  0  0  # atno 17394 bound_to 11000
  140.3765  134.2333  155.7174 LP  0  0  0  0  0  0  0  0  0  0  0  0  # atno 17395 bound_to 11000

$$$$
