AV-unprocessed.smi:2106|AV-procd|sdf|8599|dock9
  -GOLD-   2272011333D 1   1.00000     0.00000
 Structure written by MMmdl.
 48 49  0  0  0  0  0  0  0  0  2 V2000
  152.7187  141.2383  159.1544 C   0  0  0  0  0  0  0  0  0  0  0  0
  152.1742  140.8660  157.8061 C   0  0  0  0  0  0  0  0  0  0  0  0
  150.9734  141.3165  157.1911 C   0  0  0  0  0  0  0  0  0  0  0  0
  150.9489  140.6754  155.9846 C   0  0  0  0  0  0  0  0  0  0  0  0
  149.9389  140.7389  154.8863 C   0  0  0  0  0  0  0  0  0  0  0  0
  152.0885  139.8915  155.9230 N   0  0  0  0  0  0  0  0  0  0  0  0
  152.5361  138.9926  154.8683 C   0  0  0  0  0  0  0  0  0  0  0  0
  152.0109  137.5742  155.0984 C   0  0  0  0  0  0  0  0  0  0  0  0
  152.7880  136.6678  155.3953 O   0  0  0  0  0  0  0  0  0  0  0  0
  150.6849  137.4009  154.9885 N   0  0  0  0  0  0  0  0  0  0  0  0
  149.9752  136.1598  155.2805 C   0  0  0  0  0  0  0  0  0  0  0  0
  150.5371  134.9558  154.4986 C   0  0  0  0  0  0  0  0  0  0  0  0
  149.4669  134.2225  153.7685 N   0  3  1  0  0  0  0  0  0  0  0  0
  149.9088  132.9477  153.1550 C   0  0  0  0  0  0  0  0  0  0  0  0
  150.0026  131.8240  154.2079 C   0  0  2  0  0  0  0  0  0  0  0  0
  150.3599  130.4736  153.5780 C   0  0  0  0  0  0  0  0  0  0  0  0
  148.7418  131.6911  154.8565 O   0  0  0  0  0  0  0  0  0  0  0  0
  148.3538  132.8705  155.5532 C   0  0  2  0  0  0  0  0  0  0  0  0
  147.0333  132.5896  156.2784 C   0  0  0  0  0  0  0  0  0  0  0  0
  148.2190  134.0297  154.5460 C   0  0  0  0  0  0  0  0  0  0  0  0
  152.8371  140.0142  157.0414 N   0  0  0  0  0  0  0  0  0  0  0  0
  152.8503  142.3173  159.2363 H   0  0  0  0  0  0  0  0  0  0  0  0
  153.6860  140.7718  159.3437 H   0  0  0  0  0  0  0  0  0  0  0  0
  152.0394  140.9260  159.9474 H   0  0  0  0  0  0  0  0  0  0  0  0
  150.2400  142.0082  157.5787 H   0  0  0  0  0  0  0  0  0  0  0  0
  149.1133  141.3973  155.1564 H   0  0  0  0  0  0  0  0  0  0  0  0
  149.5232  139.7538  154.6772 H   0  0  0  0  0  0  0  0  0  0  0  0
  150.3857  141.1224  153.9690 H   0  0  0  0  0  0  0  0  0  0  0  0
  152.2002  139.3659  153.9003 H   0  0  0  0  0  0  0  0  0  0  0  0
  153.6271  138.9870  154.8445 H   0  0  0  0  0  0  0  0  0  0  0  0
  150.1248  138.1982  154.7227 H   0  0  0  0  0  0  0  0  0  0  0  0
  150.0652  135.9720  156.3509 H   0  0  0  0  0  0  0  0  0  0  0  0
  148.9097  136.2807  155.0779 H   0  0  0  0  0  0  0  0  0  0  0  0
  151.3023  135.3114  153.8076 H   0  0  0  0  0  0  0  0  0  0  0  0
  151.0570  134.2870  155.1858 H   0  0  0  0  0  0  0  0  0  0  0  0
  149.1823  132.6703  152.3899 H   0  0  0  0  0  0  0  0  0  0  0  0
  150.8599  133.0863  152.6394 H   0  0  0  0  0  0  0  0  0  0  0  0
  150.7640  132.0683  154.9506 H   0  0  0  0  0  0  0  0  0  0  0  0
  151.3259  130.5183  153.0747 H   0  0  0  0  0  0  0  0  0  0  0  0
  149.6133  130.1695  152.8437 H   0  0  0  0  0  0  0  0  0  0  0  0
  150.4171  129.6930  154.3369 H   0  0  0  0  0  0  0  0  0  0  0  0
  149.1114  133.1087  156.3013 H   0  0  0  0  0  0  0  0  0  0  0  0
  146.6959  133.4666  156.8318 H   0  0  0  0  0  0  0  0  0  0  0  0
  147.1449  131.7706  156.9893 H   0  0  0  0  0  0  0  0  0  0  0  0
  146.2468  132.3154  155.5750 H   0  0  0  0  0  0  0  0  0  0  0  0
  147.9470  134.9510  155.0592 H   0  0  0  0  0  0  0  0  0  0  0  0
  147.4105  133.8160  153.8454 H   0  0  0  0  0  0  0  0  0  0  0  0
  149.2223  134.8289  152.9989 H   0  0  0  0  0  0  0  0  0  0  0  0
  1  2  1  0  0  0  0
  1 22  1  0  0  0  0
  1 23  1  0  0  0  0
  1 24  1  0  0  0  0
  2 21  2  0  0  0  0
  2  3  1  0  0  0  0
  3  4  2  0  0  0  0
  3 25  1  0  0  0  0
  4  5  1  0  0  0  0
  4  6  1  0  0  0  0
  5 26  1  0  0  0  0
  5 27  1  0  0  0  0
  5 28  1  0  0  0  0
  6  7  1  0  0  0  0
  6 21  1  0  0  0  0
  7  8  1  0  0  0  0
  7 29  1  0  0  0  0
  7 30  1  0  0  0  0
  8  9  2  0  0  0  0
  8 10  1  0  0  0  0
 10 11  1  0  0  0  0
 10 31  1  0  0  0  0
 11 12  1  0  0  0  0
 11 32  1  0  0  0  0
 11 33  1  0  0  0  0
 12 13  1  0  0  0  0
 12 34  1  0  0  0  0
 12 35  1  0  0  0  0
 13 20  1  0  0  0  0
 13 14  1  0  0  0  0
 13 48  1  0  0  0  0
 14 15  1  0  0  0  0
 14 36  1  0  0  0  0
 14 37  1  0  0  0  0
 15 16  1  0  0  0  0
 15 17  1  0  0  0  0
 15 38  1  0  0  0  0
 16 39  1  0  0  0  0
 16 40  1  0  0  0  0
 16 41  1  0  0  0  0
 17 18  1  0  0  0  0
 18 19  1  0  0  0  0
 18 20  1  0  0  0  0
 18 42  1  0  0  0  0
 19 43  1  0  0  0  0
 19 44  1  0  0  0  0
 19 45  1  0  0  0  0
 20 46  1  0  0  0  0
 20 47  1  0  0  0  0
M  CHG  1  13   1
M  END
> <s_m_source_file>
AV-unprocessed.smi

> <i_m_source_file_index>
2106

> <i_lp_mmshare_version>
43012

> <i_f3d_flags>
0

> <s_epik_input>
W0NIM11jMVtjSF1jKFtDSDNdKW4objEpW0NIMl1DKD1PKVtOSF1bQ0gyXVtDSDJdTjJbQ0gyXVtDQEBIXShbQ0gzXSlPW0NAQEhdKFtDSDNdKVtDSDJdMg==

> <s_epik_cmdline>
J2VwaWtfcHl0aG9uJywgJy1waCcsICc3LjAnLCAnLXRuJywgJzgnLCAnLW1hJywgJzIwMCcsICctbWV0YWxfYmluZGluZycsICctaW1hZScsICc8aW5maWxlLm1hZT4nLCAnLW9tYWUnLCAnPG91dGZpbGUubWFlPic=

> <r_lp_tautomer_probability>
1

> <r_epik_Ionization_Penalty>
0.748586

> <r_epik_Ionization_Penalty_Charging>
0.748396

> <r_epik_Ionization_Penalty_Neutral>
0.000189656

> <r_epik_State_Penalty>
0.775162

> <r_epik_Charging_Adjusted_Penalty>
1.52356

> <i_epik_Tot_Q>
1

> <i_epik_Tot_abs_Q>
1

> <r_epik_Metal_State_Penalty>
0.775295

> <b_epik_Metal_Only>
0

> <s_lp_Force_Field>
OPLS_2005

> <r_lp_Energy>
21.363

> <b_lp_Chiralities_Consistent>
1

> <s_lp_Variant>
AV-unprocessed.smi:2106-7

> <Gold.Version>
5.8.1

> <Gold.Id.Protein>
6NUR|6NUR_protein|mol2

> <Gold.PLP.Fitness>
45.2725

> <Gold.PLP.PLP>
-35.0223

> <Gold.PLP.part.hbond>
-2.9428

> <Gold.PLP.part.metal>
0.0000

> <Gold.PLP.part.buried>
-1.7566

> <Gold.PLP.part.nonpolar>
-29.7068

> <Gold.PLP.part.repulsive>
0.0660

> <Gold.PLP.ligand.clash>
0.0000

> <Gold.PLP.ligand.torsion>
0.8993

> <Gold.PLP.Chemscore.Hbond>
4.0000

> <Gold.PLP.Chemscore.CHOScore>
0.0000

> <Gold.PLP.Chemscore.Metal>
0.0000

> <Gold.Chemscore.Hbonds>
donor molecule, donor type, donor heavy atom, donor atom, acceptor molecule, acceptor atom, score
      L1  H    13    48       P1  7948  0.80
      P1  H  7997  8009       L1    21  1.00
      P1  H 10752 10764       L1     9  0.21

> <Gold.PLP.Chemscore.Internal.Correction>
0.0488

> <Gold.Rescore>
     Score         DG    S(hbond)    S(metal)    S(lipo)     H(rot)  DE(clash)    DE(int)     intcor
     16.99     -18.91       2.73        0.00      74.65       1.73       0.20       1.71       ----

> <Gold.Chemscore.Fitness>
16.9933

> <Gold.Chemscore.DG>
-18.9084

> <Gold.Chemscore.ZeroCoef>
-5.4800

> <Gold.Chemscore.Hbond>
2.7328

> <Gold.Chemscore.Metal>
0.0000

> <Gold.Chemscore.Lipo>
74.6491

> <Gold.Chemscore.Internal_Hbond>
0.0000

> <Gold.Chemscore.DEClash>
0.2006

> <Gold.Chemscore.DEInternal>
1.7145

> <Gold.Chemscore.Rot>
1.7316

> <Gold.Chemscore.Internal.Correction>
   9.000000E+99

> <Gold.Chemscore.Hbonds>
donor molecule, donor type, donor heavy atom, donor atom, acceptor molecule, acceptor atom, score
      L1  H    13    48       P1  7948  0.01
      P1  H  7997  8009       L1    21  0.54
      P1  H 10752 10764       L1     9  0.21

> <Gold.Chemscore.Hbond.Weighted>
-9.1274

> <Gold.Chemscore.Metal.Weighted>
-0.0000

> <Gold.Chemscore.Lipo.Weighted>
-8.7339

> <Gold.Chemscore.Internal_Hbond.Weighted>
0.0000

> <Gold.Chemscore.DEClash.Weighted>
0.2006

> <Gold.Chemscore.DEInternal.Weighted>
1.7145

> <Gold.Chemscore.Rot.Weighted>
4.4330

> <Gold.Chemscore.Internal.Correction.Weighted>
   9.000000E+99

> <Gold.Protein.RotatedTorsions>
[ 6907 6896 6895 6894 ] final -176.57 input  -60.11 | X-H torsion
[ 7974 7965 7964 7962 ] final -114.11 input  175.53 | X-H torsion
[ 8008 7997 7996 7995 ] final -174.05 input   59.86 | X-H torsion
[ 10167 10162 10161 10158 ] final    8.03 input  -65.29 | X-H torsion
[ 10718 10713 10712 10709 ] final  -64.42 input   66.30 | X-H torsion
[ 10763 10752 10751 10750 ] final  -36.62 input  -60.55 | X-H torsion
[ 11005 11000 10999 10996 ] final   99.28 input  -57.11 | X-H torsion

> <Gold.Protein.ActiveResidues>
 VAL166  LYS551  ARG553  GLY616  TRP617  ASP618  TYR619  PRO620  LYS621  CYS622 
 ASP623  PHE694  ASN695  SER759  ASP760  ASP761  ALA762  ILE779  LEU786  VAL792 
 PHE793  MET794  SER795  GLU796  ALA797  LYS798  CYS799  TRP800  GLU811  SER814 

> <Gold.Protein.RotatedAtoms>
  151.6069  133.3351  159.3059 H   0  0  0  0  0  0  0  0  0  0  0  0  # atno 6907 bound_to 6896
  150.8177  134.7372  159.6756 H   0  0  0  0  0  0  0  0  0  0  0  0  # atno 6908 bound_to 6896
  152.4272  134.5851  160.0010 H   0  0  0  0  0  0  0  0  0  0  0  0  # atno 6909 bound_to 6896
  145.1241  140.8686  143.3797 H   0  0  0  0  0  0  0  0  0  0  0  0  # atno 7974 bound_to 7965
  155.9652  140.1152  157.0860 H   0  0  0  0  0  0  0  0  0  0  0  0  # atno 8008 bound_to 7997
  154.4142  140.1174  156.5300 H   0  0  0  0  0  0  0  0  0  0  0  0  # atno 8009 bound_to 7997
  155.6668  140.3473  155.4805 H   0  0  0  0  0  0  0  0  0  0  0  0  # atno 8010 bound_to 7997
  140.6338  143.7934  150.7331 H   0  0  0  0  0  0  0  0  0  0  0  0  # atno 10167 bound_to 10162
  156.0730  130.4233  150.1418 H   0  0  0  0  0  0  0  0  0  0  0  0  # atno 10718 bound_to 10713
  153.8827  135.6820  153.4766 H   0  0  0  0  0  0  0  0  0  0  0  0  # atno 10763 bound_to 10752
  153.1225  135.4733  154.9216 H   0  0  0  0  0  0  0  0  0  0  0  0  # atno 10764 bound_to 10752
  154.7661  135.3224  154.8235 H   0  0  0  0  0  0  0  0  0  0  0  0  # atno 10765 bound_to 10752
  139.8771  134.9088  156.4583 H   0  0  0  0  0  0  0  0  0  0  0  0  # atno 11005 bound_to 11000
  145.0708  139.3033  143.5833 LP  0  0  0  0  0  0  0  0  0  0  0  0  # atno 17320 bound_to 7965
  146.3519  140.0182  142.8661 LP  0  0  0  0  0  0  0  0  0  0  0  0  # atno 17321 bound_to 7965
  140.1551  143.4324  152.2105 LP  0  0  0  0  0  0  0  0  0  0  0  0  # atno 17342 bound_to 10162
  139.5549  144.7366  151.4323 LP  0  0  0  0  0  0  0  0  0  0  0  0  # atno 17343 bound_to 10162
  156.9465  130.9761  151.3506 LP  0  0  0  0  0  0  0  0  0  0  0  0  # atno 17370 bound_to 10713
  157.5811  130.8377  149.8524 LP  0  0  0  0  0  0  0  0  0  0  0  0  # atno 17371 bound_to 10713
  140.8882  133.7867  155.9542 LP  0  0  0  0  0  0  0  0  0  0  0  0  # atno 17394 bound_to 11000
  140.8781  134.2644  157.5157 LP  0  0  0  0  0  0  0  0  0  0  0  0  # atno 17395 bound_to 11000

$$$$
