AV-unprocessed.smi:2947|AV-procd|sdf|11282|dock8
  -GOLD-   2272016173D 1   1.00000     0.00000
 Structure written by MMmdl.
 33 34  0  0  0  0  0  0  0  0  1 V2000
  150.6783  140.7541  156.5671 O   0  0  0  0  0  0  0  0  0  0  0  0
  150.1234  141.8223  156.3074 C   0  0  0  0  0  0  0  0  0  0  0  0
  149.0952  141.9781  155.4548 N   0  0  0  0  0  0  0  0  0  0  0  0
  148.4375  140.9848  154.6810 C   0  0  0  0  0  0  0  0  0  0  0  0
  147.4515  141.4730  153.7940 C   0  0  0  0  0  0  0  0  0  0  0  0
  146.7414  140.5683  152.9810 C   0  0  0  0  0  0  0  0  0  0  0  0
  147.0361  139.1965  153.0758 C   0  0  0  0  0  0  0  0  0  0  0  0
  148.0320  138.7937  153.9845 C   0  0  0  0  0  0  0  0  0  0  0  0
  148.7136  139.6590  154.7647 N   0  0  0  0  0  0  0  0  0  0  0  0
  150.4803  142.9935  156.8552 N   0  0  0  0  0  0  0  0  0  0  0  0
  151.5605  143.1796  157.8196 C   0  0  0  0  0  0  0  0  0  0  0  0
  151.4978  142.1019  158.9223 C   0  0  0  0  0  0  0  0  0  0  0  0
  152.5793  142.3274  159.9912 C   0  0  0  0  0  0  0  0  0  0  0  0
  152.4834  143.7379  160.5937 C   0  0  0  0  0  0  0  0  0  0  0  0
  152.5525  144.8138  159.4988 C   0  0  0  0  0  0  0  0  0  0  0  0
  151.4703  144.5915  158.4296 C   0  0  0  0  0  0  0  0  0  0  0  0
  148.7421  142.9172  155.3454 H   0  0  0  0  0  0  0  0  0  0  0  0
  147.2380  142.5303  153.7336 H   0  0  0  0  0  0  0  0  0  0  0  0
  145.9846  140.9219  152.2967 H   0  0  0  0  0  0  0  0  0  0  0  0
  146.5134  138.4721  152.4689 H   0  0  0  0  0  0  0  0  0  0  0  0
  148.2885  137.7496  154.0879 H   0  0  0  0  0  0  0  0  0  0  0  0
  149.9683  143.8202  156.5843 H   0  0  0  0  0  0  0  0  0  0  0  0
  152.5176  143.0968  157.3004 H   0  0  0  0  0  0  0  0  0  0  0  0
  150.5146  142.1137  159.3951 H   0  0  0  0  0  0  0  0  0  0  0  0
  151.6185  141.1091  158.4873 H   0  0  0  0  0  0  0  0  0  0  0  0
  152.4850  141.5791  160.7786 H   0  0  0  0  0  0  0  0  0  0  0  0
  153.5654  142.1860  159.5472 H   0  0  0  0  0  0  0  0  0  0  0  0
  151.5479  143.8370  161.1456 H   0  0  0  0  0  0  0  0  0  0  0  0
  153.2866  143.8894  161.3156 H   0  0  0  0  0  0  0  0  0  0  0  0
  152.4392  145.8033  159.9425 H   0  0  0  0  0  0  0  0  0  0  0  0
  153.5375  144.7961  159.0304 H   0  0  0  0  0  0  0  0  0  0  0  0
  151.5694  145.3445  157.6468 H   0  0  0  0  0  0  0  0  0  0  0  0
  150.4865  144.7393  158.8777 H   0  0  0  0  0  0  0  0  0  0  0  0
  1  2  2  0  0  0  0
  2  3  1  0  0  0  0
  2 10  1  0  0  0  0
  3  4  1  0  0  0  0
  3 17  1  0  0  0  0
  4  9  1  0  0  0  0
  4  5  2  0  0  0  0
  5  6  1  0  0  0  0
  5 18  1  0  0  0  0
  6  7  2  0  0  0  0
  6 19  1  0  0  0  0
  7  8  1  0  0  0  0
  7 20  1  0  0  0  0
  8  9  2  0  0  0  0
  8 21  1  0  0  0  0
 10 11  1  0  0  0  0
 10 22  1  0  0  0  0
 11 16  1  0  0  0  0
 11 12  1  0  0  0  0
 11 23  1  0  0  0  0
 12 13  1  0  0  0  0
 12 24  1  0  0  0  0
 12 25  1  0  0  0  0
 13 14  1  0  0  0  0
 13 26  1  0  0  0  0
 13 27  1  0  0  0  0
 14 15  1  0  0  0  0
 14 28  1  0  0  0  0
 14 29  1  0  0  0  0
 15 16  1  0  0  0  0
 15 30  1  0  0  0  0
 15 31  1  0  0  0  0
 16 32  1  0  0  0  0
 16 33  1  0  0  0  0
M  END
> <s_m_source_file>
AV-unprocessed.smi

> <i_m_source_file_index>
2947

> <i_lp_mmshare_version>
43012

> <i_f3d_flags>
0

> <s_epik_input>
W0NIMl0xW0NIMl1bQ0gyXVtDSDJdW0NIMl1bQ0hdMVtOSF1DKD1PKVtOSF1jMltjSF1bY0hdW2NIXVtjSF1uMg==

> <s_epik_cmdline>
J2VwaWtfcHl0aG9uJywgJy1waCcsICc3LjAnLCAnLXRuJywgJzgnLCAnLW1hJywgJzIwMCcsICctbWV0YWxfYmluZGluZycsICctaW1hZScsICc8aW5maWxlLm1hZT4nLCAnLW9tYWUnLCAnPG91dGZpbGUubWFlPic=

> <r_lp_tautomer_probability>
1

> <r_epik_Ionization_Penalty>
5.26121e-05

> <r_epik_Ionization_Penalty_Charging>
0

> <r_epik_Ionization_Penalty_Neutral>
5.26121e-05

> <r_epik_State_Penalty>
-0

> <r_epik_Charging_Adjusted_Penalty>
0

> <i_epik_Tot_Q>
0

> <i_epik_Tot_abs_Q>
0

> <r_epik_Metal_State_Penalty>
-0

> <b_epik_Metal_Only>
0

> <s_lp_Force_Field>
OPLS_2005

> <r_lp_Energy>
11.3585

> <b_lp_Chiralities_Consistent>
1

> <s_lp_Variant>
AV-unprocessed.smi:2947-1

> <Gold.Version>
5.8.1

> <Gold.Id.Protein>
6NUR|6NUR_protein|mol2

> <Gold.PLP.Fitness>
43.9644

> <Gold.PLP.PLP>
-35.4220

> <Gold.PLP.part.hbond>
-2.0000

> <Gold.PLP.part.metal>
0.0000

> <Gold.PLP.part.buried>
-3.0940

> <Gold.PLP.part.nonpolar>
-30.5837

> <Gold.PLP.part.repulsive>
0.3208

> <Gold.PLP.ligand.clash>
0.0000

> <Gold.PLP.ligand.torsion>
0.1534

> <Gold.PLP.Chemscore.Hbond>
2.0000

> <Gold.PLP.Chemscore.CHOScore>
0.9487

> <Gold.PLP.Chemscore.Metal>
0.0000

> <Gold.Chemscore.Hbonds>
donor molecule, donor type, donor heavy atom, donor atom, acceptor molecule, acceptor atom, score
      L1  H     3    17       P1  8028  1.00
      L1  H    10    22       P1  8028  1.00
      L1  C     8    21       P1  7948  0.33

> <Gold.PLP.Chemscore.Internal.Correction>
0.0031

> <Gold.Rescore>
     Score         DG    S(hbond)    S(metal)    S(lipo)     H(rot)  DE(clash)    DE(int)     intcor
     17.91     -20.45       1.87        0.00      96.46       1.00       0.15       2.39       ----

> <Gold.Chemscore.Fitness>
17.9089

> <Gold.Chemscore.DG>
-20.4487

> <Gold.Chemscore.ZeroCoef>
-5.4800

> <Gold.Chemscore.Hbond>
1.8690

> <Gold.Chemscore.Metal>
0.0000

> <Gold.Chemscore.Lipo>
96.4627

> <Gold.Chemscore.Internal_Hbond>
0.0000

> <Gold.Chemscore.DEClash>
0.1525

> <Gold.Chemscore.DEInternal>
2.3873

> <Gold.Chemscore.Rot>
1.0000

> <Gold.Chemscore.Internal.Correction>
   9.000000E+99

> <Gold.Chemscore.Hbonds>
donor molecule, donor type, donor heavy atom, donor atom, acceptor molecule, acceptor atom, score
      L1  H     3    17       P1  8028  0.95
      L1  H    10    22       P1  8028  0.99

> <Gold.Chemscore.Hbond.Weighted>
-6.2425

> <Gold.Chemscore.Metal.Weighted>
-0.0000

> <Gold.Chemscore.Lipo.Weighted>
-11.2861

> <Gold.Chemscore.Internal_Hbond.Weighted>
0.0000

> <Gold.Chemscore.DEClash.Weighted>
0.1525

> <Gold.Chemscore.DEInternal.Weighted>
2.3873

> <Gold.Chemscore.Rot.Weighted>
2.5600

> <Gold.Chemscore.Internal.Correction.Weighted>
   9.000000E+99

> <Gold.Protein.RotatedTorsions>
[ 6907 6896 6895 6894 ] final  -51.42 input  -60.11 | X-H torsion
[ 7974 7965 7964 7962 ] final -131.59 input  175.53 | X-H torsion
[ 8008 7997 7996 7995 ] final -138.06 input   59.86 | X-H torsion
[ 10167 10162 10161 10158 ] final  -67.09 input  -65.29 | X-H torsion
[ 10718 10713 10712 10709 ] final   52.49 input   66.30 | X-H torsion
[ 10763 10752 10751 10750 ] final  115.87 input  -60.55 | X-H torsion
[ 11005 11000 10999 10996 ] final  128.19 input  -57.11 | X-H torsion

> <Gold.Protein.ActiveResidues>
 VAL166  LYS551  ARG553  GLY616  TRP617  ASP618  TYR619  PRO620  LYS621  CYS622 
 ASP623  PHE694  ASN695  SER759  ASP760  ASP761  ALA762  ILE779  LEU786  VAL792 
 PHE793  MET794  SER795  GLU796  ALA797  LYS798  CYS799  TRP800  GLU811  SER814 

> <Gold.Protein.RotatedAtoms>
  150.8613  134.7966  159.7084 H   0  0  0  0  0  0  0  0  0  0  0  0  # atno 6907 bound_to 6896
  152.4649  134.5095  159.9759 H   0  0  0  0  0  0  0  0  0  0  0  0  # atno 6908 bound_to 6896
  151.5198  133.3430  159.2935 H   0  0  0  0  0  0  0  0  0  0  0  0  # atno 6909 bound_to 6896
  144.9365  140.7189  143.4873 H   0  0  0  0  0  0  0  0  0  0  0  0  # atno 7974 bound_to 7965
  155.4221  140.0519  157.3025 H   0  0  0  0  0  0  0  0  0  0  0  0  # atno 8008 bound_to 7997
  154.4898  140.2115  155.9533 H   0  0  0  0  0  0  0  0  0  0  0  0  # atno 8009 bound_to 7997
  156.1326  140.3169  155.8376 H   0  0  0  0  0  0  0  0  0  0  0  0  # atno 8010 bound_to 7997
  140.5609  143.2313  151.6730 H   0  0  0  0  0  0  0  0  0  0  0  0  # atno 10167 bound_to 10162
  157.5080  130.8482  149.8399 H   0  0  0  0  0  0  0  0  0  0  0  0  # atno 10718 bound_to 10713
  153.5287  135.3583  155.2666 H   0  0  0  0  0  0  0  0  0  0  0  0  # atno 10763 bound_to 10752
  154.8729  135.4063  154.3176 H   0  0  0  0  0  0  0  0  0  0  0  0  # atno 10764 bound_to 10752
  153.3861  135.7070  153.6597 H   0  0  0  0  0  0  0  0  0  0  0  0  # atno 10765 bound_to 10752
  139.9547  134.9615  156.8965 H   0  0  0  0  0  0  0  0  0  0  0  0  # atno 11005 bound_to 11000
  145.3059  139.1835  143.4665 LP  0  0  0  0  0  0  0  0  0  0  0  0  # atno 17320 bound_to 7965
  146.3268  140.3057  142.8623 LP  0  0  0  0  0  0  0  0  0  0  0  0  # atno 17321 bound_to 7965
  139.5069  144.3664  152.0513 LP  0  0  0  0  0  0  0  0  0  0  0  0  # atno 17342 bound_to 10162
  140.2790  144.3880  150.6125 LP  0  0  0  0  0  0  0  0  0  0  0  0  # atno 17343 bound_to 10162
  156.0270  130.3776  150.1793 LP  0  0  0  0  0  0  0  0  0  0  0  0  # atno 17370 bound_to 10713
  156.9983  130.9914  151.3397 LP  0  0  0  0  0  0  0  0  0  0  0  0  # atno 17371 bound_to 10713
  140.5637  134.0510  155.7407 LP  0  0  0  0  0  0  0  0  0  0  0  0  # atno 17394 bound_to 11000
  141.1216  133.9451  157.2717 LP  0  0  0  0  0  0  0  0  0  0  0  0  # atno 17395 bound_to 11000

$$$$
