AV-unprocessed.smi:157|AV-procd|sdf|1322|dock4
  -GOLD-   2262019 13D 1   1.00000     0.00000
 Structure written by MMmdl.
 36 38  0  0  0  0  0  0  0  0  2 V2000
  155.8075  138.6452  158.2239 O   0  0  0  0  0  0  0  0  0  0  0  0
  154.7909  138.3906  159.1695 C   0  0  0  0  0  0  0  0  0  0  0  0
  153.4440  138.1836  158.4602 C   0  0  2  0  0  0  0  0  0  0  0  0
  153.0884  139.4005  157.8060 O   0  0  0  0  0  0  0  0  0  0  0  0
  151.7091  139.5357  157.8736 C   0  0  2  0  0  0  0  0  0  0  0  0
  151.3459  140.9739  157.7003 N   0  0  0  0  0  0  0  0  0  0  0  0
  150.5042  141.4900  156.7797 C   0  0  0  0  0  0  0  0  0  0  0  0
  150.3650  142.8034  156.8456 N   0  3  0  0  0  0  0  0  0  0  0  0
  151.1725  143.2314  157.8781 C   0  0  0  0  0  0  0  0  0  0  0  0
  151.7668  142.0801  158.4009 C   0  0  0  0  0  0  0  0  0  0  0  0
  152.6762  141.9375  159.4602 N   0  0  0  0  0  0  0  0  0  0  0  0
  152.9089  142.8741  160.3213 C   0  0  0  0  0  0  0  0  0  0  0  0
  152.4265  144.1720  160.3547 N   0  0  0  0  0  0  0  0  0  0  0  0
  152.3862  145.0385  159.1900 C   0  0  0  0  0  0  0  0  0  0  0  0
  151.2663  144.6899  158.2010 C   0  0  2  0  0  0  0  0  0  0  0  0
  150.0502  145.2179  158.6890 O   0  0  0  0  0  0  0  0  0  0  0  0
  151.3323  139.0446  159.2616 C   0  0  0  0  0  0  0  0  0  0  0  0
  152.2733  137.8617  159.4173 C   0  0  1  0  0  0  0  0  0  0  0  0
  151.6246  136.6717  159.0141 O   0  0  0  0  0  0  0  0  0  0  0  0
  153.5439  137.4132  157.6929 H   0  0  0  0  0  0  0  0  0  0  0  0
  151.2177  138.9967  157.0618 H   0  0  0  0  0  0  0  0  0  0  0  0
  151.4719  145.2208  157.2708 H   0  0  0  0  0  0  0  0  0  0  0  0
  152.5941  137.7502  160.4538 H   0  0  0  0  0  0  0  0  0  0  0  0
  156.4576  137.9623  158.2892 H   0  0  0  0  0  0  0  0  0  0  0  0
  155.0553  137.5189  159.7691 H   0  0  0  0  0  0  0  0  0  0  0  0
  154.7324  139.2435  159.8461 H   0  0  0  0  0  0  0  0  0  0  0  0
  149.9925  140.8823  156.0549 H   0  0  0  0  0  0  0  0  0  0  0  0
  153.5789  142.6665  161.1569 H   0  0  0  0  0  0  0  0  0  0  0  0
  152.5317  144.7038  161.2070 H   0  0  0  0  0  0  0  0  0  0  0  0
  152.3094  146.0781  159.5101 H   0  0  0  0  0  0  0  0  0  0  0  0
  153.3478  144.9484  158.6823 H   0  0  0  0  0  0  0  0  0  0  0  0
  149.5277  145.5079  157.9573 H   0  0  0  0  0  0  0  0  0  0  0  0
  151.5711  139.8174  159.9940 H   0  0  0  0  0  0  0  0  0  0  0  0
  150.2712  138.8004  159.3291 H   0  0  0  0  0  0  0  0  0  0  0  0
  151.4224  136.7376  158.0930 H   0  0  0  0  0  0  0  0  0  0  0  0
  149.7851  143.3773  156.2465 H   0  0  0  0  0  0  0  0  0  0  0  0
  1  2  1  0  0  0  0
  1 24  1  0  0  0  0
  2  3  1  0  0  0  0
  2 25  1  0  0  0  0
  2 26  1  0  0  0  0
  3 20  1  0  0  0  0
  3 18  1  0  0  0  0
  3  4  1  0  0  0  0
  4  5  1  0  0  0  0
  5 21  1  0  0  0  0
  5  6  1  0  0  0  0
  5 17  1  0  0  0  0
  6 10  1  0  0  0  0
  6  7  1  0  0  0  0
  7  8  2  0  0  0  0
  7 27  1  0  0  0  0
  8  9  1  0  0  0  0
  8 36  1  0  0  0  0
  9 15  1  0  0  0  0
  9 10  2  0  0  0  0
 10 11  1  0  0  0  0
 11 12  2  0  0  0  0
 12 13  1  0  0  0  0
 12 28  1  0  0  0  0
 13 14  1  0  0  0  0
 13 29  1  0  0  0  0
 14 15  1  0  0  0  0
 14 30  1  0  0  0  0
 14 31  1  0  0  0  0
 15 22  1  0  0  0  0
 15 16  1  0  0  0  0
 16 32  1  0  0  0  0
 17 18  1  0  0  0  0
 17 33  1  0  0  0  0
 17 34  1  0  0  0  0
 18 23  1  0  0  0  0
 18 19  1  0  0  0  0
 19 35  1  0  0  0  0
M  CHG  1   8   1
M  END
> <s_m_source_file>
AV-unprocessed.smi

> <i_m_source_file_index>
157

> <i_lp_mmshare_version>
43012

> <i_f3d_flags>
0

> <s_epik_input>
W09IXVtDSDJdW0NASF0xT1tDQEhdKFtDSDJdW0NAQEhdMVtPSF0pbihbY0hdbjIpYyhjMjMpTj1bQ0hdW05IXVtDSDJdW0NASF0zW09IXQ==

> <s_epik_cmdline>
J2VwaWtfcHl0aG9uJywgJy1waCcsICc3LjAnLCAnLXRuJywgJzgnLCAnLW1hJywgJzIwMCcsICctbWV0YWxfYmluZGluZycsICctaW1hZScsICc8aW5maWxlLm1hZT4nLCAnLW9tYWUnLCAnPG91dGZpbGUubWFlPic=

> <r_epik_Ionization_Penalty>
1.68594

> <r_epik_Ionization_Penalty_Charging>
0

> <r_epik_Ionization_Penalty_Neutral>
1.68594

> <r_epik_State_Penalty>
1.79006

> <r_epik_Charging_Adjusted_Penalty>
1.79006

> <i_epik_Tot_Q>
1

> <i_epik_Tot_abs_Q>
1

> <r_epik_Metal_State_Penalty>
5.85324

> <b_epik_Metal_Only>
0

> <s_epik_Chemistry_Notes>
This compound has an imine and may undergo hydrolysis. This compound contains an acetal/aminal-like group ( X-CH(R)-Y where X, Y are N, S, or O) that may be acid/base labile, releasing an aldehyde.

> <s_lp_Force_Field>
OPLS_2005

> <r_lp_Energy>
53.7485

> <b_lp_Chiralities_Consistent>
1

> <s_lp_Variant>
AV-unprocessed.smi:157-32

> <Gold.Version>
5.8.1

> <Gold.Id.Protein>
6NUR|6NUR_protein|mol2

> <Gold.PLP.Fitness>
50.6158

> <Gold.PLP.PLP>
-34.1523

> <Gold.PLP.part.hbond>
-5.2651

> <Gold.PLP.part.metal>
0.0000

> <Gold.PLP.part.buried>
-5.2545

> <Gold.PLP.part.nonpolar>
-23.4286

> <Gold.PLP.part.repulsive>
0.0776

> <Gold.PLP.ligand.clash>
0.0000

> <Gold.PLP.ligand.torsion>
0.0242

> <Gold.PLP.Chemscore.Hbond>
5.4960

> <Gold.PLP.Chemscore.CHOScore>
0.0000

> <Gold.PLP.Chemscore.Metal>
0.0000

> <Gold.Chemscore.Hbonds>
donor molecule, donor type, donor heavy atom, donor atom, acceptor molecule, acceptor atom, score
      L1  H     8    36       P1  8028  2.00
      L1  H    16    32       P1  8029  1.00
      P1  H  6896  6908       L1    19  0.66
      P1  H  7997  8008       L1     4  1.00
      P1  H  7997  8010       L1     1  0.46

> <Gold.PLP.Chemscore.Internal.Correction>
0.0240

> <Gold.Rescore>
     Score         DG    S(hbond)    S(metal)    S(lipo)     H(rot)  DE(clash)    DE(int)     intcor
     15.56     -16.23       4.18        0.00      52.88       3.67       0.00       0.67       ----

> <Gold.Chemscore.Fitness>
15.5617

> <Gold.Chemscore.DG>
-16.2335

> <Gold.Chemscore.ZeroCoef>
-5.4800

> <Gold.Chemscore.Hbond>
4.1772

> <Gold.Chemscore.Metal>
0.0000

> <Gold.Chemscore.Lipo>
52.8751

> <Gold.Chemscore.Internal_Hbond>
0.0000

> <Gold.Chemscore.DEClash>
0.0000

> <Gold.Chemscore.DEInternal>
0.6718

> <Gold.Chemscore.Rot>
3.6659

> <Gold.Chemscore.Internal.Correction>
   9.000000E+99

> <Gold.Chemscore.Hbonds>
donor molecule, donor type, donor heavy atom, donor atom, acceptor molecule, acceptor atom, score
      L1  H     8    36       P1  8028  1.00
      L1  H    16    32       P1  8029  0.24
      P1  H  6896  6908       L1    19  0.64
      P1  H  7997  8008       L1     4  0.87
      P1  H  7997  8010       L1     1  0.47

> <Gold.Chemscore.Hbond.Weighted>
-13.9519

> <Gold.Chemscore.Metal.Weighted>
-0.0000

> <Gold.Chemscore.Lipo.Weighted>
-6.1864

> <Gold.Chemscore.Internal_Hbond.Weighted>
0.0000

> <Gold.Chemscore.DEClash.Weighted>
0.0000

> <Gold.Chemscore.DEInternal.Weighted>
0.6718

> <Gold.Chemscore.Rot.Weighted>
9.3848

> <Gold.Chemscore.Internal.Correction.Weighted>
   9.000000E+99

> <Gold.Protein.RotatedTorsions>
[ 6907 6896 6895 6894 ] final  -99.27 input  -60.11 | X-H torsion
[ 7974 7965 7964 7962 ] final -177.99 input  175.53 | X-H torsion
[ 8008 7997 7996 7995 ] final  -62.83 input   59.86 | X-H torsion
[ 10167 10162 10161 10158 ] final   69.60 input  -65.29 | X-H torsion
[ 10718 10713 10712 10709 ] final  -34.70 input   66.30 | X-H torsion
[ 10763 10752 10751 10750 ] final   15.51 input  -60.55 | X-H torsion
[ 11005 11000 10999 10996 ] final  173.14 input  -57.11 | X-H torsion

> <Gold.Protein.ActiveResidues>
 VAL166  LYS551  ARG553  GLY616  TRP617  ASP618  TYR619  PRO620  LYS621  CYS622 
 ASP623  PHE694  ASN695  SER759  ASP760  ASP761  ALA762  ILE779  LEU786  VAL792 
 PHE793  MET794  SER795  GLU796  ALA797  LYS798  CYS799  TRP800  GLU811  SER814 

> <Gold.Protein.RotatedAtoms>
  150.7074  134.1066  159.3984 H   0  0  0  0  0  0  0  0  0  0  0  0  # atno 6907 bound_to 6896
  151.9053  135.0359  160.0519 H   0  0  0  0  0  0  0  0  0  0  0  0  # atno 6908 bound_to 6896
  152.2380  133.5077  159.5290 H   0  0  0  0  0  0  0  0  0  0  0  0  # atno 6909 bound_to 6896
  144.7129  140.0936  143.6420 H   0  0  0  0  0  0  0  0  0  0  0  0  # atno 7974 bound_to 7965
  154.4521  140.0988  156.6648 H   0  0  0  0  0  0  0  0  0  0  0  0  # atno 8008 bound_to 7997
  155.5253  140.3480  155.4396 H   0  0  0  0  0  0  0  0  0  0  0  0  # atno 8009 bound_to 7997
  156.0702  140.1347  156.9827 H   0  0  0  0  0  0  0  0  0  0  0  0  # atno 8010 bound_to 7997
  140.0660  144.5193  150.7261 H   0  0  0  0  0  0  0  0  0  0  0  0  # atno 10167 bound_to 10162
  156.3474  130.4303  149.7734 H   0  0  0  0  0  0  0  0  0  0  0  0  # atno 10718 bound_to 10713
  153.1518  135.6780  153.8871 H   0  0  0  0  0  0  0  0  0  0  0  0  # atno 10763 bound_to 10752
  153.8295  135.3119  155.3418 H   0  0  0  0  0  0  0  0  0  0  0  0  # atno 10764 bound_to 10752
  154.7868  135.4857  154.0050 H   0  0  0  0  0  0  0  0  0  0  0  0  # atno 10765 bound_to 10752
  140.3373  134.7306  157.4177 H   0  0  0  0  0  0  0  0  0  0  0  0  # atno 11005 bound_to 11000
  145.9598  139.2793  143.1162 LP  0  0  0  0  0  0  0  0  0  0  0  0  # atno 17320 bound_to 7965
  145.9233  140.9100  143.0394 LP  0  0  0  0  0  0  0  0  0  0  0  0  # atno 17321 bound_to 7965
  140.7149  143.2536  151.4466 LP  0  0  0  0  0  0  0  0  0  0  0  0  # atno 17342 bound_to 10162
  139.5865  144.1594  152.2035 LP  0  0  0  0  0  0  0  0  0  0  0  0  # atno 17343 bound_to 10162
  156.4947  130.8101  151.3109 LP  0  0  0  0  0  0  0  0  0  0  0  0  # atno 17370 bound_to 10713
  157.7456  130.9964  150.2778 LP  0  0  0  0  0  0  0  0  0  0  0  0  # atno 17371 bound_to 10713
  140.0810  134.5731  155.8540 LP  0  0  0  0  0  0  0  0  0  0  0  0  # atno 17394 bound_to 11000
  141.2048  133.6642  156.6141 LP  0  0  0  0  0  0  0  0  0  0  0  0  # atno 17395 bound_to 11000

$$$$
