AV-unprocessed.smi:2148|AV-procd|sdf|8747|dock1
  -GOLD-   2272011523D 1   1.00000     0.00000
 Structure written by MMmdl.
 44 45  0  0  0  0  0  0  0  0  1 V2000
  154.1738  136.5961  164.8100 C   0  0  0  0  0  0  0  0  0  0  0  0
  155.7734  135.9506  164.2489 S   0  0  0  0  0  0  0  0  0  0  0  0
  155.2796  135.0476  162.7499 C   0  0  1  0  0  0  0  0  0  0  0  0
  154.3110  133.9094  163.1107 C   0  0  0  0  0  0  0  0  0  0  0  0
  154.6810  135.9799  161.6876 C   0  0  0  0  0  0  0  0  0  0  0  0
  154.1485  135.5057  160.6837 O   0  0  0  0  0  0  0  0  0  0  0  0
  154.7614  137.2971  161.9522 N   0  0  0  0  0  0  0  0  0  0  0  0
  154.2985  138.3801  161.1592 C   0  0  0  0  0  0  0  0  0  0  0  0
  154.7621  139.7089  161.2905 C   0  0  0  0  0  0  0  0  0  0  0  0
  154.2093  140.7075  160.4661 C   0  0  0  0  0  0  0  0  0  0  0  0
  153.2025  140.3585  159.5358 C   0  0  0  0  0  0  0  0  0  0  0  0
  152.6358  141.3483  158.7050 N   0  0  0  0  0  0  0  0  0  0  0  0
  152.4403  142.6515  159.3332 C   0  0  0  0  0  0  0  0  0  0  0  0
  152.1107  143.7182  158.2716 C   0  0  2  0  0  0  0  0  0  0  0  0
  151.7668  145.0702  158.9049 C   0  0  0  0  0  0  0  0  0  0  0  0
  150.9906  143.2886  157.5022 O   0  0  0  0  0  0  0  0  0  0  0  0
  151.2426  142.0710  156.8063 C   0  0  2  0  0  0  0  0  0  0  0  0
  150.0226  141.7512  155.9363 C   0  0  0  0  0  0  0  0  0  0  0  0
  151.5317  140.9588  157.8313 C   0  0  0  0  0  0  0  0  0  0  0  0
  152.7555  139.0840  159.4181 N   0  0  0  0  0  0  0  0  0  0  0  0
  153.2844  138.1307  160.2135 C   0  0  0  0  0  0  0  0  0  0  0  0
  154.3133  137.2221  165.6914 H   0  0  0  0  0  0  0  0  0  0  0  0
  153.4973  135.7830  165.0729 H   0  0  0  0  0  0  0  0  0  0  0  0
  153.7099  137.1993  164.0294 H   0  0  0  0  0  0  0  0  0  0  0  0
  156.1793  134.5874  162.3379 H   0  0  0  0  0  0  0  0  0  0  0  0
  153.9797  133.3715  162.2216 H   0  0  0  0  0  0  0  0  0  0  0  0
  153.4249  134.2833  163.6255 H   0  0  0  0  0  0  0  0  0  0  0  0
  154.7916  133.1862  163.7700 H   0  0  0  0  0  0  0  0  0  0  0  0
  155.1292  137.5463  162.8590 H   0  0  0  0  0  0  0  0  0  0  0  0
  155.5164  139.9812  162.0127 H   0  0  0  0  0  0  0  0  0  0  0  0
  154.5673  141.7229  160.5500 H   0  0  0  0  0  0  0  0  0  0  0  0
  151.6240  142.5723  160.0528 H   0  0  0  0  0  0  0  0  0  0  0  0
  153.3233  142.9633  159.8900 H   0  0  0  0  0  0  0  0  0  0  0  0
  152.9678  143.8532  157.6093 H   0  0  0  0  0  0  0  0  0  0  0  0
  152.5999  145.4498  159.4968 H   0  0  0  0  0  0  0  0  0  0  0  0
  150.8994  144.9888  159.5605 H   0  0  0  0  0  0  0  0  0  0  0  0
  151.5376  145.8116  158.1393 H   0  0  0  0  0  0  0  0  0  0  0  0
  152.1075  142.2036  156.1537 H   0  0  0  0  0  0  0  0  0  0  0  0
  150.1732  140.8297  155.3736 H   0  0  0  0  0  0  0  0  0  0  0  0
  149.8355  142.5513  155.2198 H   0  0  0  0  0  0  0  0  0  0  0  0
  149.1253  141.6306  156.5439 H   0  0  0  0  0  0  0  0  0  0  0  0
  151.7779  140.0348  157.3064 H   0  0  0  0  0  0  0  0  0  0  0  0
  150.6446  140.7653  158.4363 H   0  0  0  0  0  0  0  0  0  0  0  0
  152.8871  137.1342  160.0847 H   0  0  0  0  0  0  0  0  0  0  0  0
  1  2  1  0  0  0  0
  1 22  1  0  0  0  0
  1 23  1  0  0  0  0
  1 24  1  0  0  0  0
  2  3  1  0  0  0  0
  3  4  1  0  0  0  0
  3  5  1  0  0  0  0
  3 25  1  0  0  0  0
  4 26  1  0  0  0  0
  4 27  1  0  0  0  0
  4 28  1  0  0  0  0
  5  6  2  0  0  0  0
  5  7  1  0  0  0  0
  7  8  1  0  0  0  0
  7 29  1  0  0  0  0
  8 21  1  0  0  0  0
  8  9  2  0  0  0  0
  9 10  1  0  0  0  0
  9 30  1  0  0  0  0
 10 11  2  0  0  0  0
 10 31  1  0  0  0  0
 11 12  1  0  0  0  0
 11 20  1  0  0  0  0
 12 19  1  0  0  0  0
 12 13  1  0  0  0  0
 13 14  1  0  0  0  0
 13 32  1  0  0  0  0
 13 33  1  0  0  0  0
 14 15  1  0  0  0  0
 14 16  1  0  0  0  0
 14 34  1  0  0  0  0
 15 35  1  0  0  0  0
 15 36  1  0  0  0  0
 15 37  1  0  0  0  0
 16 17  1  0  0  0  0
 17 18  1  0  0  0  0
 17 19  1  0  0  0  0
 17 38  1  0  0  0  0
 18 39  1  0  0  0  0
 18 40  1  0  0  0  0
 18 41  1  0  0  0  0
 19 42  1  0  0  0  0
 19 43  1  0  0  0  0
 20 21  2  0  0  0  0
 21 44  1  0  0  0  0
M  END
> <s_m_source_file>
AV-unprocessed.smi

> <i_m_source_file_index>
2148

> <i_lp_mmshare_version>
43012

> <i_f3d_flags>
0

> <s_epik_input>
W0NIM11TW0NASF0oW0NIM10pQyg9TylbTkhdYzFbY0hdW2NIXWMobltjSF0xKU4yW0NIMl1bQ0BASF0oW0NIM10pT1tDQEBIXShbQ0gzXSlbQ0gyXTI=

> <s_epik_cmdline>
J2VwaWtfcHl0aG9uJywgJy1waCcsICc3LjAnLCAnLXRuJywgJzgnLCAnLW1hJywgJzIwMCcsICctbWV0YWxfYmluZGluZycsICctaW1hZScsICc8aW5maWxlLm1hZT4nLCAnLW9tYWUnLCAnPG91dGZpbGUubWFlPic=

> <r_lp_tautomer_probability>
1

> <r_epik_Ionization_Penalty>
0.000646494

> <r_epik_Ionization_Penalty_Charging>
0

> <r_epik_Ionization_Penalty_Neutral>
0.000646494

> <r_epik_State_Penalty>
0.000408447

> <r_epik_Charging_Adjusted_Penalty>
0.000408447

> <i_epik_Tot_Q>
0

> <i_epik_Tot_abs_Q>
0

> <r_epik_Metal_State_Penalty>
-0

> <b_epik_Metal_Only>
0

> <s_lp_Force_Field>
OPLS_2005

> <r_lp_Energy>
22.7576

> <b_lp_Chiralities_Consistent>
1

> <s_lp_Variant>
AV-unprocessed.smi:2148-2

> <Gold.Version>
5.8.1

> <Gold.Id.Protein>
6NUR|6NUR_protein|mol2

> <Gold.PLP.Fitness>
40.2879

> <Gold.PLP.PLP>
-38.4002

> <Gold.PLP.part.hbond>
-1.0000

> <Gold.PLP.part.metal>
0.0000

> <Gold.PLP.part.buried>
-3.8271

> <Gold.PLP.part.nonpolar>
-34.5968

> <Gold.PLP.part.repulsive>
0.3311

> <Gold.PLP.ligand.clash>
0.0000

> <Gold.PLP.ligand.torsion>
0.6413

> <Gold.PLP.Chemscore.Hbond>
0.9425

> <Gold.PLP.Chemscore.CHOScore>
0.0000

> <Gold.PLP.Chemscore.Metal>
0.0000

> <Gold.Chemscore.Hbonds>
donor molecule, donor type, donor heavy atom, donor atom, acceptor molecule, acceptor atom, score
      P1  H  6896  6908       L1     6  1.00

> <Gold.PLP.Chemscore.Internal.Correction>
0.3427

> <Gold.Rescore>
     Score         DG    S(hbond)    S(metal)    S(lipo)     H(rot)  DE(clash)    DE(int)     intcor
     16.41     -19.00       0.98        0.00     115.32       1.27       0.41       2.18       ----

> <Gold.Chemscore.Fitness>
16.4068

> <Gold.Chemscore.DG>
-18.9976

> <Gold.Chemscore.ZeroCoef>
-5.4800

> <Gold.Chemscore.Hbond>
0.9779

> <Gold.Chemscore.Metal>
0.0000

> <Gold.Chemscore.Lipo>
115.3153

> <Gold.Chemscore.Internal_Hbond>
0.0000

> <Gold.Chemscore.DEClash>
0.4067

> <Gold.Chemscore.DEInternal>
2.1840

> <Gold.Chemscore.Rot>
1.2659

> <Gold.Chemscore.Internal.Correction>
   9.000000E+99

> <Gold.Chemscore.Hbonds>
donor molecule, donor type, donor heavy atom, donor atom, acceptor molecule, acceptor atom, score
      P1  H  6896  6908       L1     6  0.96

> <Gold.Chemscore.Hbond.Weighted>
-3.2662

> <Gold.Chemscore.Metal.Weighted>
-0.0000

> <Gold.Chemscore.Lipo.Weighted>
-13.4919

> <Gold.Chemscore.Internal_Hbond.Weighted>
0.0000

> <Gold.Chemscore.DEClash.Weighted>
0.4067

> <Gold.Chemscore.DEInternal.Weighted>
2.1840

> <Gold.Chemscore.Rot.Weighted>
3.2406

> <Gold.Chemscore.Internal.Correction.Weighted>
   9.000000E+99

> <Gold.Protein.RotatedTorsions>
[ 6907 6896 6895 6894 ] final  -64.30 input  -60.11 | X-H torsion
[ 7974 7965 7964 7962 ] final   34.73 input  175.53 | X-H torsion
[ 8008 7997 7996 7995 ] final  148.58 input   59.86 | X-H torsion
[ 10167 10162 10161 10158 ] final   -5.09 input  -65.29 | X-H torsion
[ 10718 10713 10712 10709 ] final   40.55 input   66.30 | X-H torsion
[ 10763 10752 10751 10750 ] final  -41.96 input  -60.55 | X-H torsion
[ 11005 11000 10999 10996 ] final  -86.14 input  -57.11 | X-H torsion

> <Gold.Protein.ActiveResidues>
 VAL166  LYS551  ARG553  GLY616  TRP617  ASP618  TYR619  PRO620  LYS621  CYS622 
 ASP623  PHE694  ASN695  SER759  ASP760  ASP761  ALA762  ILE779  LEU786  VAL792 
 PHE793  MET794  SER795  GLU796  ALA797  LYS798  CYS799  TRP800  GLU811  SER814 

> <Gold.Protein.RotatedAtoms>
  150.7594  134.6317  159.6189 H   0  0  0  0  0  0  0  0  0  0  0  0  # atno 6907 bound_to 6896
  152.3593  134.6892  160.0221 H   0  0  0  0  0  0  0  0  0  0  0  0  # atno 6908 bound_to 6896
  151.7288  133.3281  159.3371 H   0  0  0  0  0  0  0  0  0  0  0  0  # atno 6909 bound_to 6896
  146.1332  139.6232  142.9212 H   0  0  0  0  0  0  0  0  0  0  0  0  # atno 7974 bound_to 7965
  156.2786  140.2125  156.5721 H   0  0  0  0  0  0  0  0  0  0  0  0  # atno 8008 bound_to 7997
  154.7127  140.0510  157.0588 H   0  0  0  0  0  0  0  0  0  0  0  0  # atno 8009 bound_to 7997
  155.0584  140.3164  155.4671 H   0  0  0  0  0  0  0  0  0  0  0  0  # atno 8010 bound_to 7997
  140.6951  143.6348  150.8490 H   0  0  0  0  0  0  0  0  0  0  0  0  # atno 10167 bound_to 10162
  157.3834  130.7766  149.7211 H   0  0  0  0  0  0  0  0  0  0  0  0  # atno 10718 bound_to 10713
  153.9711  135.6728  153.4747 H   0  0  0  0  0  0  0  0  0  0  0  0  # atno 10763 bound_to 10752
  153.0792  135.4932  154.8465 H   0  0  0  0  0  0  0  0  0  0  0  0  # atno 10764 bound_to 10752
  154.7218  135.3119  154.8995 H   0  0  0  0  0  0  0  0  0  0  0  0  # atno 10765 bound_to 10752
  141.1633  133.7438  156.9118 H   0  0  0  0  0  0  0  0  0  0  0  0  # atno 11005 bound_to 11000
  145.5213  141.0432  143.2434 LP  0  0  0  0  0  0  0  0  0  0  0  0  # atno 17320 bound_to 7965
  144.7713  139.6729  143.7194 LP  0  0  0  0  0  0  0  0  0  0  0  0  # atno 17321 bound_to 7965
  140.0065  143.5688  152.2855 LP  0  0  0  0  0  0  0  0  0  0  0  0  # atno 17342 bound_to 10162
  139.6396  144.7653  151.2365 LP  0  0  0  0  0  0  0  0  0  0  0  0  # atno 17343 bound_to 10162
  155.9781  130.4055  150.3670 LP  0  0  0  0  0  0  0  0  0  0  0  0  # atno 17370 bound_to 10713
  157.1777  131.0384  151.2764 LP  0  0  0  0  0  0  0  0  0  0  0  0  # atno 17371 bound_to 10713
  140.1512  134.9229  157.2594 LP  0  0  0  0  0  0  0  0  0  0  0  0  # atno 17394 bound_to 11000
  140.2721  134.3448  155.7370 LP  0  0  0  0  0  0  0  0  0  0  0  0  # atno 17395 bound_to 11000

$$$$
