AV-unprocessed.smi:21|AV-procd|sdf|121|dock2
  -GOLD-   2262015293D 1   1.00000     0.00000
 Structure written by MMmdl.
 62 65  0  0  0  0  0  0  0  0  2 V2000
  147.4774  130.3219  153.6708 C   0  0  0  0  0  0  0  0  0  0  0  0
  148.5031  131.2018  154.1010 O   0  0  0  0  0  0  0  0  0  0  0  0
  148.0137  132.4083  154.6671 C   0  0  1  0  0  0  0  0  0  0  0  0
  149.1689  133.2913  155.1178 C   0  0  0  0  0  0  0  0  0  0  0  0
  148.5416  134.6875  155.1520 C   0  0  1  0  0  0  0  0  0  0  0  0
  149.5745  135.8267  155.0205 C   0  0  0  0  0  0  0  0  0  0  0  0
  149.1765  137.0590  155.6978 N   0  0  0  0  0  0  0  0  0  0  0  0
  148.4700  136.8842  156.9587 C   0  0  0  0  0  0  0  0  0  0  0  0
  150.1522  137.9884  155.7942 C   0  0  0  0  0  0  0  0  0  0  0  0
  151.4041  137.6137  155.4345 N   0  0  0  0  0  0  0  0  0  0  0  0
  152.4119  138.4878  155.5186 C   0  0  0  0  0  0  0  0  0  0  0  0
  152.3834  139.7584  155.9277 N   0  0  0  0  0  0  0  0  0  0  0  0
  151.1232  140.1363  156.2881 C   0  0  0  0  0  0  0  0  0  0  0  0
  149.9578  139.3210  156.2540 C   0  0  0  0  0  0  0  0  0  0  0  0
  148.8572  140.0454  156.6960 N   0  0  0  0  0  0  0  0  0  0  0  0
  149.3425  141.2270  156.9650 C   0  0  0  0  0  0  0  0  0  0  0  0
  150.6938  141.3699  156.7449 N   0  0  0  0  0  0  0  0  0  0  0  0
  151.4817  142.5716  156.9602 C   0  0  0  0  0  0  0  0  0  0  0  0
  151.5767  142.9831  158.4515 C   0  0  2  0  0  0  0  0  0  0  0  0
  151.4902  144.5236  158.6099 C   0  0  0  0  0  0  0  0  0  0  0  0
  150.1756  144.9533  158.8932 O   0  0  0  0  0  0  0  0  0  0  0  0
  152.8646  142.3985  159.0960 C   0  0  2  0  0  0  0  0  0  0  0  0
  152.9474  140.8801  159.0989 C   0  0  0  0  0  0  0  0  0  0  0  0
  154.0154  140.6067  160.1521 C   0  0  0  0  0  0  0  0  0  0  0  0
  153.9109  141.6677  161.0929 O   0  0  0  0  0  0  0  0  0  0  0  0
  153.0374  142.6750  160.5941 C   0  0  0  0  0  0  0  0  0  0  0  0
  147.5741  134.7026  154.0299 N   0  3  2  0  0  0  0  0  0  0  0  0
  146.3700  135.5239  154.2829 C   0  0  0  0  0  0  0  0  0  0  0  0
  147.2762  133.2989  153.6582 C   0  0  0  0  0  0  0  0  0  0  0  0
  147.3731  132.2032  155.5272 H   0  0  0  0  0  0  0  0  0  0  0  0
  147.9776  134.7838  156.0819 H   0  0  0  0  0  0  0  0  0  0  0  0
  147.9231  129.4123  153.2681 H   0  0  0  0  0  0  0  0  0  0  0  0
  146.8681  130.7698  152.8852 H   0  0  0  0  0  0  0  0  0  0  0  0
  146.8277  130.0379  154.4997 H   0  0  0  0  0  0  0  0  0  0  0  0
  149.5822  132.9866  156.0798 H   0  0  0  0  0  0  0  0  0  0  0  0
  149.9728  133.2557  154.3805 H   0  0  0  0  0  0  0  0  0  0  0  0
  150.5302  135.4985  155.4312 H   0  0  0  0  0  0  0  0  0  0  0  0
  149.7588  136.0420  153.9677 H   0  0  0  0  0  0  0  0  0  0  0  0
  148.2206  137.8471  157.4069 H   0  0  0  0  0  0  0  0  0  0  0  0
  149.0723  136.3185  157.6706 H   0  0  0  0  0  0  0  0  0  0  0  0
  147.5390  136.3410  156.7957 H   0  0  0  0  0  0  0  0  0  0  0  0
  153.3793  138.1173  155.2126 H   0  0  0  0  0  0  0  0  0  0  0  0
  148.7244  142.0345  157.3305 H   0  0  0  0  0  0  0  0  0  0  0  0
  152.4708  142.3784  156.5461 H   0  0  0  0  0  0  0  0  0  0  0  0
  151.0549  143.3840  156.3709 H   0  0  0  0  0  0  0  0  0  0  0  0
  150.7146  142.5457  158.9582 H   0  0  0  0  0  0  0  0  0  0  0  0
  152.1665  144.8712  159.3914 H   0  0  0  0  0  0  0  0  0  0  0  0
  151.7798  145.0381  157.6952 H   0  0  0  0  0  0  0  0  0  0  0  0
  149.8313  145.3904  158.1292 H   0  0  0  0  0  0  0  0  0  0  0  0
  153.7387  142.7871  158.5703 H   0  0  0  0  0  0  0  0  0  0  0  0
  151.9956  140.4477  159.4113 H   0  0  0  0  0  0  0  0  0  0  0  0
  153.2134  140.4578  158.1295 H   0  0  0  0  0  0  0  0  0  0  0  0
  153.8894  139.6352  160.6302 H   0  0  0  0  0  0  0  0  0  0  0  0
  155.0090  140.6380  159.7037 H   0  0  0  0  0  0  0  0  0  0  0  0
  153.4417  143.6676  160.7928 H   0  0  0  0  0  0  0  0  0  0  0  0
  152.0838  142.5861  161.1162 H   0  0  0  0  0  0  0  0  0  0  0  0
  145.7861  135.1215  155.1118 H   0  0  0  0  0  0  0  0  0  0  0  0
  145.7343  135.5499  153.3974 H   0  0  0  0  0  0  0  0  0  0  0  0
  146.6477  136.5500  154.5263 H   0  0  0  0  0  0  0  0  0  0  0  0
  147.6648  133.1356  152.6524 H   0  0  0  0  0  0  0  0  0  0  0  0
  146.2074  133.0807  153.6358 H   0  0  0  0  0  0  0  0  0  0  0  0
  148.0527  135.1072  153.2377 H   0  0  0  0  0  0  0  0  0  0  0  0
  1  2  1  0  0  0  0
  1 32  1  0  0  0  0
  1 33  1  0  0  0  0
  1 34  1  0  0  0  0
  2  3  1  0  0  0  0
  3 30  1  0  0  0  0
  3 29  1  0  0  0  0
  3  4  1  0  0  0  0
  4  5  1  0  0  0  0
  4 35  1  0  0  0  0
  4 36  1  0  0  0  0
  5 31  1  0  0  0  0
  5  6  1  0  0  0  0
  5 27  1  0  0  0  0
  6  7  1  0  0  0  0
  6 37  1  0  0  0  0
  6 38  1  0  0  0  0
  7  8  1  0  0  0  0
  7  9  1  0  0  0  0
  8 39  1  0  0  0  0
  8 40  1  0  0  0  0
  8 41  1  0  0  0  0
  9 14  1  0  0  0  0
  9 10  2  0  0  0  0
 10 11  1  0  0  0  0
 11 12  2  0  0  0  0
 11 42  1  0  0  0  0
 12 13  1  0  0  0  0
 13 17  1  0  0  0  0
 13 14  2  0  0  0  0
 14 15  1  0  0  0  0
 15 16  2  0  0  0  0
 16 17  1  0  0  0  0
 16 43  1  0  0  0  0
 17 18  1  0  0  0  0
 18 19  1  0  0  0  0
 18 44  1  0  0  0  0
 18 45  1  0  0  0  0
 19 20  1  0  0  0  0
 19 22  1  0  0  0  0
 19 46  1  0  0  0  0
 20 21  1  0  0  0  0
 20 47  1  0  0  0  0
 20 48  1  0  0  0  0
 21 49  1  0  0  0  0
 22 26  1  0  0  0  0
 22 23  1  0  0  0  0
 22 50  1  0  0  0  0
 23 24  1  0  0  0  0
 23 51  1  0  0  0  0
 23 52  1  0  0  0  0
 24 25  1  0  0  0  0
 24 53  1  0  0  0  0
 24 54  1  0  0  0  0
 25 26  1  0  0  0  0
 26 55  1  0  0  0  0
 26 56  1  0  0  0  0
 27 28  1  0  0  0  0
 27 29  1  0  0  0  0
 27 62  1  0  0  0  0
 28 57  1  0  0  0  0
 28 58  1  0  0  0  0
 28 59  1  0  0  0  0
 29 60  1  0  0  0  0
 29 61  1  0  0  0  0
M  CHG  1  27   1
M  END
> <s_m_source_file>
AV-unprocessed.smi

> <i_m_source_file_index>
21

> <i_lp_mmshare_version>
43012

> <i_f3d_flags>
0

> <s_epik_input>
W0NIM11PW0NASF0xW0NIMl1bQ0BIXShOKFtDSDNdKVtDSDJdMSlbQ0gyXU4oW0NIM10pYyhuW2NIXW4yKWMoYzIzKW5bY0hdbjNbQ0gyXVtDQEhdKFtDSDJdW09IXSlbQ0BASF00W0NIMl1bQ0gyXU9bQ0gyXTQ=

> <s_epik_cmdline>
J2VwaWtfcHl0aG9uJywgJy1waCcsICc3LjAnLCAnLXRuJywgJzgnLCAnLW1hJywgJzIwMCcsICctbWV0YWxfYmluZGluZycsICctaW1hZScsICc8aW5maWxlLm1hZT4nLCAnLW9tYWUnLCAnPG91dGZpbGUubWFlPic=

> <r_lp_tautomer_probability>
1

> <r_epik_Ionization_Penalty>
0.0157465

> <r_epik_Ionization_Penalty_Charging>
0.015354

> <r_epik_Ionization_Penalty_Neutral>
0.000392529

> <r_epik_State_Penalty>
0.0120612

> <r_epik_Charging_Adjusted_Penalty>
0.0274152

> <i_epik_Tot_Q>
1

> <i_epik_Tot_abs_Q>
1

> <r_epik_Metal_State_Penalty>
0.0121253

> <b_epik_Metal_Only>
0

> <s_lp_Force_Field>
OPLS_2005

> <r_lp_Energy>
60.2547

> <b_lp_Chiralities_Consistent>
1

> <s_lp_Variant>
AV-unprocessed.smi:21-1

> <Gold.Version>
5.8.1

> <Gold.Id.Protein>
6NUR|6NUR_protein|mol2

> <Gold.PLP.Fitness>
56.4149

> <Gold.PLP.PLP>
-46.5350

> <Gold.PLP.part.hbond>
-3.4945

> <Gold.PLP.part.metal>
0.0000

> <Gold.PLP.part.buried>
-6.7063

> <Gold.PLP.part.nonpolar>
-37.3061

> <Gold.PLP.part.repulsive>
0.2344

> <Gold.PLP.ligand.clash>
0.0000

> <Gold.PLP.ligand.torsion>
1.7066

> <Gold.PLP.Chemscore.Hbond>
4.1636

> <Gold.PLP.Chemscore.CHOScore>
0.0000

> <Gold.PLP.Chemscore.Metal>
0.0000

> <Gold.Chemscore.Hbonds>
donor molecule, donor type, donor heavy atom, donor atom, acceptor molecule, acceptor atom, score
      L1  H    21    49       P1  8029  0.52
      L1  H    27    62       P1  7948  2.00
      P1  H  7997  8008       L1    12  0.89

> <Gold.PLP.Chemscore.Internal.Correction>
0.8022

> <Gold.Rescore>
     Score         DG    S(hbond)    S(metal)    S(lipo)     H(rot)  DE(clash)    DE(int)     intcor
     13.88     -16.16       1.98        0.00     107.87       3.35       0.61       1.67       ----

> <Gold.Chemscore.Fitness>
13.8837

> <Gold.Chemscore.DG>
-16.1569

> <Gold.Chemscore.ZeroCoef>
-5.4800

> <Gold.Chemscore.Hbond>
1.9819

> <Gold.Chemscore.Metal>
0.0000

> <Gold.Chemscore.Lipo>
107.8709

> <Gold.Chemscore.Internal_Hbond>
0.0000

> <Gold.Chemscore.DEClash>
0.6062

> <Gold.Chemscore.DEInternal>
1.6671

> <Gold.Chemscore.Rot>
3.3452

> <Gold.Chemscore.Internal.Correction>
   9.000000E+99

> <Gold.Chemscore.Hbonds>
donor molecule, donor type, donor heavy atom, donor atom, acceptor molecule, acceptor atom, score
      L1  H    21    49       P1  8029  0.15
      L1  H    27    62       P1  7948  0.97
      P1  H  7997  8008       L1    12  0.33

> <Gold.Chemscore.Hbond.Weighted>
-6.6197

> <Gold.Chemscore.Metal.Weighted>
-0.0000

> <Gold.Chemscore.Lipo.Weighted>
-12.6209

> <Gold.Chemscore.Internal_Hbond.Weighted>
0.0000

> <Gold.Chemscore.DEClash.Weighted>
0.6062

> <Gold.Chemscore.DEInternal.Weighted>
1.6671

> <Gold.Chemscore.Rot.Weighted>
8.5636

> <Gold.Chemscore.Internal.Correction.Weighted>
   9.000000E+99

> <Gold.Protein.RotatedTorsions>
[ 6907 6896 6895 6894 ] final -139.29 input  -60.11 | X-H torsion
[ 7974 7965 7964 7962 ] final  -46.93 input  175.53 | X-H torsion
[ 8008 7997 7996 7995 ] final  -53.51 input   59.86 | X-H torsion
[ 10167 10162 10161 10158 ] final  154.64 input  -65.29 | X-H torsion
[ 10718 10713 10712 10709 ] final  -75.35 input   66.30 | X-H torsion
[ 10763 10752 10751 10750 ] final   66.89 input  -60.55 | X-H torsion
[ 11005 11000 10999 10996 ] final  -20.91 input  -57.11 | X-H torsion

> <Gold.Protein.ActiveResidues>
 VAL166  LYS551  ARG553  GLY616  TRP617  ASP618  TYR619  PRO620  LYS621  CYS622 
 ASP623  PHE694  ASN695  SER759  ASP760  ASP761  ALA762  ILE779  LEU786  VAL792 
 PHE793  MET794  SER795  GLU796  ALA797  LYS798  CYS799  TRP800  GLU811  SER814 

> <Gold.Protein.RotatedAtoms>
  151.0459  133.5666  159.2646 H   0  0  0  0  0  0  0  0  0  0  0  0  # atno 6907 bound_to 6896
  151.2695  135.0679  159.9138 H   0  0  0  0  0  0  0  0  0  0  0  0  # atno 6908 bound_to 6896
  152.5373  134.0191  159.8027 H   0  0  0  0  0  0  0  0  0  0  0  0  # atno 6909 bound_to 6896
  145.9669  140.7423  142.9430 H   0  0  0  0  0  0  0  0  0  0  0  0  # atno 7974 bound_to 7965
  154.4135  140.1198  156.5165 H   0  0  0  0  0  0  0  0  0  0  0  0  # atno 8008 bound_to 7997
  155.6746  140.3496  155.4812 H   0  0  0  0  0  0  0  0  0  0  0  0  # atno 8009 bound_to 7997
  155.9604  140.1122  157.0890 H   0  0  0  0  0  0  0  0  0  0  0  0  # atno 8010 bound_to 7997
  139.4823  144.5169  151.7937 H   0  0  0  0  0  0  0  0  0  0  0  0  # atno 10167 bound_to 10162
  156.0210  130.4439  150.3030 H   0  0  0  0  0  0  0  0  0  0  0  0  # atno 10718 bound_to 10713
  153.0160  135.5304  154.6894 H   0  0  0  0  0  0  0  0  0  0  0  0  # atno 10763 bound_to 10752
  154.6033  135.2870  155.0514 H   0  0  0  0  0  0  0  0  0  0  0  0  # atno 10764 bound_to 10752
  154.1563  135.6555  153.5028 H   0  0  0  0  0  0  0  0  0  0  0  0  # atno 10765 bound_to 10752
  140.8511  133.7856  155.9967 H   0  0  0  0  0  0  0  0  0  0  0  0  # atno 11005 bound_to 11000
  144.6827  140.2683  143.7309 LP  0  0  0  0  0  0  0  0  0  0  0  0  # atno 17320 bound_to 7965
  145.7961  139.1946  143.2075 LP  0  0  0  0  0  0  0  0  0  0  0  0  # atno 17321 bound_to 7965
  140.4679  144.1629  150.5914 LP  0  0  0  0  0  0  0  0  0  0  0  0  # atno 17342 bound_to 10162
  140.4414  143.2525  151.9467 LP  0  0  0  0  0  0  0  0  0  0  0  0  # atno 17343 bound_to 10162
  157.1133  131.0227  151.3039 LP  0  0  0  0  0  0  0  0  0  0  0  0  # atno 17370 bound_to 10713
  157.4687  130.7696  149.7303 LP  0  0  0  0  0  0  0  0  0  0  0  0  # atno 17371 bound_to 10713
  140.8789  134.2635  157.5154 LP  0  0  0  0  0  0  0  0  0  0  0  0  # atno 17394 bound_to 11000
  139.8704  134.9605  156.4366 LP  0  0  0  0  0  0  0  0  0  0  0  0  # atno 17395 bound_to 11000

$$$$
