AV-unprocessed.smi:2273|AV-procd|sdf|9165|dock6
  -GOLD-   2272012373D 1   1.00000     0.00000
 Structure written by MMmdl.
 53 54  0  0  0  0  0  0  0  0  1 V2000
  145.3052  143.6551  156.2614 C   0  0  0  0  0  0  0  0  0  0  0  0
  144.4830  142.6450  155.4465 C   0  0  0  0  0  0  0  0  0  0  0  0
  145.0261  141.1940  155.4881 C   0  0  0  0  0  0  0  0  0  0  0  0
  145.0757  140.6523  156.9388 C   0  0  0  0  0  0  0  0  0  0  0  0
  143.7335  140.7006  157.6851 C   0  0  0  0  0  0  0  0  0  0  0  0
  146.4056  141.0643  154.7899 C   0  0  1  0  0  0  0  0  0  0  0  0
  147.5651  141.7620  155.5322 C   0  0  0  0  0  0  0  0  0  0  0  0
  148.8796  141.5966  154.7490 C   0  0  1  0  0  0  0  0  0  0  0  0
  150.0121  142.1468  155.4965 N   0  0  0  0  0  0  0  0  0  0  0  0
  150.4046  141.8530  156.7495 C   0  0  0  0  0  0  0  0  0  0  0  0
  149.7843  141.0491  157.4440 O   0  0  0  0  0  0  0  0  0  0  0  0
  151.4942  142.5305  157.1648 N   0  0  0  0  0  0  0  0  0  0  0  0
  152.0814  142.4628  158.4372 C   0  0  0  0  0  0  0  0  0  0  0  0
  152.1172  143.5835  159.2052 C   0  0  0  0  0  0  0  0  0  0  0  0
  151.5041  144.8944  158.7384 C   0  0  0  0  0  0  0  0  0  0  0  0
  152.7360  143.5211  160.5128 C   0  0  0  0  0  0  0  0  0  0  0  0
  153.2684  142.3668  160.9356 C   0  0  0  0  0  0  0  0  0  0  0  0
  153.2574  141.2144  160.1369 N   0  0  0  0  0  0  0  0  0  0  0  0
  153.8824  140.0062  160.6814 C   0  0  0  0  0  0  0  0  0  0  0  0
  152.7225  141.2018  158.8821 C   0  0  0  0  0  0  0  0  0  0  0  0
  152.7983  140.1953  158.1737 O   0  0  0  0  0  0  0  0  0  0  0  0
  149.1119  140.1031  154.4768 C   0  0  0  0  0  0  0  0  0  0  0  0
  147.8806  139.4751  153.8038 C   0  0  0  0  0  0  0  0  0  0  0  0
  146.7206  139.6859  154.6027 O   0  0  0  0  0  0  0  0  0  0  0  0
  144.8101  144.6262  156.2768 H   0  0  0  0  0  0  0  0  0  0  0  0
  146.2992  143.8098  155.8440 H   0  0  0  0  0  0  0  0  0  0  0  0
  145.4198  143.3275  157.2949 H   0  0  0  0  0  0  0  0  0  0  0  0
  143.4698  142.6777  155.8415 H   0  0  0  0  0  0  0  0  0  0  0  0
  144.4075  142.9846  154.4129 H   0  0  0  0  0  0  0  0  0  0  0  0
  144.3245  140.5700  154.9327 H   0  0  0  0  0  0  0  0  0  0  0  0
  145.4609  139.6321  156.9430 H   0  0  0  0  0  0  0  0  0  0  0  0
  145.7818  141.2350  157.5278 H   0  0  0  0  0  0  0  0  0  0  0  0
  143.8652  140.4051  158.7262 H   0  0  0  0  0  0  0  0  0  0  0  0
  142.9961  140.0259  157.2522 H   0  0  0  0  0  0  0  0  0  0  0  0
  143.3157  141.7076  157.6797 H   0  0  0  0  0  0  0  0  0  0  0  0
  146.3379  141.5337  153.8090 H   0  0  0  0  0  0  0  0  0  0  0  0
  147.3315  142.8174  155.6683 H   0  0  0  0  0  0  0  0  0  0  0  0
  147.6960  141.3424  156.5288 H   0  0  0  0  0  0  0  0  0  0  0  0
  148.7951  142.1034  153.7859 H   0  0  0  0  0  0  0  0  0  0  0  0
  150.5597  142.8415  155.0091 H   0  0  0  0  0  0  0  0  0  0  0  0
  151.8489  143.2514  156.5541 H   0  0  0  0  0  0  0  0  0  0  0  0
  151.6071  145.6711  159.4964 H   0  0  0  0  0  0  0  0  0  0  0  0
  150.4410  144.7681  158.5314 H   0  0  0  0  0  0  0  0  0  0  0  0
  151.9965  145.2446  157.8307 H   0  0  0  0  0  0  0  0  0  0  0  0
  152.7646  144.3930  161.1499 H   0  0  0  0  0  0  0  0  0  0  0  0
  153.7404  142.2588  161.9012 H   0  0  0  0  0  0  0  0  0  0  0  0
  153.1956  139.1596  160.6328 H   0  0  0  0  0  0  0  0  0  0  0  0
  154.1779  140.1194  161.7250 H   0  0  0  0  0  0  0  0  0  0  0  0
  154.7772  139.7516  160.1117 H   0  0  0  0  0  0  0  0  0  0  0  0
  149.9915  139.9644  153.8471 H   0  0  0  0  0  0  0  0  0  0  0  0
  149.3124  139.5811  155.4137 H   0  0  0  0  0  0  0  0  0  0  0  0
  147.7277  139.8920  152.8073 H   0  0  0  0  0  0  0  0  0  0  0  0
  148.0294  138.4026  153.6782 H   0  0  0  0  0  0  0  0  0  0  0  0
  1  2  1  0  0  0  0
  1 25  1  0  0  0  0
  1 26  1  0  0  0  0
  1 27  1  0  0  0  0
  2  3  1  0  0  0  0
  2 28  1  0  0  0  0
  2 29  1  0  0  0  0
  3  4  1  0  0  0  0
  3  6  1  0  0  0  0
  3 30  1  0  0  0  0
  4  5  1  0  0  0  0
  4 31  1  0  0  0  0
  4 32  1  0  0  0  0
  5 33  1  0  0  0  0
  5 34  1  0  0  0  0
  5 35  1  0  0  0  0
  6 24  1  0  0  0  0
  6  7  1  0  0  0  0
  6 36  1  0  0  0  0
  7  8  1  0  0  0  0
  7 37  1  0  0  0  0
  7 38  1  0  0  0  0
  8  9  1  0  0  0  0
  8 22  1  0  0  0  0
  8 39  1  0  0  0  0
  9 10  1  0  0  0  0
  9 40  1  0  0  0  0
 10 11  2  0  0  0  0
 10 12  1  0  0  0  0
 12 13  1  0  0  0  0
 12 41  1  0  0  0  0
 13 20  1  0  0  0  0
 13 14  2  0  0  0  0
 14 15  1  0  0  0  0
 14 16  1  0  0  0  0
 15 42  1  0  0  0  0
 15 43  1  0  0  0  0
 15 44  1  0  0  0  0
 16 17  2  0  0  0  0
 16 45  1  0  0  0  0
 17 18  1  0  0  0  0
 17 46  1  0  0  0  0
 18 19  1  0  0  0  0
 18 20  1  0  0  0  0
 19 47  1  0  0  0  0
 19 48  1  0  0  0  0
 19 49  1  0  0  0  0
 20 21  2  0  0  0  0
 22 23  1  0  0  0  0
 22 50  1  0  0  0  0
 22 51  1  0  0  0  0
 23 24  1  0  0  0  0
 23 52  1  0  0  0  0
 23 53  1  0  0  0  0
M  END
> <s_m_source_file>
AV-unprocessed.smi

> <i_m_source_file_index>
2273

> <i_lp_mmshare_version>
43012

> <i_f3d_flags>
0

> <s_epik_input>
W0NIM11bQ0gyXVtDSF0oW0NIMl1bQ0gzXSlbQ0BASF0xW0NIMl1bQ0BIXShbQ0gyXVtDSDJdTzEpW05IXUMoPU8pW05IXWMyYyhbQ0gzXSlbY0hdW2NIXW4oW0NIM10pYzI9Tw==

> <s_epik_cmdline>
J2VwaWtfcHl0aG9uJywgJy1waCcsICc3LjAnLCAnLXRuJywgJzgnLCAnLW1hJywgJzIwMCcsICctbWV0YWxfYmluZGluZycsICctaW1hZScsICc8aW5maWxlLm1hZT4nLCAnLW9tYWUnLCAnPG91dGZpbGUubWFlPic=

> <r_lp_tautomer_probability>
1

> <r_epik_Ionization_Penalty>
2.66245e-05

> <r_epik_Ionization_Penalty_Charging>
6.91055e-06

> <r_epik_Ionization_Penalty_Neutral>
1.97139e-05

> <r_epik_State_Penalty>
-0

> <r_epik_Charging_Adjusted_Penalty>
6.91055e-06

> <i_epik_Tot_Q>
0

> <i_epik_Tot_abs_Q>
0

> <r_epik_Metal_State_Penalty>
-0

> <b_epik_Metal_Only>
0

> <s_lp_Force_Field>
OPLS_2005

> <r_lp_Energy>
39.8716

> <b_lp_Chiralities_Consistent>
1

> <s_lp_Variant>
AV-unprocessed.smi:2273-2

> <Gold.Version>
5.8.1

> <Gold.Id.Protein>
6NUR|6NUR_protein|mol2

> <Gold.PLP.Fitness>
42.8958

> <Gold.PLP.PLP>
-40.6835

> <Gold.PLP.part.hbond>
-2.0000

> <Gold.PLP.part.metal>
0.0000

> <Gold.PLP.part.buried>
-2.3346

> <Gold.PLP.part.nonpolar>
-35.8963

> <Gold.PLP.part.repulsive>
0.3661

> <Gold.PLP.ligand.clash>
0.0000

> <Gold.PLP.ligand.torsion>
0.7338

> <Gold.PLP.Chemscore.Hbond>
0.9920

> <Gold.PLP.Chemscore.CHOScore>
0.0000

> <Gold.PLP.Chemscore.Metal>
0.0000

> <Gold.Chemscore.Hbonds>
donor molecule, donor type, donor heavy atom, donor atom, acceptor molecule, acceptor atom, score
      P1  H  7997  8009       L1    21  0.77

> <Gold.PLP.Chemscore.Internal.Correction>
0.7040

> <Gold.Rescore>
     Score         DG    S(hbond)    S(metal)    S(lipo)     H(rot)  DE(clash)    DE(int)     intcor
     14.11     -16.66       0.82        0.00     103.35       1.42       0.29       2.26       ----

> <Gold.Chemscore.Fitness>
14.1092

> <Gold.Chemscore.DG>
-16.6605

> <Gold.Chemscore.ZeroCoef>
-5.4800

> <Gold.Chemscore.Hbond>
0.8182

> <Gold.Chemscore.Metal>
0.0000

> <Gold.Chemscore.Lipo>
103.3532

> <Gold.Chemscore.Internal_Hbond>
0.0000

> <Gold.Chemscore.DEClash>
0.2919

> <Gold.Chemscore.DEInternal>
2.2594

> <Gold.Chemscore.Rot>
1.4236

> <Gold.Chemscore.Internal.Correction>
   9.000000E+99

> <Gold.Chemscore.Hbonds>
donor molecule, donor type, donor heavy atom, donor atom, acceptor molecule, acceptor atom, score
      P1  H  7997  8009       L1    21  0.66

> <Gold.Chemscore.Hbond.Weighted>
-2.7327

> <Gold.Chemscore.Metal.Weighted>
-0.0000

> <Gold.Chemscore.Lipo.Weighted>
-12.0923

> <Gold.Chemscore.Internal_Hbond.Weighted>
0.0000

> <Gold.Chemscore.DEClash.Weighted>
0.2919

> <Gold.Chemscore.DEInternal.Weighted>
2.2594

> <Gold.Chemscore.Rot.Weighted>
3.6445

> <Gold.Chemscore.Internal.Correction.Weighted>
   9.000000E+99

> <Gold.Protein.RotatedTorsions>
[ 6907 6896 6895 6894 ] final   69.48 input  -60.11 | X-H torsion
[ 7974 7965 7964 7962 ] final   27.46 input  175.53 | X-H torsion
[ 8008 7997 7996 7995 ] final  160.72 input   59.86 | X-H torsion
[ 10167 10162 10161 10158 ] final  -38.22 input  -65.29 | X-H torsion
[ 10718 10713 10712 10709 ] final   45.46 input   66.30 | X-H torsion
[ 10763 10752 10751 10750 ] final   22.77 input  -60.55 | X-H torsion
[ 11005 11000 10999 10996 ] final  -54.38 input  -57.11 | X-H torsion

> <Gold.Protein.ActiveResidues>
 VAL166  LYS551  ARG553  GLY616  TRP617  ASP618  TYR619  PRO620  LYS621  CYS622 
 ASP623  PHE694  ASN695  SER759  ASP760  ASP761  ALA762  ILE779  LEU786  VAL792 
 PHE793  MET794  SER795  GLU796  ALA797  LYS798  CYS799  TRP800  GLU811  SER814 

> <Gold.Protein.RotatedAtoms>
  152.4689  134.5009  159.9724 H   0  0  0  0  0  0  0  0  0  0  0  0  # atno 6907 bound_to 6896
  151.5041  133.3492  159.2881 H   0  0  0  0  0  0  0  0  0  0  0  0  # atno 6908 bound_to 6896
  150.8687  134.8085  159.7200 H   0  0  0  0  0  0  0  0  0  0  0  0  # atno 6909 bound_to 6896
  146.1783  139.7188  142.8919 H   0  0  0  0  0  0  0  0  0  0  0  0  # atno 7974 bound_to 7965
  156.2153  140.1796  156.7603 H   0  0  0  0  0  0  0  0  0  0  0  0  # atno 8008 bound_to 7997
  154.5782  140.0670  156.9095 H   0  0  0  0  0  0  0  0  0  0  0  0  # atno 8009 bound_to 7997
  155.2550  140.3331  155.4281 H   0  0  0  0  0  0  0  0  0  0  0  0  # atno 8010 bound_to 7997
  140.7098  143.3291  151.2611 H   0  0  0  0  0  0  0  0  0  0  0  0  # atno 10167 bound_to 10162
  157.4378  130.8063  149.7665 H   0  0  0  0  0  0  0  0  0  0  0  0  # atno 10718 bound_to 10713
  153.0889  135.6641  153.9893 H   0  0  0  0  0  0  0  0  0  0  0  0  # atno 10763 bound_to 10752
  153.9495  135.2985  155.3440 H   0  0  0  0  0  0  0  0  0  0  0  0  # atno 10764 bound_to 10752
  154.7301  135.5126  153.9023 H   0  0  0  0  0  0  0  0  0  0  0  0  # atno 10765 bound_to 10752
  141.1023  133.6617  156.4311 H   0  0  0  0  0  0  0  0  0  0  0  0  # atno 11005 bound_to 11000
  145.4150  141.0400  143.2996 LP  0  0  0  0  0  0  0  0  0  0  0  0  # atno 17320 bound_to 7965
  144.8272  139.5690  143.6960 LP  0  0  0  0  0  0  0  0  0  0  0  0  # atno 17321 bound_to 7965
  139.6768  143.9924  152.2785 LP  0  0  0  0  0  0  0  0  0  0  0  0  # atno 17342 bound_to 10162
  139.9541  144.6601  150.8143 LP  0  0  0  0  0  0  0  0  0  0  0  0  # atno 17343 bound_to 10162
  155.9937  130.3923  150.2889 LP  0  0  0  0  0  0  0  0  0  0  0  0  # atno 17370 bound_to 10713
  157.1052  131.0206  151.3070 LP  0  0  0  0  0  0  0  0  0  0  0  0  # atno 17371 bound_to 10713
  140.4992  134.6502  157.5241 LP  0  0  0  0  0  0  0  0  0  0  0  0  # atno 17394 bound_to 11000
  139.9879  134.7033  155.9742 LP  0  0  0  0  0  0  0  0  0  0  0  0  # atno 17395 bound_to 11000

$$$$
