AV-unprocessed.smi:1398|AV-procd|sdf|5680|dock2
  -GOLD-   22720 5303D 1   1.00000     0.00000
 Structure written by MMmdl.
 41 42  0  0  0  0  0  0  0  0  1 V2000
  144.7956  143.6938  154.6512 C   0  0  0  0  0  0  0  0  0  0  0  0
  145.1997  143.8549  156.0065 O   0  0  0  0  0  0  0  0  0  0  0  0
  144.4094  143.3086  156.9998 C   0  0  0  0  0  0  0  0  0  0  0  0
  143.2539  142.6947  156.6411 N   0  0  0  0  0  0  0  0  0  0  0  0
  142.4837  142.1582  157.6098 C   0  0  0  0  0  0  0  0  0  0  0  0
  142.8231  142.1975  158.9746 C   0  0  0  0  0  0  0  0  0  0  0  0
  144.0204  142.8344  159.3494 C   0  0  0  0  0  0  0  0  0  0  0  0
  144.8316  143.4160  158.3455 C   0  0  0  0  0  0  0  0  0  0  0  0
  146.0677  144.0644  158.6153 N   0  0  0  0  0  0  0  0  0  0  0  0
  146.9144  143.8510  159.6363 C   0  0  0  0  0  0  0  0  0  0  0  0
  146.7505  143.0279  160.5370 O   0  0  0  0  0  0  0  0  0  0  0  0
  147.9683  144.6763  159.5704 N   0  0  0  0  0  0  0  0  0  0  0  0
  149.0491  144.7362  160.5476 C   0  0  0  0  0  0  0  0  0  0  0  0
  150.4010  145.0392  159.8702 C   0  0  0  0  0  0  0  0  0  0  0  0
  151.1293  143.7881  159.3521 C   0  0  0  0  0  0  0  0  0  0  0  0
  150.9379  143.3992  158.1990 O   0  0  0  0  0  0  0  0  0  0  0  0
  151.9722  143.1508  160.1911 N   0  0  0  0  0  0  0  0  0  0  0  0
  152.7705  141.9690  159.8654 C   0  0  0  0  0  0  0  0  0  0  0  0
  153.7196  141.7711  161.0480 C   0  0  0  0  0  0  0  0  0  0  0  0
  153.0036  142.4328  162.2172 C   0  0  0  0  0  0  0  0  0  0  0  0
  152.2040  143.5658  161.5733 C   0  0  0  0  0  0  0  0  0  0  0  0
  145.5205  144.1811  153.9993 H   0  0  0  0  0  0  0  0  0  0  0  0
  143.8239  144.1539  154.4665 H   0  0  0  0  0  0  0  0  0  0  0  0
  144.7534  142.6408  154.3697 H   0  0  0  0  0  0  0  0  0  0  0  0
  141.5727  141.6771  157.2861 H   0  0  0  0  0  0  0  0  0  0  0  0
  142.1822  141.7447  159.7164 H   0  0  0  0  0  0  0  0  0  0  0  0
  144.2999  142.8515  160.3915 H   0  0  0  0  0  0  0  0  0  0  0  0
  146.2911  144.8376  158.0056 H   0  0  0  0  0  0  0  0  0  0  0  0
  148.0197  145.3212  158.7953 H   0  0  0  0  0  0  0  0  0  0  0  0
  148.8218  145.4818  161.3118 H   0  0  0  0  0  0  0  0  0  0  0  0
  149.0876  143.7710  161.0543 H   0  0  0  0  0  0  0  0  0  0  0  0
  150.2343  145.7159  159.0312 H   0  0  0  0  0  0  0  0  0  0  0  0
  151.0554  145.5567  160.5724 H   0  0  0  0  0  0  0  0  0  0  0  0
  152.1089  141.1080  159.7609 H   0  0  0  0  0  0  0  0  0  0  0  0
  153.3270  142.0884  158.9349 H   0  0  0  0  0  0  0  0  0  0  0  0
  153.9519  140.7219  161.2328 H   0  0  0  0  0  0  0  0  0  0  0  0
  154.6585  142.2918  160.8543 H   0  0  0  0  0  0  0  0  0  0  0  0
  152.3195  141.7182  162.6770 H   0  0  0  0  0  0  0  0  0  0  0  0
  153.6886  142.7838  162.9893 H   0  0  0  0  0  0  0  0  0  0  0  0
  152.7814  144.4916  161.5736 H   0  0  0  0  0  0  0  0  0  0  0  0
  151.2715  143.7470  162.1105 H   0  0  0  0  0  0  0  0  0  0  0  0
  1  2  1  0  0  0  0
  1 22  1  0  0  0  0
  1 23  1  0  0  0  0
  1 24  1  0  0  0  0
  2  3  1  0  0  0  0
  3  8  1  0  0  0  0
  3  4  2  0  0  0  0
  4  5  1  0  0  0  0
  5  6  2  0  0  0  0
  5 25  1  0  0  0  0
  6  7  1  0  0  0  0
  6 26  1  0  0  0  0
  7  8  2  0  0  0  0
  7 27  1  0  0  0  0
  8  9  1  0  0  0  0
  9 10  1  0  0  0  0
  9 28  1  0  0  0  0
 10 11  2  0  0  0  0
 10 12  1  0  0  0  0
 12 13  1  0  0  0  0
 12 29  1  0  0  0  0
 13 14  1  0  0  0  0
 13 30  1  0  0  0  0
 13 31  1  0  0  0  0
 14 15  1  0  0  0  0
 14 32  1  0  0  0  0
 14 33  1  0  0  0  0
 15 16  2  0  0  0  0
 15 17  1  0  0  0  0
 17 21  1  0  0  0  0
 17 18  1  0  0  0  0
 18 19  1  0  0  0  0
 18 34  1  0  0  0  0
 18 35  1  0  0  0  0
 19 20  1  0  0  0  0
 19 36  1  0  0  0  0
 19 37  1  0  0  0  0
 20 21  1  0  0  0  0
 20 38  1  0  0  0  0
 20 39  1  0  0  0  0
 21 40  1  0  0  0  0
 21 41  1  0  0  0  0
M  END
> <s_m_source_file>
AV-unprocessed.smi

> <i_m_source_file_index>
1398

> <i_lp_mmshare_version>
43012

> <i_f3d_flags>
0

> <s_epik_input>
W0NIM11PYzFuW2NIXVtjSF1bY0hdYzFbTkhdQyg9TylbTkhdW0NIMl1bQ0gyXUMoPU8pTjJbQ0gyXVtDSDJdW0NIMl1bQ0gyXTI=

> <s_epik_cmdline>
J2VwaWtfcHl0aG9uJywgJy1waCcsICc3LjAnLCAnLXRuJywgJzgnLCAnLW1hJywgJzIwMCcsICctbWV0YWxfYmluZGluZycsICctaW1hZScsICc8aW5maWxlLm1hZT4nLCAnLW9tYWUnLCAnPG91dGZpbGUubWFlPic=

> <r_lp_tautomer_probability>
1

> <r_epik_Ionization_Penalty>
8.61088e-05

> <r_epik_Ionization_Penalty_Charging>
0

> <r_epik_Ionization_Penalty_Neutral>
8.61088e-05

> <r_epik_State_Penalty>
-0

> <r_epik_Charging_Adjusted_Penalty>
0

> <i_epik_Tot_Q>
0

> <i_epik_Tot_abs_Q>
0

> <r_epik_Metal_State_Penalty>
-0

> <b_epik_Metal_Only>
0

> <s_lp_Force_Field>
OPLS_2005

> <r_lp_Energy>
29.8369

> <b_lp_Chiralities_Consistent>
1

> <s_lp_Variant>
AV-unprocessed.smi:1398-1

> <Gold.Version>
5.8.1

> <Gold.Id.Protein>
6NUR|6NUR_protein|mol2

> <Gold.PLP.Fitness>
46.5989

> <Gold.PLP.PLP>
-37.4105

> <Gold.PLP.part.hbond>
-4.0000

> <Gold.PLP.part.metal>
0.0000

> <Gold.PLP.part.buried>
-6.1985

> <Gold.PLP.part.nonpolar>
-29.2393

> <Gold.PLP.part.repulsive>
0.5056

> <Gold.PLP.ligand.clash>
0.0000

> <Gold.PLP.ligand.torsion>
0.8730

> <Gold.PLP.Chemscore.Hbond>
3.6150

> <Gold.PLP.Chemscore.CHOScore>
0.0000

> <Gold.PLP.Chemscore.Metal>
0.0000

> <Gold.Chemscore.Hbonds>
donor molecule, donor type, donor heavy atom, donor atom, acceptor molecule, acceptor atom, score
      L1  H     9    28       P1  8029  0.86
      L1  H    12    29       P1  8029  1.00
      P1  H  6933  6944       L1    11  0.89
      P1  H  6934  6946       L1    11  0.60

> <Gold.PLP.Chemscore.Internal.Correction>
0.0895

> <Gold.Rescore>
     Score         DG    S(hbond)    S(metal)    S(lipo)     H(rot)  DE(clash)    DE(int)     intcor
     18.22     -19.98       3.37        0.00      67.59       1.83       0.02       1.74       ----

> <Gold.Chemscore.Fitness>
18.2205

> <Gold.Chemscore.DG>
-19.9785

> <Gold.Chemscore.ZeroCoef>
-5.4800

> <Gold.Chemscore.Hbond>
3.3726

> <Gold.Chemscore.Metal>
0.0000

> <Gold.Chemscore.Lipo>
67.5937

> <Gold.Chemscore.Internal_Hbond>
0.0000

> <Gold.Chemscore.DEClash>
0.0195

> <Gold.Chemscore.DEInternal>
1.7384

> <Gold.Chemscore.Rot>
1.8260

> <Gold.Chemscore.Internal.Correction>
   9.000000E+99

> <Gold.Chemscore.Hbonds>
donor molecule, donor type, donor heavy atom, donor atom, acceptor molecule, acceptor atom, score
      L1  H     9    28       P1  8029  0.56
      L1  H    12    29       P1  8029  0.99
      P1  H  6933  6944       L1    11  0.76
      P1  H  6934  6946       L1    11  0.58

> <Gold.Chemscore.Hbond.Weighted>
-11.2644

> <Gold.Chemscore.Metal.Weighted>
-0.0000

> <Gold.Chemscore.Lipo.Weighted>
-7.9085

> <Gold.Chemscore.Internal_Hbond.Weighted>
0.0000

> <Gold.Chemscore.DEClash.Weighted>
0.0195

> <Gold.Chemscore.DEInternal.Weighted>
1.7384

> <Gold.Chemscore.Rot.Weighted>
4.6744

> <Gold.Chemscore.Internal.Correction.Weighted>
   9.000000E+99

> <Gold.Protein.RotatedTorsions>
[ 6907 6896 6895 6894 ] final  -48.08 input  -60.11 | X-H torsion
[ 7974 7965 7964 7962 ] final  153.24 input  175.53 | X-H torsion
[ 8008 7997 7996 7995 ] final  -59.52 input   59.86 | X-H torsion
[ 10167 10162 10161 10158 ] final   56.14 input  -65.29 | X-H torsion
[ 10718 10713 10712 10709 ] final -143.99 input   66.30 | X-H torsion
[ 10763 10752 10751 10750 ] final  -12.68 input  -60.55 | X-H torsion
[ 11005 11000 10999 10996 ] final  -97.31 input  -57.11 | X-H torsion

> <Gold.Protein.ActiveResidues>
 VAL166  LYS551  ARG553  GLY616  TRP617  ASP618  TYR619  PRO620  LYS621  CYS622 
 ASP623  PHE694  ASN695  SER759  ASP760  ASP761  ALA762  ILE779  LEU786  VAL792 
 PHE793  MET794  SER795  GLU796  ALA797  LYS798  CYS799  TRP800  GLU811  SER814 

> <Gold.Protein.RotatedAtoms>
  150.8942  134.8349  159.7314 H   0  0  0  0  0  0  0  0  0  0  0  0  # atno 6907 bound_to 6896
  152.4855  134.4601  159.9612 H   0  0  0  0  0  0  0  0  0  0  0  0  # atno 6908 bound_to 6896
  151.4660  133.3542  159.2851 H   0  0  0  0  0  0  0  0  0  0  0  0  # atno 6909 bound_to 6896
  144.8168  139.6774  143.6118 H   0  0  0  0  0  0  0  0  0  0  0  0  # atno 7974 bound_to 7965
  154.4356  140.1060  156.6129 H   0  0  0  0  0  0  0  0  0  0  0  0  # atno 8008 bound_to 7997
  155.5790  140.3490  155.4516 H   0  0  0  0  0  0  0  0  0  0  0  0  # atno 8009 bound_to 7997
  156.0333  140.1265  157.0224 H   0  0  0  0  0  0  0  0  0  0  0  0  # atno 8010 bound_to 7997
  140.2119  144.3880  150.6485 H   0  0  0  0  0  0  0  0  0  0  0  0  # atno 10167 bound_to 10162
  156.3646  130.7756  151.1929 H   0  0  0  0  0  0  0  0  0  0  0  0  # atno 10718 bound_to 10713
  153.5020  135.7017  153.5826 H   0  0  0  0  0  0  0  0  0  0  0  0  # atno 10763 bound_to 10752
  153.3954  135.3885  155.1951 H   0  0  0  0  0  0  0  0  0  0  0  0  # atno 10764 bound_to 10752
  154.8710  135.3868  154.4492 H   0  0  0  0  0  0  0  0  0  0  0  0  # atno 10765 bound_to 10752
  141.1383  133.8161  157.0689 H   0  0  0  0  0  0  0  0  0  0  0  0  # atno 11005 bound_to 11000
  146.2471  139.6121  142.9452 LP  0  0  0  0  0  0  0  0  0  0  0  0  # atno 17320 bound_to 7965
  145.5197  141.0432  143.2442 LP  0  0  0  0  0  0  0  0  0  0  0  0  # atno 17321 bound_to 7965
  140.6317  143.2188  151.6481 LP  0  0  0  0  0  0  0  0  0  0  0  0  # atno 17342 bound_to 10162
  139.5177  144.3308  152.0828 LP  0  0  0  0  0  0  0  0  0  0  0  0  # atno 17343 bound_to 10162
  157.7477  131.0390  150.4529 LP  0  0  0  0  0  0  0  0  0  0  0  0  # atno 17370 bound_to 10713
  156.4746  130.4060  149.6498 LP  0  0  0  0  0  0  0  0  0  0  0  0  # atno 17371 bound_to 10713
  140.0524  134.9798  157.1160 LP  0  0  0  0  0  0  0  0  0  0  0  0  # atno 17394 bound_to 11000
  140.3970  134.2123  155.7164 LP  0  0  0  0  0  0  0  0  0  0  0  0  # atno 17395 bound_to 11000

$$$$
