AV-unprocessed.smi:3337|AV-procd|sdf|12867|dock2
  -GOLD-   2272019263D 1   1.00000     0.00000
 Structure written by MMmdl.
 46 47  0  0  0  0  0  0  0  0  2 V2000
  154.6463  141.0339  160.3885 C   0  0  0  0  0  0  0  0  0  0  0  0
  153.6051  141.7035  159.4804 C   0  0  2  0  0  0  0  0  0  0  0  0
  153.2261  143.1011  159.9971 C   0  0  0  0  0  0  0  0  0  0  0  0
  152.1706  143.7474  159.0849 C   0  0  2  0  0  0  0  0  0  0  0  0
  151.7617  145.1355  159.5981 C   0  0  0  0  0  0  0  0  0  0  0  0
  150.9501  142.8181  158.9411 C   0  0  0  0  0  0  0  0  0  0  0  0
  151.3416  141.4754  158.4383 N   0  3  2  0  0  0  0  0  0  0  0  0
  150.1580  140.6210  158.1651 C   0  0  0  0  0  0  0  0  0  0  0  0
  150.5372  139.1712  157.8052 C   0  0  0  0  0  0  0  0  0  0  0  0
  149.4591  138.2457  158.1323 N   0  0  0  0  0  0  0  0  0  0  0  0
  149.6317  136.9744  158.5301 C   0  0  0  0  0  0  0  0  0  0  0  0
  150.7445  136.4612  158.6540 O   0  0  0  0  0  0  0  0  0  0  0  0
  148.3535  136.1650  158.8122 C   0  0  1  0  0  0  0  0  0  0  0  0
  148.1029  135.0513  157.7752 C   0  0  0  0  0  0  0  0  0  0  0  0
  148.3619  135.6445  160.1741 N   0  0  0  0  0  0  0  0  0  0  0  0
  148.2623  134.3881  160.6137 C   0  0  0  0  0  0  0  0  0  0  0  0
  148.2706  134.2775  161.9347 N   0  0  0  0  0  0  0  0  0  0  0  0
  148.3809  135.5964  162.2734 C   0  0  0  0  0  0  0  0  0  0  0  0
  148.4289  136.4580  161.2574 N   0  0  0  0  0  0  0  0  0  0  0  0
  152.3441  140.8305  159.3281 C   0  0  0  0  0  0  0  0  0  0  0  0
  154.2583  140.8885  161.3972 H   0  0  0  0  0  0  0  0  0  0  0  0
  155.5493  141.6404  160.4643 H   0  0  0  0  0  0  0  0  0  0  0  0
  154.9381  140.0578  160.0001 H   0  0  0  0  0  0  0  0  0  0  0  0
  154.0572  141.8187  158.4940 H   0  0  0  0  0  0  0  0  0  0  0  0
  152.8408  143.0274  161.0155 H   0  0  0  0  0  0  0  0  0  0  0  0
  154.1135  143.7336  160.0455 H   0  0  0  0  0  0  0  0  0  0  0  0
  152.6125  143.8799  158.0960 H   0  0  0  0  0  0  0  0  0  0  0  0
  151.3125  145.0759  160.5900 H   0  0  0  0  0  0  0  0  0  0  0  0
  151.0364  145.6035  158.9323 H   0  0  0  0  0  0  0  0  0  0  0  0
  152.6239  145.7997  159.6634 H   0  0  0  0  0  0  0  0  0  0  0  0
  150.4387  142.7111  159.8994 H   0  0  0  0  0  0  0  0  0  0  0  0
  150.2372  143.2708  158.2505 H   0  0  0  0  0  0  0  0  0  0  0  0
  149.4809  140.6431  159.0206 H   0  0  0  0  0  0  0  0  0  0  0  0
  149.6056  141.0468  157.3262 H   0  0  0  0  0  0  0  0  0  0  0  0
  150.7920  139.0918  156.7468 H   0  0  0  0  0  0  0  0  0  0  0  0
  151.4161  138.8478  158.3617 H   0  0  0  0  0  0  0  0  0  0  0  0
  148.5149  138.5966  158.0594 H   0  0  0  0  0  0  0  0  0  0  0  0
  147.5179  136.8633  158.7422 H   0  0  0  0  0  0  0  0  0  0  0  0
  148.0324  135.4593  156.7663 H   0  0  0  0  0  0  0  0  0  0  0  0
  147.1664  134.5327  157.9817 H   0  0  0  0  0  0  0  0  0  0  0  0
  148.8989  134.3055  157.7757 H   0  0  0  0  0  0  0  0  0  0  0  0
  148.1786  133.5368  159.9541 H   0  0  0  0  0  0  0  0  0  0  0  0
  148.4214  135.9315  163.2994 H   0  0  0  0  0  0  0  0  0  0  0  0
  152.6375  139.8630  158.9231 H   0  0  0  0  0  0  0  0  0  0  0  0
  151.8947  140.6397  160.3042 H   0  0  0  0  0  0  0  0  0  0  0  0
  151.7930  141.6303  157.5482 H   0  0  0  0  0  0  0  0  0  0  0  0
  1  2  1  0  0  0  0
  1 21  1  0  0  0  0
  1 22  1  0  0  0  0
  1 23  1  0  0  0  0
  2 20  1  0  0  0  0
  2  3  1  0  0  0  0
  2 24  1  0  0  0  0
  3  4  1  0  0  0  0
  3 25  1  0  0  0  0
  3 26  1  0  0  0  0
  4  5  1  0  0  0  0
  4  6  1  0  0  0  0
  4 27  1  0  0  0  0
  5 28  1  0  0  0  0
  5 29  1  0  0  0  0
  5 30  1  0  0  0  0
  6  7  1  0  0  0  0
  6 31  1  0  0  0  0
  6 32  1  0  0  0  0
  7  8  1  0  0  0  0
  7 20  1  0  0  0  0
  7 46  1  0  0  0  0
  8  9  1  0  0  0  0
  8 33  1  0  0  0  0
  8 34  1  0  0  0  0
  9 10  1  0  0  0  0
  9 35  1  0  0  0  0
  9 36  1  0  0  0  0
 10 11  1  0  0  0  0
 10 37  1  0  0  0  0
 11 12  2  0  0  0  0
 11 13  1  0  0  0  0
 13 14  1  0  0  0  0
 13 15  1  0  0  0  0
 13 38  1  0  0  0  0
 14 39  1  0  0  0  0
 14 40  1  0  0  0  0
 14 41  1  0  0  0  0
 15 19  1  0  0  0  0
 15 16  1  0  0  0  0
 16 17  2  0  0  0  0
 16 42  1  0  0  0  0
 17 18  1  0  0  0  0
 18 19  2  0  0  0  0
 18 43  1  0  0  0  0
 20 44  1  0  0  0  0
 20 45  1  0  0  0  0
M  CHG  1   7   1
M  END
> <s_m_source_file>
AV-unprocessed.smi

> <i_m_source_file_index>
3337

> <i_lp_mmshare_version>
43012

> <i_f3d_flags>
0

> <s_epik_input>
W0NIM11bQ0BASF0xW0NIMl1bQ0BASF0oW0NIM10pW0NIMl1OKFtDSDJdMSlbQ0gyXVtDSDJdW05IXUMoPU8pW0NASF0oW0NIM10pbjJbY0hdbltjSF1uMg==

> <s_epik_cmdline>
J2VwaWtfcHl0aG9uJywgJy1waCcsICc3LjAnLCAnLXRuJywgJzgnLCAnLW1hJywgJzIwMCcsICctbWV0YWxfYmluZGluZycsICctaW1hZScsICc8aW5maWxlLm1hZT4nLCAnLW9tYWUnLCAnPG91dGZpbGUubWFlPic=

> <r_lp_tautomer_probability>
1

> <r_epik_Ionization_Penalty>
0.00175613

> <r_epik_Ionization_Penalty_Charging>
0.00174812

> <r_epik_Ionization_Penalty_Neutral>
8.01354e-06

> <r_epik_State_Penalty>
0.00118332

> <r_epik_Charging_Adjusted_Penalty>
0.00293143

> <i_epik_Tot_Q>
1

> <i_epik_Tot_abs_Q>
1

> <r_epik_Metal_State_Penalty>
-0

> <b_epik_Metal_Only>
0

> <s_lp_Force_Field>
OPLS_2005

> <r_lp_Energy>
22.1533

> <b_lp_Chiralities_Consistent>
1

> <s_lp_Variant>
AV-unprocessed.smi:3337-7

> <Gold.Version>
5.8.1

> <Gold.Id.Protein>
6NUR|6NUR_protein|mol2

> <Gold.PLP.Fitness>
50.8682

> <Gold.PLP.PLP>
-43.6603

> <Gold.PLP.part.hbond>
-3.0000

> <Gold.PLP.part.metal>
0.0000

> <Gold.PLP.part.buried>
-5.9795

> <Gold.PLP.part.nonpolar>
-34.4909

> <Gold.PLP.part.repulsive>
0.2713

> <Gold.PLP.ligand.clash>
0.0000

> <Gold.PLP.ligand.torsion>
0.5180

> <Gold.PLP.Chemscore.Hbond>
2.6978

> <Gold.PLP.Chemscore.CHOScore>
0.0000

> <Gold.PLP.Chemscore.Metal>
0.0000

> <Gold.Chemscore.Hbonds>
donor molecule, donor type, donor heavy atom, donor atom, acceptor molecule, acceptor atom, score
      P1  H  6896  6909       L1    12  0.91
      P1  H  6931  6943       L1    19  1.00

> <Gold.PLP.Chemscore.Internal.Correction>
0.1504

> <Gold.Rescore>
     Score         DG    S(hbond)    S(metal)    S(lipo)     H(rot)  DE(clash)    DE(int)     intcor
     15.56     -16.29       2.40        0.00      78.86       2.51       0.00       0.72       ----

> <Gold.Chemscore.Fitness>
15.5603

> <Gold.Chemscore.DG>
-16.2852

> <Gold.Chemscore.ZeroCoef>
-5.4800

> <Gold.Chemscore.Hbond>
2.3986

> <Gold.Chemscore.Metal>
0.0000

> <Gold.Chemscore.Lipo>
78.8634

> <Gold.Chemscore.Internal_Hbond>
0.0000

> <Gold.Chemscore.DEClash>
0.0048

> <Gold.Chemscore.DEInternal>
0.7201

> <Gold.Chemscore.Rot>
2.5129

> <Gold.Chemscore.Internal.Correction>
   9.000000E+99

> <Gold.Chemscore.Hbonds>
donor molecule, donor type, donor heavy atom, donor atom, acceptor molecule, acceptor atom, score
      P1  H  6896  6909       L1    12  0.88
      P1  H  6931  6943       L1    19  0.72

> <Gold.Chemscore.Hbond.Weighted>
-8.0113

> <Gold.Chemscore.Metal.Weighted>
-0.0000

> <Gold.Chemscore.Lipo.Weighted>
-9.2270

> <Gold.Chemscore.Internal_Hbond.Weighted>
0.0000

> <Gold.Chemscore.DEClash.Weighted>
0.0048

> <Gold.Chemscore.DEInternal.Weighted>
0.7201

> <Gold.Chemscore.Rot.Weighted>
6.4331

> <Gold.Chemscore.Internal.Correction.Weighted>
   9.000000E+99

> <Gold.Protein.RotatedTorsions>
[ 6907 6896 6895 6894 ] final   93.79 input  -60.11 | X-H torsion
[ 7974 7965 7964 7962 ] final   52.58 input  175.53 | X-H torsion
[ 8008 7997 7996 7995 ] final   52.54 input   59.86 | X-H torsion
[ 10167 10162 10161 10158 ] final    1.48 input  -65.29 | X-H torsion
[ 10718 10713 10712 10709 ] final -140.80 input   66.30 | X-H torsion
[ 10763 10752 10751 10750 ] final  158.57 input  -60.55 | X-H torsion
[ 11005 11000 10999 10996 ] final   83.52 input  -57.11 | X-H torsion

> <Gold.Protein.ActiveResidues>
 VAL166  LYS551  ARG553  GLY616  TRP617  ASP618  TYR619  PRO620  LYS621  CYS622 
 ASP623  PHE694  ASN695  SER759  ASP760  ASP761  ALA762  ILE779  LEU786  VAL792 
 PHE793  MET794  SER795  GLU796  ALA797  LYS798  CYS799  TRP800  GLU811  SER814 

> <Gold.Protein.RotatedAtoms>
  152.5451  134.1293  159.8431 H   0  0  0  0  0  0  0  0  0  0  0  0  # atno 6907 bound_to 6896
  151.1340  133.5010  159.2606 H   0  0  0  0  0  0  0  0  0  0  0  0  # atno 6908 bound_to 6896
  151.1644  135.0299  159.8779 H   0  0  0  0  0  0  0  0  0  0  0  0  # atno 6909 bound_to 6896
  145.9798  139.4231  143.0139 H   0  0  0  0  0  0  0  0  0  0  0  0  # atno 7974 bound_to 7965
  155.4535  140.3459  155.4304 H   0  0  0  0  0  0  0  0  0  0  0  0  # atno 8008 bound_to 7997
  156.1205  140.1486  156.9240 H   0  0  0  0  0  0  0  0  0  0  0  0  # atno 8009 bound_to 7997
  154.4820  140.0867  156.7379 H   0  0  0  0  0  0  0  0  0  0  0  0  # atno 8010 bound_to 7997
  140.6680  143.7125  150.7866 H   0  0  0  0  0  0  0  0  0  0  0  0  # atno 10167 bound_to 10162
  156.3266  130.7563  151.1672 H   0  0  0  0  0  0  0  0  0  0  0  0  # atno 10718 bound_to 10713
  154.2181  135.2783  155.2934 H   0  0  0  0  0  0  0  0  0  0  0  0  # atno 10763 bound_to 10752
  154.5724  135.5614  153.7111 H   0  0  0  0  0  0  0  0  0  0  0  0  # atno 10764 bound_to 10752
  153.0048  135.6324  154.2321 H   0  0  0  0  0  0  0  0  0  0  0  0  # atno 10765 bound_to 10752
  139.9028  134.8150  156.2320 H   0  0  0  0  0  0  0  0  0  0  0  0  # atno 11005 bound_to 11000
  145.7785  140.9866  143.1111 LP  0  0  0  0  0  0  0  0  0  0  0  0  # atno 17320 bound_to 7965
  144.6858  139.9535  143.7478 LP  0  0  0  0  0  0  0  0  0  0  0  0  # atno 17321 bound_to 7965
  140.0806  143.4972  152.2532 LP  0  0  0  0  0  0  0  0  0  0  0  0  # atno 17342 bound_to 10162
  139.5937  144.7559  151.3338 LP  0  0  0  0  0  0  0  0  0  0  0  0  # atno 17343 bound_to 10162
  157.7422  131.0493  150.5039 LP  0  0  0  0  0  0  0  0  0  0  0  0  # atno 17370 bound_to 10713
  156.5199  130.4159  149.6256 LP  0  0  0  0  0  0  0  0  0  0  0  0  # atno 17371 bound_to 10713
  141.0339  133.6974  156.1478 LP  0  0  0  0  0  0  0  0  0  0  0  0  # atno 17394 bound_to 11000
  140.7056  134.4517  157.5584 LP  0  0  0  0  0  0  0  0  0  0  0  0  # atno 17395 bound_to 11000

$$$$
