AV-unprocessed.smi:1916|AV-procd|sdf|7765|dock4
  -GOLD-   22720 9513D 1   1.00000     0.00000
 Structure written by MMmdl.
 45 47  0  0  0  0  0  0  0  0  1 V2000
  151.9719  136.0675  157.7564 O   0  0  0  0  0  0  0  0  0  0  0  0
  151.4866  137.1577  157.4519 C   0  0  0  0  0  0  0  0  0  0  0  0
  150.1816  137.4456  157.5793 N   0  0  0  0  0  0  0  0  0  0  0  0
  149.1630  136.5477  158.1190 C   0  0  0  0  0  0  0  0  0  0  0  0
  148.0603  137.3007  158.8909 C   0  0  0  0  0  0  0  0  0  0  0  0
  147.5601  136.5618  160.1208 C   0  0  0  0  0  0  0  0  0  0  0  0
  147.3661  135.1637  160.0949 C   0  0  0  0  0  0  0  0  0  0  0  0
  146.8625  134.5351  161.2499 C   0  0  0  0  0  0  0  0  0  0  0  0
  146.5789  135.3230  162.3818 C   0  0  0  0  0  0  0  0  0  0  0  0
  146.8149  136.7104  162.3089 C   0  0  0  0  0  0  0  0  0  0  0  0
  147.2975  137.3234  161.2067 N   0  0  0  0  0  0  0  0  0  0  0  0
  152.3865  138.2804  156.9118 C   0  0  1  0  0  0  0  0  0  0  0  0
  151.8872  138.7828  155.5458 C   0  0  0  0  0  0  0  0  0  0  0  0
  151.2901  140.1448  155.8575 C   0  0  0  0  0  0  0  0  0  0  0  0
  150.6307  140.7804  155.0361 O   0  0  0  0  0  0  0  0  0  0  0  0
  151.5467  140.5112  157.1206 N   0  0  0  0  0  0  0  0  0  0  0  0
  150.9854  141.7009  157.7792 C   0  0  0  0  0  0  0  0  0  0  0  0
  151.3413  143.0548  157.1189 C   0  0  0  0  0  0  0  0  0  0  0  0
  151.7973  143.9679  158.2595 C   0  0  0  0  0  0  0  0  0  0  0  0
  152.3741  143.0180  159.3048 C   0  0  0  0  0  0  0  0  0  0  0  0
  151.4611  141.7942  159.2425 C   0  0  0  0  0  0  0  0  0  0  0  0
  152.3804  139.5335  157.8107 C   0  0  0  0  0  0  0  0  0  0  0  0
  149.8732  138.3663  157.3020 H   0  0  0  0  0  0  0  0  0  0  0  0
  148.7148  136.0115  157.2824 H   0  0  0  0  0  0  0  0  0  0  0  0
  149.6181  135.7871  158.7557 H   0  0  0  0  0  0  0  0  0  0  0  0
  148.4277  138.2836  159.1888 H   0  0  0  0  0  0  0  0  0  0  0  0
  147.2140  137.4854  158.2282 H   0  0  0  0  0  0  0  0  0  0  0  0
  147.5814  134.5878  159.2069 H   0  0  0  0  0  0  0  0  0  0  0  0
  146.6918  133.4688  161.2653 H   0  0  0  0  0  0  0  0  0  0  0  0
  146.1889  134.8754  163.2839 H   0  0  0  0  0  0  0  0  0  0  0  0
  146.6095  137.3451  163.1582 H   0  0  0  0  0  0  0  0  0  0  0  0
  153.4065  137.9022  156.8217 H   0  0  0  0  0  0  0  0  0  0  0  0
  152.7133  138.9011  154.8440 H   0  0  0  0  0  0  0  0  0  0  0  0
  151.1422  138.1327  155.0845 H   0  0  0  0  0  0  0  0  0  0  0  0
  149.8973  141.6115  157.7822 H   0  0  0  0  0  0  0  0  0  0  0  0
  152.1506  142.9750  156.3959 H   0  0  0  0  0  0  0  0  0  0  0  0
  150.4899  143.4790  156.5856 H   0  0  0  0  0  0  0  0  0  0  0  0
  152.5165  144.7197  157.9332 H   0  0  0  0  0  0  0  0  0  0  0  0
  150.9362  144.4911  158.6776 H   0  0  0  0  0  0  0  0  0  0  0  0
  153.3889  142.7339  159.0236 H   0  0  0  0  0  0  0  0  0  0  0  0
  152.4144  143.4616  160.2999 H   0  0  0  0  0  0  0  0  0  0  0  0
  150.5994  141.9514  159.8927 H   0  0  0  0  0  0  0  0  0  0  0  0
  151.9669  140.8935  159.5940 H   0  0  0  0  0  0  0  0  0  0  0  0
  152.0038  139.3343  158.8155 H   0  0  0  0  0  0  0  0  0  0  0  0
  153.3935  139.9257  157.9077 H   0  0  0  0  0  0  0  0  0  0  0  0
  1  2  2  0  0  0  0
  2  3  1  0  0  0  0
  2 12  1  0  0  0  0
  3  4  1  0  0  0  0
  3 23  1  0  0  0  0
  4  5  1  0  0  0  0
  4 24  1  0  0  0  0
  4 25  1  0  0  0  0
  5  6  1  0  0  0  0
  5 26  1  0  0  0  0
  5 27  1  0  0  0  0
  6 11  1  0  0  0  0
  6  7  2  0  0  0  0
  7  8  1  0  0  0  0
  7 28  1  0  0  0  0
  8  9  2  0  0  0  0
  8 29  1  0  0  0  0
  9 10  1  0  0  0  0
  9 30  1  0  0  0  0
 10 11  2  0  0  0  0
 10 31  1  0  0  0  0
 12 22  1  0  0  0  0
 12 13  1  0  0  0  0
 12 32  1  0  0  0  0
 13 14  1  0  0  0  0
 13 33  1  0  0  0  0
 13 34  1  0  0  0  0
 14 15  2  0  0  0  0
 14 16  1  0  0  0  0
 16 17  1  0  0  0  0
 16 22  1  0  0  0  0
 17 21  1  0  0  0  0
 17 18  1  0  0  0  0
 17 35  1  0  0  0  0
 18 19  1  0  0  0  0
 18 36  1  0  0  0  0
 18 37  1  0  0  0  0
 19 20  1  0  0  0  0
 19 38  1  0  0  0  0
 19 39  1  0  0  0  0
 20 21  1  0  0  0  0
 20 40  1  0  0  0  0
 20 41  1  0  0  0  0
 21 42  1  0  0  0  0
 21 43  1  0  0  0  0
 22 44  1  0  0  0  0
 22 45  1  0  0  0  0
M  END
> <s_m_source_file>
AV-unprocessed.smi

> <i_m_source_file_index>
1916

> <i_lp_mmshare_version>
43012

> <i_f3d_flags>
0

> <s_epik_input>
W0NIMl0xW0NIMl1bQ0gyXVtDSDJdW0NIXTFOKFtDSDJdMilDKD1PKVtDSDJdW0NASF0yQyg9TylbTkhdW0NIMl1bQ0gyXWMzW2NIXVtjSF1bY0hdW2NIXW4z

> <s_epik_cmdline>
J2VwaWtfcHl0aG9uJywgJy1waCcsICc3LjAnLCAnLXRuJywgJzgnLCAnLW1hJywgJzIwMCcsICctbWV0YWxfYmluZGluZycsICctaW1hZScsICc8aW5maWxlLm1hZT4nLCAnLW9tYWUnLCAnPG91dGZpbGUubWFlPic=

> <r_epik_Ionization_Penalty>
0.0252359

> <r_epik_Ionization_Penalty_Charging>
0

> <r_epik_Ionization_Penalty_Neutral>
0.0252359

> <r_epik_State_Penalty>
0.020532

> <r_epik_Charging_Adjusted_Penalty>
0.020532

> <i_epik_Tot_Q>
0

> <i_epik_Tot_abs_Q>
0

> <r_epik_Metal_State_Penalty>
0.0196901

> <b_epik_Metal_Only>
0

> <s_lp_Force_Field>
OPLS_2005

> <r_lp_Energy>
33.9945

> <b_lp_Chiralities_Consistent>
1

> <s_lp_Variant>
AV-unprocessed.smi:1916-2

> <Gold.Version>
5.8.1

> <Gold.Id.Protein>
6NUR|6NUR_protein|mol2

> <Gold.PLP.Fitness>
53.1580

> <Gold.PLP.PLP>
-46.8139

> <Gold.PLP.part.hbond>
-4.0000

> <Gold.PLP.part.metal>
0.0000

> <Gold.PLP.part.buried>
-3.8841

> <Gold.PLP.part.nonpolar>
-38.4985

> <Gold.PLP.part.repulsive>
0.1372

> <Gold.PLP.ligand.clash>
0.0000

> <Gold.PLP.ligand.torsion>
0.7540

> <Gold.PLP.Chemscore.Hbond>
2.5840

> <Gold.PLP.Chemscore.CHOScore>
0.0000

> <Gold.PLP.Chemscore.Metal>
0.0000

> <Gold.Chemscore.Hbonds>
donor molecule, donor type, donor heavy atom, donor atom, acceptor molecule, acceptor atom, score
      P1  H  6931  6943       L1    11  0.68
      P1  H  6934  6947       L1    11  1.00
      P1  H  7989  7998       L1    15  0.85

> <Gold.PLP.Chemscore.Internal.Correction>
0.1000

> <Gold.Rescore>
     Score         DG    S(hbond)    S(metal)    S(lipo)     H(rot)  DE(clash)    DE(int)     intcor
     20.49     -21.10       2.21        0.00     105.74       1.61       0.16       0.46       ----

> <Gold.Chemscore.Fitness>
20.4866

> <Gold.Chemscore.DG>
-21.1024

> <Gold.Chemscore.ZeroCoef>
-5.4800

> <Gold.Chemscore.Hbond>
2.2081

> <Gold.Chemscore.Metal>
0.0000

> <Gold.Chemscore.Lipo>
105.7393

> <Gold.Chemscore.Internal_Hbond>
0.0000

> <Gold.Chemscore.DEClash>
0.1605

> <Gold.Chemscore.DEInternal>
0.4553

> <Gold.Chemscore.Rot>
1.6110

> <Gold.Chemscore.Internal.Correction>
   9.000000E+99

> <Gold.Chemscore.Hbonds>
donor molecule, donor type, donor heavy atom, donor atom, acceptor molecule, acceptor atom, score
      P1  H  6896  6907       L1     1  0.02
      P1  H  6931  6943       L1    11  0.21
      P1  H  6934  6947       L1    11  0.89
      P1  H  7989  7998       L1    15  0.51

> <Gold.Chemscore.Hbond.Weighted>
-7.3751

> <Gold.Chemscore.Metal.Weighted>
-0.0000

> <Gold.Chemscore.Lipo.Weighted>
-12.3715

> <Gold.Chemscore.Internal_Hbond.Weighted>
0.0000

> <Gold.Chemscore.DEClash.Weighted>
0.1605

> <Gold.Chemscore.DEInternal.Weighted>
0.4553

> <Gold.Chemscore.Rot.Weighted>
4.1243

> <Gold.Chemscore.Internal.Correction.Weighted>
   9.000000E+99

> <Gold.Protein.RotatedTorsions>
[ 6907 6896 6895 6894 ] final  -25.73 input  -60.11 | X-H torsion
[ 7974 7965 7964 7962 ] final -116.49 input  175.53 | X-H torsion
[ 8008 7997 7996 7995 ] final  110.25 input   59.86 | X-H torsion
[ 10167 10162 10161 10158 ] final  125.96 input  -65.29 | X-H torsion
[ 10718 10713 10712 10709 ] final -130.83 input   66.30 | X-H torsion
[ 10763 10752 10751 10750 ] final -138.40 input  -60.55 | X-H torsion
[ 11005 11000 10999 10996 ] final    4.60 input  -57.11 | X-H torsion

> <Gold.Protein.ActiveResidues>
 VAL166  LYS551  ARG553  GLY616  TRP617  ASP618  TYR619  PRO620  LYS621  CYS622 
 ASP623  PHE694  ASN695  SER759  ASP760  ASP761  ALA762  ILE779  LEU786  VAL792 
 PHE793  MET794  SER795  GLU796  ALA797  LYS798  CYS799  TRP800  GLU811  SER814 

> <Gold.Protein.RotatedAtoms>
  151.1711  135.0318  159.8751 H   0  0  0  0  0  0  0  0  0  0  0  0  # atno 6907 bound_to 6896
  152.5449  134.1170  159.8393 H   0  0  0  0  0  0  0  0  0  0  0  0  # atno 6908 bound_to 6896
  151.1276  133.5013  159.2632 H   0  0  0  0  0  0  0  0  0  0  0  0  # atno 6909 bound_to 6896
  145.0961  140.8522  143.3954 H   0  0  0  0  0  0  0  0  0  0  0  0  # atno 7974 bound_to 7965
  156.2039  140.3042  155.9585 H   0  0  0  0  0  0  0  0  0  0  0  0  # atno 8008 bound_to 7997
  155.2888  140.0441  157.3038 H   0  0  0  0  0  0  0  0  0  0  0  0  # atno 8009 bound_to 7997
  154.5607  140.2319  155.8348 H   0  0  0  0  0  0  0  0  0  0  0  0  # atno 8010 bound_to 7997
  139.5657  144.6909  151.3918 H   0  0  0  0  0  0  0  0  0  0  0  0  # atno 10167 bound_to 10162
  156.2183  130.6962  151.0727 H   0  0  0  0  0  0  0  0  0  0  0  0  # atno 10718 bound_to 10713
  154.8638  135.3613  154.5379 H   0  0  0  0  0  0  0  0  0  0  0  0  # atno 10763 bound_to 10752
  153.6001  135.7013  153.5392 H   0  0  0  0  0  0  0  0  0  0  0  0  # atno 10764 bound_to 10752
  153.3298  135.4127  155.1447 H   0  0  0  0  0  0  0  0  0  0  0  0  # atno 10765 bound_to 10752
  140.5801  134.0021  155.8044 H   0  0  0  0  0  0  0  0  0  0  0  0  # atno 11005 bound_to 11000
  145.1009  139.2823  143.5686 LP  0  0  0  0  0  0  0  0  0  0  0  0  # atno 17320 bound_to 7965
  146.3530  140.0576  142.8631 LP  0  0  0  0  0  0  0  0  0  0  0  0  # atno 17321 bound_to 7965
  140.6940  143.7794  150.7298 LP  0  0  0  0  0  0  0  0  0  0  0  0  # atno 17342 bound_to 10162
  140.1284  143.4548  152.2269 LP  0  0  0  0  0  0  0  0  0  0  0  0  # atno 17343 bound_to 10162
  157.7074  131.0750  150.6618 LP  0  0  0  0  0  0  0  0  0  0  0  0  # atno 17370 bound_to 10713
  156.6680  130.4531  149.5666 LP  0  0  0  0  0  0  0  0  0  0  0  0  # atno 17371 bound_to 10713
  141.1002  133.9780  157.3092 LP  0  0  0  0  0  0  0  0  0  0  0  0  # atno 17394 bound_to 11000
  139.9321  135.0199  156.8436 LP  0  0  0  0  0  0  0  0  0  0  0  0  # atno 17395 bound_to 11000

$$$$
