AV-unprocessed.smi:1268|AV-procd|sdf|5323|dock5
  -GOLD-   22720 4443D 1   1.00000     0.00000
 Structure written by MMmdl.
 40 41  0  0  0  0  0  0  0  0  2 V2000
  150.5997  140.5753  155.5075 O   0  0  0  0  0  0  0  0  0  0  0  0
  150.0449  141.6570  155.7027 C   0  0  0  0  0  0  0  0  0  0  0  0
  149.0570  142.1284  154.9286 N   0  0  0  0  0  0  0  0  0  0  0  0
  148.5242  141.4575  153.7473 C   0  0  0  0  0  0  0  0  0  0  0  0
  148.0655  140.0156  154.0521 C   0  0  2  0  0  0  0  0  0  0  0  0
  149.1773  139.1532  153.9090 O   0  0  0  0  0  0  0  0  0  0  0  0
  146.9944  139.5393  153.0486 C   0  0  0  0  0  0  0  0  0  0  0  0
  146.7678  138.0714  153.1008 N   0  3  0  0  0  0  0  0  0  0  0  0
  145.6860  137.6377  152.1782 C   0  0  0  0  0  0  0  0  0  0  0  0
  145.5619  136.1052  152.1432 C   0  0  0  0  0  0  0  0  0  0  0  0
  145.3347  135.5401  153.5508 C   0  0  0  0  0  0  0  0  0  0  0  0
  146.4472  136.0213  154.4906 C   0  0  0  0  0  0  0  0  0  0  0  0
  146.5524  137.5558  154.4797 C   0  0  0  0  0  0  0  0  0  0  0  0
  150.3363  142.5129  156.6976 N   0  0  0  0  0  0  0  0  0  0  0  0
  151.3208  142.3766  157.7116 C   0  0  0  0  0  0  0  0  0  0  0  0
  151.6972  141.2090  158.2459 N   0  0  0  0  0  0  0  0  0  0  0  0
  152.6856  141.3725  159.2198 C   0  0  0  0  0  0  0  0  0  0  0  0
  153.0501  142.6809  159.4177 C   0  0  0  0  0  0  0  0  0  0  0  0
  152.1619  143.7663  158.3820 S   0  0  0  0  0  0  0  0  0  0  0  0
  148.6585  143.0265  155.1610 H   0  0  0  0  0  0  0  0  0  0  0  0
  147.6666  142.0531  153.4331 H   0  0  0  0  0  0  0  0  0  0  0  0
  149.2317  141.4910  152.9163 H   0  0  0  0  0  0  0  0  0  0  0  0
  147.6883  139.9584  155.0730 H   0  0  0  0  0  0  0  0  0  0  0  0
  149.4549  139.1679  153.0044 H   0  0  0  0  0  0  0  0  0  0  0  0
  146.0474  140.0524  153.2234 H   0  0  0  0  0  0  0  0  0  0  0  0
  147.3122  139.8277  152.0450 H   0  0  0  0  0  0  0  0  0  0  0  0
  144.7407  138.0858  152.4884 H   0  0  0  0  0  0  0  0  0  0  0  0
  145.8938  137.9998  151.1705 H   0  0  0  0  0  0  0  0  0  0  0  0
  144.7415  135.8123  151.4875 H   0  0  0  0  0  0  0  0  0  0  0  0
  146.4683  135.6736  151.7162 H   0  0  0  0  0  0  0  0  0  0  0  0
  144.3649  135.8667  153.9285 H   0  0  0  0  0  0  0  0  0  0  0  0
  145.3087  134.4505  153.5214 H   0  0  0  0  0  0  0  0  0  0  0  0
  146.2567  135.6673  155.5042 H   0  0  0  0  0  0  0  0  0  0  0  0
  147.3998  135.5861  154.1848 H   0  0  0  0  0  0  0  0  0  0  0  0
  147.3723  137.8551  155.1311 H   0  0  0  0  0  0  0  0  0  0  0  0
  145.6440  137.9947  154.8956 H   0  0  0  0  0  0  0  0  0  0  0  0
  149.7999  143.3672  156.7282 H   0  0  0  0  0  0  0  0  0  0  0  0
  153.0749  140.5004  159.7241 H   0  0  0  0  0  0  0  0  0  0  0  0
  153.7846  143.0702  160.1068 H   0  0  0  0  0  0  0  0  0  0  0  0
  147.6173  137.6473  152.7549 H   0  0  0  0  0  0  0  0  0  0  0  0
  1  2  2  0  0  0  0
  2  3  1  0  0  0  0
  2 14  1  0  0  0  0
  3  4  1  0  0  0  0
  3 20  1  0  0  0  0
  4  5  1  0  0  0  0
  4 21  1  0  0  0  0
  4 22  1  0  0  0  0
  5  6  1  0  0  0  0
  5  7  1  0  0  0  0
  5 23  1  0  0  0  0
  6 24  1  0  0  0  0
  7  8  1  0  0  0  0
  7 25  1  0  0  0  0
  7 26  1  0  0  0  0
  8 13  1  0  0  0  0
  8  9  1  0  0  0  0
  8 40  1  0  0  0  0
  9 10  1  0  0  0  0
  9 27  1  0  0  0  0
  9 28  1  0  0  0  0
 10 11  1  0  0  0  0
 10 29  1  0  0  0  0
 10 30  1  0  0  0  0
 11 12  1  0  0  0  0
 11 31  1  0  0  0  0
 11 32  1  0  0  0  0
 12 13  1  0  0  0  0
 12 33  1  0  0  0  0
 12 34  1  0  0  0  0
 13 35  1  0  0  0  0
 13 36  1  0  0  0  0
 14 15  1  0  0  0  0
 14 37  1  0  0  0  0
 15 19  1  0  0  0  0
 15 16  2  0  0  0  0
 16 17  1  0  0  0  0
 17 18  2  0  0  0  0
 17 38  1  0  0  0  0
 18 19  1  0  0  0  0
 18 39  1  0  0  0  0
M  CHG  1   8   1
M  END
> <s_m_source_file>
AV-unprocessed.smi

> <i_m_source_file_index>
1268

> <i_lp_mmshare_version>
43012

> <i_f3d_flags>
0

> <s_epik_input>
czFbY0hdW2NIXW5jMVtOSF1DKD1PKVtOSF1bQ0gyXVtDQEhdKFtPSF0pW0NIMl1OMltDSDJdW0NIMl1bQ0gyXVtDSDJdW0NIMl0y

> <s_epik_cmdline>
J2VwaWtfcHl0aG9uJywgJy1waCcsICc3LjAnLCAnLXRuJywgJzgnLCAnLW1hJywgJzIwMCcsICctbWV0YWxfYmluZGluZycsICctaW1hZScsICc8aW5maWxlLm1hZT4nLCAnLW9tYWUnLCAnPG91dGZpbGUubWFlPic=

> <r_lp_tautomer_probability>
0.999

> <r_epik_Ionization_Penalty>
0.00539631

> <r_epik_Ionization_Penalty_Charging>
0.00525788

> <r_epik_Ionization_Penalty_Neutral>
0.000138432

> <r_epik_State_Penalty>
0.0038355

> <r_epik_Charging_Adjusted_Penalty>
0.00909338

> <i_epik_Tot_Q>
1

> <i_epik_Tot_abs_Q>
1

> <r_epik_Metal_State_Penalty>
0.0500806

> <b_epik_Metal_Only>
0

> <s_lp_Force_Field>
OPLS_2005

> <r_lp_Energy>
16.7111

> <b_lp_Chiralities_Consistent>
1

> <s_lp_Variant>
AV-unprocessed.smi:1268-1

> <Gold.Version>
5.8.1

> <Gold.Id.Protein>
6NUR|6NUR_protein|mol2

> <Gold.PLP.Fitness>
47.7042

> <Gold.PLP.PLP>
-32.6272

> <Gold.PLP.part.hbond>
-5.0000

> <Gold.PLP.part.metal>
0.0000

> <Gold.PLP.part.buried>
0.0204

> <Gold.PLP.part.nonpolar>
-26.1116

> <Gold.PLP.part.repulsive>
0.3575

> <Gold.PLP.ligand.clash>
0.0000

> <Gold.PLP.ligand.torsion>
0.6412

> <Gold.PLP.Chemscore.Hbond>
5.4440

> <Gold.PLP.Chemscore.CHOScore>
0.0000

> <Gold.PLP.Chemscore.Metal>
0.0000

> <Gold.Chemscore.Hbonds>
donor molecule, donor type, donor heavy atom, donor atom, acceptor molecule, acceptor atom, score
      L1  H     3    20       P1  8028  1.00
      L1  H     6    24       P1  7957  0.98
      L1  H     8    40       P1  7948  1.50
      L1  H    14    37       P1  8028  0.91
      P1  H  7989  7998       L1     1  0.36

> <Gold.PLP.Chemscore.Internal.Correction>
0.0274

> <Gold.Rescore>
     Score         DG    S(hbond)    S(metal)    S(lipo)     H(rot)  DE(clash)    DE(int)     intcor
     18.02     -21.52       4.22        0.00      72.17       2.54       0.64       2.86       ----

> <Gold.Chemscore.Fitness>
18.0191

> <Gold.Chemscore.DG>
-21.5242

> <Gold.Chemscore.ZeroCoef>
-5.4800

> <Gold.Chemscore.Hbond>
4.2212

> <Gold.Chemscore.Metal>
0.0000

> <Gold.Chemscore.Lipo>
72.1673

> <Gold.Chemscore.Internal_Hbond>
0.0000

> <Gold.Chemscore.DEClash>
0.6425

> <Gold.Chemscore.DEInternal>
2.8627

> <Gold.Chemscore.Rot>
2.5383

> <Gold.Chemscore.Internal.Correction>
   9.000000E+99

> <Gold.Chemscore.Hbonds>
donor molecule, donor type, donor heavy atom, donor atom, acceptor molecule, acceptor atom, score
      L1  H     3    20       P1  8028  0.94
      L1  H     6    24       P1  7957  0.90
      L1  H     8    40       P1  7948  0.75
      L1  H    14    37       P1  8028  0.89
      P1  H  7989  7998       L1     1  0.14

> <Gold.Chemscore.Hbond.Weighted>
-14.0988

> <Gold.Chemscore.Metal.Weighted>
-0.0000

> <Gold.Chemscore.Lipo.Weighted>
-8.4436

> <Gold.Chemscore.Internal_Hbond.Weighted>
0.0000

> <Gold.Chemscore.DEClash.Weighted>
0.6425

> <Gold.Chemscore.DEInternal.Weighted>
2.8627

> <Gold.Chemscore.Rot.Weighted>
6.4981

> <Gold.Chemscore.Internal.Correction.Weighted>
   9.000000E+99

> <Gold.Protein.RotatedTorsions>
[ 6907 6896 6895 6894 ] final  167.77 input  -60.11 | X-H torsion
[ 7974 7965 7964 7962 ] final   58.92 input  175.53 | X-H torsion
[ 8008 7997 7996 7995 ] final  100.11 input   59.86 | X-H torsion
[ 10167 10162 10161 10158 ] final  170.28 input  -65.29 | X-H torsion
[ 10718 10713 10712 10709 ] final   97.14 input   66.30 | X-H torsion
[ 10763 10752 10751 10750 ] final   40.40 input  -60.55 | X-H torsion
[ 11005 11000 10999 10996 ] final  -64.54 input  -57.11 | X-H torsion

> <Gold.Protein.ActiveResidues>
 VAL166  LYS551  ARG553  GLY616  TRP617  ASP618  TYR619  PRO620  LYS621  CYS622 
 ASP623  PHE694  ASN695  SER759  ASP760  ASP761  ALA762  ILE779  LEU786  VAL792 
 PHE793  MET794  SER795  GLU796  ALA797  LYS798  CYS799  TRP800  GLU811  SER814 

> <Gold.Protein.RotatedAtoms>
  151.8582  133.3452  159.3694 H   0  0  0  0  0  0  0  0  0  0  0  0  # atno 6907 bound_to 6896
  150.7187  134.5233  159.5673 H   0  0  0  0  0  0  0  0  0  0  0  0  # atno 6908 bound_to 6896
  152.2740  134.7902  160.0460 H   0  0  0  0  0  0  0  0  0  0  0  0  # atno 6909 bound_to 6896
  145.9128  139.3668  143.0525 H   0  0  0  0  0  0  0  0  0  0  0  0  # atno 7974 bound_to 7965
  156.1171  140.3218  155.8155 H   0  0  0  0  0  0  0  0  0  0  0  0  # atno 8008 bound_to 7997
  155.4570  140.0536  157.3012 H   0  0  0  0  0  0  0  0  0  0  0  0  # atno 8009 bound_to 7997
  154.4801  140.2049  155.9798 H   0  0  0  0  0  0  0  0  0  0  0  0  # atno 8010 bound_to 7997
  139.5014  144.3613  151.9821 H   0  0  0  0  0  0  0  0  0  0  0  0  # atno 10167 bound_to 10162
  157.6917  131.0600  150.4598 H   0  0  0  0  0  0  0  0  0  0  0  0  # atno 10718 bound_to 10713
  152.9937  135.6192  154.2621 H   0  0  0  0  0  0  0  0  0  0  0  0  # atno 10763 bound_to 10752
  154.2356  135.2790  155.2875 H   0  0  0  0  0  0  0  0  0  0  0  0  # atno 10764 bound_to 10752
  154.5412  135.5760  153.6899 H   0  0  0  0  0  0  0  0  0  0  0  0  # atno 10765 bound_to 10752
  141.1427  133.6667  156.5848 H   0  0  0  0  0  0  0  0  0  0  0  0  # atno 11005 bound_to 11000
  145.8649  140.9454  143.0680 LP  0  0  0  0  0  0  0  0  0  0  0  0  # atno 17320 bound_to 7965
  144.6745  140.0579  143.7477 LP  0  0  0  0  0  0  0  0  0  0  0  0  # atno 17321 bound_to 7965
  140.3049  144.3604  150.6049 LP  0  0  0  0  0  0  0  0  0  0  0  0  # atno 17342 bound_to 10162
  140.5844  143.2171  151.7369 LP  0  0  0  0  0  0  0  0  0  0  0  0  # atno 17343 bound_to 10162
  156.4943  130.4102  149.6388 LP  0  0  0  0  0  0  0  0  0  0  0  0  # atno 17370 bound_to 10713
  156.3387  130.7370  151.2312 LP  0  0  0  0  0  0  0  0  0  0  0  0  # atno 17371 bound_to 10713
  140.3809  134.7524  157.4660 LP  0  0  0  0  0  0  0  0  0  0  0  0  # atno 17394 bound_to 11000
  140.0638  134.5958  155.8718 LP  0  0  0  0  0  0  0  0  0  0  0  0  # atno 17395 bound_to 11000

$$$$
