AV-unprocessed.smi:389|AV-procd|sdf|2477|dock3
  -GOLD-   2262022413D 1   1.00000     0.00000
 Structure written by MMmdl.
 33 33  0  0  0  0  0  0  0  0  2 V2000
  152.0217  144.9400  159.1679 C   0  0  0  0  0  0  0  0  0  0  0  0
  151.8659  143.4112  159.2314 C   0  0  0  0  0  0  0  0  0  0  0  0
  153.1987  142.7538  159.6218 C   0  0  0  0  0  0  0  0  0  0  0  0
  151.3295  142.8173  157.9129 C   0  0  0  0  0  0  0  0  0  0  0  0
  151.3708  141.2783  157.8566 C   0  0  0  0  0  0  0  0  0  0  0  0
  150.2941  140.7401  157.0339 N   0  0  0  0  0  0  0  0  0  0  0  0
  150.3991  140.4277  155.7335 C   0  0  0  0  0  0  0  0  0  0  0  0
  151.4344  140.5857  155.0845 O   0  0  0  0  0  0  0  0  0  0  0  0
  149.1277  139.8805  155.0695 C   0  0  0  0  0  0  0  0  0  0  0  0
  148.0083  140.8360  155.0839 N   0  0  0  0  0  0  0  0  0  0  0  0
  147.6070  141.3895  153.8552 C   0  0  0  0  0  0  0  0  0  0  0  0
  146.5898  142.2678  153.7699 C   0  0  0  0  0  0  0  0  0  0  0  0
  145.8976  142.6433  154.9966 C   0  0  0  0  0  0  0  0  0  0  0  0
  144.9699  143.4481  154.9384 O   0  0  0  0  0  0  0  0  0  0  0  0
  146.3205  142.0746  156.1635 N   0  5  0  0  0  0  0  0  0  0  0  0
  147.3543  141.1794  156.2345 C   0  0  0  0  0  0  0  0  0  0  0  0
  147.7170  140.6744  157.2977 O   0  0  0  0  0  0  0  0  0  0  0  0
  152.6968  145.2358  158.3643 H   0  0  0  0  0  0  0  0  0  0  0  0
  152.4274  145.3313  160.1013 H   0  0  0  0  0  0  0  0  0  0  0  0
  151.0662  145.4370  159.0027 H   0  0  0  0  0  0  0  0  0  0  0  0
  151.1500  143.1792  160.0210 H   0  0  0  0  0  0  0  0  0  0  0  0
  153.9694  142.9445  158.8742 H   0  0  0  0  0  0  0  0  0  0  0  0
  153.0914  141.6733  159.7211 H   0  0  0  0  0  0  0  0  0  0  0  0
  153.5601  143.1349  160.5773 H   0  0  0  0  0  0  0  0  0  0  0  0
  150.3102  143.1656  157.7397 H   0  0  0  0  0  0  0  0  0  0  0  0
  151.9244  143.2111  157.0877 H   0  0  0  0  0  0  0  0  0  0  0  0
  152.3351  140.9329  157.4797 H   0  0  0  0  0  0  0  0  0  0  0  0
  151.2574  140.8576  158.8552 H   0  0  0  0  0  0  0  0  0  0  0  0
  149.4069  140.5801  157.4890 H   0  0  0  0  0  0  0  0  0  0  0  0
  149.3517  139.5792  154.0445 H   0  0  0  0  0  0  0  0  0  0  0  0
  148.8457  138.9603  155.5827 H   0  0  0  0  0  0  0  0  0  0  0  0
  148.1666  141.0529  152.9949 H   0  0  0  0  0  0  0  0  0  0  0  0
  146.2913  142.6806  152.8175 H   0  0  0  0  0  0  0  0  0  0  0  0
  1  2  1  0  0  0  0
  1 18  1  0  0  0  0
  1 19  1  0  0  0  0
  1 20  1  0  0  0  0
  2  3  1  0  0  0  0
  2  4  1  0  0  0  0
  2 21  1  0  0  0  0
  3 22  1  0  0  0  0
  3 23  1  0  0  0  0
  3 24  1  0  0  0  0
  4  5  1  0  0  0  0
  4 25  1  0  0  0  0
  4 26  1  0  0  0  0
  5  6  1  0  0  0  0
  5 27  1  0  0  0  0
  5 28  1  0  0  0  0
  6  7  1  0  0  0  0
  6 29  1  0  0  0  0
  7  8  2  0  0  0  0
  7  9  1  0  0  0  0
  9 10  1  0  0  0  0
  9 30  1  0  0  0  0
  9 31  1  0  0  0  0
 10 16  1  0  0  0  0
 10 11  1  0  0  0  0
 11 12  2  0  0  0  0
 11 32  1  0  0  0  0
 12 13  1  0  0  0  0
 12 33  1  0  0  0  0
 13 14  2  0  0  0  0
 13 15  1  0  0  0  0
 15 16  1  0  0  0  0
 16 17  2  0  0  0  0
M  CHG  1  15  -1
M  END
> <s_m_source_file>
AV-unprocessed.smi

> <i_m_source_file_index>
389

> <i_lp_mmshare_version>
43012

> <i_f3d_flags>
0

> <s_epik_input>
W0NIM11bQ0hdKFtDSDNdKVtDSDJdW0NIMl1bTkhdQyg9TylbQ0gyXW4xW2NIXVtjSF1jKD1PKVtuSF1jMT1P

> <s_epik_cmdline>
J2VwaWtfcHl0aG9uJywgJy1waCcsICc3LjAnLCAnLXRuJywgJzgnLCAnLW1hJywgJzIwMCcsICctbWV0YWxfYmluZGluZycsICctaW1hZScsICc8aW5maWxlLm1hZT4nLCAnLW9tYWUnLCAnPG91dGZpbGUubWFlPic=

> <r_lp_tautomer_probability>
0.999537

> <r_epik_Ionization_Penalty>
3.12283

> <r_epik_Ionization_Penalty_Charging>
2.83566e-08

> <r_epik_Ionization_Penalty_Neutral>
3.12283

> <r_epik_State_Penalty>
3.12192

> <r_epik_Charging_Adjusted_Penalty>
3.12192

> <i_epik_Tot_Q>
-1

> <i_epik_Tot_abs_Q>
1

> <r_epik_Metal_State_Penalty>
0.463748

> <b_epik_Metal_Only>
1

> <s_lp_Force_Field>
OPLS_2005

> <r_lp_Energy>
12.9702

> <b_lp_Chiralities_Consistent>
1

> <s_lp_Variant>
AV-unprocessed.smi:389-2

> <Gold.Version>
5.8.1

> <Gold.Id.Protein>
6NUR|6NUR_protein|mol2

> <Gold.PLP.Fitness>
37.3673

> <Gold.PLP.PLP>
-32.6694

> <Gold.PLP.part.hbond>
-0.8844

> <Gold.PLP.part.metal>
0.0000

> <Gold.PLP.part.buried>
-5.2133

> <Gold.PLP.part.nonpolar>
-27.3466

> <Gold.PLP.part.repulsive>
0.4169

> <Gold.PLP.ligand.clash>
0.0000

> <Gold.PLP.ligand.torsion>
0.5246

> <Gold.PLP.Chemscore.Hbond>
0.9120

> <Gold.PLP.Chemscore.CHOScore>
1.0000

> <Gold.PLP.Chemscore.Metal>
0.0000

> <Gold.Chemscore.Hbonds>
donor molecule, donor type, donor heavy atom, donor atom, acceptor molecule, acceptor atom, score
      P1  H  7989  7998       L1     8  0.85
      L1  C    11    32       P1  7957  1.00

> <Gold.PLP.Chemscore.Internal.Correction>
0.0110

> <Gold.Rescore>
     Score         DG    S(hbond)    S(metal)    S(lipo)     H(rot)  DE(clash)    DE(int)     intcor
     11.03     -11.93       0.92        0.00      76.60       2.18       0.04       0.86       ----

> <Gold.Chemscore.Fitness>
11.0334

> <Gold.Chemscore.DG>
-11.9322

> <Gold.Chemscore.ZeroCoef>
-5.4800

> <Gold.Chemscore.Hbond>
0.9221

> <Gold.Chemscore.Metal>
0.0000

> <Gold.Chemscore.Lipo>
76.5979

> <Gold.Chemscore.Internal_Hbond>
0.0000

> <Gold.Chemscore.DEClash>
0.0358

> <Gold.Chemscore.DEInternal>
0.8629

> <Gold.Chemscore.Rot>
2.1834

> <Gold.Chemscore.Internal.Correction>
   9.000000E+99

> <Gold.Chemscore.Hbonds>
donor molecule, donor type, donor heavy atom, donor atom, acceptor molecule, acceptor atom, score
      P1  H  7989  7998       L1     8  0.84

> <Gold.Chemscore.Hbond.Weighted>
-3.0797

> <Gold.Chemscore.Metal.Weighted>
-0.0000

> <Gold.Chemscore.Lipo.Weighted>
-8.9620

> <Gold.Chemscore.Internal_Hbond.Weighted>
0.0000

> <Gold.Chemscore.DEClash.Weighted>
0.0358

> <Gold.Chemscore.DEInternal.Weighted>
0.8629

> <Gold.Chemscore.Rot.Weighted>
5.5895

> <Gold.Chemscore.Internal.Correction.Weighted>
   9.000000E+99

> <Gold.Protein.RotatedTorsions>
[ 6907 6896 6895 6894 ] final  117.08 input  -60.11 | X-H torsion
[ 7974 7965 7964 7962 ] final   10.78 input  175.53 | X-H torsion
[ 8008 7997 7996 7995 ] final  -10.08 input   59.86 | X-H torsion
[ 10167 10162 10161 10158 ] final  -60.94 input  -65.29 | X-H torsion
[ 10718 10713 10712 10709 ] final  140.86 input   66.30 | X-H torsion
[ 10763 10752 10751 10750 ] final  -13.23 input  -60.55 | X-H torsion
[ 11005 11000 10999 10996 ] final  -72.24 input  -57.11 | X-H torsion

> <Gold.Protein.ActiveResidues>
 VAL166  LYS551  ARG553  GLY616  TRP617  ASP618  TYR619  PRO620  LYS621  CYS622 
 ASP623  PHE694  ASN695  SER759  ASP760  ASP761  ALA762  ILE779  LEU786  VAL792 
 PHE793  MET794  SER795  GLU796  ALA797  LYS798  CYS799  TRP800  GLU811  SER814 

> <Gold.Protein.RotatedAtoms>
  152.4636  133.7874  159.6883 H   0  0  0  0  0  0  0  0  0  0  0  0  # atno 6907 bound_to 6896
  150.8590  133.7662  159.3005 H   0  0  0  0  0  0  0  0  0  0  0  0  # atno 6908 bound_to 6896
  151.5233  135.1070  159.9936 H   0  0  0  0  0  0  0  0  0  0  0  0  # atno 6909 bound_to 6896
  146.2382  139.9583  142.8461 H   0  0  0  0  0  0  0  0  0  0  0  0  # atno 7974 bound_to 7965
  154.5587  140.2338  155.8369 H   0  0  0  0  0  0  0  0  0  0  0  0  # atno 8008 bound_to 7997
  156.2011  140.3052  155.9488 H   0  0  0  0  0  0  0  0  0  0  0  0  # atno 8009 bound_to 7997
  155.2930  140.0427  157.3015 H   0  0  0  0  0  0  0  0  0  0  0  0  # atno 8010 bound_to 7997
  140.6039  143.2368  151.5866 H   0  0  0  0  0  0  0  0  0  0  0  0  # atno 10167 bound_to 10162
  157.3985  131.1014  151.0575 H   0  0  0  0  0  0  0  0  0  0  0  0  # atno 10718 bound_to 10713
  153.5102  135.7016  153.5785 H   0  0  0  0  0  0  0  0  0  0  0  0  # atno 10763 bound_to 10752
  153.3878  135.3903  155.1902 H   0  0  0  0  0  0  0  0  0  0  0  0  # atno 10764 bound_to 10752
  154.8704  135.3851  154.4582 H   0  0  0  0  0  0  0  0  0  0  0  0  # atno 10765 bound_to 10752
  141.1605  133.6841  156.7029 H   0  0  0  0  0  0  0  0  0  0  0  0  # atno 11005 bound_to 11000
  145.1795  140.9760  143.4274 LP  0  0  0  0  0  0  0  0  0  0  0  0  # atno 17320 bound_to 7965
  144.9955  139.3648  143.6193 LP  0  0  0  0  0  0  0  0  0  0  0  0  # atno 17321 bound_to 7965
  139.5310  144.2915  152.1148 LP  0  0  0  0  0  0  0  0  0  0  0  0  # atno 17342 bound_to 10162
  140.2101  144.4571  150.6390 LP  0  0  0  0  0  0  0  0  0  0  0  0  # atno 17343 bound_to 10162
  157.1583  130.6214  149.5603 LP  0  0  0  0  0  0  0  0  0  0  0  0  # atno 17370 bound_to 10713
  155.9817  130.4825  150.6840 LP  0  0  0  0  0  0  0  0  0  0  0  0  # atno 17371 bound_to 10713
  140.2945  134.8213  157.4045 LP  0  0  0  0  0  0  0  0  0  0  0  0  # atno 17394 bound_to 11000
  140.1317  134.5087  155.8100 LP  0  0  0  0  0  0  0  0  0  0  0  0  # atno 17395 bound_to 11000

$$$$
