AV-unprocessed.smi:798|AV-procd|sdf|3783|dock2
  -GOLD-   22720 1213D 1   1.00000     0.00000
 Structure written by MMmdl.
 33 35  0  0  0  0  0  0  0  0  2 V2000
  150.9066  141.4055  156.4472 O   0  0  0  0  0  0  0  0  0  0  0  0
  151.8657  140.8737  157.0111 C   0  0  0  0  0  0  0  0  0  0  0  0
  152.6418  139.8852  156.5116 N   0  5  0  0  0  0  0  0  0  0  0  0
  152.1056  138.9523  155.7077 C   0  0  0  0  0  0  0  0  0  0  0  0
  152.5600  137.6893  155.6708 N   0  0  0  0  0  0  0  0  0  0  0  0
  151.8709  136.8870  154.7712 N   0  0  0  0  0  0  0  0  0  0  0  0
  150.9162  137.5721  154.1422 C   0  0  0  0  0  0  0  0  0  0  0  0
  150.7731  139.2587  154.5903 S   0  0  0  0  0  0  0  0  0  0  0  0
  152.2178  141.2626  158.2450 N   0  0  0  0  0  0  0  0  0  0  0  0
  151.5682  142.3048  159.0427 C   0  0  2  0  0  0  0  0  0  0  0  0
  151.4828  143.6175  158.2342 C   0  0  1  0  0  0  0  0  0  0  0  0
  150.4724  144.5613  158.9114 C   0  0  0  0  0  0  0  0  0  0  0  0
  151.2245  144.9971  160.1835 C   0  0  0  0  0  0  0  0  0  0  0  0
  152.5672  144.2487  160.0630 C   0  0  2  0  0  0  0  0  0  0  0  0
  152.8070  144.2980  158.5595 C   0  0  0  0  0  0  0  0  0  0  0  0
  152.3412  142.7392  160.3257 C   0  0  2  0  0  0  0  0  0  0  0  0
  153.6470  141.9692  160.6297 C   0  0  0  0  0  0  0  0  0  0  0  0
  153.8983  141.9478  162.0194 O   0  0  0  0  0  0  0  0  0  0  0  0
  150.2947  137.0819  153.4078 H   0  0  0  0  0  0  0  0  0  0  0  0
  153.0082  140.7967  158.6658 H   0  0  0  0  0  0  0  0  0  0  0  0
  150.5605  141.9730  159.3006 H   0  0  0  0  0  0  0  0  0  0  0  0
  151.2876  143.4723  157.1708 H   0  0  0  0  0  0  0  0  0  0  0  0
  150.2614  145.4232  158.2773 H   0  0  0  0  0  0  0  0  0  0  0  0
  149.5245  144.0695  159.1328 H   0  0  0  0  0  0  0  0  0  0  0  0
  151.3815  146.0765  160.1825 H   0  0  0  0  0  0  0  0  0  0  0  0
  150.6851  144.7404  161.0959 H   0  0  0  0  0  0  0  0  0  0  0  0
  153.3585  144.6941  160.6666 H   0  0  0  0  0  0  0  0  0  0  0  0
  153.6794  143.7287  158.2358 H   0  0  0  0  0  0  0  0  0  0  0  0
  152.8798  145.3133  158.1656 H   0  0  0  0  0  0  0  0  0  0  0  0
  151.6855  142.6139  161.1891 H   0  0  0  0  0  0  0  0  0  0  0  0
  153.5674  140.9348  160.2958 H   0  0  0  0  0  0  0  0  0  0  0  0
  154.5026  142.4112  160.1186 H   0  0  0  0  0  0  0  0  0  0  0  0
  154.4920  142.6537  162.2250 H   0  0  0  0  0  0  0  0  0  0  0  0
  1  2  2  0  0  0  0
  2  3  1  0  0  0  0
  2  9  1  0  0  0  0
  3  4  1  0  0  0  0
  4  8  1  0  0  0  0
  4  5  2  0  0  0  0
  5  6  1  0  0  0  0
  6  7  2  0  0  0  0
  7  8  1  0  0  0  0
  7 19  1  0  0  0  0
  9 10  1  0  0  0  0
  9 20  1  0  0  0  0
 10 16  1  0  0  0  0
 10 11  1  0  0  0  0
 10 21  1  0  0  0  0
 11 15  1  0  0  0  0
 11 12  1  0  0  0  0
 11 22  1  0  0  0  0
 12 13  1  0  0  0  0
 12 23  1  0  0  0  0
 12 24  1  0  0  0  0
 13 14  1  0  0  0  0
 13 25  1  0  0  0  0
 13 26  1  0  0  0  0
 14 15  1  0  0  0  0
 14 16  1  0  0  0  0
 14 27  1  0  0  0  0
 15 28  1  0  0  0  0
 15 29  1  0  0  0  0
 16 17  1  0  0  0  0
 16 30  1  0  0  0  0
 17 18  1  0  0  0  0
 17 31  1  0  0  0  0
 17 32  1  0  0  0  0
 18 33  1  0  0  0  0
M  CHG  1   3  -1
M  END
> <s_m_source_file>
AV-unprocessed.smi

> <i_m_source_file_index>
798

> <i_lp_mmshare_version>
43012

> <i_f3d_flags>
0

> <s_epik_input>
W0NIMl0xW0NIMl1bQ0BASF0oW0NIMl0yKVtDQEBIXShbQ0gyXVtPSF0pW0NAQEhdKFtDQEhdMTIpW05IXUMoPU8pW05IXWMzbm5bY0hdczM=

> <s_epik_cmdline>
J2VwaWtfcHl0aG9uJywgJy1waCcsICc3LjAnLCAnLXRuJywgJzgnLCAnLW1hJywgJzIwMCcsICctbWV0YWxfYmluZGluZycsICctaW1hZScsICc8aW5maWxlLm1hZT4nLCAnLW9tYWUnLCAnPG91dGZpbGUubWFlPic=

> <r_lp_tautomer_probability>
1

> <r_epik_Ionization_Penalty>
4.53732

> <r_epik_Ionization_Penalty_Charging>
4.48632

> <r_epik_Ionization_Penalty_Neutral>
0.0510007

> <r_epik_State_Penalty>
4.48602

> <r_epik_Charging_Adjusted_Penalty>
8.97234

> <i_epik_Tot_Q>
-1

> <i_epik_Tot_abs_Q>
1

> <r_epik_Metal_State_Penalty>
0.812492

> <b_epik_Metal_Only>
1

> <s_lp_Force_Field>
OPLS_2005

> <r_lp_Energy>
47.4456

> <b_lp_Chiralities_Consistent>
1

> <s_lp_Variant>
AV-unprocessed.smi:798-15

> <Gold.Version>
5.8.1

> <Gold.Id.Protein>
6NUR|6NUR_protein|mol2

> <Gold.PLP.Fitness>
50.4618

> <Gold.PLP.PLP>
-40.2987

> <Gold.PLP.part.hbond>
-3.5642

> <Gold.PLP.part.metal>
0.0000

> <Gold.PLP.part.buried>
-6.2519

> <Gold.PLP.part.nonpolar>
-31.6931

> <Gold.PLP.part.repulsive>
0.2389

> <Gold.PLP.ligand.clash>
0.0000

> <Gold.PLP.ligand.torsion>
0.8930

> <Gold.PLP.Chemscore.Hbond>
3.0000

> <Gold.PLP.Chemscore.CHOScore>
0.9751

> <Gold.PLP.Chemscore.Metal>
0.0000

> <Gold.Chemscore.Hbonds>
donor molecule, donor type, donor heavy atom, donor atom, acceptor molecule, acceptor atom, score
      P1  H  7997  8009       L1     3  2.00
      P1  H 10752 10763       L1     6  1.00
      L1  C     7    19       P1  7948  0.68
      L1  C     7    19       P1  7949  0.19

> <Gold.PLP.Chemscore.Internal.Correction>
0.0238

> <Gold.Rescore>
     Score         DG    S(hbond)    S(metal)    S(lipo)     H(rot)  DE(clash)    DE(int)     intcor
     14.68     -18.40       1.69        0.00     104.09       1.92       0.16       3.56       ----

> <Gold.Chemscore.Fitness>
14.6796

> <Gold.Chemscore.DG>
-18.3989

> <Gold.Chemscore.ZeroCoef>
-5.4800

> <Gold.Chemscore.Hbond>
1.6939

> <Gold.Chemscore.Metal>
0.0000

> <Gold.Chemscore.Lipo>
104.0875

> <Gold.Chemscore.Internal_Hbond>
0.0000

> <Gold.Chemscore.DEClash>
0.1572

> <Gold.Chemscore.DEInternal>
3.5621

> <Gold.Chemscore.Rot>
1.9207

> <Gold.Chemscore.Internal.Correction>
   9.000000E+99

> <Gold.Chemscore.Hbonds>
donor molecule, donor type, donor heavy atom, donor atom, acceptor molecule, acceptor atom, score
      P1  H  7997  8009       L1     3  0.93
      P1  H 10752 10763       L1     6  0.44

> <Gold.Chemscore.Hbond.Weighted>
-5.6576

> <Gold.Chemscore.Metal.Weighted>
-0.0000

> <Gold.Chemscore.Lipo.Weighted>
-12.1782

> <Gold.Chemscore.Internal_Hbond.Weighted>
0.0000

> <Gold.Chemscore.DEClash.Weighted>
0.1572

> <Gold.Chemscore.DEInternal.Weighted>
3.5621

> <Gold.Chemscore.Rot.Weighted>
4.9169

> <Gold.Chemscore.Internal.Correction.Weighted>
   9.000000E+99

> <Gold.Protein.RotatedTorsions>
[ 6907 6896 6895 6894 ] final -164.83 input  -60.11 | X-H torsion
[ 7974 7965 7964 7962 ] final  179.66 input  175.53 | X-H torsion
[ 8008 7997 7996 7995 ] final -171.17 input   59.86 | X-H torsion
[ 10167 10162 10161 10158 ] final  105.62 input  -65.29 | X-H torsion
[ 10718 10713 10712 10709 ] final   95.05 input   66.30 | X-H torsion
[ 10763 10752 10751 10750 ] final   49.40 input  -60.55 | X-H torsion
[ 11005 11000 10999 10996 ] final  -77.71 input  -57.11 | X-H torsion

> <Gold.Protein.ActiveResidues>
 VAL166  LYS551  ARG553  GLY616  TRP617  ASP618  TYR619  PRO620  LYS621  CYS622 
 ASP623  PHE694  ASN695  SER759  ASP760  ASP761  ALA762  ILE779  LEU786  VAL792 
 PHE793  MET794  SER795  GLU796  ALA797  LYS798  CYS799  TRP800  GLU811  SER814 

> <Gold.Protein.RotatedAtoms>
  151.4181  133.3706  159.2752 H   0  0  0  0  0  0  0  0  0  0  0  0  # atno 6907 bound_to 6896
  150.9314  134.8730  159.7564 H   0  0  0  0  0  0  0  0  0  0  0  0  # atno 6908 bound_to 6896
  152.5029  134.4126  159.9506 H   0  0  0  0  0  0  0  0  0  0  0  0  # atno 6909 bound_to 6896
  144.7143  140.0582  143.6433 H   0  0  0  0  0  0  0  0  0  0  0  0  # atno 7974 bound_to 7965
  155.9280  140.1086  157.1155 H   0  0  0  0  0  0  0  0  0  0  0  0  # atno 8008 bound_to 7997
  154.4066  140.1243  156.4831 H   0  0  0  0  0  0  0  0  0  0  0  0  # atno 8009 bound_to 7997
  155.7115  140.3471  155.4978 H   0  0  0  0  0  0  0  0  0  0  0  0  # atno 8010 bound_to 7997
  139.7077  144.7083  151.1078 H   0  0  0  0  0  0  0  0  0  0  0  0  # atno 10167 bound_to 10162
  157.6942  131.0533  150.4280 H   0  0  0  0  0  0  0  0  0  0  0  0  # atno 10718 bound_to 10713
  152.9787  135.5913  154.4083 H   0  0  0  0  0  0  0  0  0  0  0  0  # atno 10763 bound_to 10752
  154.3721  135.2767  155.2262 H   0  0  0  0  0  0  0  0  0  0  0  0  # atno 10764 bound_to 10752
  154.4213  135.6058  153.6066 H   0  0  0  0  0  0  0  0  0  0  0  0  # atno 10765 bound_to 10752
  141.1661  133.7033  156.7862 H   0  0  0  0  0  0  0  0  0  0  0  0  # atno 11005 bound_to 11000
  145.9887  139.2997  143.0998 LP  0  0  0  0  0  0  0  0  0  0  0  0  # atno 17320 bound_to 7965
  145.8928  140.9293  143.0543 LP  0  0  0  0  0  0  0  0  0  0  0  0  # atno 17321 bound_to 7965
  140.7726  143.5335  150.9395 LP  0  0  0  0  0  0  0  0  0  0  0  0  # atno 17342 bound_to 10162
  139.9019  143.6825  152.3130 LP  0  0  0  0  0  0  0  0  0  0  0  0  # atno 17343 bound_to 10162
  156.4649  130.4040  149.6553 LP  0  0  0  0  0  0  0  0  0  0  0  0  # atno 17370 bound_to 10713
  156.3655  130.7503  151.2480 LP  0  0  0  0  0  0  0  0  0  0  0  0  # atno 17371 bound_to 10713
  140.2358  134.8651  157.3523 LP  0  0  0  0  0  0  0  0  0  0  0  0  # atno 17394 bound_to 11000
  140.1845  134.4448  155.7752 LP  0  0  0  0  0  0  0  0  0  0  0  0  # atno 17395 bound_to 11000

$$$$
