AV-unprocessed.smi:1538|AV-procd|sdf|6192|dock7
  -GOLD-   22720 6353D 1   1.00000     0.00000
 Structure written by MMmdl.
 37 38  0  0  0  0  0  0  0  0  2 V2000
  150.6926  141.1735  156.8033 C   0  0  0  0  0  0  0  0  0  0  0  0
  149.4002  141.0209  156.1326 N   0  0  0  0  0  0  0  0  0  0  0  0
  149.3895  141.4031  154.7152 C   0  0  0  0  0  0  0  0  0  0  0  0
  147.9826  141.7046  154.1816 C   0  0  0  0  0  0  0  0  0  0  0  0
  146.9743  140.6117  154.5651 C   0  0  1  0  0  0  0  0  0  0  0  0
  147.1547  139.3165  153.7534 C   0  0  0  0  0  0  0  0  0  0  0  0
  148.2032  138.6749  153.8239 O   0  0  0  0  0  0  0  0  0  0  0  0
  146.1178  138.9341  152.9934 N   0  0  0  0  0  0  0  0  0  0  0  0
  146.1068  137.7371  152.1646 C   0  0  0  0  0  0  0  0  0  0  0  0
  145.6672  136.5155  152.9826 C   0  0  0  0  0  0  0  0  0  0  0  0
  145.1453  135.4498  152.1250 N   0  0  0  0  0  0  0  0  0  0  0  0
  145.6205  134.1688  152.0092 C   0  0  0  0  0  0  0  0  0  0  0  0
  144.8162  133.5349  151.0973 C   0  0  0  0  0  0  0  0  0  0  0  0
  143.8841  134.4546  150.6970 N   0  3  0  0  0  0  0  0  0  0  0  0
  144.0856  135.6186  151.3233 C   0  0  0  0  0  0  0  0  0  0  0  0
  146.9805  140.3498  156.0888 C   0  0  0  0  0  0  0  0  0  0  0  0
  148.3383  140.5080  156.7998 C   0  0  0  0  0  0  0  0  0  0  0  0
  148.4071  140.1690  157.9815 O   0  0  0  0  0  0  0  0  0  0  0  0
  151.0004  140.2394  157.2756 H   0  0  0  0  0  0  0  0  0  0  0  0
  150.6323  141.9424  157.5747 H   0  0  0  0  0  0  0  0  0  0  0  0
  151.4857  141.4587  156.1109 H   0  0  0  0  0  0  0  0  0  0  0  0
  150.0161  142.2827  154.5613 H   0  0  0  0  0  0  0  0  0  0  0  0
  149.8474  140.5977  154.1400 H   0  0  0  0  0  0  0  0  0  0  0  0
  147.6431  142.6570  154.5912 H   0  0  0  0  0  0  0  0  0  0  0  0
  148.0158  141.8373  153.0995 H   0  0  0  0  0  0  0  0  0  0  0  0
  145.9836  140.9964  154.3164 H   0  0  0  0  0  0  0  0  0  0  0  0
  145.2877  139.5096  152.9902 H   0  0  0  0  0  0  0  0  0  0  0  0
  145.4294  137.8883  151.3225 H   0  0  0  0  0  0  0  0  0  0  0  0
  147.1038  137.5735  151.7520 H   0  0  0  0  0  0  0  0  0  0  0  0
  146.5007  136.1124  153.5602 H   0  0  0  0  0  0  0  0  0  0  0  0
  144.8842  136.7872  153.6921 H   0  0  0  0  0  0  0  0  0  0  0  0
  146.4727  133.8123  152.5698 H   0  0  0  0  0  0  0  0  0  0  0  0
  144.8364  132.5249  150.7144 H   0  0  0  0  0  0  0  0  0  0  0  0
  143.5054  136.5165  151.2053 H   0  0  0  0  0  0  0  0  0  0  0  0
  146.2975  141.0554  156.5632 H   0  0  0  0  0  0  0  0  0  0  0  0
  146.5799  139.3600  156.3151 H   0  0  0  0  0  0  0  0  0  0  0  0
  143.1468  134.2812  150.0250 H   0  0  0  0  0  0  0  0  0  0  0  0
  1  2  1  0  0  0  0
  1 19  1  0  0  0  0
  1 20  1  0  0  0  0
  1 21  1  0  0  0  0
  2 17  1  0  0  0  0
  2  3  1  0  0  0  0
  3  4  1  0  0  0  0
  3 22  1  0  0  0  0
  3 23  1  0  0  0  0
  4  5  1  0  0  0  0
  4 24  1  0  0  0  0
  4 25  1  0  0  0  0
  5  6  1  0  0  0  0
  5 16  1  0  0  0  0
  5 26  1  0  0  0  0
  6  7  2  0  0  0  0
  6  8  1  0  0  0  0
  8  9  1  0  0  0  0
  8 27  1  0  0  0  0
  9 10  1  0  0  0  0
  9 28  1  0  0  0  0
  9 29  1  0  0  0  0
 10 11  1  0  0  0  0
 10 30  1  0  0  0  0
 10 31  1  0  0  0  0
 11 15  1  0  0  0  0
 11 12  1  0  0  0  0
 12 13  2  0  0  0  0
 12 32  1  0  0  0  0
 13 14  1  0  0  0  0
 13 33  1  0  0  0  0
 14 15  2  0  0  0  0
 14 37  1  0  0  0  0
 15 34  1  0  0  0  0
 16 17  1  0  0  0  0
 16 35  1  0  0  0  0
 16 36  1  0  0  0  0
 17 18  2  0  0  0  0
M  CHG  1  14   1
M  END
> <s_m_source_file>
AV-unprocessed.smi

> <i_m_source_file_index>
1538

> <i_lp_mmshare_version>
43012

> <i_f3d_flags>
0

> <s_epik_input>
W0NIM11OMVtDSDJdW0NIMl1bQ0BIXShbQ0gyXUMxPU8pQyg9TylbTkhdW0NIMl1bQ0gyXW4yW2NIXVtjSF1uW2NIXTI=

> <s_epik_cmdline>
J2VwaWtfcHl0aG9uJywgJy1waCcsICc3LjAnLCAnLXRuJywgJzgnLCAnLW1hJywgJzIwMCcsICctbWV0YWxfYmluZGluZycsICctaW1hZScsICc8aW5maWxlLm1hZT4nLCAnLW9tYWUnLCAnPG91dGZpbGUubWFlPic=

> <r_lp_tautomer_probability>
1

> <r_epik_Ionization_Penalty>
0.272873

> <r_epik_Ionization_Penalty_Charging>
0

> <r_epik_Ionization_Penalty_Neutral>
0.272873

> <r_epik_State_Penalty>
0.265096

> <r_epik_Charging_Adjusted_Penalty>
0.265096

> <i_epik_Tot_Q>
1

> <i_epik_Tot_abs_Q>
1

> <r_epik_Metal_State_Penalty>
0.549113

> <b_epik_Metal_Only>
0

> <s_lp_Force_Field>
OPLS_2005

> <r_lp_Energy>
17.3063

> <b_lp_Chiralities_Consistent>
1

> <s_lp_Variant>
AV-unprocessed.smi:1538-1

> <Gold.Version>
5.8.1

> <Gold.Id.Protein>
6NUR|6NUR_protein|mol2

> <Gold.PLP.Fitness>
38.1659

> <Gold.PLP.PLP>
-26.7956

> <Gold.PLP.part.hbond>
-2.4144

> <Gold.PLP.part.metal>
0.0000

> <Gold.PLP.part.buried>
-4.2270

> <Gold.PLP.part.nonpolar>
-21.5611

> <Gold.PLP.part.repulsive>
0.2224

> <Gold.PLP.ligand.clash>
0.0000

> <Gold.PLP.ligand.torsion>
0.3244

> <Gold.PLP.Chemscore.Hbond>
3.0000

> <Gold.PLP.Chemscore.CHOScore>
0.9901

> <Gold.PLP.Chemscore.Metal>
0.0000

> <Gold.Chemscore.Hbonds>
donor molecule, donor type, donor heavy atom, donor atom, acceptor molecule, acceptor atom, score
      L1  H     8    27       P1 10175  1.00
      L1  H    14    37       P1 10186  1.14
      L1  C    15    34       P1 10171  1.00

> <Gold.PLP.Chemscore.Internal.Correction>
0.0488

> <Gold.Rescore>
     Score         DG    S(hbond)    S(metal)    S(lipo)     H(rot)  DE(clash)    DE(int)     intcor
     11.99     -12.42       1.89        0.00      50.15       2.05       0.11       0.32       ----

> <Gold.Chemscore.Fitness>
11.9856

> <Gold.Chemscore.DG>
-12.4161

> <Gold.Chemscore.ZeroCoef>
-5.4800

> <Gold.Chemscore.Hbond>
1.8895

> <Gold.Chemscore.Metal>
0.0000

> <Gold.Chemscore.Lipo>
50.1494

> <Gold.Chemscore.Internal_Hbond>
0.0000

> <Gold.Chemscore.DEClash>
0.1121

> <Gold.Chemscore.DEInternal>
0.3184

> <Gold.Chemscore.Rot>
2.0478

> <Gold.Chemscore.Internal.Correction>
   9.000000E+99

> <Gold.Chemscore.Hbonds>
donor molecule, donor type, donor heavy atom, donor atom, acceptor molecule, acceptor atom, score
      L1  H     8    27       P1 10175  0.99
      L1  H    14    37       P1 10186  0.53

> <Gold.Chemscore.Hbond.Weighted>
-6.3110

> <Gold.Chemscore.Metal.Weighted>
-0.0000

> <Gold.Chemscore.Lipo.Weighted>
-5.8675

> <Gold.Chemscore.Internal_Hbond.Weighted>
0.0000

> <Gold.Chemscore.DEClash.Weighted>
0.1121

> <Gold.Chemscore.DEInternal.Weighted>
0.3184

> <Gold.Chemscore.Rot.Weighted>
5.2423

> <Gold.Chemscore.Internal.Correction.Weighted>
   9.000000E+99

> <Gold.Protein.RotatedTorsions>
[ 6907 6896 6895 6894 ] final -146.69 input  -60.11 | X-H torsion
[ 7974 7965 7964 7962 ] final   29.88 input  175.53 | X-H torsion
[ 8008 7997 7996 7995 ] final -104.91 input   59.86 | X-H torsion
[ 10167 10162 10161 10158 ] final  -28.94 input  -65.29 | X-H torsion
[ 10718 10713 10712 10709 ] final   33.58 input   66.30 | X-H torsion
[ 10763 10752 10751 10750 ] final -155.85 input  -60.55 | X-H torsion
[ 11005 11000 10999 10996 ] final   30.50 input  -57.11 | X-H torsion

> <Gold.Protein.ActiveResidues>
 VAL166  LYS551  ARG553  GLY616  TRP617  ASP618  TYR619  PRO620  LYS621  CYS622 
 ASP623  PHE694  ASN695  SER759  ASP760  ASP761  ALA762  ILE779  LEU786  VAL792 
 PHE793  MET794  SER795  GLU796  ALA797  LYS798  CYS799  TRP800  GLU811  SER814 

> <Gold.Protein.RotatedAtoms>
  151.1451  133.4945  159.2595 H   0  0  0  0  0  0  0  0  0  0  0  0  # atno 6907 bound_to 6896
  151.1613  135.0274  159.8721 H   0  0  0  0  0  0  0  0  0  0  0  0  # atno 6908 bound_to 6896
  152.5463  134.1325  159.8498 H   0  0  0  0  0  0  0  0  0  0  0  0  # atno 6909 bound_to 6896
  146.1645  139.6862  142.9010 H   0  0  0  0  0  0  0  0  0  0  0  0  # atno 7974 bound_to 7965
  154.8921  140.0415  157.1845 H   0  0  0  0  0  0  0  0  0  0  0  0  # atno 8008 bound_to 7997
  154.8530  140.2932  155.5566 H   0  0  0  0  0  0  0  0  0  0  0  0  # atno 8009 bound_to 7997
  156.2996  140.2461  156.3491 H   0  0  0  0  0  0  0  0  0  0  0  0  # atno 8010 bound_to 7997
  140.7265  143.3969  151.1332 H   0  0  0  0  0  0  0  0  0  0  0  0  # atno 10167 bound_to 10162
  157.2997  130.7344  149.6659 H   0  0  0  0  0  0  0  0  0  0  0  0  # atno 10718 bound_to 10713
  154.7757  135.3158  154.8097 H   0  0  0  0  0  0  0  0  0  0  0  0  # atno 10763 bound_to 10752
  153.8822  135.6834  153.4770 H   0  0  0  0  0  0  0  0  0  0  0  0  # atno 10764 bound_to 10752
  153.1380  135.4751  154.9388 H   0  0  0  0  0  0  0  0  0  0  0  0  # atno 10765 bound_to 10752
  140.2937  134.2835  155.7770 H   0  0  0  0  0  0  0  0  0  0  0  0  # atno 11005 bound_to 11000
  145.4503  141.0428  143.2808 LP  0  0  0  0  0  0  0  0  0  0  0  0  # atno 17320 bound_to 7965
  144.8073  139.6027  143.7045 LP  0  0  0  0  0  0  0  0  0  0  0  0  # atno 17321 bound_to 7965
  139.7583  143.8674  152.3094 LP  0  0  0  0  0  0  0  0  0  0  0  0  # atno 17342 bound_to 10162
  139.8551  144.7145  150.9167 LP  0  0  0  0  0  0  0  0  0  0  0  0  # atno 17343 bound_to 10162
  155.9671  130.4284  150.4785 LP  0  0  0  0  0  0  0  0  0  0  0  0  # atno 17370 bound_to 10713
  157.2764  131.0598  151.2226 LP  0  0  0  0  0  0  0  0  0  0  0  0  # atno 17371 bound_to 10713
  141.2141  133.7601  156.9663 LP  0  0  0  0  0  0  0  0  0  0  0  0  # atno 17394 bound_to 11000
  140.1172  134.9440  157.2151 LP  0  0  0  0  0  0  0  0  0  0  0  0  # atno 17395 bound_to 11000

$$$$
