AV-unprocessed.smi:2695|AV-procd|sdf|10410|dock10
  -GOLD-   2272014443D 1   1.00000     0.00000
 Structure written by MMmdl.
 42 43  0  0  0  0  0  0  0  0  1 V2000
  146.6904  137.4237  155.6809 C   0  0  0  0  0  0  0  0  0  0  0  0
  148.1931  137.5818  155.4823 C   0  0  0  0  0  0  0  0  0  0  0  0
  148.7256  138.7640  155.1224 C   0  0  0  0  0  0  0  0  0  0  0  0
  150.1474  138.8742  154.9078 C   0  0  0  0  0  0  0  0  0  0  0  0
  150.6835  140.0503  154.5589 O   0  0  0  0  0  0  0  0  0  0  0  0
  150.9283  137.7878  155.0519 C   0  0  0  0  0  0  0  0  0  0  0  0
  150.3792  136.4845  155.4332 C   0  0  0  0  0  0  0  0  0  0  0  0
  151.1026  135.4937  155.5460 O   0  0  0  0  0  0  0  0  0  0  0  0
  149.0261  136.4377  155.6582 N   0  0  0  0  0  0  0  0  0  0  0  0
  148.4294  135.1529  156.0925 C   0  0  0  0  0  0  0  0  0  0  0  0
  148.9394  134.6651  157.4575 C   0  0  0  0  0  0  0  0  0  0  0  0
  150.1393  134.6933  157.7339 O   0  0  0  0  0  0  0  0  0  0  0  0
  147.9981  134.2139  158.3002 N   0  0  0  0  0  0  0  0  0  0  0  0
  148.2267  133.6871  159.6473 C   0  0  1  0  0  0  0  0  0  0  0  0
  147.5003  134.5856  160.6808 C   0  0  0  0  0  0  0  0  0  0  0  0
  147.9376  136.0562  160.6550 C   0  0  0  0  0  0  0  0  0  0  0  0
  147.4497  136.6325  161.9846 C   0  0  0  0  0  0  0  0  0  0  0  0
  147.4488  135.4599  162.9736 C   0  0  0  0  0  0  0  0  0  0  0  0
  147.7200  134.1943  162.1489 C   0  0  0  0  0  0  0  0  0  0  0  0
  147.7852  132.2059  159.6832 C   0  0  0  0  0  0  0  0  0  0  0  0
  148.2476  131.5704  158.6056 F   0  0  0  0  0  0  0  0  0  0  0  0
  148.2707  131.5868  160.7584 F   0  0  0  0  0  0  0  0  0  0  0  0
  146.4548  132.1136  159.6944 F   0  0  0  0  0  0  0  0  0  0  0  0
  146.1570  138.2840  155.2752 H   0  0  0  0  0  0  0  0  0  0  0  0
  146.4485  137.3565  156.7418 H   0  0  0  0  0  0  0  0  0  0  0  0
  146.3007  136.5439  155.1696 H   0  0  0  0  0  0  0  0  0  0  0  0
  148.0920  139.6276  154.9800 H   0  0  0  0  0  0  0  0  0  0  0  0
  150.5228  140.6573  155.2650 H   0  0  0  0  0  0  0  0  0  0  0  0
  151.9927  137.8722  154.8858 H   0  0  0  0  0  0  0  0  0  0  0  0
  147.3423  135.2327  156.1492 H   0  0  0  0  0  0  0  0  0  0  0  0
  148.5809  134.3679  155.3529 H   0  0  0  0  0  0  0  0  0  0  0  0
  147.0398  134.2261  157.9824 H   0  0  0  0  0  0  0  0  0  0  0  0
  149.2939  133.7130  159.8747 H   0  0  0  0  0  0  0  0  0  0  0  0
  146.4277  134.5569  160.4820 H   0  0  0  0  0  0  0  0  0  0  0  0
  149.0257  136.1200  160.6073 H   0  0  0  0  0  0  0  0  0  0  0  0
  147.5369  136.6017  159.7999 H   0  0  0  0  0  0  0  0  0  0  0  0
  148.0721  137.4611  162.3239 H   0  0  0  0  0  0  0  0  0  0  0  0
  146.4338  137.0126  161.8688 H   0  0  0  0  0  0  0  0  0  0  0  0
  148.2122  135.5881  163.7417 H   0  0  0  0  0  0  0  0  0  0  0  0
  146.4853  135.3957  163.4804 H   0  0  0  0  0  0  0  0  0  0  0  0
  147.0802  133.3671  162.4577 H   0  0  0  0  0  0  0  0  0  0  0  0
  148.7547  133.8830  162.3003 H   0  0  0  0  0  0  0  0  0  0  0  0
  1  2  1  0  0  0  0
  1 24  1  0  0  0  0
  1 25  1  0  0  0  0
  1 26  1  0  0  0  0
  2  9  1  0  0  0  0
  2  3  2  0  0  0  0
  3  4  1  0  0  0  0
  3 27  1  0  0  0  0
  4  5  1  0  0  0  0
  4  6  2  0  0  0  0
  5 28  1  0  0  0  0
  6  7  1  0  0  0  0
  6 29  1  0  0  0  0
  7  8  2  0  0  0  0
  7  9  1  0  0  0  0
  9 10  1  0  0  0  0
 10 11  1  0  0  0  0
 10 30  1  0  0  0  0
 10 31  1  0  0  0  0
 11 12  2  0  0  0  0
 11 13  1  0  0  0  0
 13 14  1  0  0  0  0
 13 32  1  0  0  0  0
 14 15  1  0  0  0  0
 14 20  1  0  0  0  0
 14 33  1  0  0  0  0
 15 19  1  0  0  0  0
 15 16  1  0  0  0  0
 15 34  1  0  0  0  0
 16 17  1  0  0  0  0
 16 35  1  0  0  0  0
 16 36  1  0  0  0  0
 17 18  1  0  0  0  0
 17 37  1  0  0  0  0
 17 38  1  0  0  0  0
 18 19  1  0  0  0  0
 18 39  1  0  0  0  0
 18 40  1  0  0  0  0
 19 41  1  0  0  0  0
 19 42  1  0  0  0  0
 20 21  1  0  0  0  0
 20 22  1  0  0  0  0
 20 23  1  0  0  0  0
M  END
> <s_m_source_file>
AV-unprocessed.smi

> <i_m_source_file_index>
2695

> <i_lp_mmshare_version>
43012

> <i_f3d_flags>
0

> <s_epik_input>
W0NIM11jMVtjSF1jKFtPSF0pW2NIXWMoPU8pbjFbQ0gyXUMoPU8pW05IXVtDQEBIXShDKEYpKEYpRilbQ0hdMltDSDJdW0NIMl1bQ0gyXVtDSDJdMg==

> <s_epik_cmdline>
J2VwaWtfcHl0aG9uJywgJy1waCcsICc3LjAnLCAnLXRuJywgJzgnLCAnLW1hJywgJzIwMCcsICctbWV0YWxfYmluZGluZycsICctaW1hZScsICc8aW5maWxlLm1hZT4nLCAnLW9tYWUnLCAnPG91dGZpbGUubWFlPic=

> <r_lp_tautomer_probability>
0.999984

> <r_epik_Ionization_Penalty>
0.843628

> <r_epik_Ionization_Penalty_Charging>
1.18449e-07

> <r_epik_Ionization_Penalty_Neutral>
0.843628

> <r_epik_State_Penalty>
0.886913

> <r_epik_Charging_Adjusted_Penalty>
0.886913

> <i_epik_Tot_Q>
0

> <i_epik_Tot_abs_Q>
0

> <r_epik_Metal_State_Penalty>
0.886913

> <b_epik_Metal_Only>
0

> <s_lp_Force_Field>
OPLS_2005

> <r_lp_Energy>
35.4527

> <b_lp_Chiralities_Consistent>
1

> <s_lp_Variant>
AV-unprocessed.smi:2695-4

> <Gold.Version>
5.8.1

> <Gold.Id.Protein>
6NUR|6NUR_protein|mol2

> <Gold.PLP.Fitness>
38.8199

> <Gold.PLP.PLP>
-31.1337

> <Gold.PLP.part.hbond>
-3.0000

> <Gold.PLP.part.metal>
0.0000

> <Gold.PLP.part.buried>
-4.9074

> <Gold.PLP.part.nonpolar>
-24.1764

> <Gold.PLP.part.repulsive>
0.1365

> <Gold.PLP.ligand.clash>
0.0000

> <Gold.PLP.ligand.torsion>
0.4975

> <Gold.PLP.Chemscore.Hbond>
2.7840

> <Gold.PLP.Chemscore.CHOScore>
0.0000

> <Gold.PLP.Chemscore.Metal>
0.0000

> <Gold.Chemscore.Hbonds>
donor molecule, donor type, donor heavy atom, donor atom, acceptor molecule, acceptor atom, score
      P1  H  6896  6909       L1    12  0.78
      P1  H  7989  7998       L1     5  1.00
      P1  H 10752 10765       L1     8  1.00

> <Gold.PLP.Chemscore.Internal.Correction>
0.3291

> <Gold.Rescore>
     Score         DG    S(hbond)    S(metal)    S(lipo)     H(rot)  DE(clash)    DE(int)     intcor
     15.00     -15.82       2.78        0.00      60.81       2.36       0.01       0.80       ----

> <Gold.Chemscore.Fitness>
15.0040

> <Gold.Chemscore.DG>
-15.8226

> <Gold.Chemscore.ZeroCoef>
-5.4800

> <Gold.Chemscore.Hbond>
2.7752

> <Gold.Chemscore.Metal>
0.0000

> <Gold.Chemscore.Lipo>
60.8085

> <Gold.Chemscore.Internal_Hbond>
0.0000

> <Gold.Chemscore.DEClash>
0.0149

> <Gold.Chemscore.DEInternal>
0.8037

> <Gold.Chemscore.Rot>
2.3599

> <Gold.Chemscore.Internal.Correction>
   9.000000E+99

> <Gold.Chemscore.Hbonds>
donor molecule, donor type, donor heavy atom, donor atom, acceptor molecule, acceptor atom, score
      P1  H  6896  6909       L1    12  0.75
      P1  H  7989  7998       L1     5  0.50
      P1  H 10752 10765       L1     8  0.91

> <Gold.Chemscore.Hbond.Weighted>
-9.2693

> <Gold.Chemscore.Metal.Weighted>
-0.0000

> <Gold.Chemscore.Lipo.Weighted>
-7.1146

> <Gold.Chemscore.Internal_Hbond.Weighted>
0.0000

> <Gold.Chemscore.DEClash.Weighted>
0.0149

> <Gold.Chemscore.DEInternal.Weighted>
0.8037

> <Gold.Chemscore.Rot.Weighted>
6.0413

> <Gold.Chemscore.Internal.Correction.Weighted>
   9.000000E+99

> <Gold.Protein.RotatedTorsions>
[ 6907 6896 6895 6894 ] final   19.60 input  -60.11 | X-H torsion
[ 7974 7965 7964 7962 ] final  134.27 input  175.53 | X-H torsion
[ 8008 7997 7996 7995 ] final   25.59 input   59.86 | X-H torsion
[ 10167 10162 10161 10158 ] final  -54.62 input  -65.29 | X-H torsion
[ 10718 10713 10712 10709 ] final   85.73 input   66.30 | X-H torsion
[ 10763 10752 10751 10750 ] final -167.70 input  -60.55 | X-H torsion
[ 11005 11000 10999 10996 ] final    2.35 input  -57.11 | X-H torsion

> <Gold.Protein.ActiveResidues>
 VAL166  LYS551  ARG553  GLY616  TRP617  ASP618  TYR619  PRO620  LYS621  CYS622 
 ASP623  PHE694  ASN695  SER759  ASP760  ASP761  ALA762  ILE779  LEU786  VAL792 
 PHE793  MET794  SER795  GLU796  ALA797  LYS798  CYS799  TRP800  GLU811  SER814 

> <Gold.Protein.RotatedAtoms>
  151.8834  135.0444  160.0490 H   0  0  0  0  0  0  0  0  0  0  0  0  # atno 6907 bound_to 6896
  152.2494  133.5198  159.5325 H   0  0  0  0  0  0  0  0  0  0  0  0  # atno 6908 bound_to 6896
  150.7079  134.0897  159.3970 H   0  0  0  0  0  0  0  0  0  0  0  0  # atno 6909 bound_to 6896
  144.9780  139.4534  143.5400 H   0  0  0  0  0  0  0  0  0  0  0  0  # atno 7974 bound_to 7965
  155.0141  140.3140  155.4818 H   0  0  0  0  0  0  0  0  0  0  0  0  # atno 8008 bound_to 7997
  156.2904  140.2209  156.5198 H   0  0  0  0  0  0  0  0  0  0  0  0  # atno 8009 bound_to 7997
  154.7509  140.0466  157.0880 H   0  0  0  0  0  0  0  0  0  0  0  0  # atno 8010 bound_to 7997
  140.6420  143.2513  151.4963 H   0  0  0  0  0  0  0  0  0  0  0  0  # atno 10167 bound_to 10162
  157.6919  131.0186  150.2866 H   0  0  0  0  0  0  0  0  0  0  0  0  # atno 10718 bound_to 10713
  154.6705  135.2938  154.9748 H   0  0  0  0  0  0  0  0  0  0  0  0  # atno 10763 bound_to 10752
  154.0777  135.6609  153.4837 H   0  0  0  0  0  0  0  0  0  0  0  0  # atno 10764 bound_to 10752
  153.0484  135.5190  154.7699 H   0  0  0  0  0  0  0  0  0  0  0  0  # atno 10765 bound_to 10752
  140.6053  133.9798  155.8151 H   0  0  0  0  0  0  0  0  0  0  0  0  # atno 11005 bound_to 11000
  146.3400  139.9035  142.8791 LP  0  0  0  0  0  0  0  0  0  0  0  0  # atno 17320 bound_to 7965
  145.2462  141.0027  143.3907 LP  0  0  0  0  0  0  0  0  0  0  0  0  # atno 17321 bound_to 7965
  139.5629  144.2112  152.1720 LP  0  0  0  0  0  0  0  0  0  0  0  0  # atno 17342 bound_to 10162
  140.1385  144.5224  150.6758 LP  0  0  0  0  0  0  0  0  0  0  0  0  # atno 17343 bound_to 10162
  156.3404  130.3814  149.7414 LP  0  0  0  0  0  0  0  0  0  0  0  0  # atno 17370 bound_to 10713
  156.4925  130.8091  151.3100 LP  0  0  0  0  0  0  0  0  0  0  0  0  # atno 17371 bound_to 10713
  141.0845  134.0012  157.3335 LP  0  0  0  0  0  0  0  0  0  0  0  0  # atno 17394 bound_to 11000
  139.9215  135.0200  156.8081 LP  0  0  0  0  0  0  0  0  0  0  0  0  # atno 17395 bound_to 11000

$$$$
