AV-unprocessed.smi:2|AV-procd|sdf|26|dock3
  -GOLD-   2262015133D 1   1.00000     0.00000
 Structure written by MMmdl.
 52 54  0  0  0  0  0  0  0  0  3 V2000
  145.3759  144.7535  154.1101 C   0  0  0  0  0  0  0  0  0  0  0  0
  145.4218  144.3336  155.5880 C   0  0  0  0  0  0  0  0  0  0  0  0
  145.3996  142.8124  155.8058 C   0  0  0  0  0  0  0  0  0  0  0  0
  144.4260  142.2862  156.3472 O   0  0  0  0  0  0  0  0  0  0  0  0
  146.5855  142.0358  155.3415 C   0  0  0  0  0  0  0  0  0  0  0  0
  147.4435  142.5937  154.3674 C   0  0  0  0  0  0  0  0  0  0  0  0
  148.5658  141.8797  153.9062 C   0  0  0  0  0  0  0  0  0  0  0  0
  148.8588  140.5936  154.3996 C   0  0  0  0  0  0  0  0  0  0  0  0
  149.9704  139.9633  153.8778 O   0  0  0  0  0  0  0  0  0  0  0  0
  150.3348  138.6691  154.3514 C   0  0  0  0  0  0  0  0  0  0  0  0
  151.3593  138.7546  155.5036 C   0  0  1  0  0  0  0  0  0  0  0  0
  152.5191  139.4001  155.0160 O   0  0  0  0  0  0  0  0  0  0  0  0
  150.7904  139.5208  156.7207 C   0  0  0  0  0  0  0  0  0  0  0  0
  151.7129  139.5638  157.8620 N   0  0  0  0  0  0  0  0  0  0  0  0
  152.3709  138.5065  158.4280 C   0  0  0  0  0  0  0  0  0  0  0  0
  152.3197  137.1109  158.0103 N   0  3  0  0  0  0  0  0  0  0  0  0
  152.7097  136.7992  156.8922 O   0  0  0  0  0  0  0  0  0  0  0  0
  151.8468  136.3051  158.8062 O   0  5  0  0  0  0  0  0  0  0  0  0
  153.0986  138.8288  159.4981 N   0  0  0  0  0  0  0  0  0  0  0  0
  152.8960  140.1867  159.6384 C   0  0  0  0  0  0  0  0  0  0  0  0
  153.3868  141.1013  160.6884 C   0  0  0  0  0  0  0  0  0  0  0  0
  154.1564  140.7074  161.5659 O   0  0  0  0  0  0  0  0  0  0  0  0
  152.8859  142.3730  160.5989 N   0  0  0  0  0  0  0  0  0  0  0  0
  153.2439  143.3375  161.6567 C   0  0  0  0  0  0  0  0  0  0  0  0
  152.0832  142.8433  159.5753 C   0  0  0  0  0  0  0  0  0  0  0  0
  151.6648  144.0047  159.5899 O   0  0  0  0  0  0  0  0  0  0  0  0
  151.7839  141.9964  158.5324 N   0  0  0  0  0  0  0  0  0  0  0  0
  151.2286  142.5621  157.2965 C   0  0  0  0  0  0  0  0  0  0  0  0
  152.1119  140.6727  158.6419 C   0  0  0  0  0  0  0  0  0  0  0  0
  148.0075  140.0384  155.3861 C   0  0  0  0  0  0  0  0  0  0  0  0
  146.8833  140.7493  155.8479 C   0  0  0  0  0  0  0  0  0  0  0  0
  145.3805  145.8398  154.0209 H   0  0  0  0  0  0  0  0  0  0  0  0
  144.4741  144.3874  153.6179 H   0  0  0  0  0  0  0  0  0  0  0  0
  146.2395  144.3750  153.5618 H   0  0  0  0  0  0  0  0  0  0  0  0
  146.3238  144.7383  156.0479 H   0  0  0  0  0  0  0  0  0  0  0  0
  144.5717  144.7715  156.1117 H   0  0  0  0  0  0  0  0  0  0  0  0
  147.2497  143.5754  153.9595 H   0  0  0  0  0  0  0  0  0  0  0  0
  149.2058  142.3232  153.1575 H   0  0  0  0  0  0  0  0  0  0  0  0
  149.4317  138.1609  154.6921 H   0  0  0  0  0  0  0  0  0  0  0  0
  150.6990  138.0531  153.5295 H   0  0  0  0  0  0  0  0  0  0  0  0
  151.6592  137.7567  155.8189 H   0  0  0  0  0  0  0  0  0  0  0  0
  152.3523  139.6960  154.1342 H   0  0  0  0  0  0  0  0  0  0  0  0
  150.5107  140.5315  156.4346 H   0  0  0  0  0  0  0  0  0  0  0  0
  149.8382  139.1009  157.0234 H   0  0  0  0  0  0  0  0  0  0  0  0
  152.3486  143.7859  162.0907 H   0  0  0  0  0  0  0  0  0  0  0  0
  153.8537  144.1420  161.2424 H   0  0  0  0  0  0  0  0  0  0  0  0
  153.8033  142.9151  162.4920 H   0  0  0  0  0  0  0  0  0  0  0  0
  151.8260  142.2541  156.4393 H   0  0  0  0  0  0  0  0  0  0  0  0
  151.2303  143.6519  157.2584 H   0  0  0  0  0  0  0  0  0  0  0  0
  150.1965  142.2543  157.1596 H   0  0  0  0  0  0  0  0  0  0  0  0
  148.1878  139.0619  155.8064 H   0  0  0  0  0  0  0  0  0  0  0  0
  146.2607  140.2816  156.5955 H   0  0  0  0  0  0  0  0  0  0  0  0
  1  2  1  0  0  0  0
  1 32  1  0  0  0  0
  1 33  1  0  0  0  0
  1 34  1  0  0  0  0
  2  3  1  0  0  0  0
  2 35  1  0  0  0  0
  2 36  1  0  0  0  0
  3  4  2  0  0  0  0
  3  5  1  0  0  0  0
  5 31  1  0  0  0  0
  5  6  2  0  0  0  0
  6  7  1  0  0  0  0
  6 37  1  0  0  0  0
  7  8  2  0  0  0  0
  7 38  1  0  0  0  0
  8  9  1  0  0  0  0
  8 30  1  0  0  0  0
  9 10  1  0  0  0  0
 10 11  1  0  0  0  0
 10 39  1  0  0  0  0
 10 40  1  0  0  0  0
 11 12  1  0  0  0  0
 11 13  1  0  0  0  0
 11 41  1  0  0  0  0
 12 42  1  0  0  0  0
 13 14  1  0  0  0  0
 13 43  1  0  0  0  0
 13 44  1  0  0  0  0
 14 29  1  0  0  0  0
 14 15  1  0  0  0  0
 15 16  1  0  0  0  0
 15 19  2  0  0  0  0
 16 17  2  0  0  0  0
 16 18  1  0  0  0  0
 19 20  1  0  0  0  0
 20 29  2  0  0  0  0
 20 21  1  0  0  0  0
 21 22  2  0  0  0  0
 21 23  1  0  0  0  0
 23 24  1  0  0  0  0
 23 25  1  0  0  0  0
 24 45  1  0  0  0  0
 24 46  1  0  0  0  0
 24 47  1  0  0  0  0
 25 26  2  0  0  0  0
 25 27  1  0  0  0  0
 27 28  1  0  0  0  0
 27 29  1  0  0  0  0
 28 48  1  0  0  0  0
 28 49  1  0  0  0  0
 28 50  1  0  0  0  0
 30 31  2  0  0  0  0
 30 51  1  0  0  0  0
 31 52  1  0  0  0  0
M  CHG  1  16   1
M  CHG  1  18  -1
M  END
> <s_m_source_file>
AV-unprocessed.smi

> <i_m_source_file_index>
2

> <i_lp_mmshare_version>
43012

> <i_f3d_flags>
0

> <s_epik_input>
W0NIM11bQ0gyXUMoPU8pYzFbY0hdW2NIXWMoW2NIXVtjSF0xKU9bQ0gyXVtDQEhdKFtPSF0pW0NIMl1uKGMobjIpW04rXSg9TylbTy1dKWMoYzIzKW4oW0NIM10pYyg9TyluKGMzPU8pW0NIM10=

> <s_epik_cmdline>
J2VwaWtfcHl0aG9uJywgJy1waCcsICc3LjAnLCAnLXRuJywgJzgnLCAnLW1hJywgJzIwMCcsICctbWV0YWxfYmluZGluZycsICctaW1hZScsICc8aW5maWxlLm1hZT4nLCAnLW9tYWUnLCAnPG91dGZpbGUubWFlPic=

> <r_lp_tautomer_probability>
1

> <r_epik_Ionization_Penalty>
1.02275e-06

> <r_epik_Ionization_Penalty_Charging>
4.46226e-11

> <r_epik_Ionization_Penalty_Neutral>
1.02271e-06

> <r_epik_State_Penalty>
-0

> <r_epik_Charging_Adjusted_Penalty>
4.46226e-11

> <i_epik_Tot_Q>
0

> <i_epik_Tot_abs_Q>
2

> <r_epik_Metal_State_Penalty>
-0

> <b_epik_Metal_Only>
0

> <s_lp_Force_Field>
OPLS_2005

> <r_lp_Energy>
60.3612

> <b_lp_Chiralities_Consistent>
1

> <s_lp_Variant>
AV-unprocessed.smi:2-2

> <Gold.Version>
5.8.1

> <Gold.Id.Protein>
6NUR|6NUR_protein|mol2

> <Gold.PLP.Fitness>
58.8192

> <Gold.PLP.PLP>
-52.2376

> <Gold.PLP.part.hbond>
-4.9912

> <Gold.PLP.part.metal>
0.0000

> <Gold.PLP.part.buried>
-8.2694

> <Gold.PLP.part.nonpolar>
-41.5870

> <Gold.PLP.part.repulsive>
2.1887

> <Gold.PLP.ligand.clash>
0.0000

> <Gold.PLP.ligand.torsion>
1.7214

> <Gold.PLP.Chemscore.Hbond>
3.1832

> <Gold.PLP.Chemscore.CHOScore>
0.0000

> <Gold.PLP.Chemscore.Metal>
0.0000

> <Gold.Chemscore.Hbonds>
donor molecule, donor type, donor heavy atom, donor atom, acceptor molecule, acceptor atom, score
      P1  H  6896  6909       L1    18  0.48
      P1  H  7989  7998       L1     9  0.86
      P1  H  7997  8008       L1    12  0.41
      P1  H 10752 10764       L1    17  0.31

> <Gold.PLP.Chemscore.Internal.Correction>
0.4749

> <Gold.Rescore>
     Score         DG    S(hbond)    S(metal)    S(lipo)     H(rot)  DE(clash)    DE(int)     intcor
     12.85     -17.94       3.16        0.00      85.55       3.16       1.33       3.77       ----

> <Gold.Chemscore.Fitness>
12.8481

> <Gold.Chemscore.DG>
-17.9446

> <Gold.Chemscore.ZeroCoef>
-5.4800

> <Gold.Chemscore.Hbond>
3.1570

> <Gold.Chemscore.Metal>
0.0000

> <Gold.Chemscore.Lipo>
85.5489

> <Gold.Chemscore.Internal_Hbond>
0.0000

> <Gold.Chemscore.DEClash>
1.3294

> <Gold.Chemscore.DEInternal>
3.7671

> <Gold.Chemscore.Rot>
3.1597

> <Gold.Chemscore.Internal.Correction>
   9.000000E+99

> <Gold.Chemscore.Hbonds>
donor molecule, donor type, donor heavy atom, donor atom, acceptor molecule, acceptor atom, score
      P1  H  6896  6909       L1    18  0.48
      P1  H  7989  7998       L1     9  0.51
      P1  H  7997  8008       L1    12  0.40
      P1  H 10752 10764       L1    17  0.30

> <Gold.Chemscore.Hbond.Weighted>
-10.5442

> <Gold.Chemscore.Metal.Weighted>
-0.0000

> <Gold.Chemscore.Lipo.Weighted>
-10.0092

> <Gold.Chemscore.Internal_Hbond.Weighted>
0.0000

> <Gold.Chemscore.DEClash.Weighted>
1.3294

> <Gold.Chemscore.DEInternal.Weighted>
3.7671

> <Gold.Chemscore.Rot.Weighted>
8.0888

> <Gold.Chemscore.Internal.Correction.Weighted>
   9.000000E+99

> <Gold.Protein.RotatedTorsions>
[ 6907 6896 6895 6894 ] final  144.55 input  -60.11 | X-H torsion
[ 7974 7965 7964 7962 ] final  -40.72 input  175.53 | X-H torsion
[ 8008 7997 7996 7995 ] final  -26.46 input   59.86 | X-H torsion
[ 10167 10162 10161 10158 ] final  -67.90 input  -65.29 | X-H torsion
[ 10718 10713 10712 10709 ] final   63.44 input   66.30 | X-H torsion
[ 10763 10752 10751 10750 ] final    7.36 input  -60.55 | X-H torsion
[ 11005 11000 10999 10996 ] final  114.53 input  -57.11 | X-H torsion

> <Gold.Protein.ActiveResidues>
 VAL166  LYS551  ARG553  GLY616  TRP617  ASP618  TYR619  PRO620  LYS621  CYS622 
 ASP623  PHE694  ASN695  SER759  ASP760  ASP761  ALA762  ILE779  LEU786  VAL792 
 PHE793  MET794  SER795  GLU796  ALA797  LYS798  CYS799  TRP800  GLU811  SER814 

> <Gold.Protein.RotatedAtoms>
  152.1922  133.4781  159.5013 H   0  0  0  0  0  0  0  0  0  0  0  0  # atno 6907 bound_to 6896
  150.6953  134.1698  159.4217 H   0  0  0  0  0  0  0  0  0  0  0  0  # atno 6908 bound_to 6896
  151.9613  135.0122  160.0598 H   0  0  0  0  0  0  0  0  0  0  0  0  # atno 6909 bound_to 6896
  146.0278  140.6769  142.9147 H   0  0  0  0  0  0  0  0  0  0  0  0  # atno 7974 bound_to 7965
  154.4424  140.1899  156.0779 H   0  0  0  0  0  0  0  0  0  0  0  0  # atno 8008 bound_to 7997
  156.0461  140.3314  155.7272 H   0  0  0  0  0  0  0  0  0  0  0  0  # atno 8009 bound_to 7997
  155.5627  140.0605  157.2816 H   0  0  0  0  0  0  0  0  0  0  0  0  # atno 8010 bound_to 7997
  140.5548  143.2312  151.6842 H   0  0  0  0  0  0  0  0  0  0  0  0  # atno 10167 bound_to 10162
  157.5971  130.9105  149.9716 H   0  0  0  0  0  0  0  0  0  0  0  0  # atno 10718 bound_to 10713
  153.2372  135.6899  153.7824 H   0  0  0  0  0  0  0  0  0  0  0  0  # atno 10763 bound_to 10752
  153.6967  135.3304  155.3216 H   0  0  0  0  0  0  0  0  0  0  0  0  # atno 10764 bound_to 10752
  154.8340  135.4558  154.1280 H   0  0  0  0  0  0  0  0  0  0  0  0  # atno 10765 bound_to 10752
  139.8983  134.9569  156.6907 H   0  0  0  0  0  0  0  0  0  0  0  0  # atno 11005 bound_to 11000
  144.7017  140.3682  143.7150 LP  0  0  0  0  0  0  0  0  0  0  0  0  # atno 17320 bound_to 7965
  145.7089  139.1680  143.2550 LP  0  0  0  0  0  0  0  0  0  0  0  0  # atno 17321 bound_to 7965
  139.5043  144.3759  152.0424 LP  0  0  0  0  0  0  0  0  0  0  0  0  # atno 17342 bound_to 10162
  140.2880  144.3786  150.6097 LP  0  0  0  0  0  0  0  0  0  0  0  0  # atno 17343 bound_to 10162
  156.1036  130.3654  150.0173 LP  0  0  0  0  0  0  0  0  0  0  0  0  # atno 17370 bound_to 10713
  156.8284  130.9383  151.3638 LP  0  0  0  0  0  0  0  0  0  0  0  0  # atno 17371 bound_to 10713
  140.7227  133.9126  155.8158 LP  0  0  0  0  0  0  0  0  0  0  0  0  # atno 17394 bound_to 11000
  141.0214  134.0883  157.4116 LP  0  0  0  0  0  0  0  0  0  0  0  0  # atno 17395 bound_to 11000

$$$$
