AV-unprocessed.smi:37|AV-procd|sdf|310|dock5
  -GOLD-   2262016123D 1   1.00000     0.00000
 Structure written by MMmdl.
 44 45  0  0  0  0  0  0  0  0  1 V2000
  151.7633  144.5531  158.1450 C   0  0  0  0  0  0  0  0  0  0  0  0
  152.3891  143.8782  159.3731 C   0  0  0  0  0  0  0  0  0  0  0  0
  152.1147  142.3766  159.4090 C   0  0  0  0  0  0  0  0  0  0  0  0
  150.9780  141.9355  159.5795 O   0  0  0  0  0  0  0  0  0  0  0  0
  153.2244  141.6431  159.2294 O   0  0  0  0  0  0  0  0  0  0  0  0
  153.2677  140.3097  159.7082 C   0  0  0  0  0  0  0  0  0  0  0  0
  152.4776  139.4064  158.7529 C   0  0  1  0  0  0  0  0  0  0  0  0
  152.7242  139.7478  157.3936 O   0  0  0  0  0  0  0  0  0  0  0  0
  152.5069  138.6344  156.5760 C   0  0  2  0  0  0  0  0  0  0  0  0
  151.3350  138.8939  155.6561 N   0  0  0  0  0  0  0  0  0  0  0  0
  150.6194  140.0853  155.6839 C   0  0  0  0  0  0  0  0  0  0  0  0
  149.5654  140.3279  154.8690 C   0  0  0  0  0  0  0  0  0  0  0  0
  148.9181  141.5024  154.9546 F   0  0  0  0  0  0  0  0  0  0  0  0
  149.1237  139.3263  153.9027 C   0  0  0  0  0  0  0  0  0  0  0  0
  148.1817  139.4548  153.1230 O   0  0  0  0  0  0  0  0  0  0  0  0
  149.8707  138.1445  153.9133 N   0  0  0  0  0  0  0  0  0  0  0  0
  150.9573  137.8806  154.7486 C   0  0  0  0  0  0  0  0  0  0  0  0
  151.5397  136.7987  154.6833 O   0  0  0  0  0  0  0  0  0  0  0  0
  152.2943  137.4133  157.4987 C   0  0  2  0  0  0  0  0  0  0  0  0
  150.3701  136.9418  157.7737 Br  0  0  0  0  0  0  0  0  0  0  0  0
  152.8453  137.9227  158.8195 C   0  0  1  0  0  0  0  0  0  0  0  0
  154.2606  137.7741  158.8705 O   0  0  0  0  0  0  0  0  0  0  0  0
  154.8152  136.5506  158.9401 C   0  0  0  0  0  0  0  0  0  0  0  0
  154.2044  135.4845  159.0137 O   0  0  0  0  0  0  0  0  0  0  0  0
  156.3411  136.5939  158.9028 C   0  0  0  0  0  0  0  0  0  0  0  0
  156.8706  137.3183  157.6574 C   0  0  0  0  0  0  0  0  0  0  0  0
  149.5985  137.4206  153.2645 H   0  0  0  0  0  0  0  0  0  0  0  0
  151.9849  145.6203  158.1396 H   0  0  0  0  0  0  0  0  0  0  0  0
  150.6783  144.4422  158.1352 H   0  0  0  0  0  0  0  0  0  0  0  0
  152.1546  144.1300  157.2190 H   0  0  0  0  0  0  0  0  0  0  0  0
  153.4671  144.0411  159.3767 H   0  0  0  0  0  0  0  0  0  0  0  0
  151.9983  144.3283  160.2860 H   0  0  0  0  0  0  0  0  0  0  0  0
  154.2989  139.9660  159.8006 H   0  0  0  0  0  0  0  0  0  0  0  0
  152.8185  140.2781  160.7019 H   0  0  0  0  0  0  0  0  0  0  0  0
  151.4090  139.5087  158.9495 H   0  0  0  0  0  0  0  0  0  0  0  0
  153.3831  138.5385  155.9316 H   0  0  0  0  0  0  0  0  0  0  0  0
  150.8923  140.8623  156.3824 H   0  0  0  0  0  0  0  0  0  0  0  0
  152.8054  136.5316  157.1106 H   0  0  0  0  0  0  0  0  0  0  0  0
  152.3804  137.4377  159.6792 H   0  0  0  0  0  0  0  0  0  0  0  0
  156.7015  137.0942  159.8021 H   0  0  0  0  0  0  0  0  0  0  0  0
  156.7234  135.5734  158.9330 H   0  0  0  0  0  0  0  0  0  0  0  0
  157.9593  137.3683  157.6769 H   0  0  0  0  0  0  0  0  0  0  0  0
  156.4943  138.3405  157.6031 H   0  0  0  0  0  0  0  0  0  0  0  0
  156.5814  136.8038  156.7402 H   0  0  0  0  0  0  0  0  0  0  0  0
  1  2  1  0  0  0  0
  1 28  1  0  0  0  0
  1 29  1  0  0  0  0
  1 30  1  0  0  0  0
  2  3  1  0  0  0  0
  2 31  1  0  0  0  0
  2 32  1  0  0  0  0
  3  4  2  0  0  0  0
  3  5  1  0  0  0  0
  5  6  1  0  0  0  0
  6  7  1  0  0  0  0
  6 33  1  0  0  0  0
  6 34  1  0  0  0  0
  7 21  1  0  0  0  0
  7  8  1  0  0  0  0
  7 35  1  0  0  0  0
  8  9  1  0  0  0  0
  9 10  1  0  0  0  0
  9 19  1  0  0  0  0
  9 36  1  0  0  0  0
 10 17  1  0  0  0  0
 10 11  1  0  0  0  0
 11 12  2  0  0  0  0
 11 37  1  0  0  0  0
 12 13  1  0  0  0  0
 12 14  1  0  0  0  0
 14 15  2  0  0  0  0
 14 16  1  0  0  0  0
 16 27  1  0  0  0  0
 16 17  1  0  0  0  0
 17 18  2  0  0  0  0
 19 20  1  0  0  0  0
 19 21  1  0  0  0  0
 19 38  1  0  0  0  0
 21 22  1  0  0  0  0
 21 39  1  0  0  0  0
 22 23  1  0  0  0  0
 23 24  2  0  0  0  0
 23 25  1  0  0  0  0
 25 26  1  0  0  0  0
 25 40  1  0  0  0  0
 25 41  1  0  0  0  0
 26 42  1  0  0  0  0
 26 43  1  0  0  0  0
 26 44  1  0  0  0  0
M  END
> <s_m_source_file>
AV-unprocessed.smi

> <i_m_source_file_index>
37

> <i_lp_mmshare_version>
43012

> <i_f3d_flags>
0

> <s_epik_input>
W0NIM11bQ0gyXUMoPU8pT1tDSDJdW0NAQEhdMU9bQ0BASF0objJbY0hdYyhGKWMoPU8pW25IXWMyPU8pW0NAQEhdKEJyKVtDQEhdMU9DKD1PKVtDSDJdW0NIM10=

> <s_epik_cmdline>
J2VwaWtfcHl0aG9uJywgJy1waCcsICc3LjAnLCAnLXRuJywgJzgnLCAnLW1hJywgJzIwMCcsICctbWV0YWxfYmluZGluZycsICctaW1hZScsICc8aW5maWxlLm1hZT4nLCAnLW9tYWUnLCAnPG91dGZpbGUubWFlPic=

> <r_lp_tautomer_probability>
0.999537

> <r_epik_Ionization_Penalty>
0.104106

> <r_epik_Ionization_Penalty_Charging>
0.104106

> <r_epik_Ionization_Penalty_Neutral>
3.94675e-16

> <r_epik_State_Penalty>
0.0940182

> <r_epik_Charging_Adjusted_Penalty>
0.198124

> <i_epik_Tot_Q>
0

> <i_epik_Tot_abs_Q>
0

> <r_epik_Metal_State_Penalty>
3.05314

> <b_epik_Metal_Only>
0

> <s_epik_Chemistry_Notes>
This compound has an ester and may undergo hydrolysis at high or low pH. This compound contains an acetal/aminal-like group ( X-CH(R)-Y where X, Y are N, S, or O) that may be acid/base labile, releasing an aldehyde.

> <s_lp_Force_Field>
OPLS_2005

> <r_lp_Energy>
24.0333

> <b_lp_Chiralities_Consistent>
1

> <s_lp_Variant>
AV-unprocessed.smi:37-8

> <Gold.Version>
5.8.1

> <Gold.Id.Protein>
6NUR|6NUR_protein|mol2

> <Gold.PLP.Fitness>
48.2685

> <Gold.PLP.PLP>
-37.4100

> <Gold.PLP.part.hbond>
-5.0000

> <Gold.PLP.part.metal>
0.0000

> <Gold.PLP.part.buried>
-4.3629

> <Gold.PLP.part.nonpolar>
-32.8164

> <Gold.PLP.part.repulsive>
4.6068

> <Gold.PLP.ligand.clash>
0.0000

> <Gold.PLP.ligand.torsion>
0.6899

> <Gold.PLP.Chemscore.Hbond>
4.0000

> <Gold.PLP.Chemscore.CHOScore>
0.0000

> <Gold.PLP.Chemscore.Metal>
0.0000

> <Gold.Chemscore.Hbonds>
donor molecule, donor type, donor heavy atom, donor atom, acceptor molecule, acceptor atom, score
      L1  H    16    27       P1  7948  1.00
      P1  H  6896  6909       L1    24  0.68
      P1  H  7997  8009       L1     8  0.90
      P1  H 10752 10765       L1    18  1.00

> <Gold.PLP.Chemscore.Internal.Correction>
0.2383

> <Gold.Rescore>
     Score         DG    S(hbond)    S(metal)    S(lipo)     H(rot)  DE(clash)    DE(int)     intcor
     13.29     -16.03       3.50        0.00      63.27       3.33       0.04       2.70       ----

> <Gold.Chemscore.Fitness>
13.2941

> <Gold.Chemscore.DG>
-16.0324

> <Gold.Chemscore.ZeroCoef>
-5.4800

> <Gold.Chemscore.Hbond>
3.4955

> <Gold.Chemscore.Metal>
0.0000

> <Gold.Chemscore.Lipo>
63.2725

> <Gold.Chemscore.Internal_Hbond>
0.0000

> <Gold.Chemscore.DEClash>
0.0358

> <Gold.Chemscore.DEInternal>
2.7025

> <Gold.Chemscore.Rot>
3.3303

> <Gold.Chemscore.Internal.Correction>
   9.000000E+99

> <Gold.Chemscore.Hbonds>
donor molecule, donor type, donor heavy atom, donor atom, acceptor molecule, acceptor atom, score
      L1  H    16    27       P1  7948  0.82
      P1  H  6896  6909       L1    24  0.64
      P1  H  7997  8009       L1     8  0.16
      P1  H 10752 10765       L1    18  1.00

> <Gold.Chemscore.Hbond.Weighted>
-11.6751

> <Gold.Chemscore.Metal.Weighted>
-0.0000

> <Gold.Chemscore.Lipo.Weighted>
-7.4029

> <Gold.Chemscore.Internal_Hbond.Weighted>
0.0000

> <Gold.Chemscore.DEClash.Weighted>
0.0358

> <Gold.Chemscore.DEInternal.Weighted>
2.7025

> <Gold.Chemscore.Rot.Weighted>
8.5256

> <Gold.Chemscore.Internal.Correction.Weighted>
   9.000000E+99

> <Gold.Protein.RotatedTorsions>
[ 6907 6896 6895 6894 ] final -178.90 input  -60.11 | X-H torsion
[ 7974 7965 7964 7962 ] final   95.02 input  175.53 | X-H torsion
[ 8008 7997 7996 7995 ] final  160.35 input   59.86 | X-H torsion
[ 10167 10162 10161 10158 ] final  -79.02 input  -65.29 | X-H torsion
[ 10718 10713 10712 10709 ] final  -95.16 input   66.30 | X-H torsion
[ 10763 10752 10751 10750 ] final  160.76 input  -60.55 | X-H torsion
[ 11005 11000 10999 10996 ] final -151.77 input  -57.11 | X-H torsion

> <Gold.Protein.ActiveResidues>
 VAL166  LYS551  ARG553  GLY616  TRP617  ASP618  TYR619  PRO620  LYS621  CYS622 
 ASP623  PHE694  ASN695  SER759  ASP760  ASP761  ALA762  ILE779  LEU786  VAL792 
 PHE793  MET794  SER795  GLU796  ALA797  LYS798  CYS799  TRP800  GLU811  SER814 

> <Gold.Protein.RotatedAtoms>
  151.6448  133.3324  159.3138 H   0  0  0  0  0  0  0  0  0  0  0  0  # atno 6907 bound_to 6896
  150.7990  134.7074  159.6593 H   0  0  0  0  0  0  0  0  0  0  0  0  # atno 6908 bound_to 6896
  152.4080  134.6178  160.0094 H   0  0  0  0  0  0  0  0  0  0  0  0  # atno 6909 bound_to 6896
  145.4578  139.2289  143.3004 H   0  0  0  0  0  0  0  0  0  0  0  0  # atno 7974 bound_to 7965
  156.2178  140.1806  156.7548 H   0  0  0  0  0  0  0  0  0  0  0  0  # atno 8008 bound_to 7997
  154.5818  140.0665  156.9144 H   0  0  0  0  0  0  0  0  0  0  0  0  # atno 8009 bound_to 7997
  155.2488  140.3327  155.4287 H   0  0  0  0  0  0  0  0  0  0  0  0  # atno 8010 bound_to 7997
  140.4630  143.2448  151.8320 H   0  0  0  0  0  0  0  0  0  0  0  0  # atno 10167 bound_to 10162
  156.0038  130.5097  150.6034 H   0  0  0  0  0  0  0  0  0  0  0  0  # atno 10718 bound_to 10713
  154.2524  135.2771  155.2811 H   0  0  0  0  0  0  0  0  0  0  0  0  # atno 10763 bound_to 10752
  154.5453  135.5690  153.6878 H   0  0  0  0  0  0  0  0  0  0  0  0  # atno 10764 bound_to 10752
  152.9978  135.6261  154.2672 H   0  0  0  0  0  0  0  0  0  0  0  0  # atno 10765 bound_to 10752
  140.7261  134.3674  157.5175 H   0  0  0  0  0  0  0  0  0  0  0  0  # atno 11005 bound_to 11000
  146.2468  140.5344  142.8910 LP  0  0  0  0  0  0  0  0  0  0  0  0  # atno 17320 bound_to 7965
  144.8021  140.6233  143.6471 LP  0  0  0  0  0  0  0  0  0  0  0  0  # atno 17321 bound_to 7965
  139.4808  144.4984  151.9092 LP  0  0  0  0  0  0  0  0  0  0  0  0  # atno 17342 bound_to 10162
  140.4070  144.2419  150.5890 LP  0  0  0  0  0  0  0  0  0  0  0  0  # atno 17343 bound_to 10162
  157.3879  131.0791  151.1419 LP  0  0  0  0  0  0  0  0  0  0  0  0  # atno 17370 bound_to 10713
  157.2120  130.6442  149.5778 LP  0  0  0  0  0  0  0  0  0  0  0  0  # atno 17371 bound_to 10713
  139.8837  134.8987  156.2750 LP  0  0  0  0  0  0  0  0  0  0  0  0  # atno 17394 bound_to 11000
  140.9962  133.7179  156.0889 LP  0  0  0  0  0  0  0  0  0  0  0  0  # atno 17395 bound_to 11000

$$$$
