AV-unprocessed.smi:283|AV-procd|sdf|2140|dock6
  -GOLD-   2262021463D 1   1.00000     0.00000
 Structure written by MMmdl.
 48 51  0  0  0  0  0  0  0  0  1 V2000
  149.9315  141.5788  156.9052 C   0  0  0  0  0  0  0  0  0  0  0  0
  151.0604  141.2912  157.9042 C   0  0  1  0  0  0  0  0  0  0  0  0
  152.1939  140.6869  157.2070 N   0  0  0  0  0  0  0  0  0  0  0  0
  152.0470  139.5485  156.4932 C   0  0  0  0  0  0  0  0  0  0  0  0
  152.5700  139.5701  155.2442 N   0  0  0  0  0  0  0  0  0  0  0  0
  152.5051  138.4830  154.4712 C   0  0  0  0  0  0  0  0  0  0  0  0
  151.9690  137.2939  154.7490 N   0  0  0  0  0  0  0  0  0  0  0  0
  151.4217  137.2680  155.9991 C   0  0  0  0  0  0  0  0  0  0  0  0
  151.4120  138.3476  156.9283 C   0  0  0  0  0  0  0  0  0  0  0  0
  150.7539  137.9485  158.0863 N   0  0  0  0  0  0  0  0  0  0  0  0
  150.4205  136.7076  157.8612 C   0  0  0  0  0  0  0  0  0  0  0  0
  150.7902  136.2148  156.6318 N   0  0  0  0  0  0  0  0  0  0  0  0
  150.5628  134.8340  156.1013 C   0  0  1  0  0  0  0  0  0  0  0  0
  149.8268  134.0997  157.0242 O   0  0  0  0  0  0  0  0  0  0  0  0
  149.0618  133.1118  156.3413 C   0  0  1  0  0  0  0  0  0  0  0  0
  147.6590  133.0424  156.9724 C   0  0  0  0  0  0  0  0  0  0  0  0
  146.8469  132.0677  156.3513 O   0  0  0  0  0  0  0  0  0  0  0  0
  149.1071  133.4507  154.8358 C   0  0  2  0  0  0  0  0  0  0  0  0
  149.9113  132.4989  154.1647 O   0  0  0  0  0  0  0  0  0  0  0  0
  149.7774  134.8179  154.7821 C   0  0  1  0  0  0  0  0  0  0  0  0
  148.8170  135.8536  154.6828 O   0  0  0  0  0  0  0  0  0  0  0  0
  151.3960  142.5536  158.7047 C   0  0  0  0  0  0  0  0  0  0  0  0
  150.6928  143.7558  158.4564 C   0  0  0  0  0  0  0  0  0  0  0  0
  150.9941  144.9266  159.1769 C   0  0  0  0  0  0  0  0  0  0  0  0
  151.9961  144.9063  160.1633 C   0  0  0  0  0  0  0  0  0  0  0  0
  152.6905  143.7124  160.4312 C   0  0  0  0  0  0  0  0  0  0  0  0
  152.3942  142.5375  159.7116 C   0  0  0  0  0  0  0  0  0  0  0  0
  153.2717  141.0972  160.0932 Cl  0  0  0  0  0  0  0  0  0  0  0  0
  151.5573  134.3963  156.0024 H   0  0  0  0  0  0  0  0  0  0  0  0
  149.5554  132.1558  156.5252 H   0  0  0  0  0  0  0  0  0  0  0  0
  148.1233  133.4494  154.3645 H   0  0  0  0  0  0  0  0  0  0  0  0
  150.4683  134.9209  153.9442 H   0  0  0  0  0  0  0  0  0  0  0  0
  149.0419  141.9500  157.4150 H   0  0  0  0  0  0  0  0  0  0  0  0
  149.6456  140.6768  156.3632 H   0  0  0  0  0  0  0  0  0  0  0  0
  150.2311  142.3286  156.1721 H   0  0  0  0  0  0  0  0  0  0  0  0
  150.6884  140.5279  158.5853 H   0  0  0  0  0  0  0  0  0  0  0  0
  153.0989  140.9956  157.5310 H   0  0  0  0  0  0  0  0  0  0  0  0
  152.9501  138.5771  153.4917 H   0  0  0  0  0  0  0  0  0  0  0  0
  149.8977  136.1115  158.5951 H   0  0  0  0  0  0  0  0  0  0  0  0
  147.7429  132.7812  158.0276 H   0  0  0  0  0  0  0  0  0  0  0  0
  147.1666  134.0138  156.9216 H   0  0  0  0  0  0  0  0  0  0  0  0
  146.1801  131.7985  156.9659 H   0  0  0  0  0  0  0  0  0  0  0  0
  150.0319  132.7849  153.2720 H   0  0  0  0  0  0  0  0  0  0  0  0
  148.8966  136.2539  153.8303 H   0  0  0  0  0  0  0  0  0  0  0  0
  149.9175  143.7895  157.7051 H   0  0  0  0  0  0  0  0  0  0  0  0
  150.4550  145.8398  158.9724 H   0  0  0  0  0  0  0  0  0  0  0  0
  152.2284  145.8035  160.7176 H   0  0  0  0  0  0  0  0  0  0  0  0
  153.4539  143.6984  161.1952 H   0  0  0  0  0  0  0  0  0  0  0  0
  1  2  1  0  0  0  0
  1 33  1  0  0  0  0
  1 34  1  0  0  0  0
  1 35  1  0  0  0  0
  2  3  1  0  0  0  0
  2 22  1  0  0  0  0
  2 36  1  0  0  0  0
  3  4  1  0  0  0  0
  3 37  1  0  0  0  0
  4  9  1  0  0  0  0
  4  5  2  0  0  0  0
  5  6  1  0  0  0  0
  6  7  2  0  0  0  0
  6 38  1  0  0  0  0
  7  8  1  0  0  0  0
  8 12  1  0  0  0  0
  8  9  2  0  0  0  0
  9 10  1  0  0  0  0
 10 11  2  0  0  0  0
 11 12  1  0  0  0  0
 11 39  1  0  0  0  0
 12 13  1  0  0  0  0
 13 29  1  0  0  0  0
 13 20  1  0  0  0  0
 13 14  1  0  0  0  0
 14 15  1  0  0  0  0
 15 30  1  0  0  0  0
 15 16  1  0  0  0  0
 15 18  1  0  0  0  0
 16 17  1  0  0  0  0
 16 40  1  0  0  0  0
 16 41  1  0  0  0  0
 17 42  1  0  0  0  0
 18 31  1  0  0  0  0
 18 19  1  0  0  0  0
 18 20  1  0  0  0  0
 19 43  1  0  0  0  0
 20 32  1  0  0  0  0
 20 21  1  0  0  0  0
 21 44  1  0  0  0  0
 22 27  1  0  0  0  0
 22 23  2  0  0  0  0
 23 24  1  0  0  0  0
 23 45  1  0  0  0  0
 24 25  2  0  0  0  0
 24 46  1  0  0  0  0
 25 26  1  0  0  0  0
 25 47  1  0  0  0  0
 26 27  2  0  0  0  0
 26 48  1  0  0  0  0
 27 28  1  0  0  0  0
M  END
> <s_m_source_file>
AV-unprocessed.smi

> <i_m_source_file_index>
283

> <i_lp_mmshare_version>
43012

> <i_f3d_flags>
0

> <s_epik_input>
Q2xjMVtjSF1bY0hdW2NIXVtjSF1jMVtDQEhdKFtDSDNdKVtOSF1jKG5bY0hdbjIpYyhjMjMpbltjSF1uM1tDQEBIXTRPW0NASF0oW0NIMl1bT0hdKVtDQEBIXShbT0hdKVtDQEhdNFtPSF0=

> <s_epik_cmdline>
J2VwaWtfcHl0aG9uJywgJy1waCcsICc3LjAnLCAnLXRuJywgJzgnLCAnLW1hJywgJzIwMCcsICctbWV0YWxfYmluZGluZycsICctaW1hZScsICc8aW5maWxlLm1hZT4nLCAnLW9tYWUnLCAnPG91dGZpbGUubWFlPic=

> <r_lp_tautomer_probability>
1

> <r_epik_Ionization_Penalty>
0.000266407

> <r_epik_Ionization_Penalty_Charging>
0

> <r_epik_Ionization_Penalty_Neutral>
0.000266407

> <r_epik_State_Penalty>
-0

> <r_epik_Charging_Adjusted_Penalty>
0

> <i_epik_Tot_Q>
0

> <i_epik_Tot_abs_Q>
0

> <r_epik_Metal_State_Penalty>
-0

> <b_epik_Metal_Only>
0

> <s_epik_Chemistry_Notes>
This compound contains an acetal/aminal-like group ( X-CH(R)-Y where X, Y are N, S, or O) that may be acid/base labile, releasing an aldehyde.

> <s_lp_Force_Field>
OPLS_2005

> <r_lp_Energy>
47.3301

> <b_lp_Chiralities_Consistent>
1

> <s_lp_Variant>
AV-unprocessed.smi:283-16

> <Gold.Version>
5.8.1

> <Gold.Id.Protein>
6NUR|6NUR_protein|mol2

> <Gold.PLP.Fitness>
52.0890

> <Gold.PLP.PLP>
-44.2627

> <Gold.PLP.part.hbond>
-3.3765

> <Gold.PLP.part.metal>
0.0000

> <Gold.PLP.part.buried>
-5.8920

> <Gold.PLP.part.nonpolar>
-35.6215

> <Gold.PLP.part.repulsive>
0.2321

> <Gold.PLP.ligand.clash>
0.0000

> <Gold.PLP.ligand.torsion>
0.4655

> <Gold.PLP.Chemscore.Hbond>
2.8960

> <Gold.PLP.Chemscore.CHOScore>
0.0000

> <Gold.PLP.Chemscore.Metal>
0.0000

> <Gold.Chemscore.Hbonds>
donor molecule, donor type, donor heavy atom, donor atom, acceptor molecule, acceptor atom, score
      L1  H    21    44       P1  7948  1.00
      P1  H  7989  7998       L1     5  0.07
      P1  H  7997  8009       L1     5  0.65
      P1  H 10752 10763       L1     7  0.90

> <Gold.PLP.Chemscore.Internal.Correction>
0.0694

> <Gold.Rescore>
     Score         DG    S(hbond)    S(metal)    S(lipo)     H(rot)  DE(clash)    DE(int)     intcor
     14.88     -15.30       2.47        0.00     103.10       4.10       0.01       0.41       ----

> <Gold.Chemscore.Fitness>
14.8804

> <Gold.Chemscore.DG>
-15.3015

> <Gold.Chemscore.ZeroCoef>
-5.4800

> <Gold.Chemscore.Hbond>
2.4691

> <Gold.Chemscore.Metal>
0.0000

> <Gold.Chemscore.Lipo>
103.0996

> <Gold.Chemscore.Internal_Hbond>
0.0000

> <Gold.Chemscore.DEClash>
0.0063

> <Gold.Chemscore.DEInternal>
0.4148

> <Gold.Chemscore.Rot>
4.0968

> <Gold.Chemscore.Internal.Correction>
   9.000000E+99

> <Gold.Chemscore.Hbonds>
donor molecule, donor type, donor heavy atom, donor atom, acceptor molecule, acceptor atom, score
      L1  H    21    44       P1  7948  0.96
      P1  H  6896  6909       L1    14  0.04
      P1  H  7997  8009       L1     5  0.09
      P1  H 10752 10763       L1     7  0.56

> <Gold.Chemscore.Hbond.Weighted>
-8.2468

> <Gold.Chemscore.Metal.Weighted>
-0.0000

> <Gold.Chemscore.Lipo.Weighted>
-12.0627

> <Gold.Chemscore.Internal_Hbond.Weighted>
0.0000

> <Gold.Chemscore.DEClash.Weighted>
0.0063

> <Gold.Chemscore.DEInternal.Weighted>
0.4148

> <Gold.Chemscore.Rot.Weighted>
10.4879

> <Gold.Chemscore.Internal.Correction.Weighted>
   9.000000E+99

> <Gold.Protein.RotatedTorsions>
[ 6907 6896 6895 6894 ] final   -0.84 input  -60.11 | X-H torsion
[ 7974 7965 7964 7962 ] final -131.21 input  175.53 | X-H torsion
[ 8008 7997 7996 7995 ] final -130.51 input   59.86 | X-H torsion
[ 10167 10162 10161 10158 ] final  -90.21 input  -65.29 | X-H torsion
[ 10718 10713 10712 10709 ] final   70.38 input   66.30 | X-H torsion
[ 10763 10752 10751 10750 ] final   54.21 input  -60.55 | X-H torsion
[ 11005 11000 10999 10996 ] final  -50.99 input  -57.11 | X-H torsion

> <Gold.Protein.ActiveResidues>
 VAL166  LYS551  ARG553  GLY616  TRP617  ASP618  TYR619  PRO620  LYS621  CYS622 
 ASP623  PHE694  ASN695  SER759  ASP760  ASP761  ALA762  ILE779  LEU786  VAL792 
 PHE793  MET794  SER795  GLU796  ALA797  LYS798  CYS799  TRP800  GLU811  SER814 

> <Gold.Protein.RotatedAtoms>
  151.5558  135.1066  159.9960 H   0  0  0  0  0  0  0  0  0  0  0  0  # atno 6907 bound_to 6896
  152.4470  133.7551  159.6726 H   0  0  0  0  0  0  0  0  0  0  0  0  # atno 6908 bound_to 6896
  150.8388  133.7902  159.3093 H   0  0  0  0  0  0  0  0  0  0  0  0  # atno 6909 bound_to 6896
  144.9401  140.7228  143.4852 H   0  0  0  0  0  0  0  0  0  0  0  0  # atno 7974 bound_to 7965
  155.2970  140.0451  157.3027 H   0  0  0  0  0  0  0  0  0  0  0  0  # atno 8008 bound_to 7997
  154.5508  140.2317  155.8455 H   0  0  0  0  0  0  0  0  0  0  0  0  # atno 8009 bound_to 7997
  156.1965  140.3037  155.9445 H   0  0  0  0  0  0  0  0  0  0  0  0  # atno 8010 bound_to 7997
  140.3571  143.2861  151.9658 H   0  0  0  0  0  0  0  0  0  0  0  0  # atno 10167 bound_to 10162
  157.6396  130.9474  150.0642 H   0  0  0  0  0  0  0  0  0  0  0  0  # atno 10718 bound_to 10713
  152.9802  135.5752  154.4868 H   0  0  0  0  0  0  0  0  0  0  0  0  # atno 10763 bound_to 10752
  154.4408  135.2776  155.1851 H   0  0  0  0  0  0  0  0  0  0  0  0  # atno 10764 bound_to 10752
  154.3519  135.6207  153.5701 H   0  0  0  0  0  0  0  0  0  0  0  0  # atno 10765 bound_to 10752
  141.0846  133.6645  156.3811 H   0  0  0  0  0  0  0  0  0  0  0  0  # atno 11005 bound_to 11000
  145.3005  139.1852  143.4692 LP  0  0  0  0  0  0  0  0  0  0  0  0  # atno 17320 bound_to 7965
  146.3282  140.2995  142.8620 LP  0  0  0  0  0  0  0  0  0  0  0  0  # atno 17321 bound_to 7965
  139.4818  144.6025  151.7580 LP  0  0  0  0  0  0  0  0  0  0  0  0  # atno 17342 bound_to 10162
  140.5163  144.0948  150.6009 LP  0  0  0  0  0  0  0  0  0  0  0  0  # atno 17343 bound_to 10162
  156.1666  130.3645  149.9224 LP  0  0  0  0  0  0  0  0  0  0  0  0  # atno 17370 bound_to 10713
  156.7209  130.9006  151.3618 LP  0  0  0  0  0  0  0  0  0  0  0  0  # atno 17371 bound_to 10713
  140.5391  134.6137  157.5374 LP  0  0  0  0  0  0  0  0  0  0  0  0  # atno 17394 bound_to 11000
  139.9663  134.7367  156.0132 LP  0  0  0  0  0  0  0  0  0  0  0  0  # atno 17395 bound_to 11000

$$$$
