AV-unprocessed.smi:2135|AV-procd|sdf|8700|dock5
  -GOLD-   2272011463D 1   1.00000     0.00000
 Structure written by MMmdl.
 43 44  0  0  0  0  0  0  0  0  2 V2000
  149.7528  135.5907  155.7104 C   0  0  0  0  0  0  0  0  0  0  0  0
  150.5494  137.1975  156.1152 S   0  0  0  0  0  0  0  0  0  0  0  0
  150.1084  137.6094  157.4566 O   0  0  0  0  0  0  0  0  0  0  0  0
  151.9857  137.0720  155.8236 O   0  0  0  0  0  0  0  0  0  0  0  0
  149.8824  138.3104  154.9556 N   0  0  0  0  0  0  0  0  0  0  0  0
  148.4272  138.3742  154.7276 C   0  0  0  0  0  0  0  0  0  0  0  0
  147.8393  139.7014  155.2343 C   0  0  0  0  0  0  0  0  0  0  0  0
  148.5943  140.9137  154.6586 C   0  0  0  0  0  0  0  0  0  0  0  0
  150.1152  140.8264  154.9236 C   0  0  1  0  0  0  0  0  0  0  0  0
  150.5092  141.1438  156.3790 C   0  0  0  0  0  0  0  0  0  0  0  0
  151.1196  140.3294  157.0725 O   0  0  0  0  0  0  0  0  0  0  0  0
  150.1133  142.3380  156.8477 N   0  0  0  0  0  0  0  0  0  0  0  0
  150.3743  142.8395  158.1914 C   0  0  0  0  0  0  0  0  0  0  0  0
  151.8696  143.1233  158.4102 C   0  0  0  0  0  0  0  0  0  0  0  0
  152.2226  143.2250  159.8810 C   0  0  0  0  0  0  0  0  0  0  0  0
  153.0646  142.2677  160.4888 C   0  0  0  0  0  0  0  0  0  0  0  0
  153.3717  142.3888  161.8602 C   0  0  0  0  0  0  0  0  0  0  0  0
  152.8291  143.4643  162.5930 C   0  0  0  0  0  0  0  0  0  0  0  0
  152.0264  144.3604  161.9774 N   0  3  0  0  0  0  0  0  0  0  0  0
  151.7091  144.2800  160.6665 C   0  0  0  0  0  0  0  0  0  0  0  0
  150.6519  139.4589  154.4315 C   0  0  0  0  0  0  0  0  0  0  0  0
  150.2363  134.7998  156.2830 H   0  0  0  0  0  0  0  0  0  0  0  0
  149.8608  135.3803  154.6470 H   0  0  0  0  0  0  0  0  0  0  0  0
  148.6998  135.6198  155.9798 H   0  0  0  0  0  0  0  0  0  0  0  0
  148.2403  138.2725  153.6580 H   0  0  0  0  0  0  0  0  0  0  0  0
  147.9308  137.5334  155.2118 H   0  0  0  0  0  0  0  0  0  0  0  0
  146.7865  139.7622  154.9577 H   0  0  0  0  0  0  0  0  0  0  0  0
  147.8596  139.7166  156.3231 H   0  0  0  0  0  0  0  0  0  0  0  0
  148.4241  140.9603  153.5822 H   0  0  0  0  0  0  0  0  0  0  0  0
  148.1822  141.8385  155.0648 H   0  0  0  0  0  0  0  0  0  0  0  0
  150.5913  141.6023  154.3220 H   0  0  0  0  0  0  0  0  0  0  0  0
  149.6065  142.9482  156.2225 H   0  0  0  0  0  0  0  0  0  0  0  0
  149.7814  143.7376  158.3738 H   0  0  0  0  0  0  0  0  0  0  0  0
  150.0295  142.0900  158.9045 H   0  0  0  0  0  0  0  0  0  0  0  0
  152.4707  142.3382  157.9494 H   0  0  0  0  0  0  0  0  0  0  0  0
  152.1549  144.0552  157.9199 H   0  0  0  0  0  0  0  0  0  0  0  0
  153.4709  141.4486  159.9133 H   0  0  0  0  0  0  0  0  0  0  0  0
  154.0143  141.6667  162.3426 H   0  0  0  0  0  0  0  0  0  0  0  0
  153.0110  143.6336  163.6444 H   0  0  0  0  0  0  0  0  0  0  0  0
  151.0572  145.0547  160.2892 H   0  0  0  0  0  0  0  0  0  0  0  0
  151.7085  139.3448  154.6722 H   0  0  0  0  0  0  0  0  0  0  0  0
  150.5985  139.4288  153.3427 H   0  0  0  0  0  0  0  0  0  0  0  0
  151.6436  145.1310  162.5260 H   0  0  0  0  0  0  0  0  0  0  0  0
  1  2  1  0  0  0  0
  1 22  1  0  0  0  0
  1 23  1  0  0  0  0
  1 24  1  0  0  0  0
  2  3  2  0  0  0  0
  2  4  2  0  0  0  0
  2  5  1  0  0  0  0
  5 21  1  0  0  0  0
  5  6  1  0  0  0  0
  6  7  1  0  0  0  0
  6 25  1  0  0  0  0
  6 26  1  0  0  0  0
  7  8  1  0  0  0  0
  7 27  1  0  0  0  0
  7 28  1  0  0  0  0
  8  9  1  0  0  0  0
  8 29  1  0  0  0  0
  8 30  1  0  0  0  0
  9 10  1  0  0  0  0
  9 21  1  0  0  0  0
  9 31  1  0  0  0  0
 10 11  2  0  0  0  0
 10 12  1  0  0  0  0
 12 13  1  0  0  0  0
 12 32  1  0  0  0  0
 13 14  1  0  0  0  0
 13 33  1  0  0  0  0
 13 34  1  0  0  0  0
 14 15  1  0  0  0  0
 14 35  1  0  0  0  0
 14 36  1  0  0  0  0
 15 20  1  0  0  0  0
 15 16  2  0  0  0  0
 16 17  1  0  0  0  0
 16 37  1  0  0  0  0
 17 18  2  0  0  0  0
 17 38  1  0  0  0  0
 18 19  1  0  0  0  0
 18 39  1  0  0  0  0
 19 20  2  0  0  0  0
 19 43  1  0  0  0  0
 20 40  1  0  0  0  0
 21 41  1  0  0  0  0
 21 42  1  0  0  0  0
M  CHG  1  19   1
M  END
> <s_m_source_file>
AV-unprocessed.smi

> <i_m_source_file_index>
2135

> <i_lp_mmshare_version>
43012

> <i_f3d_flags>
0

> <s_epik_input>
W0NIM11TKD1PKSg9TylOMVtDSDJdW0NIMl1bQ0gyXVtDQEhdKFtDSDJdMSlDKD1PKVtOSF1bQ0gyXVtDSDJdYzJbY0hdW2NIXVtjSF1uW2NIXTI=

> <s_epik_cmdline>
J2VwaWtfcHl0aG9uJywgJy1waCcsICc3LjAnLCAnLXRuJywgJzgnLCAnLW1hJywgJzIwMCcsICctbWV0YWxfYmluZGluZycsICctaW1hZScsICc8aW5maWxlLm1hZT4nLCAnLW9tYWUnLCAnPG91dGZpbGUubWFlPic=

> <r_epik_Ionization_Penalty>
2.24912

> <r_epik_Ionization_Penalty_Charging>
2.24912

> <r_epik_Ionization_Penalty_Neutral>
2.62834e-08

> <r_epik_State_Penalty>
2.39611

> <r_epik_Charging_Adjusted_Penalty>
4.64523

> <i_epik_Tot_Q>
1

> <i_epik_Tot_abs_Q>
1

> <r_epik_Metal_State_Penalty>
2.40934

> <b_epik_Metal_Only>
0

> <s_lp_Force_Field>
OPLS_2005

> <r_lp_Energy>
5.07519

> <b_lp_Chiralities_Consistent>
1

> <s_lp_Variant>
AV-unprocessed.smi:2135-3

> <Gold.Version>
5.8.1

> <Gold.Id.Protein>
6NUR|6NUR_protein|mol2

> <Gold.PLP.Fitness>
47.4139

> <Gold.PLP.PLP>
-41.9457

> <Gold.PLP.part.hbond>
-3.5242

> <Gold.PLP.part.metal>
0.0000

> <Gold.PLP.part.buried>
-2.8841

> <Gold.PLP.part.nonpolar>
-35.5141

> <Gold.PLP.part.repulsive>
0.1148

> <Gold.PLP.ligand.clash>
0.0000

> <Gold.PLP.ligand.torsion>
1.3132

> <Gold.PLP.Chemscore.Hbond>
2.0000

> <Gold.PLP.Chemscore.CHOScore>
0.0000

> <Gold.PLP.Chemscore.Metal>
0.0000

> <Gold.Chemscore.Hbonds>
donor molecule, donor type, donor heavy atom, donor atom, acceptor molecule, acceptor atom, score
      L1  H    12    32       P1  8028  1.00
      P1  H 10752 10765       L1     4  0.86

> <Gold.PLP.Chemscore.Internal.Correction>
2.0945

> <Gold.Rescore>
     Score         DG    S(hbond)    S(metal)    S(lipo)     H(rot)  DE(clash)    DE(int)     intcor
     16.32     -19.10       1.63        0.00     105.94       1.65       0.20       2.58       ----

> <Gold.Chemscore.Fitness>
16.3215

> <Gold.Chemscore.DG>
-19.0990

> <Gold.Chemscore.ZeroCoef>
-5.4800

> <Gold.Chemscore.Hbond>
1.6341

> <Gold.Chemscore.Metal>
0.0000

> <Gold.Chemscore.Lipo>
105.9372

> <Gold.Chemscore.Internal_Hbond>
0.0000

> <Gold.Chemscore.DEClash>
0.1985

> <Gold.Chemscore.DEInternal>
2.5790

> <Gold.Chemscore.Rot>
1.6538

> <Gold.Chemscore.Internal.Correction>
   9.000000E+99

> <Gold.Chemscore.Hbonds>
donor molecule, donor type, donor heavy atom, donor atom, acceptor molecule, acceptor atom, score
      L1  H    12    32       P1  8028  0.94
      P1  H 10752 10765       L1     4  0.80

> <Gold.Chemscore.Hbond.Weighted>
-5.4580

> <Gold.Chemscore.Metal.Weighted>
-0.0000

> <Gold.Chemscore.Lipo.Weighted>
-12.3946

> <Gold.Chemscore.Internal_Hbond.Weighted>
0.0000

> <Gold.Chemscore.DEClash.Weighted>
0.1985

> <Gold.Chemscore.DEInternal.Weighted>
2.5790

> <Gold.Chemscore.Rot.Weighted>
4.2337

> <Gold.Chemscore.Internal.Correction.Weighted>
   9.000000E+99

> <Gold.Protein.RotatedTorsions>
[ 6907 6896 6895 6894 ] final -167.07 input  -60.11 | X-H torsion
[ 7974 7965 7964 7962 ] final  148.08 input  175.53 | X-H torsion
[ 8008 7997 7996 7995 ] final -164.47 input   59.86 | X-H torsion
[ 10167 10162 10161 10158 ] final -123.46 input  -65.29 | X-H torsion
[ 10718 10713 10712 10709 ] final  171.59 input   66.30 | X-H torsion
[ 10763 10752 10751 10750 ] final -160.21 input  -60.55 | X-H torsion
[ 11005 11000 10999 10996 ] final  116.96 input  -57.11 | X-H torsion

> <Gold.Protein.ActiveResidues>
 VAL166  LYS551  ARG553  GLY616  TRP617  ASP618  TYR619  PRO620  LYS621  CYS622 
 ASP623  PHE694  ASN695  SER759  ASP760  ASP761  ALA762  ILE779  LEU786  VAL792 
 PHE793  MET794  SER795  GLU796  ALA797  LYS798  CYS799  TRP800  GLU811  SER814 

> <Gold.Protein.RotatedAtoms>
  151.4536  133.3611  159.2798 H   0  0  0  0  0  0  0  0  0  0  0  0  # atno 6907 bound_to 6896
  150.9074  134.8491  159.7412 H   0  0  0  0  0  0  0  0  0  0  0  0  # atno 6908 bound_to 6896
  152.4913  134.4463  159.9612 H   0  0  0  0  0  0  0  0  0  0  0  0  # atno 6909 bound_to 6896
  144.8541  139.6109  143.5960 H   0  0  0  0  0  0  0  0  0  0  0  0  # atno 7974 bound_to 7965
  155.8361  140.0941  157.1763 H   0  0  0  0  0  0  0  0  0  0  0  0  # atno 8008 bound_to 7997
  154.3981  140.1410  156.3733 H   0  0  0  0  0  0  0  0  0  0  0  0  # atno 8009 bound_to 7997
  155.8114  140.3449  155.5462 H   0  0  0  0  0  0  0  0  0  0  0  0  # atno 8010 bound_to 7997
  140.0033  143.5518  152.2294 H   0  0  0  0  0  0  0  0  0  0  0  0  # atno 10167 bound_to 10162
  156.9913  131.0148  151.2856 H   0  0  0  0  0  0  0  0  0  0  0  0  # atno 10718 bound_to 10713
  154.7410  135.3068  154.8728 H   0  0  0  0  0  0  0  0  0  0  0  0  # atno 10763 bound_to 10752
  153.9543  135.6760  153.4748 H   0  0  0  0  0  0  0  0  0  0  0  0  # atno 10764 bound_to 10752
  153.1009  135.4912  154.8789 H   0  0  0  0  0  0  0  0  0  0  0  0  # atno 10765 bound_to 10752
  139.9058  134.9604  156.7277 H   0  0  0  0  0  0  0  0  0  0  0  0  # atno 11005 bound_to 11000
  146.2809  139.6874  142.9230 LP  0  0  0  0  0  0  0  0  0  0  0  0  # atno 17320 bound_to 7965
  145.4441  141.0424  143.2841 LP  0  0  0  0  0  0  0  0  0  0  0  0  # atno 17321 bound_to 7965
  139.6257  144.7636  151.2645 LP  0  0  0  0  0  0  0  0  0  0  0  0  # atno 17342 bound_to 10162
  140.7410  143.6569  150.8198 LP  0  0  0  0  0  0  0  0  0  0  0  0  # atno 17343 bound_to 10162
  157.5456  130.8148  149.8082 LP  0  0  0  0  0  0  0  0  0  0  0  0  # atno 17370 bound_to 10713
  156.0206  130.3797  150.1974 LP  0  0  0  0  0  0  0  0  0  0  0  0  # atno 17371 bound_to 10713
  140.6950  133.9357  155.7989 LP  0  0  0  0  0  0  0  0  0  0  0  0  # atno 17394 bound_to 11000
  141.0414  134.0616  157.3897 LP  0  0  0  0  0  0  0  0  0  0  0  0  # atno 17395 bound_to 11000

$$$$
