AV-unprocessed.smi:249|AV-procd|sdf|1922|dock6
  -GOLD-   2262021 33D 1   1.00000     0.00000
 Structure written by MMmdl.
 64 67  0  0  0  0  0  0  0  0  2 V2000
  145.3489  134.7994  151.3322 C   0  0  0  0  0  0  0  0  0  0  0  0
  146.1491  133.7237  152.0803 C   0  0  0  0  0  0  0  0  0  0  0  0
  147.2265  134.3049  152.9223 N   0  3  2  0  0  0  0  0  0  0  0  0
  148.2495  133.3131  153.3517 C   0  0  0  0  0  0  0  0  0  0  0  0
  149.4395  134.0039  154.0367 C   0  0  0  0  0  0  0  0  0  0  0  0
  148.9775  134.8609  155.2336 C   0  0  1  0  0  0  0  0  0  0  0  0
  150.0883  135.4970  155.9567 N   0  0  0  0  0  0  0  0  0  0  0  0
  151.2204  134.6501  156.3162 C   0  0  0  0  0  0  0  0  0  0  0  0
  150.4430  136.7468  155.5717 C   0  0  0  0  0  0  0  0  0  0  0  0
  150.5632  137.0397  154.2498 N   0  0  0  0  0  0  0  0  0  0  0  0
  150.8831  138.2792  153.8655 C   0  0  0  0  0  0  0  0  0  0  0  0
  151.1128  139.3543  154.6224 N   0  0  0  0  0  0  0  0  0  0  0  0
  151.0034  139.0590  155.9494 C   0  0  0  0  0  0  0  0  0  0  0  0
  150.6893  137.7883  156.5056 C   0  0  0  0  0  0  0  0  0  0  0  0
  150.6835  137.8626  157.8928 N   0  0  0  0  0  0  0  0  0  0  0  0
  150.9590  139.1133  158.1436 C   0  0  0  0  0  0  0  0  0  0  0  0
  151.1329  139.9092  157.0333 N   0  0  0  0  0  0  0  0  0  0  0  0
  151.4217  141.3315  157.0231 C   0  0  0  0  0  0  0  0  0  0  0  0
  151.3784  142.0165  158.4188 C   0  0  2  0  0  0  0  0  0  0  0  0
  150.9127  143.4828  158.2456 C   0  0  0  0  0  0  0  0  0  0  0  0
  151.6163  144.1279  157.2040 O   0  0  0  0  0  0  0  0  0  0  0  0
  152.7302  141.9321  159.1931 C   0  0  1  0  0  0  0  0  0  0  0  0
  152.6942  142.4705  160.6163 C   0  0  0  0  0  0  0  0  0  0  0  0
  153.9378  141.8486  161.2330 C   0  0  0  0  0  0  0  0  0  0  0  0
  153.9850  140.5411  160.6855 O   0  0  0  0  0  0  0  0  0  0  0  0
  153.2686  140.5127  159.4547 C   0  0  0  0  0  0  0  0  0  0  0  0
  147.8935  135.8531  154.7553 C   0  0  0  0  0  0  0  0  0  0  0  0
  146.7208  135.1427  154.0499 C   0  0  2  0  0  0  0  0  0  0  0  0
  145.8191  134.3695  155.0372 C   0  0  0  0  0  0  0  0  0  0  0  0
  144.5188  134.3487  150.7875 H   0  0  0  0  0  0  0  0  0  0  0  0
  145.9592  135.3342  150.6052 H   0  0  0  0  0  0  0  0  0  0  0  0
  144.9301  135.5308  152.0242 H   0  0  0  0  0  0  0  0  0  0  0  0
  145.4520  133.1745  152.7148 H   0  0  0  0  0  0  0  0  0  0  0  0
  146.5669  133.0003  151.3788 H   0  0  0  0  0  0  0  0  0  0  0  0
  147.8027  132.5749  154.0183 H   0  0  0  0  0  0  0  0  0  0  0  0
  148.6209  132.7610  152.4891 H   0  0  0  0  0  0  0  0  0  0  0  0
  150.1537  133.2468  154.3610 H   0  0  0  0  0  0  0  0  0  0  0  0
  149.9566  134.6242  153.3041 H   0  0  0  0  0  0  0  0  0  0  0  0
  148.5095  134.1910  155.9553 H   0  0  0  0  0  0  0  0  0  0  0  0
  151.8807  135.1668  157.0137 H   0  0  0  0  0  0  0  0  0  0  0  0
  151.8030  134.3679  155.4389 H   0  0  0  0  0  0  0  0  0  0  0  0
  150.8733  133.7377  156.8013 H   0  0  0  0  0  0  0  0  0  0  0  0
  150.9582  138.4341  152.7993 H   0  0  0  0  0  0  0  0  0  0  0  0
  151.0211  139.4963  159.1519 H   0  0  0  0  0  0  0  0  0  0  0  0
  152.4033  141.4793  156.5708 H   0  0  0  0  0  0  0  0  0  0  0  0
  150.7028  141.7943  156.3464 H   0  0  0  0  0  0  0  0  0  0  0  0
  150.6232  141.5154  159.0258 H   0  0  0  0  0  0  0  0  0  0  0  0
  149.8572  143.5399  157.9828 H   0  0  0  0  0  0  0  0  0  0  0  0
  151.0436  144.0432  159.1716 H   0  0  0  0  0  0  0  0  0  0  0  0
  150.9907  144.4569  156.5765 H   0  0  0  0  0  0  0  0  0  0  0  0
  153.4883  142.4953  158.6463 H   0  0  0  0  0  0  0  0  0  0  0  0
  152.7148  143.5595  160.6668 H   0  0  0  0  0  0  0  0  0  0  0  0
  151.8032  142.1173  161.1380 H   0  0  0  0  0  0  0  0  0  0  0  0
  154.8308  142.3954  160.9269 H   0  0  0  0  0  0  0  0  0  0  0  0
  153.9042  141.8277  162.3224 H   0  0  0  0  0  0  0  0  0  0  0  0
  152.4567  139.7927  159.5595 H   0  0  0  0  0  0  0  0  0  0  0  0
  153.9261  140.1681  158.6577 H   0  0  0  0  0  0  0  0  0  0  0  0
  147.5179  136.4346  155.5980 H   0  0  0  0  0  0  0  0  0  0  0  0
  148.3248  136.5696  154.0548 H   0  0  0  0  0  0  0  0  0  0  0  0
  146.1045  135.9277  153.6091 H   0  0  0  0  0  0  0  0  0  0  0  0
  145.4655  135.0287  155.8304 H   0  0  0  0  0  0  0  0  0  0  0  0
  146.3382  133.5398  155.5156 H   0  0  0  0  0  0  0  0  0  0  0  0
  144.9346  133.9656  154.5449 H   0  0  0  0  0  0  0  0  0  0  0  0
  147.7123  134.9531  152.3189 H   0  0  0  0  0  0  0  0  0  0  0  0
  1  2  1  0  0  0  0
  1 30  1  0  0  0  0
  1 31  1  0  0  0  0
  1 32  1  0  0  0  0
  2  3  1  0  0  0  0
  2 33  1  0  0  0  0
  2 34  1  0  0  0  0
  3 28  1  0  0  0  0
  3  4  1  0  0  0  0
  3 64  1  0  0  0  0
  4  5  1  0  0  0  0
  4 35  1  0  0  0  0
  4 36  1  0  0  0  0
  5  6  1  0  0  0  0
  5 37  1  0  0  0  0
  5 38  1  0  0  0  0
  6  7  1  0  0  0  0
  6 27  1  0  0  0  0
  6 39  1  0  0  0  0
  7  8  1  0  0  0  0
  7  9  1  0  0  0  0
  8 40  1  0  0  0  0
  8 41  1  0  0  0  0
  8 42  1  0  0  0  0
  9 14  1  0  0  0  0
  9 10  2  0  0  0  0
 10 11  1  0  0  0  0
 11 12  2  0  0  0  0
 11 43  1  0  0  0  0
 12 13  1  0  0  0  0
 13 17  1  0  0  0  0
 13 14  2  0  0  0  0
 14 15  1  0  0  0  0
 15 16  2  0  0  0  0
 16 17  1  0  0  0  0
 16 44  1  0  0  0  0
 17 18  1  0  0  0  0
 18 19  1  0  0  0  0
 18 45  1  0  0  0  0
 18 46  1  0  0  0  0
 19 20  1  0  0  0  0
 19 22  1  0  0  0  0
 19 47  1  0  0  0  0
 20 21  1  0  0  0  0
 20 48  1  0  0  0  0
 20 49  1  0  0  0  0
 21 50  1  0  0  0  0
 22 26  1  0  0  0  0
 22 23  1  0  0  0  0
 22 51  1  0  0  0  0
 23 24  1  0  0  0  0
 23 52  1  0  0  0  0
 23 53  1  0  0  0  0
 24 25  1  0  0  0  0
 24 54  1  0  0  0  0
 24 55  1  0  0  0  0
 25 26  1  0  0  0  0
 26 56  1  0  0  0  0
 26 57  1  0  0  0  0
 27 28  1  0  0  0  0
 27 58  1  0  0  0  0
 27 59  1  0  0  0  0
 28 29  1  0  0  0  0
 28 60  1  0  0  0  0
 29 61  1  0  0  0  0
 29 62  1  0  0  0  0
 29 63  1  0  0  0  0
M  CHG  1   3   1
M  END
> <s_m_source_file>
AV-unprocessed.smi

> <i_m_source_file_index>
249

> <i_lp_mmshare_version>
43012

> <i_f3d_flags>
0

> <s_epik_input>
W0NIM11bQ0gyXU4xW0NIMl1bQ0gyXVtDQEhdKFtDSDJdW0NASF0xW0NIM10pTihbQ0gzXSljKG5bY0hdbjIpYyhjMjMpbltjSF1uM1tDSDJdW0NASF0oW0NIMl1bT0hdKVtDQEBIXTRbQ0gyXVtDSDJdT1tDSDJdNA==

> <s_epik_cmdline>
J2VwaWtfcHl0aG9uJywgJy1waCcsICc3LjAnLCAnLXRuJywgJzgnLCAnLW1hJywgJzIwMCcsICctbWV0YWxfYmluZGluZycsICctaW1hZScsICc8aW5maWxlLm1hZT4nLCAnLW9tYWUnLCAnPG91dGZpbGUubWFlPic=

> <r_lp_tautomer_probability>
1

> <r_epik_Ionization_Penalty>
0.00294688

> <r_epik_Ionization_Penalty_Charging>
0.00169971

> <r_epik_Ionization_Penalty_Neutral>
0.00124717

> <r_epik_State_Penalty>
-0

> <r_epik_Charging_Adjusted_Penalty>
0.00169971

> <i_epik_Tot_Q>
1

> <i_epik_Tot_abs_Q>
1

> <r_epik_Metal_State_Penalty>
-0

> <b_epik_Metal_Only>
0

> <s_lp_Force_Field>
OPLS_2005

> <r_lp_Energy>
54.0807

> <b_lp_Chiralities_Consistent>
1

> <s_lp_Variant>
AV-unprocessed.smi:249-25

> <Gold.Version>
5.8.1

> <Gold.Id.Protein>
6NUR|6NUR_protein|mol2

> <Gold.PLP.Fitness>
55.5255

> <Gold.PLP.PLP>
-44.2552

> <Gold.PLP.part.hbond>
-3.0000

> <Gold.PLP.part.metal>
0.0000

> <Gold.PLP.part.buried>
-6.7647

> <Gold.PLP.part.nonpolar>
-32.5854

> <Gold.PLP.part.repulsive>
0.3085

> <Gold.PLP.ligand.clash>
0.0000

> <Gold.PLP.ligand.torsion>
1.5163

> <Gold.PLP.Chemscore.Hbond>
4.0000

> <Gold.PLP.Chemscore.CHOScore>
0.4982

> <Gold.PLP.Chemscore.Metal>
0.0000

> <Gold.Chemscore.Hbonds>
donor molecule, donor type, donor heavy atom, donor atom, acceptor molecule, acceptor atom, score
      L1  H     3    64       P1  7948  2.00
      L1  H    21    50       P1  8028  0.39
      P1  H  7989  7998       L1    12  1.00
      L1  C    11    43       P1  7949  0.24
      L1  C    11    43       P1  7957  0.40

> <Gold.PLP.Chemscore.Internal.Correction>
0.8082

> <Gold.Rescore>
     Score         DG    S(hbond)    S(metal)    S(lipo)     H(rot)  DE(clash)    DE(int)     intcor
     17.09     -18.88       2.67        0.00     101.83       2.90       0.34       1.45       ----

> <Gold.Chemscore.Fitness>
17.0863

> <Gold.Chemscore.DG>
-18.8825

> <Gold.Chemscore.ZeroCoef>
-5.4800

> <Gold.Chemscore.Hbond>
2.6688

> <Gold.Chemscore.Metal>
0.0000

> <Gold.Chemscore.Lipo>
101.8310

> <Gold.Chemscore.Internal_Hbond>
0.0000

> <Gold.Chemscore.DEClash>
0.3433

> <Gold.Chemscore.DEInternal>
1.4528

> <Gold.Chemscore.Rot>
2.9006

> <Gold.Chemscore.Internal.Correction>
   9.000000E+99

> <Gold.Chemscore.Hbonds>
donor molecule, donor type, donor heavy atom, donor atom, acceptor molecule, acceptor atom, score
      L1  H     3    64       P1  7948  0.90
      L1  H    21    50       P1  8028  0.39
      P1  H  7989  7998       L1    12  0.74

> <Gold.Chemscore.Hbond.Weighted>
-8.9139

> <Gold.Chemscore.Metal.Weighted>
-0.0000

> <Gold.Chemscore.Lipo.Weighted>
-11.9142

> <Gold.Chemscore.Internal_Hbond.Weighted>
0.0000

> <Gold.Chemscore.DEClash.Weighted>
0.3433

> <Gold.Chemscore.DEInternal.Weighted>
1.4528

> <Gold.Chemscore.Rot.Weighted>
7.4256

> <Gold.Chemscore.Internal.Correction.Weighted>
   9.000000E+99

> <Gold.Protein.RotatedTorsions>
[ 6907 6896 6895 6894 ] final  171.68 input  -60.11 | X-H torsion
[ 7974 7965 7964 7962 ] final    9.09 input  175.53 | X-H torsion
[ 8008 7997 7996 7995 ] final -145.55 input   59.86 | X-H torsion
[ 10167 10162 10161 10158 ] final -139.38 input  -65.29 | X-H torsion
[ 10718 10713 10712 10709 ] final -128.97 input   66.30 | X-H torsion
[ 10763 10752 10751 10750 ] final  154.15 input  -60.55 | X-H torsion
[ 11005 11000 10999 10996 ] final -131.20 input  -57.11 | X-H torsion

> <Gold.Protein.ActiveResidues>
 VAL166  LYS551  ARG553  GLY616  TRP617  ASP618  TYR619  PRO620  LYS621  CYS622 
 ASP623  PHE694  ASN695  SER759  ASP760  ASP761  ALA762  ILE779  LEU786  VAL792 
 PHE793  MET794  SER795  GLU796  ALA797  LYS798  CYS799  TRP800  GLU811  SER814 

> <Gold.Protein.RotatedAtoms>
  151.7964  133.3365  159.3513 H   0  0  0  0  0  0  0  0  0  0  0  0  # atno 6907 bound_to 6896
  150.7374  134.5794  159.5940 H   0  0  0  0  0  0  0  0  0  0  0  0  # atno 6908 bound_to 6896
  152.3174  134.7424  160.0373 H   0  0  0  0  0  0  0  0  0  0  0  0  # atno 6909 bound_to 6896
  146.2408  139.9835  142.8433 H   0  0  0  0  0  0  0  0  0  0  0  0  # atno 7974 bound_to 7965
  155.5449  140.0611  157.2862 H   0  0  0  0  0  0  0  0  0  0  0  0  # atno 8008 bound_to 7997
  154.4439  140.1912  156.0673 H   0  0  0  0  0  0  0  0  0  0  0  0  # atno 8009 bound_to 7997
  156.0558  140.3278  155.7407 H   0  0  0  0  0  0  0  0  0  0  0  0  # atno 8010 bound_to 7997
  139.8385  143.7353  152.2664 H   0  0  0  0  0  0  0  0  0  0  0  0  # atno 10167 bound_to 10162
  156.2002  130.6852  151.0530 H   0  0  0  0  0  0  0  0  0  0  0  0  # atno 10718 bound_to 10713
  154.1476  135.2817  155.3144 H   0  0  0  0  0  0  0  0  0  0  0  0  # atno 10763 bound_to 10752
  154.6241  135.5457  153.7611 H   0  0  0  0  0  0  0  0  0  0  0  0  # atno 10764 bound_to 10752
  153.0231  135.6446  154.1621 H   0  0  0  0  0  0  0  0  0  0  0  0  # atno 10765 bound_to 10752
  140.9279  134.1358  157.4260 H   0  0  0  0  0  0  0  0  0  0  0  0  # atno 11005 bound_to 11000
  145.1570  140.9653  143.4399 LP  0  0  0  0  0  0  0  0  0  0  0  0  # atno 17320 bound_to 7965
  145.0152  139.3474  143.6100 LP  0  0  0  0  0  0  0  0  0  0  0  0  # atno 17321 bound_to 7965
  139.7582  144.7514  151.0403 LP  0  0  0  0  0  0  0  0  0  0  0  0  # atno 17342 bound_to 10162
  140.7800  143.4781  151.0055 LP  0  0  0  0  0  0  0  0  0  0  0  0  # atno 17343 bound_to 10162
  157.6981  131.0786  150.6906 LP  0  0  0  0  0  0  0  0  0  0  0  0  # atno 17370 bound_to 10713
  156.6963  130.4610  149.5585 LP  0  0  0  0  0  0  0  0  0  0  0  0  # atno 17371 bound_to 10713
  139.8789  134.9995  156.5956 LP  0  0  0  0  0  0  0  0  0  0  0  0  # atno 17394 bound_to 11000
  140.7902  133.8589  155.8639 LP  0  0  0  0  0  0  0  0  0  0  0  0  # atno 17395 bound_to 11000

$$$$
