AV-unprocessed.smi:47|AV-procd|sdf|441|dock2
  -GOLD-   2262016313D 1   1.00000     0.00000
 Structure written by MMmdl.
 32 34  0  0  0  0  0  0  0  0  2 V2000
  145.8728  139.9868  153.8922 O   0  0  0  0  0  0  0  0  0  0  0  0
  147.0626  140.6879  153.5996 C   0  0  1  0  0  0  0  0  0  0  0  0
  147.0019  142.1481  154.0630 C   0  0  0  0  0  0  0  0  0  0  0  0
  148.3885  142.5314  154.3981 N   0  3  0  0  0  0  0  0  0  0  0  0
  149.2274  141.3148  154.3575 C   0  0  1  0  0  0  0  0  0  0  0  0
  150.1228  141.4053  155.5572 C   0  0  0  0  0  0  0  0  0  0  0  0
  150.9802  140.4658  155.9642 N   0  0  0  0  0  0  0  0  0  0  0  0
  151.5887  140.9898  157.0889 N   0  0  0  0  0  0  0  0  0  0  0  0
  151.0590  142.2070  157.2774 C   0  0  0  0  0  0  0  0  0  0  0  0
  151.4354  143.1077  158.3694 C   0  0  0  0  0  0  0  0  0  0  0  0
  152.2094  142.6343  159.4545 C   0  0  0  0  0  0  0  0  0  0  0  0
  152.5686  143.4989  160.5068 C   0  0  0  0  0  0  0  0  0  0  0  0
  152.1567  144.8444  160.4866 C   0  0  0  0  0  0  0  0  0  0  0  0
  151.3849  145.3248  159.4124 C   0  0  0  0  0  0  0  0  0  0  0  0
  151.0258  144.4615  158.3591 C   0  0  0  0  0  0  0  0  0  0  0  0
  150.1406  142.4946  156.3374 N   0  0  0  0  0  0  0  0  0  0  0  0
  148.2609  140.1284  154.3601 C   0  0  0  0  0  0  0  0  0  0  0  0
  147.2561  140.6474  152.5267 H   0  0  0  0  0  0  0  0  0  0  0  0
  149.8156  141.3273  153.4386 H   0  0  0  0  0  0  0  0  0  0  0  0
  149.5976  143.3406  156.2422 H   0  0  0  0  0  0  0  0  0  0  0  0
  145.1464  140.4363  153.4870 H   0  0  0  0  0  0  0  0  0  0  0  0
  146.5725  142.8074  153.3086 H   0  0  0  0  0  0  0  0  0  0  0  0
  146.4036  142.2411  154.9708 H   0  0  0  0  0  0  0  0  0  0  0  0
  148.7407  143.2132  153.7417 H   0  0  0  0  0  0  0  0  0  0  0  0
  152.5372  141.6060  159.4915 H   0  0  0  0  0  0  0  0  0  0  0  0
  153.1613  143.1293  161.3307 H   0  0  0  0  0  0  0  0  0  0  0  0
  152.4321  145.5069  161.2941 H   0  0  0  0  0  0  0  0  0  0  0  0
  151.0669  146.3569  159.3961 H   0  0  0  0  0  0  0  0  0  0  0  0
  150.4313  144.8510  157.5457 H   0  0  0  0  0  0  0  0  0  0  0  0
  147.9628  139.8896  155.3831 H   0  0  0  0  0  0  0  0  0  0  0  0
  148.6840  139.2275  153.9145 H   0  0  0  0  0  0  0  0  0  0  0  0
  148.4043  142.9167  155.3322 H   0  0  0  0  0  0  0  0  0  0  0  0
  1  2  1  0  0  0  0
  1 21  1  0  0  0  0
  2 18  1  0  0  0  0
  2 17  1  0  0  0  0
  2  3  1  0  0  0  0
  3  4  1  0  0  0  0
  3 22  1  0  0  0  0
  3 23  1  0  0  0  0
  4  5  1  0  0  0  0
  4 24  1  0  0  0  0
  4 32  1  0  0  0  0
  5 19  1  0  0  0  0
  5 17  1  0  0  0  0
  5  6  1  0  0  0  0
  6  7  2  0  0  0  0
  6 16  1  0  0  0  0
  7  8  1  0  0  0  0
  8  9  2  0  0  0  0
  9 16  1  0  0  0  0
  9 10  1  0  0  0  0
 10 15  1  0  0  0  0
 10 11  2  0  0  0  0
 11 12  1  0  0  0  0
 11 25  1  0  0  0  0
 12 13  2  0  0  0  0
 12 26  1  0  0  0  0
 13 14  1  0  0  0  0
 13 27  1  0  0  0  0
 14 15  2  0  0  0  0
 14 28  1  0  0  0  0
 15 29  1  0  0  0  0
 16 20  1  0  0  0  0
 17 30  1  0  0  0  0
 17 31  1  0  0  0  0
M  CHG  1   4   1
M  END
> <s_m_source_file>
AV-unprocessed.smi

> <i_m_source_file_index>
47

> <i_lp_mmshare_version>
43012

> <i_f3d_flags>
0

> <s_epik_input>
W09IXVtDQEhdMVtDSDJdW05IXVtDQEBIXShbQ0gyXTEpYzJuW25IXWMobjIpLWMzW2NIXVtjSF1bY0hdW2NIXVtjSF0z

> <s_epik_cmdline>
J2VwaWtfcHl0aG9uJywgJy1waCcsICc3LjAnLCAnLXRuJywgJzgnLCAnLW1hJywgJzIwMCcsICctbWV0YWxfYmluZGluZycsICctaW1hZScsICc8aW5maWxlLm1hZT4nLCAnLW9tYWUnLCAnPG91dGZpbGUubWFlPic=

> <r_lp_tautomer_probability>
0.0517155

> <r_epik_Ionization_Penalty>
2.45729

> <r_epik_Ionization_Penalty_Charging>
0.0688988

> <r_epik_Ionization_Penalty_Neutral>
2.3884

> <r_epik_State_Penalty>
2.69236

> <r_epik_Charging_Adjusted_Penalty>
2.76126

> <i_epik_Tot_Q>
1

> <i_epik_Tot_abs_Q>
1

> <r_epik_Metal_State_Penalty>
3.18974

> <b_epik_Metal_Only>
0

> <s_lp_Force_Field>
OPLS_2005

> <r_lp_Energy>
28.8935

> <b_lp_Chiralities_Consistent>
1

> <s_lp_Variant>
AV-unprocessed.smi:47-19

> <Gold.Version>
5.8.1

> <Gold.Id.Protein>
6NUR|6NUR_protein|mol2

> <Gold.PLP.Fitness>
49.3429

> <Gold.PLP.PLP>
-40.9451

> <Gold.PLP.part.hbond>
-3.0000

> <Gold.PLP.part.metal>
0.0000

> <Gold.PLP.part.buried>
-6.3679

> <Gold.PLP.part.nonpolar>
-32.7190

> <Gold.PLP.part.repulsive>
1.5688

> <Gold.PLP.ligand.clash>
0.0000

> <Gold.PLP.ligand.torsion>
0.1032

> <Gold.PLP.Chemscore.Hbond>
2.8640

> <Gold.PLP.Chemscore.CHOScore>
0.0000

> <Gold.PLP.Chemscore.Metal>
0.0000

> <Gold.Chemscore.Hbonds>
donor molecule, donor type, donor heavy atom, donor atom, acceptor molecule, acceptor atom, score
      L1  H     1    21       P1 10175  1.00
      L1  H     4    32       P1  8028  0.83
      L1  H    16    20       P1  8028  1.00

> <Gold.PLP.Chemscore.Internal.Correction>
0.0122

> <Gold.Rescore>
     Score         DG    S(hbond)    S(metal)    S(lipo)     H(rot)  DE(clash)    DE(int)     intcor
     20.52     -21.07       2.37        0.00      98.26       1.50       0.45       0.10       ----

> <Gold.Chemscore.Fitness>
20.5190

> <Gold.Chemscore.DG>
-21.0732

> <Gold.Chemscore.ZeroCoef>
-5.4800

> <Gold.Chemscore.Hbond>
2.3735

> <Gold.Chemscore.Metal>
0.0000

> <Gold.Chemscore.Lipo>
98.2635

> <Gold.Chemscore.Internal_Hbond>
0.0000

> <Gold.Chemscore.DEClash>
0.4498

> <Gold.Chemscore.DEInternal>
0.1045

> <Gold.Chemscore.Rot>
1.4966

> <Gold.Chemscore.Internal.Correction>
   9.000000E+99

> <Gold.Chemscore.Hbonds>
donor molecule, donor type, donor heavy atom, donor atom, acceptor molecule, acceptor atom, score
      L1  H     1    21       P1 10175  0.96
      L1  H     4    32       P1  8028  0.42
      L1  H    16    20       P1  8028  1.00

> <Gold.Chemscore.Hbond.Weighted>
-7.9276

> <Gold.Chemscore.Metal.Weighted>
-0.0000

> <Gold.Chemscore.Lipo.Weighted>
-11.4968

> <Gold.Chemscore.Internal_Hbond.Weighted>
0.0000

> <Gold.Chemscore.DEClash.Weighted>
0.4498

> <Gold.Chemscore.DEInternal.Weighted>
0.1045

> <Gold.Chemscore.Rot.Weighted>
3.8312

> <Gold.Chemscore.Internal.Correction.Weighted>
   9.000000E+99

> <Gold.Protein.RotatedTorsions>
[ 6907 6896 6895 6894 ] final   40.16 input  -60.11 | X-H torsion
[ 7974 7965 7964 7962 ] final   -4.13 input  175.53 | X-H torsion
[ 8008 7997 7996 7995 ] final  172.22 input   59.86 | X-H torsion
[ 10167 10162 10161 10158 ] final -144.85 input  -65.29 | X-H torsion
[ 10718 10713 10712 10709 ] final  -30.23 input   66.30 | X-H torsion
[ 10763 10752 10751 10750 ] final  164.04 input  -60.55 | X-H torsion
[ 11005 11000 10999 10996 ] final  153.04 input  -57.11 | X-H torsion

> <Gold.Protein.ActiveResidues>
 VAL166  LYS551  ARG553  GLY616  TRP617  ASP618  TYR619  PRO620  LYS621  CYS622 
 ASP623  PHE694  ASN695  SER759  ASP760  ASP761  ALA762  ILE779  LEU786  VAL792 
 PHE793  MET794  SER795  GLU796  ALA797  LYS798  CYS799  TRP800  GLU811  SER814 

> <Gold.Protein.RotatedAtoms>
  152.1789  134.8771  160.0527 H   0  0  0  0  0  0  0  0  0  0  0  0  # atno 6907 bound_to 6896
  151.9703  133.3718  159.4076 H   0  0  0  0  0  0  0  0  0  0  0  0  # atno 6908 bound_to 6896
  150.6914  134.4070  159.5189 H   0  0  0  0  0  0  0  0  0  0  0  0  # atno 6909 bound_to 6896
  146.2378  140.1826  142.8332 H   0  0  0  0  0  0  0  0  0  0  0  0  # atno 7974 bound_to 7965
  156.1195  140.1491  156.9224 H   0  0  0  0  0  0  0  0  0  0  0  0  # atno 8008 bound_to 7997
  154.4825  140.0875  156.7453 H   0  0  0  0  0  0  0  0  0  0  0  0  # atno 8009 bound_to 7997
  155.4453  140.3432  155.4297 H   0  0  0  0  0  0  0  0  0  0  0  0  # atno 8010 bound_to 7997
  139.7860  143.8033  152.2644 H   0  0  0  0  0  0  0  0  0  0  0  0  # atno 10167 bound_to 10162
  156.4024  130.4393  149.7312 H   0  0  0  0  0  0  0  0  0  0  0  0  # atno 10718 bound_to 10713
  154.3029  135.2758  155.2602 H   0  0  0  0  0  0  0  0  0  0  0  0  # atno 10763 bound_to 10752
  154.5031  135.5803  153.6550 H   0  0  0  0  0  0  0  0  0  0  0  0  # atno 10764 bound_to 10752
  152.9898  135.6163  154.3201 H   0  0  0  0  0  0  0  0  0  0  0  0  # atno 10765 bound_to 10752
  140.1362  134.8769  157.2270 H   0  0  0  0  0  0  0  0  0  0  0  0  # atno 11005 bound_to 11000
  144.9922  140.8557  143.5332 LP  0  0  0  0  0  0  0  0  0  0  0  0  # atno 17320 bound_to 7965
  145.1833  139.2340  143.5281 LP  0  0  0  0  0  0  0  0  0  0  0  0  # atno 17321 bound_to 7965
  139.8110  144.7336  150.9697 LP  0  0  0  0  0  0  0  0  0  0  0  0  # atno 17342 bound_to 10162
  140.7819  143.4251  151.0781 LP  0  0  0  0  0  0  0  0  0  0  0  0  # atno 17343 bound_to 10162
  156.4323  130.7821  151.2841 LP  0  0  0  0  0  0  0  0  0  0  0  0  # atno 17370 bound_to 10713
  157.7504  131.0150  150.3487 LP  0  0  0  0  0  0  0  0  0  0  0  0  # atno 17371 bound_to 10713
  140.2779  134.3384  155.7352 LP  0  0  0  0  0  0  0  0  0  0  0  0  # atno 17394 bound_to 11000
  141.2178  133.7461  156.9320 LP  0  0  0  0  0  0  0  0  0  0  0  0  # atno 17395 bound_to 11000

$$$$
