AV-unprocessed.smi:3163|AV-procd|sdf|12074|dock2
  -GOLD-   2272017503D 1   1.00000     0.00000
 Structure written by MMmdl.
 36 37  0  0  0  0  0  0  0  0  2 V2000
  150.1785  140.4230  155.0581 C   0  0  0  0  0  0  0  0  0  0  0  0
  149.1832  140.4264  153.9658 N   0  3  2  0  0  0  0  0  0  0  0  0
  148.1544  141.4878  154.0729 C   0  0  0  0  0  0  0  0  0  0  0  0
  146.7988  140.8153  153.8232 C   0  0  0  0  0  0  0  0  0  0  0  0
  147.1516  139.5017  153.1244 C   0  0  2  0  0  0  0  0  0  0  0  0
  146.0795  138.4005  153.2365 C   0  0  0  0  0  0  0  0  0  0  0  0
  146.4736  137.1779  152.5441 N   0  0  0  0  0  0  0  0  0  0  0  0
  145.6245  136.2758  152.0309 C   0  0  0  0  0  0  0  0  0  0  0  0
  144.4010  136.3941  152.0891 O   0  0  0  0  0  0  0  0  0  0  0  0
  146.2894  135.2587  151.4550 N   0  0  0  0  0  0  0  0  0  0  0  0
  145.7813  134.0971  150.8095 C   0  0  0  0  0  0  0  0  0  0  0  0
  144.4304  134.1200  150.4044 C   0  0  0  0  0  0  0  0  0  0  0  0
  143.8952  132.9918  149.7514 C   0  0  0  0  0  0  0  0  0  0  0  0
  144.6121  131.8802  149.4849 N   0  0  0  0  0  0  0  0  0  0  0  0
  145.9071  131.8620  149.8644 C   0  0  0  0  0  0  0  0  0  0  0  0
  146.5401  132.9361  150.5220 C   0  0  0  0  0  0  0  0  0  0  0  0
  148.4845  139.1385  153.7776 C   0  0  0  0  0  0  0  0  0  0  0  0
  149.7024  140.2439  156.0230 H   0  0  0  0  0  0  0  0  0  0  0  0
  150.6973  141.3811  155.1039 H   0  0  0  0  0  0  0  0  0  0  0  0
  150.9230  139.6436  154.8926 H   0  0  0  0  0  0  0  0  0  0  0  0
  148.1682  141.9850  155.0441 H   0  0  0  0  0  0  0  0  0  0  0  0
  148.3577  142.2434  153.3132 H   0  0  0  0  0  0  0  0  0  0  0  0
  146.3126  140.6109  154.7783 H   0  0  0  0  0  0  0  0  0  0  0  0
  146.1242  141.4378  153.2345 H   0  0  0  0  0  0  0  0  0  0  0  0
  147.3414  139.7145  152.0707 H   0  0  0  0  0  0  0  0  0  0  0  0
  145.8709  138.1809  154.2848 H   0  0  0  0  0  0  0  0  0  0  0  0
  145.1405  138.7446  152.8021 H   0  0  0  0  0  0  0  0  0  0  0  0
  147.4642  137.0082  152.4470 H   0  0  0  0  0  0  0  0  0  0  0  0
  147.2954  135.3408  151.4507 H   0  0  0  0  0  0  0  0  0  0  0  0
  143.8091  134.9840  150.5905 H   0  0  0  0  0  0  0  0  0  0  0  0
  142.8633  132.9837  149.4331 H   0  0  0  0  0  0  0  0  0  0  0  0
  146.4595  130.9635  149.6327 H   0  0  0  0  0  0  0  0  0  0  0  0
  147.5834  132.8440  150.7780 H   0  0  0  0  0  0  0  0  0  0  0  0
  149.0742  138.4490  153.1728 H   0  0  0  0  0  0  0  0  0  0  0  0
  148.3083  138.6697  154.7475 H   0  0  0  0  0  0  0  0  0  0  0  0
  149.6814  140.6068  153.1057 H   0  0  0  0  0  0  0  0  0  0  0  0
  1  2  1  0  0  0  0
  1 18  1  0  0  0  0
  1 19  1  0  0  0  0
  1 20  1  0  0  0  0
  2 17  1  0  0  0  0
  2  3  1  0  0  0  0
  2 36  1  0  0  0  0
  3  4  1  0  0  0  0
  3 21  1  0  0  0  0
  3 22  1  0  0  0  0
  4  5  1  0  0  0  0
  4 23  1  0  0  0  0
  4 24  1  0  0  0  0
  5  6  1  0  0  0  0
  5 17  1  0  0  0  0
  5 25  1  0  0  0  0
  6  7  1  0  0  0  0
  6 26  1  0  0  0  0
  6 27  1  0  0  0  0
  7  8  1  0  0  0  0
  7 28  1  0  0  0  0
  8  9  2  0  0  0  0
  8 10  1  0  0  0  0
 10 11  1  0  0  0  0
 10 29  1  0  0  0  0
 11 16  1  0  0  0  0
 11 12  2  0  0  0  0
 12 13  1  0  0  0  0
 12 30  1  0  0  0  0
 13 14  2  0  0  0  0
 13 31  1  0  0  0  0
 14 15  1  0  0  0  0
 15 16  2  0  0  0  0
 15 32  1  0  0  0  0
 16 33  1  0  0  0  0
 17 34  1  0  0  0  0
 17 35  1  0  0  0  0
M  CHG  1   2   1
M  END
> <s_m_source_file>
AV-unprocessed.smi

> <i_m_source_file_index>
3163

> <i_lp_mmshare_version>
43012

> <i_f3d_flags>
0

> <s_epik_input>
W0NIM11OMVtDSDJdW0NIMl1bQ0BIXShbQ0gyXTEpW0NIMl1bTkhdQyg9TylbTkhdYzJbY0hdW2NIXW5bY0hdW2NIXTI=

> <s_epik_cmdline>
J2VwaWtfcHl0aG9uJywgJy1waCcsICc3LjAnLCAnLXRuJywgJzgnLCAnLW1hJywgJzIwMCcsICctbWV0YWxfYmluZGluZycsICctaW1hZScsICc8aW5maWxlLm1hZT4nLCAnLW9tYWUnLCAnPG91dGZpbGUubWFlPic=

> <r_epik_Ionization_Penalty>
0.103936

> <r_epik_Ionization_Penalty_Charging>
0.0012301

> <r_epik_Ionization_Penalty_Neutral>
0.102706

> <r_epik_State_Penalty>
0.0926275

> <r_epik_Charging_Adjusted_Penalty>
0.0938576

> <i_epik_Tot_Q>
1

> <i_epik_Tot_abs_Q>
1

> <r_epik_Metal_State_Penalty>
0.0788376

> <b_epik_Metal_Only>
0

> <s_lp_Force_Field>
OPLS_2005

> <r_lp_Energy>
32.247

> <b_lp_Chiralities_Consistent>
1

> <s_lp_Variant>
AV-unprocessed.smi:3163-4

> <Gold.Version>
5.8.1

> <Gold.Id.Protein>
6NUR|6NUR_protein|mol2

> <Gold.PLP.Fitness>
45.2640

> <Gold.PLP.PLP>
-32.0262

> <Gold.PLP.part.hbond>
-4.0000

> <Gold.PLP.part.metal>
0.0000

> <Gold.PLP.part.buried>
-0.4540

> <Gold.PLP.part.nonpolar>
-28.4733

> <Gold.PLP.part.repulsive>
0.6265

> <Gold.PLP.ligand.clash>
0.0000

> <Gold.PLP.ligand.torsion>
0.2464

> <Gold.PLP.Chemscore.Hbond>
2.8820

> <Gold.PLP.Chemscore.CHOScore>
1.6938

> <Gold.PLP.Chemscore.Metal>
0.0000

> <Gold.Chemscore.Hbonds>
donor molecule, donor type, donor heavy atom, donor atom, acceptor molecule, acceptor atom, score
      L1  H     2    36       P1  7957  0.78
      L1  H     7    28       P1  7948  1.00
      L1  H    10    29       P1  7948  1.00
      P1  H 10785 10796       L1    14  0.10
      L1  C    13    31       P1 10186  1.00
      L1  C    15    32       P1 10747  0.69

> <Gold.PLP.Chemscore.Internal.Correction>
0.0032

> <Gold.Rescore>
     Score         DG    S(hbond)    S(metal)    S(lipo)     H(rot)  DE(clash)    DE(int)     intcor
     19.85     -21.86       2.93        0.00      83.92       1.26       0.41       1.60       ----

> <Gold.Chemscore.Fitness>
19.8470

> <Gold.Chemscore.DG>
-21.8557

> <Gold.Chemscore.ZeroCoef>
-5.4800

> <Gold.Chemscore.Hbond>
2.9257

> <Gold.Chemscore.Metal>
0.0000

> <Gold.Chemscore.Lipo>
83.9221

> <Gold.Chemscore.Internal_Hbond>
0.0000

> <Gold.Chemscore.DEClash>
0.4102

> <Gold.Chemscore.DEInternal>
1.5986

> <Gold.Chemscore.Rot>
1.2559

> <Gold.Chemscore.Internal.Correction>
   9.000000E+99

> <Gold.Chemscore.Hbonds>
donor molecule, donor type, donor heavy atom, donor atom, acceptor molecule, acceptor atom, score
      L1  H     2    36       P1  7957  0.73
      L1  H     7    28       P1  7948  0.99
      L1  H    10    29       P1  7948  0.89
      P1  H 10785 10796       L1    14  0.08

> <Gold.Chemscore.Hbond.Weighted>
-9.7719

> <Gold.Chemscore.Metal.Weighted>
-0.0000

> <Gold.Chemscore.Lipo.Weighted>
-9.8189

> <Gold.Chemscore.Internal_Hbond.Weighted>
0.0000

> <Gold.Chemscore.DEClash.Weighted>
0.4102

> <Gold.Chemscore.DEInternal.Weighted>
1.5986

> <Gold.Chemscore.Rot.Weighted>
3.2151

> <Gold.Chemscore.Internal.Correction.Weighted>
   9.000000E+99

> <Gold.Protein.RotatedTorsions>
[ 6907 6896 6895 6894 ] final   20.59 input  -60.11 | X-H torsion
[ 7974 7965 7964 7962 ] final   37.95 input  175.53 | X-H torsion
[ 8008 7997 7996 7995 ] final  -65.37 input   59.86 | X-H torsion
[ 10167 10162 10161 10158 ] final  -73.84 input  -65.29 | X-H torsion
[ 10718 10713 10712 10709 ] final  -40.34 input   66.30 | X-H torsion
[ 10763 10752 10751 10750 ] final  -83.57 input  -60.55 | X-H torsion
[ 11005 11000 10999 10996 ] final  173.04 input  -57.11 | X-H torsion

> <Gold.Protein.ActiveResidues>
 VAL166  LYS551  ARG553  GLY616  TRP617  ASP618  TYR619  PRO620  LYS621  CYS622 
 ASP623  PHE694  ASN695  SER759  ASP760  ASP761  ALA762  ILE779  LEU786  VAL792 
 PHE793  MET794  SER795  GLU796  ALA797  LYS798  CYS799  TRP800  GLU811  SER814 

> <Gold.Protein.RotatedAtoms>
  151.8987  135.0387  160.0504 H   0  0  0  0  0  0  0  0  0  0  0  0  # atno 6907 bound_to 6896
  152.2376  133.5105  159.5260 H   0  0  0  0  0  0  0  0  0  0  0  0  # atno 6908 bound_to 6896
  150.7044  134.1048  159.4021 H   0  0  0  0  0  0  0  0  0  0  0  0  # atno 6909 bound_to 6896
  146.1099  139.5831  142.9359 H   0  0  0  0  0  0  0  0  0  0  0  0  # atno 7974 bound_to 7965
  154.4667  140.0934  156.7039 H   0  0  0  0  0  0  0  0  0  0  0  0  # atno 8008 bound_to 7997
  155.4837  140.3468  155.4325 H   0  0  0  0  0  0  0  0  0  0  0  0  # atno 8009 bound_to 7997
  156.0969  140.1412  156.9508 H   0  0  0  0  0  0  0  0  0  0  0  0  # atno 8010 bound_to 7997
  140.5077  143.2350  151.7646 H   0  0  0  0  0  0  0  0  0  0  0  0  # atno 10167 bound_to 10162
  156.2824  130.4218  149.8323 H   0  0  0  0  0  0  0  0  0  0  0  0  # atno 10718 bound_to 10713
  154.5893  135.5551  153.7263 H   0  0  0  0  0  0  0  0  0  0  0  0  # atno 10763 bound_to 10752
  153.0111  135.6339  154.1871 H   0  0  0  0  0  0  0  0  0  0  0  0  # atno 10764 bound_to 10752
  154.1812  135.2887  155.3031 H   0  0  0  0  0  0  0  0  0  0  0  0  # atno 10765 bound_to 10752
  140.3362  134.7315  157.4170 H   0  0  0  0  0  0  0  0  0  0  0  0  # atno 11005 bound_to 11000
  145.5685  141.0397  143.2187 LP  0  0  0  0  0  0  0  0  0  0  0  0  # atno 17320 bound_to 7965
  144.7502  139.7213  143.7276 LP  0  0  0  0  0  0  0  0  0  0  0  0  # atno 17321 bound_to 7965
  139.4888  144.4435  151.9737 LP  0  0  0  0  0  0  0  0  0  0  0  0  # atno 17342 bound_to 10162
  140.3526  144.3071  150.5947 LP  0  0  0  0  0  0  0  0  0  0  0  0  # atno 17343 bound_to 10162
  156.5766  130.8447  151.3371 LP  0  0  0  0  0  0  0  0  0  0  0  0  # atno 17370 bound_to 10713
  157.7318  130.9706  150.1899 LP  0  0  0  0  0  0  0  0  0  0  0  0  # atno 17371 bound_to 10713
  140.0819  134.5719  155.8532 LP  0  0  0  0  0  0  0  0  0  0  0  0  # atno 17394 bound_to 11000
  141.2050  133.6644  156.6157 LP  0  0  0  0  0  0  0  0  0  0  0  0  # atno 17395 bound_to 11000

$$$$
