AV-unprocessed.smi:2041|AV-procd|sdf|8292|dock9
  -GOLD-   2272010563D 1   1.00000     0.00000
 Structure written by MMmdl.
 30 31  0  0  0  0  0  0  0  0  2 V2000
  152.0580  140.4755  155.6945 O   0  0  0  0  0  0  0  0  0  0  0  0
  150.9230  140.1737  156.0711 C   0  0  0  0  0  0  0  0  0  0  0  0
  149.9972  139.4903  155.3598 N   0  5  0  0  0  0  0  0  0  0  0  0
  148.9300  140.1305  154.8551 C   0  0  0  0  0  0  0  0  0  0  0  0
  148.7565  141.4531  154.9593 N   0  0  0  0  0  0  0  0  0  0  0  0
  147.5832  141.9085  154.3550 C   0  0  0  0  0  0  0  0  0  0  0  0
  146.8498  140.9103  153.7706 C   0  0  0  0  0  0  0  0  0  0  0  0
  147.6157  139.3591  153.9629 S   0  0  0  0  0  0  0  0  0  0  0  0
  150.5075  140.5286  157.2967 N   0  0  0  0  0  0  0  0  0  0  0  0
  151.2779  141.2788  158.2912 C   0  0  2  0  0  0  0  0  0  0  0  0
  151.5250  142.7023  157.7309 C   0  0  0  0  0  0  0  0  0  0  0  0
  152.6359  143.5293  158.4166 C   0  0  0  0  0  0  0  0  0  0  0  0
  152.6349  143.4800  159.9582 C   0  0  0  0  0  0  0  0  0  0  0  0
  152.8318  142.0868  160.6109 C   0  0  0  0  0  0  0  0  0  0  0  0
  153.2936  141.0402  159.6990 N   0  0  0  0  0  0  0  0  0  0  0  0
  152.6274  140.6003  158.6176 C   0  0  0  0  0  0  0  0  0  0  0  0
  153.0883  139.7140  157.8993 O   0  0  0  0  0  0  0  0  0  0  0  0
  147.3490  142.9621  154.3881 H   0  0  0  0  0  0  0  0  0  0  0  0
  145.9129  140.9910  153.2409 H   0  0  0  0  0  0  0  0  0  0  0  0
  149.5688  140.2645  157.5568 H   0  0  0  0  0  0  0  0  0  0  0  0
  150.6787  141.3500  159.1999 H   0  0  0  0  0  0  0  0  0  0  0  0
  151.7608  142.6460  156.6669 H   0  0  0  0  0  0  0  0  0  0  0  0
  150.5878  143.2564  157.7931 H   0  0  0  0  0  0  0  0  0  0  0  0
  153.6111  143.2069  158.0491 H   0  0  0  0  0  0  0  0  0  0  0  0
  152.5440  144.5670  158.0950 H   0  0  0  0  0  0  0  0  0  0  0  0
  153.4323  144.1357  160.3097 H   0  0  0  0  0  0  0  0  0  0  0  0
  151.7116  143.9221  160.3339 H   0  0  0  0  0  0  0  0  0  0  0  0
  153.5500  142.1659  161.4274 H   0  0  0  0  0  0  0  0  0  0  0  0
  151.9018  141.7586  161.0770 H   0  0  0  0  0  0  0  0  0  0  0  0
  154.1815  140.6084  159.9105 H   0  0  0  0  0  0  0  0  0  0  0  0
  1  2  2  0  0  0  0
  2  3  1  0  0  0  0
  2  9  1  0  0  0  0
  3  4  1  0  0  0  0
  4  8  1  0  0  0  0
  4  5  2  0  0  0  0
  5  6  1  0  0  0  0
  6  7  2  0  0  0  0
  6 18  1  0  0  0  0
  7  8  1  0  0  0  0
  7 19  1  0  0  0  0
  9 10  1  0  0  0  0
  9 20  1  0  0  0  0
 10 16  1  0  0  0  0
 10 11  1  0  0  0  0
 10 21  1  0  0  0  0
 11 12  1  0  0  0  0
 11 22  1  0  0  0  0
 11 23  1  0  0  0  0
 12 13  1  0  0  0  0
 12 24  1  0  0  0  0
 12 25  1  0  0  0  0
 13 14  1  0  0  0  0
 13 26  1  0  0  0  0
 13 27  1  0  0  0  0
 14 15  1  0  0  0  0
 14 28  1  0  0  0  0
 14 29  1  0  0  0  0
 15 16  1  0  0  0  0
 15 30  1  0  0  0  0
 16 17  2  0  0  0  0
M  CHG  1   3  -1
M  END
> <s_m_source_file>
AV-unprocessed.smi

> <i_m_source_file_index>
2041

> <i_lp_mmshare_version>
43012

> <i_f3d_flags>
0

> <s_epik_input>
czFbY0hdW2NIXW5jMVtOSF1DKD1PKVtOSF1bQ0BASF0yW0NIMl1bQ0gyXVtDSDJdW0NIMl1bTkhdQzI9Tw==

> <s_epik_cmdline>
J2VwaWtfcHl0aG9uJywgJy1waCcsICc3LjAnLCAnLXRuJywgJzgnLCAnLW1hJywgJzIwMCcsICctbWV0YWxfYmluZGluZycsICctaW1hZScsICc8aW5maWxlLm1hZT4nLCAnLW9tYWUnLCAnPG91dGZpbGUubWFlPic=

> <r_lp_tautomer_probability>
1

> <r_epik_Ionization_Penalty>
7.83857

> <r_epik_Ionization_Penalty_Charging>
6.39911

> <r_epik_Ionization_Penalty_Neutral>
1.43945

> <r_epik_State_Penalty>
6.3991

> <r_epik_Charging_Adjusted_Penalty>
12.7982

> <i_epik_Tot_Q>
-1

> <i_epik_Tot_abs_Q>
1

> <r_epik_Metal_State_Penalty>
2.33024

> <b_epik_Metal_Only>
1

> <s_lp_Force_Field>
OPLS_2005

> <r_lp_Energy>
11.6521

> <b_lp_Chiralities_Consistent>
1

> <s_lp_Variant>
AV-unprocessed.smi:2041-3

> <Gold.Version>
5.8.1

> <Gold.Id.Protein>
6NUR|6NUR_protein|mol2

> <Gold.PLP.Fitness>
39.1253

> <Gold.PLP.PLP>
-31.3966

> <Gold.PLP.part.hbond>
-2.4156

> <Gold.PLP.part.metal>
0.0000

> <Gold.PLP.part.buried>
-2.9588

> <Gold.PLP.part.nonpolar>
-26.0235

> <Gold.PLP.part.repulsive>
0.3126

> <Gold.PLP.ligand.clash>
0.0000

> <Gold.PLP.ligand.torsion>
0.7110

> <Gold.PLP.Chemscore.Hbond>
1.2617

> <Gold.PLP.Chemscore.CHOScore>
1.7873

> <Gold.PLP.Chemscore.Metal>
0.0000

> <Gold.Chemscore.Hbonds>
donor molecule, donor type, donor heavy atom, donor atom, acceptor molecule, acceptor atom, score
      P1  H  7989  7998       L1     1  0.28
      P1  H  7997  8008       L1    17  1.00
      L1  C     6    18       P1  8028  0.70
      L1  C     7    19       P1 10175  1.00

> <Gold.PLP.Chemscore.Internal.Correction>
0.0037

> <Gold.Rescore>
     Score         DG    S(hbond)    S(metal)    S(lipo)     H(rot)  DE(clash)    DE(int)     intcor
     10.19     -15.71       1.43        0.00      68.54       1.00       0.01       5.52       ----

> <Gold.Chemscore.Fitness>
10.1856

> <Gold.Chemscore.DG>
-15.7094

> <Gold.Chemscore.ZeroCoef>
-5.4800

> <Gold.Chemscore.Hbond>
1.4281

> <Gold.Chemscore.Metal>
0.0000

> <Gold.Chemscore.Lipo>
68.5430

> <Gold.Chemscore.Internal_Hbond>
0.0000

> <Gold.Chemscore.DEClash>
0.0052

> <Gold.Chemscore.DEInternal>
5.5185

> <Gold.Chemscore.Rot>
1.0000

> <Gold.Chemscore.Internal.Correction>
   9.000000E+99

> <Gold.Chemscore.Hbonds>
donor molecule, donor type, donor heavy atom, donor atom, acceptor molecule, acceptor atom, score
      P1  H  7989  7998       L1     1  0.09
      P1  H  7997  8008       L1    17  0.95

> <Gold.Chemscore.Hbond.Weighted>
-4.7699

> <Gold.Chemscore.Metal.Weighted>
-0.0000

> <Gold.Chemscore.Lipo.Weighted>
-8.0195

> <Gold.Chemscore.Internal_Hbond.Weighted>
0.0000

> <Gold.Chemscore.DEClash.Weighted>
0.0052

> <Gold.Chemscore.DEInternal.Weighted>
5.5185

> <Gold.Chemscore.Rot.Weighted>
2.5600

> <Gold.Chemscore.Internal.Correction.Weighted>
   9.000000E+99

> <Gold.Protein.RotatedTorsions>
[ 6907 6896 6895 6894 ] final   25.32 input  -60.11 | X-H torsion
[ 7974 7965 7964 7962 ] final  101.80 input  175.53 | X-H torsion
[ 8008 7997 7996 7995 ] final  -65.15 input   59.86 | X-H torsion
[ 10167 10162 10161 10158 ] final  -41.14 input  -65.29 | X-H torsion
[ 10718 10713 10712 10709 ] final  -75.99 input   66.30 | X-H torsion
[ 10763 10752 10751 10750 ] final -101.97 input  -60.55 | X-H torsion
[ 11005 11000 10999 10996 ] final -173.27 input  -57.11 | X-H torsion

> <Gold.Protein.ActiveResidues>
 VAL166  LYS551  ARG553  GLY616  TRP617  ASP618  TYR619  PRO620  LYS621  CYS622 
 ASP623  PHE694  ASN695  SER759  ASP760  ASP761  ALA762  ILE779  LEU786  VAL792 
 PHE793  MET794  SER795  GLU796  ALA797  LYS798  CYS799  TRP800  GLU811  SER814 

> <Gold.Protein.RotatedAtoms>
  151.9707  135.0078  160.0552 H   0  0  0  0  0  0  0  0  0  0  0  0  # atno 6907 bound_to 6896
  152.1785  133.4687  159.4954 H   0  0  0  0  0  0  0  0  0  0  0  0  # atno 6908 bound_to 6896
  150.6913  134.1780  159.4281 H   0  0  0  0  0  0  0  0  0  0  0  0  # atno 6909 bound_to 6896
  145.3675  139.2405  143.3473 H   0  0  0  0  0  0  0  0  0  0  0  0  # atno 7974 bound_to 7965
  154.4654  140.0939  156.7006 H   0  0  0  0  0  0  0  0  0  0  0  0  # atno 8008 bound_to 7997
  155.4874  140.3469  155.4331 H   0  0  0  0  0  0  0  0  0  0  0  0  # atno 8009 bound_to 7997
  156.0946  140.1406  156.9536 H   0  0  0  0  0  0  0  0  0  0  0  0  # atno 8010 bound_to 7997
  140.7012  143.3112  151.3024 H   0  0  0  0  0  0  0  0  0  0  0  0  # atno 10167 bound_to 10162
  156.0189  130.4454  150.3125 H   0  0  0  0  0  0  0  0  0  0  0  0  # atno 10718 bound_to 10713
  154.7699  135.4878  153.9627 H   0  0  0  0  0  0  0  0  0  0  0  0  # atno 10763 bound_to 10752
  153.1354  135.6761  153.9119 H   0  0  0  0  0  0  0  0  0  0  0  0  # atno 10764 bound_to 10752
  153.8809  135.3132  155.3424 H   0  0  0  0  0  0  0  0  0  0  0  0  # atno 10765 bound_to 10752
  140.4876  134.6016  157.4943 H   0  0  0  0  0  0  0  0  0  0  0  0  # atno 11005 bound_to 11000
  146.2900  140.4320  142.8743 LP  0  0  0  0  0  0  0  0  0  0  0  0  # atno 17320 bound_to 7965
  144.8601  140.7127  143.6113 LP  0  0  0  0  0  0  0  0  0  0  0  0  # atno 17321 bound_to 7965
  139.6535  144.0318  152.2643 LP  0  0  0  0  0  0  0  0  0  0  0  0  # atno 17342 bound_to 10162
  139.9862  144.6393  150.7855 LP  0  0  0  0  0  0  0  0  0  0  0  0  # atno 17343 bound_to 10162
  157.1227  131.0251  151.3002 LP  0  0  0  0  0  0  0  0  0  0  0  0  # atno 17370 bound_to 10713
  157.4615  130.7656  149.7240 LP  0  0  0  0  0  0  0  0  0  0  0  0  # atno 17371 bound_to 10713
  139.9789  134.7170  155.9898 LP  0  0  0  0  0  0  0  0  0  0  0  0  # atno 17394 bound_to 11000
  141.1500  133.6550  156.3985 LP  0  0  0  0  0  0  0  0  0  0  0  0  # atno 17395 bound_to 11000

$$$$
