AV-unprocessed.smi:1889|AV-procd|sdf|7661|dock1
  -GOLD-   22720 9393D 1   1.00000     0.00000
 Structure written by MMmdl.
 35 36  0  0  0  0  0  0  0  0  2 V2000
  146.2492  142.7007  154.2953 C   0  0  0  0  0  0  0  0  0  0  0  0
  147.3893  141.9717  155.0148 C   0  0  0  0  0  0  0  0  0  0  0  0
  148.2215  141.0982  154.0653 C   0  0  0  0  0  0  0  0  0  0  0  0
  149.5184  140.6709  154.6673 C   0  0  0  0  0  0  0  0  0  0  0  0
  150.3262  139.7768  154.0909 N   0  0  0  0  0  0  0  0  0  0  0  0
  151.4570  139.5252  154.8542 N   0  0  0  0  0  0  0  0  0  0  0  0
  151.4853  140.2235  155.9982 C   0  0  0  0  0  0  0  0  0  0  0  0
  152.4907  140.1182  156.8827 N   0  5  0  0  0  0  0  0  0  0  0  0
  152.2418  140.2429  158.2064 C   0  0  0  0  0  0  0  0  0  0  0  0
  151.1725  140.0057  158.7730 O   0  0  0  0  0  0  0  0  0  0  0  0
  153.2997  140.6607  158.9166 N   0  0  0  0  0  0  0  0  0  0  0  0
  153.3426  140.8756  160.3607 C   0  0  0  0  0  0  0  0  0  0  0  0
  154.4510  140.0433  161.0328 C   0  0  2  0  0  0  0  0  0  0  0  0
  154.1313  138.5734  161.2276 C   0  0  0  0  0  0  0  0  0  0  0  0
  155.1364  138.1669  162.3014 C   0  0  0  0  0  0  0  0  0  0  0  0
  155.3790  139.3377  163.0771 O   0  0  0  0  0  0  0  0  0  0  0  0
  154.7500  140.4627  162.4711 C   0  0  0  0  0  0  0  0  0  0  0  0
  150.0728  141.2541  156.2276 S   0  0  0  0  0  0  0  0  0  0  0  0
  145.6771  143.3111  154.9942 H   0  0  0  0  0  0  0  0  0  0  0  0
  145.5616  141.9937  153.8304 H   0  0  0  0  0  0  0  0  0  0  0  0
  146.6331  143.3589  153.5154 H   0  0  0  0  0  0  0  0  0  0  0  0
  148.0365  142.7057  155.4963 H   0  0  0  0  0  0  0  0  0  0  0  0
  146.9752  141.3537  155.8122 H   0  0  0  0  0  0  0  0  0  0  0  0
  147.6570  140.2090  153.7813 H   0  0  0  0  0  0  0  0  0  0  0  0
  148.4312  141.6419  153.1437 H   0  0  0  0  0  0  0  0  0  0  0  0
  154.1520  140.8422  158.4066 H   0  0  0  0  0  0  0  0  0  0  0  0
  153.5347  141.9354  160.5282 H   0  0  0  0  0  0  0  0  0  0  0  0
  152.3724  140.6689  160.8158 H   0  0  0  0  0  0  0  0  0  0  0  0
  155.3703  140.1261  160.4500 H   0  0  0  0  0  0  0  0  0  0  0  0
  153.1145  138.4529  161.6044 H   0  0  0  0  0  0  0  0  0  0  0  0
  154.2277  137.9864  160.3137 H   0  0  0  0  0  0  0  0  0  0  0  0
  154.7716  137.3474  162.9210 H   0  0  0  0  0  0  0  0  0  0  0  0
  156.0761  137.8537  161.8447 H   0  0  0  0  0  0  0  0  0  0  0  0
  155.3821  141.3493  162.5259 H   0  0  0  0  0  0  0  0  0  0  0  0
  153.8262  140.6727  163.0121 H   0  0  0  0  0  0  0  0  0  0  0  0
  1  2  1  0  0  0  0
  1 19  1  0  0  0  0
  1 20  1  0  0  0  0
  1 21  1  0  0  0  0
  2  3  1  0  0  0  0
  2 22  1  0  0  0  0
  2 23  1  0  0  0  0
  3  4  1  0  0  0  0
  3 24  1  0  0  0  0
  3 25  1  0  0  0  0
  4 18  1  0  0  0  0
  4  5  2  0  0  0  0
  5  6  1  0  0  0  0
  6  7  2  0  0  0  0
  7  8  1  0  0  0  0
  7 18  1  0  0  0  0
  8  9  1  0  0  0  0
  9 10  2  0  0  0  0
  9 11  1  0  0  0  0
 11 12  1  0  0  0  0
 11 26  1  0  0  0  0
 12 13  1  0  0  0  0
 12 27  1  0  0  0  0
 12 28  1  0  0  0  0
 13 17  1  0  0  0  0
 13 14  1  0  0  0  0
 13 29  1  0  0  0  0
 14 15  1  0  0  0  0
 14 30  1  0  0  0  0
 14 31  1  0  0  0  0
 15 16  1  0  0  0  0
 15 32  1  0  0  0  0
 15 33  1  0  0  0  0
 16 17  1  0  0  0  0
 17 34  1  0  0  0  0
 17 35  1  0  0  0  0
M  CHG  1   8  -1
M  END
> <s_m_source_file>
AV-unprocessed.smi

> <i_m_source_file_index>
1889

> <i_lp_mmshare_version>
43012

> <i_f3d_flags>
0

> <s_epik_input>
W0NIM11bQ0gyXVtDSDJdYzFubmMoczEpW05IXUMoPU8pW05IXVtDSDJdW0NAQEhdMltDSDJdW0NIMl1PW0NIMl0y

> <s_epik_cmdline>
J2VwaWtfcHl0aG9uJywgJy1waCcsICc3LjAnLCAnLXRuJywgJzgnLCAnLW1hJywgJzIwMCcsICctbWV0YWxfYmluZGluZycsICctaW1hZScsICc8aW5maWxlLm1hZT4nLCAnLW9tYWUnLCAnPG91dGZpbGUubWFlPic=

> <r_lp_tautomer_probability>
1

> <r_epik_Ionization_Penalty>
4.29669

> <r_epik_Ionization_Penalty_Charging>
4.28522

> <r_epik_Ionization_Penalty_Neutral>
0.0114689

> <r_epik_State_Penalty>
4.28479

> <r_epik_Charging_Adjusted_Penalty>
8.57002

> <i_epik_Tot_Q>
-1

> <i_epik_Tot_abs_Q>
1

> <r_epik_Metal_State_Penalty>
0.72177

> <b_epik_Metal_Only>
1

> <s_lp_Force_Field>
OPLS_2005

> <r_lp_Energy>
11.5011

> <b_lp_Chiralities_Consistent>
1

> <s_lp_Variant>
AV-unprocessed.smi:1889-3

> <Gold.Version>
5.8.1

> <Gold.Id.Protein>
6NUR|6NUR_protein|mol2

> <Gold.PLP.Fitness>
37.4172

> <Gold.PLP.PLP>
-32.4660

> <Gold.PLP.part.hbond>
-3.0000

> <Gold.PLP.part.metal>
0.0000

> <Gold.PLP.part.buried>
-1.3617

> <Gold.PLP.part.nonpolar>
-27.7387

> <Gold.PLP.part.repulsive>
0.9713

> <Gold.PLP.ligand.clash>
0.0000

> <Gold.PLP.ligand.torsion>
0.5910

> <Gold.PLP.Chemscore.Hbond>
2.0000

> <Gold.PLP.Chemscore.CHOScore>
0.0000

> <Gold.PLP.Chemscore.Metal>
0.0000

> <Gold.Chemscore.Hbonds>
donor molecule, donor type, donor heavy atom, donor atom, acceptor molecule, acceptor atom, score
      P1  H  7997  8008       L1     8  2.00

> <Gold.PLP.Chemscore.Internal.Correction>
0.1331

> <Gold.Rescore>
     Score         DG    S(hbond)    S(metal)    S(lipo)     H(rot)  DE(clash)    DE(int)     intcor
     12.37     -13.10       0.87        0.00      75.21       1.59       0.13       0.60       ----

> <Gold.Chemscore.Fitness>
12.3746

> <Gold.Chemscore.DG>
-13.1028

> <Gold.Chemscore.ZeroCoef>
-5.4800

> <Gold.Chemscore.Hbond>
0.8679

> <Gold.Chemscore.Metal>
0.0000

> <Gold.Chemscore.Lipo>
75.2145

> <Gold.Chemscore.Internal_Hbond>
0.0000

> <Gold.Chemscore.DEClash>
0.1310

> <Gold.Chemscore.DEInternal>
0.5972

> <Gold.Chemscore.Rot>
1.5922

> <Gold.Chemscore.Internal.Correction>
   9.000000E+99

> <Gold.Chemscore.Hbonds>
donor molecule, donor type, donor heavy atom, donor atom, acceptor molecule, acceptor atom, score
      P1  H  7997  8008       L1     8  0.69

> <Gold.Chemscore.Hbond.Weighted>
-2.8988

> <Gold.Chemscore.Metal.Weighted>
-0.0000

> <Gold.Chemscore.Lipo.Weighted>
-8.8001

> <Gold.Chemscore.Internal_Hbond.Weighted>
0.0000

> <Gold.Chemscore.DEClash.Weighted>
0.1310

> <Gold.Chemscore.DEInternal.Weighted>
0.5972

> <Gold.Chemscore.Rot.Weighted>
4.0761

> <Gold.Chemscore.Internal.Correction.Weighted>
   9.000000E+99

> <Gold.Protein.RotatedTorsions>
[ 6907 6896 6895 6894 ] final   25.18 input  -60.11 | X-H torsion
[ 7974 7965 7964 7962 ] final -155.21 input  175.53 | X-H torsion
[ 8008 7997 7996 7995 ] final  -57.98 input   59.86 | X-H torsion
[ 10167 10162 10161 10158 ] final  -68.08 input  -65.29 | X-H torsion
[ 10718 10713 10712 10709 ] final  179.85 input   66.30 | X-H torsion
[ 10763 10752 10751 10750 ] final  144.91 input  -60.55 | X-H torsion
[ 11005 11000 10999 10996 ] final   90.66 input  -57.11 | X-H torsion

> <Gold.Protein.ActiveResidues>
 VAL166  LYS551  ARG553  GLY616  TRP617  ASP618  TYR619  PRO620  LYS621  CYS622 
 ASP623  PHE694  ASN695  SER759  ASP760  ASP761  ALA762  ILE779  LEU786  VAL792 
 PHE793  MET794  SER795  GLU796  ALA797  LYS798  CYS799  TRP800  GLU811  SER814 

> <Gold.Protein.RotatedAtoms>
  151.9687  135.0088  160.0551 H   0  0  0  0  0  0  0  0  0  0  0  0  # atno 6907 bound_to 6896
  152.1803  133.4698  159.4963 H   0  0  0  0  0  0  0  0  0  0  0  0  # atno 6908 bound_to 6896
  150.6916  134.1759  159.4273 H   0  0  0  0  0  0  0  0  0  0  0  0  # atno 6909 bound_to 6896
  144.7651  140.4281  143.5948 H   0  0  0  0  0  0  0  0  0  0  0  0  # atno 7974 bound_to 7965
  154.4290  140.1094  156.5884 H   0  0  0  0  0  0  0  0  0  0  0  0  # atno 8008 bound_to 7997
  155.6038  140.3493  155.4583 H   0  0  0  0  0  0  0  0  0  0  0  0  # atno 8009 bound_to 7997
  156.0152  140.1228  157.0403 H   0  0  0  0  0  0  0  0  0  0  0  0  # atno 8010 bound_to 7997
  140.5534  143.2312  151.6867 H   0  0  0  0  0  0  0  0  0  0  0  0  # atno 10167 bound_to 10162
  156.8696  130.9779  151.3075 H   0  0  0  0  0  0  0  0  0  0  0  0  # atno 10718 bound_to 10713
  153.9967  135.2927  155.3406 H   0  0  0  0  0  0  0  0  0  0  0  0  # atno 10763 bound_to 10752
  154.7183  135.5120  153.8775 H   0  0  0  0  0  0  0  0  0  0  0  0  # atno 10764 bound_to 10752
  153.0784  135.6671  154.0213 H   0  0  0  0  0  0  0  0  0  0  0  0  # atno 10765 bound_to 10752
  139.8852  134.8627  156.3317 H   0  0  0  0  0  0  0  0  0  0  0  0  # atno 11005 bound_to 11000
  145.6495  139.1562  143.2870 LP  0  0  0  0  0  0  0  0  0  0  0  0  # atno 17320 bound_to 7965
  146.1751  140.6585  142.9215 LP  0  0  0  0  0  0  0  0  0  0  0  0  # atno 17321 bound_to 7965
  139.5037  144.3781  152.0404 LP  0  0  0  0  0  0  0  0  0  0  0  0  # atno 17342 bound_to 10162
  140.2900  144.3765  150.6091 LP  0  0  0  0  0  0  0  0  0  0  0  0  # atno 17343 bound_to 10162
  157.6203  130.8650  149.9098 LP  0  0  0  0  0  0  0  0  0  0  0  0  # atno 17370 bound_to 10713
  156.0733  130.3682  150.0729 LP  0  0  0  0  0  0  0  0  0  0  0  0  # atno 17371 bound_to 10713
  140.9718  133.7322  156.0546 LP  0  0  0  0  0  0  0  0  0  0  0  0  # atno 17394 bound_to 11000
  140.7861  134.3671  157.5476 LP  0  0  0  0  0  0  0  0  0  0  0  0  # atno 17395 bound_to 11000

$$$$
