AV-unprocessed.smi:2747|AV-procd|sdf|10579|dock4
  -GOLD-   2272015 33D 1   1.00000     0.00000
 Structure written by MMmdl.
 23 24  0  0  0  0  0  0  0  0  2 V2000
  154.6852  136.5603  161.2276 O   0  5  0  0  0  0  0  0  0  0  0  0
  154.1705  137.1921  162.2562 C   0  0  2  0  0  0  0  0  0  0  0  0
  154.7225  138.6448  162.2399 C   0  0  0  0  0  0  0  0  0  0  0  0
  154.3551  139.4231  161.0590 N   0  0  0  0  0  0  0  0  0  0  0  0
  154.4815  138.8705  159.8157 N   0  0  0  0  0  0  0  0  0  0  0  0
  154.0712  139.7303  158.9313 N   0  0  0  0  0  0  0  0  0  0  0  0
  153.6575  140.8693  159.6015 C   0  0  0  0  0  0  0  0  0  0  0  0
  153.1228  142.0924  159.1387 C   0  0  0  0  0  0  0  0  0  0  0  0
  152.7719  143.1101  160.0532 C   0  0  0  0  0  0  0  0  0  0  0  0
  152.1190  144.5912  159.4481 Cl  0  0  0  0  0  0  0  0  0  0  0  0
  152.9532  142.9150  161.4438 C   0  0  0  0  0  0  0  0  0  0  0  0
  152.5297  144.1495  162.5761 Cl  0  0  0  0  0  0  0  0  0  0  0  0
  153.4841  141.6996  161.9190 C   0  0  0  0  0  0  0  0  0  0  0  0
  153.8269  140.7002  160.9925 C   0  0  0  0  0  0  0  0  0  0  0  0
  154.6070  136.4402  163.5372 C   0  0  0  0  0  0  0  0  0  0  0  0
  153.9964  136.9522  164.6074 F   0  0  0  0  0  0  0  0  0  0  0  0
  154.3328  135.1356  163.4598 F   0  0  0  0  0  0  0  0  0  0  0  0
  155.9216  136.5808  163.7129 F   0  0  0  0  0  0  0  0  0  0  0  0
  153.0876  137.2967  162.3416 H   0  0  0  0  0  0  0  0  0  0  0  0
  154.3686  139.1844  163.1194 H   0  0  0  0  0  0  0  0  0  0  0  0
  155.8111  138.6404  162.3148 H   0  0  0  0  0  0  0  0  0  0  0  0
  152.9802  142.2469  158.0794 H   0  0  0  0  0  0  0  0  0  0  0  0
  153.6321  141.5367  162.9766 H   0  0  0  0  0  0  0  0  0  0  0  0
  1  2  1  0  0  0  0
  2  3  1  0  0  0  0
  2 15  1  0  0  0  0
  2 19  1  0  0  0  0
  3  4  1  0  0  0  0
  3 20  1  0  0  0  0
  3 21  1  0  0  0  0
  4 14  1  0  0  0  0
  4  5  1  0  0  0  0
  5  6  2  0  0  0  0
  6  7  1  0  0  0  0
  7 14  2  0  0  0  0
  7  8  1  0  0  0  0
  8  9  2  0  0  0  0
  8 22  1  0  0  0  0
  9 10  1  0  0  0  0
  9 11  1  0  0  0  0
 11 12  1  0  0  0  0
 11 13  2  0  0  0  0
 13 14  1  0  0  0  0
 13 23  1  0  0  0  0
 15 16  1  0  0  0  0
 15 17  1  0  0  0  0
 15 18  1  0  0  0  0
M  CHG  1   1  -1
M  END
> <s_m_source_file>
AV-unprocessed.smi

> <i_m_source_file_index>
2747

> <i_lp_mmshare_version>
43012

> <i_f3d_flags>
0

> <s_epik_input>
RkMoRikoRilbQ0BIXShbT0hdKVtDSDJdbihubjEpYyhjMTIpW2NIXWMoQ2wpYyhDbClbY0hdMg==

> <s_epik_cmdline>
J2VwaWtfcHl0aG9uJywgJy1waCcsICc3LjAnLCAnLXRuJywgJzgnLCAnLW1hJywgJzIwMCcsICctbWV0YWxfYmluZGluZycsICctaW1hZScsICc8aW5maWxlLm1hZT4nLCAnLW9tYWUnLCAnPG91dGZpbGUubWFlPic=

> <r_lp_tautomer_probability>
1

> <r_epik_Ionization_Penalty>
1.2724

> <r_epik_Ionization_Penalty_Charging>
1.2724

> <r_epik_Ionization_Penalty_Neutral>
1.57383e-10

> <r_epik_State_Penalty>
1.34397

> <r_epik_Charging_Adjusted_Penalty>
2.61637

> <i_epik_Tot_Q>
-1

> <i_epik_Tot_abs_Q>
1

> <r_epik_Metal_State_Penalty>
1.34397

> <b_epik_Metal_Only>
0

> <s_lp_Force_Field>
OPLS_2005

> <r_lp_Energy>
12.5023

> <b_lp_Chiralities_Consistent>
1

> <s_lp_Variant>
AV-unprocessed.smi:2747-3

> <Gold.Version>
5.8.1

> <Gold.Id.Protein>
6NUR|6NUR_protein|mol2

> <Gold.PLP.Fitness>
45.0021

> <Gold.PLP.PLP>
-42.5028

> <Gold.PLP.part.hbond>
-1.0000

> <Gold.PLP.part.metal>
0.0000

> <Gold.PLP.part.buried>
-2.5219

> <Gold.PLP.part.nonpolar>
-38.6768

> <Gold.PLP.part.repulsive>
0.0000

> <Gold.PLP.ligand.clash>
0.0000

> <Gold.PLP.ligand.torsion>
0.2564

> <Gold.PLP.Chemscore.Hbond>
1.0000

> <Gold.PLP.Chemscore.CHOScore>
0.0000

> <Gold.PLP.Chemscore.Metal>
0.0000

> <Gold.Chemscore.Hbonds>
donor molecule, donor type, donor heavy atom, donor atom, acceptor molecule, acceptor atom, score
      P1  H  7997  8009       L1     6  1.00

> <Gold.PLP.Chemscore.Internal.Correction>
0.0121

> <Gold.Rescore>
     Score         DG    S(hbond)    S(metal)    S(lipo)     H(rot)  DE(clash)    DE(int)     intcor
     16.09     -18.20       0.96        0.00     110.91       1.35       0.50       1.61       ----

> <Gold.Chemscore.Fitness>
16.0939

> <Gold.Chemscore.DG>
-18.1999

> <Gold.Chemscore.ZeroCoef>
-5.4800

> <Gold.Chemscore.Hbond>
0.9558

> <Gold.Chemscore.Metal>
0.0000

> <Gold.Chemscore.Lipo>
110.9147

> <Gold.Chemscore.Internal_Hbond>
0.0000

> <Gold.Chemscore.DEClash>
0.4953

> <Gold.Chemscore.DEInternal>
1.6108

> <Gold.Chemscore.Rot>
1.3474

> <Gold.Chemscore.Internal.Correction>
   9.000000E+99

> <Gold.Chemscore.Hbonds>
donor molecule, donor type, donor heavy atom, donor atom, acceptor molecule, acceptor atom, score
      P1  H  7997  8009       L1     6  0.90

> <Gold.Chemscore.Hbond.Weighted>
-3.1923

> <Gold.Chemscore.Metal.Weighted>
-0.0000

> <Gold.Chemscore.Lipo.Weighted>
-12.9770

> <Gold.Chemscore.Internal_Hbond.Weighted>
0.0000

> <Gold.Chemscore.DEClash.Weighted>
0.4953

> <Gold.Chemscore.DEInternal.Weighted>
1.6108

> <Gold.Chemscore.Rot.Weighted>
3.4494

> <Gold.Chemscore.Internal.Correction.Weighted>
   9.000000E+99

> <Gold.Protein.RotatedTorsions>
[ 6907 6896 6895 6894 ] final   30.26 input  -60.11 | X-H torsion
[ 7974 7965 7964 7962 ] final -157.14 input  175.53 | X-H torsion
[ 8008 7997 7996 7995 ] final  130.29 input   59.86 | X-H torsion
[ 10167 10162 10161 10158 ] final -151.86 input  -65.29 | X-H torsion
[ 10718 10713 10712 10709 ] final  137.87 input   66.30 | X-H torsion
[ 10763 10752 10751 10750 ] final  100.51 input  -60.55 | X-H torsion
[ 11005 11000 10999 10996 ] final -111.29 input  -57.11 | X-H torsion

> <Gold.Protein.ActiveResidues>
 VAL166  LYS551  ARG553  GLY616  TRP617  ASP618  TYR619  PRO620  LYS621  CYS622 
 ASP623  PHE694  ASN695  SER759  ASP760  ASP761  ALA762  ILE779  LEU786  VAL792 
 PHE793  MET794  SER795  GLU796  ALA797  LYS798  CYS799  TRP800  GLU811  SER814 

> <Gold.Protein.RotatedAtoms>
  152.0435  134.9697  160.0573 H   0  0  0  0  0  0  0  0  0  0  0  0  # atno 6907 bound_to 6896
  152.1127  133.4304  159.4646 H   0  0  0  0  0  0  0  0  0  0  0  0  # atno 6908 bound_to 6896
  150.6844  134.2548  159.4569 H   0  0  0  0  0  0  0  0  0  0  0  0  # atno 6909 bound_to 6896
  144.7561  140.4011  143.6011 H   0  0  0  0  0  0  0  0  0  0  0  0  # atno 7974 bound_to 7965
  156.2952  140.2599  156.2739 H   0  0  0  0  0  0  0  0  0  0  0  0  # atno 8008 bound_to 7997
  154.9668  140.0391  157.2234 H   0  0  0  0  0  0  0  0  0  0  0  0  # atno 8009 bound_to 7997
  154.7895  140.2809  155.6007 H   0  0  0  0  0  0  0  0  0  0  0  0  # atno 8010 bound_to 7997
  139.7231  143.8926  152.2510 H   0  0  0  0  0  0  0  0  0  0  0  0  # atno 10167 bound_to 10162
  157.4314  131.1049  151.0245 H   0  0  0  0  0  0  0  0  0  0  0  0  # atno 10718 bound_to 10713
  153.3149  135.4076  155.1368 H   0  0  0  0  0  0  0  0  0  0  0  0  # atno 10763 bound_to 10752
  154.8585  135.3573  154.5674 H   0  0  0  0  0  0  0  0  0  0  0  0  # atno 10764 bound_to 10752
  153.6104  135.7068  153.5408 H   0  0  0  0  0  0  0  0  0  0  0  0  # atno 10765 bound_to 10752
  141.0743  133.9328  157.2422 H   0  0  0  0  0  0  0  0  0  0  0  0  # atno 11005 bound_to 11000
  145.6774  139.1611  143.2720 LP  0  0  0  0  0  0  0  0  0  0  0  0  # atno 17320 bound_to 7965
  146.1573  140.6839  142.9294 LP  0  0  0  0  0  0  0  0  0  0  0  0  # atno 17321 bound_to 7965
  139.8828  144.7008  150.8859 LP  0  0  0  0  0  0  0  0  0  0  0  0  # atno 17342 bound_to 10162
  140.7757  143.3648  151.1760 LP  0  0  0  0  0  0  0  0  0  0  0  0  # atno 17343 bound_to 10162
  157.1140  130.6034  149.5489 LP  0  0  0  0  0  0  0  0  0  0  0  0  # atno 17370 bound_to 10713
  155.9915  130.4969  150.7300 LP  0  0  0  0  0  0  0  0  0  0  0  0  # atno 17371 bound_to 10713
  139.9555  135.0166  156.9116 LP  0  0  0  0  0  0  0  0  0  0  0  0  # atno 17394 bound_to 11000
  140.5607  134.0537  155.7398 LP  0  0  0  0  0  0  0  0  0  0  0  0  # atno 17395 bound_to 11000

$$$$
