AV-unprocessed.smi:3263|AV-procd|sdf|12486|dock2
  -GOLD-   2272018383D 1   1.00000     0.00000
 Structure written by MMmdl.
 41 43  0  0  0  0  0  0  0  0  1 V2000
  153.4287  139.2039  157.8434 O   0  0  0  0  0  0  0  0  0  0  0  0
  152.3526  139.7850  157.7048 C   0  0  0  0  0  0  0  0  0  0  0  0
  151.7851  140.6358  158.8442 C   0  0  0  0  0  0  0  0  0  0  0  0
  150.9983  141.8667  158.3401 C   0  0  2  0  0  0  0  0  0  0  0  0
  151.7168  142.6614  157.2284 C   0  0  0  0  0  0  0  0  0  0  0  0
  151.6515  144.1120  157.7434 C   0  0  2  0  0  0  0  0  0  0  0  0
  152.6453  144.2806  158.9074 C   0  0  0  0  0  0  0  0  0  0  0  0
  151.9608  143.5090  160.0503 C   0  0  0  0  0  0  0  0  0  0  0  0
  150.6796  142.9709  159.3805 C   0  0  1  0  0  0  0  0  0  0  0  0
  150.3109  144.1367  158.4690 C   0  0  0  0  0  0  0  0  0  0  0  0
  151.6253  139.7330  156.5787 N   0  0  0  0  0  0  0  0  0  0  0  0
  152.0212  139.0400  155.3588 C   0  0  0  0  0  0  0  0  0  0  0  0
  150.7983  138.4918  154.6037 C   0  0  0  0  0  0  0  0  0  0  0  0
  149.7866  139.5752  154.2826 C   0  0  0  0  0  0  0  0  0  0  0  0
  148.5595  139.2555  153.6630 C   0  0  0  0  0  0  0  0  0  0  0  0
  147.6577  140.3002  153.3822 C   0  0  0  0  0  0  0  0  0  0  0  0
  148.0157  141.6171  153.7298 C   0  0  0  0  0  0  0  0  0  0  0  0
  149.2651  141.8319  154.3449 C   0  0  0  0  0  0  0  0  0  0  0  0
  150.1369  140.8373  154.6184 N   0  0  0  0  0  0  0  0  0  0  0  0
  151.1608  140.0205  159.4933 H   0  0  0  0  0  0  0  0  0  0  0  0
  152.6187  140.9690  159.4629 H   0  0  0  0  0  0  0  0  0  0  0  0
  150.0492  141.5113  157.9340 H   0  0  0  0  0  0  0  0  0  0  0  0
  152.7447  142.3347  157.0659 H   0  0  0  0  0  0  0  0  0  0  0  0
  151.1852  142.5582  156.2816 H   0  0  0  0  0  0  0  0  0  0  0  0
  151.7666  144.8603  156.9588 H   0  0  0  0  0  0  0  0  0  0  0  0
  153.6329  143.8837  158.6699 H   0  0  0  0  0  0  0  0  0  0  0  0
  152.7618  145.3323  159.1722 H   0  0  0  0  0  0  0  0  0  0  0  0
  152.5922  142.7266  160.4695 H   0  0  0  0  0  0  0  0  0  0  0  0
  151.7061  144.1883  160.8649 H   0  0  0  0  0  0  0  0  0  0  0  0
  149.9008  142.6914  160.0910 H   0  0  0  0  0  0  0  0  0  0  0  0
  150.1270  145.0679  159.0080 H   0  0  0  0  0  0  0  0  0  0  0  0
  149.4611  143.9281  157.8165 H   0  0  0  0  0  0  0  0  0  0  0  0
  150.7504  140.2366  156.5546 H   0  0  0  0  0  0  0  0  0  0  0  0
  152.6019  139.7078  154.7200 H   0  0  0  0  0  0  0  0  0  0  0  0
  152.6840  138.2195  155.6352 H   0  0  0  0  0  0  0  0  0  0  0  0
  151.1184  138.0139  153.6767 H   0  0  0  0  0  0  0  0  0  0  0  0
  150.3049  137.7168  155.1922 H   0  0  0  0  0  0  0  0  0  0  0  0
  148.3131  138.2351  153.4079 H   0  0  0  0  0  0  0  0  0  0  0  0
  146.7090  140.0953  152.9084 H   0  0  0  0  0  0  0  0  0  0  0  0
  147.3492  142.4430  153.5297 H   0  0  0  0  0  0  0  0  0  0  0  0
  149.5728  142.8289  154.6240 H   0  0  0  0  0  0  0  0  0  0  0  0
  1  2  2  0  0  0  0
  2  3  1  0  0  0  0
  2 11  1  0  0  0  0
  3  4  1  0  0  0  0
  3 20  1  0  0  0  0
  3 21  1  0  0  0  0
  4  9  1  0  0  0  0
  4  5  1  0  0  0  0
  4 22  1  0  0  0  0
  5  6  1  0  0  0  0
  5 23  1  0  0  0  0
  5 24  1  0  0  0  0
  6 10  1  0  0  0  0
  6  7  1  0  0  0  0
  6 25  1  0  0  0  0
  7  8  1  0  0  0  0
  7 26  1  0  0  0  0
  7 27  1  0  0  0  0
  8  9  1  0  0  0  0
  8 28  1  0  0  0  0
  8 29  1  0  0  0  0
  9 10  1  0  0  0  0
  9 30  1  0  0  0  0
 10 31  1  0  0  0  0
 10 32  1  0  0  0  0
 11 12  1  0  0  0  0
 11 33  1  0  0  0  0
 12 13  1  0  0  0  0
 12 34  1  0  0  0  0
 12 35  1  0  0  0  0
 13 14  1  0  0  0  0
 13 36  1  0  0  0  0
 13 37  1  0  0  0  0
 14 19  1  0  0  0  0
 14 15  2  0  0  0  0
 15 16  1  0  0  0  0
 15 38  1  0  0  0  0
 16 17  2  0  0  0  0
 16 39  1  0  0  0  0
 17 18  1  0  0  0  0
 17 40  1  0  0  0  0
 18 19  2  0  0  0  0
 18 41  1  0  0  0  0
M  END
> <s_m_source_file>
AV-unprocessed.smi

> <i_m_source_file_index>
3263

> <i_lp_mmshare_version>
43012

> <i_f3d_flags>
0

> <s_epik_input>
W0NIMl0xW0NIMl1bQ0BASF0oW0NIMl0yKVtDQEBIXShbQ0gyXVtDQEhdMTIpW0NIMl1DKD1PKVtOSF1bQ0gyXVtDSDJdYzNbY0hdW2NIXVtjSF1bY0hdbjM=

> <s_epik_cmdline>
J2VwaWtfcHl0aG9uJywgJy1waCcsICc3LjAnLCAnLXRuJywgJzgnLCAnLW1hJywgJzIwMCcsICctbWV0YWxfYmluZGluZycsICctaW1hZScsICc8aW5maWxlLm1hZT4nLCAnLW9tYWUnLCAnPG91dGZpbGUubWFlPic=

> <r_epik_Ionization_Penalty>
0.0273541

> <r_epik_Ionization_Penalty_Charging>
0

> <r_epik_Ionization_Penalty_Neutral>
0.0273541

> <r_epik_State_Penalty>
0.0223838

> <r_epik_Charging_Adjusted_Penalty>
0.0223838

> <i_epik_Tot_Q>
0

> <i_epik_Tot_abs_Q>
0

> <r_epik_Metal_State_Penalty>
0.0213927

> <b_epik_Metal_Only>
0

> <s_lp_Force_Field>
OPLS_2005

> <r_lp_Energy>
46.2802

> <b_lp_Chiralities_Consistent>
1

> <s_lp_Variant>
AV-unprocessed.smi:3263-1

> <Gold.Version>
5.8.1

> <Gold.Id.Protein>
6NUR|6NUR_protein|mol2

> <Gold.PLP.Fitness>
45.8938

> <Gold.PLP.PLP>
-38.7408

> <Gold.PLP.part.hbond>
-1.8180

> <Gold.PLP.part.metal>
0.0000

> <Gold.PLP.part.buried>
-1.1374

> <Gold.PLP.part.nonpolar>
-36.1789

> <Gold.PLP.part.repulsive>
0.2219

> <Gold.PLP.ligand.clash>
0.0000

> <Gold.PLP.ligand.torsion>
0.6655

> <Gold.PLP.Chemscore.Hbond>
1.8000

> <Gold.PLP.Chemscore.CHOScore>
1.0000

> <Gold.PLP.Chemscore.Metal>
0.0000

> <Gold.Chemscore.Hbonds>
donor molecule, donor type, donor heavy atom, donor atom, acceptor molecule, acceptor atom, score
      P1  H  7989  7998       L1    19  0.55
      P1  H  7997  8010       L1     1  1.00
      L1  C    18    41       P1  8028  1.00

> <Gold.PLP.Chemscore.Internal.Correction>
0.0841

> <Gold.Rescore>
     Score         DG    S(hbond)    S(metal)    S(lipo)     H(rot)  DE(clash)    DE(int)     intcor
     15.99     -19.81       0.95        0.00     127.28       1.46       1.70       2.12       ----

> <Gold.Chemscore.Fitness>
15.9885

> <Gold.Chemscore.DG>
-19.8111

> <Gold.Chemscore.ZeroCoef>
-5.4800

> <Gold.Chemscore.Hbond>
0.9475

> <Gold.Chemscore.Metal>
0.0000

> <Gold.Chemscore.Lipo>
127.2849

> <Gold.Chemscore.Internal_Hbond>
0.0000

> <Gold.Chemscore.DEClash>
1.6987

> <Gold.Chemscore.DEInternal>
2.1239

> <Gold.Chemscore.Rot>
1.4555

> <Gold.Chemscore.Internal.Correction>
   9.000000E+99

> <Gold.Chemscore.Hbonds>
donor molecule, donor type, donor heavy atom, donor atom, acceptor molecule, acceptor atom, score
      P1  H  7989  7998       L1    19  0.05
      P1  H  7997  8010       L1     1  0.29

> <Gold.Chemscore.Hbond.Weighted>
-3.1648

> <Gold.Chemscore.Metal.Weighted>
-0.0000

> <Gold.Chemscore.Lipo.Weighted>
-14.8923

> <Gold.Chemscore.Internal_Hbond.Weighted>
0.0000

> <Gold.Chemscore.DEClash.Weighted>
1.6987

> <Gold.Chemscore.DEInternal.Weighted>
2.1239

> <Gold.Chemscore.Rot.Weighted>
3.7260

> <Gold.Chemscore.Internal.Correction.Weighted>
   9.000000E+99

> <Gold.Protein.RotatedTorsions>
[ 6907 6896 6895 6894 ] final   52.69 input  -60.11 | X-H torsion
[ 7974 7965 7964 7962 ] final    4.94 input  175.53 | X-H torsion
[ 8008 7997 7996 7995 ] final   56.61 input   59.86 | X-H torsion
[ 10167 10162 10161 10158 ] final  142.61 input  -65.29 | X-H torsion
[ 10718 10713 10712 10709 ] final   -3.62 input   66.30 | X-H torsion
[ 10763 10752 10751 10750 ] final  -28.92 input  -60.55 | X-H torsion
[ 11005 11000 10999 10996 ] final -108.10 input  -57.11 | X-H torsion

> <Gold.Protein.ActiveResidues>
 VAL166  LYS551  ARG553  GLY616  TRP617  ASP618  TYR619  PRO620  LYS621  CYS622 
 ASP623  PHE694  ASN695  SER759  ASP760  ASP761  ALA762  ILE779  LEU786  VAL792 
 PHE793  MET794  SER795  GLU796  ALA797  LYS798  CYS799  TRP800  GLU811  SER814 

> <Gold.Protein.RotatedAtoms>
  152.3259  134.7321  160.0301 H   0  0  0  0  0  0  0  0  0  0  0  0  # atno 6907 bound_to 6896
  151.7754  133.3339  159.3464 H   0  0  0  0  0  0  0  0  0  0  0  0  # atno 6908 bound_to 6896
  150.7395  134.5912  159.6033 H   0  0  0  0  0  0  0  0  0  0  0  0  # atno 6909 bound_to 6896
  146.2442  140.0459  142.8378 H   0  0  0  0  0  0  0  0  0  0  0  0  # atno 7974 bound_to 7965
  155.5203  140.3479  155.4405 H   0  0  0  0  0  0  0  0  0  0  0  0  # atno 8008 bound_to 7997
  156.0789  140.1381  156.9764 H   0  0  0  0  0  0  0  0  0  0  0  0  # atno 8009 bound_to 7997
  154.4568  140.0950  156.6757 H   0  0  0  0  0  0  0  0  0  0  0  0  # atno 8010 bound_to 7997
  139.4990  144.6096  151.6302 H   0  0  0  0  0  0  0  0  0  0  0  0  # atno 10167 bound_to 10162
  156.7733  130.5307  149.5763 H   0  0  0  0  0  0  0  0  0  0  0  0  # atno 10718 bound_to 10713
  153.7562  135.6922  153.4935 H   0  0  0  0  0  0  0  0  0  0  0  0  # atno 10763 bound_to 10752
  153.1970  135.4450  155.0218 H   0  0  0  0  0  0  0  0  0  0  0  0  # atno 10764 bound_to 10752
  154.8170  135.3403  154.7079 H   0  0  0  0  0  0  0  0  0  0  0  0  # atno 10765 bound_to 10752
  141.0919  133.9039  157.2055 H   0  0  0  0  0  0  0  0  0  0  0  0  # atno 11005 bound_to 11000
  145.1027  140.9356  143.4703 LP  0  0  0  0  0  0  0  0  0  0  0  0  # atno 17320 bound_to 7965
  145.0656  139.3071  143.5858 LP  0  0  0  0  0  0  0  0  0  0  0  0  # atno 17321 bound_to 7965
  140.5767  144.0017  150.6245 LP  0  0  0  0  0  0  0  0  0  0  0  0  # atno 17342 bound_to 10162
  140.3152  143.3172  152.0839 LP  0  0  0  0  0  0  0  0  0  0  0  0  # atno 17343 bound_to 10162
  156.1264  130.6147  151.0269 LP  0  0  0  0  0  0  0  0  0  0  0  0  # atno 17370 bound_to 10713
  157.6681  131.0867  150.7680 LP  0  0  0  0  0  0  0  0  0  0  0  0  # atno 17371 bound_to 10713
  139.9747  135.0117  156.9601 LP  0  0  0  0  0  0  0  0  0  0  0  0  # atno 17394 bound_to 11000
  140.5231  134.0887  155.7297 LP  0  0  0  0  0  0  0  0  0  0  0  0  # atno 17395 bound_to 11000

$$$$
