AV-unprocessed.smi:1885|AV-procd|sdf|7653|dock1
  -GOLD-   22720 9383D 1   1.00000     0.00000
 Structure written by MMmdl.
 44 46  0  0  0  0  0  0  0  0  2 V2000
  152.3671  143.1964  160.8066 C   0  0  0  0  0  0  0  0  0  0  0  0
  151.5350  143.5487  159.7108 O   0  0  0  0  0  0  0  0  0  0  0  0
  151.4132  142.6493  158.6731 C   0  0  0  0  0  0  0  0  0  0  0  0
  151.1693  143.0160  157.3256 C   0  0  0  0  0  0  0  0  0  0  0  0
  151.0595  142.0293  156.3265 C   0  0  0  0  0  0  0  0  0  0  0  0
  151.1842  140.6642  156.6542 C   0  0  0  0  0  0  0  0  0  0  0  0
  151.0871  139.6137  155.5631 C   0  0  0  0  0  0  0  0  0  0  0  0
  150.6161  140.1478  154.3354 O   0  0  0  0  0  0  0  0  0  0  0  0
  149.2045  140.0855  154.2150 C   0  0  0  0  0  0  0  0  0  0  0  0
  148.6308  141.5138  154.2521 C   0  0  1  0  0  0  0  0  0  0  0  0
  149.5226  142.3735  153.5733 O   0  0  0  0  0  0  0  0  0  0  0  0
  147.2567  141.6552  153.5667 C   0  0  0  0  0  0  0  0  0  0  0  0
  146.4461  142.7478  154.1239 N   0  0  0  0  0  0  0  0  0  0  0  0
  145.8221  142.8286  155.3307 C   0  0  0  0  0  0  0  0  0  0  0  0
  145.2018  144.0390  155.3938 N   0  3  0  0  0  0  0  0  0  0  0  0
  145.4323  144.7436  154.2104 C   0  0  0  0  0  0  0  0  0  0  0  0
  145.0107  146.0063  153.8065 C   0  0  0  0  0  0  0  0  0  0  0  0
  145.4194  146.4334  152.5262 C   0  0  0  0  0  0  0  0  0  0  0  0
  145.0353  147.6537  152.0826 F   0  0  0  0  0  0  0  0  0  0  0  0
  146.2172  145.6140  151.6999 C   0  0  0  0  0  0  0  0  0  0  0  0
  146.5848  146.0606  150.4756 F   0  0  0  0  0  0  0  0  0  0  0  0
  146.6397  144.3359  152.1210 C   0  0  0  0  0  0  0  0  0  0  0  0
  146.2325  143.9211  153.3889 C   0  0  0  0  0  0  0  0  0  0  0  0
  151.4355  140.2948  157.9916 C   0  0  0  0  0  0  0  0  0  0  0  0
  151.5450  141.2817  158.9900 C   0  0  0  0  0  0  0  0  0  0  0  0
  152.3620  144.0056  161.5368 H   0  0  0  0  0  0  0  0  0  0  0  0
  153.4003  143.0446  160.4906 H   0  0  0  0  0  0  0  0  0  0  0  0
  152.0065  142.2977  161.3086 H   0  0  0  0  0  0  0  0  0  0  0  0
  151.0645  144.0492  157.0317 H   0  0  0  0  0  0  0  0  0  0  0  0
  150.8785  142.3264  155.3039 H   0  0  0  0  0  0  0  0  0  0  0  0
  152.0699  139.1642  155.4113 H   0  0  0  0  0  0  0  0  0  0  0  0
  150.4170  138.8249  155.9081 H   0  0  0  0  0  0  0  0  0  0  0  0
  148.9036  139.5642  153.3045 H   0  0  0  0  0  0  0  0  0  0  0  0
  148.8286  139.5054  155.0576 H   0  0  0  0  0  0  0  0  0  0  0  0
  148.5459  141.8492  155.2868 H   0  0  0  0  0  0  0  0  0  0  0  0
  149.7449  143.0925  154.1448 H   0  0  0  0  0  0  0  0  0  0  0  0
  147.3941  141.8784  152.5077 H   0  0  0  0  0  0  0  0  0  0  0  0
  146.6956  140.7218  153.6084 H   0  0  0  0  0  0  0  0  0  0  0  0
  145.8199  142.0692  156.0997 H   0  0  0  0  0  0  0  0  0  0  0  0
  144.3984  146.6361  154.4349 H   0  0  0  0  0  0  0  0  0  0  0  0
  147.2456  143.7193  151.4743 H   0  0  0  0  0  0  0  0  0  0  0  0
  151.5461  139.2545  158.2598 H   0  0  0  0  0  0  0  0  0  0  0  0
  151.7348  140.9853  160.0112 H   0  0  0  0  0  0  0  0  0  0  0  0
  144.6615  144.3575  156.1881 H   0  0  0  0  0  0  0  0  0  0  0  0
  1  2  1  0  0  0  0
  1 26  1  0  0  0  0
  1 27  1  0  0  0  0
  1 28  1  0  0  0  0
  2  3  1  0  0  0  0
  3 25  1  0  0  0  0
  3  4  2  0  0  0  0
  4  5  1  0  0  0  0
  4 29  1  0  0  0  0
  5  6  2  0  0  0  0
  5 30  1  0  0  0  0
  6  7  1  0  0  0  0
  6 24  1  0  0  0  0
  7  8  1  0  0  0  0
  7 31  1  0  0  0  0
  7 32  1  0  0  0  0
  8  9  1  0  0  0  0
  9 10  1  0  0  0  0
  9 33  1  0  0  0  0
  9 34  1  0  0  0  0
 10 11  1  0  0  0  0
 10 12  1  0  0  0  0
 10 35  1  0  0  0  0
 11 36  1  0  0  0  0
 12 13  1  0  0  0  0
 12 37  1  0  0  0  0
 12 38  1  0  0  0  0
 13 23  1  0  0  0  0
 13 14  1  0  0  0  0
 14 15  2  0  0  0  0
 14 39  1  0  0  0  0
 15 16  1  0  0  0  0
 15 44  1  0  0  0  0
 16 23  2  0  0  0  0
 16 17  1  0  0  0  0
 17 18  2  0  0  0  0
 17 40  1  0  0  0  0
 18 19  1  0  0  0  0
 18 20  1  0  0  0  0
 20 21  1  0  0  0  0
 20 22  2  0  0  0  0
 22 23  1  0  0  0  0
 22 41  1  0  0  0  0
 24 25  2  0  0  0  0
 24 42  1  0  0  0  0
 25 43  1  0  0  0  0
M  CHG  1  15   1
M  END
> <s_m_source_file>
AV-unprocessed.smi

> <i_m_source_file_index>
1885

> <i_lp_mmshare_version>
43012

> <i_f3d_flags>
0

> <s_epik_input>
W0NIM11PYzFbY0hdW2NIXWMoW2NIXVtjSF0xKVtDSDJdT1tDSDJdW0NASF0oW09IXSlbQ0gyXW4oW2NIXW4yKWMoYzIzKVtjSF1jKEYpYyhGKVtjSF0z

> <s_epik_cmdline>
J2VwaWtfcHl0aG9uJywgJy1waCcsICc3LjAnLCAnLXRuJywgJzgnLCAnLW1hJywgJzIwMCcsICctbWV0YWxfYmluZGluZycsICctaW1hZScsICc8aW5maWxlLm1hZT4nLCAnLW9tYWUnLCAnPG91dGZpbGUubWFlPic=

> <r_lp_tautomer_probability>
1

> <r_epik_Ionization_Penalty>
2.14697

> <r_epik_Ionization_Penalty_Charging>
2.14697

> <r_epik_Ionization_Penalty_Neutral>
9.74819e-07

> <r_epik_State_Penalty>
2.28651

> <r_epik_Charging_Adjusted_Penalty>
4.43348

> <i_epik_Tot_Q>
1

> <i_epik_Tot_abs_Q>
1

> <r_epik_Metal_State_Penalty>
6.36664

> <b_epik_Metal_Only>
0

> <s_lp_Force_Field>
OPLS_2005

> <r_lp_Energy>
25.0693

> <b_lp_Chiralities_Consistent>
1

> <s_lp_Variant>
AV-unprocessed.smi:1885-4

> <Gold.Version>
5.8.1

> <Gold.Id.Protein>
6NUR|6NUR_protein|mol2

> <Gold.PLP.Fitness>
57.4320

> <Gold.PLP.PLP>
-53.7047

> <Gold.PLP.part.hbond>
-3.1920

> <Gold.PLP.part.metal>
0.0000

> <Gold.PLP.part.buried>
-3.5810

> <Gold.PLP.part.nonpolar>
-47.4062

> <Gold.PLP.part.repulsive>
0.1298

> <Gold.PLP.ligand.clash>
0.0000

> <Gold.PLP.ligand.torsion>
1.7365

> <Gold.PLP.Chemscore.Hbond>
2.2880

> <Gold.PLP.Chemscore.CHOScore>
0.0000

> <Gold.PLP.Chemscore.Metal>
0.0000

> <Gold.Chemscore.Hbonds>
donor molecule, donor type, donor heavy atom, donor atom, acceptor molecule, acceptor atom, score
      L1  H    11    36       P1  8028  0.16
      P1  H  7989  7998       L1     8  0.93
      P1  H  8011  8017       L1    11  0.06

> <Gold.PLP.Chemscore.Internal.Correction>
0.3362

> <Gold.Rescore>
     Score         DG    S(hbond)    S(metal)    S(lipo)     H(rot)  DE(clash)    DE(int)     intcor
     16.04     -19.13       2.06        0.00     124.11       3.03       1.15       1.95       ----

> <Gold.Chemscore.Fitness>
16.0357

> <Gold.Chemscore.DG>
-19.1273

> <Gold.Chemscore.ZeroCoef>
-5.4800

> <Gold.Chemscore.Hbond>
2.0590

> <Gold.Chemscore.Metal>
0.0000

> <Gold.Chemscore.Lipo>
124.1142

> <Gold.Chemscore.Internal_Hbond>
0.0000

> <Gold.Chemscore.DEClash>
1.1454

> <Gold.Chemscore.DEInternal>
1.9462

> <Gold.Chemscore.Rot>
3.0278

> <Gold.Chemscore.Internal.Correction>
   9.000000E+99

> <Gold.Chemscore.Hbonds>
donor molecule, donor type, donor heavy atom, donor atom, acceptor molecule, acceptor atom, score
      L1  H    11    36       P1  8028  0.17
      P1  H  7989  7998       L1     8  0.83
      P1  H  8011  8017       L1    11  0.06

> <Gold.Chemscore.Hbond.Weighted>
-6.8771

> <Gold.Chemscore.Metal.Weighted>
-0.0000

> <Gold.Chemscore.Lipo.Weighted>
-14.5214

> <Gold.Chemscore.Internal_Hbond.Weighted>
0.0000

> <Gold.Chemscore.DEClash.Weighted>
1.1454

> <Gold.Chemscore.DEInternal.Weighted>
1.9462

> <Gold.Chemscore.Rot.Weighted>
7.7512

> <Gold.Chemscore.Internal.Correction.Weighted>
   9.000000E+99

> <Gold.Protein.RotatedTorsions>
[ 6907 6896 6895 6894 ] final  -50.25 input  -60.11 | X-H torsion
[ 7974 7965 7964 7962 ] final  -47.27 input  175.53 | X-H torsion
[ 8008 7997 7996 7995 ] final  173.87 input   59.86 | X-H torsion
[ 10167 10162 10161 10158 ] final  170.39 input  -65.29 | X-H torsion
[ 10718 10713 10712 10709 ] final -170.09 input   66.30 | X-H torsion
[ 10763 10752 10751 10750 ] final  -70.26 input  -60.55 | X-H torsion
[ 11005 11000 10999 10996 ] final  166.66 input  -57.11 | X-H torsion

> <Gold.Protein.ActiveResidues>
 VAL166  LYS551  ARG553  GLY616  TRP617  ASP618  TYR619  PRO620  LYS621  CYS622 
 ASP623  PHE694  ASN695  SER759  ASP760  ASP761  ALA762  ILE779  LEU786  VAL792 
 PHE793  MET794  SER795  GLU796  ALA797  LYS798  CYS799  TRP800  GLU811  SER814 

> <Gold.Protein.RotatedAtoms>
  150.8725  134.8102  159.7165 H   0  0  0  0  0  0  0  0  0  0  0  0  # atno 6907 bound_to 6896
  152.4724  134.4923  159.9709 H   0  0  0  0  0  0  0  0  0  0  0  0  # atno 6908 bound_to 6896
  151.5010  133.3466  159.2904 H   0  0  0  0  0  0  0  0  0  0  0  0  # atno 6909 bound_to 6896
  145.9633  140.7457  142.9446 H   0  0  0  0  0  0  0  0  0  0  0  0  # atno 7974 bound_to 7965
  156.1032  140.1449  156.9440 H   0  0  0  0  0  0  0  0  0  0  0  0  # atno 8008 bound_to 7997
  154.4716  140.0908  156.7203 H   0  0  0  0  0  0  0  0  0  0  0  0  # atno 8009 bound_to 7997
  155.4725  140.3442  155.4330 H   0  0  0  0  0  0  0  0  0  0  0  0  # atno 8010 bound_to 7997
  139.5017  144.3602  151.9833 H   0  0  0  0  0  0  0  0  0  0  0  0  # atno 10167 bound_to 10162
  156.7211  130.9270  151.3097 H   0  0  0  0  0  0  0  0  0  0  0  0  # atno 10718 bound_to 10713
  154.4151  135.6000  153.5976 H   0  0  0  0  0  0  0  0  0  0  0  0  # atno 10763 bound_to 10752
  152.9791  135.5938  154.4023 H   0  0  0  0  0  0  0  0  0  0  0  0  # atno 10764 bound_to 10752
  154.3841  135.2841  155.2172 H   0  0  0  0  0  0  0  0  0  0  0  0  # atno 10765 bound_to 10752
  140.2687  134.7844  157.3656 H   0  0  0  0  0  0  0  0  0  0  0  0  # atno 11005 bound_to 11000
  144.6820  140.2627  143.7317 LP  0  0  0  0  0  0  0  0  0  0  0  0  # atno 17320 bound_to 7965
  145.8009  139.1964  143.2048 LP  0  0  0  0  0  0  0  0  0  0  0  0  # atno 17321 bound_to 7965
  140.3038  144.3616  150.6052 LP  0  0  0  0  0  0  0  0  0  0  0  0  # atno 17342 bound_to 10162
  140.5852  143.2170  151.7355 LP  0  0  0  0  0  0  0  0  0  0  0  0  # atno 17343 bound_to 10162
  157.6898  130.9221  150.0482 LP  0  0  0  0  0  0  0  0  0  0  0  0  # atno 17370 bound_to 10713
  156.1594  130.3643  149.9321 LP  0  0  0  0  0  0  0  0  0  0  0  0  # atno 17371 bound_to 10713
  140.1394  134.4991  155.8043 LP  0  0  0  0  0  0  0  0  0  0  0  0  # atno 17394 bound_to 11000
  141.2180  133.6819  156.7183 LP  0  0  0  0  0  0  0  0  0  0  0  0  # atno 17395 bound_to 11000

$$$$
