AV-unprocessed.smi:1512|AV-procd|sdf|6104|dock8
  -GOLD-   22720 6233D 1   1.00000     0.00000
 Structure written by MMmdl.
 44 46  0  0  0  0  0  0  0  0  3 V2000
  153.0699  140.3707  159.5847 C   0  0  0  0  0  0  0  0  0  0  0  0
  152.0244  141.3348  158.9990 C   0  0  2  0  0  0  0  0  0  0  0  0
  151.6406  140.9025  157.6600 N   0  0  0  0  0  0  0  0  0  0  0  0
  150.4292  141.0477  157.0972 C   0  0  0  0  0  0  0  0  0  0  0  0
  149.4544  141.4819  157.7090 O   0  0  0  0  0  0  0  0  0  0  0  0
  150.2827  140.6812  155.6095 C   0  0  0  0  0  0  0  0  0  0  0  0
  148.8888  140.6381  155.1256 N   0  0  0  0  0  0  0  0  0  0  0  0
  148.2250  141.8702  154.9774 C   0  0  0  0  0  0  0  0  0  0  0  0
  146.9477  141.9429  154.5768 C   0  0  0  0  0  0  0  0  0  0  0  0
  146.2442  140.7121  154.3098 C   0  0  0  0  0  0  0  0  0  0  0  0
  146.8618  139.5161  154.4443 C   0  0  0  0  0  0  0  0  0  0  0  0
  146.0913  138.3205  154.1957 N   0  3  0  0  0  0  0  0  0  0  0  0
  146.4656  137.2624  154.6920 O   0  0  0  0  0  0  0  0  0  0  0  0
  145.0773  138.4092  153.5102 O   0  5  0  0  0  0  0  0  0  0  0  0
  148.2792  139.4418  154.8521 C   0  0  0  0  0  0  0  0  0  0  0  0
  148.8895  138.3761  154.9549 O   0  0  0  0  0  0  0  0  0  0  0  0
  152.5473  142.7899  158.9354 C   0  0  2  0  0  0  0  0  0  0  0  0
  152.8750  143.4201  160.3074 C   0  0  0  0  0  0  0  0  0  0  0  0
  152.1341  144.7698  160.2541 C   0  0  2  0  0  0  0  0  0  0  0  0
  150.6216  144.5211  160.4024 C   0  0  0  0  0  0  0  0  0  0  0  0
  150.2452  143.9032  159.0435 C   0  0  0  0  0  0  0  0  0  0  0  0
  151.6000  143.8462  158.3092 C   0  0  1  0  0  0  0  0  0  0  0  0
  152.2483  145.1432  158.7809 C   0  0  0  0  0  0  0  0  0  0  0  0
  153.3637  140.6707  160.5905 H   0  0  0  0  0  0  0  0  0  0  0  0
  153.9706  140.3398  158.9703 H   0  0  0  0  0  0  0  0  0  0  0  0
  152.6779  139.3553  159.6508 H   0  0  0  0  0  0  0  0  0  0  0  0
  151.1420  141.3081  159.6405 H   0  0  0  0  0  0  0  0  0  0  0  0
  152.3796  140.5255  157.0846 H   0  0  0  0  0  0  0  0  0  0  0  0
  150.8699  141.3954  155.0309 H   0  0  0  0  0  0  0  0  0  0  0  0
  150.7641  139.7167  155.4387 H   0  0  0  0  0  0  0  0  0  0  0  0
  148.8154  142.7447  155.2102 H   0  0  0  0  0  0  0  0  0  0  0  0
  146.4542  142.8975  154.4683 H   0  0  0  0  0  0  0  0  0  0  0  0
  145.2042  140.7593  154.0210 H   0  0  0  0  0  0  0  0  0  0  0  0
  153.4601  142.7877  158.3365 H   0  0  0  0  0  0  0  0  0  0  0  0
  152.5423  142.8109  161.1489 H   0  0  0  0  0  0  0  0  0  0  0  0
  153.9505  143.5675  160.4124 H   0  0  0  0  0  0  0  0  0  0  0  0
  152.5253  145.5116  160.9510 H   0  0  0  0  0  0  0  0  0  0  0  0
  150.3910  143.8593  161.2381 H   0  0  0  0  0  0  0  0  0  0  0  0
  150.0848  145.4576  160.5591 H   0  0  0  0  0  0  0  0  0  0  0  0
  149.7636  142.9305  159.1395 H   0  0  0  0  0  0  0  0  0  0  0  0
  149.5519  144.5550  158.5101 H   0  0  0  0  0  0  0  0  0  0  0  0
  151.5054  143.7627  157.2263 H   0  0  0  0  0  0  0  0  0  0  0  0
  151.6786  146.0351  158.5135 H   0  0  0  0  0  0  0  0  0  0  0  0
  153.2792  145.2627  158.4427 H   0  0  0  0  0  0  0  0  0  0  0  0
  1  2  1  0  0  0  0
  1 24  1  0  0  0  0
  1 25  1  0  0  0  0
  1 26  1  0  0  0  0
  2  3  1  0  0  0  0
  2 17  1  0  0  0  0
  2 27  1  0  0  0  0
  3  4  1  0  0  0  0
  3 28  1  0  0  0  0
  4  5  2  0  0  0  0
  4  6  1  0  0  0  0
  6  7  1  0  0  0  0
  6 29  1  0  0  0  0
  6 30  1  0  0  0  0
  7 15  1  0  0  0  0
  7  8  1  0  0  0  0
  8  9  2  0  0  0  0
  8 31  1  0  0  0  0
  9 10  1  0  0  0  0
  9 32  1  0  0  0  0
 10 11  2  0  0  0  0
 10 33  1  0  0  0  0
 11 12  1  0  0  0  0
 11 15  1  0  0  0  0
 12 13  2  0  0  0  0
 12 14  1  0  0  0  0
 15 16  2  0  0  0  0
 17 22  1  0  0  0  0
 17 18  1  0  0  0  0
 17 34  1  0  0  0  0
 18 19  1  0  0  0  0
 18 35  1  0  0  0  0
 18 36  1  0  0  0  0
 19 23  1  0  0  0  0
 19 20  1  0  0  0  0
 19 37  1  0  0  0  0
 20 21  1  0  0  0  0
 20 38  1  0  0  0  0
 20 39  1  0  0  0  0
 21 22  1  0  0  0  0
 21 40  1  0  0  0  0
 21 41  1  0  0  0  0
 22 23  1  0  0  0  0
 22 42  1  0  0  0  0
 23 43  1  0  0  0  0
 23 44  1  0  0  0  0
M  CHG  1  12   1
M  CHG  1  14  -1
M  END
> <s_m_source_file>
AV-unprocessed.smi

> <i_m_source_file_index>
1512

> <i_lp_mmshare_version>
43012

> <i_f3d_flags>
0

> <s_epik_input>
W0NIMl0xW0NIMl1bQ0BIXShbQ0gyXTIpW0NAQEhdKFtDSDJdW0NAQEhdMTIpW0NASF0oW0NIM10pW05IXUMoPU8pW0NIMl1uM1tjSF1bY0hdW2NIXWMoW04rXSg9TylbTy1dKWMzPU8=

> <s_epik_cmdline>
J2VwaWtfcHl0aG9uJywgJy1waCcsICc3LjAnLCAnLXRuJywgJzgnLCAnLW1hJywgJzIwMCcsICctbWV0YWxfYmluZGluZycsICctaW1hZScsICc8aW5maWxlLm1hZT4nLCAnLW9tYWUnLCAnPG91dGZpbGUubWFlPic=

> <r_lp_tautomer_probability>
1

> <r_epik_Ionization_Penalty>
2.17697e-08

> <r_epik_Ionization_Penalty_Charging>
1.42735e-10

> <r_epik_Ionization_Penalty_Neutral>
2.16269e-08

> <r_epik_State_Penalty>
-0

> <r_epik_Charging_Adjusted_Penalty>
1.42735e-10

> <i_epik_Tot_Q>
0

> <i_epik_Tot_abs_Q>
2

> <r_epik_Metal_State_Penalty>
-0

> <b_epik_Metal_Only>
0

> <s_lp_Force_Field>
OPLS_2005

> <r_lp_Energy>
63.3532

> <b_lp_Chiralities_Consistent>
1

> <s_lp_Variant>
AV-unprocessed.smi:1512-5

> <Gold.Version>
5.8.1

> <Gold.Id.Protein>
6NUR|6NUR_protein|mol2

> <Gold.PLP.Fitness>
48.8704

> <Gold.PLP.PLP>
-47.5047

> <Gold.PLP.part.hbond>
0.0000

> <Gold.PLP.part.metal>
0.0000

> <Gold.PLP.part.buried>
-4.4268

> <Gold.PLP.part.nonpolar>
-44.1885

> <Gold.PLP.part.repulsive>
1.3422

> <Gold.PLP.ligand.clash>
0.0000

> <Gold.PLP.ligand.torsion>
0.8350

> <Gold.PLP.Chemscore.Hbond>
0.0000

> <Gold.PLP.Chemscore.CHOScore>
1.0000

> <Gold.PLP.Chemscore.Metal>
0.0000

> <Gold.Chemscore.Hbonds>
donor molecule, donor type, donor heavy atom, donor atom, acceptor molecule, acceptor atom, score
      L1  C     8    31       P1  8028  0.96

> <Gold.PLP.Chemscore.Internal.Correction>
0.0357

> <Gold.Rescore>
     Score         DG    S(hbond)    S(metal)    S(lipo)     H(rot)  DE(clash)    DE(int)     intcor
     13.24     -16.36       0.00        0.00     131.21       1.75       0.48       2.64       ----

> <Gold.Chemscore.Fitness>
13.2377

> <Gold.Chemscore.DG>
-16.3584

> <Gold.Chemscore.ZeroCoef>
-5.4800

> <Gold.Chemscore.Hbond>
0.0000

> <Gold.Chemscore.Metal>
0.0000

> <Gold.Chemscore.Lipo>
131.2115

> <Gold.Chemscore.Internal_Hbond>
0.0000

> <Gold.Chemscore.DEClash>
0.4815

> <Gold.Chemscore.DEInternal>
2.6393

> <Gold.Chemscore.Rot>
1.7474

> <Gold.Chemscore.Internal.Correction>
   9.000000E+99

> <Gold.Chemscore.Hbond.Weighted>
-0.0000

> <Gold.Chemscore.Metal.Weighted>
-0.0000

> <Gold.Chemscore.Lipo.Weighted>
-15.3517

> <Gold.Chemscore.Internal_Hbond.Weighted>
0.0000

> <Gold.Chemscore.DEClash.Weighted>
0.4815

> <Gold.Chemscore.DEInternal.Weighted>
2.6393

> <Gold.Chemscore.Rot.Weighted>
4.4733

> <Gold.Chemscore.Internal.Correction.Weighted>
   9.000000E+99

> <Gold.Protein.RotatedTorsions>
[ 6907 6896 6895 6894 ] final -103.73 input  -60.11 | X-H torsion
[ 7974 7965 7964 7962 ] final  175.04 input  175.53 | X-H torsion
[ 8008 7997 7996 7995 ] final  -34.61 input   59.86 | X-H torsion
[ 10167 10162 10161 10158 ] final  -59.49 input  -65.29 | X-H torsion
[ 10718 10713 10712 10709 ] final  161.03 input   66.30 | X-H torsion
[ 10763 10752 10751 10750 ] final -162.51 input  -60.55 | X-H torsion
[ 11005 11000 10999 10996 ] final  108.53 input  -57.11 | X-H torsion

> <Gold.Protein.ActiveResidues>
 VAL166  LYS551  ARG553  GLY616  TRP617  ASP618  TYR619  PRO620  LYS621  CYS622 
 ASP623  PHE694  ASN695  SER759  ASP760  ASP761  ALA762  ILE779  LEU786  VAL792 
 PHE793  MET794  SER795  GLU796  ALA797  LYS798  CYS799  TRP800  GLU811  SER814 

> <Gold.Protein.RotatedAtoms>
  150.7254  134.0385  159.3757 H   0  0  0  0  0  0  0  0  0  0  0  0  # atno 6907 bound_to 6896
  151.8358  135.0604  160.0451 H   0  0  0  0  0  0  0  0  0  0  0  0  # atno 6908 bound_to 6896
  152.2900  133.5516  159.5588 H   0  0  0  0  0  0  0  0  0  0  0  0  # atno 6909 bound_to 6896
  144.7209  139.9887  143.6439 H   0  0  0  0  0  0  0  0  0  0  0  0  # atno 7974 bound_to 7965
  154.4116  140.1679  156.2077 H   0  0  0  0  0  0  0  0  0  0  0  0  # atno 8008 bound_to 7997
  155.9470  140.3404  155.6352 H   0  0  0  0  0  0  0  0  0  0  0  0  # atno 8009 bound_to 7997
  155.6917  140.0734  157.2436 H   0  0  0  0  0  0  0  0  0  0  0  0  # atno 8010 bound_to 7997
  140.6132  143.2393  151.5661 H   0  0  0  0  0  0  0  0  0  0  0  0  # atno 10167 bound_to 10162
  157.1422  131.0543  151.2321 H   0  0  0  0  0  0  0  0  0  0  0  0  # atno 10718 bound_to 10713
  154.7207  135.3025  154.9051 H   0  0  0  0  0  0  0  0  0  0  0  0  # atno 10763 bound_to 10752
  153.9924  135.6717  153.4759 H   0  0  0  0  0  0  0  0  0  0  0  0  # atno 10764 bound_to 10752
  153.0832  135.4998  154.8461 H   0  0  0  0  0  0  0  0  0  0  0  0  # atno 10765 bound_to 10752
  139.8846  134.9433  156.5986 H   0  0  0  0  0  0  0  0  0  0  0  0  # atno 11005 bound_to 11000
  146.0429  139.3438  143.0686 LP  0  0  0  0  0  0  0  0  0  0  0  0  # atno 17320 bound_to 7965
  145.8312  140.9629  143.0848 LP  0  0  0  0  0  0  0  0  0  0  0  0  # atno 17321 bound_to 7965
  139.5377  144.2734  152.1286 LP  0  0  0  0  0  0  0  0  0  0  0  0  # atno 17342 bound_to 10162
  140.1937  144.4726  150.6466 LP  0  0  0  0  0  0  0  0  0  0  0  0  # atno 17343 bound_to 10162
  157.4297  130.7483  149.6979 LP  0  0  0  0  0  0  0  0  0  0  0  0  # atno 17370 bound_to 10713
  155.9786  130.4049  150.3637 LP  0  0  0  0  0  0  0  0  0  0  0  0  # atno 17371 bound_to 10713
  140.7901  133.8589  155.8638 LP  0  0  0  0  0  0  0  0  0  0  0  0  # atno 17394 bound_to 11000
  140.9685  134.1562  157.4596 LP  0  0  0  0  0  0  0  0  0  0  0  0  # atno 17395 bound_to 11000

$$$$
