AV-unprocessed.smi:1990|AV-procd|sdf|8063|dock10
  -GOLD-   2272010273D 1   1.00000     0.00000
 Structure written by MMmdl.
 46 47  0  0  0  0  0  0  0  0  1 V2000
  151.0166  145.1901  159.4730 C   0  0  0  0  0  0  0  0  0  0  0  0
  152.1375  144.5962  158.6011 C   0  0  2  0  0  0  0  0  0  0  0  0
  151.6155  143.7665  157.4113 C   0  0  0  0  0  0  0  0  0  0  0  0
  151.1235  142.4647  157.8541 N   0  0  0  0  0  0  0  0  0  0  0  0
  150.3575  141.7443  156.9119 C   0  0  0  0  0  0  0  0  0  0  0  0
  150.9981  140.9770  155.9108 C   0  0  0  0  0  0  0  0  0  0  0  0
  150.2171  140.2661  154.9795 C   0  0  0  0  0  0  0  0  0  0  0  0
  148.8073  140.3468  155.0635 C   0  0  0  0  0  0  0  0  0  0  0  0
  147.9044  139.6685  154.1999 N   0  0  0  0  0  0  0  0  0  0  0  0
  146.5656  139.5569  154.2890 C   0  0  0  0  0  0  0  0  0  0  0  0
  145.8876  140.0081  155.2115 O   0  0  0  0  0  0  0  0  0  0  0  0
  145.8872  138.7774  153.1535 C   0  0  1  0  0  0  0  0  0  0  0  0
  146.7533  138.7411  151.8831 C   0  0  0  0  0  0  0  0  0  0  0  0
  145.5091  137.0490  153.7087 S   0  0  0  0  0  0  0  0  0  0  0  0
  144.8076  136.2670  152.1950 C   0  0  0  0  0  0  0  0  0  0  0  0
  146.7829  136.3832  154.0203 O   0  0  0  0  0  0  0  0  0  0  0  0
  144.4512  137.0945  154.7297 O   0  0  0  0  0  0  0  0  0  0  0  0
  148.2614  141.1300  156.0997 C   0  0  0  0  0  0  0  0  0  0  0  0
  149.0062  141.8124  156.9939 N   0  0  0  0  0  0  0  0  0  0  0  0
  152.0932  141.7277  158.6600 C   0  0  0  0  0  0  0  0  0  0  0  0
  152.5677  142.5844  159.8471 C   0  0  1  0  0  0  0  0  0  0  0  0
  153.6847  141.8952  160.6378 C   0  0  0  0  0  0  0  0  0  0  0  0
  153.0703  143.8308  159.3675 O   0  0  0  0  0  0  0  0  0  0  0  0
  150.3994  145.8762  158.8927 H   0  0  0  0  0  0  0  0  0  0  0  0
  151.4311  145.7497  160.3116 H   0  0  0  0  0  0  0  0  0  0  0  0
  150.3545  144.4239  159.8756 H   0  0  0  0  0  0  0  0  0  0  0  0
  152.6987  145.4383  158.1952 H   0  0  0  0  0  0  0  0  0  0  0  0
  150.8533  144.3366  156.8819 H   0  0  0  0  0  0  0  0  0  0  0  0
  152.4260  143.5978  156.7010 H   0  0  0  0  0  0  0  0  0  0  0  0
  152.0745  140.9335  155.8380 H   0  0  0  0  0  0  0  0  0  0  0  0
  150.7188  139.6715  154.2328 H   0  0  0  0  0  0  0  0  0  0  0  0
  148.3364  139.1767  153.4312 H   0  0  0  0  0  0  0  0  0  0  0  0
  144.9358  139.2513  152.9092 H   0  0  0  0  0  0  0  0  0  0  0  0
  147.0184  139.7467  151.5545 H   0  0  0  0  0  0  0  0  0  0  0  0
  146.2199  138.2587  151.0639 H   0  0  0  0  0  0  0  0  0  0  0  0
  147.6781  138.1855  152.0435 H   0  0  0  0  0  0  0  0  0  0  0  0
  144.6490  135.2051  152.3806 H   0  0  0  0  0  0  0  0  0  0  0  0
  145.5024  136.3875  151.3644 H   0  0  0  0  0  0  0  0  0  0  0  0
  143.8528  136.7290  151.9455 H   0  0  0  0  0  0  0  0  0  0  0  0
  147.1906  141.2157  156.2163 H   0  0  0  0  0  0  0  0  0  0  0  0
  151.6483  140.8062  159.0378 H   0  0  0  0  0  0  0  0  0  0  0  0
  152.9407  141.4478  158.0326 H   0  0  0  0  0  0  0  0  0  0  0  0
  151.7339  142.7609  160.5270 H   0  0  0  0  0  0  0  0  0  0  0  0
  153.3502  140.9366  161.0349 H   0  0  0  0  0  0  0  0  0  0  0  0
  154.0029  142.5108  161.4795 H   0  0  0  0  0  0  0  0  0  0  0  0
  154.5574  141.7120  160.0102 H   0  0  0  0  0  0  0  0  0  0  0  0
  1  2  1  0  0  0  0
  1 24  1  0  0  0  0
  1 25  1  0  0  0  0
  1 26  1  0  0  0  0
  2 23  1  0  0  0  0
  2  3  1  0  0  0  0
  2 27  1  0  0  0  0
  3  4  1  0  0  0  0
  3 28  1  0  0  0  0
  3 29  1  0  0  0  0
  4  5  1  0  0  0  0
  4 20  1  0  0  0  0
  5 19  1  0  0  0  0
  5  6  2  0  0  0  0
  6  7  1  0  0  0  0
  6 30  1  0  0  0  0
  7  8  2  0  0  0  0
  7 31  1  0  0  0  0
  8  9  1  0  0  0  0
  8 18  1  0  0  0  0
  9 10  1  0  0  0  0
  9 32  1  0  0  0  0
 10 11  2  0  0  0  0
 10 12  1  0  0  0  0
 12 13  1  0  0  0  0
 12 14  1  0  0  0  0
 12 33  1  0  0  0  0
 13 34  1  0  0  0  0
 13 35  1  0  0  0  0
 13 36  1  0  0  0  0
 14 15  1  0  0  0  0
 14 16  2  0  0  0  0
 14 17  2  0  0  0  0
 15 37  1  0  0  0  0
 15 38  1  0  0  0  0
 15 39  1  0  0  0  0
 18 19  2  0  0  0  0
 18 40  1  0  0  0  0
 20 21  1  0  0  0  0
 20 41  1  0  0  0  0
 20 42  1  0  0  0  0
 21 22  1  0  0  0  0
 21 23  1  0  0  0  0
 21 43  1  0  0  0  0
 22 44  1  0  0  0  0
 22 45  1  0  0  0  0
 22 46  1  0  0  0  0
M  END
> <s_m_source_file>
AV-unprocessed.smi

> <i_m_source_file_index>
1990

> <i_lp_mmshare_version>
43012

> <i_f3d_flags>
0

> <s_epik_input>
W0NIM11bQ0BASF0xW0NIMl1OKFtDSDJdW0NASF0oTzEpW0NIM10pYzJbY0hdW2NIXWMoW2NIXW4yKVtOSF1DKD1PKVtDQEhdKFtDSDNdKVMoPU8pKD1PKVtDSDNd

> <s_epik_cmdline>
J2VwaWtfcHl0aG9uJywgJy1waCcsICc3LjAnLCAnLXRuJywgJzgnLCAnLW1hJywgJzIwMCcsICctbWV0YWxfYmluZGluZycsICctaW1hZScsICc8aW5maWxlLm1hZT4nLCAnLW9tYWUnLCAnPG91dGZpbGUubWFlPic=

> <r_lp_tautomer_probability>
1

> <r_epik_Ionization_Penalty>
0.000334888

> <r_epik_Ionization_Penalty_Charging>
0

> <r_epik_Ionization_Penalty_Neutral>
0.000334888

> <r_epik_State_Penalty>
0.000200905

> <r_epik_Charging_Adjusted_Penalty>
0.000200905

> <i_epik_Tot_Q>
0

> <i_epik_Tot_abs_Q>
0

> <r_epik_Metal_State_Penalty>
-0

> <b_epik_Metal_Only>
0

> <s_lp_Force_Field>
OPLS_2005

> <r_lp_Energy>
21.5475

> <b_lp_Chiralities_Consistent>
1

> <s_lp_Variant>
AV-unprocessed.smi:1990-3

> <Gold.Version>
5.8.1

> <Gold.Id.Protein>
6NUR|6NUR_protein|mol2

> <Gold.PLP.Fitness>
37.0089

> <Gold.PLP.PLP>
-38.6944

> <Gold.PLP.part.hbond>
0.0000

> <Gold.PLP.part.metal>
0.0000

> <Gold.PLP.part.buried>
-1.4933

> <Gold.PLP.part.nonpolar>
-37.8674

> <Gold.PLP.part.repulsive>
0.6454

> <Gold.PLP.ligand.clash>
0.0673

> <Gold.PLP.ligand.torsion>
1.0530

> <Gold.PLP.Chemscore.Hbond>
0.0000

> <Gold.PLP.Chemscore.CHOScore>
0.0000

> <Gold.PLP.Chemscore.Metal>
0.0000

> <Gold.PLP.Chemscore.Internal.Correction>
0.4879

> <Gold.Rescore>
     Score         DG    S(hbond)    S(metal)    S(lipo)     H(rot)  DE(clash)    DE(int)     intcor
     11.90     -14.36       0.00        0.00     109.12       1.52       0.12       2.34       ----

> <Gold.Chemscore.Fitness>
11.8957

> <Gold.Chemscore.DG>
-14.3622

> <Gold.Chemscore.ZeroCoef>
-5.4800

> <Gold.Chemscore.Hbond>
0.0000

> <Gold.Chemscore.Metal>
0.0000

> <Gold.Chemscore.Lipo>
109.1236

> <Gold.Chemscore.Internal_Hbond>
0.0000

> <Gold.Chemscore.DEClash>
0.1230

> <Gold.Chemscore.DEInternal>
2.3435

> <Gold.Chemscore.Rot>
1.5177

> <Gold.Chemscore.Internal.Correction>
   9.000000E+99

> <Gold.Chemscore.Hbond.Weighted>
-0.0000

> <Gold.Chemscore.Metal.Weighted>
-0.0000

> <Gold.Chemscore.Lipo.Weighted>
-12.7675

> <Gold.Chemscore.Internal_Hbond.Weighted>
0.0000

> <Gold.Chemscore.DEClash.Weighted>
0.1230

> <Gold.Chemscore.DEInternal.Weighted>
2.3435

> <Gold.Chemscore.Rot.Weighted>
3.8853

> <Gold.Chemscore.Internal.Correction.Weighted>
   9.000000E+99

> <Gold.Protein.RotatedTorsions>
[ 6907 6896 6895 6894 ] final  156.96 input  -60.11 | X-H torsion
[ 7974 7965 7964 7962 ] final  138.62 input  175.53 | X-H torsion
[ 8008 7997 7996 7995 ] final -124.51 input   59.86 | X-H torsion
[ 10167 10162 10161 10158 ] final -105.32 input  -65.29 | X-H torsion
[ 10718 10713 10712 10709 ] final  -55.01 input   66.30 | X-H torsion
[ 10763 10752 10751 10750 ] final   99.99 input  -60.55 | X-H torsion
[ 11005 11000 10999 10996 ] final  -78.99 input  -57.11 | X-H torsion

> <Gold.Protein.ActiveResidues>
 VAL166  LYS551  ARG553  GLY616  TRP617  ASP618  TYR619  PRO620  LYS621  CYS622 
 ASP623  PHE694  ASN695  SER759  ASP760  ASP761  ALA762  ILE779  LEU786  VAL792 
 PHE793  MET794  SER795  GLU796  ALA797  LYS798  CYS799  TRP800  GLU811  SER814 

> <Gold.Protein.RotatedAtoms>
  152.0220  133.3902  159.4261 H   0  0  0  0  0  0  0  0  0  0  0  0  # atno 6907 bound_to 6896
  150.6889  134.3615  159.4962 H   0  0  0  0  0  0  0  0  0  0  0  0  # atno 6908 bound_to 6896
  152.1390  134.9076  160.0605 H   0  0  0  0  0  0  0  0  0  0  0  0  # atno 6909 bound_to 6896
  144.9355  139.4994  143.5597 H   0  0  0  0  0  0  0  0  0  0  0  0  # atno 7974 bound_to 7965
  155.1980  140.0415  157.2912 H   0  0  0  0  0  0  0  0  0  0  0  0  # atno 8008 bound_to 7997
  154.6094  140.2473  155.7660 H   0  0  0  0  0  0  0  0  0  0  0  0  # atno 8009 bound_to 7997
  156.2370  140.2918  156.0348 H   0  0  0  0  0  0  0  0  0  0  0  0  # atno 8010 bound_to 7997
  140.1998  143.3827  152.1139 H   0  0  0  0  0  0  0  0  0  0  0  0  # atno 10167 bound_to 10162
  156.1403  130.4155  150.0114 H   0  0  0  0  0  0  0  0  0  0  0  0  # atno 10718 bound_to 10713
  153.3084  135.4094  155.1314 H   0  0  0  0  0  0  0  0  0  0  0  0  # atno 10763 bound_to 10752
  154.8569  135.3558  154.5757 H   0  0  0  0  0  0  0  0  0  0  0  0  # atno 10764 bound_to 10752
  153.6185  135.7065  153.5378 H   0  0  0  0  0  0  0  0  0  0  0  0  # atno 10765 bound_to 10752
  141.1666  133.7086  156.8054 H   0  0  0  0  0  0  0  0  0  0  0  0  # atno 11005 bound_to 11000
  146.3265  139.8337  142.8903 LP  0  0  0  0  0  0  0  0  0  0  0  0  # atno 17320 bound_to 7965
  145.3073  141.0210  143.3574 LP  0  0  0  0  0  0  0  0  0  0  0  0  # atno 17321 bound_to 7965
  139.5222  144.7055  151.5366 LP  0  0  0  0  0  0  0  0  0  0  0  0  # atno 17342 bound_to 10162
  140.6398  143.8911  150.6681 LP  0  0  0  0  0  0  0  0  0  0  0  0  # atno 17343 bound_to 10162
  156.8001  130.9287  151.3646 LP  0  0  0  0  0  0  0  0  0  0  0  0  # atno 17370 bound_to 10713
  157.6570  130.8933  149.9749 LP  0  0  0  0  0  0  0  0  0  0  0  0  # atno 17371 bound_to 10713
  140.2226  134.8746  157.3393 LP  0  0  0  0  0  0  0  0  0  0  0  0  # atno 17394 bound_to 11000
  140.1972  134.4298  155.7682 LP  0  0  0  0  0  0  0  0  0  0  0  0  # atno 17395 bound_to 11000

$$$$
