AV-unprocessed.smi:2830|AV-procd|sdf|10907|dock9
  -GOLD-   2272015353D 1   1.00000     0.00000
 Structure written by MMmdl.
 28 28  0  0  0  0  0  0  0  0  1 V2000
  154.4953  138.4762  154.6347 C   0  0  0  0  0  0  0  0  0  0  0  0
  153.2069  138.1381  155.1172 O   0  0  0  0  0  0  0  0  0  0  0  0
  152.1694  138.5649  154.2484 C   0  0  0  0  0  0  0  0  0  0  0  0
  150.8253  138.0174  154.7618 C   0  0  1  0  0  0  0  0  0  0  0  0
  149.7857  138.2462  153.7600 N   0  0  0  0  0  0  0  0  0  0  0  0
  148.8969  139.3299  153.8316 C   0  0  0  0  0  0  0  0  0  0  0  0
  149.3123  140.4933  154.5134 C   0  0  0  0  0  0  0  0  0  0  0  0
  148.4298  141.5883  154.5924 C   0  0  0  0  0  0  0  0  0  0  0  0
  147.1618  141.4818  153.9879 C   0  0  0  0  0  0  0  0  0  0  0  0
  146.2164  142.5836  154.0406 C   0  0  0  0  0  0  0  0  0  0  0  0
  145.4634  143.4611  154.0825 N   0  0  0  0  0  0  0  0  0  0  0  0
  146.8341  140.2788  153.3306 C   0  0  0  0  0  0  0  0  0  0  0  0
  147.6761  139.2259  153.2531 N   0  0  0  0  0  0  0  0  0  0  0  0
  150.9837  136.5374  155.1460 C   0  0  0  0  0  0  0  0  0  0  0  0
  150.2696  135.6494  154.4494 N   0  0  0  0  0  0  0  0  0  0  0  0
  151.7267  136.2003  156.0664 O   0  0  0  0  0  0  0  0  0  0  0  0
  155.2521  138.1247  155.3361 H   0  0  0  0  0  0  0  0  0  0  0  0
  154.6071  139.5563  154.5318 H   0  0  0  0  0  0  0  0  0  0  0  0
  154.6900  138.0096  153.6680 H   0  0  0  0  0  0  0  0  0  0  0  0
  152.1444  139.6548  154.1868 H   0  0  0  0  0  0  0  0  0  0  0  0
  152.3778  138.1882  153.2449 H   0  0  0  0  0  0  0  0  0  0  0  0
  150.5692  138.5752  155.6647 H   0  0  0  0  0  0  0  0  0  0  0  0
  149.6246  137.5243  153.0730 H   0  0  0  0  0  0  0  0  0  0  0  0
  150.2906  140.5502  154.9680 H   0  0  0  0  0  0  0  0  0  0  0  0
  148.7268  142.4902  155.1080 H   0  0  0  0  0  0  0  0  0  0  0  0
  145.8732  140.1518  152.8529 H   0  0  0  0  0  0  0  0  0  0  0  0
  150.3335  134.6663  154.6706 H   0  0  0  0  0  0  0  0  0  0  0  0
  149.6611  135.9666  153.7088 H   0  0  0  0  0  0  0  0  0  0  0  0
  1  2  1  0  0  0  0
  1 17  1  0  0  0  0
  1 18  1  0  0  0  0
  1 19  1  0  0  0  0
  2  3  1  0  0  0  0
  3  4  1  0  0  0  0
  3 20  1  0  0  0  0
  3 21  1  0  0  0  0
  4  5  1  0  0  0  0
  4 14  1  0  0  0  0
  4 22  1  0  0  0  0
  5  6  1  0  0  0  0
  5 23  1  0  0  0  0
  6 13  1  0  0  0  0
  6  7  2  0  0  0  0
  7  8  1  0  0  0  0
  7 24  1  0  0  0  0
  8  9  2  0  0  0  0
  8 25  1  0  0  0  0
  9 10  1  0  0  0  0
  9 12  1  0  0  0  0
 10 11  3  0  0  0  0
 12 13  2  0  0  0  0
 12 26  1  0  0  0  0
 14 15  1  0  0  0  0
 14 16  2  0  0  0  0
 15 27  1  0  0  0  0
 15 28  1  0  0  0  0
M  END
> <s_m_source_file>
AV-unprocessed.smi

> <i_m_source_file_index>
2830

> <i_lp_mmshare_version>
43012

> <i_f3d_flags>
0

> <s_epik_input>
W0NIM11PW0NIMl1bQ0BASF0oQyg9TylbTkgyXSlbTkhdYzFbY0hdW2NIXWMoQyNOKVtjSF1uMQ==

> <s_epik_cmdline>
J2VwaWtfcHl0aG9uJywgJy1waCcsICc3LjAnLCAnLXRuJywgJzgnLCAnLW1hJywgJzIwMCcsICctbWV0YWxfYmluZGluZycsICctaW1hZScsICc8aW5maWxlLm1hZT4nLCAnLW9tYWUnLCAnPG91dGZpbGUubWFlPic=

> <r_lp_tautomer_probability>
1

> <r_epik_Ionization_Penalty>
4.37908e-06

> <r_epik_Ionization_Penalty_Charging>
0

> <r_epik_Ionization_Penalty_Neutral>
4.37908e-06

> <r_epik_State_Penalty>
-0

> <r_epik_Charging_Adjusted_Penalty>
0

> <i_epik_Tot_Q>
0

> <i_epik_Tot_abs_Q>
0

> <r_epik_Metal_State_Penalty>
-0

> <b_epik_Metal_Only>
0

> <s_lp_Force_Field>
OPLS_2005

> <r_lp_Energy>
3.76959

> <b_lp_Chiralities_Consistent>
1

> <s_lp_Variant>
AV-unprocessed.smi:2830-2

> <Gold.Version>
5.8.1

> <Gold.Id.Protein>
6NUR|6NUR_protein|mol2

> <Gold.PLP.Fitness>
38.1318

> <Gold.PLP.PLP>
-27.2513

> <Gold.PLP.part.hbond>
-5.2163

> <Gold.PLP.part.metal>
0.0000

> <Gold.PLP.part.buried>
1.3609

> <Gold.PLP.part.nonpolar>
-24.1127

> <Gold.PLP.part.repulsive>
1.7492

> <Gold.PLP.ligand.clash>
0.0000

> <Gold.PLP.ligand.torsion>
0.5757

> <Gold.PLP.Chemscore.Hbond>
3.0000

> <Gold.PLP.Chemscore.CHOScore>
1.0000

> <Gold.PLP.Chemscore.Metal>
0.0000

> <Gold.Chemscore.Hbonds>
donor molecule, donor type, donor heavy atom, donor atom, acceptor molecule, acceptor atom, score
      L1  H     5    23       P1  7948  1.00
      L1  H    15    28       P1  7948  1.00
      P1  H 10752 10763       L1    16  1.00
      L1  C    12    26       P1 10175  1.00

> <Gold.PLP.Chemscore.Internal.Correction>
0.0319

> <Gold.Rescore>
     Score         DG    S(hbond)    S(metal)    S(lipo)     H(rot)  DE(clash)    DE(int)     intcor
      9.99     -13.46       2.47        0.00      48.57       2.32       1.48       1.99       ----

> <Gold.Chemscore.Fitness>
9.9899

> <Gold.Chemscore.DG>
-13.4621

> <Gold.Chemscore.ZeroCoef>
-5.4800

> <Gold.Chemscore.Hbond>
2.4665

> <Gold.Chemscore.Metal>
0.0000

> <Gold.Chemscore.Lipo>
48.5676

> <Gold.Chemscore.Internal_Hbond>
0.0000

> <Gold.Chemscore.DEClash>
1.4840

> <Gold.Chemscore.DEInternal>
1.9883

> <Gold.Chemscore.Rot>
2.3197

> <Gold.Chemscore.Internal.Correction>
   9.000000E+99

> <Gold.Chemscore.Hbonds>
donor molecule, donor type, donor heavy atom, donor atom, acceptor molecule, acceptor atom, score
      L1  H     5    23       P1  7948  0.74
      L1  H    15    28       P1  7948  0.29
      P1  H 10752 10763       L1    16  0.26

> <Gold.Chemscore.Hbond.Weighted>
-8.2381

> <Gold.Chemscore.Metal.Weighted>
-0.0000

> <Gold.Chemscore.Lipo.Weighted>
-5.6824

> <Gold.Chemscore.Internal_Hbond.Weighted>
0.0000

> <Gold.Chemscore.DEClash.Weighted>
1.4840

> <Gold.Chemscore.DEInternal.Weighted>
1.9883

> <Gold.Chemscore.Rot.Weighted>
5.9384

> <Gold.Chemscore.Internal.Correction.Weighted>
   9.000000E+99

> <Gold.Protein.RotatedTorsions>
[ 6907 6896 6895 6894 ] final  115.85 input  -60.11 | X-H torsion
[ 7974 7965 7964 7962 ] final   78.40 input  175.53 | X-H torsion
[ 8008 7997 7996 7995 ] final  164.49 input   59.86 | X-H torsion
[ 10167 10162 10161 10158 ] final -158.84 input  -65.29 | X-H torsion
[ 10718 10713 10712 10709 ] final  117.32 input   66.30 | X-H torsion
[ 10763 10752 10751 10750 ] final   92.90 input  -60.55 | X-H torsion
[ 11005 11000 10999 10996 ] final   66.85 input  -57.11 | X-H torsion

> <Gold.Protein.ActiveResidues>
 VAL166  LYS551  ARG553  GLY616  TRP617  ASP618  TYR619  PRO620  LYS621  CYS622 
 ASP623  PHE694  ASN695  SER759  ASP760  ASP761  ALA762  ILE779  LEU786  VAL792 
 PHE793  MET794  SER795  GLU796  ALA797  LYS798  CYS799  TRP800  GLU811  SER814 

> <Gold.Protein.RotatedAtoms>
  152.4716  133.8042  159.6968 H   0  0  0  0  0  0  0  0  0  0  0  0  # atno 6907 bound_to 6896
  150.8708  133.7499  159.2968 H   0  0  0  0  0  0  0  0  0  0  0  0  # atno 6908 bound_to 6896
  151.5034  135.1066  159.9887 H   0  0  0  0  0  0  0  0  0  0  0  0  # atno 6909 bound_to 6896
  145.6776  139.2514  143.1832 H   0  0  0  0  0  0  0  0  0  0  0  0  # atno 7974 bound_to 7965
  156.1876  140.1695  156.8155 H   0  0  0  0  0  0  0  0  0  0  0  0  # atno 8008 bound_to 7997
  154.5432  140.0732  156.8577 H   0  0  0  0  0  0  0  0  0  0  0  0  # atno 8009 bound_to 7997
  155.3173  140.3371  155.4244 H   0  0  0  0  0  0  0  0  0  0  0  0  # atno 8010 bound_to 7997
  139.6661  143.9827  152.2255 H   0  0  0  0  0  0  0  0  0  0  0  0  # atno 10167 bound_to 10162
  157.6104  131.1036  150.7598 H   0  0  0  0  0  0  0  0  0  0  0  0  # atno 10718 bound_to 10713
  153.2243  135.4344  155.0525 H   0  0  0  0  0  0  0  0  0  0  0  0  # atno 10763 bound_to 10752
  154.8266  135.3364  154.6880 H   0  0  0  0  0  0  0  0  0  0  0  0  # atno 10764 bound_to 10752
  153.7311  135.7011  153.5045 H   0  0  0  0  0  0  0  0  0  0  0  0  # atno 10765 bound_to 10752
  139.9807  134.6749  156.0269 H   0  0  0  0  0  0  0  0  0  0  0  0  # atno 11005 bound_to 11000
  146.0992  140.7564  142.9557 LP  0  0  0  0  0  0  0  0  0  0  0  0  # atno 17320 bound_to 7965
  144.7036  140.3760  143.7136 LP  0  0  0  0  0  0  0  0  0  0  0  0  # atno 17321 bound_to 7965
  139.9579  144.6577  150.8108 LP  0  0  0  0  0  0  0  0  0  0  0  0  # atno 17342 bound_to 10162
  140.7600  143.3141  151.2776 LP  0  0  0  0  0  0  0  0  0  0  0  0  # atno 17343 bound_to 10162
  156.7976  130.4910  149.5375 LP  0  0  0  0  0  0  0  0  0  0  0  0  # atno 17370 bound_to 10713
  156.1205  130.6106  151.0186 LP  0  0  0  0  0  0  0  0  0  0  0  0  # atno 17371 bound_to 10713
  141.1479  133.6553  156.3923 LP  0  0  0  0  0  0  0  0  0  0  0  0  # atno 17394 bound_to 11000
  140.5103  134.6401  157.5282 LP  0  0  0  0  0  0  0  0  0  0  0  0  # atno 17395 bound_to 11000

$$$$
