AV-unprocessed.smi:1972|AV-procd|sdf|7975|dock7
  -GOLD-   2272010153D 1   1.00000     0.00000
 Structure written by MMmdl.
 44 45  0  0  0  0  0  0  0  0  1 V2000
  149.6548  131.7990  154.2824 C   0  0  0  0  0  0  0  0  0  0  0  0
  149.5039  133.5460  153.8284 S   0  0  0  0  0  0  0  0  0  0  0  0
  148.6832  134.1748  155.3217 C   0  0  0  0  0  0  0  0  0  0  0  0
  148.4550  135.6957  155.2646 C   0  0  0  0  0  0  0  0  0  0  0  0
  149.7566  136.5010  155.3301 C   0  0  0  0  0  0  0  0  0  0  0  0
  150.4137  136.5350  156.3706 O   0  0  0  0  0  0  0  0  0  0  0  0
  150.1138  137.1476  154.2111 N   0  0  0  0  0  0  0  0  0  0  0  0
  151.3269  137.9429  154.0581 C   0  0  0  0  0  0  0  0  0  0  0  0
  151.5223  138.9697  155.1624 C   0  0  0  0  0  0  0  0  0  0  0  0
  150.7136  140.1208  155.2699 C   0  0  0  0  0  0  0  0  0  0  0  0
  150.9596  141.0343  156.3127 C   0  0  0  0  0  0  0  0  0  0  0  0
  152.0122  140.7778  157.2235 C   0  0  0  0  0  0  0  0  0  0  0  0
  152.2755  141.6787  158.2785 N   0  0  0  0  0  0  0  0  0  0  0  0
  152.3670  141.1403  159.6341 C   0  0  0  0  0  0  0  0  0  0  0  0
  152.9425  142.1966  160.5912 C   0  0  0  0  0  0  0  0  0  0  0  0
  152.1609  143.3843  160.5194 O   0  0  0  0  0  0  0  0  0  0  0  0
  152.1756  143.9586  159.2154 C   0  0  2  0  0  0  0  0  0  0  0  0
  151.3898  145.2733  159.2598 C   0  0  0  0  0  0  0  0  0  0  0  0
  151.5722  142.9572  158.2114 C   0  0  0  0  0  0  0  0  0  0  0  0
  152.7966  139.6778  157.1066 N   0  0  0  0  0  0  0  0  0  0  0  0
  152.5563  138.8050  156.1056 C   0  0  0  0  0  0  0  0  0  0  0  0
  150.1378  131.2422  153.4795 H   0  0  0  0  0  0  0  0  0  0  0  0
  148.6709  131.3657  154.4619 H   0  0  0  0  0  0  0  0  0  0  0  0
  150.2538  131.6911  155.1868 H   0  0  0  0  0  0  0  0  0  0  0  0
  147.7235  133.6670  155.4208 H   0  0  0  0  0  0  0  0  0  0  0  0
  149.2713  133.9003  156.1983 H   0  0  0  0  0  0  0  0  0  0  0  0
  147.8888  135.9555  154.3689 H   0  0  0  0  0  0  0  0  0  0  0  0
  147.8408  135.9981  156.1132 H   0  0  0  0  0  0  0  0  0  0  0  0
  149.5119  137.0710  153.4040 H   0  0  0  0  0  0  0  0  0  0  0  0
  152.1832  137.2677  154.0321 H   0  0  0  0  0  0  0  0  0  0  0  0
  151.3120  138.4766  153.1061 H   0  0  0  0  0  0  0  0  0  0  0  0
  149.9185  140.3131  154.5649 H   0  0  0  0  0  0  0  0  0  0  0  0
  150.3522  141.9235  156.3903 H   0  0  0  0  0  0  0  0  0  0  0  0
  151.3747  140.8347  159.9692 H   0  0  0  0  0  0  0  0  0  0  0  0
  153.0046  140.2553  159.6489 H   0  0  0  0  0  0  0  0  0  0  0  0
  152.9277  141.8227  161.6150 H   0  0  0  0  0  0  0  0  0  0  0  0
  153.9832  142.4167  160.3478 H   0  0  0  0  0  0  0  0  0  0  0  0
  153.2069  144.1815  158.9354 H   0  0  0  0  0  0  0  0  0  0  0  0
  151.3842  145.7602  158.2843 H   0  0  0  0  0  0  0  0  0  0  0  0
  151.8320  145.9672  159.9749 H   0  0  0  0  0  0  0  0  0  0  0  0
  150.3541  145.1039  159.5561 H   0  0  0  0  0  0  0  0  0  0  0  0
  151.6157  143.3878  157.2123 H   0  0  0  0  0  0  0  0  0  0  0  0
  150.5184  142.7878  158.4370 H   0  0  0  0  0  0  0  0  0  0  0  0
  153.2109  137.9471  156.0593 H   0  0  0  0  0  0  0  0  0  0  0  0
  1  2  1  0  0  0  0
  1 22  1  0  0  0  0
  1 23  1  0  0  0  0
  1 24  1  0  0  0  0
  2  3  1  0  0  0  0
  3  4  1  0  0  0  0
  3 25  1  0  0  0  0
  3 26  1  0  0  0  0
  4  5  1  0  0  0  0
  4 27  1  0  0  0  0
  4 28  1  0  0  0  0
  5  6  2  0  0  0  0
  5  7  1  0  0  0  0
  7  8  1  0  0  0  0
  7 29  1  0  0  0  0
  8  9  1  0  0  0  0
  8 30  1  0  0  0  0
  8 31  1  0  0  0  0
  9 21  1  0  0  0  0
  9 10  2  0  0  0  0
 10 11  1  0  0  0  0
 10 32  1  0  0  0  0
 11 12  2  0  0  0  0
 11 33  1  0  0  0  0
 12 13  1  0  0  0  0
 12 20  1  0  0  0  0
 13 19  1  0  0  0  0
 13 14  1  0  0  0  0
 14 15  1  0  0  0  0
 14 34  1  0  0  0  0
 14 35  1  0  0  0  0
 15 16  1  0  0  0  0
 15 36  1  0  0  0  0
 15 37  1  0  0  0  0
 16 17  1  0  0  0  0
 17 18  1  0  0  0  0
 17 19  1  0  0  0  0
 17 38  1  0  0  0  0
 18 39  1  0  0  0  0
 18 40  1  0  0  0  0
 18 41  1  0  0  0  0
 19 42  1  0  0  0  0
 19 43  1  0  0  0  0
 20 21  2  0  0  0  0
 21 44  1  0  0  0  0
M  END
> <s_m_source_file>
AV-unprocessed.smi

> <i_m_source_file_index>
1972

> <i_lp_mmshare_version>
43012

> <i_f3d_flags>
0

> <s_epik_input>
W0NIM11TW0NIMl1bQ0gyXUMoPU8pW05IXVtDSDJdYzFbY0hdW2NIXWMobltjSF0xKU4yW0NIMl1bQ0gyXU9bQ0BASF0oW0NIM10pW0NIMl0y

> <s_epik_cmdline>
J2VwaWtfcHl0aG9uJywgJy1waCcsICc3LjAnLCAnLXRuJywgJzgnLCAnLW1hJywgJzIwMCcsICctbWV0YWxfYmluZGluZycsICctaW1hZScsICc8aW5maWxlLm1hZT4nLCAnLW9tYWUnLCAnPG91dGZpbGUubWFlPic=

> <r_lp_tautomer_probability>
1

> <r_epik_Ionization_Penalty>
0.00559088

> <r_epik_Ionization_Penalty_Charging>
0

> <r_epik_Ionization_Penalty_Neutral>
0.00559088

> <r_epik_State_Penalty>
0.00409544

> <r_epik_Charging_Adjusted_Penalty>
0.00409544

> <i_epik_Tot_Q>
0

> <i_epik_Tot_abs_Q>
0

> <r_epik_Metal_State_Penalty>
-0

> <b_epik_Metal_Only>
0

> <s_lp_Force_Field>
OPLS_2005

> <r_lp_Energy>
17.9422

> <b_lp_Chiralities_Consistent>
1

> <s_lp_Variant>
AV-unprocessed.smi:1972-2

> <Gold.Version>
5.8.1

> <Gold.Id.Protein>
6NUR|6NUR_protein|mol2

> <Gold.PLP.Fitness>
47.9507

> <Gold.PLP.PLP>
-42.4003

> <Gold.PLP.part.hbond>
-2.5188

> <Gold.PLP.part.metal>
0.0000

> <Gold.PLP.part.buried>
-3.9106

> <Gold.PLP.part.nonpolar>
-35.8620

> <Gold.PLP.part.repulsive>
0.1063

> <Gold.PLP.ligand.clash>
0.0000

> <Gold.PLP.ligand.torsion>
0.4080

> <Gold.PLP.Chemscore.Hbond>
2.0000

> <Gold.PLP.Chemscore.CHOScore>
0.0000

> <Gold.PLP.Chemscore.Metal>
0.0000

> <Gold.Chemscore.Hbonds>
donor molecule, donor type, donor heavy atom, donor atom, acceptor molecule, acceptor atom, score
      L1  H     7    29       P1  7948  1.00
      P1  H  7997  8009       L1    20  0.95

> <Gold.PLP.Chemscore.Internal.Correction>
0.3665

> <Gold.Rescore>
     Score         DG    S(hbond)    S(metal)    S(lipo)     H(rot)  DE(clash)    DE(int)     intcor
     17.12     -19.01       1.61        0.00     107.79       1.75       0.36       1.53       ----

> <Gold.Chemscore.Fitness>
17.1219

> <Gold.Chemscore.DG>
-19.0126

> <Gold.Chemscore.ZeroCoef>
-5.4800

> <Gold.Chemscore.Hbond>
1.6141

> <Gold.Chemscore.Metal>
0.0000

> <Gold.Chemscore.Lipo>
107.7866

> <Gold.Chemscore.Internal_Hbond>
0.0000

> <Gold.Chemscore.DEClash>
0.3632

> <Gold.Chemscore.DEInternal>
1.5275

> <Gold.Chemscore.Rot>
1.7460

> <Gold.Chemscore.Internal.Correction>
   9.000000E+99

> <Gold.Chemscore.Hbonds>
donor molecule, donor type, donor heavy atom, donor atom, acceptor molecule, acceptor atom, score
      L1  H     7    29       P1  7948  0.81
      P1  H  7997  8009       L1    20  0.18

> <Gold.Chemscore.Hbond.Weighted>
-5.3912

> <Gold.Chemscore.Metal.Weighted>
-0.0000

> <Gold.Chemscore.Lipo.Weighted>
-12.6110

> <Gold.Chemscore.Internal_Hbond.Weighted>
0.0000

> <Gold.Chemscore.DEClash.Weighted>
0.3632

> <Gold.Chemscore.DEInternal.Weighted>
1.5275

> <Gold.Chemscore.Rot.Weighted>
4.4697

> <Gold.Chemscore.Internal.Correction.Weighted>
   9.000000E+99

> <Gold.Protein.RotatedTorsions>
[ 6907 6896 6895 6894 ] final  -18.85 input  -60.11 | X-H torsion
[ 7974 7965 7964 7962 ] final  -11.03 input  175.53 | X-H torsion
[ 8008 7997 7996 7995 ] final  172.88 input   59.86 | X-H torsion
[ 10167 10162 10161 10158 ] final   70.37 input  -65.29 | X-H torsion
[ 10718 10713 10712 10709 ] final  157.02 input   66.30 | X-H torsion
[ 10763 10752 10751 10750 ] final  117.27 input  -60.55 | X-H torsion
[ 11005 11000 10999 10996 ] final   12.75 input  -57.11 | X-H torsion

> <Gold.Protein.ActiveResidues>
 VAL166  LYS551  ARG553  GLY616  TRP617  ASP618  TYR619  PRO620  LYS621  CYS622 
 ASP623  PHE694  ASN695  SER759  ASP760  ASP761  ALA762  ILE779  LEU786  VAL792 
 PHE793  MET794  SER795  GLU796  ALA797  LYS798  CYS799  TRP800  GLU811  SER814 

> <Gold.Protein.RotatedAtoms>
  151.2719  135.0687  159.9136 H   0  0  0  0  0  0  0  0  0  0  0  0  # atno 6907 bound_to 6896
  152.5349  134.0121  159.7953 H   0  0  0  0  0  0  0  0  0  0  0  0  # atno 6908 bound_to 6896
  151.0361  133.5697  159.2686 H   0  0  0  0  0  0  0  0  0  0  0  0  # atno 6909 bound_to 6896
  146.2201  140.2851  142.8365 H   0  0  0  0  0  0  0  0  0  0  0  0  # atno 7974 bound_to 7965
  156.1131  140.1474  156.9311 H   0  0  0  0  0  0  0  0  0  0  0  0  # atno 8008 bound_to 7997
  154.4781  140.0888  156.7353 H   0  0  0  0  0  0  0  0  0  0  0  0  # atno 8009 bound_to 7997
  155.4562  140.3436  155.4309 H   0  0  0  0  0  0  0  0  0  0  0  0  # atno 8010 bound_to 7997
  140.0577  144.5259  150.7317 H   0  0  0  0  0  0  0  0  0  0  0  0  # atno 10167 bound_to 10162
  157.1972  131.0668  151.2046 H   0  0  0  0  0  0  0  0  0  0  0  0  # atno 10718 bound_to 10713
  153.5499  135.3542  155.2755 H   0  0  0  0  0  0  0  0  0  0  0  0  # atno 10763 bound_to 10752
  154.8708  135.4111  154.2949 H   0  0  0  0  0  0  0  0  0  0  0  0  # atno 10764 bound_to 10752
  153.3673  135.7062  153.6734 H   0  0  0  0  0  0  0  0  0  0  0  0  # atno 10765 bound_to 10752
  140.4884  134.0864  155.7766 H   0  0  0  0  0  0  0  0  0  0  0  0  # atno 11005 bound_to 11000
  144.9168  140.7822  143.5773 LP  0  0  0  0  0  0  0  0  0  0  0  0  # atno 17320 bound_to 7965
  145.2785  139.1927  143.4803 LP  0  0  0  0  0  0  0  0  0  0  0  0  # atno 17321 bound_to 7965
  140.7187  143.2568  151.4351 LP  0  0  0  0  0  0  0  0  0  0  0  0  # atno 17342 bound_to 10162
  139.5913  144.1493  152.2091 LP  0  0  0  0  0  0  0  0  0  0  0  0  # atno 17343 bound_to 10162
  157.3803  130.7227  149.6625 LP  0  0  0  0  0  0  0  0  0  0  0  0  # atno 17370 bound_to 10713
  155.9704  130.4174  150.4279 LP  0  0  0  0  0  0  0  0  0  0  0  0  # atno 17371 bound_to 10713
  141.1496  133.8993  157.2131 LP  0  0  0  0  0  0  0  0  0  0  0  0  # atno 17394 bound_to 11000
  139.9784  135.0106  156.9688 LP  0  0  0  0  0  0  0  0  0  0  0  0  # atno 17395 bound_to 11000

$$$$
