AV-unprocessed.smi:412|AV-procd|sdf|2510|dock7
  -GOLD-   2262022463D 1   1.00000     0.00000
 Structure written by MMmdl.
 36 38  0  0  0  0  0  0  0  0  1 V2000
  153.5801  140.5379  160.2279 C   0  0  0  0  0  0  0  0  0  0  0  0
  152.7553  141.3080  159.3048 N   0  0  0  0  0  0  0  0  0  0  0  0
  152.3351  140.9292  158.0747 C   0  0  0  0  0  0  0  0  0  0  0  0
  152.5805  139.8561  157.5242 O   0  0  0  0  0  0  0  0  0  0  0  0
  151.5957  141.9382  157.5561 N   0  0  0  0  0  0  0  0  0  0  0  0
  150.9353  141.9536  156.2526 C   0  0  0  0  0  0  0  0  0  0  0  0
  150.5633  140.5344  155.7794 C   0  0  2  0  0  0  0  0  0  0  0  0
  151.6567  139.9921  155.0652 O   0  0  0  0  0  0  0  0  0  0  0  0
  149.3027  140.5610  154.9283 C   0  0  0  0  0  0  0  0  0  0  0  0
  148.7716  139.3562  154.4197 C   0  0  0  0  0  0  0  0  0  0  0  0
  147.5987  139.3703  153.6397 C   0  0  0  0  0  0  0  0  0  0  0  0
  146.9489  140.5893  153.3659 C   0  0  0  0  0  0  0  0  0  0  0  0
  147.4707  141.7939  153.8750 C   0  0  0  0  0  0  0  0  0  0  0  0
  148.6432  141.7800  154.6551 C   0  0  0  0  0  0  0  0  0  0  0  0
  151.5351  142.9877  158.4843 C   0  0  0  0  0  0  0  0  0  0  0  0
  150.8914  144.2365  158.4301 C   0  0  0  0  0  0  0  0  0  0  0  0
  151.0267  145.0821  159.5562 C   0  0  0  0  0  0  0  0  0  0  0  0
  151.7833  144.6741  160.6857 C   0  0  0  0  0  0  0  0  0  0  0  0
  152.4195  143.4108  160.7141 C   0  0  0  0  0  0  0  0  0  0  0  0
  152.2672  142.5908  159.5830 C   0  0  0  0  0  0  0  0  0  0  0  0
  153.8046  139.5417  159.8447 H   0  0  0  0  0  0  0  0  0  0  0  0
  153.0684  140.4219  161.1836 H   0  0  0  0  0  0  0  0  0  0  0  0
  154.5251  141.0520  160.4056 H   0  0  0  0  0  0  0  0  0  0  0  0
  150.0278  142.5490  156.3632 H   0  0  0  0  0  0  0  0  0  0  0  0
  151.5382  142.4726  155.5054 H   0  0  0  0  0  0  0  0  0  0  0  0
  150.3809  139.8908  156.6414 H   0  0  0  0  0  0  0  0  0  0  0  0
  152.4404  140.1152  155.5786 H   0  0  0  0  0  0  0  0  0  0  0  0
  149.2602  138.4156  154.6282 H   0  0  0  0  0  0  0  0  0  0  0  0
  147.1964  138.4458  153.2527 H   0  0  0  0  0  0  0  0  0  0  0  0
  146.0494  140.5998  152.7678 H   0  0  0  0  0  0  0  0  0  0  0  0
  146.9707  142.7288  153.6687 H   0  0  0  0  0  0  0  0  0  0  0  0
  149.0329  142.7087  155.0463 H   0  0  0  0  0  0  0  0  0  0  0  0
  150.3161  144.5404  157.5679 H   0  0  0  0  0  0  0  0  0  0  0  0
  150.5477  146.0501  159.5564 H   0  0  0  0  0  0  0  0  0  0  0  0
  151.8739  145.3355  161.5347 H   0  0  0  0  0  0  0  0  0  0  0  0
  152.9958  143.0919  161.5700 H   0  0  0  0  0  0  0  0  0  0  0  0
  1  2  1  0  0  0  0
  1 21  1  0  0  0  0
  1 22  1  0  0  0  0
  1 23  1  0  0  0  0
  2 20  1  0  0  0  0
  2  3  1  0  0  0  0
  3  4  2  0  0  0  0
  3  5  1  0  0  0  0
  5  6  1  0  0  0  0
  5 15  1  0  0  0  0
  6  7  1  0  0  0  0
  6 24  1  0  0  0  0
  6 25  1  0  0  0  0
  7  8  1  0  0  0  0
  7  9  1  0  0  0  0
  7 26  1  0  0  0  0
  8 27  1  0  0  0  0
  9 14  1  0  0  0  0
  9 10  2  0  0  0  0
 10 11  1  0  0  0  0
 10 28  1  0  0  0  0
 11 12  2  0  0  0  0
 11 29  1  0  0  0  0
 12 13  1  0  0  0  0
 12 30  1  0  0  0  0
 13 14  2  0  0  0  0
 13 31  1  0  0  0  0
 14 32  1  0  0  0  0
 15 20  2  0  0  0  0
 15 16  1  0  0  0  0
 16 17  2  0  0  0  0
 16 33  1  0  0  0  0
 17 18  1  0  0  0  0
 17 34  1  0  0  0  0
 18 19  2  0  0  0  0
 18 35  1  0  0  0  0
 19 20  1  0  0  0  0
 19 36  1  0  0  0  0
M  END
> <s_m_source_file>
AV-unprocessed.smi

> <i_m_source_file_index>
412

> <i_lp_mmshare_version>
43012

> <i_f3d_flags>
0

> <s_epik_input>
W2NIXTFbY0hdW2NIXVtjSF1jKGMxMiluKFtDSDNdKWMoPU8pbjJbQ0gyXVtDQEhdKFtPSF0pYzNbY0hdW2NIXVtjSF1bY0hdW2NIXTM=

> <s_epik_cmdline>
J2VwaWtfcHl0aG9uJywgJy1waCcsICc3LjAnLCAnLXRuJywgJzgnLCAnLW1hJywgJzIwMCcsICctbWV0YWxfYmluZGluZycsICctaW1hZScsICc8aW5maWxlLm1hZT4nLCAnLW9tYWUnLCAnPG91dGZpbGUubWFlPic=

> <r_lp_tautomer_probability>
1

> <r_epik_Ionization_Penalty>
1.34619e-06

> <r_epik_Ionization_Penalty_Charging>
2.57375e-09

> <r_epik_Ionization_Penalty_Neutral>
1.34362e-06

> <r_epik_State_Penalty>
-0

> <r_epik_Charging_Adjusted_Penalty>
2.57375e-09

> <i_epik_Tot_Q>
0

> <i_epik_Tot_abs_Q>
0

> <r_epik_Metal_State_Penalty>
-0

> <b_epik_Metal_Only>
0

> <s_lp_Force_Field>
OPLS_2005

> <r_lp_Energy>
43.7895

> <b_lp_Chiralities_Consistent>
1

> <s_lp_Variant>
AV-unprocessed.smi:412-1

> <Gold.Version>
5.8.1

> <Gold.Id.Protein>
6NUR|6NUR_protein|mol2

> <Gold.PLP.Fitness>
53.9279

> <Gold.PLP.PLP>
-49.4863

> <Gold.PLP.part.hbond>
-2.0000

> <Gold.PLP.part.metal>
0.0000

> <Gold.PLP.part.buried>
-5.5738

> <Gold.PLP.part.nonpolar>
-41.1228

> <Gold.PLP.part.repulsive>
0.0000

> <Gold.PLP.ligand.clash>
0.0000

> <Gold.PLP.ligand.torsion>
0.7466

> <Gold.PLP.Chemscore.Hbond>
1.9760

> <Gold.PLP.Chemscore.CHOScore>
0.0000

> <Gold.PLP.Chemscore.Metal>
0.0000

> <Gold.Chemscore.Hbonds>
donor molecule, donor type, donor heavy atom, donor atom, acceptor molecule, acceptor atom, score
      P1  H  7989  7998       L1     8  1.00
      P1  H  7997  8008       L1     4  1.00

> <Gold.PLP.Chemscore.Internal.Correction>
0.0068

> <Gold.Rescore>
     Score         DG    S(hbond)    S(metal)    S(lipo)     H(rot)  DE(clash)    DE(int)     intcor
     18.65     -20.97       1.54        0.00     126.92       1.76       0.07       2.26       ----

> <Gold.Chemscore.Fitness>
18.6499

> <Gold.Chemscore.DG>
-20.9725

> <Gold.Chemscore.ZeroCoef>
-5.4800

> <Gold.Chemscore.Hbond>
1.5380

> <Gold.Chemscore.Metal>
0.0000

> <Gold.Chemscore.Lipo>
126.9216

> <Gold.Chemscore.Internal_Hbond>
0.0000

> <Gold.Chemscore.DEClash>
0.0663

> <Gold.Chemscore.DEInternal>
2.2563

> <Gold.Chemscore.Rot>
1.7555

> <Gold.Chemscore.Internal.Correction>
   9.000000E+99

> <Gold.Chemscore.Hbonds>
donor molecule, donor type, donor heavy atom, donor atom, acceptor molecule, acceptor atom, score
      P1  H  7989  7998       L1     8  0.42
      P1  H  7997  8008       L1     4  0.47

> <Gold.Chemscore.Hbond.Weighted>
-5.1369

> <Gold.Chemscore.Metal.Weighted>
-0.0000

> <Gold.Chemscore.Lipo.Weighted>
-14.8498

> <Gold.Chemscore.Internal_Hbond.Weighted>
0.0000

> <Gold.Chemscore.DEClash.Weighted>
0.0663

> <Gold.Chemscore.DEInternal.Weighted>
2.2563

> <Gold.Chemscore.Rot.Weighted>
4.4942

> <Gold.Chemscore.Internal.Correction.Weighted>
   9.000000E+99

> <Gold.Protein.RotatedTorsions>
[ 6907 6896 6895 6894 ] final  149.98 input  -60.11 | X-H torsion
[ 7974 7965 7964 7962 ] final  132.41 input  175.53 | X-H torsion
[ 8008 7997 7996 7995 ] final  -61.93 input   59.86 | X-H torsion
[ 10167 10162 10161 10158 ] final  -38.07 input  -65.29 | X-H torsion
[ 10718 10713 10712 10709 ] final -106.37 input   66.30 | X-H torsion
[ 10763 10752 10751 10750 ] final  -43.58 input  -60.55 | X-H torsion
[ 11005 11000 10999 10996 ] final  139.08 input  -57.11 | X-H torsion

> <Gold.Protein.ActiveResidues>
 VAL166  LYS551  ARG553  GLY616  TRP617  ASP618  TYR619  PRO620  LYS621  CYS622 
 ASP623  PHE694  ASN695  SER759  ASP760  ASP761  ALA762  ILE779  LEU786  VAL792 
 PHE793  MET794  SER795  GLU796  ALA797  LYS798  CYS799  TRP800  GLU811  SER814 

> <Gold.Protein.RotatedAtoms>
  152.1206  133.4351  159.4673 H   0  0  0  0  0  0  0  0  0  0  0  0  # atno 6907 bound_to 6896
  150.6872  134.2539  159.4531 H   0  0  0  0  0  0  0  0  0  0  0  0  # atno 6908 bound_to 6896
  152.0415  134.9708  160.0624 H   0  0  0  0  0  0  0  0  0  0  0  0  # atno 6909 bound_to 6896
  144.9971  139.4348  143.5310 H   0  0  0  0  0  0  0  0  0  0  0  0  # atno 7974 bound_to 7965
  154.4473  140.1007  156.6508 H   0  0  0  0  0  0  0  0  0  0  0  0  # atno 8008 bound_to 7997
  155.5399  140.3483  155.4426 H   0  0  0  0  0  0  0  0  0  0  0  0  # atno 8009 bound_to 7997
  156.0604  140.1325  156.9937 H   0  0  0  0  0  0  0  0  0  0  0  0  # atno 8010 bound_to 7997
  140.7102  143.3301  151.2589 H   0  0  0  0  0  0  0  0  0  0  0  0  # atno 10167 bound_to 10162
  156.0387  130.5610  150.7672 H   0  0  0  0  0  0  0  0  0  0  0  0  # atno 10718 bound_to 10713
  153.9980  135.6697  153.4757 H   0  0  0  0  0  0  0  0  0  0  0  0  # atno 10763 bound_to 10752
  153.0675  135.4992  154.8229 H   0  0  0  0  0  0  0  0  0  0  0  0  # atno 10764 bound_to 10752
  154.7070  135.3090  154.9218 H   0  0  0  0  0  0  0  0  0  0  0  0  # atno 10765 bound_to 10752
  140.0229  134.9388  157.0510 H   0  0  0  0  0  0  0  0  0  0  0  0  # atno 11005 bound_to 11000
  146.3444  139.9338  142.8750 LP  0  0  0  0  0  0  0  0  0  0  0  0  # atno 17320 bound_to 7965
  145.2204  140.9933  143.4049 LP  0  0  0  0  0  0  0  0  0  0  0  0  # atno 17321 bound_to 7965
  139.6780  143.9903  152.2792 LP  0  0  0  0  0  0  0  0  0  0  0  0  # atno 17342 bound_to 10162
  139.9524  144.6612  150.8159 LP  0  0  0  0  0  0  0  0  0  0  0  0  # atno 17343 bound_to 10162
  157.5175  131.0929  151.0120 LP  0  0  0  0  0  0  0  0  0  0  0  0  # atno 17370 bound_to 10713
  157.0459  130.5768  149.5363 LP  0  0  0  0  0  0  0  0  0  0  0  0  # atno 17371 bound_to 10713
  140.4356  134.1734  155.7170 LP  0  0  0  0  0  0  0  0  0  0  0  0  # atno 17394 bound_to 11000
  141.1785  133.8464  157.1340 LP  0  0  0  0  0  0  0  0  0  0  0  0  # atno 17395 bound_to 11000

$$$$
