AV-unprocessed.smi:1600|AV-procd|sdf|6430|dock10
  -GOLD-   22720 7 73D 1   1.00000     0.00000
 Structure written by MMmdl.
 46 47  0  0  0  0  0  0  0  0  2 V2000
  150.4694  141.9263  156.2801 C   0  0  0  0  0  0  0  0  0  0  0  0
  150.1918  140.7235  155.4276 C   0  0  0  0  0  0  0  0  0  0  0  0
  148.9933  140.4040  154.7254 C   0  0  0  0  0  0  0  0  0  0  0  0
  149.3029  139.2127  154.1281 C   0  0  0  0  0  0  0  0  0  0  0  0
  148.5332  138.4352  153.3209 N   0  0  0  0  0  0  0  0  0  0  0  0
  147.1944  138.4192  153.1981 C   0  0  0  0  0  0  0  0  0  0  0  0
  146.4115  139.1347  153.8230 O   0  0  0  0  0  0  0  0  0  0  0  0
  146.8023  137.5128  152.2907 N   0  0  0  0  0  0  0  0  0  0  0  0
  145.4194  137.2230  151.9222 C   0  0  0  0  0  0  0  0  0  0  0  0
  145.1363  135.7090  151.8832 C   0  0  1  0  0  0  0  0  0  0  0  0
  144.0320  135.2623  152.8354 C   0  0  0  0  0  0  0  0  0  0  0  0
  143.6268  133.9112  152.2571 C   0  0  0  0  0  0  0  0  0  0  0  0
  143.6893  134.0828  150.7883 N   0  3  2  0  0  0  0  0  0  0  0  0
  143.8802  132.8333  149.9988 C   0  0  0  0  0  0  0  0  0  0  0  0
  145.2623  132.2100  150.2730 C   0  0  0  0  0  0  0  0  0  0  0  0
  143.7244  133.0839  148.4862 C   0  0  0  0  0  0  0  0  0  0  0  0
  144.6755  135.1611  150.5209 C   0  0  0  0  0  0  0  0  0  0  0  0
  150.5936  138.8687  154.4639 N   0  0  0  0  0  0  0  0  0  0  0  0
  151.3683  137.7058  154.0760 C   0  0  0  0  0  0  0  0  0  0  0  0
  151.1394  139.8063  155.2681 N   0  0  0  0  0  0  0  0  0  0  0  0
  149.7029  142.6898  156.1446 H   0  0  0  0  0  0  0  0  0  0  0  0
  151.4311  142.3752  156.0296 H   0  0  0  0  0  0  0  0  0  0  0  0
  150.4895  141.6598  157.3370 H   0  0  0  0  0  0  0  0  0  0  0  0
  148.0748  140.9693  154.6812 H   0  0  0  0  0  0  0  0  0  0  0  0
  149.0413  137.7801  152.7452 H   0  0  0  0  0  0  0  0  0  0  0  0
  147.5162  136.9684  151.8284 H   0  0  0  0  0  0  0  0  0  0  0  0
  144.7777  137.6922  152.6683 H   0  0  0  0  0  0  0  0  0  0  0  0
  145.1641  137.6875  150.9684 H   0  0  0  0  0  0  0  0  0  0  0  0
  146.0455  135.1770  152.1690 H   0  0  0  0  0  0  0  0  0  0  0  0
  144.3658  135.1948  153.8713 H   0  0  0  0  0  0  0  0  0  0  0  0
  143.1883  135.9532  152.7946 H   0  0  0  0  0  0  0  0  0  0  0  0
  144.3447  133.1517  152.5720 H   0  0  0  0  0  0  0  0  0  0  0  0
  142.6349  133.6016  152.5880 H   0  0  0  0  0  0  0  0  0  0  0  0
  143.1131  132.1197  150.3038 H   0  0  0  0  0  0  0  0  0  0  0  0
  145.4068  131.3068  149.6791 H   0  0  0  0  0  0  0  0  0  0  0  0
  145.3890  131.9243  151.3169 H   0  0  0  0  0  0  0  0  0  0  0  0
  146.0654  132.9027  150.0188 H   0  0  0  0  0  0  0  0  0  0  0  0
  143.9183  132.1734  147.9183 H   0  0  0  0  0  0  0  0  0  0  0  0
  144.4228  133.8449  148.1362 H   0  0  0  0  0  0  0  0  0  0  0  0
  142.7168  133.4072  148.2249 H   0  0  0  0  0  0  0  0  0  0  0  0
  144.1732  135.9268  149.9299 H   0  0  0  0  0  0  0  0  0  0  0  0
  145.5371  134.8132  149.9497 H   0  0  0  0  0  0  0  0  0  0  0  0
  151.6026  137.7615  153.0127 H   0  0  0  0  0  0  0  0  0  0  0  0
  150.7928  136.7999  154.2677 H   0  0  0  0  0  0  0  0  0  0  0  0
  152.2988  137.6574  154.6429 H   0  0  0  0  0  0  0  0  0  0  0  0
  142.7920  134.4615  150.5203 H   0  0  0  0  0  0  0  0  0  0  0  0
  1  2  1  0  0  0  0
  1 21  1  0  0  0  0
  1 22  1  0  0  0  0
  1 23  1  0  0  0  0
  2 20  2  0  0  0  0
  2  3  1  0  0  0  0
  3  4  2  0  0  0  0
  3 24  1  0  0  0  0
  4  5  1  0  0  0  0
  4 18  1  0  0  0  0
  5  6  1  0  0  0  0
  5 25  1  0  0  0  0
  6  7  2  0  0  0  0
  6  8  1  0  0  0  0
  8  9  1  0  0  0  0
  8 26  1  0  0  0  0
  9 10  1  0  0  0  0
  9 27  1  0  0  0  0
  9 28  1  0  0  0  0
 10 17  1  0  0  0  0
 10 11  1  0  0  0  0
 10 29  1  0  0  0  0
 11 12  1  0  0  0  0
 11 30  1  0  0  0  0
 11 31  1  0  0  0  0
 12 13  1  0  0  0  0
 12 32  1  0  0  0  0
 12 33  1  0  0  0  0
 13 14  1  0  0  0  0
 13 17  1  0  0  0  0
 13 46  1  0  0  0  0
 14 15  1  0  0  0  0
 14 16  1  0  0  0  0
 14 34  1  0  0  0  0
 15 35  1  0  0  0  0
 15 36  1  0  0  0  0
 15 37  1  0  0  0  0
 16 38  1  0  0  0  0
 16 39  1  0  0  0  0
 16 40  1  0  0  0  0
 17 41  1  0  0  0  0
 17 42  1  0  0  0  0
 18 19  1  0  0  0  0
 18 20  1  0  0  0  0
 19 43  1  0  0  0  0
 19 44  1  0  0  0  0
 19 45  1  0  0  0  0
M  CHG  1  13   1
M  END
> <s_m_source_file>
AV-unprocessed.smi

> <i_m_source_file_index>
1600

> <i_lp_mmshare_version>
43012

> <i_f3d_flags>
0

> <s_epik_input>
W0NIM11jMVtjSF1jKG4objEpW0NIM10pW05IXUMoPU8pW05IXVtDSDJdW0NAQEhdMltDSDJdW0NIMl1OKFtDSDJdMilbQ0hdKFtDSDNdKVtDSDNd

> <s_epik_cmdline>
J2VwaWtfcHl0aG9uJywgJy1waCcsICc3LjAnLCAnLXRuJywgJzgnLCAnLW1hJywgJzIwMCcsICctbWV0YWxfYmluZGluZycsICctaW1hZScsICc8aW5maWxlLm1hZT4nLCAnLW9tYWUnLCAnPG91dGZpbGUubWFlPic=

> <r_lp_tautomer_probability>
1

> <r_epik_Ionization_Penalty>
0.000297652

> <r_epik_Ionization_Penalty_Charging>
0.000213653

> <r_epik_Ionization_Penalty_Neutral>
8.3999e-05

> <r_epik_State_Penalty>
-0

> <r_epik_Charging_Adjusted_Penalty>
0.000213653

> <i_epik_Tot_Q>
1

> <i_epik_Tot_abs_Q>
1

> <r_epik_Metal_State_Penalty>
-0

> <b_epik_Metal_Only>
0

> <s_lp_Force_Field>
OPLS_2005

> <r_lp_Energy>
32.7515

> <b_lp_Chiralities_Consistent>
1

> <s_lp_Variant>
AV-unprocessed.smi:1600-4

> <Gold.Version>
5.8.1

> <Gold.Id.Protein>
6NUR|6NUR_protein|mol2

> <Gold.PLP.Fitness>
50.5419

> <Gold.PLP.PLP>
-40.3288

> <Gold.PLP.part.hbond>
-4.8680

> <Gold.PLP.part.metal>
0.0000

> <Gold.PLP.part.buried>
2.0483

> <Gold.PLP.part.nonpolar>
-38.0008

> <Gold.PLP.part.repulsive>
0.3469

> <Gold.PLP.ligand.clash>
0.0000

> <Gold.PLP.ligand.torsion>
0.9472

> <Gold.PLP.Chemscore.Hbond>
4.0239

> <Gold.PLP.Chemscore.CHOScore>
0.0000

> <Gold.PLP.Chemscore.Metal>
0.0000

> <Gold.Chemscore.Hbonds>
donor molecule, donor type, donor heavy atom, donor atom, acceptor molecule, acceptor atom, score
      L1  H     5    25       P1  7948  0.94
      L1  H     8    26       P1  7948  1.00
      L1  H    13    46       P1 10186  2.00
      P1  H  7989  7998       L1    20  0.08

> <Gold.PLP.Chemscore.Internal.Correction>
0.0359

> <Gold.Rescore>
     Score         DG    S(hbond)    S(metal)    S(lipo)     H(rot)  DE(clash)    DE(int)     intcor
     19.69     -21.52       2.91        0.00      85.43       1.44       0.13       1.70       ----

> <Gold.Chemscore.Fitness>
19.6870

> <Gold.Chemscore.DG>
-21.5191

> <Gold.Chemscore.ZeroCoef>
-5.4800

> <Gold.Chemscore.Hbond>
2.9108

> <Gold.Chemscore.Metal>
0.0000

> <Gold.Chemscore.Lipo>
85.4331

> <Gold.Chemscore.Internal_Hbond>
0.0000

> <Gold.Chemscore.DEClash>
0.1345

> <Gold.Chemscore.DEInternal>
1.6977

> <Gold.Chemscore.Rot>
1.4369

> <Gold.Chemscore.Internal.Correction>
   9.000000E+99

> <Gold.Chemscore.Hbonds>
donor molecule, donor type, donor heavy atom, donor atom, acceptor molecule, acceptor atom, score
      L1  H     5    25       P1  7948  0.91
      L1  H     8    26       P1  7948  0.95
      L1  H    13    46       P1 10186  0.46

> <Gold.Chemscore.Hbond.Weighted>
-9.7219

> <Gold.Chemscore.Metal.Weighted>
-0.0000

> <Gold.Chemscore.Lipo.Weighted>
-9.9957

> <Gold.Chemscore.Internal_Hbond.Weighted>
0.0000

> <Gold.Chemscore.DEClash.Weighted>
0.1345

> <Gold.Chemscore.DEInternal.Weighted>
1.6977

> <Gold.Chemscore.Rot.Weighted>
3.6785

> <Gold.Chemscore.Internal.Correction.Weighted>
   9.000000E+99

> <Gold.Protein.RotatedTorsions>
[ 6907 6896 6895 6894 ] final -169.22 input  -60.11 | X-H torsion
[ 7974 7965 7964 7962 ] final  -40.64 input  175.53 | X-H torsion
[ 8008 7997 7996 7995 ] final  -73.51 input   59.86 | X-H torsion
[ 10167 10162 10161 10158 ] final   64.93 input  -65.29 | X-H torsion
[ 10718 10713 10712 10709 ] final  -69.06 input   66.30 | X-H torsion
[ 10763 10752 10751 10750 ] final  -34.04 input  -60.55 | X-H torsion
[ 11005 11000 10999 10996 ] final -160.77 input  -57.11 | X-H torsion

> <Gold.Protein.ActiveResidues>
 VAL166  LYS551  ARG553  GLY616  TRP617  ASP618  TYR619  PRO620  LYS621  CYS622 
 ASP623  PHE694  ASN695  SER759  ASP760  ASP761  ALA762  ILE779  LEU786  VAL792 
 PHE793  MET794  SER795  GLU796  ALA797  LYS798  CYS799  TRP800  GLU811  SER814 

> <Gold.Protein.RotatedAtoms>
  151.4882  133.3531  159.2848 H   0  0  0  0  0  0  0  0  0  0  0  0  # atno 6907 bound_to 6896
  150.8852  134.8251  159.7265 H   0  0  0  0  0  0  0  0  0  0  0  0  # atno 6908 bound_to 6896
  152.4788  134.4785  159.9710 H   0  0  0  0  0  0  0  0  0  0  0  0  # atno 6909 bound_to 6896
  146.0286  140.6760  142.9144 H   0  0  0  0  0  0  0  0  0  0  0  0  # atno 7974 bound_to 7965
  154.5253  140.0778  156.8247 H   0  0  0  0  0  0  0  0  0  0  0  0  # atno 8008 bound_to 7997
  155.3488  140.3411  155.4221 H   0  0  0  0  0  0  0  0  0  0  0  0  # atno 8009 bound_to 7997
  156.1725  140.1624  156.8408 H   0  0  0  0  0  0  0  0  0  0  0  0  # atno 8010 bound_to 7997
  140.1168  144.4768  150.6944 H   0  0  0  0  0  0  0  0  0  0  0  0  # atno 10167 bound_to 10162
  156.0474  130.4306  150.2092 H   0  0  0  0  0  0  0  0  0  0  0  0  # atno 10718 bound_to 10713
  153.8402  135.6858  153.4804 H   0  0  0  0  0  0  0  0  0  0  0  0  # atno 10763 bound_to 10752
  153.1458  135.4638  154.9562 H   0  0  0  0  0  0  0  0  0  0  0  0  # atno 10764 bound_to 10752
  154.7848  135.3281  154.7857 H   0  0  0  0  0  0  0  0  0  0  0  0  # atno 10765 bound_to 10752
  140.6278  134.4683  157.5228 H   0  0  0  0  0  0  0  0  0  0  0  0  # atno 11005 bound_to 11000
  144.7020  140.3694  143.7148 LP  0  0  0  0  0  0  0  0  0  0  0  0  # atno 17320 bound_to 7965
  145.7078  139.1677  143.2556 LP  0  0  0  0  0  0  0  0  0  0  0  0  # atno 17321 bound_to 7965
  140.6895  143.2368  151.5171 LP  0  0  0  0  0  0  0  0  0  0  0  0  # atno 17342 bound_to 10162
  139.5590  144.2204  152.1660 LP  0  0  0  0  0  0  0  0  0  0  0  0  # atno 17343 bound_to 10162
  157.0180  130.9971  151.3347 LP  0  0  0  0  0  0  0  0  0  0  0  0  # atno 17370 bound_to 10713
  157.5364  130.8091  149.7977 LP  0  0  0  0  0  0  0  0  0  0  0  0  # atno 17371 bound_to 10713
  139.9128  134.8309  156.1469 LP  0  0  0  0  0  0  0  0  0  0  0  0  # atno 17394 bound_to 11000
  141.0697  133.6802  156.2116 LP  0  0  0  0  0  0  0  0  0  0  0  0  # atno 17395 bound_to 11000

$$$$
