AV-unprocessed.smi:570|AV-procd|sdf|2962|dock10
  -GOLD-   2262023463D 1   1.00000     0.00000
 Structure written by MMmdl.
 39 40  0  0  0  0  0  0  0  0  2 V2000
  149.3546  137.0393  159.2748 C   0  0  0  0  0  0  0  0  0  0  0  0
  150.6547  136.4771  159.2594 O   0  0  0  0  0  0  0  0  0  0  0  0
  151.6310  137.3416  159.8254 C   0  0  0  0  0  0  0  0  0  0  0  0
  152.0554  138.4324  158.8199 C   0  0  0  0  0  0  0  0  0  0  0  0
  152.7661  137.9166  157.5514 C   0  0  0  0  0  0  0  0  0  0  0  0
  152.9608  139.0185  156.6139 N   0  5  0  0  0  0  0  0  0  0  0  0
  151.9468  139.7744  156.0994 C   0  0  0  0  0  0  0  0  0  0  0  0
  151.3279  139.6274  155.0394 O   0  0  0  0  0  0  0  0  0  0  0  0
  151.5747  140.9332  156.9986 C   0  0  0  0  0  0  0  0  0  0  0  0
  152.2772  141.0898  158.1500 N   0  0  0  0  0  0  0  0  0  0  0  0
  151.9640  142.0940  158.9745 C   0  0  0  0  0  0  0  0  0  0  0  0
  152.7160  142.2261  160.1493 N   0  0  0  0  0  0  0  0  0  0  0  0
  153.9899  141.5282  160.3385 C   0  0  0  0  0  0  0  0  0  0  0  0
  154.2133  141.1915  161.8226 C   0  0  0  0  0  0  0  0  0  0  0  0
  154.1228  142.3763  162.6041 O   0  0  0  0  0  0  0  0  0  0  0  0
  152.8332  142.9684  162.5055 C   0  0  0  0  0  0  0  0  0  0  0  0
  152.5529  143.3718  161.0481 C   0  0  0  0  0  0  0  0  0  0  0  0
  150.9860  142.9809  158.7593 N   0  0  0  0  0  0  0  0  0  0  0  0
  150.2704  142.8553  157.6232 C   0  0  0  0  0  0  0  0  0  0  0  0
  150.5218  141.8356  156.6854 C   0  0  0  0  0  0  0  0  0  0  0  0
  149.5798  141.7702  155.2342 Cl  0  0  0  0  0  0  0  0  0  0  0  0
  148.6470  136.3375  158.8335 H   0  0  0  0  0  0  0  0  0  0  0  0
  149.3172  137.9634  158.6967 H   0  0  0  0  0  0  0  0  0  0  0  0
  149.0283  137.2499  160.2942 H   0  0  0  0  0  0  0  0  0  0  0  0
  151.1970  137.8263  160.7012 H   0  0  0  0  0  0  0  0  0  0  0  0
  152.4911  136.7704  160.1825 H   0  0  0  0  0  0  0  0  0  0  0  0
  151.1776  139.0166  158.5396 H   0  0  0  0  0  0  0  0  0  0  0  0
  152.7243  139.1244  159.3336 H   0  0  0  0  0  0  0  0  0  0  0  0
  153.7159  137.4627  157.8368 H   0  0  0  0  0  0  0  0  0  0  0  0
  152.1704  137.1140  157.1147 H   0  0  0  0  0  0  0  0  0  0  0  0
  154.0420  140.6026  159.7665 H   0  0  0  0  0  0  0  0  0  0  0  0
  154.7942  142.1688  159.9754 H   0  0  0  0  0  0  0  0  0  0  0  0
  153.4849  140.4562  162.1687 H   0  0  0  0  0  0  0  0  0  0  0  0
  155.2005  140.7507  161.9620 H   0  0  0  0  0  0  0  0  0  0  0  0
  152.0722  142.2763  162.8698 H   0  0  0  0  0  0  0  0  0  0  0  0
  152.7970  143.8472  163.1491 H   0  0  0  0  0  0  0  0  0  0  0  0
  153.2394  144.1599  160.7373 H   0  0  0  0  0  0  0  0  0  0  0  0
  151.5474  143.7899  161.0004 H   0  0  0  0  0  0  0  0  0  0  0  0
  149.4908  143.5842  157.4579 H   0  0  0  0  0  0  0  0  0  0  0  0
  1  2  1  0  0  0  0
  1 22  1  0  0  0  0
  1 23  1  0  0  0  0
  1 24  1  0  0  0  0
  2  3  1  0  0  0  0
  3  4  1  0  0  0  0
  3 25  1  0  0  0  0
  3 26  1  0  0  0  0
  4  5  1  0  0  0  0
  4 27  1  0  0  0  0
  4 28  1  0  0  0  0
  5  6  1  0  0  0  0
  5 29  1  0  0  0  0
  5 30  1  0  0  0  0
  6  7  1  0  0  0  0
  7  8  2  0  0  0  0
  7  9  1  0  0  0  0
  9 20  1  0  0  0  0
  9 10  2  0  0  0  0
 10 11  1  0  0  0  0
 11 12  1  0  0  0  0
 11 18  2  0  0  0  0
 12 17  1  0  0  0  0
 12 13  1  0  0  0  0
 13 14  1  0  0  0  0
 13 31  1  0  0  0  0
 13 32  1  0  0  0  0
 14 15  1  0  0  0  0
 14 33  1  0  0  0  0
 14 34  1  0  0  0  0
 15 16  1  0  0  0  0
 16 17  1  0  0  0  0
 16 35  1  0  0  0  0
 16 36  1  0  0  0  0
 17 37  1  0  0  0  0
 17 38  1  0  0  0  0
 18 19  1  0  0  0  0
 19 20  2  0  0  0  0
 19 39  1  0  0  0  0
 20 21  1  0  0  0  0
M  CHG  1   6  -1
M  END
> <s_m_source_file>
AV-unprocessed.smi

> <i_m_source_file_index>
570

> <i_lp_mmshare_version>
43012

> <i_f3d_flags>
0

> <s_epik_input>
W0NIM11PW0NIMl1bQ0gyXVtDSDJdW05IXUMoPU8pYzFuYyhuW2NIXWMxQ2wpTjJbQ0gyXVtDSDJdT1tDSDJdW0NIMl0y

> <s_epik_cmdline>
J2VwaWtfcHl0aG9uJywgJy1waCcsICc3LjAnLCAnLXRuJywgJzgnLCAnLW1hJywgJzIwMCcsICctbWV0YWxfYmluZGluZycsICctaW1hZScsICc8aW5maWxlLm1hZT4nLCAnLW9tYWUnLCAnPG91dGZpbGUubWFlPic=

> <r_lp_tautomer_probability>
1

> <r_epik_Ionization_Penalty>
6.0123

> <r_epik_Ionization_Penalty_Charging>
6.01228

> <r_epik_Ionization_Penalty_Neutral>
2.47988e-05

> <r_epik_State_Penalty>
6.01226

> <r_epik_Charging_Adjusted_Penalty>
12.0245

> <i_epik_Tot_Q>
-1

> <i_epik_Tot_abs_Q>
1

> <r_epik_Metal_State_Penalty>
1.96418

> <b_epik_Metal_Only>
1

> <s_lp_Force_Field>
OPLS_2005

> <r_lp_Energy>
20.8632

> <b_lp_Chiralities_Consistent>
1

> <s_lp_Variant>
AV-unprocessed.smi:570-2

> <Gold.Version>
5.8.1

> <Gold.Id.Protein>
6NUR|6NUR_protein|mol2

> <Gold.PLP.Fitness>
52.8842

> <Gold.PLP.PLP>
-39.4453

> <Gold.PLP.part.hbond>
-4.0000

> <Gold.PLP.part.metal>
0.0000

> <Gold.PLP.part.buried>
-0.2472

> <Gold.PLP.part.nonpolar>
-35.1344

> <Gold.PLP.part.repulsive>
0.1375

> <Gold.PLP.ligand.clash>
0.0178

> <Gold.PLP.ligand.torsion>
0.9118

> <Gold.PLP.Chemscore.Hbond>
4.0000

> <Gold.PLP.Chemscore.CHOScore>
1.0000

> <Gold.PLP.Chemscore.Metal>
0.0000

> <Gold.Chemscore.Hbonds>
donor molecule, donor type, donor heavy atom, donor atom, acceptor molecule, acceptor atom, score
      P1  H  6896  6907       L1     2  1.00
      P1  H  7989  7998       L1     8  1.00
      P1  H  7997  8010       L1     6  2.00
      L1  C    19    39       P1  8028  1.00

> <Gold.PLP.Chemscore.Internal.Correction>
0.2802

> <Gold.Rescore>
     Score         DG    S(hbond)    S(metal)    S(lipo)     H(rot)  DE(clash)    DE(int)     intcor
     15.12     -21.05       2.65        0.00      92.32       1.59       2.02       3.91       ----

> <Gold.Chemscore.Fitness>
15.1224

> <Gold.Chemscore.DG>
-21.0513

> <Gold.Chemscore.ZeroCoef>
-5.4800

> <Gold.Chemscore.Hbond>
2.6506

> <Gold.Chemscore.Metal>
0.0000

> <Gold.Chemscore.Lipo>
92.3185

> <Gold.Chemscore.Internal_Hbond>
0.0000

> <Gold.Chemscore.DEClash>
2.0180

> <Gold.Chemscore.DEInternal>
3.9109

> <Gold.Chemscore.Rot>
1.5949

> <Gold.Chemscore.Internal.Correction>
   9.000000E+99

> <Gold.Chemscore.Hbonds>
donor molecule, donor type, donor heavy atom, donor atom, acceptor molecule, acceptor atom, score
      P1  H  6896  6907       L1     2  0.67
      P1  H  7989  7998       L1     8  0.94
      P1  H  7997  8010       L1     6  0.30

> <Gold.Chemscore.Hbond.Weighted>
-8.8530

> <Gold.Chemscore.Metal.Weighted>
-0.0000

> <Gold.Chemscore.Lipo.Weighted>
-10.8013

> <Gold.Chemscore.Internal_Hbond.Weighted>
0.0000

> <Gold.Chemscore.DEClash.Weighted>
2.0180

> <Gold.Chemscore.DEInternal.Weighted>
3.9109

> <Gold.Chemscore.Rot.Weighted>
4.0830

> <Gold.Chemscore.Internal.Correction.Weighted>
   9.000000E+99

> <Gold.Protein.RotatedTorsions>
[ 6907 6896 6895 6894 ] final  -43.04 input  -60.11 | X-H torsion
[ 7974 7965 7964 7962 ] final  -14.51 input  175.53 | X-H torsion
[ 8008 7997 7996 7995 ] final   74.68 input   59.86 | X-H torsion
[ 10167 10162 10161 10158 ] final   -1.53 input  -65.29 | X-H torsion
[ 10718 10713 10712 10709 ] final  178.81 input   66.30 | X-H torsion
[ 10763 10752 10751 10750 ] final  146.52 input  -60.55 | X-H torsion
[ 11005 11000 10999 10996 ] final  173.17 input  -57.11 | X-H torsion

> <Gold.Protein.ActiveResidues>
 VAL166  LYS551  ARG553  GLY616  TRP617  ASP618  TYR619  PRO620  LYS621  CYS622 
 ASP623  PHE694  ASN695  SER759  ASP760  ASP761  ALA762  ILE779  LEU786  VAL792 
 PHE793  MET794  SER795  GLU796  ALA797  LYS798  CYS799  TRP800  GLU811  SER814 

> <Gold.Protein.RotatedAtoms>
  150.9484  134.8886  159.7656 H   0  0  0  0  0  0  0  0  0  0  0  0  # atno 6907 bound_to 6896
  152.5109  134.3842  159.9371 H   0  0  0  0  0  0  0  0  0  0  0  0  # atno 6908 bound_to 6896
  151.3859  133.3765  159.2750 H   0  0  0  0  0  0  0  0  0  0  0  0  # atno 6909 bound_to 6896
  146.2071  140.3358  142.8403 H   0  0  0  0  0  0  0  0  0  0  0  0  # atno 7974 bound_to 7965
  155.8019  140.3476  155.5408 H   0  0  0  0  0  0  0  0  0  0  0  0  # atno 8008 bound_to 7997
  155.8529  140.0959  157.1683 H   0  0  0  0  0  0  0  0  0  0  0  0  # atno 8009 bound_to 7997
  154.4008  140.1373  156.3853 H   0  0  0  0  0  0  0  0  0  0  0  0  # atno 8010 bound_to 7997
  140.6814  143.6765  150.8141 H   0  0  0  0  0  0  0  0  0  0  0  0  # atno 10167 bound_to 10162
  156.8851  130.9828  151.3057 H   0  0  0  0  0  0  0  0  0  0  0  0  # atno 10718 bound_to 10713
  154.0233  135.2904  155.3378 H   0  0  0  0  0  0  0  0  0  0  0  0  # atno 10763 bound_to 10752
  154.7033  135.5179  153.8561 H   0  0  0  0  0  0  0  0  0  0  0  0  # atno 10764 bound_to 10752
  153.0671  135.6635  154.0453 H   0  0  0  0  0  0  0  0  0  0  0  0  # atno 10765 bound_to 10752
  140.3376  134.7304  157.4179 H   0  0  0  0  0  0  0  0  0  0  0  0  # atno 11005 bound_to 11000
  144.8820  140.7413  143.5981 LP  0  0  0  0  0  0  0  0  0  0  0  0  # atno 17320 bound_to 7965
  145.3279  139.1768  143.4553 LP  0  0  0  0  0  0  0  0  0  0  0  0  # atno 17321 bound_to 7965
  140.0465  143.5292  152.2693 LP  0  0  0  0  0  0  0  0  0  0  0  0  # atno 17342 bound_to 10162
  139.6139  144.7615  151.2890 LP  0  0  0  0  0  0  0  0  0  0  0  0  # atno 17343 bound_to 10162
  157.6117  130.8588  149.8963 LP  0  0  0  0  0  0  0  0  0  0  0  0  # atno 17370 bound_to 10713
  156.0657  130.3692  150.0883 LP  0  0  0  0  0  0  0  0  0  0  0  0  # atno 17371 bound_to 10713
  140.0808  134.5733  155.8542 LP  0  0  0  0  0  0  0  0  0  0  0  0  # atno 17394 bound_to 11000
  141.2047  133.6641  156.6137 LP  0  0  0  0  0  0  0  0  0  0  0  0  # atno 17395 bound_to 11000

$$$$
