AV-unprocessed.smi:1667|AV-procd|sdf|6678|dock9
  -GOLD-   22720 7393D 1   1.00000     0.00000
 Structure written by MMmdl.
 46 48  0  0  0  0  0  0  0  0  2 V2000
  152.8463  137.0900  158.5869 C   0  0  0  0  0  0  0  0  0  0  0  0
  152.9581  137.1224  157.0667 C   0  0  0  0  0  0  0  0  0  0  0  0
  153.8857  136.5412  156.5046 O   0  0  0  0  0  0  0  0  0  0  0  0
  152.0038  137.8116  156.4190 N   0  0  0  0  0  0  0  0  0  0  0  0
  151.8893  138.0124  154.9745 C   0  0  2  0  0  0  0  0  0  0  0  0
  153.1934  138.5752  154.3769 C   0  0  0  0  0  0  0  0  0  0  0  0
  150.6800  138.8213  154.5894 C   0  0  0  0  0  0  0  0  0  0  0  0
  149.6990  138.4363  153.7223 N   0  3  0  0  0  0  0  0  0  0  0  0
  148.7481  139.4477  153.5974 C   0  0  0  0  0  0  0  0  0  0  0  0
  147.5795  139.5117  152.8448 C   0  0  0  0  0  0  0  0  0  0  0  0
  146.8251  140.6988  152.9482 C   0  0  0  0  0  0  0  0  0  0  0  0
  147.2409  141.7631  153.7746 C   0  0  0  0  0  0  0  0  0  0  0  0
  148.4291  141.6866  154.5310 C   0  0  0  0  0  0  0  0  0  0  0  0
  149.1703  140.5102  154.4209 C   0  0  0  0  0  0  0  0  0  0  0  0
  150.3735  140.0890  154.9989 N   0  0  0  0  0  0  0  0  0  0  0  0
  151.0801  141.0037  155.9115 C   0  0  0  0  0  0  0  0  0  0  0  0
  150.8697  140.6689  157.4038 C   0  0  2  0  0  0  0  0  0  0  0  0
  149.4969  140.7430  157.7316 O   0  0  0  0  0  0  0  0  0  0  0  0
  151.7182  141.5637  158.2925 C   0  0  0  0  0  0  0  0  0  0  0  0
  152.5963  141.0027  159.2462 C   0  0  0  0  0  0  0  0  0  0  0  0
  153.3748  141.8371  160.0715 C   0  0  0  0  0  0  0  0  0  0  0  0
  153.2791  143.2366  159.9493 C   0  0  0  0  0  0  0  0  0  0  0  0
  152.4026  143.8013  159.0028 C   0  0  0  0  0  0  0  0  0  0  0  0
  152.3073  145.1468  158.8867 F   0  0  0  0  0  0  0  0  0  0  0  0
  151.6239  142.9673  158.1773 C   0  0  0  0  0  0  0  0  0  0  0  0
  151.7595  137.0181  154.5480 H   0  0  0  0  0  0  0  0  0  0  0  0
  152.6948  138.0949  158.9821 H   0  0  0  0  0  0  0  0  0  0  0  0
  153.7537  136.6824  159.0336 H   0  0  0  0  0  0  0  0  0  0  0  0
  152.0047  136.4678  158.8915 H   0  0  0  0  0  0  0  0  0  0  0  0
  151.2934  138.2536  156.9847 H   0  0  0  0  0  0  0  0  0  0  0  0
  153.1371  138.6174  153.2888 H   0  0  0  0  0  0  0  0  0  0  0  0
  154.0440  137.9441  154.6352 H   0  0  0  0  0  0  0  0  0  0  0  0
  153.4103  139.5817  154.7357 H   0  0  0  0  0  0  0  0  0  0  0  0
  147.2594  138.6969  152.2121 H   0  0  0  0  0  0  0  0  0  0  0  0
  145.9090  140.7947  152.3834 H   0  0  0  0  0  0  0  0  0  0  0  0
  146.6363  142.6569  153.8292 H   0  0  0  0  0  0  0  0  0  0  0  0
  148.7381  142.5073  155.1610 H   0  0  0  0  0  0  0  0  0  0  0  0
  152.1407  140.9828  155.6572 H   0  0  0  0  0  0  0  0  0  0  0  0
  150.7381  142.0171  155.7029 H   0  0  0  0  0  0  0  0  0  0  0  0
  151.1669  139.6355  157.5830 H   0  0  0  0  0  0  0  0  0  0  0  0
  148.9984  140.7645  156.9288 H   0  0  0  0  0  0  0  0  0  0  0  0
  152.6735  139.9301  159.3494 H   0  0  0  0  0  0  0  0  0  0  0  0
  154.0451  141.4037  160.7991 H   0  0  0  0  0  0  0  0  0  0  0  0
  153.8762  143.8765  160.5822 H   0  0  0  0  0  0  0  0  0  0  0  0
  150.9535  143.4110  157.4558 H   0  0  0  0  0  0  0  0  0  0  0  0
  149.6893  137.5424  153.2484 H   0  0  0  0  0  0  0  0  0  0  0  0
  1  2  1  0  0  0  0
  1 27  1  0  0  0  0
  1 28  1  0  0  0  0
  1 29  1  0  0  0  0
  2  3  2  0  0  0  0
  2  4  1  0  0  0  0
  4  5  1  0  0  0  0
  4 30  1  0  0  0  0
  5 26  1  0  0  0  0
  5  6  1  0  0  0  0
  5  7  1  0  0  0  0
  6 31  1  0  0  0  0
  6 32  1  0  0  0  0
  6 33  1  0  0  0  0
  7 15  1  0  0  0  0
  7  8  2  0  0  0  0
  8  9  1  0  0  0  0
  8 46  1  0  0  0  0
  9 14  2  0  0  0  0
  9 10  1  0  0  0  0
 10 11  2  0  0  0  0
 10 34  1  0  0  0  0
 11 12  1  0  0  0  0
 11 35  1  0  0  0  0
 12 13  2  0  0  0  0
 12 36  1  0  0  0  0
 13 14  1  0  0  0  0
 13 37  1  0  0  0  0
 14 15  1  0  0  0  0
 15 16  1  0  0  0  0
 16 17  1  0  0  0  0
 16 38  1  0  0  0  0
 16 39  1  0  0  0  0
 17 18  1  0  0  0  0
 17 19  1  0  0  0  0
 17 40  1  0  0  0  0
 18 41  1  0  0  0  0
 19 25  1  0  0  0  0
 19 20  2  0  0  0  0
 20 21  1  0  0  0  0
 20 42  1  0  0  0  0
 21 22  2  0  0  0  0
 21 43  1  0  0  0  0
 22 23  1  0  0  0  0
 22 44  1  0  0  0  0
 23 24  1  0  0  0  0
 23 25  2  0  0  0  0
 25 45  1  0  0  0  0
M  CHG  1   8   1
M  END
> <s_m_source_file>
AV-unprocessed.smi

> <i_m_source_file_index>
1667

> <i_lp_mmshare_version>
43012

> <i_f3d_flags>
0

> <s_epik_input>
W0NIM11DKD1PKVtOSF1bQ0BASF0oW0NIM10pYyhuMSluKGMoYzEyKVtjSF1bY0hdW2NIXVtjSF0yKVtDSDJdW0NASF0oW09IXSljM1tjSF1bY0hdW2NIXWMoRilbY0hdMw==

> <s_epik_cmdline>
J2VwaWtfcHl0aG9uJywgJy1waCcsICc3LjAnLCAnLXRuJywgJzgnLCAnLW1hJywgJzIwMCcsICctbWV0YWxfYmluZGluZycsICctaW1hZScsICc8aW5maWxlLm1hZT4nLCAnLW9tYWUnLCAnPG91dGZpbGUubWFlPic=

> <r_epik_Ionization_Penalty>
0.950383

> <r_epik_Ionization_Penalty_Charging>
0.950379

> <r_epik_Ionization_Penalty_Neutral>
3.60962e-06

> <r_epik_State_Penalty>
0.994584

> <r_epik_Charging_Adjusted_Penalty>
1.94496

> <i_epik_Tot_Q>
1

> <i_epik_Tot_abs_Q>
1

> <r_epik_Metal_State_Penalty>
1.10485

> <b_epik_Metal_Only>
0

> <s_lp_Force_Field>
OPLS_2005

> <r_lp_Energy>
9.34024

> <b_lp_Chiralities_Consistent>
1

> <s_lp_Variant>
AV-unprocessed.smi:1667-6

> <Gold.Version>
5.8.1

> <Gold.Id.Protein>
6NUR|6NUR_protein|mol2

> <Gold.PLP.Fitness>
62.4662

> <Gold.PLP.PLP>
-54.8513

> <Gold.PLP.part.hbond>
-3.0000

> <Gold.PLP.part.metal>
0.0000

> <Gold.PLP.part.buried>
1.8434

> <Gold.PLP.part.nonpolar>
-52.8311

> <Gold.PLP.part.repulsive>
0.1623

> <Gold.PLP.ligand.clash>
0.0000

> <Gold.PLP.ligand.torsion>
0.5112

> <Gold.PLP.Chemscore.Hbond>
2.8320

> <Gold.PLP.Chemscore.CHOScore>
0.0000

> <Gold.PLP.Chemscore.Metal>
0.0000

> <Gold.Chemscore.Hbonds>
donor molecule, donor type, donor heavy atom, donor atom, acceptor molecule, acceptor atom, score
      L1  H     8    46       P1  7948  2.00
      P1  H 10752 10763       L1     3  0.83

> <Gold.PLP.Chemscore.Internal.Correction>
0.1413

> <Gold.Rescore>
     Score         DG    S(hbond)    S(metal)    S(lipo)     H(rot)  DE(clash)    DE(int)     intcor
     18.70     -20.09       1.57        0.00     135.60       2.53       0.38       1.01       ----

> <Gold.Chemscore.Fitness>
18.7013

> <Gold.Chemscore.DG>
-20.0916

> <Gold.Chemscore.ZeroCoef>
-5.4800

> <Gold.Chemscore.Hbond>
1.5665

> <Gold.Chemscore.Metal>
0.0000

> <Gold.Chemscore.Lipo>
135.5991

> <Gold.Chemscore.Internal_Hbond>
0.0000

> <Gold.Chemscore.DEClash>
0.3819

> <Gold.Chemscore.DEInternal>
1.0084

> <Gold.Chemscore.Rot>
2.5335

> <Gold.Chemscore.Internal.Correction>
   9.000000E+99

> <Gold.Chemscore.Hbonds>
donor molecule, donor type, donor heavy atom, donor atom, acceptor molecule, acceptor atom, score
      L1  H     8    46       P1  7948  0.65
      P1  H 10752 10763       L1     3  0.81

> <Gold.Chemscore.Hbond.Weighted>
-5.2322

> <Gold.Chemscore.Metal.Weighted>
-0.0000

> <Gold.Chemscore.Lipo.Weighted>
-15.8651

> <Gold.Chemscore.Internal_Hbond.Weighted>
0.0000

> <Gold.Chemscore.DEClash.Weighted>
0.3819

> <Gold.Chemscore.DEInternal.Weighted>
1.0084

> <Gold.Chemscore.Rot.Weighted>
6.4856

> <Gold.Chemscore.Internal.Correction.Weighted>
   9.000000E+99

> <Gold.Protein.RotatedTorsions>
[ 6907 6896 6895 6894 ] final  144.09 input  -60.11 | X-H torsion
[ 7974 7965 7964 7962 ] final  132.24 input  175.53 | X-H torsion
[ 8008 7997 7996 7995 ] final  -74.25 input   59.86 | X-H torsion
[ 10167 10162 10161 10158 ] final  173.65 input  -65.29 | X-H torsion
[ 10718 10713 10712 10709 ] final   14.34 input   66.30 | X-H torsion
[ 10763 10752 10751 10750 ] final  134.10 input  -60.55 | X-H torsion
[ 11005 11000 10999 10996 ] final   -0.34 input  -57.11 | X-H torsion

> <Gold.Protein.ActiveResidues>
 VAL166  LYS551  ARG553  GLY616  TRP617  ASP618  TYR619  PRO620  LYS621  CYS622 
 ASP623  PHE694  ASN695  SER759  ASP760  ASP761  ALA762  ILE779  LEU786  VAL792 
 PHE793  MET794  SER795  GLU796  ALA797  LYS798  CYS799  TRP800  GLU811  SER814 

> <Gold.Protein.RotatedAtoms>
  152.1981  133.4821  159.5043 H   0  0  0  0  0  0  0  0  0  0  0  0  # atno 6907 bound_to 6896
  150.6964  134.1626  159.4191 H   0  0  0  0  0  0  0  0  0  0  0  0  # atno 6908 bound_to 6896
  151.9542  135.0154  160.0594 H   0  0  0  0  0  0  0  0  0  0  0  0  # atno 6909 bound_to 6896
  144.9989  139.4331  143.5302 H   0  0  0  0  0  0  0  0  0  0  0  0  # atno 7974 bound_to 7965
  154.5315  140.0764  156.8353 H   0  0  0  0  0  0  0  0  0  0  0  0  # atno 8008 bound_to 7997
  155.3365  140.3405  155.4221 H   0  0  0  0  0  0  0  0  0  0  0  0  # atno 8009 bound_to 7997
  156.1786  140.1644  156.8303 H   0  0  0  0  0  0  0  0  0  0  0  0  # atno 8010 bound_to 7997
  139.5115  144.3237  152.0178 H   0  0  0  0  0  0  0  0  0  0  0  0  # atno 10167 bound_to 10162
  157.0377  130.6218  149.5746 H   0  0  0  0  0  0  0  0  0  0  0  0  # atno 10718 bound_to 10713
  153.8181  135.3120  155.3407 H   0  0  0  0  0  0  0  0  0  0  0  0  # atno 10763 bound_to 10752
  154.8024  135.4718  154.0311 H   0  0  0  0  0  0  0  0  0  0  0  0  # atno 10764 bound_to 10752
  153.1711  135.6878  153.8696 H   0  0  0  0  0  0  0  0  0  0  0  0  # atno 10765 bound_to 10752
  140.6352  133.9539  155.8296 H   0  0  0  0  0  0  0  0  0  0  0  0  # atno 11005 bound_to 11000
  146.3448  139.9366  142.8746 LP  0  0  0  0  0  0  0  0  0  0  0  0  # atno 17320 bound_to 7965
  145.2181  140.9923  143.4062 LP  0  0  0  0  0  0  0  0  0  0  0  0  # atno 17321 bound_to 7965
  140.2678  144.3997  150.6162 LP  0  0  0  0  0  0  0  0  0  0  0  0  # atno 17342 bound_to 10162
  140.6111  143.2169  151.6885 LP  0  0  0  0  0  0  0  0  0  0  0  0  # atno 17343 bound_to 10162
  156.0048  130.5133  150.7792 LP  0  0  0  0  0  0  0  0  0  0  0  0  # atno 17370 bound_to 10713
  157.5128  131.0926  151.0176 LP  0  0  0  0  0  0  0  0  0  0  0  0  # atno 17371 bound_to 10713
  141.0647  134.0294  157.3610 LP  0  0  0  0  0  0  0  0  0  0  0  0  # atno 17394 bound_to 11000
  139.9101  135.0188  156.7655 LP  0  0  0  0  0  0  0  0  0  0  0  0  # atno 17395 bound_to 11000

$$$$
