AV-unprocessed.smi:2801|AV-procd|sdf|10801|dock4
  -GOLD-   2272015233D 1   1.00000     0.00000
 Structure written by MMmdl.
 31 31  0  0  0  0  0  0  0  0  2 V2000
  151.2167  137.8223  154.5128 C   0  0  0  0  0  0  0  0  0  0  0  0
  151.5084  138.9769  155.4734 C   0  0  0  0  0  0  0  0  0  0  0  0
  150.9869  140.1764  154.9135 O   0  0  0  0  0  0  0  0  0  0  0  0
  149.7461  140.6176  155.4610 C   0  0  2  0  0  0  0  0  0  0  0  0
  149.0528  141.5026  154.4077 C   0  0  0  0  0  0  0  0  0  0  0  0
  147.5768  141.7663  154.7315 C   0  0  0  0  0  0  0  0  0  0  0  0
  149.9896  141.3932  156.7665 C   0  0  0  0  0  0  0  0  0  0  0  0
  149.0420  141.9359  157.3347 O   0  0  0  0  0  0  0  0  0  0  0  0
  151.2690  141.4419  157.1805 N   0  0  0  0  0  0  0  0  0  0  0  0
  151.8332  142.0654  158.3295 C   0  0  0  0  0  0  0  0  0  0  0  0
  151.4148  143.3206  158.8347 C   0  0  0  0  0  0  0  0  0  0  0  0
  152.0381  143.8258  159.9926 C   0  0  0  0  0  0  0  0  0  0  0  0
  153.0139  143.1754  160.6592 N   0  0  0  0  0  0  0  0  0  0  0  0
  153.4038  141.9742  160.1838 C   0  0  0  0  0  0  0  0  0  0  0  0
  152.8492  141.3757  159.0334 C   0  0  0  0  0  0  0  0  0  0  0  0
  153.3006  140.1513  158.6228 O   0  5  0  0  0  0  0  0  0  0  0  0
  151.6028  136.8817  154.9059 H   0  0  0  0  0  0  0  0  0  0  0  0
  151.6811  137.9952  153.5417 H   0  0  0  0  0  0  0  0  0  0  0  0
  150.1443  137.7051  154.3557 H   0  0  0  0  0  0  0  0  0  0  0  0
  151.0412  138.7808  156.4396 H   0  0  0  0  0  0  0  0  0  0  0  0
  152.5841  139.0520  155.6363 H   0  0  0  0  0  0  0  0  0  0  0  0
  149.1081  139.7544  155.6627 H   0  0  0  0  0  0  0  0  0  0  0  0
  149.5686  142.4613  154.3358 H   0  0  0  0  0  0  0  0  0  0  0  0
  149.1280  141.0398  153.4225 H   0  0  0  0  0  0  0  0  0  0  0  0
  147.1214  142.4040  153.9738 H   0  0  0  0  0  0  0  0  0  0  0  0
  147.4682  142.2649  155.6950 H   0  0  0  0  0  0  0  0  0  0  0  0
  147.0077  140.8370  154.7684 H   0  0  0  0  0  0  0  0  0  0  0  0
  151.9466  141.0123  156.5670 H   0  0  0  0  0  0  0  0  0  0  0  0
  150.6296  143.8983  158.3748 H   0  0  0  0  0  0  0  0  0  0  0  0
  151.7378  144.7800  160.3994 H   0  0  0  0  0  0  0  0  0  0  0  0
  154.1821  141.4746  160.7420 H   0  0  0  0  0  0  0  0  0  0  0  0
  1  2  1  0  0  0  0
  1 17  1  0  0  0  0
  1 18  1  0  0  0  0
  1 19  1  0  0  0  0
  2  3  1  0  0  0  0
  2 20  1  0  0  0  0
  2 21  1  0  0  0  0
  3  4  1  0  0  0  0
  4  5  1  0  0  0  0
  4  7  1  0  0  0  0
  4 22  1  0  0  0  0
  5  6  1  0  0  0  0
  5 23  1  0  0  0  0
  5 24  1  0  0  0  0
  6 25  1  0  0  0  0
  6 26  1  0  0  0  0
  6 27  1  0  0  0  0
  7  8  2  0  0  0  0
  7  9  1  0  0  0  0
  9 28  1  0  0  0  0
  9 10  1  0  0  0  0
 10 11  2  0  0  0  0
 10 15  1  0  0  0  0
 11 12  1  0  0  0  0
 11 29  1  0  0  0  0
 12 13  2  0  0  0  0
 12 30  1  0  0  0  0
 13 14  1  0  0  0  0
 14 15  2  0  0  0  0
 14 31  1  0  0  0  0
 15 16  1  0  0  0  0
M  CHG  1  16  -1
M  END
> <s_m_source_file>
AV-unprocessed.smi

> <i_m_source_file_index>
2801

> <i_lp_mmshare_version>
43012

> <i_f3d_flags>
0

> <s_epik_input>
W0NIM11bQ0gyXU9bQ0BIXShbQ0gyXVtDSDNdKUMoPU8pW05IXWMxW2NIXVtjSF1uW2NIXWMxW09IXQ==

> <s_epik_cmdline>
J2VwaWtfcHl0aG9uJywgJy1waCcsICc3LjAnLCAnLXRuJywgJzgnLCAnLW1hJywgJzIwMCcsICctbWV0YWxfYmluZGluZycsICctaW1hZScsICc8aW5maWxlLm1hZT4nLCAnLW9tYWUnLCAnPG91dGZpbGUubWFlPic=

> <r_lp_tautomer_probability>
0.56342

> <r_epik_Ionization_Penalty>
4.38321

> <r_epik_Ionization_Penalty_Charging>
2.0641

> <r_epik_Ionization_Penalty_Neutral>
2.31912

> <r_epik_State_Penalty>
2.63873

> <r_epik_Charging_Adjusted_Penalty>
4.70283

> <i_epik_Tot_Q>
-1

> <i_epik_Tot_abs_Q>
1

> <r_epik_Metal_State_Penalty>
0.606608

> <b_epik_Metal_Only>
1

> <s_lp_Force_Field>
OPLS_2005

> <r_lp_Energy>
9.76409

> <b_lp_Chiralities_Consistent>
1

> <s_lp_Variant>
AV-unprocessed.smi:2801-5

> <Gold.Version>
5.8.1

> <Gold.Id.Protein>
6NUR|6NUR_protein|mol2

> <Gold.PLP.Fitness>
39.9330

> <Gold.PLP.PLP>
-32.9025

> <Gold.PLP.part.hbond>
-2.0000

> <Gold.PLP.part.metal>
0.0000

> <Gold.PLP.part.buried>
-3.8140

> <Gold.PLP.part.nonpolar>
-27.3966

> <Gold.PLP.part.repulsive>
0.2849

> <Gold.PLP.ligand.clash>
0.0000

> <Gold.PLP.ligand.torsion>
0.9682

> <Gold.PLP.Chemscore.Hbond>
2.9520

> <Gold.PLP.Chemscore.CHOScore>
0.0000

> <Gold.PLP.Chemscore.Metal>
0.0000

> <Gold.Chemscore.Hbonds>
donor molecule, donor type, donor heavy atom, donor atom, acceptor molecule, acceptor atom, score
      P1  H  7989  7998       L1     3  1.00
      P1  H  7997  8009       L1    16  1.90

> <Gold.PLP.Chemscore.Internal.Correction>
0.1109

> <Gold.Rescore>
     Score         DG    S(hbond)    S(metal)    S(lipo)     H(rot)  DE(clash)    DE(int)     intcor
     16.79     -17.86       1.84        0.00      86.97       1.55       0.04       1.03       ----

> <Gold.Chemscore.Fitness>
16.7898

> <Gold.Chemscore.DG>
-17.8590

> <Gold.Chemscore.ZeroCoef>
-5.4800

> <Gold.Chemscore.Hbond>
1.8449

> <Gold.Chemscore.Metal>
0.0000

> <Gold.Chemscore.Lipo>
86.9696

> <Gold.Chemscore.Internal_Hbond>
0.0000

> <Gold.Chemscore.DEClash>
0.0387

> <Gold.Chemscore.DEInternal>
1.0304

> <Gold.Chemscore.Rot>
1.5462

> <Gold.Chemscore.Internal.Correction>
   9.000000E+99

> <Gold.Chemscore.Hbonds>
donor molecule, donor type, donor heavy atom, donor atom, acceptor molecule, acceptor atom, score
      P1  H  7989  7998       L1     3  0.98
      P1  H  7997  8009       L1    16  0.83

> <Gold.Chemscore.Hbond.Weighted>
-6.1618

> <Gold.Chemscore.Metal.Weighted>
-0.0000

> <Gold.Chemscore.Lipo.Weighted>
-10.1754

> <Gold.Chemscore.Internal_Hbond.Weighted>
0.0000

> <Gold.Chemscore.DEClash.Weighted>
0.0387

> <Gold.Chemscore.DEInternal.Weighted>
1.0304

> <Gold.Chemscore.Rot.Weighted>
3.9583

> <Gold.Chemscore.Internal.Correction.Weighted>
   9.000000E+99

> <Gold.Protein.RotatedTorsions>
[ 6907 6896 6895 6894 ] final  -81.88 input  -60.11 | X-H torsion
[ 7974 7965 7964 7962 ] final   91.86 input  175.53 | X-H torsion
[ 8008 7997 7996 7995 ] final  146.11 input   59.86 | X-H torsion
[ 10167 10162 10161 10158 ] final   36.21 input  -65.29 | X-H torsion
[ 10718 10713 10712 10709 ] final  -76.17 input   66.30 | X-H torsion
[ 10763 10752 10751 10750 ] final    6.73 input  -60.55 | X-H torsion
[ 11005 11000 10999 10996 ] final  -52.21 input  -57.11 | X-H torsion

> <Gold.Protein.ActiveResidues>
 VAL166  LYS551  ARG553  GLY616  TRP617  ASP618  TYR619  PRO620  LYS621  CYS622 
 ASP623  PHE694  ASN695  SER759  ASP760  ASP761  ALA762  ILE779  LEU786  VAL792 
 PHE793  MET794  SER795  GLU796  ALA797  LYS798  CYS799  TRP800  GLU811  SER814 

> <Gold.Protein.RotatedAtoms>
  150.6905  134.3750  159.5008 H   0  0  0  0  0  0  0  0  0  0  0  0  # atno 6907 bound_to 6896
  152.1560  134.8947  160.0554 H   0  0  0  0  0  0  0  0  0  0  0  0  # atno 6908 bound_to 6896
  152.0027  133.3797  159.4225 H   0  0  0  0  0  0  0  0  0  0  0  0  # atno 6909 bound_to 6896
  145.5000  139.2276  143.2782 H   0  0  0  0  0  0  0  0  0  0  0  0  # atno 7974 bound_to 7965
  156.2864  140.2191  156.5324 H   0  0  0  0  0  0  0  0  0  0  0  0  # atno 8008 bound_to 7997
  154.7438  140.0485  157.0856 H   0  0  0  0  0  0  0  0  0  0  0  0  # atno 8009 bound_to 7997
  155.0197  140.3122  155.4801 H   0  0  0  0  0  0  0  0  0  0  0  0  # atno 8010 bound_to 7997
  140.4149  144.1540  150.6142 H   0  0  0  0  0  0  0  0  0  0  0  0  # atno 10167 bound_to 10162
  156.0183  130.4459  150.3153 H   0  0  0  0  0  0  0  0  0  0  0  0  # atno 10718 bound_to 10713
  153.2444  135.6907  153.7747 H   0  0  0  0  0  0  0  0  0  0  0  0  # atno 10763 bound_to 10752
  153.6865  135.3320  155.3192 H   0  0  0  0  0  0  0  0  0  0  0  0  # atno 10764 bound_to 10752
  154.8369  135.4535  154.1378 H   0  0  0  0  0  0  0  0  0  0  0  0  # atno 10765 bound_to 10752
  141.0912  133.6632  156.3990 H   0  0  0  0  0  0  0  0  0  0  0  0  # atno 11005 bound_to 11000
  146.2232  140.5800  142.9008 LP  0  0  0  0  0  0  0  0  0  0  0  0  # atno 17320 bound_to 7965
  144.7785  140.5791  143.6621 LP  0  0  0  0  0  0  0  0  0  0  0  0  # atno 17321 bound_to 7965
  140.4597  143.2454  151.9237 LP  0  0  0  0  0  0  0  0  0  0  0  0  # atno 17342 bound_to 10162
  139.4782  144.5480  151.8429 LP  0  0  0  0  0  0  0  0  0  0  0  0  # atno 17343 bound_to 10162
  157.1254  131.0258  151.2992 LP  0  0  0  0  0  0  0  0  0  0  0  0  # atno 17370 bound_to 10713
  157.4594  130.7644  149.7222 LP  0  0  0  0  0  0  0  0  0  0  0  0  # atno 17371 bound_to 10713
  140.5247  134.6270  157.5330 LP  0  0  0  0  0  0  0  0  0  0  0  0  # atno 17394 bound_to 11000
  139.9738  134.7248  155.9989 LP  0  0  0  0  0  0  0  0  0  0  0  0  # atno 17395 bound_to 11000

$$$$
