AV-unprocessed.smi:3324|AV-procd|sdf|12782|dock9
  -GOLD-   2272019133D 1   1.00000     0.00000
 Structure written by MMmdl.
 30 30  0  0  0  0  0  0  0  0  1 V2000
  146.8052  138.4510  151.2317 O   0  0  0  0  0  0  0  0  0  0  0  0
  146.2122  138.3931  152.3083 C   0  0  0  0  0  0  0  0  0  0  0  0
  145.1538  137.3165  152.5411 C   0  0  0  0  0  0  0  0  0  0  0  0
  144.7000  136.7256  151.2783 N   0  0  0  0  0  0  0  0  0  0  0  0
  145.6207  135.6899  150.8358 C   0  0  0  0  0  0  0  0  0  0  0  0
  145.6482  134.5578  151.8723 C   0  0  0  0  0  0  0  0  0  0  0  0
  144.9670  133.3740  151.3860 N   0  0  0  0  0  0  0  0  0  0  0  0
  145.4859  132.1143  151.1736 C   0  0  0  0  0  0  0  0  0  0  0  0
  144.4695  131.3301  150.7083 C   0  0  0  0  0  0  0  0  0  0  0  0
  143.3535  132.2123  150.6680 C   0  0  0  0  0  0  0  0  0  0  0  0
  143.6554  133.4360  151.0709 N   0  0  0  0  0  0  0  0  0  0  0  0
  146.4414  139.2357  153.3269 N   0  0  0  0  0  0  0  0  0  0  0  0
  147.4113  140.3261  153.3170 C   0  0  0  0  0  0  0  0  0  0  0  0
  148.4939  140.1457  154.3942 C   0  0  0  0  0  0  0  0  0  0  0  0
  147.9078  140.0069  155.5825 F   0  0  0  0  0  0  0  0  0  0  0  0
  149.2158  139.0529  154.1440 F   0  0  0  0  0  0  0  0  0  0  0  0
  149.3020  141.2050  154.4400 F   0  0  0  0  0  0  0  0  0  0  0  0
  145.5631  136.5380  153.1873 H   0  0  0  0  0  0  0  0  0  0  0  0
  144.3102  137.7651  153.0684 H   0  0  0  0  0  0  0  0  0  0  0  0
  144.6206  137.4262  150.5546 H   0  0  0  0  0  0  0  0  0  0  0  0
  145.3046  135.3040  149.8651 H   0  0  0  0  0  0  0  0  0  0  0  0
  146.6209  136.1088  150.7141 H   0  0  0  0  0  0  0  0  0  0  0  0
  146.6770  134.2861  152.1135 H   0  0  0  0  0  0  0  0  0  0  0  0
  145.1783  134.8766  152.8043 H   0  0  0  0  0  0  0  0  0  0  0  0
  146.5230  131.8844  151.3685 H   0  0  0  0  0  0  0  0  0  0  0  0
  144.5160  130.2856  150.4380 H   0  0  0  0  0  0  0  0  0  0  0  0
  142.3400  132.0015  150.3593 H   0  0  0  0  0  0  0  0  0  0  0  0
  145.9045  139.1099  154.1728 H   0  0  0  0  0  0  0  0  0  0  0  0
  147.8685  140.4241  152.3309 H   0  0  0  0  0  0  0  0  0  0  0  0
  146.8690  141.2550  153.4955 H   0  0  0  0  0  0  0  0  0  0  0  0
  1  2  2  0  0  0  0
  2  3  1  0  0  0  0
  2 12  1  0  0  0  0
  3  4  1  0  0  0  0
  3 18  1  0  0  0  0
  3 19  1  0  0  0  0
  4  5  1  0  0  0  0
  4 20  1  0  0  0  0
  5  6  1  0  0  0  0
  5 21  1  0  0  0  0
  5 22  1  0  0  0  0
  6  7  1  0  0  0  0
  6 23  1  0  0  0  0
  6 24  1  0  0  0  0
  7 11  1  0  0  0  0
  7  8  1  0  0  0  0
  8  9  2  0  0  0  0
  8 25  1  0  0  0  0
  9 10  1  0  0  0  0
  9 26  1  0  0  0  0
 10 11  2  0  0  0  0
 10 27  1  0  0  0  0
 12 13  1  0  0  0  0
 12 28  1  0  0  0  0
 13 14  1  0  0  0  0
 13 29  1  0  0  0  0
 13 30  1  0  0  0  0
 14 15  1  0  0  0  0
 14 16  1  0  0  0  0
 14 17  1  0  0  0  0
M  END
> <s_m_source_file>
AV-unprocessed.smi

> <i_m_source_file_index>
3324

> <i_lp_mmshare_version>
43012

> <i_f3d_flags>
0

> <s_epik_input>
RkMoRikoRilbQ0gyXVtOSF1DKD1PKVtDSDJdW05IXVtDSDJdW0NIMl1uMVtjSF1bY0hdW2NIXW4x

> <s_epik_cmdline>
J2VwaWtfcHl0aG9uJywgJy1waCcsICc3LjAnLCAnLXRuJywgJzgnLCAnLW1hJywgJzIwMCcsICctbWV0YWxfYmluZGluZycsICctaW1hZScsICc8aW5maWxlLm1hZT4nLCAnLW9tYWUnLCAnPG91dGZpbGUubWFlPic=

> <r_lp_tautomer_probability>
1

> <r_epik_Ionization_Penalty>
0.533356

> <r_epik_Ionization_Penalty_Charging>
0

> <r_epik_Ionization_Penalty_Neutral>
0.533356

> <r_epik_State_Penalty>
0.540813

> <r_epik_Charging_Adjusted_Penalty>
0.540813

> <i_epik_Tot_Q>
0

> <i_epik_Tot_abs_Q>
0

> <r_epik_Metal_State_Penalty>
0.549553

> <b_epik_Metal_Only>
0

> <s_lp_Force_Field>
OPLS_2005

> <r_lp_Energy>
3.03628

> <b_lp_Chiralities_Consistent>
1

> <s_lp_Variant>
AV-unprocessed.smi:3324-2

> <Gold.Version>
5.8.1

> <Gold.Id.Protein>
6NUR|6NUR_protein|mol2

> <Gold.PLP.Fitness>
43.1879

> <Gold.PLP.PLP>
-32.4488

> <Gold.PLP.part.hbond>
-2.7966

> <Gold.PLP.part.metal>
0.0000

> <Gold.PLP.part.buried>
-3.9124

> <Gold.PLP.part.nonpolar>
-27.0672

> <Gold.PLP.part.repulsive>
0.5214

> <Gold.PLP.ligand.clash>
0.0000

> <Gold.PLP.ligand.torsion>
0.7004

> <Gold.PLP.Chemscore.Hbond>
2.0000

> <Gold.PLP.Chemscore.CHOScore>
1.9974

> <Gold.PLP.Chemscore.Metal>
0.0000

> <Gold.Chemscore.Hbonds>
donor molecule, donor type, donor heavy atom, donor atom, acceptor molecule, acceptor atom, score
      L1  H     4    20       P1 10171  1.00
      P1  H  7954  7966       L1     1  1.00
      L1  C     8    25       P1 10747  0.14
      L1  C    10    27       P1 10186  0.10
      L1  C    10    27       P1 10952  1.00

> <Gold.PLP.Chemscore.Internal.Correction>
0.1476

> <Gold.Rescore>
     Score         DG    S(hbond)    S(metal)    S(lipo)     H(rot)  DE(clash)    DE(int)     intcor
      9.92     -11.69       1.93        0.00      59.89       2.83       0.35       1.41       ----

> <Gold.Chemscore.Fitness>
9.9239

> <Gold.Chemscore.DG>
-11.6865

> <Gold.Chemscore.ZeroCoef>
-5.4800

> <Gold.Chemscore.Hbond>
1.9300

> <Gold.Chemscore.Metal>
0.0000

> <Gold.Chemscore.Lipo>
59.8854

> <Gold.Chemscore.Internal_Hbond>
0.0000

> <Gold.Chemscore.DEClash>
0.3478

> <Gold.Chemscore.DEInternal>
1.4148

> <Gold.Chemscore.Rot>
2.8305

> <Gold.Chemscore.Internal.Correction>
   9.000000E+99

> <Gold.Chemscore.Hbonds>
donor molecule, donor type, donor heavy atom, donor atom, acceptor molecule, acceptor atom, score
      L1  H     4    20       P1 10171  0.94
      P1  H  7954  7966       L1     1  0.96

> <Gold.Chemscore.Hbond.Weighted>
-6.4461

> <Gold.Chemscore.Metal.Weighted>
-0.0000

> <Gold.Chemscore.Lipo.Weighted>
-7.0066

> <Gold.Chemscore.Internal_Hbond.Weighted>
0.0000

> <Gold.Chemscore.DEClash.Weighted>
0.3478

> <Gold.Chemscore.DEInternal.Weighted>
1.4148

> <Gold.Chemscore.Rot.Weighted>
7.2461

> <Gold.Chemscore.Internal.Correction.Weighted>
   9.000000E+99

> <Gold.Protein.RotatedTorsions>
[ 6907 6896 6895 6894 ] final  127.83 input  -60.11 | X-H torsion
[ 7974 7965 7964 7962 ] final    1.15 input  175.53 | X-H torsion
[ 8008 7997 7996 7995 ] final  117.30 input   59.86 | X-H torsion
[ 10167 10162 10161 10158 ] final  147.60 input  -65.29 | X-H torsion
[ 10718 10713 10712 10709 ] final  -95.43 input   66.30 | X-H torsion
[ 10763 10752 10751 10750 ] final  -55.60 input  -60.55 | X-H torsion
[ 11005 11000 10999 10996 ] final  167.31 input  -57.11 | X-H torsion

> <Gold.Protein.ActiveResidues>
 VAL166  LYS551  ARG553  GLY616  TRP617  ASP618  TYR619  PRO620  LYS621  CYS622 
 ASP623  PHE694  ASN695  SER759  ASP760  ASP761  ALA762  ILE779  LEU786  VAL792 
 PHE793  MET794  SER795  GLU796  ALA797  LYS798  CYS799  TRP800  GLU811  SER814 

> <Gold.Protein.RotatedAtoms>
  152.3776  133.6502  159.6135 H   0  0  0  0  0  0  0  0  0  0  0  0  # atno 6907 bound_to 6896
  150.7716  133.9167  159.3394 H   0  0  0  0  0  0  0  0  0  0  0  0  # atno 6908 bound_to 6896
  151.6979  135.0936  160.0297 H   0  0  0  0  0  0  0  0  0  0  0  0  # atno 6909 bound_to 6896
  146.2439  140.1030  142.8347 H   0  0  0  0  0  0  0  0  0  0  0  0  # atno 7974 bound_to 7965
  156.2487  140.2899  156.0658 H   0  0  0  0  0  0  0  0  0  0  0  0  # atno 8008 bound_to 7997
  155.1726  140.0402  157.2883 H   0  0  0  0  0  0  0  0  0  0  0  0  # atno 8009 bound_to 7997
  154.6315  140.2500  155.7435 H   0  0  0  0  0  0  0  0  0  0  0  0  # atno 8010 bound_to 7997
  139.4887  144.5743  151.6995 H   0  0  0  0  0  0  0  0  0  0  0  0  # atno 10167 bound_to 10162
  156.0043  130.5109  150.6076 H   0  0  0  0  0  0  0  0  0  0  0  0  # atno 10718 bound_to 10713
  154.1934  135.6423  153.5066 H   0  0  0  0  0  0  0  0  0  0  0  0  # atno 10763 bound_to 10752
  153.0029  135.5434  154.6391 H   0  0  0  0  0  0  0  0  0  0  0  0  # atno 10764 bound_to 10752
  154.5786  135.2923  155.0729 H   0  0  0  0  0  0  0  0  0  0  0  0  # atno 10765 bound_to 10752
  140.2755  134.7792  157.3713 H   0  0  0  0  0  0  0  0  0  0  0  0  # atno 11005 bound_to 11000
  145.0552  140.9047  143.4971 LP  0  0  0  0  0  0  0  0  0  0  0  0  # atno 17320 bound_to 7965
  145.1135  139.2741  143.5625 LP  0  0  0  0  0  0  0  0  0  0  0  0  # atno 17321 bound_to 7965
  140.5336  144.0691  150.6062 LP  0  0  0  0  0  0  0  0  0  0  0  0  # atno 17342 bound_to 10162
  140.3689  143.2866  152.0300 LP  0  0  0  0  0  0  0  0  0  0  0  0  # atno 17343 bound_to 10162
  157.3914  131.0796  151.1390 LP  0  0  0  0  0  0  0  0  0  0  0  0  # atno 17370 bound_to 10713
  157.2081  130.6425  149.5763 LP  0  0  0  0  0  0  0  0  0  0  0  0  # atno 17371 bound_to 10713
  140.1333  134.5067  155.8089 LP  0  0  0  0  0  0  0  0  0  0  0  0  # atno 17394 bound_to 11000
  141.2171  133.6798  156.7078 LP  0  0  0  0  0  0  0  0  0  0  0  0  # atno 17395 bound_to 11000

$$$$
