AV-unprocessed.smi:1013|AV-procd|sdf|4429|dock2
  -GOLD-   22720 2383D 1   1.00000     0.00000
 Structure written by MMmdl.
 29 30  0  0  0  0  0  0  0  0  2 V2000
  153.6196  139.0999  154.7040 O   0  0  0  0  0  0  0  0  0  0  0  0
  152.5576  138.4537  154.5568 C   0  0  0  0  0  0  0  0  0  0  0  0
  152.4519  137.3747  153.9340 O   0  5  0  0  0  0  0  0  0  0  0  0
  151.2768  139.0100  155.1942 C   0  0  1  0  0  0  0  0  0  0  0  0
  151.6590  139.9634  156.3519 C   0  0  0  0  0  0  0  0  0  0  0  0
  152.0189  139.2748  157.5776 N   0  0  0  0  0  0  0  0  0  0  0  0
  151.3104  138.3062  158.2544 C   0  0  0  0  0  0  0  0  0  0  0  0
  152.0420  137.9639  159.3550 C   0  0  0  0  0  0  0  0  0  0  0  0
  153.1986  138.7930  159.2740 C   0  0  0  0  0  0  0  0  0  0  0  0
  154.3691  138.8593  160.2190 C   0  0  0  0  0  0  0  0  0  0  0  0
  154.2184  137.9642  161.1951 F   0  0  0  0  0  0  0  0  0  0  0  0
  155.5033  138.5973  159.5693 F   0  0  0  0  0  0  0  0  0  0  0  0
  154.4543  140.0770  160.7546 F   0  0  0  0  0  0  0  0  0  0  0  0
  153.1732  139.5806  158.2075 N   0  0  0  0  0  0  0  0  0  0  0  0
  150.4435  139.6779  154.1791 N   0  0  0  0  0  0  0  0  0  0  0  0
  149.2103  140.1883  154.7516 C   0  0  0  0  0  0  0  0  0  0  0  0
  148.5576  141.3666  154.0691 C   0  0  0  0  0  0  0  0  0  0  0  0
  149.2650  141.5543  155.3913 C   0  0  0  0  0  0  0  0  0  0  0  0
  150.7374  138.1476  155.5902 H   0  0  0  0  0  0  0  0  0  0  0  0
  152.5096  140.5859  156.0682 H   0  0  0  0  0  0  0  0  0  0  0  0
  150.8376  140.6491  156.5660 H   0  0  0  0  0  0  0  0  0  0  0  0
  150.3585  137.9419  157.8969 H   0  0  0  0  0  0  0  0  0  0  0  0
  151.7891  137.2311  160.1066 H   0  0  0  0  0  0  0  0  0  0  0  0
  150.2218  139.0357  153.4313 H   0  0  0  0  0  0  0  0  0  0  0  0
  148.5261  139.4935  155.2321 H   0  0  0  0  0  0  0  0  0  0  0  0
  149.0380  141.7695  153.1793 H   0  0  0  0  0  0  0  0  0  0  0  0
  147.4702  141.4040  154.0684 H   0  0  0  0  0  0  0  0  0  0  0  0
  148.6479  141.7208  156.2717 H   0  0  0  0  0  0  0  0  0  0  0  0
  150.2149  142.0857  155.3810 H   0  0  0  0  0  0  0  0  0  0  0  0
  1  2  2  0  0  0  0
  2  3  1  0  0  0  0
  2  4  1  0  0  0  0
  4  5  1  0  0  0  0
  4 15  1  0  0  0  0
  4 19  1  0  0  0  0
  5  6  1  0  0  0  0
  5 20  1  0  0  0  0
  5 21  1  0  0  0  0
  6 14  1  0  0  0  0
  6  7  1  0  0  0  0
  7  8  2  0  0  0  0
  7 22  1  0  0  0  0
  8  9  1  0  0  0  0
  8 23  1  0  0  0  0
  9 10  1  0  0  0  0
  9 14  2  0  0  0  0
 10 11  1  0  0  0  0
 10 12  1  0  0  0  0
 10 13  1  0  0  0  0
 15 16  1  0  0  0  0
 15 24  1  0  0  0  0
 16 18  1  0  0  0  0
 16 17  1  0  0  0  0
 16 25  1  0  0  0  0
 17 18  1  0  0  0  0
 17 26  1  0  0  0  0
 17 27  1  0  0  0  0
 18 28  1  0  0  0  0
 18 29  1  0  0  0  0
M  CHG  1   3  -1
M  END
> <s_m_source_file>
AV-unprocessed.smi

> <i_m_source_file_index>
1013

> <i_lp_mmshare_version>
43012

> <i_f3d_flags>
0

> <s_epik_input>
W0NIMl0xW0NIMl1bQ0hdMVtOSF1bQ0BIXShDKD1PKVtPSF0pW0NIMl1uMltjSF1bY0hdYyhuMilDKEYpKEYpRg==

> <s_epik_cmdline>
J2VwaWtfcHl0aG9uJywgJy1waCcsICc3LjAnLCAnLXRuJywgJzgnLCAnLW1hJywgJzIwMCcsICctbWV0YWxfYmluZGluZycsICctaW1hZScsICc8aW5maWxlLm1hZT4nLCAnLW9tYWUnLCAnPG91dGZpbGUubWFlPic=

> <r_lp_tautomer_probability>
1

> <r_epik_Ionization_Penalty>
0.786284

> <r_epik_Ionization_Penalty_Charging>
0.00153368

> <r_epik_Ionization_Penalty_Neutral>
0.78475

> <r_epik_State_Penalty>
0.814638

> <r_epik_Charging_Adjusted_Penalty>
0.816172

> <i_epik_Tot_Q>
-1

> <i_epik_Tot_abs_Q>
1

> <r_epik_Metal_State_Penalty>
0.814638

> <b_epik_Metal_Only>
0

> <s_lp_Force_Field>
OPLS_2005

> <r_lp_Energy>
17.111

> <b_lp_Chiralities_Consistent>
1

> <s_lp_Variant>
AV-unprocessed.smi:1013-4

> <Gold.Version>
5.8.1

> <Gold.Id.Protein>
6NUR|6NUR_protein|mol2

> <Gold.PLP.Fitness>
47.1016

> <Gold.PLP.PLP>
-32.6056

> <Gold.PLP.part.hbond>
-4.5676

> <Gold.PLP.part.metal>
0.0000

> <Gold.PLP.part.buried>
-4.8395

> <Gold.PLP.part.nonpolar>
-24.8554

> <Gold.PLP.part.repulsive>
0.1649

> <Gold.PLP.ligand.clash>
0.0000

> <Gold.PLP.ligand.torsion>
1.1550

> <Gold.PLP.Chemscore.Hbond>
5.3680

> <Gold.PLP.Chemscore.CHOScore>
0.0000

> <Gold.PLP.Chemscore.Metal>
0.0000

> <Gold.Chemscore.Hbonds>
donor molecule, donor type, donor heavy atom, donor atom, acceptor molecule, acceptor atom, score
      P1  H  7989  7998       L1    15  1.00
      P1  H  7997  8009       L1    14  0.85
      P1  H  7997  8010       L1     1  2.00
      P1  H 10752 10765       L1     3  1.57

> <Gold.PLP.Chemscore.Internal.Correction>
0.7021

> <Gold.Rescore>
     Score         DG    S(hbond)    S(metal)    S(lipo)     H(rot)  DE(clash)    DE(int)     intcor
     13.97     -14.89       2.80        0.00      55.45       2.52       0.01       0.91       ----

> <Gold.Chemscore.Fitness>
13.9719

> <Gold.Chemscore.DG>
-14.8930

> <Gold.Chemscore.ZeroCoef>
-5.4800

> <Gold.Chemscore.Hbond>
2.8042

> <Gold.Chemscore.Metal>
0.0000

> <Gold.Chemscore.Lipo>
55.4470

> <Gold.Chemscore.Internal_Hbond>
0.0000

> <Gold.Chemscore.DEClash>
0.0081

> <Gold.Chemscore.DEInternal>
0.9130

> <Gold.Chemscore.Rot>
2.5157

> <Gold.Chemscore.Internal.Correction>
   9.000000E+99

> <Gold.Chemscore.Hbonds>
donor molecule, donor type, donor heavy atom, donor atom, acceptor molecule, acceptor atom, score
      P1  H  7989  7998       L1    15  0.16
      P1  H  7997  8009       L1    14  0.75
      P1  H  7997  8010       L1     1  0.94
      P1  H 10752 10765       L1     3  0.78

> <Gold.Chemscore.Hbond.Weighted>
-9.3660

> <Gold.Chemscore.Metal.Weighted>
-0.0000

> <Gold.Chemscore.Lipo.Weighted>
-6.4873

> <Gold.Chemscore.Internal_Hbond.Weighted>
0.0000

> <Gold.Chemscore.DEClash.Weighted>
0.0081

> <Gold.Chemscore.DEInternal.Weighted>
0.9130

> <Gold.Chemscore.Rot.Weighted>
6.4402

> <Gold.Chemscore.Internal.Correction.Weighted>
   9.000000E+99

> <Gold.Protein.RotatedTorsions>
[ 6907 6896 6895 6894 ] final   45.04 input  -60.11 | X-H torsion
[ 7974 7965 7964 7962 ] final  -79.04 input  175.53 | X-H torsion
[ 8008 7997 7996 7995 ] final  130.29 input   59.86 | X-H torsion
[ 10167 10162 10161 10158 ] final   19.05 input  -65.29 | X-H torsion
[ 10718 10713 10712 10709 ] final -132.26 input   66.30 | X-H torsion
[ 10763 10752 10751 10750 ] final  143.47 input  -60.55 | X-H torsion
[ 11005 11000 10999 10996 ] final  -86.85 input  -57.11 | X-H torsion

> <Gold.Protein.ActiveResidues>
 VAL166  LYS551  ARG553  GLY616  TRP617  ASP618  TYR619  PRO620  LYS621  CYS622 
 ASP623  PHE694  ASN695  SER759  ASP760  ASP761  ALA762  ILE779  LEU786  VAL792 
 PHE793  MET794  SER795  GLU796  ALA797  LYS798  CYS799  TRP800  GLU811  SER814 

> <Gold.Protein.RotatedAtoms>
  152.2398  134.8240  160.0461 H   0  0  0  0  0  0  0  0  0  0  0  0  # atno 6907 bound_to 6896
  151.8958  133.3521  159.3822 H   0  0  0  0  0  0  0  0  0  0  0  0  # atno 6908 bound_to 6896
  150.7050  134.4804  159.5511 H   0  0  0  0  0  0  0  0  0  0  0  0  # atno 6909 bound_to 6896
  145.5785  140.9453  143.1357 H   0  0  0  0  0  0  0  0  0  0  0  0  # atno 7974 bound_to 7965
  156.2952  140.2600  156.2737 H   0  0  0  0  0  0  0  0  0  0  0  0  # atno 8008 bound_to 7997
  154.9670  140.0391  157.2235 H   0  0  0  0  0  0  0  0  0  0  0  0  # atno 8009 bound_to 7997
  154.7894  140.2809  155.6008 H   0  0  0  0  0  0  0  0  0  0  0  0  # atno 8010 bound_to 7997
  140.5608  143.9341  150.6641 H   0  0  0  0  0  0  0  0  0  0  0  0  # atno 10167 bound_to 10162
  156.2328  130.7048  151.0876 H   0  0  0  0  0  0  0  0  0  0  0  0  # atno 10718 bound_to 10713
  153.9729  135.2949  155.3426 H   0  0  0  0  0  0  0  0  0  0  0  0  # atno 10763 bound_to 10752
  154.7312  135.5066  153.8970 H   0  0  0  0  0  0  0  0  0  0  0  0  # atno 10764 bound_to 10752
  153.0891  135.6702  154.0001 H   0  0  0  0  0  0  0  0  0  0  0  0  # atno 10765 bound_to 10752
  141.1625  133.7477  156.9221 H   0  0  0  0  0  0  0  0  0  0  0  0  # atno 11005 bound_to 11000
  144.7405  139.7463  143.7312 LP  0  0  0  0  0  0  0  0  0  0  0  0  # atno 17320 bound_to 7965
  146.1733  139.4893  142.9913 LP  0  0  0  0  0  0  0  0  0  0  0  0  # atno 17321 bound_to 7965
  140.2791  143.3402  152.1168 LP  0  0  0  0  0  0  0  0  0  0  0  0  # atno 17342 bound_to 10162
  139.5069  144.6822  151.5979 LP  0  0  0  0  0  0  0  0  0  0  0  0  # atno 17343 bound_to 10162
  157.7140  131.0719  150.6394 LP  0  0  0  0  0  0  0  0  0  0  0  0  # atno 17370 bound_to 10713
  156.6463  130.4472  149.5735 LP  0  0  0  0  0  0  0  0  0  0  0  0  # atno 17371 bound_to 10713
  140.1444  134.9272  157.2510 LP  0  0  0  0  0  0  0  0  0  0  0  0  # atno 17394 bound_to 11000
  140.2797  134.3364  155.7347 LP  0  0  0  0  0  0  0  0  0  0  0  0  # atno 17395 bound_to 11000

$$$$
