AV-unprocessed.smi:107|AV-procd|sdf|1014|dock8
  -GOLD-   2262018 13D 1   1.00000     0.00000
 Structure written by MMmdl.
 31 32  0  0  0  0  0  0  0  0  1 V2000
  151.9280  137.8770  154.0708 C   0  0  0  0  0  0  0  0  0  0  0  0
  150.9183  138.8506  154.6554 C   0  0  0  0  0  0  0  0  0  0  0  0
  149.6276  138.8972  154.2377 C   0  0  0  0  0  0  0  0  0  0  0  0
  148.6808  139.7704  154.7531 N   0  0  0  0  0  0  0  0  0  0  0  0
  147.2612  139.7432  154.2383 C   0  0  1  0  0  0  0  0  0  0  0  0
  147.1742  140.3059  152.8129 C   0  0  0  0  0  0  0  0  0  0  0  0
  146.6009  139.1440  152.0143 C   0  0  1  0  0  0  0  0  0  0  0  0
  147.6238  138.4856  151.2900 O   0  0  0  0  0  0  0  0  0  0  0  0
  145.9750  138.2417  153.0892 C   0  0  1  0  0  0  0  0  0  0  0  0
  145.8453  136.7543  152.7162 C   0  0  0  0  0  0  0  0  0  0  0  0
  144.9077  136.5958  151.6730 O   0  0  0  0  0  0  0  0  0  0  0  0
  146.8376  138.4168  154.2049 O   0  0  0  0  0  0  0  0  0  0  0  0
  149.0523  140.6695  155.7747 C   0  0  0  0  0  0  0  0  0  0  0  0
  148.2737  141.4779  156.2786 O   0  0  0  0  0  0  0  0  0  0  0  0
  150.3777  140.6225  156.2041 N   0  0  0  0  0  0  0  0  0  0  0  0
  151.3636  139.7636  155.7117 C   0  0  0  0  0  0  0  0  0  0  0  0
  152.5029  139.8196  156.1720 O   0  0  0  0  0  0  0  0  0  0  0  0
  150.6496  141.2664  156.9326 H   0  0  0  0  0  0  0  0  0  0  0  0
  151.4902  137.2672  153.2801 H   0  0  0  0  0  0  0  0  0  0  0  0
  152.3003  137.2048  154.8446 H   0  0  0  0  0  0  0  0  0  0  0  0
  152.7768  138.4147  153.6467 H   0  0  0  0  0  0  0  0  0  0  0  0
  149.3175  138.2138  153.4607 H   0  0  0  0  0  0  0  0  0  0  0  0
  146.6271  140.2855  154.9408 H   0  0  0  0  0  0  0  0  0  0  0  0
  146.4877  141.1532  152.8195 H   0  0  0  0  0  0  0  0  0  0  0  0
  148.1426  140.6516  152.4468 H   0  0  0  0  0  0  0  0  0  0  0  0
  145.8512  139.4841  151.2992 H   0  0  0  0  0  0  0  0  0  0  0  0
  148.4458  138.9150  151.4714 H   0  0  0  0  0  0  0  0  0  0  0  0
  144.9961  138.6514  153.3466 H   0  0  0  0  0  0  0  0  0  0  0  0
  146.8006  136.3733  152.3540 H   0  0  0  0  0  0  0  0  0  0  0  0
  145.5583  136.1513  153.5784 H   0  0  0  0  0  0  0  0  0  0  0  0
  144.8415  137.4118  151.2010 H   0  0  0  0  0  0  0  0  0  0  0  0
  1  2  1  0  0  0  0
  1 19  1  0  0  0  0
  1 20  1  0  0  0  0
  1 21  1  0  0  0  0
  2 16  1  0  0  0  0
  2  3  2  0  0  0  0
  3  4  1  0  0  0  0
  3 22  1  0  0  0  0
  4  5  1  0  0  0  0
  4 13  1  0  0  0  0
  5 12  1  0  0  0  0
  5  6  1  0  0  0  0
  5 23  1  0  0  0  0
  6  7  1  0  0  0  0
  6 24  1  0  0  0  0
  6 25  1  0  0  0  0
  7  8  1  0  0  0  0
  7  9  1  0  0  0  0
  7 26  1  0  0  0  0
  8 27  1  0  0  0  0
  9 10  1  0  0  0  0
  9 12  1  0  0  0  0
  9 28  1  0  0  0  0
 10 11  1  0  0  0  0
 10 29  1  0  0  0  0
 10 30  1  0  0  0  0
 11 31  1  0  0  0  0
 13 14  2  0  0  0  0
 13 15  1  0  0  0  0
 15 18  1  0  0  0  0
 15 16  1  0  0  0  0
 16 17  2  0  0  0  0
M  END
> <s_m_source_file>
AV-unprocessed.smi

> <i_m_source_file_index>
107

> <i_lp_mmshare_version>
43012

> <i_f3d_flags>
0

> <s_epik_input>
Tz1jMVtuSF1jKD1PKW4oW2NIXWMxW0NIM10pW0NAQEhdMltDSDJdW0NAQEhdKFtPSF0pW0NASF0oTzIpW0NIMl1bT0hd

> <s_epik_cmdline>
J2VwaWtfcHl0aG9uJywgJy1waCcsICc3LjAnLCAnLXRuJywgJzgnLCAnLW1hJywgJzIwMCcsICctbWV0YWxfYmluZGluZycsICctaW1hZScsICc8aW5maWxlLm1hZT4nLCAnLW9tYWUnLCAnPG91dGZpbGUubWFlPic=

> <r_lp_tautomer_probability>
0.999537

> <r_epik_Ionization_Penalty>
0.00121888

> <r_epik_Ionization_Penalty_Charging>
0.00121876

> <r_epik_Ionization_Penalty_Neutral>
1.19946e-07

> <r_epik_State_Penalty>
0.000805124

> <r_epik_Charging_Adjusted_Penalty>
0.00202389

> <i_epik_Tot_Q>
0

> <i_epik_Tot_abs_Q>
0

> <r_epik_Metal_State_Penalty>
0.662472

> <b_epik_Metal_Only>
0

> <s_epik_Chemistry_Notes>
This compound contains an acetal/aminal-like group ( X-CH(R)-Y where X, Y are N, S, or O) that may be acid/base labile, releasing an aldehyde.

> <s_lp_Force_Field>
OPLS_2005

> <r_lp_Energy>
28.3693

> <b_lp_Chiralities_Consistent>
1

> <s_lp_Variant>
AV-unprocessed.smi:107-2

> <Gold.Version>
5.8.1

> <Gold.Id.Protein>
6NUR|6NUR_protein|mol2

> <Gold.PLP.Fitness>
38.0137

> <Gold.PLP.PLP>
-25.1171

> <Gold.PLP.part.hbond>
-4.8252

> <Gold.PLP.part.metal>
0.0000

> <Gold.PLP.part.buried>
2.2955

> <Gold.PLP.part.nonpolar>
-22.0520

> <Gold.PLP.part.repulsive>
0.3036

> <Gold.PLP.ligand.clash>
0.0000

> <Gold.PLP.ligand.torsion>
0.2582

> <Gold.PLP.Chemscore.Hbond>
3.5027

> <Gold.PLP.Chemscore.CHOScore>
0.9665

> <Gold.PLP.Chemscore.Metal>
0.0000

> <Gold.Chemscore.Hbonds>
donor molecule, donor type, donor heavy atom, donor atom, acceptor molecule, acceptor atom, score
      L1  H     8    27       P1  7957  1.00
      L1  H    11    31       P1 10171  0.92
      P1  H  7954  7966       L1     8  0.60
      P1  H  7997  8008       L1    17  1.00
      L1  C     3    22       P1  7948  0.97

> <Gold.PLP.Chemscore.Internal.Correction>
0.0053

> <Gold.Rescore>
     Score         DG    S(hbond)    S(metal)    S(lipo)     H(rot)  DE(clash)    DE(int)     intcor
     12.89     -13.34       2.67        0.00      50.54       2.73       0.30       0.16       ----

> <Gold.Chemscore.Fitness>
12.8877

> <Gold.Chemscore.DG>
-13.3444

> <Gold.Chemscore.ZeroCoef>
-5.4800

> <Gold.Chemscore.Hbond>
2.6731

> <Gold.Chemscore.Metal>
0.0000

> <Gold.Chemscore.Lipo>
50.5403

> <Gold.Chemscore.Internal_Hbond>
0.0000

> <Gold.Chemscore.DEClash>
0.2962

> <Gold.Chemscore.DEInternal>
0.1605

> <Gold.Chemscore.Rot>
2.7253

> <Gold.Chemscore.Internal.Correction>
   9.000000E+99

> <Gold.Chemscore.Hbonds>
donor molecule, donor type, donor heavy atom, donor atom, acceptor molecule, acceptor atom, score
      L1  H     8    27       P1  7957  0.47
      L1  H    11    31       P1 10171  0.83
      P1  H  7954  7966       L1     8  0.04
      P1  H  7997  8008       L1    17  1.00

> <Gold.Chemscore.Hbond.Weighted>
-8.9281

> <Gold.Chemscore.Metal.Weighted>
-0.0000

> <Gold.Chemscore.Lipo.Weighted>
-5.9132

> <Gold.Chemscore.Internal_Hbond.Weighted>
0.0000

> <Gold.Chemscore.DEClash.Weighted>
0.2962

> <Gold.Chemscore.DEInternal.Weighted>
0.1605

> <Gold.Chemscore.Rot.Weighted>
6.9769

> <Gold.Chemscore.Internal.Correction.Weighted>
   9.000000E+99

> <Gold.Protein.RotatedTorsions>
[ 6907 6896 6895 6894 ] final  132.51 input  -60.11 | X-H torsion
[ 7974 7965 7964 7962 ] final  -65.05 input  175.53 | X-H torsion
[ 8008 7997 7996 7995 ] final  -43.06 input   59.86 | X-H torsion
[ 10167 10162 10161 10158 ] final  -15.51 input  -65.29 | X-H torsion
[ 10718 10713 10712 10709 ] final -114.24 input   66.30 | X-H torsion
[ 10763 10752 10751 10750 ] final  105.82 input  -60.55 | X-H torsion
[ 11005 11000 10999 10996 ] final  -15.69 input  -57.11 | X-H torsion

> <Gold.Protein.ActiveResidues>
 VAL166  LYS551  ARG553  GLY616  TRP617  ASP618  TYR619  PRO620  LYS621  CYS622 
 ASP623  PHE694  ASN695  SER759  ASP760  ASP761  ALA762  ILE779  LEU786  VAL792 
 PHE793  MET794  SER795  GLU796  ALA797  LYS798  CYS799  TRP800  GLU811  SER814 

> <Gold.Protein.RotatedAtoms>
  152.3316  133.5965  159.5813 H   0  0  0  0  0  0  0  0  0  0  0  0  # atno 6907 bound_to 6896
  150.7427  133.9858  159.3600 H   0  0  0  0  0  0  0  0  0  0  0  0  # atno 6908 bound_to 6896
  151.7732  135.0781  160.0414 H   0  0  0  0  0  0  0  0  0  0  0  0  # atno 6909 bound_to 6896
  145.7591  140.8870  143.0439 H   0  0  0  0  0  0  0  0  0  0  0  0  # atno 7974 bound_to 7965
  154.3997  140.1457  156.3457 H   0  0  0  0  0  0  0  0  0  0  0  0  # atno 8008 bound_to 7997
  155.8315  140.3465  155.5554 H   0  0  0  0  0  0  0  0  0  0  0  0  # atno 8009 bound_to 7997
  155.8183  140.0894  157.1854 H   0  0  0  0  0  0  0  0  0  0  0  0  # atno 8010 bound_to 7997
  140.7219  143.5210  150.9633 H   0  0  0  0  0  0  0  0  0  0  0  0  # atno 10167 bound_to 10162
  156.0817  130.6016  150.8749 H   0  0  0  0  0  0  0  0  0  0  0  0  # atno 10718 bound_to 10713
  153.3845  135.3897  155.1880 H   0  0  0  0  0  0  0  0  0  0  0  0  # atno 10763 bound_to 10752
  154.8712  135.3733  154.4815 H   0  0  0  0  0  0  0  0  0  0  0  0  # atno 10764 bound_to 10752
  153.5295  135.7086  153.5752 H   0  0  0  0  0  0  0  0  0  0  0  0  # atno 10765 bound_to 10752
  140.7992  133.8227  155.9453 H   0  0  0  0  0  0  0  0  0  0  0  0  # atno 11005 bound_to 11000
  144.6834  139.9697  143.7482 LP  0  0  0  0  0  0  0  0  0  0  0  0  # atno 17320 bound_to 7965
  146.0282  139.3311  143.0771 LP  0  0  0  0  0  0  0  0  0  0  0  0  # atno 17321 bound_to 7965
  139.8928  143.6932  152.3143 LP  0  0  0  0  0  0  0  0  0  0  0  0  # atno 17342 bound_to 10162
  139.7254  144.7594  151.0887 LP  0  0  0  0  0  0  0  0  0  0  0  0  # atno 17343 bound_to 10162
  157.5937  131.0944  150.9077 LP  0  0  0  0  0  0  0  0  0  0  0  0  # atno 17370 bound_to 10713
  156.9248  130.5328  149.5279 LP  0  0  0  0  0  0  0  0  0  0  0  0  # atno 17371 bound_to 10713
  140.9312  134.2019  157.4862 LP  0  0  0  0  0  0  0  0  0  0  0  0  # atno 17394 bound_to 11000
  139.8723  134.9833  156.5194 LP  0  0  0  0  0  0  0  0  0  0  0  0  # atno 17395 bound_to 11000

$$$$
