AV-unprocessed.smi:3147|AV-procd|sdf|11987|dock10
  -GOLD-   2272017393D 1   1.00000     0.00000
 Structure written by MMmdl.
 37 38  0  0  0  0  0  0  0  0  2 V2000
  145.4087  137.9543  153.9665 C   0  0  0  0  0  0  0  0  0  0  0  0
  146.6260  138.8155  153.9232 C   0  0  0  0  0  0  0  0  0  0  0  0
  147.8085  138.3855  153.3813 N   0  3  0  0  0  0  0  0  0  0  0  0
  148.7354  139.3416  153.4590 C   0  0  0  0  0  0  0  0  0  0  0  0
  148.1573  140.3929  154.0504 N   0  0  0  0  0  0  0  0  0  0  0  0
  148.8906  141.6443  154.2974 C   0  0  0  0  0  0  0  0  0  0  0  0
  150.0460  141.4653  155.2884 C   0  0  0  0  0  0  0  0  0  0  0  0
  150.8492  140.5405  155.1596 O   0  0  0  0  0  0  0  0  0  0  0  0
  150.1153  142.3703  156.2759 N   0  0  0  0  0  0  0  0  0  0  0  0
  151.1549  142.4227  157.2996 C   0  0  0  0  0  0  0  0  0  0  0  0
  151.3568  143.8413  157.8649 C   0  0  2  0  0  0  0  0  0  0  0  0
  152.5797  144.0336  158.7624 C   0  0  0  0  0  0  0  0  0  0  0  0
  152.2096  145.3069  159.4893 C   0  0  0  0  0  0  0  0  0  0  0  0
  150.7027  145.1443  159.6871 C   0  0  0  0  0  0  0  0  0  0  0  0
  150.2547  144.2523  158.6674 O   0  0  0  0  0  0  0  0  0  0  0  0
  146.8446  140.1042  154.3524 C   0  0  0  0  0  0  0  0  0  0  0  0
  145.9245  141.0814  155.0087 C   0  0  0  0  0  0  0  0  0  0  0  0
  144.9107  138.0529  154.9314 H   0  0  0  0  0  0  0  0  0  0  0  0
  145.6711  136.9062  153.8190 H   0  0  0  0  0  0  0  0  0  0  0  0
  144.7119  138.2526  153.1829 H   0  0  0  0  0  0  0  0  0  0  0  0
  149.7502  139.2771  153.1086 H   0  0  0  0  0  0  0  0  0  0  0  0
  149.2634  142.0122  153.3407 H   0  0  0  0  0  0  0  0  0  0  0  0
  148.1944  142.3909  154.6820 H   0  0  0  0  0  0  0  0  0  0  0  0
  149.4112  143.0935  156.3081 H   0  0  0  0  0  0  0  0  0  0  0  0
  150.8596  141.7517  158.1064 H   0  0  0  0  0  0  0  0  0  0  0  0
  152.0988  142.0343  156.9140 H   0  0  0  0  0  0  0  0  0  0  0  0
  151.4239  144.5440  157.0328 H   0  0  0  0  0  0  0  0  0  0  0  0
  152.6830  143.2185  159.4791 H   0  0  0  0  0  0  0  0  0  0  0  0
  153.5106  144.1172  158.2009 H   0  0  0  0  0  0  0  0  0  0  0  0
  152.7511  145.4404  160.4261 H   0  0  0  0  0  0  0  0  0  0  0  0
  152.4126  146.1696  158.8530 H   0  0  0  0  0  0  0  0  0  0  0  0
  150.4897  144.6971  160.6580 H   0  0  0  0  0  0  0  0  0  0  0  0
  150.1792  146.0991  159.6335 H   0  0  0  0  0  0  0  0  0  0  0  0
  144.9714  140.6091  155.2462 H   0  0  0  0  0  0  0  0  0  0  0  0
  145.7347  141.9221  154.3417 H   0  0  0  0  0  0  0  0  0  0  0  0
  146.3615  141.4576  155.9338 H   0  0  0  0  0  0  0  0  0  0  0  0
  147.9606  137.4712  152.9741 H   0  0  0  0  0  0  0  0  0  0  0  0
  1  2  1  0  0  0  0
  1 18  1  0  0  0  0
  1 19  1  0  0  0  0
  1 20  1  0  0  0  0
  2 16  2  0  0  0  0
  2  3  1  0  0  0  0
  3  4  2  0  0  0  0
  3 37  1  0  0  0  0
  4  5  1  0  0  0  0
  4 21  1  0  0  0  0
  5  6  1  0  0  0  0
  5 16  1  0  0  0  0
  6  7  1  0  0  0  0
  6 22  1  0  0  0  0
  6 23  1  0  0  0  0
  7  8  2  0  0  0  0
  7  9  1  0  0  0  0
  9 10  1  0  0  0  0
  9 24  1  0  0  0  0
 10 11  1  0  0  0  0
 10 25  1  0  0  0  0
 10 26  1  0  0  0  0
 11 15  1  0  0  0  0
 11 12  1  0  0  0  0
 11 27  1  0  0  0  0
 12 13  1  0  0  0  0
 12 28  1  0  0  0  0
 12 29  1  0  0  0  0
 13 14  1  0  0  0  0
 13 30  1  0  0  0  0
 13 31  1  0  0  0  0
 14 15  1  0  0  0  0
 14 32  1  0  0  0  0
 14 33  1  0  0  0  0
 16 17  1  0  0  0  0
 17 34  1  0  0  0  0
 17 35  1  0  0  0  0
 17 36  1  0  0  0  0
M  CHG  1   3   1
M  END
> <s_m_source_file>
AV-unprocessed.smi

> <i_m_source_file_index>
3147

> <i_lp_mmshare_version>
43012

> <i_f3d_flags>
0

> <s_epik_input>
W0NIM11jMW5bY0hdbihjMVtDSDNdKVtDSDJdQyg9TylbTkhdW0NIMl1bQ0BASF0yW0NIMl1bQ0gyXVtDSDJdTzI=

> <s_epik_cmdline>
J2VwaWtfcHl0aG9uJywgJy1waCcsICc3LjAnLCAnLXRuJywgJzgnLCAnLW1hJywgJzIwMCcsICctbWV0YWxfYmluZGluZycsICctaW1hZScsICc8aW5maWxlLm1hZT4nLCAnLW9tYWUnLCAnPG91dGZpbGUubWFlPic=

> <r_lp_tautomer_probability>
1

> <r_epik_Ionization_Penalty>
0.131257

> <r_epik_Ionization_Penalty_Charging>
0

> <r_epik_Ionization_Penalty_Neutral>
0.131257

> <r_epik_State_Penalty>
0.12065

> <r_epik_Charging_Adjusted_Penalty>
0.12065

> <i_epik_Tot_Q>
1

> <i_epik_Tot_abs_Q>
1

> <r_epik_Metal_State_Penalty>
0.448684

> <b_epik_Metal_Only>
0

> <s_lp_Force_Field>
OPLS_2005

> <r_lp_Energy>
20.508

> <b_lp_Chiralities_Consistent>
1

> <s_lp_Variant>
AV-unprocessed.smi:3147-1

> <Gold.Version>
5.8.1

> <Gold.Id.Protein>
6NUR|6NUR_protein|mol2

> <Gold.PLP.Fitness>
45.0262

> <Gold.PLP.PLP>
-32.6988

> <Gold.PLP.part.hbond>
-3.0000

> <Gold.PLP.part.metal>
0.0000

> <Gold.PLP.part.buried>
-0.3628

> <Gold.PLP.part.nonpolar>
-28.9928

> <Gold.PLP.part.repulsive>
0.3506

> <Gold.PLP.ligand.clash>
0.0000

> <Gold.PLP.ligand.torsion>
0.3778

> <Gold.PLP.Chemscore.Hbond>
3.8880

> <Gold.PLP.Chemscore.CHOScore>
0.4714

> <Gold.PLP.Chemscore.Metal>
0.0000

> <Gold.Chemscore.Hbonds>
donor molecule, donor type, donor heavy atom, donor atom, acceptor molecule, acceptor atom, score
      L1  H     3    37       P1  7948  2.00
      L1  H     9    24       P1  8028  0.91
      P1  H  7989  7998       L1     8  0.98
      L1  C     4    21       P1  7957  0.46

> <Gold.PLP.Chemscore.Internal.Correction>
0.0049

> <Gold.Rescore>
     Score         DG    S(hbond)    S(metal)    S(lipo)     H(rot)  DE(clash)    DE(int)     intcor
     14.94     -18.32       2.43        0.00      78.69       1.76       1.83       1.55       ----

> <Gold.Chemscore.Fitness>
14.9358

> <Gold.Chemscore.DG>
-18.3178

> <Gold.Chemscore.ZeroCoef>
-5.4800

> <Gold.Chemscore.Hbond>
2.4345

> <Gold.Chemscore.Metal>
0.0000

> <Gold.Chemscore.Lipo>
78.6860

> <Gold.Chemscore.Internal_Hbond>
0.0000

> <Gold.Chemscore.DEClash>
1.8341

> <Gold.Chemscore.DEInternal>
1.5479

> <Gold.Chemscore.Rot>
1.7577

> <Gold.Chemscore.Internal.Correction>
   9.000000E+99

> <Gold.Chemscore.Hbonds>
donor molecule, donor type, donor heavy atom, donor atom, acceptor molecule, acceptor atom, score
      L1  H     3    37       P1  7948  0.95
      L1  H     9    24       P1  8028  0.90
      P1  H  7989  7998       L1     8  0.37

> <Gold.Chemscore.Hbond.Weighted>
-8.1314

> <Gold.Chemscore.Metal.Weighted>
-0.0000

> <Gold.Chemscore.Lipo.Weighted>
-9.2063

> <Gold.Chemscore.Internal_Hbond.Weighted>
0.0000

> <Gold.Chemscore.DEClash.Weighted>
1.8341

> <Gold.Chemscore.DEInternal.Weighted>
1.5479

> <Gold.Chemscore.Rot.Weighted>
4.4998

> <Gold.Chemscore.Internal.Correction.Weighted>
   9.000000E+99

> <Gold.Protein.RotatedTorsions>
[ 6907 6896 6895 6894 ] final  -39.48 input  -60.11 | X-H torsion
[ 7974 7965 7964 7962 ] final  -70.00 input  175.53 | X-H torsion
[ 8008 7997 7996 7995 ] final  131.16 input   59.86 | X-H torsion
[ 10167 10162 10161 10158 ] final   72.40 input  -65.29 | X-H torsion
[ 10718 10713 10712 10709 ] final  123.67 input   66.30 | X-H torsion
[ 10763 10752 10751 10750 ] final -162.52 input  -60.55 | X-H torsion
[ 11005 11000 10999 10996 ] final -113.64 input  -57.11 | X-H torsion

> <Gold.Protein.ActiveResidues>
 VAL166  LYS551  ARG553  GLY616  TRP617  ASP618  TYR619  PRO620  LYS621  CYS622 
 ASP623  PHE694  ASN695  SER759  ASP760  ASP761  ALA762  ILE779  LEU786  VAL792 
 PHE793  MET794  SER795  GLU796  ALA797  LYS798  CYS799  TRP800  GLU811  SER814 

> <Gold.Protein.RotatedAtoms>
  150.9899  134.9236  159.7893 H   0  0  0  0  0  0  0  0  0  0  0  0  # atno 6907 bound_to 6896
  152.5248  134.3296  159.9188 H   0  0  0  0  0  0  0  0  0  0  0  0  # atno 6908 bound_to 6896
  151.3302  133.3962  159.2696 H   0  0  0  0  0  0  0  0  0  0  0  0  # atno 6909 bound_to 6896
  145.6966  140.9133  143.0753 H   0  0  0  0  0  0  0  0  0  0  0  0  # atno 7974 bound_to 7965
  156.2966  140.2578  156.2880 H   0  0  0  0  0  0  0  0  0  0  0  0  # atno 8008 bound_to 7997
  154.9537  140.0394  157.2175 H   0  0  0  0  0  0  0  0  0  0  0  0  # atno 8009 bound_to 7997
  154.8012  140.2828  155.5925 H   0  0  0  0  0  0  0  0  0  0  0  0  # atno 8010 bound_to 7997
  140.0356  144.5430  150.7473 H   0  0  0  0  0  0  0  0  0  0  0  0  # atno 10167 bound_to 10162
  157.5646  131.1087  150.8477 H   0  0  0  0  0  0  0  0  0  0  0  0  # atno 10718 bound_to 10713
  154.7207  135.3025  154.9052 H   0  0  0  0  0  0  0  0  0  0  0  0  # atno 10763 bound_to 10752
  153.9925  135.6717  153.4759 H   0  0  0  0  0  0  0  0  0  0  0  0  # atno 10764 bound_to 10752
  153.0831  135.4998  154.8460 H   0  0  0  0  0  0  0  0  0  0  0  0  # atno 10765 bound_to 10752
  141.0602  133.9548  157.2681 H   0  0  0  0  0  0  0  0  0  0  0  0  # atno 11005 bound_to 11000
  144.6981  139.8891  143.7452 LP  0  0  0  0  0  0  0  0  0  0  0  0  # atno 17320 bound_to 7965
  146.0835  139.3823  143.0450 LP  0  0  0  0  0  0  0  0  0  0  0  0  # atno 17321 bound_to 7965
  140.7283  143.2660  151.4044 LP  0  0  0  0  0  0  0  0  0  0  0  0  # atno 17342 bound_to 10162
  139.6047  144.1222  152.2236 LP  0  0  0  0  0  0  0  0  0  0  0  0  # atno 17343 bound_to 10162
  156.8965  130.5231  149.5284 LP  0  0  0  0  0  0  0  0  0  0  0  0  # atno 17370 bound_to 10713
  156.0695  130.5731  150.9356 LP  0  0  0  0  0  0  0  0  0  0  0  0  # atno 17371 bound_to 10713
  139.9426  135.0189  156.8754 LP  0  0  0  0  0  0  0  0  0  0  0  0  # atno 17394 bound_to 11000
  140.5884  134.0285  155.7490 LP  0  0  0  0  0  0  0  0  0  0  0  0  # atno 17395 bound_to 11000

$$$$
