AV-unprocessed.smi:72|AV-procd|sdf|742|dock1
  -GOLD-   2262017 73D 1   1.00000     0.00000
 Structure written by MMmdl.
 28 29  0  0  0  0  0  0  0  0  2 V2000
  153.5683  137.2760  155.7117 N   0  0  0  0  0  0  0  0  0  0  0  0
  152.7340  138.2157  155.6073 C   0  0  0  0  0  0  0  0  0  0  0  0
  151.8532  138.2771  154.4611 N   0  0  0  0  0  0  0  0  0  0  0  0
  151.0266  139.2747  154.3865 C   0  0  0  0  0  0  0  0  0  0  0  0
  150.9835  140.3148  155.4055 N   0  0  0  0  0  0  0  0  0  0  0  0
  150.0043  141.4658  155.3184 C   0  0  1  0  0  0  0  0  0  0  0  0
  149.3299  141.4110  154.0935 O   0  0  0  0  0  0  0  0  0  0  0  0
  147.9286  141.5643  154.2980 C   0  0  1  0  0  0  0  0  0  0  0  0
  147.1586  140.8662  153.1665 C   0  0  0  0  0  0  0  0  0  0  0  0
  147.6668  139.5654  152.9603 O   0  0  0  0  0  0  0  0  0  0  0  0
  147.7226  140.9171  155.6676 C   0  0  2  0  0  0  0  0  0  0  0  0
  146.5084  141.2945  156.2892 O   0  0  0  0  0  0  0  0  0  0  0  0
  148.9589  141.3616  156.4404 C   0  0  2  0  0  0  0  0  0  0  0  0
  148.7855  142.6099  157.0853 O   0  0  0  0  0  0  0  0  0  0  0  0
  151.8334  140.2097  156.5380 C   0  0  0  0  0  0  0  0  0  0  0  0
  151.7450  141.0715  157.4131 O   0  0  0  0  0  0  0  0  0  0  0  0
  152.6969  139.1583  156.6114 N   0  5  0  0  0  0  0  0  0  0  0  0
  150.6019  142.3785  155.3473 H   0  0  0  0  0  0  0  0  0  0  0  0
  147.6841  142.6271  154.3523 H   0  0  0  0  0  0  0  0  0  0  0  0
  147.7426  139.8311  155.5637 H   0  0  0  0  0  0  0  0  0  0  0  0
  149.2519  140.6248  157.1898 H   0  0  0  0  0  0  0  0  0  0  0  0
  154.1241  137.3383  156.5522 H   0  0  0  0  0  0  0  0  0  0  0  0
  150.3165  139.3916  153.5673 H   0  0  0  0  0  0  0  0  0  0  0  0
  146.0899  140.8279  153.3797 H   0  0  0  0  0  0  0  0  0  0  0  0
  147.2830  141.4159  152.2334 H   0  0  0  0  0  0  0  0  0  0  0  0
  148.2893  139.5953  152.2501 H   0  0  0  0  0  0  0  0  0  0  0  0
  146.4748  140.8933  157.1441 H   0  0  0  0  0  0  0  0  0  0  0  0
  148.5553  143.2523  156.4310 H   0  0  0  0  0  0  0  0  0  0  0  0
  1  2  2  0  0  0  0
  1 22  1  0  0  0  0
  2 17  1  0  0  0  0
  2  3  1  0  0  0  0
  3  4  2  0  0  0  0
  4  5  1  0  0  0  0
  4 23  1  0  0  0  0
  5  6  1  0  0  0  0
  5 15  1  0  0  0  0
  6 18  1  0  0  0  0
  6 13  1  0  0  0  0
  6  7  1  0  0  0  0
  7  8  1  0  0  0  0
  8 19  1  0  0  0  0
  8  9  1  0  0  0  0
  8 11  1  0  0  0  0
  9 10  1  0  0  0  0
  9 24  1  0  0  0  0
  9 25  1  0  0  0  0
 10 26  1  0  0  0  0
 11 20  1  0  0  0  0
 11 12  1  0  0  0  0
 11 13  1  0  0  0  0
 12 27  1  0  0  0  0
 13 21  1  0  0  0  0
 13 14  1  0  0  0  0
 14 28  1  0  0  0  0
 15 16  2  0  0  0  0
 15 17  1  0  0  0  0
M  CHG  1  17  -1
M  END
> <s_m_source_file>
AV-unprocessed.smi

> <i_m_source_file_index>
72

> <i_lp_mmshare_version>
43012

> <i_f3d_flags>
0

> <s_epik_input>
W05IMl1jMW5bY0hdbihjKD1PKW4xKVtDQEBIXTJPW0NASF0oW0NIMl1bT0hdKVtDQEBIXShbT0hdKVtDQEhdMltPSF0=

> <s_epik_cmdline>
J2VwaWtfcHl0aG9uJywgJy1waCcsICc3LjAnLCAnLXRuJywgJzgnLCAnLW1hJywgJzIwMCcsICctbWV0YWxfYmluZGluZycsICctaW1hZScsICc8aW5maWxlLm1hZT4nLCAnLW9tYWUnLCAnPG91dGZpbGUubWFlPic=

> <r_lp_tautomer_probability>
7.17554e-07

> <r_epik_Ionization_Penalty>
12.8705

> <r_epik_Ionization_Penalty_Charging>
5.64144

> <r_epik_Ionization_Penalty_Neutral>
7.22905

> <r_epik_State_Penalty>
3.30104

> <r_epik_Charging_Adjusted_Penalty>
8.94249

> <i_epik_Tot_Q>
-1

> <i_epik_Tot_abs_Q>
1

> <r_epik_Metal_State_Penalty>
0.529074

> <b_epik_Metal_Only>
1

> <s_epik_Chemistry_Notes>
This compound contains an acetal/aminal-like group ( X-CH(R)-Y where X, Y are N, S, or O) that may be acid/base labile, releasing an aldehyde.

> <s_lp_Force_Field>
OPLS_2005

> <r_lp_Energy>
36.1714

> <b_lp_Chiralities_Consistent>
1

> <s_lp_Variant>
AV-unprocessed.smi:72-80

> <Gold.Version>
5.8.1

> <Gold.Id.Protein>
6NUR|6NUR_protein|mol2

> <Gold.PLP.Fitness>
43.5347

> <Gold.PLP.PLP>
-26.4932

> <Gold.PLP.part.hbond>
-5.7190

> <Gold.PLP.part.metal>
0.0000

> <Gold.PLP.part.buried>
-0.2821

> <Gold.PLP.part.nonpolar>
-18.5059

> <Gold.PLP.part.repulsive>
0.3121

> <Gold.PLP.ligand.clash>
0.0000

> <Gold.PLP.ligand.torsion>
0.1119

> <Gold.PLP.Chemscore.Hbond>
4.9058

> <Gold.PLP.Chemscore.CHOScore>
0.8421

> <Gold.PLP.Chemscore.Metal>
0.0000

> <Gold.Chemscore.Hbonds>
donor molecule, donor type, donor heavy atom, donor atom, acceptor molecule, acceptor atom, score
      L1  H    10    26       P1  7957  1.00
      L1  H    14    28       P1  8028  0.99
      P1  H  7997  8009       L1    17  2.00
      P1  H  8011  8017       L1     7  0.62
      P1  H 10752 10765       L1     1  0.26
      L1  C     4    23       P1  7957  0.87

> <Gold.PLP.Chemscore.Internal.Correction>
0.0217

> <Gold.Rescore>
     Score         DG    S(hbond)    S(metal)    S(lipo)     H(rot)  DE(clash)    DE(int)     intcor
      5.65      -7.04       2.77        0.00      22.65       4.04       0.21       1.18       ----

> <Gold.Chemscore.Fitness>
5.6511

> <Gold.Chemscore.DG>
-7.0410

> <Gold.Chemscore.ZeroCoef>
-5.4800

> <Gold.Chemscore.Hbond>
2.7705

> <Gold.Chemscore.Metal>
0.0000

> <Gold.Chemscore.Lipo>
22.6549

> <Gold.Chemscore.Internal_Hbond>
0.0000

> <Gold.Chemscore.DEClash>
0.2091

> <Gold.Chemscore.DEInternal>
1.1807

> <Gold.Chemscore.Rot>
4.0403

> <Gold.Chemscore.Internal.Correction>
   9.000000E+99

> <Gold.Chemscore.Hbonds>
donor molecule, donor type, donor heavy atom, donor atom, acceptor molecule, acceptor atom, score
      L1  H    10    26       P1  7957  1.00
      L1  H    14    28       P1  8028  0.74
      P1  H  7997  8009       L1    17  0.24
      P1  H  8011  8017       L1     7  0.36
      P1  H 10752 10765       L1     1  0.12

> <Gold.Chemscore.Hbond.Weighted>
-9.2534

> <Gold.Chemscore.Metal.Weighted>
-0.0000

> <Gold.Chemscore.Lipo.Weighted>
-2.6506

> <Gold.Chemscore.Internal_Hbond.Weighted>
0.0000

> <Gold.Chemscore.DEClash.Weighted>
0.2091

> <Gold.Chemscore.DEInternal.Weighted>
1.1807

> <Gold.Chemscore.Rot.Weighted>
10.3431

> <Gold.Chemscore.Internal.Correction.Weighted>
   9.000000E+99

> <Gold.Protein.RotatedTorsions>
[ 6907 6896 6895 6894 ] final  118.25 input  -60.11 | X-H torsion
[ 7974 7965 7964 7962 ] final  123.01 input  175.53 | X-H torsion
[ 8008 7997 7996 7995 ] final  174.04 input   59.86 | X-H torsion
[ 10167 10162 10161 10158 ] final  -16.86 input  -65.29 | X-H torsion
[ 10718 10713 10712 10709 ] final   95.52 input   66.30 | X-H torsion
[ 10763 10752 10751 10750 ] final -120.39 input  -60.55 | X-H torsion
[ 11005 11000 10999 10996 ] final   -8.81 input  -57.11 | X-H torsion

> <Gold.Protein.ActiveResidues>
 VAL166  LYS551  ARG553  GLY616  TRP617  ASP618  TYR619  PRO620  LYS621  CYS622 
 ASP623  PHE694  ASN695  SER759  ASP760  ASP761  ALA762  ILE779  LEU786  VAL792 
 PHE793  MET794  SER795  GLU796  ALA797  LYS798  CYS799  TRP800  GLU811  SER814 

> <Gold.Protein.RotatedAtoms>
  152.4556  133.7716  159.6801 H   0  0  0  0  0  0  0  0  0  0  0  0  # atno 6907 bound_to 6896
  150.8481  133.7820  159.3042 H   0  0  0  0  0  0  0  0  0  0  0  0  # atno 6908 bound_to 6896
  151.5424  135.1071  159.9981 H   0  0  0  0  0  0  0  0  0  0  0  0  # atno 6909 bound_to 6896
  145.1009  139.3519  143.4812 H   0  0  0  0  0  0  0  0  0  0  0  0  # atno 7974 bound_to 7965
  156.1014  140.1444  156.9462 H   0  0  0  0  0  0  0  0  0  0  0  0  # atno 8008 bound_to 7997
  154.4705  140.0911  156.7177 H   0  0  0  0  0  0  0  0  0  0  0  0  # atno 8009 bound_to 7997
  155.4753  140.3443  155.4334 H   0  0  0  0  0  0  0  0  0  0  0  0  # atno 8010 bound_to 7997
  140.7239  143.5074  150.9793 H   0  0  0  0  0  0  0  0  0  0  0  0  # atno 10167 bound_to 10162
  157.6938  131.0548  150.4351 H   0  0  0  0  0  0  0  0  0  0  0  0  # atno 10718 bound_to 10713
  154.8643  135.4205  154.2451 H   0  0  0  0  0  0  0  0  0  0  0  0  # atno 10763 bound_to 10752
  153.3409  135.6993  153.6874 H   0  0  0  0  0  0  0  0  0  0  0  0  # atno 10764 bound_to 10752
  153.5853  135.3565  155.2863 H   0  0  0  0  0  0  0  0  0  0  0  0  # atno 10765 bound_to 10752
  140.7274  133.8777  155.8867 H   0  0  0  0  0  0  0  0  0  0  0  0  # atno 11005 bound_to 11000
  146.3529  140.0886  142.8614 LP  0  0  0  0  0  0  0  0  0  0  0  0  # atno 17320 bound_to 7965
  145.0956  140.9313  143.4743 LP  0  0  0  0  0  0  0  0  0  0  0  0  # atno 17321 bound_to 7965
  139.8786  143.7101  152.3159 LP  0  0  0  0  0  0  0  0  0  0  0  0  # atno 17342 bound_to 10162
  139.7375  144.7567  151.0704 LP  0  0  0  0  0  0  0  0  0  0  0  0  # atno 17343 bound_to 10162
  156.4714  130.4053  149.6516 LP  0  0  0  0  0  0  0  0  0  0  0  0  # atno 17370 bound_to 10713
  156.3595  130.7474  151.2444 LP  0  0  0  0  0  0  0  0  0  0  0  0  # atno 17371 bound_to 10713
  140.9950  134.1227  157.4372 LP  0  0  0  0  0  0  0  0  0  0  0  0  # atno 17394 bound_to 11000
  139.8834  135.0052  156.6297 LP  0  0  0  0  0  0  0  0  0  0  0  0  # atno 17395 bound_to 11000

$$$$
