AV-unprocessed.smi:1732|AV-procd|sdf|6976|dock6
  -GOLD-   22720 8193D 1   1.00000     0.00000
 Structure written by MMmdl.
 36 37  0  0  0  0  0  0  0  0  1 V2000
  151.1023  138.6706  157.4880 O   0  0  0  0  0  0  0  0  0  0  0  0
  151.5004  139.4296  156.6053 C   0  0  0  0  0  0  0  0  0  0  0  0
  151.3955  138.9960  155.1444 C   0  0  0  0  0  0  0  0  0  0  0  0
  150.7328  140.0164  154.4114 O   0  0  0  0  0  0  0  0  0  0  0  0
  149.3195  139.9907  154.5396 C   0  0  0  0  0  0  0  0  0  0  0  0
  148.7409  138.7959  153.7852 C   0  0  0  0  0  0  0  0  0  0  0  0
  147.2739  139.1675  153.5644 C   0  0  0  0  0  0  0  0  0  0  0  0
  147.2408  140.7003  153.4655 C   0  0  0  0  0  0  0  0  0  0  0  0
  148.6343  141.1938  153.8812 C   0  0  0  0  0  0  0  0  0  0  0  0
  152.0115  140.6607  156.8056 N   0  0  0  0  0  0  0  0  0  0  0  0
  152.2733  141.3359  158.0093 C   0  0  0  0  0  0  0  0  0  0  0  0
  151.7072  142.5148  158.3780 C   0  0  0  0  0  0  0  0  0  0  0  0
  152.0067  143.1495  159.6506 C   0  0  0  0  0  0  0  0  0  0  0  0
  151.4291  144.5077  160.0174 C   0  0  0  0  0  0  0  0  0  0  0  0
  151.7444  144.8468  161.2682 F   0  0  0  0  0  0  0  0  0  0  0  0
  151.8838  145.4570  159.1992 F   0  0  0  0  0  0  0  0  0  0  0  0
  150.1008  144.4764  159.9181 F   0  0  0  0  0  0  0  0  0  0  0  0
  152.8830  142.5114  160.4482 C   0  0  0  0  0  0  0  0  0  0  0  0
  153.4524  141.2886  160.0863 N   0  0  0  0  0  0  0  0  0  0  0  0
  153.2080  140.6525  158.9188 C   0  0  0  0  0  0  0  0  0  0  0  0
  153.7520  139.5763  158.6726 O   0  0  0  0  0  0  0  0  0  0  0  0
  154.0886  140.8653  160.7463 H   0  0  0  0  0  0  0  0  0  0  0  0
  152.3923  138.8228  154.7353 H   0  0  0  0  0  0  0  0  0  0  0  0
  150.8452  138.0558  155.0949 H   0  0  0  0  0  0  0  0  0  0  0  0
  149.0274  139.9186  155.5891 H   0  0  0  0  0  0  0  0  0  0  0  0
  149.2391  138.6898  152.8204 H   0  0  0  0  0  0  0  0  0  0  0  0
  148.8618  137.8572  154.3270 H   0  0  0  0  0  0  0  0  0  0  0  0
  146.8572  138.6840  152.6803 H   0  0  0  0  0  0  0  0  0  0  0  0
  146.6831  138.8456  154.4229 H   0  0  0  0  0  0  0  0  0  0  0  0
  147.0072  141.0263  152.4514 H   0  0  0  0  0  0  0  0  0  0  0  0
  146.4701  141.1046  154.1225 H   0  0  0  0  0  0  0  0  0  0  0  0
  148.5888  142.0604  154.5412 H   0  0  0  0  0  0  0  0  0  0  0  0
  149.1905  141.4892  152.9904 H   0  0  0  0  0  0  0  0  0  0  0  0
  152.2233  141.1918  155.9728 H   0  0  0  0  0  0  0  0  0  0  0  0
  150.9911  143.0099  157.7426 H   0  0  0  0  0  0  0  0  0  0  0  0
  153.2150  142.8824  161.4068 H   0  0  0  0  0  0  0  0  0  0  0  0
  1  2  2  0  0  0  0
  2  3  1  0  0  0  0
  2 10  1  0  0  0  0
  3  4  1  0  0  0  0
  3 23  1  0  0  0  0
  3 24  1  0  0  0  0
  4  5  1  0  0  0  0
  5  9  1  0  0  0  0
  5  6  1  0  0  0  0
  5 25  1  0  0  0  0
  6  7  1  0  0  0  0
  6 26  1  0  0  0  0
  6 27  1  0  0  0  0
  7  8  1  0  0  0  0
  7 28  1  0  0  0  0
  7 29  1  0  0  0  0
  8  9  1  0  0  0  0
  8 30  1  0  0  0  0
  8 31  1  0  0  0  0
  9 32  1  0  0  0  0
  9 33  1  0  0  0  0
 10 11  1  0  0  0  0
 10 34  1  0  0  0  0
 11 20  1  0  0  0  0
 11 12  2  0  0  0  0
 12 13  1  0  0  0  0
 12 35  1  0  0  0  0
 13 14  1  0  0  0  0
 13 18  2  0  0  0  0
 14 15  1  0  0  0  0
 14 16  1  0  0  0  0
 14 17  1  0  0  0  0
 18 19  1  0  0  0  0
 18 36  1  0  0  0  0
 19 22  1  0  0  0  0
 19 20  1  0  0  0  0
 20 21  2  0  0  0  0
M  END
> <s_m_source_file>
AV-unprocessed.smi

> <i_m_source_file_index>
1732

> <i_lp_mmshare_version>
43012

> <i_f3d_flags>
0

> <s_epik_input>
W0NIMl0xW0NIMl1bQ0gyXVtDSDJdW0NIXTFPW0NIMl1DKD1PKVtOSF1jMltjSF1jKEMoRikoRilGKVtjSF1bbkhdYzI9Tw==

> <s_epik_cmdline>
J2VwaWtfcHl0aG9uJywgJy1waCcsICc3LjAnLCAnLXRuJywgJzgnLCAnLW1hJywgJzIwMCcsICctbWV0YWxfYmluZGluZycsICctaW1hZScsICc8aW5maWxlLm1hZT4nLCAnLW9tYWUnLCAnPG91dGZpbGUubWFlPic=

> <r_lp_tautomer_probability>
0.999

> <r_epik_Ionization_Penalty>
0.0109735

> <r_epik_Ionization_Penalty_Charging>
0.0109734

> <r_epik_Ionization_Penalty_Neutral>
9.17026e-08

> <r_epik_State_Penalty>
0.0084206

> <r_epik_Charging_Adjusted_Penalty>
0.019394

> <i_epik_Tot_Q>
0

> <i_epik_Tot_abs_Q>
0

> <r_epik_Metal_State_Penalty>
0.328349

> <b_epik_Metal_Only>
0

> <s_lp_Force_Field>
OPLS_2005

> <r_lp_Energy>
36.3652

> <b_lp_Chiralities_Consistent>
1

> <s_lp_Variant>
AV-unprocessed.smi:1732-1

> <Gold.Version>
5.8.1

> <Gold.Id.Protein>
6NUR|6NUR_protein|mol2

> <Gold.PLP.Fitness>
45.7598

> <Gold.PLP.PLP>
-42.4438

> <Gold.PLP.part.hbond>
-2.0000

> <Gold.PLP.part.metal>
0.0000

> <Gold.PLP.part.buried>
-0.5432

> <Gold.PLP.part.nonpolar>
-38.7310

> <Gold.PLP.part.repulsive>
0.3140

> <Gold.PLP.ligand.clash>
0.9214

> <Gold.PLP.ligand.torsion>
0.9212

> <Gold.PLP.Chemscore.Hbond>
2.0000

> <Gold.PLP.Chemscore.CHOScore>
0.0000

> <Gold.PLP.Chemscore.Metal>
0.0000

> <Gold.Chemscore.Hbonds>
donor molecule, donor type, donor heavy atom, donor atom, acceptor molecule, acceptor atom, score
      P1  H  7989  7998       L1     4  1.00
      P1  H  7997  8008       L1    21  1.00

> <Gold.PLP.Chemscore.Internal.Correction>
0.0799

> <Gold.Rescore>
     Score         DG    S(hbond)    S(metal)    S(lipo)     H(rot)  DE(clash)    DE(int)     intcor
     15.65     -17.63       1.69        0.00      90.51       1.60       0.97       1.01       ----

> <Gold.Chemscore.Fitness>
15.6455

> <Gold.Chemscore.DG>
-17.6311

> <Gold.Chemscore.ZeroCoef>
-5.4800

> <Gold.Chemscore.Hbond>
1.6947

> <Gold.Chemscore.Metal>
0.0000

> <Gold.Chemscore.Lipo>
90.5050

> <Gold.Chemscore.Internal_Hbond>
0.0000

> <Gold.Chemscore.DEClash>
0.9724

> <Gold.Chemscore.DEInternal>
1.0132

> <Gold.Chemscore.Rot>
1.6009

> <Gold.Chemscore.Internal.Correction>
   9.000000E+99

> <Gold.Chemscore.Hbonds>
donor molecule, donor type, donor heavy atom, donor atom, acceptor molecule, acceptor atom, score
      P1  H  7989  7998       L1     4  0.88
      P1  H  7997  8008       L1    21  0.35

> <Gold.Chemscore.Hbond.Weighted>
-5.6602

> <Gold.Chemscore.Metal.Weighted>
-0.0000

> <Gold.Chemscore.Lipo.Weighted>
-10.5891

> <Gold.Chemscore.Internal_Hbond.Weighted>
0.0000

> <Gold.Chemscore.DEClash.Weighted>
0.9724

> <Gold.Chemscore.DEInternal.Weighted>
1.0132

> <Gold.Chemscore.Rot.Weighted>
4.0982

> <Gold.Chemscore.Internal.Correction.Weighted>
   9.000000E+99

> <Gold.Protein.RotatedTorsions>
[ 6907 6896 6895 6894 ] final   53.06 input  -60.11 | X-H torsion
[ 7974 7965 7964 7962 ] final  -44.80 input  175.53 | X-H torsion
[ 8008 7997 7996 7995 ] final -103.38 input   59.86 | X-H torsion
[ 10167 10162 10161 10158 ] final  -36.49 input  -65.29 | X-H torsion
[ 10718 10713 10712 10709 ] final   28.26 input   66.30 | X-H torsion
[ 10763 10752 10751 10750 ] final  -83.03 input  -60.55 | X-H torsion
[ 11005 11000 10999 10996 ] final  165.43 input  -57.11 | X-H torsion

> <Gold.Protein.ActiveResidues>
 VAL166  LYS551  ARG553  GLY616  TRP617  ASP618  TYR619  PRO620  LYS621  CYS622 
 ASP623  PHE694  ASN695  SER759  ASP760  ASP761  ALA762  ILE779  LEU786  VAL792 
 PHE793  MET794  SER795  GLU796  ALA797  LYS798  CYS799  TRP800  GLU811  SER814 

> <Gold.Protein.RotatedAtoms>
  152.3297  134.7275  160.0292 H   0  0  0  0  0  0  0  0  0  0  0  0  # atno 6907 bound_to 6896
  151.7695  133.3334  159.3448 H   0  0  0  0  0  0  0  0  0  0  0  0  # atno 6908 bound_to 6896
  150.7416  134.5963  159.6058 H   0  0  0  0  0  0  0  0  0  0  0  0  # atno 6909 bound_to 6896
  145.9884  140.7207  142.9329 H   0  0  0  0  0  0  0  0  0  0  0  0  # atno 7974 bound_to 7965
  154.8701  140.0423  157.1719 H   0  0  0  0  0  0  0  0  0  0  0  0  # atno 8008 bound_to 7997
  154.8748  140.2964  155.5439 H   0  0  0  0  0  0  0  0  0  0  0  0  # atno 8009 bound_to 7997
  156.2999  140.2422  156.3742 H   0  0  0  0  0  0  0  0  0  0  0  0  # atno 8010 bound_to 7997
  140.7141  143.3405  151.2368 H   0  0  0  0  0  0  0  0  0  0  0  0  # atno 10167 bound_to 10162
  157.2311  130.7024  149.6314 H   0  0  0  0  0  0  0  0  0  0  0  0  # atno 10718 bound_to 10713
  154.5828  135.5570  153.7202 H   0  0  0  0  0  0  0  0  0  0  0  0  # atno 10763 bound_to 10752
  153.0088  135.6324  154.1958 H   0  0  0  0  0  0  0  0  0  0  0  0  # atno 10764 bound_to 10752
  154.1899  135.2883  155.3005 H   0  0  0  0  0  0  0  0  0  0  0  0  # atno 10765 bound_to 10752
  140.2561  134.7939  157.3547 H   0  0  0  0  0  0  0  0  0  0  0  0  # atno 11005 bound_to 11000
  144.6881  140.3028  143.7260 LP  0  0  0  0  0  0  0  0  0  0  0  0  # atno 17320 bound_to 7965
  145.7666  139.1843  143.2236 LP  0  0  0  0  0  0  0  0  0  0  0  0  # atno 17321 bound_to 7965
  139.6911  143.9690  152.2859 LP  0  0  0  0  0  0  0  0  0  0  0  0  # atno 17342 bound_to 10162
  139.9352  144.6716  150.8322 LP  0  0  0  0  0  0  0  0  0  0  0  0  # atno 17343 bound_to 10162
  155.9675  130.4488  150.5635 LP  0  0  0  0  0  0  0  0  0  0  0  0  # atno 17370 bound_to 10713
  157.3477  131.0728  151.1738 LP  0  0  0  0  0  0  0  0  0  0  0  0  # atno 17371 bound_to 10713
  140.1510  134.4849  155.7961 LP  0  0  0  0  0  0  0  0  0  0  0  0  # atno 17394 bound_to 11000
  141.2196  133.6862  156.7379 LP  0  0  0  0  0  0  0  0  0  0  0  0  # atno 17395 bound_to 11000

$$$$
