AV-unprocessed.smi:1649|AV-procd|sdf|6635|dock1
  -GOLD-   22720 7333D 1   1.00000     0.00000
 Structure written by MMmdl.
 43 44  0  0  0  0  0  0  0  0  1 V2000
  155.0417  136.3591  157.7036 C   0  0  0  0  0  0  0  0  0  0  0  0
  153.4901  137.2247  158.1782 S   0  0  0  0  0  0  0  0  0  0  0  0
  153.0532  136.7077  159.4845 O   0  0  0  0  0  0  0  0  0  0  0  0
  153.7082  138.6694  158.0050 O   0  0  0  0  0  0  0  0  0  0  0  0
  152.3093  136.6829  156.9482 C   0  0  0  0  0  0  0  0  0  0  0  0
  151.9607  137.5267  155.8745 C   0  0  0  0  0  0  0  0  0  0  0  0
  151.0627  137.0348  154.9083 C   0  0  0  0  0  0  0  0  0  0  0  0
  150.5533  135.7207  155.0529 C   0  0  0  0  0  0  0  0  0  0  0  0
  149.6613  135.1009  154.1367 N   0  0  0  0  0  0  0  0  0  0  0  0
  149.1263  133.8691  154.1853 C   0  0  0  0  0  0  0  0  0  0  0  0
  149.3637  133.0217  155.0456 O   0  0  0  0  0  0  0  0  0  0  0  0
  148.2907  133.6682  153.1566 N   0  0  0  0  0  0  0  0  0  0  0  0
  147.5238  132.4499  152.9013 C   0  0  0  0  0  0  0  0  0  0  0  0
  146.4216  132.6361  151.8288 C   0  0  0  0  0  0  0  0  0  0  0  0
  147.0838  132.8001  150.5871 O   0  0  0  0  0  0  0  0  0  0  0  0
  145.5688  131.3479  151.7362 C   0  0  0  0  0  0  0  0  0  0  0  0
  144.3938  131.4669  150.7490 C   0  0  0  0  0  0  0  0  0  0  0  0
  143.5092  132.6761  151.0800 C   0  0  0  0  0  0  0  0  0  0  0  0
  144.3361  133.9685  151.1048 C   0  0  0  0  0  0  0  0  0  0  0  0
  145.5147  133.8665  152.0897 C   0  0  0  0  0  0  0  0  0  0  0  0
  150.9941  134.9599  156.1571 C   0  0  0  0  0  0  0  0  0  0  0  0
  151.8555  135.4194  157.0884 N   0  0  0  0  0  0  0  0  0  0  0  0
  155.8350  136.6282  158.4006 H   0  0  0  0  0  0  0  0  0  0  0  0
  155.3285  136.6541  156.6945 H   0  0  0  0  0  0  0  0  0  0  0  0
  154.8813  135.2815  157.7349 H   0  0  0  0  0  0  0  0  0  0  0  0
  152.3703  138.5219  155.7857 H   0  0  0  0  0  0  0  0  0  0  0  0
  150.8011  137.6662  154.0740 H   0  0  0  0  0  0  0  0  0  0  0  0
  149.4279  135.6512  153.3231 H   0  0  0  0  0  0  0  0  0  0  0  0
  148.1586  134.4239  152.5005 H   0  0  0  0  0  0  0  0  0  0  0  0
  148.2213  131.6705  152.5915 H   0  0  0  0  0  0  0  0  0  0  0  0
  147.0779  132.0905  153.8304 H   0  0  0  0  0  0  0  0  0  0  0  0
  147.4817  131.9762  150.3506 H   0  0  0  0  0  0  0  0  0  0  0  0
  146.1949  130.4985  151.4593 H   0  0  0  0  0  0  0  0  0  0  0  0
  145.1659  131.1140  152.7228 H   0  0  0  0  0  0  0  0  0  0  0  0
  144.7715  131.5553  149.7295 H   0  0  0  0  0  0  0  0  0  0  0  0
  143.7970  130.5548  150.7754 H   0  0  0  0  0  0  0  0  0  0  0  0
  142.7060  132.7615  150.3476 H   0  0  0  0  0  0  0  0  0  0  0  0
  143.0312  132.5274  152.0490 H   0  0  0  0  0  0  0  0  0  0  0  0
  144.7097  134.1833  150.1031 H   0  0  0  0  0  0  0  0  0  0  0  0
  143.6986  134.8093  151.3797 H   0  0  0  0  0  0  0  0  0  0  0  0
  145.1192  133.8079  153.1045 H   0  0  0  0  0  0  0  0  0  0  0  0
  146.0932  134.7896  152.0428 H   0  0  0  0  0  0  0  0  0  0  0  0
  150.6451  133.9473  156.2985 H   0  0  0  0  0  0  0  0  0  0  0  0
  1  2  1  0  0  0  0
  1 23  1  0  0  0  0
  1 24  1  0  0  0  0
  1 25  1  0  0  0  0
  2  3  2  0  0  0  0
  2  4  2  0  0  0  0
  2  5  1  0  0  0  0
  5 22  1  0  0  0  0
  5  6  2  0  0  0  0
  6  7  1  0  0  0  0
  6 26  1  0  0  0  0
  7  8  2  0  0  0  0
  7 27  1  0  0  0  0
  8  9  1  0  0  0  0
  8 21  1  0  0  0  0
  9 10  1  0  0  0  0
  9 28  1  0  0  0  0
 10 11  2  0  0  0  0
 10 12  1  0  0  0  0
 12 13  1  0  0  0  0
 12 29  1  0  0  0  0
 13 14  1  0  0  0  0
 13 30  1  0  0  0  0
 13 31  1  0  0  0  0
 14 20  1  0  0  0  0
 14 15  1  0  0  0  0
 14 16  1  0  0  0  0
 15 32  1  0  0  0  0
 16 17  1  0  0  0  0
 16 33  1  0  0  0  0
 16 34  1  0  0  0  0
 17 18  1  0  0  0  0
 17 35  1  0  0  0  0
 17 36  1  0  0  0  0
 18 19  1  0  0  0  0
 18 37  1  0  0  0  0
 18 38  1  0  0  0  0
 19 20  1  0  0  0  0
 19 39  1  0  0  0  0
 19 40  1  0  0  0  0
 20 41  1  0  0  0  0
 20 42  1  0  0  0  0
 21 22  2  0  0  0  0
 21 43  1  0  0  0  0
M  END
> <s_m_source_file>
AV-unprocessed.smi

> <i_m_source_file_index>
1649

> <i_lp_mmshare_version>
43012

> <i_f3d_flags>
0

> <s_epik_input>
W0NIM11TKD1PKSg9TyljMVtjSF1bY0hdYyhbY0hdbjEpW05IXUMoPU8pW05IXVtDSDJdQzIoW09IXSlbQ0gyXVtDSDJdW0NIMl1bQ0gyXVtDSDJdMg==

> <s_epik_cmdline>
J2VwaWtfcHl0aG9uJywgJy1waCcsICc3LjAnLCAnLXRuJywgJzgnLCAnLW1hJywgJzIwMCcsICctbWV0YWxfYmluZGluZycsICctaW1hZScsICc8aW5maWxlLm1hZT4nLCAnLW9tYWUnLCAnPG91dGZpbGUubWFlPic=

> <r_lp_tautomer_probability>
1

> <r_epik_Ionization_Penalty>
4.25152e-05

> <r_epik_Ionization_Penalty_Charging>
0

> <r_epik_Ionization_Penalty_Neutral>
4.25152e-05

> <r_epik_State_Penalty>
-0

> <r_epik_Charging_Adjusted_Penalty>
0

> <i_epik_Tot_Q>
0

> <i_epik_Tot_abs_Q>
0

> <r_epik_Metal_State_Penalty>
-0

> <b_epik_Metal_Only>
0

> <s_lp_Force_Field>
OPLS_2005

> <r_lp_Energy>
14.216

> <b_lp_Chiralities_Consistent>
1

> <s_lp_Variant>
AV-unprocessed.smi:1649-1

> <Gold.Version>
5.8.1

> <Gold.Id.Protein>
6NUR|6NUR_protein|mol2

> <Gold.PLP.Fitness>
49.7108

> <Gold.PLP.PLP>
-35.3421

> <Gold.PLP.part.hbond>
-6.3640

> <Gold.PLP.part.metal>
0.0000

> <Gold.PLP.part.buried>
-5.3010

> <Gold.PLP.part.nonpolar>
-23.6872

> <Gold.PLP.part.repulsive>
0.0660

> <Gold.PLP.ligand.clash>
0.0000

> <Gold.PLP.ligand.torsion>
1.1552

> <Gold.PLP.Chemscore.Hbond>
4.8800

> <Gold.PLP.Chemscore.CHOScore>
0.0000

> <Gold.PLP.Chemscore.Metal>
0.0000

> <Gold.Chemscore.Hbonds>
donor molecule, donor type, donor heavy atom, donor atom, acceptor molecule, acceptor atom, score
      L1  H     9    28       P1  7948  0.90
      L1  H    12    29       P1  7948  0.86
      L1  H    15    32       P1 10747  1.00
      P1  H  6896  6908       L1     3  1.00
      P1  H  7997  8009       L1     4  1.00

> <Gold.PLP.Chemscore.Internal.Correction>
2.0391

> <Gold.Rescore>
     Score         DG    S(hbond)    S(metal)    S(lipo)     H(rot)  DE(clash)    DE(int)     intcor
     20.76     -23.24       4.16        0.00      72.40       1.80       0.00       2.47       ----

> <Gold.Chemscore.Fitness>
20.7642

> <Gold.Chemscore.DG>
-23.2378

> <Gold.Chemscore.ZeroCoef>
-5.4800

> <Gold.Chemscore.Hbond>
4.1638

> <Gold.Chemscore.Metal>
0.0000

> <Gold.Chemscore.Lipo>
72.4039

> <Gold.Chemscore.Internal_Hbond>
0.0000

> <Gold.Chemscore.DEClash>
0.0000

> <Gold.Chemscore.DEInternal>
2.4736

> <Gold.Chemscore.Rot>
1.8049

> <Gold.Chemscore.Internal.Correction>
   9.000000E+99

> <Gold.Chemscore.Hbonds>
donor molecule, donor type, donor heavy atom, donor atom, acceptor molecule, acceptor atom, score
      L1  H     9    28       P1  7948  0.18
      L1  H    12    29       P1  7948  0.20
      L1  H    15    32       P1 10747  0.94
      P1  H  6896  6908       L1     3  0.94
      P1  H  7997  8009       L1     4  1.00

> <Gold.Chemscore.Hbond.Weighted>
-13.9070

> <Gold.Chemscore.Metal.Weighted>
-0.0000

> <Gold.Chemscore.Lipo.Weighted>
-8.4713

> <Gold.Chemscore.Internal_Hbond.Weighted>
0.0000

> <Gold.Chemscore.DEClash.Weighted>
0.0000

> <Gold.Chemscore.DEInternal.Weighted>
2.4736

> <Gold.Chemscore.Rot.Weighted>
4.6205

> <Gold.Chemscore.Internal.Correction.Weighted>
   9.000000E+99

> <Gold.Protein.RotatedTorsions>
[ 6907 6896 6895 6894 ] final  -87.66 input  -60.11 | X-H torsion
[ 7974 7965 7964 7962 ] final -100.20 input  175.53 | X-H torsion
[ 8008 7997 7996 7995 ] final  146.82 input   59.86 | X-H torsion
[ 10167 10162 10161 10158 ] final  -73.33 input  -65.29 | X-H torsion
[ 10718 10713 10712 10709 ] final   10.13 input   66.30 | X-H torsion
[ 10763 10752 10751 10750 ] final  127.61 input  -60.55 | X-H torsion
[ 11005 11000 10999 10996 ] final   41.48 input  -57.11 | X-H torsion

> <Gold.Protein.ActiveResidues>
 VAL166  LYS551  ARG553  GLY616  TRP617  ASP618  TYR619  PRO620  LYS621  CYS622 
 ASP623  PHE694  ASN695  SER759  ASP760  ASP761  ALA762  ILE779  LEU786  VAL792 
 PHE793  MET794  SER795  GLU796  ALA797  LYS798  CYS799  TRP800  GLU811  SER814 

> <Gold.Protein.RotatedAtoms>
  150.6867  134.2861  159.4647 H   0  0  0  0  0  0  0  0  0  0  0  0  # atno 6907 bound_to 6896
  152.0771  134.9493  160.0583 H   0  0  0  0  0  0  0  0  0  0  0  0  # atno 6908 bound_to 6896
  152.0860  133.4142  159.4559 H   0  0  0  0  0  0  0  0  0  0  0  0  # atno 6909 bound_to 6896
  145.2976  140.9369  143.2842 H   0  0  0  0  0  0  0  0  0  0  0  0  # atno 7974 bound_to 7965
  156.2844  140.2172  156.5438 H   0  0  0  0  0  0  0  0  0  0  0  0  # atno 8008 bound_to 7997
  154.7347  140.0492  157.0780 H   0  0  0  0  0  0  0  0  0  0  0  0  # atno 8009 bound_to 7997
  155.0308  140.3134  155.4762 H   0  0  0  0  0  0  0  0  0  0  0  0  # atno 8010 bound_to 7997
  140.5119  143.2343  151.7578 H   0  0  0  0  0  0  0  0  0  0  0  0  # atno 10167 bound_to 10162
  156.9765  130.5989  149.5673 H   0  0  0  0  0  0  0  0  0  0  0  0  # atno 10718 bound_to 10713
  153.7122  135.3266  155.3248 H   0  0  0  0  0  0  0  0  0  0  0  0  # atno 10763 bound_to 10752
  154.8381  135.4479  154.1303 H   0  0  0  0  0  0  0  0  0  0  0  0  # atno 10764 bound_to 10752
  153.2399  135.6970  153.7874 H   0  0  0  0  0  0  0  0  0  0  0  0  # atno 10765 bound_to 10752
  140.1830  134.4080  155.8189 H   0  0  0  0  0  0  0  0  0  0  0  0  # atno 11005 bound_to 11000
  144.9120  139.4516  143.6582 LP  0  0  0  0  0  0  0  0  0  0  0  0  # atno 17320 bound_to 7965
  146.3163  139.7934  142.8981 LP  0  0  0  0  0  0  0  0  0  0  0  0  # atno 17321 bound_to 7965
  139.4898  144.4378  151.9799 LP  0  0  0  0  0  0  0  0  0  0  0  0  # atno 17342 bound_to 10162
  140.3470  144.3134  150.5956 LP  0  0  0  0  0  0  0  0  0  0  0  0  # atno 17343 bound_to 10162
  156.0261  130.5355  150.8411 LP  0  0  0  0  0  0  0  0  0  0  0  0  # atno 17370 bound_to 10713
  157.5556  131.0945  150.9633 LP  0  0  0  0  0  0  0  0  0  0  0  0  # atno 17371 bound_to 10713
  141.2224  133.7010  156.7964 LP  0  0  0  0  0  0  0  0  0  0  0  0  # atno 17394 bound_to 11000
  140.2245  134.8732  157.3412 LP  0  0  0  0  0  0  0  0  0  0  0  0  # atno 17395 bound_to 11000

$$$$
