AV-unprocessed.smi:1383|AV-procd|sdf|5622|dock2
  -GOLD-   22720 5233D 1   1.00000     0.00000
 Structure written by MMmdl.
 31 31  0  0  0  0  0  0  0  0  1 V2000
  152.4044  142.9318  160.8007 C   0  0  0  0  0  0  0  0  0  0  0  0
  152.8182  143.7518  159.5684 C   0  0  0  0  0  0  0  0  0  0  0  0
  151.7272  143.8571  158.4800 C   0  0  2  0  0  0  0  0  0  0  0  0
  150.4208  144.4222  159.0639 C   0  0  0  0  0  0  0  0  0  0  0  0
  151.4620  142.5041  157.8011 C   0  0  0  0  0  0  0  0  0  0  0  0
  151.9968  141.4862  158.2424 O   0  0  0  0  0  0  0  0  0  0  0  0
  150.6393  142.5341  156.7357 N   0  0  0  0  0  0  0  0  0  0  0  0
  150.2196  141.4544  155.9163 C   0  0  0  0  0  0  0  0  0  0  0  0
  150.8560  140.2811  155.8290 N   0  0  0  0  0  0  0  0  0  0  0  0
  150.2188  139.3954  154.9530 C   0  0  0  0  0  0  0  0  0  0  0  0
  150.7861  138.0233  154.7264 C   0  0  0  0  0  0  0  0  0  0  0  0
  150.0135  136.9758  155.5327 C   0  0  0  0  0  0  0  0  0  0  0  0
  149.2935  136.0820  154.8483 N   0  0  0  0  0  0  0  0  0  0  0  0
  150.0745  136.9652  156.7602 O   0  0  0  0  0  0  0  0  0  0  0  0
  149.0941  139.9281  154.3696 C   0  0  0  0  0  0  0  0  0  0  0  0
  148.7845  141.5564  154.9092 S   0  0  0  0  0  0  0  0  0  0  0  0
  153.2357  142.8421  161.5001 H   0  0  0  0  0  0  0  0  0  0  0  0
  152.0989  141.9240  160.5184 H   0  0  0  0  0  0  0  0  0  0  0  0
  151.5767  143.3970  161.3363 H   0  0  0  0  0  0  0  0  0  0  0  0
  153.1277  144.7485  159.8862 H   0  0  0  0  0  0  0  0  0  0  0  0
  153.7059  143.2901  159.1345 H   0  0  0  0  0  0  0  0  0  0  0  0
  152.0751  144.5608  157.7216 H   0  0  0  0  0  0  0  0  0  0  0  0
  149.6364  144.4749  158.3078 H   0  0  0  0  0  0  0  0  0  0  0  0
  150.5703  145.4317  159.4477 H   0  0  0  0  0  0  0  0  0  0  0  0
  150.0499  143.8089  159.8862 H   0  0  0  0  0  0  0  0  0  0  0  0
  150.2725  143.4396  156.4815 H   0  0  0  0  0  0  0  0  0  0  0  0
  150.7466  137.7581  153.6691 H   0  0  0  0  0  0  0  0  0  0  0  0
  151.8389  137.9927  155.0106 H   0  0  0  0  0  0  0  0  0  0  0  0
  148.7756  135.3678  155.3388 H   0  0  0  0  0  0  0  0  0  0  0  0
  149.2782  136.1200  153.8394 H   0  0  0  0  0  0  0  0  0  0  0  0
  148.4292  139.4609  153.6585 H   0  0  0  0  0  0  0  0  0  0  0  0
  1  2  1  0  0  0  0
  1 17  1  0  0  0  0
  1 18  1  0  0  0  0
  1 19  1  0  0  0  0
  2  3  1  0  0  0  0
  2 20  1  0  0  0  0
  2 21  1  0  0  0  0
  3  4  1  0  0  0  0
  3  5  1  0  0  0  0
  3 22  1  0  0  0  0
  4 23  1  0  0  0  0
  4 24  1  0  0  0  0
  4 25  1  0  0  0  0
  5  6  2  0  0  0  0
  5  7  1  0  0  0  0
  7  8  1  0  0  0  0
  7 26  1  0  0  0  0
  8 16  1  0  0  0  0
  8  9  2  0  0  0  0
  9 10  1  0  0  0  0
 10 11  1  0  0  0  0
 10 15  2  0  0  0  0
 11 12  1  0  0  0  0
 11 27  1  0  0  0  0
 11 28  1  0  0  0  0
 12 13  1  0  0  0  0
 12 14  2  0  0  0  0
 13 29  1  0  0  0  0
 13 30  1  0  0  0  0
 15 16  1  0  0  0  0
 15 31  1  0  0  0  0
M  END
> <s_m_source_file>
AV-unprocessed.smi

> <i_m_source_file_index>
1383

> <i_lp_mmshare_version>
43012

> <i_f3d_flags>
0

> <s_epik_input>
W0NIM11bQ0gyXVtDQEhdKFtDSDNdKUMoPU8pW05IXWMxbmMoW2NIXXMxKVtDSDJdQyg9TylbTkgyXQ==

> <s_epik_cmdline>
J2VwaWtfcHl0aG9uJywgJy1waCcsICc3LjAnLCAnLXRuJywgJzgnLCAnLW1hJywgJzIwMCcsICctbWV0YWxfYmluZGluZycsICctaW1hZScsICc8aW5maWxlLm1hZT4nLCAnLW9tYWUnLCAnPG91dGZpbGUubWFlPic=

> <r_lp_tautomer_probability>
1

> <r_epik_Ionization_Penalty>
0.00017492

> <r_epik_Ionization_Penalty_Charging>
0

> <r_epik_Ionization_Penalty_Neutral>
0.00017492

> <r_epik_State_Penalty>
-0

> <r_epik_Charging_Adjusted_Penalty>
0

> <i_epik_Tot_Q>
0

> <i_epik_Tot_abs_Q>
0

> <r_epik_Metal_State_Penalty>
0.109333

> <b_epik_Metal_Only>
0

> <s_lp_Force_Field>
OPLS_2005

> <r_lp_Energy>
2.98053

> <b_lp_Chiralities_Consistent>
1

> <s_lp_Variant>
AV-unprocessed.smi:1383-1

> <Gold.Version>
5.8.1

> <Gold.Id.Protein>
6NUR|6NUR_protein|mol2

> <Gold.PLP.Fitness>
40.8159

> <Gold.PLP.PLP>
-34.0657

> <Gold.PLP.part.hbond>
-2.6400

> <Gold.PLP.part.metal>
0.0000

> <Gold.PLP.part.buried>
-2.4720

> <Gold.PLP.part.nonpolar>
-29.0971

> <Gold.PLP.part.repulsive>
0.1245

> <Gold.PLP.ligand.clash>
0.0000

> <Gold.PLP.ligand.torsion>
0.4971

> <Gold.PLP.Chemscore.Hbond>
2.0000

> <Gold.PLP.Chemscore.CHOScore>
0.5489

> <Gold.PLP.Chemscore.Metal>
0.0000

> <Gold.Chemscore.Hbonds>
donor molecule, donor type, donor heavy atom, donor atom, acceptor molecule, acceptor atom, score
      L1  H     7    26       P1  8028  0.94
      L1  H    13    30       P1  7948  1.00
      L1  C    15    31       P1  7957  0.13

> <Gold.PLP.Chemscore.Internal.Correction>
0.0977

> <Gold.Rescore>
     Score         DG    S(hbond)    S(metal)    S(lipo)     H(rot)  DE(clash)    DE(int)     intcor
     13.17     -15.32       1.96        0.00      76.12       2.19       0.52       1.63       ----

> <Gold.Chemscore.Fitness>
13.1669

> <Gold.Chemscore.DG>
-15.3152

> <Gold.Chemscore.ZeroCoef>
-5.4800

> <Gold.Chemscore.Hbond>
1.9605

> <Gold.Chemscore.Metal>
0.0000

> <Gold.Chemscore.Lipo>
76.1186

> <Gold.Chemscore.Internal_Hbond>
0.0000

> <Gold.Chemscore.DEClash>
0.5163

> <Gold.Chemscore.DEInternal>
1.6321

> <Gold.Chemscore.Rot>
2.1948

> <Gold.Chemscore.Internal.Correction>
   9.000000E+99

> <Gold.Chemscore.Hbonds>
donor molecule, donor type, donor heavy atom, donor atom, acceptor molecule, acceptor atom, score
      L1  H     7    26       P1  8028  0.88
      L1  H    13    30       P1  7948  0.83

> <Gold.Chemscore.Hbond.Weighted>
-6.5480

> <Gold.Chemscore.Metal.Weighted>
-0.0000

> <Gold.Chemscore.Lipo.Weighted>
-8.9059

> <Gold.Chemscore.Internal_Hbond.Weighted>
0.0000

> <Gold.Chemscore.DEClash.Weighted>
0.5163

> <Gold.Chemscore.DEInternal.Weighted>
1.6321

> <Gold.Chemscore.Rot.Weighted>
5.6186

> <Gold.Chemscore.Internal.Correction.Weighted>
   9.000000E+99

> <Gold.Protein.RotatedTorsions>
[ 6907 6896 6895 6894 ] final   -2.23 input  -60.11 | X-H torsion
[ 7974 7965 7964 7962 ] final   63.71 input  175.53 | X-H torsion
[ 8008 7997 7996 7995 ] final  178.37 input   59.86 | X-H torsion
[ 10167 10162 10161 10158 ] final  -52.20 input  -65.29 | X-H torsion
[ 10718 10713 10712 10709 ] final  173.61 input   66.30 | X-H torsion
[ 10763 10752 10751 10750 ] final   42.92 input  -60.55 | X-H torsion
[ 11005 11000 10999 10996 ] final -166.43 input  -57.11 | X-H torsion

> <Gold.Protein.ActiveResidues>
 VAL166  LYS551  ARG553  GLY616  TRP617  ASP618  TYR619  PRO620  LYS621  CYS622 
 ASP623  PHE694  ASN695  SER759  ASP760  ASP761  ALA762  ILE779  LEU786  VAL792 
 PHE793  MET794  SER795  GLU796  ALA797  LYS798  CYS799  TRP800  GLU811  SER814 

> <Gold.Protein.RotatedAtoms>
  151.5332  135.1068  159.9907 H   0  0  0  0  0  0  0  0  0  0  0  0  # atno 6907 bound_to 6896
  152.4569  133.7737  159.6823 H   0  0  0  0  0  0  0  0  0  0  0  0  # atno 6908 bound_to 6896
  150.8516  133.7713  159.3048 H   0  0  0  0  0  0  0  0  0  0  0  0  # atno 6909 bound_to 6896
  145.8587  139.3300  143.0832 H   0  0  0  0  0  0  0  0  0  0  0  0  # atno 7974 bound_to 7965
  156.0554  140.1335  157.0002 H   0  0  0  0  0  0  0  0  0  0  0  0  # atno 8008 bound_to 7997
  154.4455  140.1002  156.6509 H   0  0  0  0  0  0  0  0  0  0  0  0  # atno 8009 bound_to 7997
  155.5459  140.3462  155.4459 H   0  0  0  0  0  0  0  0  0  0  0  0  # atno 8010 bound_to 7997
  140.6549  143.2592  151.4614 H   0  0  0  0  0  0  0  0  0  0  0  0  # atno 10167 bound_to 10162
  156.9618  131.0063  151.2926 H   0  0  0  0  0  0  0  0  0  0  0  0  # atno 10718 bound_to 10713
  152.9872  135.6117  154.3027 H   0  0  0  0  0  0  0  0  0  0  0  0  # atno 10763 bound_to 10752
  154.2747  135.2778  155.2725 H   0  0  0  0  0  0  0  0  0  0  0  0  # atno 10764 bound_to 10752
  154.5091  135.5846  153.6647 H   0  0  0  0  0  0  0  0  0  0  0  0  # atno 10765 bound_to 10752
  140.5646  134.5299  157.5150 H   0  0  0  0  0  0  0  0  0  0  0  0  # atno 11005 bound_to 11000
  145.9274  140.9073  143.0374 LP  0  0  0  0  0  0  0  0  0  0  0  0  # atno 17320 bound_to 7965
  144.6727  140.1371  143.7439 LP  0  0  0  0  0  0  0  0  0  0  0  0  # atno 17321 bound_to 7965
  139.5770  144.1795  152.1917 LP  0  0  0  0  0  0  0  0  0  0  0  0  # atno 17342 bound_to 10162
  140.1109  144.5458  150.6925 LP  0  0  0  0  0  0  0  0  0  0  0  0  # atno 17343 bound_to 10162
  157.5653  130.8273  149.8319 LP  0  0  0  0  0  0  0  0  0  0  0  0  # atno 17370 bound_to 10713
  156.0319  130.3762  150.1664 LP  0  0  0  0  0  0  0  0  0  0  0  0  # atno 17371 bound_to 10713
  139.9391  134.7820  156.0725 LP  0  0  0  0  0  0  0  0  0  0  0  0  # atno 17394 bound_to 11000
  141.1094  133.6648  156.2941 LP  0  0  0  0  0  0  0  0  0  0  0  0  # atno 17395 bound_to 11000

$$$$
