AV-unprocessed.smi:2925|AV-procd|sdf|11223|dock8
  -GOLD-   2272016113D 1   1.00000     0.00000
 Structure written by MMmdl.
 44 45  0  0  0  0  0  0  0  0  1 V2000
  147.7785  133.1349  153.3181 C   0  0  0  0  0  0  0  0  0  0  0  0
  146.6361  133.7074  154.1702 C   0  0  0  0  0  0  0  0  0  0  0  0
  146.0178  134.9970  153.5929 C   0  0  1  0  0  0  0  0  0  0  0  0
  147.0679  135.9965  153.3942 N   0  0  0  0  0  0  0  0  0  0  0  0
  147.1760  137.1610  154.0494 C   0  0  0  0  0  0  0  0  0  0  0  0
  146.3876  137.5379  154.9176 O   0  0  0  0  0  0  0  0  0  0  0  0
  148.2586  137.8497  153.6476 N   0  0  0  0  0  0  0  0  0  0  0  0
  148.6715  139.0966  154.1419 C   0  0  0  0  0  0  0  0  0  0  0  0
  147.9259  140.1973  153.8609 C   0  0  0  0  0  0  0  0  0  0  0  0
  146.6787  140.1200  152.9947 C   0  0  0  0  0  0  0  0  0  0  0  0
  148.3452  141.4824  154.3814 C   0  0  0  0  0  0  0  0  0  0  0  0
  149.4505  141.5596  155.1346 C   0  0  0  0  0  0  0  0  0  0  0  0
  150.2091  140.4228  155.4486 N   0  0  0  0  0  0  0  0  0  0  0  0
  151.3910  140.6079  156.2946 C   0  0  0  0  0  0  0  0  0  0  0  0
  149.8627  139.1743  155.0219 C   0  0  0  0  0  0  0  0  0  0  0  0
  150.5073  138.1842  155.3758 O   0  0  0  0  0  0  0  0  0  0  0  0
  145.2749  134.7350  152.2652 C   0  0  2  0  0  0  0  0  0  0  0  0
  144.1315  133.7207  152.3516 C   0  0  0  0  0  0  0  0  0  0  0  0
  144.0283  133.2513  150.9195 C   0  0  0  0  0  0  0  0  0  0  0  0
  145.4945  133.2051  150.5018 C   0  0  0  0  0  0  0  0  0  0  0  0
  146.1619  134.1860  151.2924 O   0  0  0  0  0  0  0  0  0  0  0  0
  148.2165  132.2594  153.7978 H   0  0  0  0  0  0  0  0  0  0  0  0
  148.5719  133.8702  153.1809 H   0  0  0  0  0  0  0  0  0  0  0  0
  147.4308  132.8287  152.3312 H   0  0  0  0  0  0  0  0  0  0  0  0
  145.8623  132.9484  154.2931 H   0  0  0  0  0  0  0  0  0  0  0  0
  147.0224  133.9086  155.1699 H   0  0  0  0  0  0  0  0  0  0  0  0
  145.2896  135.3650  154.3181 H   0  0  0  0  0  0  0  0  0  0  0  0
  147.7686  135.7794  152.7006 H   0  0  0  0  0  0  0  0  0  0  0  0
  148.8990  137.3893  153.0183 H   0  0  0  0  0  0  0  0  0  0  0  0
  146.2285  141.1041  152.8621 H   0  0  0  0  0  0  0  0  0  0  0  0
  145.9338  139.4693  153.4535 H   0  0  0  0  0  0  0  0  0  0  0  0
  146.9221  139.7265  152.0073 H   0  0  0  0  0  0  0  0  0  0  0  0
  147.7800  142.3760  154.1608 H   0  0  0  0  0  0  0  0  0  0  0  0
  149.8138  142.4894  155.5478 H   0  0  0  0  0  0  0  0  0  0  0  0
  152.2757  140.1784  155.8222 H   0  0  0  0  0  0  0  0  0  0  0  0
  151.2489  140.1187  157.2593 H   0  0  0  0  0  0  0  0  0  0  0  0
  151.6093  141.6586  156.4885 H   0  0  0  0  0  0  0  0  0  0  0  0
  144.8842  135.6716  151.8637 H   0  0  0  0  0  0  0  0  0  0  0  0
  144.4054  132.8851  152.9975 H   0  0  0  0  0  0  0  0  0  0  0  0
  143.2036  134.1534  152.7268 H   0  0  0  0  0  0  0  0  0  0  0  0
  143.5240  132.2902  150.8163 H   0  0  0  0  0  0  0  0  0  0  0  0
  143.4891  133.9880  150.3224 H   0  0  0  0  0  0  0  0  0  0  0  0
  145.9251  132.2290  150.7279 H   0  0  0  0  0  0  0  0  0  0  0  0
  145.6272  133.3950  149.4365 H   0  0  0  0  0  0  0  0  0  0  0  0
  1  2  1  0  0  0  0
  1 22  1  0  0  0  0
  1 23  1  0  0  0  0
  1 24  1  0  0  0  0
  2  3  1  0  0  0  0
  2 25  1  0  0  0  0
  2 26  1  0  0  0  0
  3  4  1  0  0  0  0
  3 17  1  0  0  0  0
  3 27  1  0  0  0  0
  4  5  1  0  0  0  0
  4 28  1  0  0  0  0
  5  6  2  0  0  0  0
  5  7  1  0  0  0  0
  7  8  1  0  0  0  0
  7 29  1  0  0  0  0
  8 15  1  0  0  0  0
  8  9  2  0  0  0  0
  9 10  1  0  0  0  0
  9 11  1  0  0  0  0
 10 30  1  0  0  0  0
 10 31  1  0  0  0  0
 10 32  1  0  0  0  0
 11 12  2  0  0  0  0
 11 33  1  0  0  0  0
 12 13  1  0  0  0  0
 12 34  1  0  0  0  0
 13 14  1  0  0  0  0
 13 15  1  0  0  0  0
 14 35  1  0  0  0  0
 14 36  1  0  0  0  0
 14 37  1  0  0  0  0
 15 16  2  0  0  0  0
 17 21  1  0  0  0  0
 17 18  1  0  0  0  0
 17 38  1  0  0  0  0
 18 19  1  0  0  0  0
 18 39  1  0  0  0  0
 18 40  1  0  0  0  0
 19 20  1  0  0  0  0
 19 41  1  0  0  0  0
 19 42  1  0  0  0  0
 20 21  1  0  0  0  0
 20 43  1  0  0  0  0
 20 44  1  0  0  0  0
M  END
> <s_m_source_file>
AV-unprocessed.smi

> <i_m_source_file_index>
2925

> <i_lp_mmshare_version>
43012

> <i_f3d_flags>
0

> <s_epik_input>
TzFbQ0gyXVtDSDJdW0NIMl1bQ0BIXTFbQ0BIXShbQ0gyXVtDSDNdKVtOSF1DKD1PKVtOSF1jMmMoW0NIM10pW2NIXVtjSF1uKFtDSDNdKWMyPU8=

> <s_epik_cmdline>
J2VwaWtfcHl0aG9uJywgJy1waCcsICc3LjAnLCAnLXRuJywgJzgnLCAnLW1hJywgJzIwMCcsICctbWV0YWxfYmluZGluZycsICctaW1hZScsICc8aW5maWxlLm1hZT4nLCAnLW9tYWUnLCAnPG91dGZpbGUubWFlPic=

> <r_lp_tautomer_probability>
1

> <r_epik_Ionization_Penalty>
2.58789e-05

> <r_epik_Ionization_Penalty_Charging>
6.72534e-06

> <r_epik_Ionization_Penalty_Neutral>
1.91535e-05

> <r_epik_State_Penalty>
-0

> <r_epik_Charging_Adjusted_Penalty>
6.72534e-06

> <i_epik_Tot_Q>
0

> <i_epik_Tot_abs_Q>
0

> <r_epik_Metal_State_Penalty>
-0

> <b_epik_Metal_Only>
0

> <s_lp_Force_Field>
OPLS_2005

> <r_lp_Energy>
34.616

> <b_lp_Chiralities_Consistent>
1

> <s_lp_Variant>
AV-unprocessed.smi:2925-2

> <Gold.Version>
5.8.1

> <Gold.Id.Protein>
6NUR|6NUR_protein|mol2

> <Gold.PLP.Fitness>
37.2799

> <Gold.PLP.PLP>
-29.6246

> <Gold.PLP.part.hbond>
-1.6279

> <Gold.PLP.part.metal>
0.0000

> <Gold.PLP.part.buried>
0.5138

> <Gold.PLP.part.nonpolar>
-29.2844

> <Gold.PLP.part.repulsive>
0.3246

> <Gold.PLP.ligand.clash>
0.0000

> <Gold.PLP.ligand.torsion>
0.7103

> <Gold.PLP.Chemscore.Hbond>
1.8550

> <Gold.PLP.Chemscore.CHOScore>
0.9777

> <Gold.PLP.Chemscore.Metal>
0.0000

> <Gold.Chemscore.Hbonds>
donor molecule, donor type, donor heavy atom, donor atom, acceptor molecule, acceptor atom, score
      L1  H     4    28       P1  7948  0.94
      L1  H     7    29       P1  7948  0.86
      L1  C    12    34       P1  8028  1.00

> <Gold.PLP.Chemscore.Internal.Correction>
0.5779

> <Gold.Rescore>
     Score         DG    S(hbond)    S(metal)    S(lipo)     H(rot)  DE(clash)    DE(int)     intcor
     14.76     -16.86       1.89        0.00      73.07       1.36       0.06       2.03       ----

> <Gold.Chemscore.Fitness>
14.7605

> <Gold.Chemscore.DG>
-16.8578

> <Gold.Chemscore.ZeroCoef>
-5.4800

> <Gold.Chemscore.Hbond>
1.8879

> <Gold.Chemscore.Metal>
0.0000

> <Gold.Chemscore.Lipo>
73.0655

> <Gold.Chemscore.Internal_Hbond>
0.0000

> <Gold.Chemscore.DEClash>
0.0636

> <Gold.Chemscore.DEInternal>
2.0338

> <Gold.Chemscore.Rot>
1.3579

> <Gold.Chemscore.Internal.Correction>
   9.000000E+99

> <Gold.Chemscore.Hbonds>
donor molecule, donor type, donor heavy atom, donor atom, acceptor molecule, acceptor atom, score
      L1  H     4    28       P1  7948  0.85
      L1  H     7    29       P1  7948  0.84

> <Gold.Chemscore.Hbond.Weighted>
-6.3055

> <Gold.Chemscore.Metal.Weighted>
-0.0000

> <Gold.Chemscore.Lipo.Weighted>
-8.5487

> <Gold.Chemscore.Internal_Hbond.Weighted>
0.0000

> <Gold.Chemscore.DEClash.Weighted>
0.0636

> <Gold.Chemscore.DEInternal.Weighted>
2.0338

> <Gold.Chemscore.Rot.Weighted>
3.4763

> <Gold.Chemscore.Internal.Correction.Weighted>
   9.000000E+99

> <Gold.Protein.RotatedTorsions>
[ 6907 6896 6895 6894 ] final   71.52 input  -60.11 | X-H torsion
[ 7974 7965 7964 7962 ] final   12.08 input  175.53 | X-H torsion
[ 8008 7997 7996 7995 ] final  -13.16 input   59.86 | X-H torsion
[ 10167 10162 10161 10158 ] final  -95.93 input  -65.29 | X-H torsion
[ 10718 10713 10712 10709 ] final  -70.08 input   66.30 | X-H torsion
[ 10763 10752 10751 10750 ] final -137.87 input  -60.55 | X-H torsion
[ 11005 11000 10999 10996 ] final -135.05 input  -57.11 | X-H torsion

> <Gold.Protein.ActiveResidues>
 VAL166  LYS551  ARG553  GLY616  TRP617  ASP618  TYR619  PRO620  LYS621  CYS622 
 ASP623  PHE694  ASN695  SER759  ASP760  ASP761  ALA762  ILE779  LEU786  VAL792 
 PHE793  MET794  SER795  GLU796  ALA797  LYS798  CYS799  TRP800  GLU811  SER814 

> <Gold.Protein.RotatedAtoms>
  152.4814  134.4708  159.9634 H   0  0  0  0  0  0  0  0  0  0  0  0  # atno 6907 bound_to 6896
  151.4713  133.3562  159.2832 H   0  0  0  0  0  0  0  0  0  0  0  0  # atno 6908 bound_to 6896
  150.8890  134.8317  159.7341 H   0  0  0  0  0  0  0  0  0  0  0  0  # atno 6909 bound_to 6896
  146.2358  139.9390  142.8486 H   0  0  0  0  0  0  0  0  0  0  0  0  # atno 7974 bound_to 7965
  154.5316  140.2257  155.8794 H   0  0  0  0  0  0  0  0  0  0  0  0  # atno 8008 bound_to 7997
  156.1769  140.3109  155.9040 H   0  0  0  0  0  0  0  0  0  0  0  0  # atno 8009 bound_to 7997
  155.3439  140.0452  157.3036 H   0  0  0  0  0  0  0  0  0  0  0  0  # atno 8010 bound_to 7997
  140.2991  143.3174  152.0267 H   0  0  0  0  0  0  0  0  0  0  0  0  # atno 10167 bound_to 10162
  156.0424  130.4325  150.2243 H   0  0  0  0  0  0  0  0  0  0  0  0  # atno 10718 bound_to 10713
  154.8651  135.3629  154.5292 H   0  0  0  0  0  0  0  0  0  0  0  0  # atno 10763 bound_to 10752
  153.5919  135.7015  153.5424 H   0  0  0  0  0  0  0  0  0  0  0  0  # atno 10764 bound_to 10752
  153.3366  135.4109  155.1500 H   0  0  0  0  0  0  0  0  0  0  0  0  # atno 10765 bound_to 10752
  140.8934  134.1783  157.4512 H   0  0  0  0  0  0  0  0  0  0  0  0  # atno 11005 bound_to 11000
  145.1971  140.9838  143.4177 LP  0  0  0  0  0  0  0  0  0  0  0  0  # atno 17320 bound_to 7965
  144.9806  139.3787  143.6264 LP  0  0  0  0  0  0  0  0  0  0  0  0  # atno 17321 bound_to 7965
  139.4919  144.6469  151.6759 LP  0  0  0  0  0  0  0  0  0  0  0  0  # atno 17342 bound_to 10162
  140.5667  144.0178  150.6196 LP  0  0  0  0  0  0  0  0  0  0  0  0  # atno 17343 bound_to 10162
  157.0337  131.0015  151.3304 LP  0  0  0  0  0  0  0  0  0  0  0  0  # atno 17370 bound_to 10713
  157.5259  130.8028  149.7862 LP  0  0  0  0  0  0  0  0  0  0  0  0  # atno 17371 bound_to 10713
  139.8732  134.9868  156.5340 LP  0  0  0  0  0  0  0  0  0  0  0  0  # atno 17394 bound_to 11000
  140.8319  133.8272  155.8992 LP  0  0  0  0  0  0  0  0  0  0  0  0  # atno 17395 bound_to 11000

$$$$
