AV-unprocessed.smi:160|AV-procd|sdf|1348|dock2
  -GOLD-   2262019 53D 1   1.00000     0.00000
 Structure written by MMmdl.
 29 30  0  0  0  0  0  0  0  0  1 V2000
  148.0213  140.5517  152.8411 N   0  0  0  0  0  0  0  0  0  0  0  0
  147.9333  141.3328  153.9227 C   0  0  0  0  0  0  0  0  0  0  0  0
  147.0467  142.1747  154.0574 O   0  0  0  0  0  0  0  0  0  0  0  0
  148.9797  141.1196  154.9814 C   0  0  0  0  0  0  0  0  0  0  0  0
  150.1133  140.4034  154.7204 N   0  0  0  0  0  0  0  0  0  0  0  0
  150.6952  140.4939  155.9093 C   0  0  0  0  0  0  0  0  0  0  0  0
  149.9932  141.1861  156.8122 N   0  0  0  0  0  0  0  0  0  0  0  0
  150.3178  141.4984  158.2430 C   0  0  1  0  0  0  0  0  0  0  0  0
  151.3753  140.6798  158.6455 O   0  0  0  0  0  0  0  0  0  0  0  0
  152.5847  141.4309  158.6610 C   0  0  2  0  0  0  0  0  0  0  0  0
  153.6572  140.7488  159.5280 C   0  0  0  0  0  0  0  0  0  0  0  0
  154.1067  139.5672  158.8996 O   0  0  0  0  0  0  0  0  0  0  0  0
  152.1123  142.8083  159.1466 C   0  0  2  0  0  0  0  0  0  0  0  0
  151.9659  142.8282  160.5554 O   0  0  0  0  0  0  0  0  0  0  0  0
  150.7543  142.9668  158.4706 C   0  0  1  0  0  0  0  0  0  0  0  0
  150.8855  143.7303  157.2836 O   0  0  0  0  0  0  0  0  0  0  0  0
  148.8498  141.6087  156.2156 N   0  0  0  0  0  0  0  0  0  0  0  0
  149.4137  141.2286  158.7900 H   0  0  0  0  0  0  0  0  0  0  0  0
  152.9527  141.5417  157.6394 H   0  0  0  0  0  0  0  0  0  0  0  0
  152.8138  143.5973  158.8711 H   0  0  0  0  0  0  0  0  0  0  0  0
  150.0305  143.4653  159.1172 H   0  0  0  0  0  0  0  0  0  0  0  0
  147.3465  140.6443  152.0962 H   0  0  0  0  0  0  0  0  0  0  0  0
  148.7640  139.8702  152.7792 H   0  0  0  0  0  0  0  0  0  0  0  0
  151.6524  140.0437  156.1279 H   0  0  0  0  0  0  0  0  0  0  0  0
  154.5206  141.4050  159.6422 H   0  0  0  0  0  0  0  0  0  0  0  0
  153.2815  140.5258  160.5271 H   0  0  0  0  0  0  0  0  0  0  0  0
  153.3545  139.0821  158.5965 H   0  0  0  0  0  0  0  0  0  0  0  0
  151.2815  142.2225  160.7954 H   0  0  0  0  0  0  0  0  0  0  0  0
  150.0219  143.9524  156.9712 H   0  0  0  0  0  0  0  0  0  0  0  0
  1  2  1  0  0  0  0
  1 22  1  0  0  0  0
  1 23  1  0  0  0  0
  2  3  2  0  0  0  0
  2  4  1  0  0  0  0
  4 17  2  0  0  0  0
  4  5  1  0  0  0  0
  5  6  2  0  0  0  0
  6  7  1  0  0  0  0
  6 24  1  0  0  0  0
  7  8  1  0  0  0  0
  7 17  1  0  0  0  0
  8 18  1  0  0  0  0
  8 15  1  0  0  0  0
  8  9  1  0  0  0  0
  9 10  1  0  0  0  0
 10 19  1  0  0  0  0
 10 11  1  0  0  0  0
 10 13  1  0  0  0  0
 11 12  1  0  0  0  0
 11 25  1  0  0  0  0
 11 26  1  0  0  0  0
 12 27  1  0  0  0  0
 13 20  1  0  0  0  0
 13 14  1  0  0  0  0
 13 15  1  0  0  0  0
 14 28  1  0  0  0  0
 15 21  1  0  0  0  0
 15 16  1  0  0  0  0
 16 29  1  0  0  0  0
M  END
> <s_m_source_file>
AV-unprocessed.smi

> <i_m_source_file_index>
160

> <i_lp_mmshare_version>
43012

> <i_f3d_flags>
0

> <s_epik_input>
W05IMl1DKD1PKWMxbltjSF1uKG4xKVtDQEBIXTJPW0NASF0oW0NIMl1bT0hdKVtDQEBIXShbT0hdKVtDQEhdMltPSF0=

> <s_epik_cmdline>
J2VwaWtfcHl0aG9uJywgJy1waCcsICc3LjAnLCAnLXRuJywgJzgnLCAnLW1hJywgJzIwMCcsICctbWV0YWxfYmluZGluZycsICctaW1hZScsICc8aW5maWxlLm1hZT4nLCAnLW9tYWUnLCAnPG91dGZpbGUubWFlPic=

> <r_lp_tautomer_probability>
1

> <r_epik_Ionization_Penalty>
1.06932e-05

> <r_epik_Ionization_Penalty_Charging>
0

> <r_epik_Ionization_Penalty_Neutral>
1.06932e-05

> <r_epik_State_Penalty>
-0

> <r_epik_Charging_Adjusted_Penalty>
0

> <i_epik_Tot_Q>
0

> <i_epik_Tot_abs_Q>
0

> <r_epik_Metal_State_Penalty>
0.0142097

> <b_epik_Metal_Only>
0

> <s_epik_Chemistry_Notes>
This compound contains an acetal/aminal-like group ( X-CH(R)-Y where X, Y are N, S, or O) that may be acid/base labile, releasing an aldehyde.

> <s_lp_Force_Field>
OPLS_2005

> <r_lp_Energy>
42.6819

> <b_lp_Chiralities_Consistent>
1

> <s_lp_Variant>
AV-unprocessed.smi:160-6

> <Gold.Version>
5.8.1

> <Gold.Id.Protein>
6NUR|6NUR_protein|mol2

> <Gold.PLP.Fitness>
36.4460

> <Gold.PLP.PLP>
-27.8781

> <Gold.PLP.part.hbond>
-3.4654

> <Gold.PLP.part.metal>
0.0000

> <Gold.PLP.part.buried>
-7.4357

> <Gold.PLP.part.nonpolar>
-17.5173

> <Gold.PLP.part.repulsive>
0.5208

> <Gold.PLP.ligand.clash>
0.0000

> <Gold.PLP.ligand.torsion>
0.4711

> <Gold.PLP.Chemscore.Hbond>
3.1680

> <Gold.PLP.Chemscore.CHOScore>
0.0000

> <Gold.PLP.Chemscore.Metal>
0.0000

> <Gold.Chemscore.Hbonds>
donor molecule, donor type, donor heavy atom, donor atom, acceptor molecule, acceptor atom, score
      L1  H     1    23       P1  7957  0.18
      L1  H    16    29       P1  8028  1.00
      P1  H  7989  7998       L1     5  0.98
      P1  H  7997  8010       L1    12  1.00

> <Gold.PLP.Chemscore.Internal.Correction>
0.0061

> <Gold.Rescore>
     Score         DG    S(hbond)    S(metal)    S(lipo)     H(rot)  DE(clash)    DE(int)     intcor
      6.81      -7.26       2.42        0.00      34.94       4.06       0.03       0.43       ----

> <Gold.Chemscore.Fitness>
6.8055

> <Gold.Chemscore.DG>
-7.2604

> <Gold.Chemscore.ZeroCoef>
-5.4800

> <Gold.Chemscore.Hbond>
2.4209

> <Gold.Chemscore.Metal>
0.0000

> <Gold.Chemscore.Lipo>
34.9425

> <Gold.Chemscore.Internal_Hbond>
0.0000

> <Gold.Chemscore.DEClash>
0.0270

> <Gold.Chemscore.DEInternal>
0.4279

> <Gold.Chemscore.Rot>
4.0600

> <Gold.Chemscore.Internal.Correction>
   9.000000E+99

> <Gold.Chemscore.Hbonds>
donor molecule, donor type, donor heavy atom, donor atom, acceptor molecule, acceptor atom, score
      L1  H     1    23       P1  7957  0.19
      L1  H    16    29       P1  8028  0.90
      P1  H  7989  7998       L1     5  0.31
      P1  H  7997  8010       L1    12  0.18

> <Gold.Chemscore.Hbond.Weighted>
-8.0857

> <Gold.Chemscore.Metal.Weighted>
-0.0000

> <Gold.Chemscore.Lipo.Weighted>
-4.0883

> <Gold.Chemscore.Internal_Hbond.Weighted>
0.0000

> <Gold.Chemscore.DEClash.Weighted>
0.0270

> <Gold.Chemscore.DEInternal.Weighted>
0.4279

> <Gold.Chemscore.Rot.Weighted>
10.3936

> <Gold.Chemscore.Internal.Correction.Weighted>
   9.000000E+99

> <Gold.Protein.RotatedTorsions>
[ 6907 6896 6895 6894 ] final -149.97 input  -60.11 | X-H torsion
[ 7974 7965 7964 7962 ] final   50.94 input  175.53 | X-H torsion
[ 8008 7997 7996 7995 ] final   13.65 input   59.86 | X-H torsion
[ 10167 10162 10161 10158 ] final  -75.37 input  -65.29 | X-H torsion
[ 10718 10713 10712 10709 ] final   40.97 input   66.30 | X-H torsion
[ 10763 10752 10751 10750 ] final   -7.31 input  -60.55 | X-H torsion
[ 11005 11000 10999 10996 ] final   82.67 input  -57.11 | X-H torsion

> <Gold.Protein.ActiveResidues>
 VAL166  LYS551  ARG553  GLY616  TRP617  ASP618  TYR619  PRO620  LYS621  CYS622 
 ASP623  PHE694  ASN695  SER759  ASP760  ASP761  ALA762  ILE779  LEU786  VAL792 
 PHE793  MET794  SER795  GLU796  ALA797  LYS798  CYS799  TRP800  GLU811  SER814 

> <Gold.Protein.RotatedAtoms>
  151.1918  133.4663  159.2594 H   0  0  0  0  0  0  0  0  0  0  0  0  # atno 6907 bound_to 6896
  151.1156  135.0051  159.8524 H   0  0  0  0  0  0  0  0  0  0  0  0  # atno 6908 bound_to 6896
  152.5453  134.1833  159.8697 H   0  0  0  0  0  0  0  0  0  0  0  0  # atno 6909 bound_to 6896
  145.9962  139.4391  143.0043 H   0  0  0  0  0  0  0  0  0  0  0  0  # atno 7974 bound_to 7965
  154.8375  140.2909  155.5681 H   0  0  0  0  0  0  0  0  0  0  0  0  # atno 8008 bound_to 7997
  156.3009  140.2520  156.3243 H   0  0  0  0  0  0  0  0  0  0  0  0  # atno 8009 bound_to 7997
  154.9162  140.0387  157.1962 H   0  0  0  0  0  0  0  0  0  0  0  0  # atno 8010 bound_to 7997
  140.4948  143.2373  151.7848 H   0  0  0  0  0  0  0  0  0  0  0  0  # atno 10167 bound_to 10162
  157.3882  130.7791  149.7248 H   0  0  0  0  0  0  0  0  0  0  0  0  # atno 10718 bound_to 10713
  153.4246  135.7011  153.6271 H   0  0  0  0  0  0  0  0  0  0  0  0  # atno 10763 bound_to 10752
  153.4711  135.3714  155.2392 H   0  0  0  0  0  0  0  0  0  0  0  0  # atno 10764 bound_to 10752
  154.8723  135.4043  154.3620 H   0  0  0  0  0  0  0  0  0  0  0  0  # atno 10765 bound_to 10752
  139.9056  134.8088  156.2206 H   0  0  0  0  0  0  0  0  0  0  0  0  # atno 11005 bound_to 11000
  145.7556  140.9955  143.1227 LP  0  0  0  0  0  0  0  0  0  0  0  0  # atno 17320 bound_to 7965
  144.6904  139.9267  143.7470 LP  0  0  0  0  0  0  0  0  0  0  0  0  # atno 17321 bound_to 7965
  139.4859  144.4601  151.9551 LP  0  0  0  0  0  0  0  0  0  0  0  0  # atno 17342 bound_to 10162
  140.3688  144.2881  150.5923 LP  0  0  0  0  0  0  0  0  0  0  0  0  # atno 17343 bound_to 10162
  155.9792  130.4043  150.3603 LP  0  0  0  0  0  0  0  0  0  0  0  0  # atno 17370 bound_to 10713
  157.1716  131.0370  151.2792 LP  0  0  0  0  0  0  0  0  0  0  0  0  # atno 17371 bound_to 10713
  141.0408  133.6939  156.1594 LP  0  0  0  0  0  0  0  0  0  0  0  0  # atno 17394 bound_to 11000
  140.6958  134.4617  157.5587 LP  0  0  0  0  0  0  0  0  0  0  0  0  # atno 17395 bound_to 11000

$$$$
