AV-unprocessed.smi:1679|AV-procd|sdf|6729|dock2
  -GOLD-   22720 7473D 1   1.00000     0.00000
 Structure written by MMmdl.
 45 46  0  0  0  0  0  0  0  0  1 V2000
  153.6120  140.6030  160.8173 C   0  0  0  0  0  0  0  0  0  0  0  0
  153.2308  141.7830  159.9082 C   0  0  2  0  0  0  0  0  0  0  0  0
  152.7943  142.9982  160.7513 C   0  0  0  0  0  0  0  0  0  0  0  0
  152.3984  144.1918  159.8696 C   0  0  0  0  0  0  0  0  0  0  0  0
  151.2930  143.8010  158.8795 C   0  0  0  0  0  0  0  0  0  0  0  0
  151.7217  142.6003  158.0235 C   0  0  0  0  0  0  0  0  0  0  0  0
  152.1286  141.3938  158.8966 C   0  0  1  0  0  0  0  0  0  0  0  0
  152.6448  140.3667  158.0594 O   0  0  0  0  0  0  0  0  0  0  0  0
  151.6529  139.5911  157.4023 C   0  0  0  0  0  0  0  0  0  0  0  0
  151.2117  140.3241  156.1313 C   0  0  0  0  0  0  0  0  0  0  0  0
  149.7833  140.1468  155.9099 N   0  0  0  0  0  0  0  0  0  0  0  0
  149.1119  140.6244  154.8530 C   0  0  0  0  0  0  0  0  0  0  0  0
  149.6495  141.2702  153.9520 O   0  0  0  0  0  0  0  0  0  0  0  0
  147.6041  140.3335  154.8318 C   0  0  0  0  0  0  0  0  0  0  0  0
  146.7738  141.5470  154.8387 N   0  0  0  0  0  0  0  0  0  0  0  0
  146.8506  142.4503  153.7881 C   0  0  0  0  0  0  0  0  0  0  0  0
  146.1119  143.5831  153.7230 C   0  0  0  0  0  0  0  0  0  0  0  0
  145.1718  143.9140  154.7882 C   0  0  0  0  0  0  0  0  0  0  0  0
  144.4609  144.9160  154.8208 O   0  0  0  0  0  0  0  0  0  0  0  0
  145.1202  142.9791  155.8256 N   0  0  0  0  0  0  0  0  0  0  0  0
  145.8775  141.8087  155.8981 C   0  0  0  0  0  0  0  0  0  0  0  0
  145.7509  141.0489  156.8576 O   0  0  0  0  0  0  0  0  0  0  0  0
  144.4804  143.1642  156.5845 H   0  0  0  0  0  0  0  0  0  0  0  0
  152.7558  140.2553  161.3961 H   0  0  0  0  0  0  0  0  0  0  0  0
  154.3950  140.8870  161.5207 H   0  0  0  0  0  0  0  0  0  0  0  0
  153.9860  139.7588  160.2376 H   0  0  0  0  0  0  0  0  0  0  0  0
  154.1210  142.0693  159.3461 H   0  0  0  0  0  0  0  0  0  0  0  0
  151.9517  142.7230  161.3872 H   0  0  0  0  0  0  0  0  0  0  0  0
  153.6013  143.2950  161.4220 H   0  0  0  0  0  0  0  0  0  0  0  0
  152.0633  145.0208  160.4936 H   0  0  0  0  0  0  0  0  0  0  0  0
  153.2716  144.5489  159.3220 H   0  0  0  0  0  0  0  0  0  0  0  0
  150.3804  143.5566  159.4248 H   0  0  0  0  0  0  0  0  0  0  0  0
  151.0527  144.6487  158.2373 H   0  0  0  0  0  0  0  0  0  0  0  0
  150.9076  142.3308  157.3510 H   0  0  0  0  0  0  0  0  0  0  0  0
  152.5604  142.8905  157.3889 H   0  0  0  0  0  0  0  0  0  0  0  0
  151.2611  141.0315  159.4521 H   0  0  0  0  0  0  0  0  0  0  0  0
  152.0703  138.6183  157.1395 H   0  0  0  0  0  0  0  0  0  0  0  0
  150.7929  139.4128  158.0484 H   0  0  0  0  0  0  0  0  0  0  0  0
  151.4475  141.3867  156.2072 H   0  0  0  0  0  0  0  0  0  0  0  0
  151.7585  139.9317  155.2725 H   0  0  0  0  0  0  0  0  0  0  0  0
  149.2700  139.6358  156.6133 H   0  0  0  0  0  0  0  0  0  0  0  0
  147.3687  139.7156  153.9629 H   0  0  0  0  0  0  0  0  0  0  0  0
  147.3644  139.7132  155.6969 H   0  0  0  0  0  0  0  0  0  0  0  0
  147.5313  142.2435  152.9744 H   0  0  0  0  0  0  0  0  0  0  0  0
  146.2172  144.2475  152.8776 H   0  0  0  0  0  0  0  0  0  0  0  0
  1  2  1  0  0  0  0
  1 24  1  0  0  0  0
  1 25  1  0  0  0  0
  1 26  1  0  0  0  0
  2  7  1  0  0  0  0
  2  3  1  0  0  0  0
  2 27  1  0  0  0  0
  3  4  1  0  0  0  0
  3 28  1  0  0  0  0
  3 29  1  0  0  0  0
  4  5  1  0  0  0  0
  4 30  1  0  0  0  0
  4 31  1  0  0  0  0
  5  6  1  0  0  0  0
  5 32  1  0  0  0  0
  5 33  1  0  0  0  0
  6  7  1  0  0  0  0
  6 34  1  0  0  0  0
  6 35  1  0  0  0  0
  7  8  1  0  0  0  0
  7 36  1  0  0  0  0
  8  9  1  0  0  0  0
  9 10  1  0  0  0  0
  9 37  1  0  0  0  0
  9 38  1  0  0  0  0
 10 11  1  0  0  0  0
 10 39  1  0  0  0  0
 10 40  1  0  0  0  0
 11 12  1  0  0  0  0
 11 41  1  0  0  0  0
 12 13  2  0  0  0  0
 12 14  1  0  0  0  0
 14 15  1  0  0  0  0
 14 42  1  0  0  0  0
 14 43  1  0  0  0  0
 15 21  1  0  0  0  0
 15 16  1  0  0  0  0
 16 17  2  0  0  0  0
 16 44  1  0  0  0  0
 17 18  1  0  0  0  0
 17 45  1  0  0  0  0
 18 19  2  0  0  0  0
 18 20  1  0  0  0  0
 20 23  1  0  0  0  0
 20 21  1  0  0  0  0
 21 22  2  0  0  0  0
M  END
> <s_m_source_file>
AV-unprocessed.smi

> <i_m_source_file_index>
1679

> <i_lp_mmshare_version>
43012

> <i_f3d_flags>
0

> <s_epik_input>
W0NIM11bQ0BASF0xW0NIMl1bQ0gyXVtDSDJdW0NIMl1bQ0BIXTFPW0NIMl1bQ0gyXVtOSF1DKD1PKVtDSDJdbjJbY0hdW2NIXWMoPU8pW25IXWMyPU8=

> <s_epik_cmdline>
J2VwaWtfcHl0aG9uJywgJy1waCcsICc3LjAnLCAnLXRuJywgJzgnLCAnLW1hJywgJzIwMCcsICctbWV0YWxfYmluZGluZycsICctaW1hZScsICc8aW5maWxlLm1hZT4nLCAnLW9tYWUnLCAnPG91dGZpbGUubWFlPic=

> <r_lp_tautomer_probability>
0.999537

> <r_epik_Ionization_Penalty>
0.0033132

> <r_epik_Ionization_Penalty_Charging>
0.00331317

> <r_epik_Ionization_Penalty_Neutral>
2.78599e-08

> <r_epik_State_Penalty>
0.002342

> <r_epik_Charging_Adjusted_Penalty>
0.00565517

> <i_epik_Tot_Q>
0

> <i_epik_Tot_abs_Q>
0

> <r_epik_Metal_State_Penalty>
0.365595

> <b_epik_Metal_Only>
0

> <s_lp_Force_Field>
OPLS_2005

> <r_lp_Energy>
12.8009

> <b_lp_Chiralities_Consistent>
1

> <s_lp_Variant>
AV-unprocessed.smi:1679-1

> <Gold.Version>
5.8.1

> <Gold.Id.Protein>
6NUR|6NUR_protein|mol2

> <Gold.PLP.Fitness>
47.3429

> <Gold.PLP.PLP>
-42.5300

> <Gold.PLP.part.hbond>
-3.0000

> <Gold.PLP.part.metal>
0.0000

> <Gold.PLP.part.buried>
-5.1543

> <Gold.PLP.part.nonpolar>
-35.0232

> <Gold.PLP.part.repulsive>
1.5045

> <Gold.PLP.ligand.clash>
0.0000

> <Gold.PLP.ligand.torsion>
0.5795

> <Gold.PLP.Chemscore.Hbond>
1.9624

> <Gold.PLP.Chemscore.CHOScore>
0.0000

> <Gold.PLP.Chemscore.Metal>
0.0000

> <Gold.Chemscore.Hbonds>
donor molecule, donor type, donor heavy atom, donor atom, acceptor molecule, acceptor atom, score
      P1  H  7989  7998       L1    13  0.30
      P1  H  7997  8010       L1     8  0.53
      P1  H  8011  8017       L1    13  0.78

> <Gold.PLP.Chemscore.Internal.Correction>
0.0848

> <Gold.Rescore>
     Score         DG    S(hbond)    S(metal)    S(lipo)     H(rot)  DE(clash)    DE(int)     intcor
     15.87     -17.31       1.96        0.00     100.29       2.52       0.69       0.76       ----

> <Gold.Chemscore.Fitness>
15.8651

> <Gold.Chemscore.DG>
-17.3092

> <Gold.Chemscore.ZeroCoef>
-5.4800

> <Gold.Chemscore.Hbond>
1.9590

> <Gold.Chemscore.Metal>
0.0000

> <Gold.Chemscore.Lipo>
100.2865

> <Gold.Chemscore.Internal_Hbond>
0.0000

> <Gold.Chemscore.DEClash>
0.6870

> <Gold.Chemscore.DEInternal>
0.7571

> <Gold.Chemscore.Rot>
2.5185

> <Gold.Chemscore.Internal.Correction>
   9.000000E+99

> <Gold.Chemscore.Hbonds>
donor molecule, donor type, donor heavy atom, donor atom, acceptor molecule, acceptor atom, score
      P1  H  7989  7998       L1    13  0.27
      P1  H  7997  8010       L1     8  0.29
      P1  H  8011  8017       L1    13  0.76

> <Gold.Chemscore.Hbond.Weighted>
-6.5429

> <Gold.Chemscore.Metal.Weighted>
-0.0000

> <Gold.Chemscore.Lipo.Weighted>
-11.7335

> <Gold.Chemscore.Internal_Hbond.Weighted>
0.0000

> <Gold.Chemscore.DEClash.Weighted>
0.6870

> <Gold.Chemscore.DEInternal.Weighted>
0.7571

> <Gold.Chemscore.Rot.Weighted>
6.4472

> <Gold.Chemscore.Internal.Correction.Weighted>
   9.000000E+99

> <Gold.Protein.RotatedTorsions>
[ 6907 6896 6895 6894 ] final   87.33 input  -60.11 | X-H torsion
[ 7974 7965 7964 7962 ] final  163.68 input  175.53 | X-H torsion
[ 8008 7997 7996 7995 ] final   43.47 input   59.86 | X-H torsion
[ 10167 10162 10161 10158 ] final   66.44 input  -65.29 | X-H torsion
[ 10718 10713 10712 10709 ] final   72.95 input   66.30 | X-H torsion
[ 10763 10752 10751 10750 ] final  169.14 input  -60.55 | X-H torsion
[ 11005 11000 10999 10996 ] final   62.64 input  -57.11 | X-H torsion

> <Gold.Protein.ActiveResidues>
 VAL166  LYS551  ARG553  GLY616  TRP617  ASP618  TYR619  PRO620  LYS621  CYS622 
 ASP623  PHE694  ASN695  SER759  ASP760  ASP761  ALA762  ILE779  LEU786  VAL792 
 PHE793  MET794  SER795  GLU796  ALA797  LYS798  CYS799  TRP800  GLU811  SER814 

> <Gold.Protein.RotatedAtoms>
  152.5409  134.2293  159.8818 H   0  0  0  0  0  0  0  0  0  0  0  0  # atno 6907 bound_to 6896
  151.2266  133.4466  159.2610 H   0  0  0  0  0  0  0  0  0  0  0  0  # atno 6908 bound_to 6896
  151.0755  134.9839  159.8386 H   0  0  0  0  0  0  0  0  0  0  0  0  # atno 6909 bound_to 6896
  144.7579  139.8218  143.6343 H   0  0  0  0  0  0  0  0  0  0  0  0  # atno 7974 bound_to 7965
  155.3033  140.3386  155.4247 H   0  0  0  0  0  0  0  0  0  0  0  0  # atno 8008 bound_to 7997
  156.1991  140.1726  156.7976 H   0  0  0  0  0  0  0  0  0  0  0  0  # atno 8009 bound_to 7997
  154.5536  140.0701  156.8691 H   0  0  0  0  0  0  0  0  0  0  0  0  # atno 8010 bound_to 7997
  140.1004  144.4908  150.7041 H   0  0  0  0  0  0  0  0  0  0  0  0  # atno 10167 bound_to 10162
  157.6525  130.9604  150.1000 H   0  0  0  0  0  0  0  0  0  0  0  0  # atno 10718 bound_to 10713
  154.3789  135.2753  155.2223 H   0  0  0  0  0  0  0  0  0  0  0  0  # atno 10763 bound_to 10752
  154.4338  135.5971  153.6089 H   0  0  0  0  0  0  0  0  0  0  0  0  # atno 10764 bound_to 10752
  152.9835  135.6002  154.4029 H   0  0  0  0  0  0  0  0  0  0  0  0  # atno 10765 bound_to 10752
  140.0078  134.6342  155.9827 H   0  0  0  0  0  0  0  0  0  0  0  0  # atno 11005 bound_to 11000
  146.1609  139.4723  142.9989 LP  0  0  0  0  0  0  0  0  0  0  0  0  # atno 17320 bound_to 7965
  145.6718  141.0214  143.1653 LP  0  0  0  0  0  0  0  0  0  0  0  0  # atno 17321 bound_to 7965
  140.6981  143.2416  151.4944 LP  0  0  0  0  0  0  0  0  0  0  0  0  # atno 17342 bound_to 10162
  139.5674  144.2009  152.1786 LP  0  0  0  0  0  0  0  0  0  0  0  0  # atno 17343 bound_to 10162
  156.1925  130.3655  149.8891 LP  0  0  0  0  0  0  0  0  0  0  0  0  # atno 17370 bound_to 10713
  156.6816  130.8860  151.3576 LP  0  0  0  0  0  0  0  0  0  0  0  0  # atno 17371 bound_to 10713
  141.1689  133.6537  156.4581 LP  0  0  0  0  0  0  0  0  0  0  0  0  # atno 17394 bound_to 11000
  140.4609  134.6842  157.5085 LP  0  0  0  0  0  0  0  0  0  0  0  0  # atno 17395 bound_to 11000

$$$$
