AV-unprocessed.smi:1859|AV-procd|sdf|7546|dock1
  -GOLD-   22720 9263D 1   1.00000     0.00000
 Structure written by MMmdl.
 46 48  0  0  0  0  0  0  0  0  2 V2000
  148.1105  139.0682  153.6679 O   0  0  0  0  0  0  0  0  0  0  0  0
  147.0813  139.6712  153.3616 C   0  0  0  0  0  0  0  0  0  0  0  0
  146.1016  139.1124  152.6348 N   0  0  0  0  0  0  0  0  0  0  0  0
  146.1454  137.7668  152.0765 C   0  0  0  0  0  0  0  0  0  0  0  0
  144.9618  136.9163  152.5691 C   0  0  0  0  0  0  0  0  0  0  0  0
  145.0106  135.5020  152.0270 C   0  0  0  0  0  0  0  0  0  0  0  0
  143.8529  134.7044  151.8976 C   0  0  0  0  0  0  0  0  0  0  0  0
  143.9740  133.3914  151.3962 C   0  0  0  0  0  0  0  0  0  0  0  0
  145.2479  132.9048  151.0360 C   0  0  0  0  0  0  0  0  0  0  0  0
  146.3704  133.7448  151.1861 C   0  0  0  0  0  0  0  0  0  0  0  0
  146.2135  134.9963  151.6705 N   0  3  0  0  0  0  0  0  0  0  0  0
  146.8599  141.1335  153.7921 C   0  0  1  0  0  0  0  0  0  0  0  0
  145.9138  141.2699  155.0139 C   0  0  0  0  0  0  0  0  0  0  0  0
  146.6038  140.9943  156.3686 C   0  0  0  0  0  0  0  0  0  0  0  0
  147.9412  141.7475  156.4796 C   0  0  0  0  0  0  0  0  0  0  0  0
  148.7861  141.3847  155.3327 N   0  0  0  0  0  0  0  0  0  0  0  0
  149.8821  140.5855  155.3713 C   0  0  0  0  0  0  0  0  0  0  0  0
  150.4871  140.2487  154.3519 O   0  0  0  0  0  0  0  0  0  0  0  0
  150.3409  140.1242  156.7184 C   0  0  0  0  0  0  0  0  0  0  0  0
  150.6348  141.1768  157.7716 C   0  0  0  0  0  0  0  0  0  0  0  0
  151.7699  140.4478  157.1025 C   0  0  0  0  0  0  0  0  0  0  0  0
  148.1984  141.8605  154.0717 C   0  0  0  0  0  0  0  0  0  0  0  0
  145.2845  139.6692  152.4290 H   0  0  0  0  0  0  0  0  0  0  0  0
  146.1571  137.8180  150.9864 H   0  0  0  0  0  0  0  0  0  0  0  0
  147.0860  137.3039  152.3761 H   0  0  0  0  0  0  0  0  0  0  0  0
  144.9539  136.8829  153.6594 H   0  0  0  0  0  0  0  0  0  0  0  0
  144.0154  137.3700  152.2703 H   0  0  0  0  0  0  0  0  0  0  0  0
  142.8844  135.0907  152.1808 H   0  0  0  0  0  0  0  0  0  0  0  0
  143.1004  132.7648  151.2912 H   0  0  0  0  0  0  0  0  0  0  0  0
  145.3623  131.9020  150.6511 H   0  0  0  0  0  0  0  0  0  0  0  0
  147.3812  133.4560  150.9369 H   0  0  0  0  0  0  0  0  0  0  0  0
  146.3759  141.6363  152.9531 H   0  0  0  0  0  0  0  0  0  0  0  0
  145.5214  142.2873  155.0293 H   0  0  0  0  0  0  0  0  0  0  0  0
  145.0444  140.6207  154.9016 H   0  0  0  0  0  0  0  0  0  0  0  0
  145.9429  141.2880  157.1844 H   0  0  0  0  0  0  0  0  0  0  0  0
  146.7777  139.9255  156.4933 H   0  0  0  0  0  0  0  0  0  0  0  0
  147.7629  142.8237  156.4664 H   0  0  0  0  0  0  0  0  0  0  0  0
  148.3970  141.5443  157.4472 H   0  0  0  0  0  0  0  0  0  0  0  0
  149.9068  139.1959  157.0857 H   0  0  0  0  0  0  0  0  0  0  0  0
  150.5064  142.2280  157.5203 H   0  0  0  0  0  0  0  0  0  0  0  0
  150.4024  140.9207  158.8031 H   0  0  0  0  0  0  0  0  0  0  0  0
  152.3077  139.6953  157.6754 H   0  0  0  0  0  0  0  0  0  0  0  0
  152.3766  141.0081  156.3928 H   0  0  0  0  0  0  0  0  0  0  0  0
  148.8759  141.7453  153.2239 H   0  0  0  0  0  0  0  0  0  0  0  0
  148.0225  142.9346  154.1466 H   0  0  0  0  0  0  0  0  0  0  0  0
  147.0391  135.5872  151.7723 H   0  0  0  0  0  0  0  0  0  0  0  0
  1  2  2  0  0  0  0
  2  3  1  0  0  0  0
  2 12  1  0  0  0  0
  3  4  1  0  0  0  0
  3 23  1  0  0  0  0
  4  5  1  0  0  0  0
  4 24  1  0  0  0  0
  4 25  1  0  0  0  0
  5  6  1  0  0  0  0
  5 26  1  0  0  0  0
  5 27  1  0  0  0  0
  6 11  1  0  0  0  0
  6  7  2  0  0  0  0
  7  8  1  0  0  0  0
  7 28  1  0  0  0  0
  8  9  2  0  0  0  0
  8 29  1  0  0  0  0
  9 10  1  0  0  0  0
  9 30  1  0  0  0  0
 10 11  2  0  0  0  0
 10 31  1  0  0  0  0
 11 46  1  0  0  0  0
 12 22  1  0  0  0  0
 12 13  1  0  0  0  0
 12 32  1  0  0  0  0
 13 14  1  0  0  0  0
 13 33  1  0  0  0  0
 13 34  1  0  0  0  0
 14 15  1  0  0  0  0
 14 35  1  0  0  0  0
 14 36  1  0  0  0  0
 15 16  1  0  0  0  0
 15 37  1  0  0  0  0
 15 38  1  0  0  0  0
 16 17  1  0  0  0  0
 16 22  1  0  0  0  0
 17 18  2  0  0  0  0
 17 19  1  0  0  0  0
 19 21  1  0  0  0  0
 19 20  1  0  0  0  0
 19 39  1  0  0  0  0
 20 21  1  0  0  0  0
 20 40  1  0  0  0  0
 20 41  1  0  0  0  0
 21 42  1  0  0  0  0
 21 43  1  0  0  0  0
 22 44  1  0  0  0  0
 22 45  1  0  0  0  0
M  CHG  1  11   1
M  END
> <s_m_source_file>
AV-unprocessed.smi

> <i_m_source_file_index>
1859

> <i_lp_mmshare_version>
43012

> <i_f3d_flags>
0

> <s_epik_input>
W0NIMl0xW0NIMl1bQ0hdMUMoPU8pTihbQ0gyXTIpW0NIMl1bQ0gyXVtDSDJdW0NASF0yQyg9TylbTkhdW0NIMl1bQ0gyXWMzW2NIXVtjSF1bY0hdW2NIXW4z

> <s_epik_cmdline>
J2VwaWtfcHl0aG9uJywgJy1waCcsICc3LjAnLCAnLXRuJywgJzgnLCAnLW1hJywgJzIwMCcsICctbWV0YWxfYmluZGluZycsICctaW1hZScsICc8aW5maWxlLm1hZT4nLCAnLW9tYWUnLCAnPG91dGZpbGUubWFlPic=

> <r_epik_Ionization_Penalty>
1.84754

> <r_epik_Ionization_Penalty_Charging>
1.84754

> <r_epik_Ionization_Penalty_Neutral>
7.35743e-08

> <r_epik_State_Penalty>
1.96477

> <r_epik_Charging_Adjusted_Penalty>
3.81231

> <i_epik_Tot_Q>
1

> <i_epik_Tot_abs_Q>
1

> <r_epik_Metal_State_Penalty>
1.99062

> <b_epik_Metal_Only>
0

> <s_lp_Force_Field>
OPLS_2005

> <r_lp_Energy>
29.7098

> <b_lp_Chiralities_Consistent>
1

> <s_lp_Variant>
AV-unprocessed.smi:1859-4

> <Gold.Version>
5.8.1

> <Gold.Id.Protein>
6NUR|6NUR_protein|mol2

> <Gold.PLP.Fitness>
47.6263

> <Gold.PLP.PLP>
-37.4164

> <Gold.PLP.part.hbond>
-2.8904

> <Gold.PLP.part.metal>
0.0000

> <Gold.PLP.part.buried>
-4.5924

> <Gold.PLP.part.nonpolar>
-30.6023

> <Gold.PLP.part.repulsive>
1.2080

> <Gold.PLP.ligand.clash>
0.0000

> <Gold.PLP.ligand.torsion>
0.9933

> <Gold.PLP.Chemscore.Hbond>
4.0000

> <Gold.PLP.Chemscore.CHOScore>
0.0000

> <Gold.PLP.Chemscore.Metal>
0.0000

> <Gold.Chemscore.Hbonds>
donor molecule, donor type, donor heavy atom, donor atom, acceptor molecule, acceptor atom, score
      L1  H     3    23       P1 10175  1.00
      L1  H    11    46       P1  7948  2.00
      P1  H  7989  7998       L1    18  1.00

> <Gold.PLP.Chemscore.Internal.Correction>
0.1965

> <Gold.Rescore>
     Score         DG    S(hbond)    S(metal)    S(lipo)     H(rot)  DE(clash)    DE(int)     intcor
     14.79     -19.96       2.97        0.00      76.28       1.70       0.51       4.67       ----

> <Gold.Chemscore.Fitness>
14.7896

> <Gold.Chemscore.DG>
-19.9614

> <Gold.Chemscore.ZeroCoef>
-5.4800

> <Gold.Chemscore.Hbond>
2.9651

> <Gold.Chemscore.Metal>
0.0000

> <Gold.Chemscore.Lipo>
76.2819

> <Gold.Chemscore.Internal_Hbond>
0.0000

> <Gold.Chemscore.DEClash>
0.5063

> <Gold.Chemscore.DEInternal>
4.6656

> <Gold.Chemscore.Rot>
1.6980

> <Gold.Chemscore.Internal.Correction>
   9.000000E+99

> <Gold.Chemscore.Hbonds>
donor molecule, donor type, donor heavy atom, donor atom, acceptor molecule, acceptor atom, score
      L1  H     3    23       P1 10175  1.00
      L1  H    11    46       P1  7948  0.97
      P1  H  7989  7998       L1    18  0.94

> <Gold.Chemscore.Hbond.Weighted>
-9.9033

> <Gold.Chemscore.Metal.Weighted>
-0.0000

> <Gold.Chemscore.Lipo.Weighted>
-8.9250

> <Gold.Chemscore.Internal_Hbond.Weighted>
0.0000

> <Gold.Chemscore.DEClash.Weighted>
0.5063

> <Gold.Chemscore.DEInternal.Weighted>
4.6656

> <Gold.Chemscore.Rot.Weighted>
4.3469

> <Gold.Chemscore.Internal.Correction.Weighted>
   9.000000E+99

> <Gold.Protein.RotatedTorsions>
[ 6907 6896 6895 6894 ] final -170.21 input  -60.11 | X-H torsion
[ 7974 7965 7964 7962 ] final   68.56 input  175.53 | X-H torsion
[ 8008 7997 7996 7995 ] final -131.76 input   59.86 | X-H torsion
[ 10167 10162 10161 10158 ] final -100.28 input  -65.29 | X-H torsion
[ 10718 10713 10712 10709 ] final   -2.59 input   66.30 | X-H torsion
[ 10763 10752 10751 10750 ] final  128.64 input  -60.55 | X-H torsion
[ 11005 11000 10999 10996 ] final  135.42 input  -57.11 | X-H torsion

> <Gold.Protein.ActiveResidues>
 VAL166  LYS551  ARG553  GLY616  TRP617  ASP618  TYR619  PRO620  LYS621  CYS622 
 ASP623  PHE694  ASN695  SER759  ASP760  ASP761  ALA762  ILE779  LEU786  VAL792 
 PHE793  MET794  SER795  GLU796  ALA797  LYS798  CYS799  TRP800  GLU811  SER814 

> <Gold.Protein.RotatedAtoms>
  151.5041  133.3498  159.2873 H   0  0  0  0  0  0  0  0  0  0  0  0  # atno 6907 bound_to 6896
  150.8754  134.8138  159.7197 H   0  0  0  0  0  0  0  0  0  0  0  0  # atno 6908 bound_to 6896
  152.4727  134.4931  159.9753 H   0  0  0  0  0  0  0  0  0  0  0  0  # atno 6909 bound_to 6896
  145.8011  139.2983  143.1154 H   0  0  0  0  0  0  0  0  0  0  0  0  # atno 7974 bound_to 7965
  155.3177  140.0460  157.3038 H   0  0  0  0  0  0  0  0  0  0  0  0  # atno 8008 bound_to 7997
  154.5398  140.2284  155.8627 H   0  0  0  0  0  0  0  0  0  0  0  0  # atno 8009 bound_to 7997
  156.1869  140.3060  155.9263 H   0  0  0  0  0  0  0  0  0  0  0  0  # atno 8010 bound_to 7997
  140.2535  143.3456  152.0692 H   0  0  0  0  0  0  0  0  0  0  0  0  # atno 10167 bound_to 10162
  156.7886  130.5354  149.5739 H   0  0  0  0  0  0  0  0  0  0  0  0  # atno 10718 bound_to 10713
  153.7289  135.3242  155.3282 H   0  0  0  0  0  0  0  0  0  0  0  0  # atno 10763 bound_to 10752
  154.8332  135.4517  154.1142 H   0  0  0  0  0  0  0  0  0  0  0  0  # atno 10764 bound_to 10752
  153.2284  135.6957  153.7999 H   0  0  0  0  0  0  0  0  0  0  0  0  # atno 10765 bound_to 10752
  139.9979  134.9490  157.0005 H   0  0  0  0  0  0  0  0  0  0  0  0  # atno 11005 bound_to 11000
  145.9877  140.8629  143.0082 LP  0  0  0  0  0  0  0  0  0  0  0  0  # atno 17320 bound_to 7965
  144.6769  140.2170  143.7370 LP  0  0  0  0  0  0  0  0  0  0  0  0  # atno 17321 bound_to 7965
  139.5039  144.6764  151.6118 LP  0  0  0  0  0  0  0  0  0  0  0  0  # atno 17342 bound_to 10162
  140.6022  143.9589  150.6394 LP  0  0  0  0  0  0  0  0  0  0  0  0  # atno 17343 bound_to 10162
  156.1173  130.6084  151.0140 LP  0  0  0  0  0  0  0  0  0  0  0  0  # atno 17370 bound_to 10713
  157.6612  131.0880  150.7835 LP  0  0  0  0  0  0  0  0  0  0  0  0  # atno 17371 bound_to 10713
  140.4784  134.1315  155.7213 LP  0  0  0  0  0  0  0  0  0  0  0  0  # atno 17394 bound_to 11000
  141.1619  133.8777  157.1825 LP  0  0  0  0  0  0  0  0  0  0  0  0  # atno 17395 bound_to 11000

$$$$
