AV-unprocessed.smi:239|AV-procd|sdf|1820|dock2
  -GOLD-   2262020413D 1   1.00000     0.00000
 Structure written by MMmdl.
 54 58  0  0  0  0  0  0  0  0  1 V2000
  147.5210  133.3434  154.2040 C   0  0  0  0  0  0  0  0  0  0  0  0
  147.4472  134.6157  155.0543 C   0  0  2  0  0  0  0  0  0  0  0  0
  148.7841  135.3768  155.0651 C   0  0  0  0  0  0  0  0  0  0  0  0
  148.7042  136.5185  155.9695 N   0  0  0  0  0  0  0  0  0  0  0  0
  149.6902  137.4402  155.8232 C   0  0  0  0  0  0  0  0  0  0  0  0
  150.8999  137.0671  155.3248 N   0  0  0  0  0  0  0  0  0  0  0  0
  151.8727  137.9687  155.1635 C   0  0  0  0  0  0  0  0  0  0  0  0
  151.8523  139.2751  155.4325 N   0  0  0  0  0  0  0  0  0  0  0  0
  150.6459  139.6555  155.9417 C   0  0  0  0  0  0  0  0  0  0  0  0
  149.5227  138.8110  156.1711 C   0  0  0  0  0  0  0  0  0  0  0  0
  148.4797  139.5520  156.7149 N   0  0  0  0  0  0  0  0  0  0  0  0
  148.9524  140.7664  156.7849 C   0  0  0  0  0  0  0  0  0  0  0  0
  150.2435  140.9203  156.3340 N   0  0  0  0  0  0  0  0  0  0  0  0
  151.0095  142.1567  156.2922 C   0  0  0  0  0  0  0  0  0  0  0  0
  151.0846  142.8921  157.6533 C   0  0  0  0  0  0  0  0  0  0  0  0
  149.8280  143.5085  157.8786 O   0  0  0  0  0  0  0  0  0  0  0  0
  151.3454  141.8882  158.7941 C   0  0  0  0  0  0  0  0  0  0  0  0
  151.5969  142.5908  160.1404 C   0  0  0  0  0  0  0  0  0  0  0  0
  152.6673  143.5189  160.0131 O   0  0  0  0  0  0  0  0  0  0  0  0
  152.3817  144.5641  159.0915 C   0  0  0  0  0  0  0  0  0  0  0  0
  152.1766  143.9842  157.6807 C   0  0  0  0  0  0  0  0  0  0  0  0
  148.3033  136.1470  157.3246 C   0  0  0  0  0  0  0  0  0  0  0  0
  146.9965  135.3311  157.3040 C   0  0  1  0  0  0  0  0  0  0  0  0
  145.7654  136.1836  157.0302 C   0  0  0  0  0  0  0  0  0  0  0  0
  145.8231  137.3457  156.0668 C   0  0  0  0  0  0  0  0  0  0  0  0
  145.6813  137.5994  157.5491 C   0  0  0  0  0  0  0  0  0  0  0  0
  147.1054  134.2396  156.3879 O   0  0  0  0  0  0  0  0  0  0  0  0
  147.7687  133.5778  153.1685 H   0  0  0  0  0  0  0  0  0  0  0  0
  146.5660  132.8175  154.2064 H   0  0  0  0  0  0  0  0  0  0  0  0
  148.2804  132.6589  154.5830 H   0  0  0  0  0  0  0  0  0  0  0  0
  146.6661  135.2546  154.6407 H   0  0  0  0  0  0  0  0  0  0  0  0
  149.5874  134.7196  155.4012 H   0  0  0  0  0  0  0  0  0  0  0  0
  149.0340  135.6836  154.0504 H   0  0  0  0  0  0  0  0  0  0  0  0
  152.7992  137.5889  154.7585 H   0  0  0  0  0  0  0  0  0  0  0  0
  148.3670  141.5909  157.1653 H   0  0  0  0  0  0  0  0  0  0  0  0
  152.0123  141.9244  155.9307 H   0  0  0  0  0  0  0  0  0  0  0  0
  150.5606  142.8071  155.5404 H   0  0  0  0  0  0  0  0  0  0  0  0
  149.5182  143.8659  157.0605 H   0  0  0  0  0  0  0  0  0  0  0  0
  150.5136  141.1886  158.8862 H   0  0  0  0  0  0  0  0  0  0  0  0
  152.2234  141.2879  158.5513 H   0  0  0  0  0  0  0  0  0  0  0  0
  150.6989  143.1000  160.4936 H   0  0  0  0  0  0  0  0  0  0  0  0
  151.8607  141.8547  160.9001 H   0  0  0  0  0  0  0  0  0  0  0  0
  151.5038  145.1232  159.4192 H   0  0  0  0  0  0  0  0  0  0  0  0
  153.2166  145.2648  159.0868 H   0  0  0  0  0  0  0  0  0  0  0  0
  153.1209  143.5552  157.3430 H   0  0  0  0  0  0  0  0  0  0  0  0
  151.9406  144.7905  156.9853 H   0  0  0  0  0  0  0  0  0  0  0  0
  149.0976  135.5511  157.7763 H   0  0  0  0  0  0  0  0  0  0  0  0
  148.1754  137.0360  157.9436 H   0  0  0  0  0  0  0  0  0  0  0  0
  146.8665  134.8861  158.2912 H   0  0  0  0  0  0  0  0  0  0  0  0
  144.8295  135.6284  157.0380 H   0  0  0  0  0  0  0  0  0  0  0  0
  146.7814  137.5794  155.6069 H   0  0  0  0  0  0  0  0  0  0  0  0
  144.9507  137.5218  155.4408 H   0  0  0  0  0  0  0  0  0  0  0  0
  144.7149  137.9446  157.9108 H   0  0  0  0  0  0  0  0  0  0  0  0
  146.5459  137.9976  158.0762 H   0  0  0  0  0  0  0  0  0  0  0  0
  1  2  1  0  0  0  0
  1 28  1  0  0  0  0
  1 29  1  0  0  0  0
  1 30  1  0  0  0  0
  2 27  1  0  0  0  0
  2  3  1  0  0  0  0
  2 31  1  0  0  0  0
  3  4  1  0  0  0  0
  3 32  1  0  0  0  0
  3 33  1  0  0  0  0
  4  5  1  0  0  0  0
  4 22  1  0  0  0  0
  5 10  1  0  0  0  0
  5  6  2  0  0  0  0
  6  7  1  0  0  0  0
  7  8  2  0  0  0  0
  7 34  1  0  0  0  0
  8  9  1  0  0  0  0
  9 13  1  0  0  0  0
  9 10  2  0  0  0  0
 10 11  1  0  0  0  0
 11 12  2  0  0  0  0
 12 13  1  0  0  0  0
 12 35  1  0  0  0  0
 13 14  1  0  0  0  0
 14 15  1  0  0  0  0
 14 36  1  0  0  0  0
 14 37  1  0  0  0  0
 15 21  1  0  0  0  0
 15 16  1  0  0  0  0
 15 17  1  0  0  0  0
 16 38  1  0  0  0  0
 17 18  1  0  0  0  0
 17 39  1  0  0  0  0
 17 40  1  0  0  0  0
 18 19  1  0  0  0  0
 18 41  1  0  0  0  0
 18 42  1  0  0  0  0
 19 20  1  0  0  0  0
 20 21  1  0  0  0  0
 20 43  1  0  0  0  0
 20 44  1  0  0  0  0
 21 45  1  0  0  0  0
 21 46  1  0  0  0  0
 22 23  1  0  0  0  0
 22 47  1  0  0  0  0
 22 48  1  0  0  0  0
 23 24  1  0  0  0  0
 23 27  1  0  0  0  0
 23 49  1  0  0  0  0
 24 26  1  0  0  0  0
 24 25  1  0  0  0  0
 24 50  1  0  0  0  0
 25 26  1  0  0  0  0
 25 51  1  0  0  0  0
 25 52  1  0  0  0  0
 26 53  1  0  0  0  0
 26 54  1  0  0  0  0
M  END
> <s_m_source_file>
AV-unprocessed.smi

> <i_m_source_file_index>
239

> <i_lp_mmshare_version>
43012

> <i_f3d_flags>
0

> <s_epik_input>
W0NIMl0xW0NIMl1bQ0hdMVtDQEBIXShPMilbQ0gyXU4oW0NIMl1bQ0BIXTJbQ0gzXSljKG5bY0hdbjMpYyhjMzQpbltjSF1uNFtDSDJdQzUoW09IXSlbQ0gyXVtDSDJdT1tDSDJdW0NIMl01

> <s_epik_cmdline>
J2VwaWtfcHl0aG9uJywgJy1waCcsICc3LjAnLCAnLXRuJywgJzgnLCAnLW1hJywgJzIwMCcsICctbWV0YWxfYmluZGluZycsICctaW1hZScsICc8aW5maWxlLm1hZT4nLCAnLW9tYWUnLCAnPG91dGZpbGUubWFlPic=

> <r_lp_tautomer_probability>
1

> <r_epik_Ionization_Penalty>
9.13091e-05

> <r_epik_Ionization_Penalty_Charging>
0

> <r_epik_Ionization_Penalty_Neutral>
9.13091e-05

> <r_epik_State_Penalty>
-0

> <r_epik_Charging_Adjusted_Penalty>
0

> <i_epik_Tot_Q>
0

> <i_epik_Tot_abs_Q>
0

> <r_epik_Metal_State_Penalty>
-0

> <b_epik_Metal_Only>
0

> <s_lp_Force_Field>
OPLS_2005

> <r_lp_Energy>
39.9708

> <b_lp_Chiralities_Consistent>
1

> <s_lp_Variant>
AV-unprocessed.smi:239-1

> <Gold.Version>
5.8.1

> <Gold.Id.Protein>
6NUR|6NUR_protein|mol2

> <Gold.PLP.Fitness>
50.5040

> <Gold.PLP.PLP>
-43.3613

> <Gold.PLP.part.hbond>
-3.2639

> <Gold.PLP.part.metal>
0.0000

> <Gold.PLP.part.buried>
-7.6803

> <Gold.PLP.part.nonpolar>
-33.3517

> <Gold.PLP.part.repulsive>
0.1856

> <Gold.PLP.ligand.clash>
0.0000

> <Gold.PLP.ligand.torsion>
1.1817

> <Gold.PLP.Chemscore.Hbond>
2.6966

> <Gold.PLP.Chemscore.CHOScore>
0.0000

> <Gold.PLP.Chemscore.Metal>
0.0000

> <Gold.Chemscore.Hbonds>
donor molecule, donor type, donor heavy atom, donor atom, acceptor molecule, acceptor atom, score
      L1  H    16    38       P1  8028  1.00

> <Gold.PLP.Chemscore.Internal.Correction>
1.4163

> <Gold.Rescore>
     Score         DG    S(hbond)    S(metal)    S(lipo)     H(rot)  DE(clash)    DE(int)     intcor
     13.39     -16.03       1.72        0.00      89.91       2.24       0.17       2.46       ----

> <Gold.Chemscore.Fitness>
13.3930

> <Gold.Chemscore.DG>
-16.0260

> <Gold.Chemscore.ZeroCoef>
-5.4800

> <Gold.Chemscore.Hbond>
1.7237

> <Gold.Chemscore.Metal>
0.0000

> <Gold.Chemscore.Lipo>
89.9148

> <Gold.Chemscore.Internal_Hbond>
0.0000

> <Gold.Chemscore.DEClash>
0.1750

> <Gold.Chemscore.DEInternal>
2.4580

> <Gold.Chemscore.Rot>
2.2387

> <Gold.Chemscore.Internal.Correction>
   9.000000E+99

> <Gold.Chemscore.Hbonds>
donor molecule, donor type, donor heavy atom, donor atom, acceptor molecule, acceptor atom, score
      L1  H    16    38       P1  8028  0.74

> <Gold.Chemscore.Hbond.Weighted>
-5.7571

> <Gold.Chemscore.Metal.Weighted>
-0.0000

> <Gold.Chemscore.Lipo.Weighted>
-10.5200

> <Gold.Chemscore.Internal_Hbond.Weighted>
0.0000

> <Gold.Chemscore.DEClash.Weighted>
0.1750

> <Gold.Chemscore.DEInternal.Weighted>
2.4580

> <Gold.Chemscore.Rot.Weighted>
5.7311

> <Gold.Chemscore.Internal.Correction.Weighted>
   9.000000E+99

> <Gold.Protein.RotatedTorsions>
[ 6907 6896 6895 6894 ] final  159.24 input  -60.11 | X-H torsion
[ 7974 7965 7964 7962 ] final   58.71 input  175.53 | X-H torsion
[ 8008 7997 7996 7995 ] final  -28.03 input   59.86 | X-H torsion
[ 10167 10162 10161 10158 ] final  -34.56 input  -65.29 | X-H torsion
[ 10718 10713 10712 10709 ] final -115.89 input   66.30 | X-H torsion
[ 10763 10752 10751 10750 ] final  170.02 input  -60.55 | X-H torsion
[ 11005 11000 10999 10996 ] final  133.20 input  -57.11 | X-H torsion

> <Gold.Protein.ActiveResidues>
 VAL166  LYS551  ARG553  GLY616  TRP617  ASP618  TYR619  PRO620  LYS621  CYS622 
 ASP623  PHE694  ASN695  SER759  ASP760  ASP761  ALA762  ILE779  LEU786  VAL792 
 PHE793  MET794  SER795  GLU796  ALA797  LYS798  CYS799  TRP800  GLU811  SER814 

> <Gold.Protein.RotatedAtoms>
  151.9885  133.3782  159.4134 H   0  0  0  0  0  0  0  0  0  0  0  0  # atno 6907 bound_to 6896
  150.6925  134.3962  159.5108 H   0  0  0  0  0  0  0  0  0  0  0  0  # atno 6908 bound_to 6896
  152.1692  134.8848  160.0586 H   0  0  0  0  0  0  0  0  0  0  0  0  # atno 6909 bound_to 6896
  145.9152  139.3685  143.0512 H   0  0  0  0  0  0  0  0  0  0  0  0  # atno 7974 bound_to 7965
  154.4350  140.1856  156.1025 H   0  0  0  0  0  0  0  0  0  0  0  0  # atno 8008 bound_to 7997
  156.0281  140.3333  155.7084 H   0  0  0  0  0  0  0  0  0  0  0  0  # atno 8009 bound_to 7997
  155.5879  140.0628  157.2757 H   0  0  0  0  0  0  0  0  0  0  0  0  # atno 8010 bound_to 7997
  140.7183  143.3539  151.2099 H   0  0  0  0  0  0  0  0  0  0  0  0  # atno 10167 bound_to 10162
  156.0926  130.6105  150.8964 H   0  0  0  0  0  0  0  0  0  0  0  0  # atno 10718 bound_to 10713
  154.3916  135.2754  155.2151 H   0  0  0  0  0  0  0  0  0  0  0  0  # atno 10763 bound_to 10752
  154.4215  135.5999  153.6016 H   0  0  0  0  0  0  0  0  0  0  0  0  # atno 10764 bound_to 10752
  152.9832  135.5973  154.4171 H   0  0  0  0  0  0  0  0  0  0  0  0  # atno 10765 bound_to 10752
  139.9837  134.9539  156.9691 H   0  0  0  0  0  0  0  0  0  0  0  0  # atno 11005 bound_to 11000
  145.8621  140.9469  143.0694 LP  0  0  0  0  0  0  0  0  0  0  0  0  # atno 17320 bound_to 7965
  144.6747  140.0544  143.7478 LP  0  0  0  0  0  0  0  0  0  0  0  0  # atno 17321 bound_to 7965
  139.7076  143.9429  152.2933 LP  0  0  0  0  0  0  0  0  0  0  0  0  # atno 17342 bound_to 10162
  139.9143  144.6837  150.8528 LP  0  0  0  0  0  0  0  0  0  0  0  0  # atno 17343 bound_to 10162
  157.6079  131.0938  150.8847 LP  0  0  0  0  0  0  0  0  0  0  0  0  # atno 17370 bound_to 10713
  156.8992  130.5240  149.5283 LP  0  0  0  0  0  0  0  0  0  0  0  0  # atno 17371 bound_to 10713
  140.5045  134.1064  155.7257 LP  0  0  0  0  0  0  0  0  0  0  0  0  # atno 17394 bound_to 11000
  141.1505  133.8976  157.2108 LP  0  0  0  0  0  0  0  0  0  0  0  0  # atno 17395 bound_to 11000

$$$$
