AV-unprocessed.smi:2639|AV-procd|sdf|10264|dock10
  -GOLD-   2272014273D 1   1.00000     0.00000
 Structure written by MMmdl.
 43 44  0  0  0  0  0  0  0  0  1 V2000
  147.3625  141.7494  153.7119 C   0  0  0  0  0  0  0  0  0  0  0  0
  147.9348  141.0462  154.9693 C   0  0  1  0  0  0  0  0  0  0  0  0
  148.7901  139.8290  154.5079 C   0  0  0  0  0  0  0  0  0  0  0  0
  149.8859  140.2153  153.7026 O   0  0  0  0  0  0  0  0  0  0  0  0
  148.7857  141.9839  155.7192 N   0  0  0  0  0  0  0  0  0  0  0  0
  149.5505  141.7527  156.7998 C   0  0  0  0  0  0  0  0  0  0  0  0
  149.6618  140.6543  157.3429 O   0  0  0  0  0  0  0  0  0  0  0  0
  150.1837  142.8743  157.1858 N   0  0  0  0  0  0  0  0  0  0  0  0
  151.0532  143.0682  158.2936 C   0  0  0  0  0  0  0  0  0  0  0  0
  151.2982  144.3923  158.7127 C   0  0  0  0  0  0  0  0  0  0  0  0
  152.1430  144.6096  159.8196 C   0  0  0  0  0  0  0  0  0  0  0  0
  152.7281  143.6106  160.5132 N   0  0  0  0  0  0  0  0  0  0  0  0
  152.4803  142.3430  160.1206 C   0  0  0  0  0  0  0  0  0  0  0  0
  151.6525  142.0164  159.0278 C   0  0  0  0  0  0  0  0  0  0  0  0
  146.7696  140.6046  155.9252 C   0  0  0  0  0  0  0  0  0  0  0  0
  145.7949  139.5791  155.2841 C   0  0  0  0  0  0  0  0  0  0  0  0
  144.6992  139.1253  156.2620 C   0  0  0  0  0  0  0  0  0  0  0  0
  143.9095  140.3202  156.8100 C   0  0  0  0  0  0  0  0  0  0  0  0
  144.8525  141.3355  157.4666 C   0  0  0  0  0  0  0  0  0  0  0  0
  145.9480  141.7946  156.4910 C   0  0  0  0  0  0  0  0  0  0  0  0
  146.5773  141.1517  153.2482 H   0  0  0  0  0  0  0  0  0  0  0  0
  148.1272  141.9104  152.9520 H   0  0  0  0  0  0  0  0  0  0  0  0
  146.9414  142.7276  153.9425 H   0  0  0  0  0  0  0  0  0  0  0  0
  149.1925  139.2837  155.3615 H   0  0  0  0  0  0  0  0  0  0  0  0
  148.1880  139.1099  153.9524 H   0  0  0  0  0  0  0  0  0  0  0  0
  149.6292  140.1498  152.7955 H   0  0  0  0  0  0  0  0  0  0  0  0
  148.7884  142.9288  155.3641 H   0  0  0  0  0  0  0  0  0  0  0  0
  150.0632  143.6784  156.5877 H   0  0  0  0  0  0  0  0  0  0  0  0
  150.8533  145.2300  158.1955 H   0  0  0  0  0  0  0  0  0  0  0  0
  152.3524  145.6135  160.1581 H   0  0  0  0  0  0  0  0  0  0  0  0
  152.9514  141.5623  160.6994 H   0  0  0  0  0  0  0  0  0  0  0  0
  151.4867  140.9775  158.7880 H   0  0  0  0  0  0  0  0  0  0  0  0
  147.2225  140.0997  156.7795 H   0  0  0  0  0  0  0  0  0  0  0  0
  145.3241  140.0053  154.3977 H   0  0  0  0  0  0  0  0  0  0  0  0
  146.3312  138.6918  154.9507 H   0  0  0  0  0  0  0  0  0  0  0  0
  144.0218  138.4316  155.7632 H   0  0  0  0  0  0  0  0  0  0  0  0
  145.1515  138.5750  157.0881 H   0  0  0  0  0  0  0  0  0  0  0  0
  143.3576  140.7998  156.0007 H   0  0  0  0  0  0  0  0  0  0  0  0
  143.1680  139.9780  157.5325 H   0  0  0  0  0  0  0  0  0  0  0  0
  144.2832  142.1971  157.8167 H   0  0  0  0  0  0  0  0  0  0  0  0
  145.3132  140.8903  158.3495 H   0  0  0  0  0  0  0  0  0  0  0  0
  146.5932  142.4931  157.0219 H   0  0  0  0  0  0  0  0  0  0  0  0
  145.4887  142.3576  155.6779 H   0  0  0  0  0  0  0  0  0  0  0  0
  1  2  1  0  0  0  0
  1 21  1  0  0  0  0
  1 22  1  0  0  0  0
  1 23  1  0  0  0  0
  2  3  1  0  0  0  0
  2  5  1  0  0  0  0
  2 15  1  0  0  0  0
  3  4  1  0  0  0  0
  3 24  1  0  0  0  0
  3 25  1  0  0  0  0
  4 26  1  0  0  0  0
  5  6  1  0  0  0  0
  5 27  1  0  0  0  0
  6  7  2  0  0  0  0
  6  8  1  0  0  0  0
  8  9  1  0  0  0  0
  8 28  1  0  0  0  0
  9 14  1  0  0  0  0
  9 10  2  0  0  0  0
 10 11  1  0  0  0  0
 10 29  1  0  0  0  0
 11 12  2  0  0  0  0
 11 30  1  0  0  0  0
 12 13  1  0  0  0  0
 13 14  2  0  0  0  0
 13 31  1  0  0  0  0
 14 32  1  0  0  0  0
 15 20  1  0  0  0  0
 15 16  1  0  0  0  0
 15 33  1  0  0  0  0
 16 17  1  0  0  0  0
 16 34  1  0  0  0  0
 16 35  1  0  0  0  0
 17 18  1  0  0  0  0
 17 36  1  0  0  0  0
 17 37  1  0  0  0  0
 18 19  1  0  0  0  0
 18 38  1  0  0  0  0
 18 39  1  0  0  0  0
 19 20  1  0  0  0  0
 19 40  1  0  0  0  0
 19 41  1  0  0  0  0
 20 42  1  0  0  0  0
 20 43  1  0  0  0  0
M  END
> <s_m_source_file>
AV-unprocessed.smi

> <i_m_source_file_index>
2639

> <i_lp_mmshare_version>
43012

> <i_f3d_flags>
0

> <s_epik_input>
W0NIMl0xW0NIMl1bQ0gyXVtDSDJdW0NIMl1bQ0hdMVtDQF0oW0NIM10pKFtDSDJdW09IXSlbTkhdQyg9TylbTkhdYzJbY0hdW2NIXW5bY0hdW2NIXTI=

> <s_epik_cmdline>
J2VwaWtfcHl0aG9uJywgJy1waCcsICc3LjAnLCAnLXRuJywgJzgnLCAnLW1hJywgJzIwMCcsICctbWV0YWxfYmluZGluZycsICctaW1hZScsICc8aW5maWxlLm1hZT4nLCAnLW9tYWUnLCAnPG91dGZpbGUubWFlPic=

> <r_epik_Ionization_Penalty>
0.119032

> <r_epik_Ionization_Penalty_Charging>
0

> <r_epik_Ionization_Penalty_Neutral>
0.119032

> <r_epik_State_Penalty>
0.108564

> <r_epik_Charging_Adjusted_Penalty>
0.108564

> <i_epik_Tot_Q>
0

> <i_epik_Tot_abs_Q>
0

> <r_epik_Metal_State_Penalty>
0.0902516

> <b_epik_Metal_Only>
0

> <s_lp_Force_Field>
OPLS_2005

> <r_lp_Energy>
25.5212

> <b_lp_Chiralities_Consistent>
1

> <s_lp_Variant>
AV-unprocessed.smi:2639-1

> <Gold.Version>
5.8.1

> <Gold.Id.Protein>
6NUR|6NUR_protein|mol2

> <Gold.PLP.Fitness>
42.1952

> <Gold.PLP.PLP>
-31.4971

> <Gold.PLP.part.hbond>
-4.0000

> <Gold.PLP.part.metal>
0.0000

> <Gold.PLP.part.buried>
-6.7235

> <Gold.PLP.part.nonpolar>
-22.2334

> <Gold.PLP.part.repulsive>
0.1644

> <Gold.PLP.ligand.clash>
0.0000

> <Gold.PLP.ligand.torsion>
0.1181

> <Gold.PLP.Chemscore.Hbond>
3.6320

> <Gold.PLP.Chemscore.CHOScore>
0.0000

> <Gold.PLP.Chemscore.Metal>
0.0000

> <Gold.Chemscore.Hbonds>
donor molecule, donor type, donor heavy atom, donor atom, acceptor molecule, acceptor atom, score
      L1  H     4    26       P1  7957  1.00
      L1  H     5    27       P1  8028  1.00
      L1  H     8    28       P1  8028  0.94
      P1  H  7989  7998       L1     4  0.65

> <Gold.PLP.Chemscore.Internal.Correction>
0.0382

> <Gold.Rescore>
     Score         DG    S(hbond)    S(metal)    S(lipo)     H(rot)  DE(clash)    DE(int)     intcor
     18.85     -20.14       3.27        0.00      75.29       1.98       0.01       1.28       ----

> <Gold.Chemscore.Fitness>
18.8463

> <Gold.Chemscore.DG>
-20.1418

> <Gold.Chemscore.ZeroCoef>
-5.4800

> <Gold.Chemscore.Hbond>
3.2697

> <Gold.Chemscore.Metal>
0.0000

> <Gold.Chemscore.Lipo>
75.2913

> <Gold.Chemscore.Internal_Hbond>
0.0000

> <Gold.Chemscore.DEClash>
0.0128

> <Gold.Chemscore.DEInternal>
1.2827

> <Gold.Chemscore.Rot>
1.9798

> <Gold.Chemscore.Internal.Correction>
   9.000000E+99

> <Gold.Chemscore.Hbonds>
donor molecule, donor type, donor heavy atom, donor atom, acceptor molecule, acceptor atom, score
      L1  H     4    26       P1  7957  0.99
      L1  H     5    27       P1  8028  0.95
      L1  H     8    28       P1  8028  0.91
      P1  H  7989  7998       L1     4  0.15

> <Gold.Chemscore.Hbond.Weighted>
-10.9208

> <Gold.Chemscore.Metal.Weighted>
-0.0000

> <Gold.Chemscore.Lipo.Weighted>
-8.8091

> <Gold.Chemscore.Internal_Hbond.Weighted>
0.0000

> <Gold.Chemscore.DEClash.Weighted>
0.0128

> <Gold.Chemscore.DEInternal.Weighted>
1.2827

> <Gold.Chemscore.Rot.Weighted>
5.0682

> <Gold.Chemscore.Internal.Correction.Weighted>
   9.000000E+99

> <Gold.Protein.RotatedTorsions>
[ 6907 6896 6895 6894 ] final   23.03 input  -60.11 | X-H torsion
[ 7974 7965 7964 7962 ] final  179.28 input  175.53 | X-H torsion
[ 8008 7997 7996 7995 ] final  126.28 input   59.86 | X-H torsion
[ 10167 10162 10161 10158 ] final  -29.62 input  -65.29 | X-H torsion
[ 10718 10713 10712 10709 ] final  -85.00 input   66.30 | X-H torsion
[ 10763 10752 10751 10750 ] final   91.78 input  -60.55 | X-H torsion
[ 11005 11000 10999 10996 ] final -178.60 input  -57.11 | X-H torsion

> <Gold.Protein.ActiveResidues>
 VAL166  LYS551  ARG553  GLY616  TRP617  ASP618  TYR619  PRO620  LYS621  CYS622 
 ASP623  PHE694  ASN695  SER759  ASP760  ASP761  ALA762  ILE779  LEU786  VAL792 
 PHE793  MET794  SER795  GLU796  ALA797  LYS798  CYS799  TRP800  GLU811  SER814 

> <Gold.Protein.RotatedAtoms>
  151.9362  135.0234  160.0532 H   0  0  0  0  0  0  0  0  0  0  0  0  # atno 6907 bound_to 6896
  152.2076  133.4882  159.5101 H   0  0  0  0  0  0  0  0  0  0  0  0  # atno 6908 bound_to 6896
  150.6968  134.1426  159.4153 H   0  0  0  0  0  0  0  0  0  0  0  0  # atno 6909 bound_to 6896
  144.7147  140.0524  143.6435 H   0  0  0  0  0  0  0  0  0  0  0  0  # atno 7974 bound_to 7965
  156.2859  140.2696  156.2085 H   0  0  0  0  0  0  0  0  0  0  0  0  # atno 8008 bound_to 7997
  155.0288  140.0386  157.2484 H   0  0  0  0  0  0  0  0  0  0  0  0  # atno 8009 bound_to 7997
  154.7372  140.2718  155.6410 H   0  0  0  0  0  0  0  0  0  0  0  0  # atno 8010 bound_to 7997
  140.7258  143.3913  151.1424 H   0  0  0  0  0  0  0  0  0  0  0  0  # atno 10167 bound_to 10162
  156.0001  130.4716  150.4495 H   0  0  0  0  0  0  0  0  0  0  0  0  # atno 10718 bound_to 10713
  153.2119  135.4385  155.0390 H   0  0  0  0  0  0  0  0  0  0  0  0  # atno 10763 bound_to 10752
  154.8205  135.3335  154.7056 H   0  0  0  0  0  0  0  0  0  0  0  0  # atno 10764 bound_to 10752
  153.7493  135.6999  153.5005 H   0  0  0  0  0  0  0  0  0  0  0  0  # atno 10765 bound_to 10752
  140.4280  134.6545  157.4697 H   0  0  0  0  0  0  0  0  0  0  0  0  # atno 11005 bound_to 11000
  145.9933  139.3032  143.0972 LP  0  0  0  0  0  0  0  0  0  0  0  0  # atno 17320 bound_to 7965
  145.8878  140.9323  143.0568 LP  0  0  0  0  0  0  0  0  0  0  0  0  # atno 17321 bound_to 7965
  139.7519  143.8766  152.3079 LP  0  0  0  0  0  0  0  0  0  0  0  0  # atno 17342 bound_to 10162
  139.8622  144.7111  150.9086 LP  0  0  0  0  0  0  0  0  0  0  0  0  # atno 17343 bound_to 10162
  157.2529  131.0550  151.2368 LP  0  0  0  0  0  0  0  0  0  0  0  0  # atno 17370 bound_to 10713
  157.3510  130.7082  149.6441 LP  0  0  0  0  0  0  0  0  0  0  0  0  # atno 17371 bound_to 10713
  140.0154  134.6627  155.9318 LP  0  0  0  0  0  0  0  0  0  0  0  0  # atno 17394 bound_to 11000
  141.1757  133.6540  156.4821 LP  0  0  0  0  0  0  0  0  0  0  0  0  # atno 17395 bound_to 11000

$$$$
