AV-unprocessed.smi:3044|AV-procd|sdf|11606|dock7
  -GOLD-   2272016583D 1   1.00000     0.00000
 Structure written by MMmdl.
 41 42  0  0  0  0  0  0  0  0  1 V2000
  151.3274  144.3509  160.0444 C   0  0  0  0  0  0  0  0  0  0  0  0
  152.2208  143.2139  160.5103 C   0  0  0  0  0  0  0  0  0  0  0  0
  152.7512  143.3635  161.7447 N   0  0  0  0  0  0  0  0  0  0  0  0
  153.5513  142.3862  162.2191 C   0  0  0  0  0  0  0  0  0  0  0  0
  153.8524  141.2175  161.4952 C   0  0  0  0  0  0  0  0  0  0  0  0
  153.3009  141.0635  160.2096 C   0  0  0  0  0  0  0  0  0  0  0  0
  152.4735  142.0877  159.6883 C   0  0  0  0  0  0  0  0  0  0  0  0
  151.8595  142.0147  158.4075 N   0  0  0  0  0  0  0  0  0  0  0  0
  151.9821  141.0531  157.4742 C   0  0  0  0  0  0  0  0  0  0  0  0
  152.6525  140.0294  157.6018 O   0  0  0  0  0  0  0  0  0  0  0  0
  151.2270  141.3020  156.1651 C   0  0  0  0  0  0  0  0  0  0  0  0
  150.2955  140.2542  155.9063 O   0  0  0  0  0  0  0  0  0  0  0  0
  149.4929  140.4098  154.7381 C   0  0  1  0  0  0  0  0  0  0  0  0
  148.7775  139.0754  154.4716 C   0  0  0  0  0  0  0  0  0  0  0  0
  147.7984  139.1961  153.2939 C   0  0  0  0  0  0  0  0  0  0  0  0
  146.7827  140.3255  153.5296 C   0  0  0  0  0  0  0  0  0  0  0  0
  147.4851  141.6708  153.7968 C   0  0  1  0  0  0  0  0  0  0  0  0
  146.4710  142.7973  154.0414 C   0  0  0  0  0  0  0  0  0  0  0  0
  148.4726  141.5397  154.9723 C   0  0  0  0  0  0  0  0  0  0  0  0
  151.7603  144.8405  159.1726 H   0  0  0  0  0  0  0  0  0  0  0  0
  151.1981  145.1039  160.8227 H   0  0  0  0  0  0  0  0  0  0  0  0
  150.3404  143.9747  159.7751 H   0  0  0  0  0  0  0  0  0  0  0  0
  153.9582  142.5371  163.2081 H   0  0  0  0  0  0  0  0  0  0  0  0
  154.4885  140.4542  161.9185 H   0  0  0  0  0  0  0  0  0  0  0  0
  153.5099  140.1608  159.6566 H   0  0  0  0  0  0  0  0  0  0  0  0
  151.3436  142.8356  158.1249 H   0  0  0  0  0  0  0  0  0  0  0  0
  150.7231  142.2698  156.1817 H   0  0  0  0  0  0  0  0  0  0  0  0
  151.9485  141.3344  155.3484 H   0  0  0  0  0  0  0  0  0  0  0  0
  150.1010  140.6545  153.8646 H   0  0  0  0  0  0  0  0  0  0  0  0
  149.5106  138.2948  154.2665 H   0  0  0  0  0  0  0  0  0  0  0  0
  148.2344  138.7638  155.3648 H   0  0  0  0  0  0  0  0  0  0  0  0
  148.3537  139.3889  152.3751 H   0  0  0  0  0  0  0  0  0  0  0  0
  147.2757  138.2505  153.1470 H   0  0  0  0  0  0  0  0  0  0  0  0
  146.1257  140.4124  152.6633 H   0  0  0  0  0  0  0  0  0  0  0  0
  146.1442  140.0683  154.3759 H   0  0  0  0  0  0  0  0  0  0  0  0
  148.0575  141.9330  152.9058 H   0  0  0  0  0  0  0  0  0  0  0  0
  145.8676  142.6020  154.9285 H   0  0  0  0  0  0  0  0  0  0  0  0
  145.7925  142.9060  153.1949 H   0  0  0  0  0  0  0  0  0  0  0  0
  146.9743  143.7540  154.1849 H   0  0  0  0  0  0  0  0  0  0  0  0
  147.9229  141.3493  155.8950 H   0  0  0  0  0  0  0  0  0  0  0  0
  148.9955  142.4853  155.1139 H   0  0  0  0  0  0  0  0  0  0  0  0
  1  2  1  0  0  0  0
  1 20  1  0  0  0  0
  1 21  1  0  0  0  0
  1 22  1  0  0  0  0
  2  7  1  0  0  0  0
  2  3  2  0  0  0  0
  3  4  1  0  0  0  0
  4  5  2  0  0  0  0
  4 23  1  0  0  0  0
  5  6  1  0  0  0  0
  5 24  1  0  0  0  0
  6  7  2  0  0  0  0
  6 25  1  0  0  0  0
  7  8  1  0  0  0  0
  8  9  1  0  0  0  0
  8 26  1  0  0  0  0
  9 10  2  0  0  0  0
  9 11  1  0  0  0  0
 11 12  1  0  0  0  0
 11 27  1  0  0  0  0
 11 28  1  0  0  0  0
 12 13  1  0  0  0  0
 13 19  1  0  0  0  0
 13 14  1  0  0  0  0
 13 29  1  0  0  0  0
 14 15  1  0  0  0  0
 14 30  1  0  0  0  0
 14 31  1  0  0  0  0
 15 16  1  0  0  0  0
 15 32  1  0  0  0  0
 15 33  1  0  0  0  0
 16 17  1  0  0  0  0
 16 34  1  0  0  0  0
 16 35  1  0  0  0  0
 17 18  1  0  0  0  0
 17 19  1  0  0  0  0
 17 36  1  0  0  0  0
 18 37  1  0  0  0  0
 18 38  1  0  0  0  0
 18 39  1  0  0  0  0
 19 40  1  0  0  0  0
 19 41  1  0  0  0  0
M  END
> <s_m_source_file>
AV-unprocessed.smi

> <i_m_source_file_index>
3044

> <i_lp_mmshare_version>
43012

> <i_f3d_flags>
0

> <s_epik_input>
W0NIM11jMW5bY0hdW2NIXVtjSF1jMVtOSF1DKD1PKVtDSDJdT1tDQEBIXTJbQ0gyXVtDSDJdW0NIMl1bQ0BASF0oW0NIM10pW0NIMl0y

> <s_epik_cmdline>
J2VwaWtfcHl0aG9uJywgJy1waCcsICc3LjAnLCAnLXRuJywgJzgnLCAnLW1hJywgJzIwMCcsICctbWV0YWxfYmluZGluZycsICctaW1hZScsICc8aW5maWxlLm1hZT4nLCAnLW9tYWUnLCAnPG91dGZpbGUubWFlPic=

> <r_epik_Ionization_Penalty>
0.0077122

> <r_epik_Ionization_Penalty_Charging>
0

> <r_epik_Ionization_Penalty_Neutral>
0.0077122

> <r_epik_State_Penalty>
0.00577497

> <r_epik_Charging_Adjusted_Penalty>
0.00577497

> <i_epik_Tot_Q>
0

> <i_epik_Tot_abs_Q>
0

> <r_epik_Metal_State_Penalty>
-0

> <b_epik_Metal_Only>
0

> <s_lp_Force_Field>
OPLS_2005

> <r_lp_Energy>
17.5643

> <b_lp_Chiralities_Consistent>
1

> <s_lp_Variant>
AV-unprocessed.smi:3044-2

> <Gold.Version>
5.8.1

> <Gold.Id.Protein>
6NUR|6NUR_protein|mol2

> <Gold.PLP.Fitness>
44.7119

> <Gold.PLP.PLP>
-41.8391

> <Gold.PLP.part.hbond>
-1.0000

> <Gold.PLP.part.metal>
0.0000

> <Gold.PLP.part.buried>
-4.1524

> <Gold.PLP.part.nonpolar>
-36.7242

> <Gold.PLP.part.repulsive>
0.2152

> <Gold.PLP.ligand.clash>
0.0000

> <Gold.PLP.ligand.torsion>
0.0677

> <Gold.PLP.Chemscore.Hbond>
1.0000

> <Gold.PLP.Chemscore.CHOScore>
0.0000

> <Gold.PLP.Chemscore.Metal>
0.0000

> <Gold.Chemscore.Hbonds>
donor molecule, donor type, donor heavy atom, donor atom, acceptor molecule, acceptor atom, score
      P1  H  7997  8009       L1    10  1.00

> <Gold.PLP.Chemscore.Internal.Correction>
0.0081

> <Gold.Rescore>
     Score         DG    S(hbond)    S(metal)    S(lipo)     H(rot)  DE(clash)    DE(int)     intcor
     17.25     -18.75       0.95        0.00     114.87       1.31       0.15       1.35       ----

> <Gold.Chemscore.Fitness>
17.2540

> <Gold.Chemscore.DG>
-18.7521

> <Gold.Chemscore.ZeroCoef>
-5.4800

> <Gold.Chemscore.Hbond>
0.9511

> <Gold.Chemscore.Metal>
0.0000

> <Gold.Chemscore.Lipo>
114.8691

> <Gold.Chemscore.Internal_Hbond>
0.0000

> <Gold.Chemscore.DEClash>
0.1508

> <Gold.Chemscore.DEInternal>
1.3473

> <Gold.Chemscore.Rot>
1.3064

> <Gold.Chemscore.Internal.Correction>
   9.000000E+99

> <Gold.Chemscore.Hbonds>
donor molecule, donor type, donor heavy atom, donor atom, acceptor molecule, acceptor atom, score
      P1  H  7997  8009       L1    10  0.80

> <Gold.Chemscore.Hbond.Weighted>
-3.1767

> <Gold.Chemscore.Metal.Weighted>
-0.0000

> <Gold.Chemscore.Lipo.Weighted>
-13.4397

> <Gold.Chemscore.Internal_Hbond.Weighted>
0.0000

> <Gold.Chemscore.DEClash.Weighted>
0.1508

> <Gold.Chemscore.DEInternal.Weighted>
1.3473

> <Gold.Chemscore.Rot.Weighted>
3.3443

> <Gold.Chemscore.Internal.Correction.Weighted>
   9.000000E+99

> <Gold.Protein.RotatedTorsions>
[ 6907 6896 6895 6894 ] final -167.10 input  -60.11 | X-H torsion
[ 7974 7965 7964 7962 ] final  -67.15 input  175.53 | X-H torsion
[ 8008 7997 7996 7995 ] final -177.24 input   59.86 | X-H torsion
[ 10167 10162 10161 10158 ] final    0.50 input  -65.29 | X-H torsion
[ 10718 10713 10712 10709 ] final   45.24 input   66.30 | X-H torsion
[ 10763 10752 10751 10750 ] final   45.31 input  -60.55 | X-H torsion
[ 11005 11000 10999 10996 ] final  -96.38 input  -57.11 | X-H torsion

> <Gold.Protein.ActiveResidues>
 VAL166  LYS551  ARG553  GLY616  TRP617  ASP618  TYR619  PRO620  LYS621  CYS622 
 ASP623  PHE694  ASN695  SER759  ASP760  ASP761  ALA762  ILE779  LEU786  VAL792 
 PHE793  MET794  SER795  GLU796  ALA797  LYS798  CYS799  TRP800  GLU811  SER814 

> <Gold.Protein.RotatedAtoms>
  151.4542  133.3609  159.2799 H   0  0  0  0  0  0  0  0  0  0  0  0  # atno 6907 bound_to 6896
  150.9070  134.8487  159.7410 H   0  0  0  0  0  0  0  0  0  0  0  0  # atno 6908 bound_to 6896
  152.4911  134.4468  159.9613 H   0  0  0  0  0  0  0  0  0  0  0  0  # atno 6909 bound_to 6896
  145.7328  140.8989  143.0571 H   0  0  0  0  0  0  0  0  0  0  0  0  # atno 7974 bound_to 7965
  156.0046  140.1228  157.0514 H   0  0  0  0  0  0  0  0  0  0  0  0  # atno 8008 bound_to 7997
  154.4254  140.1100  156.5814 H   0  0  0  0  0  0  0  0  0  0  0  0  # atno 8009 bound_to 7997
  155.6165  140.3472  155.4640 H   0  0  0  0  0  0  0  0  0  0  0  0  # atno 8010 bound_to 7997
  140.6725  143.7007  150.7954 H   0  0  0  0  0  0  0  0  0  0  0  0  # atno 10167 bound_to 10162
  157.4354  130.8049  149.7643 H   0  0  0  0  0  0  0  0  0  0  0  0  # atno 10718 bound_to 10713
  152.9826  135.6043  154.3416 H   0  0  0  0  0  0  0  0  0  0  0  0  # atno 10763 bound_to 10752
  154.3112  135.2771  155.2567 H   0  0  0  0  0  0  0  0  0  0  0  0  # atno 10764 bound_to 10752
  154.4775  135.5926  153.6421 H   0  0  0  0  0  0  0  0  0  0  0  0  # atno 10765 bound_to 10752
  141.1413  133.8093  157.0563 H   0  0  0  0  0  0  0  0  0  0  0  0  # atno 11005 bound_to 11000
  144.6889  139.9354  143.7473 LP  0  0  0  0  0  0  0  0  0  0  0  0  # atno 17320 bound_to 7965
  146.0522  139.3522  143.0633 LP  0  0  0  0  0  0  0  0  0  0  0  0  # atno 17321 bound_to 7965
  140.0695  143.5075  152.2587 LP  0  0  0  0  0  0  0  0  0  0  0  0  # atno 17342 bound_to 10162
  139.6001  144.7580  151.3192 LP  0  0  0  0  0  0  0  0  0  0  0  0  # atno 17343 bound_to 10162
  155.9928  130.3928  150.2925 LP  0  0  0  0  0  0  0  0  0  0  0  0  # atno 17370 bound_to 10713
  157.1085  131.0215  151.3057 LP  0  0  0  0  0  0  0  0  0  0  0  0  # atno 17371 bound_to 10713
  140.0600  134.9760  157.1287 LP  0  0  0  0  0  0  0  0  0  0  0  0  # atno 17394 bound_to 11000
  140.3863  134.2233  155.7168 LP  0  0  0  0  0  0  0  0  0  0  0  0  # atno 17395 bound_to 11000

$$$$
