AV-unprocessed.smi:1199|AV-procd|sdf|5017|dock3
  -GOLD-   22720 4 33D 1   1.00000     0.00000
 Structure written by MMmdl.
 41 42  0  0  0  0  0  0  0  0  3 V2000
  150.6829  134.0372  156.1958 C   0  0  0  0  0  0  0  0  0  0  0  0
  150.0292  134.2513  154.8225 C   0  0  1  0  0  0  0  0  0  0  0  0
  148.5001  134.0347  154.8653 C   0  0  0  0  0  0  0  0  0  0  0  0
  147.8217  134.2737  153.5625 N   0  3  0  0  0  0  0  0  0  0  0  0
  147.6849  133.0590  152.7220 C   0  0  0  0  0  0  0  0  0  0  0  0
  147.0155  133.4101  151.3826 C   0  0  0  0  0  0  0  0  0  0  0  0
  145.7489  134.0091  151.6264 O   0  0  0  0  0  0  0  0  0  0  0  0
  145.8684  135.2228  152.3578 C   0  0  0  0  0  0  0  0  0  0  0  0
  146.5095  134.9428  153.7268 C   0  0  0  0  0  0  0  0  0  0  0  0
  150.3279  135.5864  154.3172 N   0  0  0  0  0  0  0  0  0  0  0  0
  150.3238  136.7254  155.0278 C   0  0  0  0  0  0  0  0  0  0  0  0
  149.9344  136.7862  156.1934 O   0  0  0  0  0  0  0  0  0  0  0  0
  150.8772  137.9884  154.3467 C   0  0  0  0  0  0  0  0  0  0  0  0
  151.0819  139.1282  155.2570 N   0  0  0  0  0  0  0  0  0  0  0  0
  152.0638  138.8704  156.3080 N   0  5  0  0  0  0  0  0  0  0  0  0
  152.3073  139.8320  157.2369 C   0  0  0  0  0  0  0  0  0  0  0  0
  153.0866  139.6700  158.1725 O   0  0  0  0  0  0  0  0  0  0  0  0
  151.6224  141.1061  157.0977 C   0  0  0  0  0  0  0  0  0  0  0  0
  150.7580  141.3334  156.0889 C   0  0  0  0  0  0  0  0  0  0  0  0
  150.4463  140.3224  155.0859 C   0  0  0  0  0  0  0  0  0  0  0  0
  149.6727  140.5296  154.1517 O   0  0  0  0  0  0  0  0  0  0  0  0
  150.4732  133.0377  156.5773 H   0  0  0  0  0  0  0  0  0  0  0  0
  150.3158  134.7571  156.9282 H   0  0  0  0  0  0  0  0  0  0  0  0
  151.7665  134.1457  156.1375 H   0  0  0  0  0  0  0  0  0  0  0  0
  150.4508  133.5152  154.1360 H   0  0  0  0  0  0  0  0  0  0  0  0
  148.2678  133.0323  155.2279 H   0  0  0  0  0  0  0  0  0  0  0  0
  148.0775  134.7296  155.5928 H   0  0  0  0  0  0  0  0  0  0  0  0
  148.6628  132.6203  152.5256 H   0  0  0  0  0  0  0  0  0  0  0  0
  147.0956  132.3091  153.2516 H   0  0  0  0  0  0  0  0  0  0  0  0
  147.6439  134.0800  150.7939 H   0  0  0  0  0  0  0  0  0  0  0  0
  146.8702  132.5080  150.7882 H   0  0  0  0  0  0  0  0  0  0  0  0
  146.4556  135.9478  151.7951 H   0  0  0  0  0  0  0  0  0  0  0  0
  144.8759  135.6540  152.4898 H   0  0  0  0  0  0  0  0  0  0  0  0
  145.8502  134.3116  154.3248 H   0  0  0  0  0  0  0  0  0  0  0  0
  146.6363  135.8805  154.2689 H   0  0  0  0  0  0  0  0  0  0  0  0
  150.6496  135.6490  153.3619 H   0  0  0  0  0  0  0  0  0  0  0  0
  151.8044  137.7288  153.8335 H   0  0  0  0  0  0  0  0  0  0  0  0
  150.1834  138.2786  153.5557 H   0  0  0  0  0  0  0  0  0  0  0  0
  151.8132  141.8890  157.8169 H   0  0  0  0  0  0  0  0  0  0  0  0
  150.2742  142.2965  156.0222 H   0  0  0  0  0  0  0  0  0  0  0  0
  148.4073  134.9150  153.0446 H   0  0  0  0  0  0  0  0  0  0  0  0
  1  2  1  0  0  0  0
  1 22  1  0  0  0  0
  1 23  1  0  0  0  0
  1 24  1  0  0  0  0
  2  3  1  0  0  0  0
  2 10  1  0  0  0  0
  2 25  1  0  0  0  0
  3  4  1  0  0  0  0
  3 26  1  0  0  0  0
  3 27  1  0  0  0  0
  4  9  1  0  0  0  0
  4  5  1  0  0  0  0
  4 41  1  0  0  0  0
  5  6  1  0  0  0  0
  5 28  1  0  0  0  0
  5 29  1  0  0  0  0
  6  7  1  0  0  0  0
  6 30  1  0  0  0  0
  6 31  1  0  0  0  0
  7  8  1  0  0  0  0
  8  9  1  0  0  0  0
  8 32  1  0  0  0  0
  8 33  1  0  0  0  0
  9 34  1  0  0  0  0
  9 35  1  0  0  0  0
 10 11  1  0  0  0  0
 10 36  1  0  0  0  0
 11 12  2  0  0  0  0
 11 13  1  0  0  0  0
 13 37  1  0  0  0  0
 13 38  1  0  0  0  0
 13 14  1  0  0  0  0
 14 15  1  0  0  0  0
 14 20  1  0  0  0  0
 15 16  1  0  0  0  0
 16 17  2  0  0  0  0
 16 18  1  0  0  0  0
 18 39  1  0  0  0  0
 18 19  2  0  0  0  0
 19 40  1  0  0  0  0
 19 20  1  0  0  0  0
 20 21  2  0  0  0  0
M  CHG  1   4   1
M  CHG  1  15  -1
M  END
> <s_m_source_file>
AV-unprocessed.smi

> <i_m_source_file_index>
1199

> <i_lp_mmshare_version>
43012

> <i_f3d_flags>
0

> <s_epik_input>
W0NIMl0xW0NIMl1PW0NIMl1bQ0gyXU4xW0NIMl1bQ0BASF0oW0NIM10pW05IXUMoPU8pW0NIMl1uMltuSF1jKD1PKVtjSF1bY0hdYzI9Tw==

> <s_epik_cmdline>
J2VwaWtfcHl0aG9uJywgJy1waCcsICc3LjAnLCAnLXRuJywgJzgnLCAnLW1hJywgJzIwMCcsICctbWV0YWxfYmluZGluZycsICctaW1hZScsICc8aW5maWxlLm1hZT4nLCAnLW9tYWUnLCAnPG91dGZpbGUubWFlPic=

> <r_lp_tautomer_probability>
1

> <r_epik_Ionization_Penalty>
0.741876

> <r_epik_Ionization_Penalty_Charging>
0.741876

> <r_epik_Ionization_Penalty_Neutral>
9.12373e-08

> <r_epik_State_Penalty>
0.692284

> <r_epik_Charging_Adjusted_Penalty>
1.43416

> <i_epik_Tot_Q>
0

> <i_epik_Tot_abs_Q>
2

> <r_epik_Metal_State_Penalty>
0.692284

> <b_epik_Metal_Only>
0

> <s_lp_Force_Field>
OPLS_2005

> <r_lp_Energy>
27.3091

> <b_lp_Chiralities_Consistent>
1

> <s_lp_Variant>
AV-unprocessed.smi:1199-4

> <Gold.Version>
5.8.1

> <Gold.Id.Protein>
6NUR|6NUR_protein|mol2

> <Gold.PLP.Fitness>
40.7466

> <Gold.PLP.PLP>
-32.3332

> <Gold.PLP.part.hbond>
-5.0000

> <Gold.PLP.part.metal>
0.0000

> <Gold.PLP.part.buried>
-1.9932

> <Gold.PLP.part.nonpolar>
-25.9219

> <Gold.PLP.part.repulsive>
0.9004

> <Gold.PLP.ligand.clash>
0.0000

> <Gold.PLP.ligand.torsion>
0.8607

> <Gold.PLP.Chemscore.Hbond>
3.3440

> <Gold.PLP.Chemscore.CHOScore>
0.0000

> <Gold.PLP.Chemscore.Metal>
0.0000

> <Gold.Chemscore.Hbonds>
donor molecule, donor type, donor heavy atom, donor atom, acceptor molecule, acceptor atom, score
      L1  H     4    41       P1  7948  2.00
      L1  H    10    36       P1  7949  0.30
      P1  H  7997  8010       L1    17  0.91

> <Gold.PLP.Chemscore.Internal.Correction>
0.1028

> <Gold.Rescore>
     Score         DG    S(hbond)    S(metal)    S(lipo)     H(rot)  DE(clash)    DE(int)     intcor
      8.29     -10.57       1.58        0.00      50.31       2.37       0.01       2.26       ----

> <Gold.Chemscore.Fitness>
8.2925

> <Gold.Chemscore.DG>
-10.5692

> <Gold.Chemscore.ZeroCoef>
-5.4800

> <Gold.Chemscore.Hbond>
1.5814

> <Gold.Chemscore.Metal>
0.0000

> <Gold.Chemscore.Lipo>
50.3120

> <Gold.Chemscore.Internal_Hbond>
0.0000

> <Gold.Chemscore.DEClash>
0.0126

> <Gold.Chemscore.DEInternal>
2.2641

> <Gold.Chemscore.Rot>
2.3747

> <Gold.Chemscore.Internal.Correction>
   9.000000E+99

> <Gold.Chemscore.Hbonds>
donor molecule, donor type, donor heavy atom, donor atom, acceptor molecule, acceptor atom, score
      L1  H     4    41       P1  7948  0.70
      P1  H  7997  8010       L1    17  0.19

> <Gold.Chemscore.Hbond.Weighted>
-5.2818

> <Gold.Chemscore.Metal.Weighted>
-0.0000

> <Gold.Chemscore.Lipo.Weighted>
-5.8865

> <Gold.Chemscore.Internal_Hbond.Weighted>
0.0000

> <Gold.Chemscore.DEClash.Weighted>
0.0126

> <Gold.Chemscore.DEInternal.Weighted>
2.2641

> <Gold.Chemscore.Rot.Weighted>
6.0791

> <Gold.Chemscore.Internal.Correction.Weighted>
   9.000000E+99

> <Gold.Protein.RotatedTorsions>
[ 6907 6896 6895 6894 ] final  -54.61 input  -60.11 | X-H torsion
[ 7974 7965 7964 7962 ] final   33.52 input  175.53 | X-H torsion
[ 8008 7997 7996 7995 ] final   17.64 input   59.86 | X-H torsion
[ 10167 10162 10161 10158 ] final -103.91 input  -65.29 | X-H torsion
[ 10718 10713 10712 10709 ] final   85.60 input   66.30 | X-H torsion
[ 10763 10752 10751 10750 ] final  125.57 input  -60.55 | X-H torsion
[ 11005 11000 10999 10996 ] final   80.58 input  -57.11 | X-H torsion

> <Gold.Protein.ActiveResidues>
 VAL166  LYS551  ARG553  GLY616  TRP617  ASP618  TYR619  PRO620  LYS621  CYS622 
 ASP623  PHE694  ASN695  SER759  ASP760  ASP761  ALA762  ILE779  LEU786  VAL792 
 PHE793  MET794  SER795  GLU796  ALA797  LYS798  CYS799  TRP800  GLU811  SER814 

> <Gold.Protein.RotatedAtoms>
  150.8323  134.7582  159.6863 H   0  0  0  0  0  0  0  0  0  0  0  0  # atno 6907 bound_to 6896
  152.4426  134.5557  159.9889 H   0  0  0  0  0  0  0  0  0  0  0  0  # atno 6908 bound_to 6896
  151.5716  133.3351  159.3026 H   0  0  0  0  0  0  0  0  0  0  0  0  # atno 6909 bound_to 6896
  146.1415  139.6386  142.9160 H   0  0  0  0  0  0  0  0  0  0  0  0  # atno 7974 bound_to 7965
  154.8944  140.2991  155.5352 H   0  0  0  0  0  0  0  0  0  0  0  0  # atno 8008 bound_to 7997
  156.3020  140.2418  156.3899 H   0  0  0  0  0  0  0  0  0  0  0  0  # atno 8009 bound_to 7997
  154.8585  140.0406  157.1639 H   0  0  0  0  0  0  0  0  0  0  0  0  # atno 8010 bound_to 7997
  140.2149  143.3719  152.1019 H   0  0  0  0  0  0  0  0  0  0  0  0  # atno 10167 bound_to 10162
  157.6917  131.0181  150.2847 H   0  0  0  0  0  0  0  0  0  0  0  0  # atno 10718 bound_to 10713
  153.6794  135.3317  155.3174 H   0  0  0  0  0  0  0  0  0  0  0  0  # atno 10763 bound_to 10752
  154.8470  135.4405  154.1622 H   0  0  0  0  0  0  0  0  0  0  0  0  # atno 10764 bound_to 10752
  153.2634  135.6993  153.7631 H   0  0  0  0  0  0  0  0  0  0  0  0  # atno 10765 bound_to 10752
  139.9129  134.7931  156.1927 H   0  0  0  0  0  0  0  0  0  0  0  0  # atno 11005 bound_to 11000
  145.5036  141.0437  143.2526 LP  0  0  0  0  0  0  0  0  0  0  0  0  # atno 17320 bound_to 7965
  144.7797  139.6552  143.7159 LP  0  0  0  0  0  0  0  0  0  0  0  0  # atno 17321 bound_to 7965
  139.5166  144.6979  151.5577 LP  0  0  0  0  0  0  0  0  0  0  0  0  # atno 17342 bound_to 10162
  140.6297  143.9100  150.6595 LP  0  0  0  0  0  0  0  0  0  0  0  0  # atno 17343 bound_to 10162
  156.3388  130.3812  149.7427 LP  0  0  0  0  0  0  0  0  0  0  0  0  # atno 17370 bound_to 10713
  156.4942  130.8099  151.3107 LP  0  0  0  0  0  0  0  0  0  0  0  0  # atno 17371 bound_to 10713
  141.0573  133.6859  156.1885 LP  0  0  0  0  0  0  0  0  0  0  0  0  # atno 17394 bound_to 11000
  140.6716  134.4862  157.5587 LP  0  0  0  0  0  0  0  0  0  0  0  0  # atno 17395 bound_to 11000

$$$$
