AV-unprocessed.smi:1381|AV-procd|sdf|5603|dock8
  -GOLD-   22720 5213D 1   1.00000     0.00000
 Structure written by MMmdl.
 42 43  0  0  0  0  0  0  0  0  1 V2000
  148.9454  131.8549  153.9496 C   0  0  0  0  0  0  0  0  0  0  0  0
  149.4937  133.0250  154.6921 C   0  0  0  0  0  0  0  0  0  0  0  0
  149.2107  134.3617  154.6620 C   0  0  0  0  0  0  0  0  0  0  0  0
  150.1075  134.9002  155.6228 C   0  0  0  0  0  0  0  0  0  0  0  0
  150.1316  136.2914  155.8960 N   0  0  0  0  0  0  0  0  0  0  0  0
  151.1428  137.0063  156.4181 C   0  0  0  0  0  0  0  0  0  0  0  0
  152.2391  136.5514  156.7455 O   0  0  0  0  0  0  0  0  0  0  0  0
  150.8101  138.2988  156.5447 N   0  0  0  0  0  0  0  0  0  0  0  0
  151.6768  139.3421  157.0839 C   0  0  0  0  0  0  0  0  0  0  0  0
  150.9164  140.6558  157.3569 C   0  0  0  0  0  0  0  0  0  0  0  0
  151.7034  141.7062  158.0012 N   0  0  0  0  0  0  0  0  0  0  0  0
  152.1363  141.2928  159.3298 C   0  0  0  0  0  0  0  0  0  0  0  0
  153.0049  142.3650  160.0117 C   0  0  2  0  0  0  0  0  0  0  0  0
  153.3964  141.9680  161.4388 C   0  0  0  0  0  0  0  0  0  0  0  0
  152.2777  143.5905  160.0755 O   0  0  0  0  0  0  0  0  0  0  0  0
  151.7795  144.0679  158.8245 C   0  0  1  0  0  0  0  0  0  0  0  0
  152.9002  144.6602  157.9532 C   0  0  0  0  0  0  0  0  0  0  0  0
  150.9705  142.9654  158.1116 C   0  0  0  0  0  0  0  0  0  0  0  0
  150.8671  133.9757  156.1902 N   0  0  0  0  0  0  0  0  0  0  0  0
  150.4776  132.7691  155.5966 O   0  0  0  0  0  0  0  0  0  0  0  0
  148.2530  132.1770  153.1716 H   0  0  0  0  0  0  0  0  0  0  0  0
  148.4097  131.1863  154.6235 H   0  0  0  0  0  0  0  0  0  0  0  0
  149.7464  131.2879  153.4751 H   0  0  0  0  0  0  0  0  0  0  0  0
  148.4806  134.8694  154.0495 H   0  0  0  0  0  0  0  0  0  0  0  0
  149.2882  136.7969  155.6691 H   0  0  0  0  0  0  0  0  0  0  0  0
  149.8881  138.5847  156.2500 H   0  0  0  0  0  0  0  0  0  0  0  0
  152.1181  138.9785  158.0135 H   0  0  0  0  0  0  0  0  0  0  0  0
  152.5113  139.5101  156.4024 H   0  0  0  0  0  0  0  0  0  0  0  0
  150.4493  141.0332  156.4459 H   0  0  0  0  0  0  0  0  0  0  0  0
  150.0883  140.4035  158.0210 H   0  0  0  0  0  0  0  0  0  0  0  0
  151.2653  141.0786  159.9514 H   0  0  0  0  0  0  0  0  0  0  0  0
  152.7042  140.3643  159.2599 H   0  0  0  0  0  0  0  0  0  0  0  0
  153.9182  142.5153  159.4351 H   0  0  0  0  0  0  0  0  0  0  0  0
  153.9699  141.0405  161.4443 H   0  0  0  0  0  0  0  0  0  0  0  0
  152.5153  141.8217  162.0640 H   0  0  0  0  0  0  0  0  0  0  0  0
  154.0101  142.7404  161.9029 H   0  0  0  0  0  0  0  0  0  0  0  0
  151.0961  144.8842  159.0596 H   0  0  0  0  0  0  0  0  0  0  0  0
  152.4893  145.1286  157.0587 H   0  0  0  0  0  0  0  0  0  0  0  0
  153.6101  143.9011  157.6253 H   0  0  0  0  0  0  0  0  0  0  0  0
  153.4549  145.4227  158.5001 H   0  0  0  0  0  0  0  0  0  0  0  0
  150.6797  143.3240  157.1245 H   0  0  0  0  0  0  0  0  0  0  0  0
  150.0441  142.7961  158.6629 H   0  0  0  0  0  0  0  0  0  0  0  0
  1  2  1  0  0  0  0
  1 21  1  0  0  0  0
  1 22  1  0  0  0  0
  1 23  1  0  0  0  0
  2 20  1  0  0  0  0
  2  3  2  0  0  0  0
  3  4  1  0  0  0  0
  3 24  1  0  0  0  0
  4  5  1  0  0  0  0
  4 19  2  0  0  0  0
  5  6  1  0  0  0  0
  5 25  1  0  0  0  0
  6  7  2  0  0  0  0
  6  8  1  0  0  0  0
  8  9  1  0  0  0  0
  8 26  1  0  0  0  0
  9 10  1  0  0  0  0
  9 27  1  0  0  0  0
  9 28  1  0  0  0  0
 10 11  1  0  0  0  0
 10 29  1  0  0  0  0
 10 30  1  0  0  0  0
 11 18  1  0  0  0  0
 11 12  1  0  0  0  0
 12 13  1  0  0  0  0
 12 31  1  0  0  0  0
 12 32  1  0  0  0  0
 13 14  1  0  0  0  0
 13 15  1  0  0  0  0
 13 33  1  0  0  0  0
 14 34  1  0  0  0  0
 14 35  1  0  0  0  0
 14 36  1  0  0  0  0
 15 16  1  0  0  0  0
 16 17  1  0  0  0  0
 16 18  1  0  0  0  0
 16 37  1  0  0  0  0
 17 38  1  0  0  0  0
 17 39  1  0  0  0  0
 17 40  1  0  0  0  0
 18 41  1  0  0  0  0
 18 42  1  0  0  0  0
 19 20  1  0  0  0  0
M  END
> <s_m_source_file>
AV-unprocessed.smi

> <i_m_source_file_index>
1381

> <i_lp_mmshare_version>
43012

> <i_f3d_flags>
0

> <s_epik_input>
W0NIM11jMVtjSF1jKG5vMSlbTkhdQyg9TylbTkhdW0NIMl1bQ0gyXU4yW0NIMl1bQ0BASF0oW0NIM10pT1tDQEBIXShbQ0gzXSlbQ0gyXTI=

> <s_epik_cmdline>
J2VwaWtfcHl0aG9uJywgJy1waCcsICc3LjAnLCAnLXRuJywgJzgnLCAnLW1hJywgJzIwMCcsICctbWV0YWxfYmluZGluZycsICctaW1hZScsICc8aW5maWxlLm1hZT4nLCAnLW9tYWUnLCAnPG91dGZpbGUubWFlPic=

> <r_epik_Ionization_Penalty>
0.214073

> <r_epik_Ionization_Penalty_Charging>
0

> <r_epik_Ionization_Penalty_Neutral>
0.214073

> <r_epik_State_Penalty>
0.204211

> <r_epik_Charging_Adjusted_Penalty>
0.204211

> <i_epik_Tot_Q>
0

> <i_epik_Tot_abs_Q>
0

> <r_epik_Metal_State_Penalty>
0.217067

> <b_epik_Metal_Only>
0

> <s_lp_Force_Field>
OPLS_2005

> <r_lp_Energy>
25.417

> <b_lp_Chiralities_Consistent>
1

> <s_lp_Variant>
AV-unprocessed.smi:1381-2

> <Gold.Version>
5.8.1

> <Gold.Id.Protein>
6NUR|6NUR_protein|mol2

> <Gold.PLP.Fitness>
39.6710

> <Gold.PLP.PLP>
-37.0462

> <Gold.PLP.part.hbond>
-1.0000

> <Gold.PLP.part.metal>
0.0000

> <Gold.PLP.part.buried>
-4.5504

> <Gold.PLP.part.nonpolar>
-30.8495

> <Gold.PLP.part.repulsive>
0.0945

> <Gold.PLP.ligand.clash>
0.0000

> <Gold.PLP.ligand.torsion>
0.1913

> <Gold.PLP.Chemscore.Hbond>
1.0000

> <Gold.PLP.Chemscore.CHOScore>
0.0000

> <Gold.PLP.Chemscore.Metal>
0.0000

> <Gold.Chemscore.Hbonds>
donor molecule, donor type, donor heavy atom, donor atom, acceptor molecule, acceptor atom, score
      P1  H 10752 10765       L1     7  0.60

> <Gold.PLP.Chemscore.Internal.Correction>
0.0074

> <Gold.Rescore>
     Score         DG    S(hbond)    S(metal)    S(lipo)     H(rot)  DE(clash)    DE(int)     intcor
     14.06     -15.42       0.99        0.00      91.02       1.57       0.02       1.34       ----

> <Gold.Chemscore.Fitness>
14.0630

> <Gold.Chemscore.DG>
-15.4199

> <Gold.Chemscore.ZeroCoef>
-5.4800

> <Gold.Chemscore.Hbond>
0.9906

> <Gold.Chemscore.Metal>
0.0000

> <Gold.Chemscore.Lipo>
91.0240

> <Gold.Chemscore.Internal_Hbond>
0.0000

> <Gold.Chemscore.DEClash>
0.0199

> <Gold.Chemscore.DEInternal>
1.3369

> <Gold.Chemscore.Rot>
1.5697

> <Gold.Chemscore.Internal.Correction>
   9.000000E+99

> <Gold.Chemscore.Hbonds>
donor molecule, donor type, donor heavy atom, donor atom, acceptor molecule, acceptor atom, score
      P1  H 10752 10765       L1     7  0.47

> <Gold.Chemscore.Hbond.Weighted>
-3.3086

> <Gold.Chemscore.Metal.Weighted>
-0.0000

> <Gold.Chemscore.Lipo.Weighted>
-10.6498

> <Gold.Chemscore.Internal_Hbond.Weighted>
0.0000

> <Gold.Chemscore.DEClash.Weighted>
0.0199

> <Gold.Chemscore.DEInternal.Weighted>
1.3369

> <Gold.Chemscore.Rot.Weighted>
4.0185

> <Gold.Chemscore.Internal.Correction.Weighted>
   9.000000E+99

> <Gold.Protein.RotatedTorsions>
[ 6907 6896 6895 6894 ] final -127.30 input  -60.11 | X-H torsion
[ 7974 7965 7964 7962 ] final -109.28 input  175.53 | X-H torsion
[ 8008 7997 7996 7995 ] final  103.56 input   59.86 | X-H torsion
[ 10167 10162 10161 10158 ] final  139.66 input  -65.29 | X-H torsion
[ 10718 10713 10712 10709 ] final -130.84 input   66.30 | X-H torsion
[ 10763 10752 10751 10750 ] final -148.72 input  -60.55 | X-H torsion
[ 11005 11000 10999 10996 ] final   51.27 input  -57.11 | X-H torsion

> <Gold.Protein.ActiveResidues>
 VAL166  LYS551  ARG553  GLY616  TRP617  ASP618  TYR619  PRO620  LYS621  CYS622 
 ASP623  PHE694  ASN695  SER759  ASP760  ASP761  ALA762  ILE779  LEU786  VAL792 
 PHE793  MET794  SER795  GLU796  ALA797  LYS798  CYS799  TRP800  GLU811  SER814 

> <Gold.Protein.RotatedAtoms>
  150.9058  133.7060  159.2866 H   0  0  0  0  0  0  0  0  0  0  0  0  # atno 6907 bound_to 6896
  151.4563  135.1033  159.9721 H   0  0  0  0  0  0  0  0  0  0  0  0  # atno 6908 bound_to 6896
  152.4903  133.8432  159.7218 H   0  0  0  0  0  0  0  0  0  0  0  0  # atno 6909 bound_to 6896
  145.1824  140.8977  143.3472 H   0  0  0  0  0  0  0  0  0  0  0  0  # atno 7974 bound_to 7965
  156.1495  140.3162  155.8624 H   0  0  0  0  0  0  0  0  0  0  0  0  # atno 8008 bound_to 7997
  155.3999  140.0499  157.3054 H   0  0  0  0  0  0  0  0  0  0  0  0  # atno 8009 bound_to 7997
  154.5046  140.2142  155.9289 H   0  0  0  0  0  0  0  0  0  0  0  0  # atno 8010 bound_to 7997
  139.5072  144.6281  151.5886 H   0  0  0  0  0  0  0  0  0  0  0  0  # atno 10167 bound_to 10162
  156.2185  130.6963  151.0729 H   0  0  0  0  0  0  0  0  0  0  0  0  # atno 10718 bound_to 10713
  154.8217  135.3327  154.7017 H   0  0  0  0  0  0  0  0  0  0  0  0  # atno 10763 bound_to 10752
  153.7649  135.6930  153.4922 H   0  0  0  0  0  0  0  0  0  0  0  0  # atno 10764 bound_to 10752
  153.2084  135.4491  155.0300 H   0  0  0  0  0  0  0  0  0  0  0  0  # atno 10765 bound_to 10752
  140.0947  134.5162  155.8819 H   0  0  0  0  0  0  0  0  0  0  0  0  # atno 11005 bound_to 11000
  145.0123  139.3499  143.6114 LP  0  0  0  0  0  0  0  0  0  0  0  0  # atno 17320 bound_to 7965
  146.3451  139.9390  142.8743 LP  0  0  0  0  0  0  0  0  0  0  0  0  # atno 17321 bound_to 7965
  140.6005  143.9619  150.6383 LP  0  0  0  0  0  0  0  0  0  0  0  0  # atno 17342 bound_to 10162
  140.2829  143.3377  152.1135 LP  0  0  0  0  0  0  0  0  0  0  0  0  # atno 17343 bound_to 10162
  157.7075  131.0749  150.6616 LP  0  0  0  0  0  0  0  0  0  0  0  0  # atno 17370 bound_to 10713
  156.6678  130.4530  149.5667 LP  0  0  0  0  0  0  0  0  0  0  0  0  # atno 17371 bound_to 10713
  141.2088  133.6677  156.6398 LP  0  0  0  0  0  0  0  0  0  0  0  0  # atno 17394 bound_to 11000
  140.3303  134.7934  157.4321 LP  0  0  0  0  0  0  0  0  0  0  0  0  # atno 17395 bound_to 11000

$$$$
