AV-unprocessed.smi:1518|AV-procd|sdf|6127|dock5
  -GOLD-   22720 6263D 1   1.00000     0.00000
 Structure written by MMmdl.
 46 48  0  0  0  0  0  0  0  0  2 V2000
  147.0402  135.1433  162.7636 C   0  0  0  0  0  0  0  0  0  0  0  0
  147.5660  136.1426  161.7343 C   0  0  0  0  0  0  0  0  0  0  0  0
  147.6629  137.3258  162.0584 O   0  0  0  0  0  0  0  0  0  0  0  0
  147.9354  135.6268  160.3842 C   0  0  0  0  0  0  0  0  0  0  0  0
  147.2894  134.4725  159.8869 C   0  0  0  0  0  0  0  0  0  0  0  0
  147.6159  133.9639  158.6169 C   0  0  0  0  0  0  0  0  0  0  0  0
  148.5909  134.6039  157.8315 C   0  0  0  0  0  0  0  0  0  0  0  0
  149.2500  135.7564  158.3021 C   0  0  0  0  0  0  0  0  0  0  0  0
  150.1890  136.3190  157.4645 O   0  0  0  0  0  0  0  0  0  0  0  0
  151.0765  137.2946  157.9970 C   0  0  0  0  0  0  0  0  0  0  0  0
  150.5480  138.7062  157.6938 C   0  0  1  0  0  0  0  0  0  0  0  0
  149.7891  139.1689  158.7931 O   0  0  0  0  0  0  0  0  0  0  0  0
  151.6540  139.7070  157.3017 C   0  0  0  0  0  0  0  0  0  0  0  0
  151.2013  141.1065  157.3577 N   0  0  0  0  0  0  0  0  0  0  0  0
  150.2662  141.7592  156.6081 C   0  0  0  0  0  0  0  0  0  0  0  0
  149.4356  141.1878  155.5063 C   0  0  0  0  0  0  0  0  0  0  0  0
  149.2787  142.0865  154.4308 O   0  0  0  0  0  0  0  0  0  0  0  0
  150.2142  143.0448  157.0572 N   0  3  0  0  0  0  0  0  0  0  0  0
  151.1225  143.2182  158.1019 C   0  0  0  0  0  0  0  0  0  0  0  0
  151.4250  144.3398  158.8679 C   0  0  0  0  0  0  0  0  0  0  0  0
  152.4064  144.1775  159.8677 C   0  0  0  0  0  0  0  0  0  0  0  0
  153.0438  142.9372  160.0755 C   0  0  0  0  0  0  0  0  0  0  0  0
  152.7292  141.8077  159.2917 C   0  0  0  0  0  0  0  0  0  0  0  0
  151.7594  141.9764  158.3031 C   0  0  0  0  0  0  0  0  0  0  0  0
  148.9158  136.2630  159.5843 C   0  0  0  0  0  0  0  0  0  0  0  0
  147.7913  134.3826  162.9761 H   0  0  0  0  0  0  0  0  0  0  0  0
  146.1379  134.6543  162.3963 H   0  0  0  0  0  0  0  0  0  0  0  0
  146.7963  135.6505  163.6974 H   0  0  0  0  0  0  0  0  0  0  0  0
  146.5372  133.9646  160.4736 H   0  0  0  0  0  0  0  0  0  0  0  0
  147.1173  133.0812  158.2447 H   0  0  0  0  0  0  0  0  0  0  0  0
  148.8358  134.2066  156.8572 H   0  0  0  0  0  0  0  0  0  0  0  0
  151.1330  137.1707  159.0797 H   0  0  0  0  0  0  0  0  0  0  0  0
  152.0838  137.1704  157.5951 H   0  0  0  0  0  0  0  0  0  0  0  0
  149.8483  138.6220  156.8618 H   0  0  0  0  0  0  0  0  0  0  0  0
  149.3816  138.4251  159.2105 H   0  0  0  0  0  0  0  0  0  0  0  0
  152.5379  139.5921  157.9289 H   0  0  0  0  0  0  0  0  0  0  0  0
  151.9854  139.5118  156.2818 H   0  0  0  0  0  0  0  0  0  0  0  0
  149.9023  140.2737  155.1382 H   0  0  0  0  0  0  0  0  0  0  0  0
  148.4536  140.9116  155.8898 H   0  0  0  0  0  0  0  0  0  0  0  0
  149.0363  142.9317  154.7775 H   0  0  0  0  0  0  0  0  0  0  0  0
  150.9361  145.2903  158.7121 H   0  0  0  0  0  0  0  0  0  0  0  0
  152.6737  145.0201  160.4888 H   0  0  0  0  0  0  0  0  0  0  0  0
  153.7888  142.8488  160.8531 H   0  0  0  0  0  0  0  0  0  0  0  0
  153.2197  140.8613  159.4652 H   0  0  0  0  0  0  0  0  0  0  0  0
  149.4122  137.1441  159.9582 H   0  0  0  0  0  0  0  0  0  0  0  0
  149.5957  143.7495  156.6770 H   0  0  0  0  0  0  0  0  0  0  0  0
  1  2  1  0  0  0  0
  1 26  1  0  0  0  0
  1 27  1  0  0  0  0
  1 28  1  0  0  0  0
  2  3  2  0  0  0  0
  2  4  1  0  0  0  0
  4 25  1  0  0  0  0
  4  5  2  0  0  0  0
  5  6  1  0  0  0  0
  5 29  1  0  0  0  0
  6  7  2  0  0  0  0
  6 30  1  0  0  0  0
  7  8  1  0  0  0  0
  7 31  1  0  0  0  0
  8  9  1  0  0  0  0
  8 25  2  0  0  0  0
  9 10  1  0  0  0  0
 10 11  1  0  0  0  0
 10 32  1  0  0  0  0
 10 33  1  0  0  0  0
 11 12  1  0  0  0  0
 11 13  1  0  0  0  0
 11 34  1  0  0  0  0
 12 35  1  0  0  0  0
 13 14  1  0  0  0  0
 13 36  1  0  0  0  0
 13 37  1  0  0  0  0
 14 24  1  0  0  0  0
 14 15  1  0  0  0  0
 15 16  1  0  0  0  0
 15 18  2  0  0  0  0
 16 17  1  0  0  0  0
 16 38  1  0  0  0  0
 16 39  1  0  0  0  0
 17 40  1  0  0  0  0
 18 19  1  0  0  0  0
 18 46  1  0  0  0  0
 19 24  2  0  0  0  0
 19 20  1  0  0  0  0
 20 21  2  0  0  0  0
 20 41  1  0  0  0  0
 21 22  1  0  0  0  0
 21 42  1  0  0  0  0
 22 23  2  0  0  0  0
 22 43  1  0  0  0  0
 23 24  1  0  0  0  0
 23 44  1  0  0  0  0
 25 45  1  0  0  0  0
M  CHG  1  18   1
M  END
> <s_m_source_file>
AV-unprocessed.smi

> <i_m_source_file_index>
1518

> <i_lp_mmshare_version>
43012

> <i_f3d_flags>
0

> <s_epik_input>
W0NIM11DKD1PKWMxW2NIXVtjSF1bY0hdYyhbY0hdMSlPW0NIMl1bQ0BIXShbT0hdKVtDSDJdbihjKG4yKVtDSDJdW09IXSljKGMyMylbY0hdW2NIXVtjSF1bY0hdMw==

> <s_epik_cmdline>
J2VwaWtfcHl0aG9uJywgJy1waCcsICc3LjAnLCAnLXRuJywgJzgnLCAnLW1hJywgJzIwMCcsICctbWV0YWxfYmluZGluZycsICctaW1hZScsICc8aW5maWxlLm1hZT4nLCAnLW9tYWUnLCAnPG91dGZpbGUubWFlPic=

> <r_lp_tautomer_probability>
0.99995

> <r_epik_Ionization_Penalty>
1.40416

> <r_epik_Ionization_Penalty_Charging>
1.4033

> <r_epik_Ionization_Penalty_Neutral>
0.000858184

> <r_epik_State_Penalty>
1.48564

> <r_epik_Charging_Adjusted_Penalty>
2.88894

> <i_epik_Tot_Q>
1

> <i_epik_Tot_abs_Q>
1

> <r_epik_Metal_State_Penalty>
5.52809

> <b_epik_Metal_Only>
0

> <s_lp_Force_Field>
OPLS_2005

> <r_lp_Energy>
25.8835

> <b_lp_Chiralities_Consistent>
1

> <s_lp_Variant>
AV-unprocessed.smi:1518-4

> <Gold.Version>
5.8.1

> <Gold.Id.Protein>
6NUR|6NUR_protein|mol2

> <Gold.PLP.Fitness>
58.6370

> <Gold.PLP.PLP>
-47.9610

> <Gold.PLP.part.hbond>
-6.1903

> <Gold.PLP.part.metal>
0.0000

> <Gold.PLP.part.buried>
-2.8520

> <Gold.PLP.part.nonpolar>
-39.1688

> <Gold.PLP.part.repulsive>
0.0083

> <Gold.PLP.ligand.clash>
0.0000

> <Gold.PLP.ligand.torsion>
1.7073

> <Gold.PLP.Chemscore.Hbond>
4.6454

> <Gold.PLP.Chemscore.CHOScore>
0.0000

> <Gold.PLP.Chemscore.Metal>
0.0000

> <Gold.Chemscore.Hbonds>
donor molecule, donor type, donor heavy atom, donor atom, acceptor molecule, acceptor atom, score
      L1  H    17    40       P1  8028  1.00
      L1  H    18    46       P1  8028  2.00
      P1  H  6931  6943       L1     3  0.91
      P1  H  6934  6947       L1     3  0.51
      P1  H  8011  8017       L1    17  0.19

> <Gold.PLP.Chemscore.Internal.Correction>
0.1543

> <Gold.Rescore>
     Score         DG    S(hbond)    S(metal)    S(lipo)     H(rot)  DE(clash)    DE(int)     intcor
     20.08     -21.87       3.60        0.00     110.38       3.34       0.08       1.71       ----

> <Gold.Chemscore.Fitness>
20.0828

> <Gold.Chemscore.DG>
-21.8722

> <Gold.Chemscore.ZeroCoef>
-5.4800

> <Gold.Chemscore.Hbond>
3.6004

> <Gold.Chemscore.Metal>
0.0000

> <Gold.Chemscore.Lipo>
110.3763

> <Gold.Chemscore.Internal_Hbond>
0.0000

> <Gold.Chemscore.DEClash>
0.0824

> <Gold.Chemscore.DEInternal>
1.7071

> <Gold.Chemscore.Rot>
3.3387

> <Gold.Chemscore.Internal.Correction>
   9.000000E+99

> <Gold.Chemscore.Hbonds>
donor molecule, donor type, donor heavy atom, donor atom, acceptor molecule, acceptor atom, score
      L1  H    17    40       P1  8028  0.97
      L1  H    18    46       P1  8028  0.95
      P1  H  6931  6943       L1     3  0.88
      P1  H  6934  6947       L1     3  0.50
      P1  H  8011  8017       L1    17  0.10

> <Gold.Chemscore.Hbond.Weighted>
-12.0253

> <Gold.Chemscore.Metal.Weighted>
-0.0000

> <Gold.Chemscore.Lipo.Weighted>
-12.9140

> <Gold.Chemscore.Internal_Hbond.Weighted>
0.0000

> <Gold.Chemscore.DEClash.Weighted>
0.0824

> <Gold.Chemscore.DEInternal.Weighted>
1.7071

> <Gold.Chemscore.Rot.Weighted>
8.5471

> <Gold.Chemscore.Internal.Correction.Weighted>
   9.000000E+99

> <Gold.Protein.RotatedTorsions>
[ 6907 6896 6895 6894 ] final   90.32 input  -60.11 | X-H torsion
[ 7974 7965 7964 7962 ] final   44.93 input  175.53 | X-H torsion
[ 8008 7997 7996 7995 ] final -108.64 input   59.86 | X-H torsion
[ 10167 10162 10161 10158 ] final   67.20 input  -65.29 | X-H torsion
[ 10718 10713 10712 10709 ] final  144.09 input   66.30 | X-H torsion
[ 10763 10752 10751 10750 ] final  -87.10 input  -60.55 | X-H torsion
[ 11005 11000 10999 10996 ] final  -63.18 input  -57.11 | X-H torsion

> <Gold.Protein.ActiveResidues>
 VAL166  LYS551  ARG553  GLY616  TRP617  ASP618  TYR619  PRO620  LYS621  CYS622 
 ASP623  PHE694  ASN695  SER759  ASP760  ASP761  ALA762  ILE779  LEU786  VAL792 
 PHE793  MET794  SER795  GLU796  ALA797  LYS798  CYS799  TRP800  GLU811  SER814 

> <Gold.Protein.RotatedAtoms>
  152.5443  134.1830  159.8642 H   0  0  0  0  0  0  0  0  0  0  0  0  # atno 6907 bound_to 6896
  151.1831  133.4706  159.2601 H   0  0  0  0  0  0  0  0  0  0  0  0  # atno 6908 bound_to 6896
  151.1158  135.0064  159.8571 H   0  0  0  0  0  0  0  0  0  0  0  0  # atno 6909 bound_to 6896
  146.0525  139.5020  142.9709 H   0  0  0  0  0  0  0  0  0  0  0  0  # atno 7974 bound_to 7965
  154.9473  140.0401  157.2127 H   0  0  0  0  0  0  0  0  0  0  0  0  # atno 8008 bound_to 7997
  154.8012  140.2852  155.5898 H   0  0  0  0  0  0  0  0  0  0  0  0  # atno 8009 bound_to 7997
  156.2961  140.2555  156.2880 H   0  0  0  0  0  0  0  0  0  0  0  0  # atno 8010 bound_to 7997
  140.0921  144.4979  150.7092 H   0  0  0  0  0  0  0  0  0  0  0  0  # atno 10167 bound_to 10162
  157.3613  131.0965  151.0912 H   0  0  0  0  0  0  0  0  0  0  0  0  # atno 10718 bound_to 10713
  154.6299  135.5425  153.7669 H   0  0  0  0  0  0  0  0  0  0  0  0  # atno 10763 bound_to 10752
  153.0279  135.6433  154.1316 H   0  0  0  0  0  0  0  0  0  0  0  0  # atno 10764 bound_to 10752
  154.1247  135.2918  155.3180 H   0  0  0  0  0  0  0  0  0  0  0  0  # atno 10765 bound_to 10752
  141.1385  133.6649  156.5641 H   0  0  0  0  0  0  0  0  0  0  0  0  # atno 11005 bound_to 11000
  145.6700  141.0219  143.1663 LP  0  0  0  0  0  0  0  0  0  0  0  0  # atno 17320 bound_to 7965
  144.7130  139.8299  143.7408 LP  0  0  0  0  0  0  0  0  0  0  0  0  # atno 17321 bound_to 7965
  140.7023  143.2443  151.4829 LP  0  0  0  0  0  0  0  0  0  0  0  0  # atno 17342 bound_to 10162
  139.5719  144.1909  152.1848 LP  0  0  0  0  0  0  0  0  0  0  0  0  # atno 17343 bound_to 10162
  157.2051  130.6412  149.5753 LP  0  0  0  0  0  0  0  0  0  0  0  0  # atno 17370 bound_to 10713
  155.9738  130.4678  150.6338 LP  0  0  0  0  0  0  0  0  0  0  0  0  # atno 17371 bound_to 10713
  140.3965  134.7395  157.4753 LP  0  0  0  0  0  0  0  0  0  0  0  0  # atno 17394 bound_to 11000
  140.0528  134.6107  155.8841 LP  0  0  0  0  0  0  0  0  0  0  0  0  # atno 17395 bound_to 11000

$$$$
