AV-unprocessed.smi:3165|AV-procd|sdf|12085|dock8
  -GOLD-   2272017513D 1   1.00000     0.00000
 Structure written by MMmdl.
 38 39  0  0  0  0  0  0  0  0  2 V2000
  151.5948  138.5417  156.1636 C   0  0  0  0  0  0  0  0  0  0  0  0
  150.6389  139.7143  155.8880 C   0  0  2  0  0  0  0  0  0  0  0  0
  150.0599  139.6766  154.4545 C   0  0  0  0  0  0  0  0  0  0  0  0
  148.7607  140.3161  154.3526 N   0  0  0  0  0  0  0  0  0  0  0  0
  148.4309  141.6370  154.5745 C   0  0  0  0  0  0  0  0  0  0  0  0
  147.0870  141.7599  154.3655 C   0  0  0  0  0  0  0  0  0  0  0  0
  146.6759  140.4420  154.0211 C   0  0  0  0  0  0  0  0  0  0  0  0
  147.6795  139.5797  154.0171 N   0  0  0  0  0  0  0  0  0  0  0  0
  151.3421  140.9908  156.1466 N   0  3  0  0  0  0  0  0  0  0  0  0
  150.5728  141.9901  156.9182 C   0  0  0  0  0  0  0  0  0  0  0  0
  151.5076  142.9728  157.6374 C   0  0  2  0  0  0  0  0  0  0  0  0
  152.3497  142.2705  158.7206 C   0  0  0  0  0  0  0  0  0  0  0  0
  153.1995  143.2882  159.4896 C   0  0  0  0  0  0  0  0  0  0  0  0
  152.3025  144.4090  160.0241 C   0  0  0  0  0  0  0  0  0  0  0  0
  151.4584  145.0044  158.8864 C   0  0  0  0  0  0  0  0  0  0  0  0
  150.7019  143.9763  158.2529 O   0  0  0  0  0  0  0  0  0  0  0  0
  151.0880  137.5805  156.0746 H   0  0  0  0  0  0  0  0  0  0  0  0
  152.0022  138.5969  157.1738 H   0  0  0  0  0  0  0  0  0  0  0  0
  152.4329  138.5411  155.4662 H   0  0  0  0  0  0  0  0  0  0  0  0
  149.8188  139.6365  156.6036 H   0  0  0  0  0  0  0  0  0  0  0  0
  150.7267  140.1724  153.7488 H   0  0  0  0  0  0  0  0  0  0  0  0
  149.9625  138.6444  154.1154 H   0  0  0  0  0  0  0  0  0  0  0  0
  149.1701  142.3718  154.8577 H   0  0  0  0  0  0  0  0  0  0  0  0
  146.4873  142.6542  154.4482 H   0  0  0  0  0  0  0  0  0  0  0  0
  145.6848  140.0883  153.7773 H   0  0  0  0  0  0  0  0  0  0  0  0
  152.1734  140.7784  156.6795 H   0  0  0  0  0  0  0  0  0  0  0  0
  149.8938  142.5368  156.2640 H   0  0  0  0  0  0  0  0  0  0  0  0
  149.9595  141.4661  157.6525 H   0  0  0  0  0  0  0  0  0  0  0  0
  152.1729  143.4361  156.9060 H   0  0  0  0  0  0  0  0  0  0  0  0
  151.6926  141.7463  159.4160 H   0  0  0  0  0  0  0  0  0  0  0  0
  152.9934  141.5147  158.2695 H   0  0  0  0  0  0  0  0  0  0  0  0
  153.7293  142.8008  160.3086 H   0  0  0  0  0  0  0  0  0  0  0  0
  153.9589  143.7081  158.8287 H   0  0  0  0  0  0  0  0  0  0  0  0
  151.6431  144.0142  160.7981 H   0  0  0  0  0  0  0  0  0  0  0  0
  152.9069  145.1854  160.4939 H   0  0  0  0  0  0  0  0  0  0  0  0
  150.7723  145.7532  159.2825 H   0  0  0  0  0  0  0  0  0  0  0  0
  152.0916  145.5086  158.1547 H   0  0  0  0  0  0  0  0  0  0  0  0
  151.6237  141.3963  155.2652 H   0  0  0  0  0  0  0  0  0  0  0  0
  1  2  1  0  0  0  0
  1 17  1  0  0  0  0
  1 18  1  0  0  0  0
  1 19  1  0  0  0  0
  2  3  1  0  0  0  0
  2  9  1  0  0  0  0
  2 20  1  0  0  0  0
  3  4  1  0  0  0  0
  3 21  1  0  0  0  0
  3 22  1  0  0  0  0
  4  8  1  0  0  0  0
  4  5  1  0  0  0  0
  5  6  2  0  0  0  0
  5 23  1  0  0  0  0
  6  7  1  0  0  0  0
  6 24  1  0  0  0  0
  7  8  2  0  0  0  0
  7 25  1  0  0  0  0
  9 10  1  0  0  0  0
  9 26  1  0  0  0  0
  9 38  1  0  0  0  0
 10 11  1  0  0  0  0
 10 27  1  0  0  0  0
 10 28  1  0  0  0  0
 11 16  1  0  0  0  0
 11 12  1  0  0  0  0
 11 29  1  0  0  0  0
 12 13  1  0  0  0  0
 12 30  1  0  0  0  0
 12 31  1  0  0  0  0
 13 14  1  0  0  0  0
 13 32  1  0  0  0  0
 13 33  1  0  0  0  0
 14 15  1  0  0  0  0
 14 34  1  0  0  0  0
 14 35  1  0  0  0  0
 15 16  1  0  0  0  0
 15 36  1  0  0  0  0
 15 37  1  0  0  0  0
M  CHG  1   9   1
M  END
> <s_m_source_file>
AV-unprocessed.smi

> <i_m_source_file_index>
3165

> <i_lp_mmshare_version>
43012

> <i_f3d_flags>
0

> <s_epik_input>
bjFbY0hdW2NIXVtjSF1uMVtDSDJdW0NAQEhdKFtDSDNdKVtOSF1bQ0gyXVtDQEBIXTJbQ0gyXVtDSDJdW0NIMl1bQ0gyXU8y

> <s_epik_cmdline>
J2VwaWtfcHl0aG9uJywgJy1waCcsICc3LjAnLCAnLXRuJywgJzgnLCAnLW1hJywgJzIwMCcsICctbWV0YWxfYmluZGluZycsICctaW1hZScsICc8aW5maWxlLm1hZT4nLCAnLW9tYWUnLCAnPG91dGZpbGUubWFlPic=

> <r_lp_tautomer_probability>
1

> <r_epik_Ionization_Penalty>
0.00849196

> <r_epik_Ionization_Penalty_Charging>
0.00848754

> <r_epik_Ionization_Penalty_Neutral>
4.42049e-06

> <r_epik_State_Penalty>
0.00639836

> <r_epik_Charging_Adjusted_Penalty>
0.0148859

> <i_epik_Tot_Q>
1

> <i_epik_Tot_abs_Q>
1

> <r_epik_Metal_State_Penalty>
0.00639878

> <b_epik_Metal_Only>
0

> <s_lp_Force_Field>
OPLS_2005

> <r_lp_Energy>
12.7964

> <b_lp_Chiralities_Consistent>
1

> <s_lp_Variant>
AV-unprocessed.smi:3165-1

> <Gold.Version>
5.8.1

> <Gold.Id.Protein>
6NUR|6NUR_protein|mol2

> <Gold.PLP.Fitness>
39.0289

> <Gold.PLP.PLP>
-35.3503

> <Gold.PLP.part.hbond>
0.0000

> <Gold.PLP.part.metal>
0.0000

> <Gold.PLP.part.buried>
-1.7642

> <Gold.PLP.part.nonpolar>
-33.6086

> <Gold.PLP.part.repulsive>
0.4899

> <Gold.PLP.ligand.clash>
0.0000

> <Gold.PLP.ligand.torsion>
1.0607

> <Gold.PLP.Chemscore.Hbond>
0.0000

> <Gold.PLP.Chemscore.CHOScore>
1.9252

> <Gold.PLP.Chemscore.Metal>
0.0000

> <Gold.Chemscore.Hbonds>
donor molecule, donor type, donor heavy atom, donor atom, acceptor molecule, acceptor atom, score
      L1  C     5    23       P1  8028  1.00
      L1  C     7    25       P1 10175  1.00

> <Gold.PLP.Chemscore.Internal.Correction>
0.0244

> <Gold.Rescore>
     Score         DG    S(hbond)    S(metal)    S(lipo)     H(rot)  DE(clash)    DE(int)     intcor
     12.56     -13.64       0.00        0.00     105.69       1.64       0.08       1.00       ----

> <Gold.Chemscore.Fitness>
12.5554

> <Gold.Chemscore.DG>
-13.6355

> <Gold.Chemscore.ZeroCoef>
-5.4800

> <Gold.Chemscore.Hbond>
0.0000

> <Gold.Chemscore.Metal>
0.0000

> <Gold.Chemscore.Lipo>
105.6858

> <Gold.Chemscore.Internal_Hbond>
0.0000

> <Gold.Chemscore.DEClash>
0.0799

> <Gold.Chemscore.DEInternal>
1.0002

> <Gold.Chemscore.Rot>
1.6444

> <Gold.Chemscore.Internal.Correction>
   9.000000E+99

> <Gold.Chemscore.Hbond.Weighted>
-0.0000

> <Gold.Chemscore.Metal.Weighted>
-0.0000

> <Gold.Chemscore.Lipo.Weighted>
-12.3652

> <Gold.Chemscore.Internal_Hbond.Weighted>
0.0000

> <Gold.Chemscore.DEClash.Weighted>
0.0799

> <Gold.Chemscore.DEInternal.Weighted>
1.0002

> <Gold.Chemscore.Rot.Weighted>
4.2097

> <Gold.Chemscore.Internal.Correction.Weighted>
   9.000000E+99

> <Gold.Protein.RotatedTorsions>
[ 6907 6896 6895 6894 ] final -121.46 input  -60.11 | X-H torsion
[ 7974 7965 7964 7962 ] final -104.63 input  175.53 | X-H torsion
[ 8008 7997 7996 7995 ] final -129.54 input   59.86 | X-H torsion
[ 10167 10162 10161 10158 ] final -115.57 input  -65.29 | X-H torsion
[ 10718 10713 10712 10709 ] final -100.77 input   66.30 | X-H torsion
[ 10763 10752 10751 10750 ] final  -75.48 input  -60.55 | X-H torsion
[ 11005 11000 10999 10996 ] final  -11.23 input  -57.11 | X-H torsion

> <Gold.Protein.ActiveResidues>
 VAL166  LYS551  ARG553  GLY616  TRP617  ASP618  TYR619  PRO620  LYS621  CYS622 
 ASP623  PHE694  ASN695  SER759  ASP760  ASP761  ALA762  ILE779  LEU786  VAL792 
 PHE793  MET794  SER795  GLU796  ALA797  LYS798  CYS799  TRP800  GLU811  SER814 

> <Gold.Protein.RotatedAtoms>
  150.8486  133.7823  159.3033 H   0  0  0  0  0  0  0  0  0  0  0  0  # atno 6907 bound_to 6896
  151.5502  135.1066  159.9957 H   0  0  0  0  0  0  0  0  0  0  0  0  # atno 6908 bound_to 6896
  152.4534  133.7631  159.6813 H   0  0  0  0  0  0  0  0  0  0  0  0  # atno 6909 bound_to 6896
  145.2406  140.9204  143.3152 H   0  0  0  0  0  0  0  0  0  0  0  0  # atno 7974 bound_to 7965
  155.2809  140.0444  157.3015 H   0  0  0  0  0  0  0  0  0  0  0  0  # atno 8008 bound_to 7997
  154.5598  140.2342  155.8322 H   0  0  0  0  0  0  0  0  0  0  0  0  # atno 8009 bound_to 7997
  156.2037  140.3018  155.9589 H   0  0  0  0  0  0  0  0  0  0  0  0  # atno 8010 bound_to 7997
  140.0886  143.4720  152.1883 H   0  0  0  0  0  0  0  0  0  0  0  0  # atno 10167 bound_to 10162
  156.0173  130.5343  150.6865 H   0  0  0  0  0  0  0  0  0  0  0  0  # atno 10718 bound_to 10713
  154.4871  135.5830  153.6431 H   0  0  0  0  0  0  0  0  0  0  0  0  # atno 10763 bound_to 10752
  152.9856  135.6103  154.3173 H   0  0  0  0  0  0  0  0  0  0  0  0  # atno 10764 bound_to 10752
  154.3069  135.2845  155.2564 H   0  0  0  0  0  0  0  0  0  0  0  0  # atno 10765 bound_to 10752
  140.7530  133.8576  155.9061 H   0  0  0  0  0  0  0  0  0  0  0  0  # atno 11005 bound_to 11000
  144.9592  139.3998  143.6364 LP  0  0  0  0  0  0  0  0  0  0  0  0  # atno 17320 bound_to 7965
  146.3329  139.8637  142.8852 LP  0  0  0  0  0  0  0  0  0  0  0  0  # atno 17321 bound_to 7965
  139.5737  144.7476  151.3821 LP  0  0  0  0  0  0  0  0  0  0  0  0  # atno 17342 bound_to 10162
  140.7040  143.7560  150.7451 LP  0  0  0  0  0  0  0  0  0  0  0  0  # atno 17343 bound_to 10162
  157.4556  131.0877  151.0800 LP  0  0  0  0  0  0  0  0  0  0  0  0  # atno 17370 bound_to 10713
  157.1303  130.6099  149.5528 LP  0  0  0  0  0  0  0  0  0  0  0  0  # atno 17371 bound_to 10713
  140.9733  134.1502  157.4558 LP  0  0  0  0  0  0  0  0  0  0  0  0  # atno 17394 bound_to 11000
  139.8784  134.9986  156.5908 LP  0  0  0  0  0  0  0  0  0  0  0  0  # atno 17395 bound_to 11000

$$$$
