AV-unprocessed.smi:52|AV-procd|sdf|509|dock2
  -GOLD-   2262016383D 1   1.00000     0.00000
 Structure written by MMmdl.
 27 28  0  0  0  0  0  0  0  0  3 V2000
  151.1001  135.3733  155.7589 O   0  0  0  0  0  0  0  0  0  0  0  0
  150.1525  134.8662  156.3989 C   0  0  0  0  0  0  0  0  0  0  0  0
  150.1024  134.9043  157.6480 O   0  5  0  0  0  0  0  0  0  0  0  0
  149.0564  134.1959  155.6534 C   0  0  0  0  0  0  0  0  0  0  0  0
  147.9512  133.5846  156.1893 C   0  0  0  0  0  0  0  0  0  0  0  0
  147.1721  133.0946  155.1762 O   0  0  0  0  0  0  0  0  0  0  0  0
  147.8467  133.4310  154.0436 C   0  0  0  0  0  0  0  0  0  0  0  0
  147.2644  133.0673  152.7179 C   0  0  0  0  0  0  0  0  0  0  0  0
  146.8614  134.3663  152.1292 N   0  3  2  0  0  0  0  0  0  0  0  0
  145.9616  135.1611  152.9901 C   0  0  0  0  0  0  0  0  0  0  0  0
  145.2220  136.0925  152.0356 C   0  0  0  0  0  0  0  0  0  0  0  0
  145.0052  135.2037  150.8146 C   0  0  1  0  0  0  0  0  0  0  0  0
  144.8569  135.9633  149.6337 O   0  0  0  0  0  0  0  0  0  0  0  0
  146.2448  134.2975  150.7792 C   0  0  0  0  0  0  0  0  0  0  0  0
  148.9805  134.0889  154.2704 N   0  0  0  0  0  0  0  0  0  0  0  0
  144.1131  134.5943  150.9657 H   0  0  0  0  0  0  0  0  0  0  0  0
  147.5985  133.4281  157.1983 H   0  0  0  0  0  0  0  0  0  0  0  0
  147.9928  132.5428  152.0979 H   0  0  0  0  0  0  0  0  0  0  0  0
  146.3989  132.4212  152.8698 H   0  0  0  0  0  0  0  0  0  0  0  0
  145.2466  134.5010  153.4844 H   0  0  0  0  0  0  0  0  0  0  0  0
  146.5140  135.6999  153.7604 H   0  0  0  0  0  0  0  0  0  0  0  0
  144.2913  136.4797  152.4519 H   0  0  0  0  0  0  0  0  0  0  0  0
  145.8603  136.9415  151.7839 H   0  0  0  0  0  0  0  0  0  0  0  0
  145.2082  135.4689  148.9084 H   0  0  0  0  0  0  0  0  0  0  0  0
  146.9807  134.6489  150.0545 H   0  0  0  0  0  0  0  0  0  0  0  0
  145.9666  133.2806  150.4972 H   0  0  0  0  0  0  0  0  0  0  0  0
  147.7032  134.9148  152.0243 H   0  0  0  0  0  0  0  0  0  0  0  0
  1  2  2  0  0  0  0
  2  3  1  0  0  0  0
  2  4  1  0  0  0  0
  4 15  1  0  0  0  0
  4  5  2  0  0  0  0
  5  6  1  0  0  0  0
  5 17  1  0  0  0  0
  6  7  1  0  0  0  0
  7  8  1  0  0  0  0
  7 15  2  0  0  0  0
  8  9  1  0  0  0  0
  8 18  1  0  0  0  0
  8 19  1  0  0  0  0
  9 14  1  0  0  0  0
  9 10  1  0  0  0  0
  9 27  1  0  0  0  0
 10 11  1  0  0  0  0
 10 20  1  0  0  0  0
 10 21  1  0  0  0  0
 11 12  1  0  0  0  0
 11 22  1  0  0  0  0
 11 23  1  0  0  0  0
 12 16  1  0  0  0  0
 12 13  1  0  0  0  0
 12 14  1  0  0  0  0
 13 24  1  0  0  0  0
 14 25  1  0  0  0  0
 14 26  1  0  0  0  0
M  CHG  1   3  -1
M  CHG  1   9   1
M  END
> <s_m_source_file>
AV-unprocessed.smi

> <i_m_source_file_index>
52

> <i_lp_mmshare_version>
43012

> <i_f3d_flags>
0

> <s_epik_input>
Tz1DKFtPSF0pYzFbY0hdb2MobjEpW0NIMl1OMltDSDJdW0NIMl1bQ0BIXShbT0hdKVtDSDJdMg==

> <s_epik_cmdline>
J2VwaWtfcHl0aG9uJywgJy1waCcsICc3LjAnLCAnLXRuJywgJzgnLCAnLW1hJywgJzIwMCcsICctbWV0YWxfYmluZGluZycsICctaW1hZScsICc8aW5maWxlLm1hZT4nLCAnLW9tYWUnLCAnPG91dGZpbGUubWFlPic=

> <r_epik_Ionization_Penalty>
0.0376014

> <r_epik_Ionization_Penalty_Charging>
0.0376013

> <r_epik_Ionization_Penalty_Neutral>
1.78687e-08

> <r_epik_State_Penalty>
0.0314164

> <r_epik_Charging_Adjusted_Penalty>
0.0690177

> <i_epik_Tot_Q>
0

> <i_epik_Tot_abs_Q>
2

> <r_epik_Metal_State_Penalty>
0.0314164

> <b_epik_Metal_Only>
0

> <s_lp_Force_Field>
OPLS_2005

> <r_lp_Energy>
21.0877

> <b_lp_Chiralities_Consistent>
1

> <s_lp_Variant>
AV-unprocessed.smi:52-3

> <Gold.Version>
5.8.1

> <Gold.Id.Protein>
6NUR|6NUR_protein|mol2

> <Gold.PLP.Fitness>
39.3781

> <Gold.PLP.PLP>
-20.6026

> <Gold.PLP.part.hbond>
-5.0000

> <Gold.PLP.part.metal>
0.0000

> <Gold.PLP.part.buried>
-4.1130

> <Gold.PLP.part.nonpolar>
-11.9507

> <Gold.PLP.part.repulsive>
0.3188

> <Gold.PLP.ligand.clash>
0.0000

> <Gold.PLP.ligand.torsion>
0.0859

> <Gold.PLP.Chemscore.Hbond>
6.3120

> <Gold.PLP.Chemscore.CHOScore>
0.0000

> <Gold.PLP.Chemscore.Metal>
0.0000

> <Gold.Chemscore.Hbonds>
donor molecule, donor type, donor heavy atom, donor atom, acceptor molecule, acceptor atom, score
      L1  H     9    27       P1  7948  2.00
      L1  H    13    24       P1  7921  1.00
      P1  H  6896  6909       L1     3  1.54
      P1  H 10752 10763       L1     1  1.59

> <Gold.PLP.Chemscore.Internal.Correction>
0.0113

> <Gold.Rescore>
     Score         DG    S(hbond)    S(metal)    S(lipo)     H(rot)  DE(clash)    DE(int)     intcor
     15.58     -15.73       3.52        0.00      30.60       1.99       0.03       0.11       ----

> <Gold.Chemscore.Fitness>
15.5837

> <Gold.Chemscore.DG>
-15.7261

> <Gold.Chemscore.ZeroCoef>
-5.4800

> <Gold.Chemscore.Hbond>
3.5225

> <Gold.Chemscore.Metal>
0.0000

> <Gold.Chemscore.Lipo>
30.5988

> <Gold.Chemscore.Internal_Hbond>
0.0000

> <Gold.Chemscore.DEClash>
0.0323

> <Gold.Chemscore.DEInternal>
0.1101

> <Gold.Chemscore.Rot>
1.9919

> <Gold.Chemscore.Internal.Correction>
   9.000000E+99

> <Gold.Chemscore.Hbonds>
donor molecule, donor type, donor heavy atom, donor atom, acceptor molecule, acceptor atom, score
      L1  H     9    27       P1  7948  0.74
      L1  H    13    24       P1  7921  1.00
      P1  H  6896  6909       L1     3  0.75
      P1  H 10752 10763       L1     1  0.78

> <Gold.Chemscore.Hbond.Weighted>
-11.7652

> <Gold.Chemscore.Metal.Weighted>
-0.0000

> <Gold.Chemscore.Lipo.Weighted>
-3.5801

> <Gold.Chemscore.Internal_Hbond.Weighted>
0.0000

> <Gold.Chemscore.DEClash.Weighted>
0.0323

> <Gold.Chemscore.DEInternal.Weighted>
0.1101

> <Gold.Chemscore.Rot.Weighted>
5.0991

> <Gold.Chemscore.Internal.Correction.Weighted>
   9.000000E+99

> <Gold.Protein.RotatedTorsions>
[ 6907 6896 6895 6894 ] final   23.59 input  -60.11 | X-H torsion
[ 7974 7965 7964 7962 ] final -103.37 input  175.53 | X-H torsion
[ 8008 7997 7996 7995 ] final  -28.46 input   59.86 | X-H torsion
[ 10167 10162 10161 10158 ] final -177.07 input  -65.29 | X-H torsion
[ 10718 10713 10712 10709 ] final -144.07 input   66.30 | X-H torsion
[ 10763 10752 10751 10750 ] final   76.97 input  -60.55 | X-H torsion
[ 11005 11000 10999 10996 ] final  174.15 input  -57.11 | X-H torsion

> <Gold.Protein.ActiveResidues>
 VAL166  LYS551  ARG553  GLY616  TRP617  ASP618  TYR619  PRO620  LYS621  CYS622 
 ASP623  PHE694  ASN695  SER759  ASP760  ASP761  ALA762  ILE779  LEU786  VAL792 
 PHE793  MET794  SER795  GLU796  ALA797  LYS798  CYS799  TRP800  GLU811  SER814 

> <Gold.Protein.RotatedAtoms>
  151.9447  135.0197  160.0537 H   0  0  0  0  0  0  0  0  0  0  0  0  # atno 6907 bound_to 6896
  152.2005  133.4833  159.5064 H   0  0  0  0  0  0  0  0  0  0  0  0  # atno 6908 bound_to 6896
  150.6953  134.1513  159.4184 H   0  0  0  0  0  0  0  0  0  0  0  0  # atno 6909 bound_to 6896
  145.2567  140.9256  143.3064 H   0  0  0  0  0  0  0  0  0  0  0  0  # atno 7974 bound_to 7965
  154.4331  140.1844  156.1093 H   0  0  0  0  0  0  0  0  0  0  0  0  # atno 8008 bound_to 7997
  156.0230  140.3339  155.7033 H   0  0  0  0  0  0  0  0  0  0  0  0  # atno 8009 bound_to 7997
  155.5949  140.0634  157.2739 H   0  0  0  0  0  0  0  0  0  0  0  0  # atno 8010 bound_to 7997
  139.5498  144.2139  152.1056 H   0  0  0  0  0  0  0  0  0  0  0  0  # atno 10167 bound_to 10162
  156.3656  130.7761  151.1935 H   0  0  0  0  0  0  0  0  0  0  0  0  # atno 10718 bound_to 10713
  153.0764  135.4931  154.8414 H   0  0  0  0  0  0  0  0  0  0  0  0  # atno 10763 bound_to 10752
  154.7093  135.3017  154.9224 H   0  0  0  0  0  0  0  0  0  0  0  0  # atno 10764 bound_to 10752
  153.9922  135.6776  153.4807 H   0  0  0  0  0  0  0  0  0  0  0  0  # atno 10765 bound_to 10752
  140.3482  134.7218  157.4250 H   0  0  0  0  0  0  0  0  0  0  0  0  # atno 11005 bound_to 11000
  144.9454  139.4142  143.6428 LP  0  0  0  0  0  0  0  0  0  0  0  0  # atno 17320 bound_to 7965
  146.3287  139.8435  142.8886 LP  0  0  0  0  0  0  0  0  0  0  0  0  # atno 17321 bound_to 7965
  140.1633  144.5005  150.6620 LP  0  0  0  0  0  0  0  0  0  0  0  0  # atno 17342 bound_to 10162
  140.6757  143.2304  151.5513 LP  0  0  0  0  0  0  0  0  0  0  0  0  # atno 17343 bound_to 10162
  157.7478  131.0387  150.4516 LP  0  0  0  0  0  0  0  0  0  0  0  0  # atno 17370 bound_to 10713
  156.4734  130.4058  149.6504 LP  0  0  0  0  0  0  0  0  0  0  0  0  # atno 17371 bound_to 10713
  140.0725  134.5843  155.8627 LP  0  0  0  0  0  0  0  0  0  0  0  0  # atno 17394 bound_to 11000
  141.2019  133.6622  156.5979 LP  0  0  0  0  0  0  0  0  0  0  0  0  # atno 17395 bound_to 11000

$$$$
