AV-unprocessed.smi:2438|AV-procd|sdf|9600|dock1
  -GOLD-   2272013233D 1   1.00000     0.00000
 Structure written by MMmdl.
 44 45  0  0  0  0  0  0  0  0  2 V2000
  151.7828  138.1202  155.2784 C   0  0  0  0  0  0  0  0  0  0  0  0
  151.7611  138.9276  156.4904 N   0  0  0  0  0  0  0  0  0  0  0  0
  151.4077  138.2308  157.7212 C   0  0  0  0  0  0  0  0  0  0  0  0
  151.1944  140.2046  156.3054 C   0  0  0  0  0  0  0  0  0  0  0  0
  150.3673  140.3850  155.2500 N   0  0  0  0  0  0  0  0  0  0  0  0
  149.8222  141.5852  155.0298 C   0  0  0  0  0  0  0  0  0  0  0  0
  150.0531  142.6433  155.8172 N   0  3  0  0  0  0  0  0  0  0  0  0
  150.8711  142.5159  156.8890 C   0  0  0  0  0  0  0  0  0  0  0  0
  151.4901  141.2767  157.1823 C   0  0  0  0  0  0  0  0  0  0  0  0
  152.3313  141.0553  158.3119 N   0  0  0  0  0  0  0  0  0  0  0  0
  153.2574  141.8650  158.8523 C   0  0  0  0  0  0  0  0  0  0  0  0
  153.5534  142.9839  158.4351 O   0  0  0  0  0  0  0  0  0  0  0  0
  153.8366  141.2887  159.9152 N   0  0  0  0  0  0  0  0  0  0  0  0
  154.8781  141.8813  160.7507 C   0  0  1  0  0  0  0  0  0  0  0  0
  154.2812  143.0223  161.5940 C   0  0  0  0  0  0  0  0  0  0  0  0
  155.3288  143.6165  162.5470 C   0  0  0  0  0  0  0  0  0  0  0  0
  155.9475  142.5315  163.4423 C   0  0  0  0  0  0  0  0  0  0  0  0
  156.5619  141.3866  162.6090 C   0  0  1  0  0  0  0  0  0  0  0  0
  157.2014  140.3019  163.5001 C   0  0  0  0  0  0  0  0  0  0  0  0
  156.2682  139.6330  164.1779 F   0  0  0  0  0  0  0  0  0  0  0  0
  157.8891  139.4410  162.7497 F   0  0  0  0  0  0  0  0  0  0  0  0
  158.0447  140.8621  164.3673 F   0  0  0  0  0  0  0  0  0  0  0  0
  155.5018  140.7990  161.6522 C   0  0  0  0  0  0  0  0  0  0  0  0
  152.2079  138.6646  154.4350 H   0  0  0  0  0  0  0  0  0  0  0  0
  150.7724  137.8105  155.0094 H   0  0  0  0  0  0  0  0  0  0  0  0
  152.3833  137.2231  155.4316 H   0  0  0  0  0  0  0  0  0  0  0  0
  151.4801  138.8980  158.5812 H   0  0  0  0  0  0  0  0  0  0  0  0
  152.0871  137.3949  157.8893 H   0  0  0  0  0  0  0  0  0  0  0  0
  150.3915  137.8375  157.6702 H   0  0  0  0  0  0  0  0  0  0  0  0
  149.1595  141.7375  154.1906 H   0  0  0  0  0  0  0  0  0  0  0  0
  150.9758  143.4179  157.4711 H   0  0  0  0  0  0  0  0  0  0  0  0
  152.2385  140.1452  158.7401 H   0  0  0  0  0  0  0  0  0  0  0  0
  153.5273  140.3635  160.1755 H   0  0  0  0  0  0  0  0  0  0  0  0
  155.6720  142.2988  160.1286 H   0  0  0  0  0  0  0  0  0  0  0  0
  153.8908  143.8053  160.9428 H   0  0  0  0  0  0  0  0  0  0  0  0
  153.4347  142.6517  162.1741 H   0  0  0  0  0  0  0  0  0  0  0  0
  156.1137  144.1056  161.9688 H   0  0  0  0  0  0  0  0  0  0  0  0
  154.8719  144.3908  163.1641 H   0  0  0  0  0  0  0  0  0  0  0  0
  156.7083  142.9818  164.0802 H   0  0  0  0  0  0  0  0  0  0  0  0
  155.1826  142.1336  164.1104 H   0  0  0  0  0  0  0  0  0  0  0  0
  157.3580  141.8138  161.9971 H   0  0  0  0  0  0  0  0  0  0  0  0
  154.7189  140.3081  162.2324 H   0  0  0  0  0  0  0  0  0  0  0  0
  155.9535  140.0257  161.0298 H   0  0  0  0  0  0  0  0  0  0  0  0
  149.6144  143.5438  155.6224 H   0  0  0  0  0  0  0  0  0  0  0  0
  1  2  1  0  0  0  0
  1 24  1  0  0  0  0
  1 25  1  0  0  0  0
  1 26  1  0  0  0  0
  2  3  1  0  0  0  0
  2  4  1  0  0  0  0
  3 27  1  0  0  0  0
  3 28  1  0  0  0  0
  3 29  1  0  0  0  0
  4  9  1  0  0  0  0
  4  5  2  0  0  0  0
  5  6  1  0  0  0  0
  6  7  2  0  0  0  0
  6 30  1  0  0  0  0
  7  8  1  0  0  0  0
  7 44  1  0  0  0  0
  8  9  2  0  0  0  0
  8 31  1  0  0  0  0
  9 10  1  0  0  0  0
 10 11  1  0  0  0  0
 10 32  1  0  0  0  0
 11 12  2  0  0  0  0
 11 13  1  0  0  0  0
 13 14  1  0  0  0  0
 13 33  1  0  0  0  0
 14 23  1  0  0  0  0
 14 15  1  0  0  0  0
 14 34  1  0  0  0  0
 15 16  1  0  0  0  0
 15 35  1  0  0  0  0
 15 36  1  0  0  0  0
 16 17  1  0  0  0  0
 16 37  1  0  0  0  0
 16 38  1  0  0  0  0
 17 18  1  0  0  0  0
 17 39  1  0  0  0  0
 17 40  1  0  0  0  0
 18 19  1  0  0  0  0
 18 23  1  0  0  0  0
 18 41  1  0  0  0  0
 19 20  1  0  0  0  0
 19 21  1  0  0  0  0
 19 22  1  0  0  0  0
 23 42  1  0  0  0  0
 23 43  1  0  0  0  0
M  CHG  1   7   1
M  END
> <s_m_source_file>
AV-unprocessed.smi

> <i_m_source_file_index>
2438

> <i_lp_mmshare_version>
43012

> <i_f3d_flags>
0

> <s_epik_input>
W0NIM11OKFtDSDNdKWMxbltjSF1uW2NIXWMxW05IXUMoPU8pW05IXVtDQEBIXTJbQ0gyXVtDSDJdW0NIMl1bQ0BASF0oQyhGKShGKUYpW0NIMl0y

> <s_epik_cmdline>
J2VwaWtfcHl0aG9uJywgJy1waCcsICc3LjAnLCAnLXRuJywgJzgnLCAnLW1hJywgJzIwMCcsICctbWV0YWxfYmluZGluZycsICctaW1hZScsICc8aW5maWxlLm1hZT4nLCAnLW9tYWUnLCAnPG91dGZpbGUubWFlPic=

> <r_lp_tautomer_probability>
0.999336

> <r_epik_Ionization_Penalty>
2.11643

> <r_epik_Ionization_Penalty_Charging>
2.11639

> <r_epik_Ionization_Penalty_Neutral>
4.47523e-05

> <r_epik_State_Penalty>
2.25369

> <r_epik_Charging_Adjusted_Penalty>
4.37008

> <i_epik_Tot_Q>
1

> <i_epik_Tot_abs_Q>
1

> <r_epik_Metal_State_Penalty>
2.27019

> <b_epik_Metal_Only>
0

> <s_lp_Force_Field>
OPLS_2005

> <r_lp_Energy>
18.5988

> <b_lp_Chiralities_Consistent>
1

> <s_lp_Variant>
AV-unprocessed.smi:2438-6

> <Gold.Version>
5.8.1

> <Gold.Id.Protein>
6NUR|6NUR_protein|mol2

> <Gold.PLP.Fitness>
45.2708

> <Gold.PLP.PLP>
-38.2183

> <Gold.PLP.part.hbond>
-1.8209

> <Gold.PLP.part.metal>
0.0000

> <Gold.PLP.part.buried>
-0.1713

> <Gold.PLP.part.nonpolar>
-35.4720

> <Gold.PLP.part.repulsive>
0.3859

> <Gold.PLP.ligand.clash>
0.0000

> <Gold.PLP.ligand.torsion>
0.8109

> <Gold.PLP.Chemscore.Hbond>
2.7700

> <Gold.PLP.Chemscore.CHOScore>
0.0000

> <Gold.PLP.Chemscore.Metal>
0.0000

> <Gold.Chemscore.Hbonds>
donor molecule, donor type, donor heavy atom, donor atom, acceptor molecule, acceptor atom, score
      L1  H     7    44       P1  8028  1.24
      P1  H  7989  7998       L1     5  0.11

> <Gold.PLP.Chemscore.Internal.Correction>
0.3643

> <Gold.Rescore>
     Score         DG    S(hbond)    S(metal)    S(lipo)     H(rot)  DE(clash)    DE(int)     intcor
     12.85     -16.03       1.00        0.00      90.30       1.31       1.52       1.66       ----

> <Gold.Chemscore.Fitness>
12.8519

> <Gold.Chemscore.DG>
-16.0264

> <Gold.Chemscore.ZeroCoef>
-5.4800

> <Gold.Chemscore.Hbond>
0.9967

> <Gold.Chemscore.Metal>
0.0000

> <Gold.Chemscore.Lipo>
90.3043

> <Gold.Chemscore.Internal_Hbond>
0.0000

> <Gold.Chemscore.DEClash>
1.5194

> <Gold.Chemscore.DEInternal>
1.6551

> <Gold.Chemscore.Rot>
1.3078

> <Gold.Chemscore.Internal.Correction>
   9.000000E+99

> <Gold.Chemscore.Hbonds>
donor molecule, donor type, donor heavy atom, donor atom, acceptor molecule, acceptor atom, score
      L1  H     7    44       P1  8028  0.63

> <Gold.Chemscore.Hbond.Weighted>
-3.3288

> <Gold.Chemscore.Metal.Weighted>
-0.0000

> <Gold.Chemscore.Lipo.Weighted>
-10.5656

> <Gold.Chemscore.Internal_Hbond.Weighted>
0.0000

> <Gold.Chemscore.DEClash.Weighted>
1.5194

> <Gold.Chemscore.DEInternal.Weighted>
1.6551

> <Gold.Chemscore.Rot.Weighted>
3.3481

> <Gold.Chemscore.Internal.Correction.Weighted>
   9.000000E+99

> <Gold.Protein.RotatedTorsions>
[ 6907 6896 6895 6894 ] final -122.66 input  -60.11 | X-H torsion
[ 7974 7965 7964 7962 ] final -125.93 input  175.53 | X-H torsion
[ 8008 7997 7996 7995 ] final  135.36 input   59.86 | X-H torsion
[ 10167 10162 10161 10158 ] final -107.58 input  -65.29 | X-H torsion
[ 10718 10713 10712 10709 ] final   98.93 input   66.30 | X-H torsion
[ 10763 10752 10751 10750 ] final -130.83 input  -60.55 | X-H torsion
[ 11005 11000 10999 10996 ] final   -6.56 input  -57.11 | X-H torsion

> <Gold.Protein.ActiveResidues>
 VAL166  LYS551  ARG553  GLY616  TRP617  ASP618  TYR619  PRO620  LYS621  CYS622 
 ASP623  PHE694  ASN695  SER759  ASP760  ASP761  ALA762  ILE779  LEU786  VAL792 
 PHE793  MET794  SER795  GLU796  ALA797  LYS798  CYS799  TRP800  GLU811  SER814 

> <Gold.Protein.RotatedAtoms>
  150.8597  133.7662  159.2996 H   0  0  0  0  0  0  0  0  0  0  0  0  # atno 6907 bound_to 6896
  151.5308  135.1066  159.9911 H   0  0  0  0  0  0  0  0  0  0  0  0  # atno 6908 bound_to 6896
  152.4617  133.7792  159.6897 H   0  0  0  0  0  0  0  0  0  0  0  0  # atno 6909 bound_to 6896
  144.9925  140.7745  143.4545 H   0  0  0  0  0  0  0  0  0  0  0  0  # atno 7974 bound_to 7965
  156.3002  140.2472  156.3569 H   0  0  0  0  0  0  0  0  0  0  0  0  # atno 8008 bound_to 7997
  154.8913  140.0409  157.1859 H   0  0  0  0  0  0  0  0  0  0  0  0  # atno 8009 bound_to 7997
  154.8594  140.2918  155.5552 H   0  0  0  0  0  0  0  0  0  0  0  0  # atno 8010 bound_to 7997
  140.1754  143.4009  152.1323 H   0  0  0  0  0  0  0  0  0  0  0  0  # atno 10167 bound_to 10162
  157.6886  131.0655  150.4872 H   0  0  0  0  0  0  0  0  0  0  0  0  # atno 10718 bound_to 10713
  154.8754  135.3850  154.4147 H   0  0  0  0  0  0  0  0  0  0  0  0  # atno 10763 bound_to 10752
  153.4857  135.7030  153.5917 H   0  0  0  0  0  0  0  0  0  0  0  0  # atno 10764 bound_to 10752
  153.4313  135.3878  155.2139 H   0  0  0  0  0  0  0  0  0  0  0  0  # atno 10765 bound_to 10752
  140.7033  133.8971  155.8699 H   0  0  0  0  0  0  0  0  0  0  0  0  # atno 11005 bound_to 11000
  145.2266  139.2134  143.5065 LP  0  0  0  0  0  0  0  0  0  0  0  0  # atno 17320 bound_to 7965
  146.3434  140.2134  142.8590 LP  0  0  0  0  0  0  0  0  0  0  0  0  # atno 17321 bound_to 7965
  139.5319  144.7169  151.5025 LP  0  0  0  0  0  0  0  0  0  0  0  0  # atno 17342 bound_to 10162
  140.6555  143.8608  150.6830 LP  0  0  0  0  0  0  0  0  0  0  0  0  # atno 17343 bound_to 10162
  156.5200  130.4159  149.6255 LP  0  0  0  0  0  0  0  0  0  0  0  0  # atno 17370 bound_to 10713
  156.3163  130.7256  151.2159 LP  0  0  0  0  0  0  0  0  0  0  0  0  # atno 17371 bound_to 10713
  141.0145  134.0974  157.4186 LP  0  0  0  0  0  0  0  0  0  0  0  0  # atno 17394 bound_to 11000
  139.8891  135.0102  156.6658 LP  0  0  0  0  0  0  0  0  0  0  0  0  # atno 17395 bound_to 11000

$$$$
