AV-unprocessed.smi:2024|AV-procd|sdf|8191|dock4
  -GOLD-   2272010443D 1   1.00000     0.00000
 Structure written by MMmdl.
 44 45  0  0  0  0  0  0  0  0  2 V2000
  146.5886  141.5995  155.6860 C   0  0  0  0  0  0  0  0  0  0  0  0
  148.0196  141.9549  155.5453 N   0  3  0  0  0  0  0  0  0  0  0  0
  148.6501  141.4342  154.3110 C   0  0  0  0  0  0  0  0  0  0  0  0
  148.9512  139.9262  154.4234 C   0  0  0  0  0  0  0  0  0  0  0  0
  149.8454  139.6621  155.5634 N   0  0  0  0  0  0  0  0  0  0  0  0
  150.3914  138.2782  155.6145 C   0  0  0  0  0  0  0  0  0  0  0  0
  151.0349  137.9188  154.2508 C   0  0  0  0  0  0  0  0  0  0  0  0
  151.4667  138.1254  156.7172 C   0  0  0  0  0  0  0  0  0  0  0  0
  149.2504  137.2522  155.8878 C   0  0  0  0  0  0  0  0  0  0  0  0
  148.5320  136.8499  154.6777 N   0  0  0  0  0  0  0  0  0  0  0  0
  147.2884  136.3499  154.6349 C   0  0  0  0  0  0  0  0  0  0  0  0
  146.5890  136.1781  155.6334 O   0  0  0  0  0  0  0  0  0  0  0  0
  146.9258  136.0595  153.3733 N   0  0  0  0  0  0  0  0  0  0  0  0
  145.6979  135.5123  152.9167 C   0  0  0  0  0  0  0  0  0  0  0  0
  144.8042  134.9016  153.7033 N   0  0  0  0  0  0  0  0  0  0  0  0
  143.6879  134.4633  152.9867 C   0  0  0  0  0  0  0  0  0  0  0  0
  143.7492  134.7498  151.6456 C   0  0  0  0  0  0  0  0  0  0  0  0
  145.2191  135.5888  151.2272 S   0  0  0  0  0  0  0  0  0  0  0  0
  149.1426  140.0960  156.7827 C   0  0  0  0  0  0  0  0  0  0  0  0
  148.8440  141.6078  156.7251 C   0  0  0  0  0  0  0  0  0  0  0  0
  146.4403  140.5230  155.7719 H   0  0  0  0  0  0  0  0  0  0  0  0
  146.0226  141.9517  154.8233 H   0  0  0  0  0  0  0  0  0  0  0  0
  146.1647  142.0712  156.5730 H   0  0  0  0  0  0  0  0  0  0  0  0
  148.0080  141.6327  153.4520 H   0  0  0  0  0  0  0  0  0  0  0  0
  149.5781  141.9800  154.1341 H   0  0  0  0  0  0  0  0  0  0  0  0
  148.0242  139.3608  154.5191 H   0  0  0  0  0  0  0  0  0  0  0  0
  149.4088  139.6215  153.4853 H   0  0  0  0  0  0  0  0  0  0  0  0
  151.2407  136.8498  154.1838 H   0  0  0  0  0  0  0  0  0  0  0  0
  151.9921  138.4161  154.0953 H   0  0  0  0  0  0  0  0  0  0  0  0
  150.3853  138.1755  153.4131 H   0  0  0  0  0  0  0  0  0  0  0  0
  151.8675  137.1110  156.7237 H   0  0  0  0  0  0  0  0  0  0  0  0
  151.0676  138.3083  157.7145 H   0  0  0  0  0  0  0  0  0  0  0  0
  152.3138  138.7943  156.5671 H   0  0  0  0  0  0  0  0  0  0  0  0
  149.6576  136.3747  156.3933 H   0  0  0  0  0  0  0  0  0  0  0  0
  148.5218  137.6458  156.5956 H   0  0  0  0  0  0  0  0  0  0  0  0
  149.0300  136.9496  153.8057 H   0  0  0  0  0  0  0  0  0  0  0  0
  147.6086  136.2478  152.6547 H   0  0  0  0  0  0  0  0  0  0  0  0
  142.8935  133.9546  153.5123 H   0  0  0  0  0  0  0  0  0  0  0  0
  143.0216  134.5192  150.8815 H   0  0  0  0  0  0  0  0  0  0  0  0
  148.2211  139.5306  156.9210 H   0  0  0  0  0  0  0  0  0  0  0  0
  149.7506  139.9284  157.6690 H   0  0  0  0  0  0  0  0  0  0  0  0
  149.7810  142.1641  156.6731 H   0  0  0  0  0  0  0  0  0  0  0  0
  148.3435  141.9340  157.6376 H   0  0  0  0  0  0  0  0  0  0  0  0
  148.0373  142.9620  155.4715 H   0  0  0  0  0  0  0  0  0  0  0  0
  1  2  1  0  0  0  0
  1 21  1  0  0  0  0
  1 22  1  0  0  0  0
  1 23  1  0  0  0  0
  2 20  1  0  0  0  0
  2  3  1  0  0  0  0
  2 44  1  0  0  0  0
  3  4  1  0  0  0  0
  3 24  1  0  0  0  0
  3 25  1  0  0  0  0
  4  5  1  0  0  0  0
  4 26  1  0  0  0  0
  4 27  1  0  0  0  0
  5  6  1  0  0  0  0
  5 19  1  0  0  0  0
  6  7  1  0  0  0  0
  6  8  1  0  0  0  0
  6  9  1  0  0  0  0
  7 28  1  0  0  0  0
  7 29  1  0  0  0  0
  7 30  1  0  0  0  0
  8 31  1  0  0  0  0
  8 32  1  0  0  0  0
  8 33  1  0  0  0  0
  9 10  1  0  0  0  0
  9 34  1  0  0  0  0
  9 35  1  0  0  0  0
 10 11  1  0  0  0  0
 10 36  1  0  0  0  0
 11 12  2  0  0  0  0
 11 13  1  0  0  0  0
 13 14  1  0  0  0  0
 13 37  1  0  0  0  0
 14 18  1  0  0  0  0
 14 15  2  0  0  0  0
 15 16  1  0  0  0  0
 16 17  2  0  0  0  0
 16 38  1  0  0  0  0
 17 18  1  0  0  0  0
 17 39  1  0  0  0  0
 19 20  1  0  0  0  0
 19 40  1  0  0  0  0
 19 41  1  0  0  0  0
 20 42  1  0  0  0  0
 20 43  1  0  0  0  0
M  CHG  1   2   1
M  END
> <s_m_source_file>
AV-unprocessed.smi

> <i_m_source_file_index>
2024

> <i_lp_mmshare_version>
43012

> <i_f3d_flags>
0

> <s_epik_input>
W0NIM11OMVtDSDJdW0NIMl1OKFtDSDJdW0NIMl0xKUMoW0NIM10pKFtDSDNdKVtDSDJdW05IXUMoPU8pW05IXWMybltjSF1bY0hdczI=

> <s_epik_cmdline>
J2VwaWtfcHl0aG9uJywgJy1waCcsICc3LjAnLCAnLXRuJywgJzgnLCAnLW1hJywgJzIwMCcsICctbWV0YWxfYmluZGluZycsICctaW1hZScsICc8aW5maWxlLm1hZT4nLCAnLW9tYWUnLCAnPG91dGZpbGUubWFlPic=

> <r_lp_tautomer_probability>
0.999

> <r_epik_Ionization_Penalty>
0.025257

> <r_epik_Ionization_Penalty_Charging>
0.0242302

> <r_epik_Ionization_Penalty_Neutral>
0.00102675

> <r_epik_State_Penalty>
0.128805

> <r_epik_Charging_Adjusted_Penalty>
0.153036

> <i_epik_Tot_Q>
1

> <i_epik_Tot_abs_Q>
1

> <r_epik_Metal_State_Penalty>
0.161314

> <b_epik_Metal_Only>
0

> <s_lp_Force_Field>
OPLS_2005

> <r_lp_Energy>
25.0383

> <b_lp_Chiralities_Consistent>
1

> <s_lp_Variant>
AV-unprocessed.smi:2024-1

> <Gold.Version>
5.8.1

> <Gold.Id.Protein>
6NUR|6NUR_protein|mol2

> <Gold.PLP.Fitness>
39.4743

> <Gold.PLP.PLP>
-23.4603

> <Gold.PLP.part.hbond>
-2.9375

> <Gold.PLP.part.metal>
0.0000

> <Gold.PLP.part.buried>
-3.7372

> <Gold.PLP.part.nonpolar>
-18.3622

> <Gold.PLP.part.repulsive>
0.2007

> <Gold.PLP.ligand.clash>
0.0000

> <Gold.PLP.ligand.torsion>
0.6836

> <Gold.PLP.Chemscore.Hbond>
3.7930

> <Gold.PLP.Chemscore.CHOScore>
1.9916

> <Gold.PLP.Chemscore.Metal>
0.0000

> <Gold.Chemscore.Hbonds>
donor molecule, donor type, donor heavy atom, donor atom, acceptor molecule, acceptor atom, score
      L1  H     2    44       P1  8028  2.00
      L1  H    10    36       P1  7948  0.74
      L1  H    13    37       P1  7948  1.00
      L1  C    16    38       P1 10957  0.98
      L1  C    17    39       P1 10186  1.00

> <Gold.PLP.Chemscore.Internal.Correction>
0.0273

> <Gold.Rescore>
     Score         DG    S(hbond)    S(metal)    S(lipo)     H(rot)  DE(clash)    DE(int)     intcor
     16.19     -18.38       2.93        0.00      61.44       1.60       0.24       1.95       ----

> <Gold.Chemscore.Fitness>
16.1890

> <Gold.Chemscore.DG>
-18.3779

> <Gold.Chemscore.ZeroCoef>
-5.4800

> <Gold.Chemscore.Hbond>
2.9349

> <Gold.Chemscore.Metal>
0.0000

> <Gold.Chemscore.Lipo>
61.4433

> <Gold.Chemscore.Internal_Hbond>
0.0000

> <Gold.Chemscore.DEClash>
0.2407

> <Gold.Chemscore.DEInternal>
1.9482

> <Gold.Chemscore.Rot>
1.5991

> <Gold.Chemscore.Internal.Correction>
   9.000000E+99

> <Gold.Chemscore.Hbonds>
donor molecule, donor type, donor heavy atom, donor atom, acceptor molecule, acceptor atom, score
      L1  H     2    44       P1  8028  0.83
      L1  H    10    36       P1  7948  0.70
      L1  H    13    37       P1  7948  0.96

> <Gold.Chemscore.Hbond.Weighted>
-9.8027

> <Gold.Chemscore.Metal.Weighted>
-0.0000

> <Gold.Chemscore.Lipo.Weighted>
-7.1889

> <Gold.Chemscore.Internal_Hbond.Weighted>
0.0000

> <Gold.Chemscore.DEClash.Weighted>
0.2407

> <Gold.Chemscore.DEInternal.Weighted>
1.9482

> <Gold.Chemscore.Rot.Weighted>
4.0936

> <Gold.Chemscore.Internal.Correction.Weighted>
   9.000000E+99

> <Gold.Protein.RotatedTorsions>
[ 6907 6896 6895 6894 ] final  120.46 input  -60.11 | X-H torsion
[ 7974 7965 7964 7962 ] final   92.24 input  175.53 | X-H torsion
[ 8008 7997 7996 7995 ] final -126.35 input   59.86 | X-H torsion
[ 10167 10162 10161 10158 ] final -142.76 input  -65.29 | X-H torsion
[ 10718 10713 10712 10709 ] final  136.37 input   66.30 | X-H torsion
[ 10763 10752 10751 10750 ] final  164.02 input  -60.55 | X-H torsion
[ 11005 11000 10999 10996 ] final   68.91 input  -57.11 | X-H torsion

> <Gold.Protein.ActiveResidues>
 VAL166  LYS551  ARG553  GLY616  TRP617  ASP618  TYR619  PRO620  LYS621  CYS622 
 ASP623  PHE694  ASN695  SER759  ASP760  ASP761  ALA762  ILE779  LEU786  VAL792 
 PHE793  MET794  SER795  GLU796  ALA797  LYS798  CYS799  TRP800  GLU811  SER814 

> <Gold.Protein.RotatedAtoms>
  152.4396  133.7423  159.6647 H   0  0  0  0  0  0  0  0  0  0  0  0  # atno 6907 bound_to 6896
  150.8285  133.8121  159.3115 H   0  0  0  0  0  0  0  0  0  0  0  0  # atno 6908 bound_to 6896
  151.5782  135.1062  160.0063 H   0  0  0  0  0  0  0  0  0  0  0  0  # atno 6909 bound_to 6896
  145.4949  139.2276  143.2809 H   0  0  0  0  0  0  0  0  0  0  0  0  # atno 7974 bound_to 7965
  155.2283  140.0424  157.2958 H   0  0  0  0  0  0  0  0  0  0  0  0  # atno 8008 bound_to 7997
  154.5905  140.2425  155.7898 H   0  0  0  0  0  0  0  0  0  0  0  0  # atno 8009 bound_to 7997
  156.2256  140.2955  156.0067 H   0  0  0  0  0  0  0  0  0  0  0  0  # atno 8010 bound_to 7997
  139.8058  143.7770  152.2661 H   0  0  0  0  0  0  0  0  0  0  0  0  # atno 10167 bound_to 10162
  157.4473  131.1063  151.0074 H   0  0  0  0  0  0  0  0  0  0  0  0  # atno 10718 bound_to 10713
  154.3026  135.2759  155.2604 H   0  0  0  0  0  0  0  0  0  0  0  0  # atno 10763 bound_to 10752
  154.5034  135.5802  153.6552 H   0  0  0  0  0  0  0  0  0  0  0  0  # atno 10764 bound_to 10752
  152.9898  135.6163  154.3198 H   0  0  0  0  0  0  0  0  0  0  0  0  # atno 10765 bound_to 10752
  139.9684  134.6942  156.0497 H   0  0  0  0  0  0  0  0  0  0  0  0  # atno 11005 bound_to 11000
  146.2261  140.5746  142.8995 LP  0  0  0  0  0  0  0  0  0  0  0  0  # atno 17320 bound_to 7965
  144.7813  140.5845  143.6604 LP  0  0  0  0  0  0  0  0  0  0  0  0  # atno 17321 bound_to 7965
  139.7904  144.7412  150.9963 LP  0  0  0  0  0  0  0  0  0  0  0  0  # atno 17342 bound_to 10162
  140.7819  143.4448  151.0499 LP  0  0  0  0  0  0  0  0  0  0  0  0  # atno 17343 bound_to 10162
  157.0916  130.5944  149.5441 LP  0  0  0  0  0  0  0  0  0  0  0  0  # atno 17370 bound_to 10713
  155.9973  130.5044  150.7528 LP  0  0  0  0  0  0  0  0  0  0  0  0  # atno 17371 bound_to 10713
  141.1364  133.6574  156.3605 LP  0  0  0  0  0  0  0  0  0  0  0  0  # atno 17394 bound_to 11000
  140.5346  134.6179  157.5361 LP  0  0  0  0  0  0  0  0  0  0  0  0  # atno 17395 bound_to 11000

$$$$
