AV-unprocessed.smi:65|AV-procd|sdf|614|dock6
  -GOLD-   2262016503D 1   1.00000     0.00000
 Structure written by MMmdl.
 25 26  0  0  0  0  0  0  0  0  1 V2000
  149.9363  143.7418  158.1380 N   0  0  0  0  0  0  0  0  0  0  0  0
  150.5208  142.5127  157.9543 C   0  0  0  0  0  0  0  0  0  0  0  0
  151.0508  141.9357  159.0345 N   0  0  0  0  0  0  0  0  0  0  0  0
  151.6294  140.7286  158.8540 C   0  0  0  0  0  0  0  0  0  0  0  0
  151.6721  140.1066  157.5895 C   0  0  0  0  0  0  0  0  0  0  0  0
  151.0718  140.8072  156.5220 C   0  0  0  0  0  0  0  0  0  0  0  0
  151.0969  140.2559  155.2317 N   0  0  0  0  0  0  0  0  0  0  0  0
  149.7715  139.9723  154.6875 C   0  0  0  0  0  0  0  0  0  0  0  0
  149.7797  138.5021  154.2614 C   0  0  0  0  0  0  0  0  0  0  0  0
  151.2529  138.2503  153.9638 C   0  0  2  0  0  0  0  0  0  0  0  0
  151.5955  136.8829  154.0375 O   0  0  0  0  0  0  0  0  0  0  0  0
  151.9469  139.0836  155.0392 C   0  0  0  0  0  0  0  0  0  0  0  0
  150.5006  142.0214  156.7136 N   0  0  0  0  0  0  0  0  0  0  0  0
  149.5186  144.2304  157.3596 H   0  0  0  0  0  0  0  0  0  0  0  0
  149.9234  144.1698  159.0523 H   0  0  0  0  0  0  0  0  0  0  0  0
  152.0629  140.2563  159.7229 H   0  0  0  0  0  0  0  0  0  0  0  0
  152.1399  139.1432  157.4492 H   0  0  0  0  0  0  0  0  0  0  0  0
  148.9670  140.1752  155.3964 H   0  0  0  0  0  0  0  0  0  0  0  0
  149.6159  140.6160  153.8212 H   0  0  0  0  0  0  0  0  0  0  0  0
  149.4526  137.8804  155.0966 H   0  0  0  0  0  0  0  0  0  0  0  0
  149.1273  138.2996  153.4117 H   0  0  0  0  0  0  0  0  0  0  0  0
  151.5013  138.6379  152.9744 H   0  0  0  0  0  0  0  0  0  0  0  0
  151.4376  136.4876  153.1937 H   0  0  0  0  0  0  0  0  0  0  0  0
  152.9496  139.3779  154.7287 H   0  0  0  0  0  0  0  0  0  0  0  0
  152.0424  138.5057  155.9593 H   0  0  0  0  0  0  0  0  0  0  0  0
  1  2  1  0  0  0  0
  1 14  1  0  0  0  0
  1 15  1  0  0  0  0
  2 13  1  0  0  0  0
  2  3  2  0  0  0  0
  3  4  1  0  0  0  0
  4  5  2  0  0  0  0
  4 16  1  0  0  0  0
  5  6  1  0  0  0  0
  5 17  1  0  0  0  0
  6  7  1  0  0  0  0
  6 13  2  0  0  0  0
  7 12  1  0  0  0  0
  7  8  1  0  0  0  0
  8  9  1  0  0  0  0
  8 18  1  0  0  0  0
  8 19  1  0  0  0  0
  9 10  1  0  0  0  0
  9 20  1  0  0  0  0
  9 21  1  0  0  0  0
 10 11  1  0  0  0  0
 10 12  1  0  0  0  0
 10 22  1  0  0  0  0
 11 23  1  0  0  0  0
 12 24  1  0  0  0  0
 12 25  1  0  0  0  0
M  END
> <s_m_source_file>
AV-unprocessed.smi

> <i_m_source_file_index>
65

> <i_lp_mmshare_version>
43012

> <i_f3d_flags>
0

> <s_epik_input>
W05IMl1jMW5bY0hdW2NIXWMobjEpTjJbQ0gyXVtDSDJdW0NAQEhdKFtPSF0pW0NIMl0y

> <s_epik_cmdline>
J2VwaWtfcHl0aG9uJywgJy1waCcsICc3LjAnLCAnLXRuJywgJzgnLCAnLW1hJywgJzIwMCcsICctbWV0YWxfYmluZGluZycsICctaW1hZScsICc8aW5maWxlLm1hZT4nLCAnLW9tYWUnLCAnPG91dGZpbGUubWFlPic=

> <r_lp_tautomer_probability>
1

> <r_epik_Ionization_Penalty>
0.99295

> <r_epik_Ionization_Penalty_Charging>
0

> <r_epik_Ionization_Penalty_Neutral>
0.99295

> <r_epik_State_Penalty>
0.750885

> <r_epik_Charging_Adjusted_Penalty>
0.750885

> <i_epik_Tot_Q>
0

> <i_epik_Tot_abs_Q>
0

> <r_epik_Metal_State_Penalty>
0.338511

> <b_epik_Metal_Only>
0

> <s_lp_Force_Field>
OPLS_2005

> <r_lp_Energy>
21.5088

> <b_lp_Chiralities_Consistent>
1

> <s_lp_Variant>
AV-unprocessed.smi:65-4

> <Gold.Version>
5.8.1

> <Gold.Id.Protein>
6NUR|6NUR_protein|mol2

> <Gold.PLP.Fitness>
34.6324

> <Gold.PLP.PLP>
-25.4103

> <Gold.PLP.part.hbond>
-4.4552

> <Gold.PLP.part.metal>
0.0000

> <Gold.PLP.part.buried>
-5.7626

> <Gold.PLP.part.nonpolar>
-16.7340

> <Gold.PLP.part.repulsive>
0.1641

> <Gold.PLP.ligand.clash>
0.0000

> <Gold.PLP.ligand.torsion>
0.1169

> <Gold.PLP.Chemscore.Hbond>
3.1300

> <Gold.PLP.Chemscore.CHOScore>
0.0000

> <Gold.PLP.Chemscore.Metal>
0.0000

> <Gold.Chemscore.Hbonds>
donor molecule, donor type, donor heavy atom, donor atom, acceptor molecule, acceptor atom, score
      L1  H     1    14       P1  8028  0.90
      L1  H    11    23       P1  7949  1.00
      P1  H  7989  7998       L1     7  0.20
      P1  H 10752 10764       L1    11  0.60

> <Gold.PLP.Chemscore.Internal.Correction>
0.0659

> <Gold.Rescore>
     Score         DG    S(hbond)    S(metal)    S(lipo)     H(rot)  DE(clash)    DE(int)     intcor
      9.34      -9.39       1.00        0.00      38.70       1.55       0.01       0.03       ----

> <Gold.Chemscore.Fitness>
9.3431

> <Gold.Chemscore.DG>
-9.3891

> <Gold.Chemscore.ZeroCoef>
-5.4800

> <Gold.Chemscore.Hbond>
1.0026

> <Gold.Chemscore.Metal>
0.0000

> <Gold.Chemscore.Lipo>
38.6953

> <Gold.Chemscore.Internal_Hbond>
0.0000

> <Gold.Chemscore.DEClash>
0.0126

> <Gold.Chemscore.DEInternal>
0.0333

> <Gold.Chemscore.Rot>
1.5496

> <Gold.Chemscore.Internal.Correction>
   9.000000E+99

> <Gold.Chemscore.Hbonds>
donor molecule, donor type, donor heavy atom, donor atom, acceptor molecule, acceptor atom, score
      L1  H     1    14       P1  8028  0.18
      L1  H    11    23       P1  7949  0.85
      P1  H 10752 10764       L1    11  0.04

> <Gold.Chemscore.Hbond.Weighted>
-3.3487

> <Gold.Chemscore.Metal.Weighted>
-0.0000

> <Gold.Chemscore.Lipo.Weighted>
-4.5273

> <Gold.Chemscore.Internal_Hbond.Weighted>
0.0000

> <Gold.Chemscore.DEClash.Weighted>
0.0126

> <Gold.Chemscore.DEInternal.Weighted>
0.0333

> <Gold.Chemscore.Rot.Weighted>
3.9670

> <Gold.Chemscore.Internal.Correction.Weighted>
   9.000000E+99

> <Gold.Protein.RotatedTorsions>
[ 6907 6896 6895 6894 ] final  -74.47 input  -60.11 | X-H torsion
[ 7974 7965 7964 7962 ] final  -14.75 input  175.53 | X-H torsion
[ 8008 7997 7996 7995 ] final  -39.59 input   59.86 | X-H torsion
[ 10167 10162 10161 10158 ] final    2.70 input  -65.29 | X-H torsion
[ 10718 10713 10712 10709 ] final  -42.06 input   66.30 | X-H torsion
[ 10763 10752 10751 10750 ] final  -66.48 input  -60.55 | X-H torsion
[ 11005 11000 10999 10996 ] final  153.61 input  -57.11 | X-H torsion

> <Gold.Protein.ActiveResidues>
 VAL166  LYS551  ARG553  GLY616  TRP617  ASP618  TYR619  PRO620  LYS621  CYS622 
 ASP623  PHE694  ASN695  SER759  ASP760  ASP761  ALA762  ILE779  LEU786  VAL792 
 PHE793  MET794  SER795  GLU796  ALA797  LYS798  CYS799  TRP800  GLU811  SER814 

> <Gold.Protein.RotatedAtoms>
  150.7092  134.4864  159.5494 H   0  0  0  0  0  0  0  0  0  0  0  0  # atno 6907 bound_to 6896
  152.2490  134.8148  160.0458 H   0  0  0  0  0  0  0  0  0  0  0  0  # atno 6908 bound_to 6896
  151.8903  133.3479  159.3833 H   0  0  0  0  0  0  0  0  0  0  0  0  # atno 6909 bound_to 6896
  146.2061  140.3394  142.8406 H   0  0  0  0  0  0  0  0  0  0  0  0  # atno 7974 bound_to 7965
  154.4021  140.1547  156.2888 H   0  0  0  0  0  0  0  0  0  0  0  0  # atno 8008 bound_to 7997
  155.8804  140.3444  155.5862 H   0  0  0  0  0  0  0  0  0  0  0  0  # atno 8009 bound_to 7997
  155.7674  140.0825  157.2116 H   0  0  0  0  0  0  0  0  0  0  0  0  # atno 8010 bound_to 7997
  140.6622  143.7273  150.7760 H   0  0  0  0  0  0  0  0  0  0  0  0  # atno 10167 bound_to 10162
  156.2636  130.4199  149.8515 H   0  0  0  0  0  0  0  0  0  0  0  0  # atno 10718 bound_to 10713
  154.3605  135.6117  153.5688 H   0  0  0  0  0  0  0  0  0  0  0  0  # atno 10763 bound_to 10752
  152.9794  135.5814  154.4638 H   0  0  0  0  0  0  0  0  0  0  0  0  # atno 10764 bound_to 10752
  154.4375  135.2849  155.1848 H   0  0  0  0  0  0  0  0  0  0  0  0  # atno 10765 bound_to 10752
  140.1414  134.8737  157.2335 H   0  0  0  0  0  0  0  0  0  0  0  0  # atno 11005 bound_to 11000
  144.8796  140.7383  143.5995 LP  0  0  0  0  0  0  0  0  0  0  0  0  # atno 17320 bound_to 7965
  145.3314  139.1758  143.4535 LP  0  0  0  0  0  0  0  0  0  0  0  0  # atno 17321 bound_to 7965
  140.0944  143.4847  152.2461 LP  0  0  0  0  0  0  0  0  0  0  0  0  # atno 17342 bound_to 10162
  139.5860  144.7531  151.3520 LP  0  0  0  0  0  0  0  0  0  0  0  0  # atno 17343 bound_to 10162
  156.6021  130.8551  151.3434 LP  0  0  0  0  0  0  0  0  0  0  0  0  # atno 17370 bound_to 10713
  157.7259  130.9622  150.1635 LP  0  0  0  0  0  0  0  0  0  0  0  0  # atno 17371 bound_to 10713
  140.2718  134.3451  155.7371 LP  0  0  0  0  0  0  0  0  0  0  0  0  # atno 17394 bound_to 11000
  141.2186  133.7427  156.9234 LP  0  0  0  0  0  0  0  0  0  0  0  0  # atno 17395 bound_to 11000

$$$$
