AV-unprocessed.smi:428|AV-procd|sdf|2544|dock4
  -GOLD-   2262022503D 1   1.00000     0.00000
 Structure written by MMmdl.
 40 41  0  0  0  0  0  0  0  0  1 V2000
  145.7034  144.4275  152.9876 C   0  0  0  0  0  0  0  0  0  0  0  0
  147.0063  143.6220  153.0425 C   0  0  0  0  0  0  0  0  0  0  0  0
  146.9988  142.5710  154.1671 C   0  0  0  0  0  0  0  0  0  0  0  0
  148.2846  141.7403  154.2296 C   0  0  0  0  0  0  0  0  0  0  0  0
  148.2892  140.5595  153.8806 O   0  0  0  0  0  0  0  0  0  0  0  0
  149.3784  142.3805  154.6707 N   0  0  0  0  0  0  0  0  0  0  0  0
  150.7042  141.7847  154.8118 C   0  0  0  0  0  0  0  0  0  0  0  0
  151.2463  141.7210  156.2353 C   0  0  0  0  0  0  0  0  0  0  0  0
  151.8935  140.5504  156.6768 C   0  0  0  0  0  0  0  0  0  0  0  0
  152.3818  140.4890  157.9956 C   0  0  0  0  0  0  0  0  0  0  0  0
  152.2105  141.6057  158.8468 C   0  0  0  0  0  0  0  0  0  0  0  0
  152.6893  141.5638  160.1739 N   0  0  0  0  0  0  0  0  0  0  0  0
  154.0091  140.9809  160.4070 C   0  0  0  0  0  0  0  0  0  0  0  0
  154.2408  140.7663  161.9122 C   0  0  0  0  0  0  0  0  0  0  0  0
  154.0545  141.9963  162.6051 O   0  0  0  0  0  0  0  0  0  0  0  0
  152.7286  142.4927  162.4544 C   0  0  0  0  0  0  0  0  0  0  0  0
  152.4379  142.7635  160.9680 C   0  0  0  0  0  0  0  0  0  0  0  0
  151.5918  142.7339  158.4202 N   0  0  0  0  0  0  0  0  0  0  0  0
  151.1223  142.7858  157.1558 C   0  0  0  0  0  0  0  0  0  0  0  0
  145.7359  145.1642  152.1845 H   0  0  0  0  0  0  0  0  0  0  0  0
  145.5306  144.9612  153.9225 H   0  0  0  0  0  0  0  0  0  0  0  0
  144.8464  143.7780  152.8084 H   0  0  0  0  0  0  0  0  0  0  0  0
  147.1640  143.1335  152.0798 H   0  0  0  0  0  0  0  0  0  0  0  0
  147.8412  144.3102  153.1815 H   0  0  0  0  0  0  0  0  0  0  0  0
  146.8587  143.0594  155.1319 H   0  0  0  0  0  0  0  0  0  0  0  0
  146.1492  141.9001  154.0303 H   0  0  0  0  0  0  0  0  0  0  0  0
  149.2853  143.3514  154.9321 H   0  0  0  0  0  0  0  0  0  0  0  0
  150.6534  140.7671  154.4244 H   0  0  0  0  0  0  0  0  0  0  0  0
  151.4195  142.3147  154.1805 H   0  0  0  0  0  0  0  0  0  0  0  0
  152.0159  139.7069  156.0133 H   0  0  0  0  0  0  0  0  0  0  0  0
  152.8906  139.5981  158.3332 H   0  0  0  0  0  0  0  0  0  0  0  0
  154.0960  140.0259  159.8871 H   0  0  0  0  0  0  0  0  0  0  0  0
  154.7746  141.6448  160.0031 H   0  0  0  0  0  0  0  0  0  0  0  0
  153.5628  140.0077  162.3065 H   0  0  0  0  0  0  0  0  0  0  0  0
  155.2551  140.4088  162.0889 H   0  0  0  0  0  0  0  0  0  0  0  0
  152.0128  141.7794  162.8663 H   0  0  0  0  0  0  0  0  0  0  0  0
  152.6272  143.4131  163.0293 H   0  0  0  0  0  0  0  0  0  0  0  0
  153.0801  143.5663  160.6035 H   0  0  0  0  0  0  0  0  0  0  0  0
  151.4098  143.1076  160.8638 H   0  0  0  0  0  0  0  0  0  0  0  0
  150.6326  143.7094  156.8858 H   0  0  0  0  0  0  0  0  0  0  0  0
  1  2  1  0  0  0  0
  1 20  1  0  0  0  0
  1 21  1  0  0  0  0
  1 22  1  0  0  0  0
  2  3  1  0  0  0  0
  2 23  1  0  0  0  0
  2 24  1  0  0  0  0
  3  4  1  0  0  0  0
  3 25  1  0  0  0  0
  3 26  1  0  0  0  0
  4  5  2  0  0  0  0
  4  6  1  0  0  0  0
  6  7  1  0  0  0  0
  6 27  1  0  0  0  0
  7  8  1  0  0  0  0
  7 28  1  0  0  0  0
  7 29  1  0  0  0  0
  8 19  1  0  0  0  0
  8  9  2  0  0  0  0
  9 10  1  0  0  0  0
  9 30  1  0  0  0  0
 10 11  2  0  0  0  0
 10 31  1  0  0  0  0
 11 12  1  0  0  0  0
 11 18  1  0  0  0  0
 12 17  1  0  0  0  0
 12 13  1  0  0  0  0
 13 14  1  0  0  0  0
 13 32  1  0  0  0  0
 13 33  1  0  0  0  0
 14 15  1  0  0  0  0
 14 34  1  0  0  0  0
 14 35  1  0  0  0  0
 15 16  1  0  0  0  0
 16 17  1  0  0  0  0
 16 36  1  0  0  0  0
 16 37  1  0  0  0  0
 17 38  1  0  0  0  0
 17 39  1  0  0  0  0
 18 19  2  0  0  0  0
 19 40  1  0  0  0  0
M  END
> <s_m_source_file>
AV-unprocessed.smi

> <i_m_source_file_index>
428

> <i_lp_mmshare_version>
43012

> <i_f3d_flags>
0

> <s_epik_input>
W0NIM11bQ0gyXVtDSDJdQyg9TylbTkhdW0NIMl1jMVtjSF1bY0hdYyhuW2NIXTEpTjJbQ0gyXVtDSDJdT1tDSDJdW0NIMl0y

> <s_epik_cmdline>
J2VwaWtfcHl0aG9uJywgJy1waCcsICc3LjAnLCAnLXRuJywgJzgnLCAnLW1hJywgJzIwMCcsICctbWV0YWxfYmluZGluZycsICctaW1hZScsICc8aW5maWxlLm1hZT4nLCAnLW9tYWUnLCAnPG91dGZpbGUubWFlPic=

> <r_lp_tautomer_probability>
1

> <r_epik_Ionization_Penalty>
0.00505548

> <r_epik_Ionization_Penalty_Charging>
0

> <r_epik_Ionization_Penalty_Neutral>
0.00505548

> <r_epik_State_Penalty>
0.00367784

> <r_epik_Charging_Adjusted_Penalty>
0.00367784

> <i_epik_Tot_Q>
0

> <i_epik_Tot_abs_Q>
0

> <r_epik_Metal_State_Penalty>
-0

> <b_epik_Metal_Only>
0

> <s_lp_Force_Field>
OPLS_2005

> <r_lp_Energy>
16.3878

> <b_lp_Chiralities_Consistent>
1

> <s_lp_Variant>
AV-unprocessed.smi:428-1

> <Gold.Version>
5.8.1

> <Gold.Id.Protein>
6NUR|6NUR_protein|mol2

> <Gold.PLP.Fitness>
46.5014

> <Gold.PLP.PLP>
-41.3650

> <Gold.PLP.part.hbond>
-2.0000

> <Gold.PLP.part.metal>
0.0000

> <Gold.PLP.part.buried>
-4.4654

> <Gold.PLP.part.nonpolar>
-33.5849

> <Gold.PLP.part.repulsive>
0.2775

> <Gold.PLP.ligand.clash>
0.0000

> <Gold.PLP.ligand.torsion>
0.5987

> <Gold.PLP.Chemscore.Hbond>
1.0000

> <Gold.PLP.Chemscore.CHOScore>
1.0000

> <Gold.PLP.Chemscore.Metal>
0.0000

> <Gold.Chemscore.Hbonds>
donor molecule, donor type, donor heavy atom, donor atom, acceptor molecule, acceptor atom, score
      L1  H     6    27       P1  8028  1.00
      L1  C    19    40       P1  8028  1.00

> <Gold.PLP.Chemscore.Internal.Correction>
0.3339

> <Gold.Rescore>
     Score         DG    S(hbond)    S(metal)    S(lipo)     H(rot)  DE(clash)    DE(int)     intcor
     14.59     -15.29       1.00        0.00      92.39       1.69       0.17       0.52       ----

> <Gold.Chemscore.Fitness>
14.5888

> <Gold.Chemscore.DG>
-15.2859

> <Gold.Chemscore.ZeroCoef>
-5.4800

> <Gold.Chemscore.Hbond>
0.9969

> <Gold.Chemscore.Metal>
0.0000

> <Gold.Chemscore.Lipo>
92.3856

> <Gold.Chemscore.Internal_Hbond>
0.0000

> <Gold.Chemscore.DEClash>
0.1734

> <Gold.Chemscore.DEInternal>
0.5237

> <Gold.Chemscore.Rot>
1.6926

> <Gold.Chemscore.Internal.Correction>
   9.000000E+99

> <Gold.Chemscore.Hbonds>
donor molecule, donor type, donor heavy atom, donor atom, acceptor molecule, acceptor atom, score
      L1  H     6    27       P1  8028  0.98

> <Gold.Chemscore.Hbond.Weighted>
-3.3298

> <Gold.Chemscore.Metal.Weighted>
-0.0000

> <Gold.Chemscore.Lipo.Weighted>
-10.8091

> <Gold.Chemscore.Internal_Hbond.Weighted>
0.0000

> <Gold.Chemscore.DEClash.Weighted>
0.1734

> <Gold.Chemscore.DEInternal.Weighted>
0.5237

> <Gold.Chemscore.Rot.Weighted>
4.3330

> <Gold.Chemscore.Internal.Correction.Weighted>
   9.000000E+99

> <Gold.Protein.RotatedTorsions>
[ 6907 6896 6895 6894 ] final  -76.50 input  -60.11 | X-H torsion
[ 7974 7965 7964 7962 ] final -135.33 input  175.53 | X-H torsion
[ 8008 7997 7996 7995 ] final -112.11 input   59.86 | X-H torsion
[ 10167 10162 10161 10158 ] final   16.41 input  -65.29 | X-H torsion
[ 10718 10713 10712 10709 ] final  145.55 input   66.30 | X-H torsion
[ 10763 10752 10751 10750 ] final  -37.09 input  -60.55 | X-H torsion
[ 11005 11000 10999 10996 ] final   -2.79 input  -57.11 | X-H torsion

> <Gold.Protein.ActiveResidues>
 VAL166  LYS551  ARG553  GLY616  TRP617  ASP618  TYR619  PRO620  LYS621  CYS622 
 ASP623  PHE694  ASN695  SER759  ASP760  ASP761  ALA762  ILE779  LEU786  VAL792 
 PHE793  MET794  SER795  GLU796  ALA797  LYS798  CYS799  TRP800  GLU811  SER814 

> <Gold.Protein.RotatedAtoms>
  150.7025  134.4562  159.5359 H   0  0  0  0  0  0  0  0  0  0  0  0  # atno 6907 bound_to 6896
  152.2245  134.8378  160.0491 H   0  0  0  0  0  0  0  0  0  0  0  0  # atno 6908 bound_to 6896
  151.9216  133.3552  159.3936 H   0  0  0  0  0  0  0  0  0  0  0  0  # atno 6909 bound_to 6896
  144.9024  140.6788  143.5077 H   0  0  0  0  0  0  0  0  0  0  0  0  # atno 7974 bound_to 7965
  155.0001  140.0394  157.2356 H   0  0  0  0  0  0  0  0  0  0  0  0  # atno 8008 bound_to 7997
  154.7551  140.2774  155.6237 H   0  0  0  0  0  0  0  0  0  0  0  0  # atno 8009 bound_to 7997
  156.2893  140.2639  156.2315 H   0  0  0  0  0  0  0  0  0  0  0  0  # atno 8010 bound_to 7997
  140.5799  143.9001  150.6781 H   0  0  0  0  0  0  0  0  0  0  0  0  # atno 10167 bound_to 10162
  157.3439  131.0940  151.1059 H   0  0  0  0  0  0  0  0  0  0  0  0  # atno 10718 bound_to 10713
  153.8906  135.6812  153.4761 H   0  0  0  0  0  0  0  0  0  0  0  0  # atno 10763 bound_to 10752
  153.1183  135.4751  154.9151 H   0  0  0  0  0  0  0  0  0  0  0  0  # atno 10764 bound_to 10752
  154.7624  135.3214  154.8305 H   0  0  0  0  0  0  0  0  0  0  0  0  # atno 10765 bound_to 10752
  140.6622  133.9310  155.8443 H   0  0  0  0  0  0  0  0  0  0  0  0  # atno 11005 bound_to 11000
  145.3594  139.1685  143.4391 LP  0  0  0  0  0  0  0  0  0  0  0  0  # atno 17320 bound_to 7965
  146.3115  140.3654  142.8669 LP  0  0  0  0  0  0  0  0  0  0  0  0  # atno 17321 bound_to 7965
  140.2497  143.3602  152.1416 LP  0  0  0  0  0  0  0  0  0  0  0  0  # atno 17342 bound_to 10162
  139.5164  144.6977  151.5585 LP  0  0  0  0  0  0  0  0  0  0  0  0  # atno 17343 bound_to 10162
  157.2260  130.6503  149.5830 LP  0  0  0  0  0  0  0  0  0  0  0  0  # atno 17370 bound_to 10713
  155.9711  130.4614  150.6107 LP  0  0  0  0  0  0  0  0  0  0  0  0  # atno 17371 bound_to 10713
  141.0456  134.0558  157.3848 LP  0  0  0  0  0  0  0  0  0  0  0  0  # atno 17394 bound_to 11000
  139.9009  135.0164  156.7263 LP  0  0  0  0  0  0  0  0  0  0  0  0  # atno 17395 bound_to 11000

$$$$
