AV-unprocessed.smi:1066|AV-procd|sdf|4670|dock9
  -GOLD-   22720 3183D 1   1.00000     0.00000
 Structure written by MMmdl.
 38 40  0  0  0  0  0  0  0  0  2 V2000
  153.3012  137.8525  158.6291 C   0  0  0  0  0  0  0  0  0  0  0  0
  151.9018  137.5284  158.1909 C   0  0  0  0  0  0  0  0  0  0  0  0
  151.0964  136.8796  159.0218 N   0  0  0  0  0  0  0  0  0  0  0  0
  149.8806  136.7177  158.3478 O   0  0  0  0  0  0  0  0  0  0  0  0
  150.0241  137.2894  157.1307 C   0  0  0  0  0  0  0  0  0  0  0  0
  148.7614  137.2980  155.9637 Cl  0  0  0  0  0  0  0  0  0  0  0  0
  151.2672  137.8239  156.9486 C   0  0  0  0  0  0  0  0  0  0  0  0
  151.8388  138.5372  155.7486 C   0  0  0  0  0  0  0  0  0  0  0  0
  151.2433  139.9418  155.6463 C   0  0  0  0  0  0  0  0  0  0  0  0
  150.4876  140.2257  154.7179 O   0  0  0  0  0  0  0  0  0  0  0  0
  151.5879  140.8101  156.6095 N   0  0  0  0  0  0  0  0  0  0  0  0
  151.0966  142.1782  156.7160 C   0  0  2  0  0  0  0  0  0  0  0  0
  152.1974  143.2393  156.7789 C   0  0  0  0  0  0  0  0  0  0  0  0
  151.5938  144.3705  157.6305 C   0  0  0  0  0  0  0  0  0  0  0  0
  150.3051  143.8670  158.1613 N   0  3  2  0  0  0  0  0  0  0  0  0
  149.9809  144.3345  159.5253 C   0  0  0  0  0  0  0  0  0  0  0  0
  150.6869  145.6136  159.9071 C   0  0  0  0  0  0  0  0  0  0  0  0
  151.1548  144.2903  160.4736 C   0  0  0  0  0  0  0  0  0  0  0  0
  150.3368  142.4016  158.0189 C   0  0  0  0  0  0  0  0  0  0  0  0
  153.9500  138.0470  157.7749 H   0  0  0  0  0  0  0  0  0  0  0  0
  153.7413  137.0296  159.1931 H   0  0  0  0  0  0  0  0  0  0  0  0
  153.3153  138.7378  159.2648 H   0  0  0  0  0  0  0  0  0  0  0  0
  152.9247  138.6181  155.8084 H   0  0  0  0  0  0  0  0  0  0  0  0
  151.6286  137.9908  154.8284 H   0  0  0  0  0  0  0  0  0  0  0  0
  152.2198  140.4903  157.3297 H   0  0  0  0  0  0  0  0  0  0  0  0
  150.4264  142.4020  155.8831 H   0  0  0  0  0  0  0  0  0  0  0  0
  153.0843  142.8423  157.2756 H   0  0  0  0  0  0  0  0  0  0  0  0
  152.4980  143.5785  155.7869 H   0  0  0  0  0  0  0  0  0  0  0  0
  152.2775  144.6355  158.4388 H   0  0  0  0  0  0  0  0  0  0  0  0
  151.4154  145.2691  157.0393 H   0  0  0  0  0  0  0  0  0  0  0  0
  148.9726  144.1317  159.8825 H   0  0  0  0  0  0  0  0  0  0  0  0
  151.3205  146.0946  159.1638 H   0  0  0  0  0  0  0  0  0  0  0  0
  150.1695  146.2901  160.5844 H   0  0  0  0  0  0  0  0  0  0  0  0
  150.9458  144.0971  161.5240 H   0  0  0  0  0  0  0  0  0  0  0  0
  152.0988  143.8916  160.1067 H   0  0  0  0  0  0  0  0  0  0  0  0
  149.3321  141.9779  157.9963 H   0  0  0  0  0  0  0  0  0  0  0  0
  150.8760  141.9600  158.8596 H   0  0  0  0  0  0  0  0  0  0  0  0
  149.5843  144.2017  157.5376 H   0  0  0  0  0  0  0  0  0  0  0  0
  1  2  1  0  0  0  0
  1 20  1  0  0  0  0
  1 21  1  0  0  0  0
  1 22  1  0  0  0  0
  2  7  1  0  0  0  0
  2  3  2  0  0  0  0
  3  4  1  0  0  0  0
  4  5  1  0  0  0  0
  5  6  1  0  0  0  0
  5  7  2  0  0  0  0
  7  8  1  0  0  0  0
  8  9  1  0  0  0  0
  8 23  1  0  0  0  0
  8 24  1  0  0  0  0
  9 10  2  0  0  0  0
  9 11  1  0  0  0  0
 11 12  1  0  0  0  0
 11 25  1  0  0  0  0
 12 19  1  0  0  0  0
 12 13  1  0  0  0  0
 12 26  1  0  0  0  0
 13 14  1  0  0  0  0
 13 27  1  0  0  0  0
 13 28  1  0  0  0  0
 14 15  1  0  0  0  0
 14 29  1  0  0  0  0
 14 30  1  0  0  0  0
 15 16  1  0  0  0  0
 15 19  1  0  0  0  0
 15 38  1  0  0  0  0
 16 18  1  0  0  0  0
 16 17  1  0  0  0  0
 16 31  1  0  0  0  0
 17 18  1  0  0  0  0
 17 32  1  0  0  0  0
 17 33  1  0  0  0  0
 18 34  1  0  0  0  0
 18 35  1  0  0  0  0
 19 36  1  0  0  0  0
 19 37  1  0  0  0  0
M  CHG  1  15   1
M  END
> <s_m_source_file>
AV-unprocessed.smi

> <i_m_source_file_index>
1066

> <i_lp_mmshare_version>
43012

> <i_f3d_flags>
0

> <s_epik_input>
W0NIM11jMW5vYyhDbCljMVtDSDJdQyg9TylbTkhdW0NAQEhdMltDSDJdW0NIMl1OKFtDSDJdMilbQ0hdM1tDSDJdW0NIMl0z

> <s_epik_cmdline>
J2VwaWtfcHl0aG9uJywgJy1waCcsICc3LjAnLCAnLXRuJywgJzgnLCAnLW1hJywgJzIwMCcsICctbWV0YWxfYmluZGluZycsICctaW1hZScsICc8aW5maWxlLm1hZT4nLCAnLW9tYWUnLCAnPG91dGZpbGUubWFlPic=

> <r_epik_Ionization_Penalty>
0.00108138

> <r_epik_Ionization_Penalty_Charging>
0.00108128

> <r_epik_Ionization_Penalty_Neutral>
9.66632e-08

> <r_epik_State_Penalty>
0.000708577

> <r_epik_Charging_Adjusted_Penalty>
0.00178986

> <i_epik_Tot_Q>
1

> <i_epik_Tot_abs_Q>
1

> <r_epik_Metal_State_Penalty>
-0

> <b_epik_Metal_Only>
0

> <s_lp_Force_Field>
OPLS_2005

> <r_lp_Energy>
30.9378

> <b_lp_Chiralities_Consistent>
1

> <s_lp_Variant>
AV-unprocessed.smi:1066-3

> <Gold.Version>
5.8.1

> <Gold.Id.Protein>
6NUR|6NUR_protein|mol2

> <Gold.PLP.Fitness>
34.8273

> <Gold.PLP.PLP>
-23.9843

> <Gold.PLP.part.hbond>
-3.1620

> <Gold.PLP.part.metal>
0.0000

> <Gold.PLP.part.buried>
-4.7330

> <Gold.PLP.part.nonpolar>
-15.2715

> <Gold.PLP.part.repulsive>
0.2486

> <Gold.PLP.ligand.clash>
0.0776

> <Gold.PLP.ligand.torsion>
0.8730

> <Gold.PLP.Chemscore.Hbond>
3.8000

> <Gold.PLP.Chemscore.CHOScore>
0.0000

> <Gold.PLP.Chemscore.Metal>
0.0000

> <Gold.Chemscore.Hbonds>
donor molecule, donor type, donor heavy atom, donor atom, acceptor molecule, acceptor atom, score
      L1  H    15    38       P1  8028  1.76
      P1  H  6896  6909       L1     3  0.90
      P1  H  7989  7998       L1    10  1.00

> <Gold.PLP.Chemscore.Internal.Correction>
1.2665

> <Gold.Rescore>
     Score         DG    S(hbond)    S(metal)    S(lipo)     H(rot)  DE(clash)    DE(int)     intcor
     15.55     -18.71       2.12        0.00      86.92       1.57       2.16       1.00       ----

> <Gold.Chemscore.Fitness>
15.5470

> <Gold.Chemscore.DG>
-18.7096

> <Gold.Chemscore.ZeroCoef>
-5.4800

> <Gold.Chemscore.Hbond>
2.1203

> <Gold.Chemscore.Metal>
0.0000

> <Gold.Chemscore.Lipo>
86.9205

> <Gold.Chemscore.Internal_Hbond>
0.0000

> <Gold.Chemscore.DEClash>
2.1591

> <Gold.Chemscore.DEInternal>
1.0036

> <Gold.Chemscore.Rot>
1.5711

> <Gold.Chemscore.Internal.Correction>
   9.000000E+99

> <Gold.Chemscore.Hbonds>
donor molecule, donor type, donor heavy atom, donor atom, acceptor molecule, acceptor atom, score
      L1  H    15    38       P1  8028  0.16
      P1  H  6896  6909       L1     3  0.17
      P1  H  7989  7998       L1    10  0.34

> <Gold.Chemscore.Hbond.Weighted>
-7.0820

> <Gold.Chemscore.Metal.Weighted>
-0.0000

> <Gold.Chemscore.Lipo.Weighted>
-10.1697

> <Gold.Chemscore.Internal_Hbond.Weighted>
0.0000

> <Gold.Chemscore.DEClash.Weighted>
2.1591

> <Gold.Chemscore.DEInternal.Weighted>
1.0036

> <Gold.Chemscore.Rot.Weighted>
4.0221

> <Gold.Chemscore.Internal.Correction.Weighted>
   9.000000E+99

> <Gold.Protein.RotatedTorsions>
[ 6907 6896 6895 6894 ] final   95.30 input  -60.11 | X-H torsion
[ 7974 7965 7964 7962 ] final  -85.72 input  175.53 | X-H torsion
[ 8008 7997 7996 7995 ] final  -27.54 input   59.86 | X-H torsion
[ 10167 10162 10161 10158 ] final -172.36 input  -65.29 | X-H torsion
[ 10718 10713 10712 10709 ] final -139.92 input   66.30 | X-H torsion
[ 10763 10752 10751 10750 ] final  115.00 input  -60.55 | X-H torsion
[ 11005 11000 10999 10996 ] final   44.41 input  -57.11 | X-H torsion

> <Gold.Protein.ActiveResidues>
 VAL166  LYS551  ARG553  GLY616  TRP617  ASP618  TYR619  PRO620  LYS621  CYS622 
 ASP623  PHE694  ASN695  SER759  ASP760  ASP761  ALA762  ILE779  LEU786  VAL792 
 PHE793  MET794  SER795  GLU796  ALA797  LYS798  CYS799  TRP800  GLU811  SER814 

> <Gold.Protein.RotatedAtoms>
  152.5444  134.1062  159.8338 H   0  0  0  0  0  0  0  0  0  0  0  0  # atno 6907 bound_to 6896
  151.1133  133.5149  159.2612 H   0  0  0  0  0  0  0  0  0  0  0  0  # atno 6908 bound_to 6896
  151.1859  135.0391  159.8867 H   0  0  0  0  0  0  0  0  0  0  0  0  # atno 6909 bound_to 6896
  145.4895  140.9553  143.1820 H   0  0  0  0  0  0  0  0  0  0  0  0  # atno 7974 bound_to 7965
  154.4373  140.1869  156.0948 H   0  0  0  0  0  0  0  0  0  0  0  0  # atno 8008 bound_to 7997
  156.0338  140.3327  155.7142 H   0  0  0  0  0  0  0  0  0  0  0  0  # atno 8009 bound_to 7997
  155.5801  140.0621  157.2776 H   0  0  0  0  0  0  0  0  0  0  0  0  # atno 8010 bound_to 7997
  139.5749  144.1556  152.1436 H   0  0  0  0  0  0  0  0  0  0  0  0  # atno 10167 bound_to 10162
  156.3163  130.7510  151.1597 H   0  0  0  0  0  0  0  0  0  0  0  0  # atno 10718 bound_to 10713
  153.5157  135.3608  155.2608 H   0  0  0  0  0  0  0  0  0  0  0  0  # atno 10763 bound_to 10752
  154.8739  135.4033  154.3317 H   0  0  0  0  0  0  0  0  0  0  0  0  # atno 10764 bound_to 10752
  153.3978  135.7074  153.6514 H   0  0  0  0  0  0  0  0  0  0  0  0  # atno 10765 bound_to 10752
  140.1554  134.4409  155.8353 H   0  0  0  0  0  0  0  0  0  0  0  0  # atno 11005 bound_to 11000
  144.7842  139.6462  143.7141 LP  0  0  0  0  0  0  0  0  0  0  0  0  # atno 17320 bound_to 7965
  146.2292  139.5782  142.9566 LP  0  0  0  0  0  0  0  0  0  0  0  0  # atno 17321 bound_to 7965
  140.1096  144.5468  150.6934 LP  0  0  0  0  0  0  0  0  0  0  0  0  # atno 17342 bound_to 10162
  140.7032  143.2449  151.4803 LP  0  0  0  0  0  0  0  0  0  0  0  0  # atno 17343 bound_to 10162
  157.7402  131.0519  150.5180 LP  0  0  0  0  0  0  0  0  0  0  0  0  # atno 17370 bound_to 10713
  156.5326  130.4188  149.6193 LP  0  0  0  0  0  0  0  0  0  0  0  0  # atno 17371 bound_to 10713
  141.2204  133.6890  156.7497 LP  0  0  0  0  0  0  0  0  0  0  0  0  # atno 17394 bound_to 11000
  140.2554  134.8508  157.3708 LP  0  0  0  0  0  0  0  0  0  0  0  0  # atno 17395 bound_to 11000

$$$$
