AV-unprocessed.smi:3271|AV-procd|sdf|12516|dock5
  -GOLD-   2272018423D 1   1.00000     0.00000
 Structure written by MMmdl.
 41 41  0  0  0  0  0  0  0  0  1 V2000
  152.3091  143.5738  158.4431 C   0  0  0  0  0  0  0  0  0  0  0  0
  151.8014  142.1974  157.9846 C   0  0  0  0  0  0  0  0  0  0  0  0
  152.4164  141.0027  158.7487 C   0  0  0  0  0  0  0  0  0  0  0  0
  153.6833  141.4438  159.5172 C   0  0  0  0  0  0  0  0  0  0  0  0
  153.4065  142.1515  160.8528 C   0  0  0  0  0  0  0  0  0  0  0  0
  152.7103  139.8265  157.8017 C   0  0  0  0  0  0  0  0  0  0  0  0
  153.8646  139.4312  157.6392 O   0  0  0  0  0  0  0  0  0  0  0  0
  151.6512  139.2771  157.1890 N   0  0  0  0  0  0  0  0  0  0  0  0
  151.6993  138.1473  156.2639 C   0  0  0  0  0  0  0  0  0  0  0  0
  151.5789  138.5470  154.7680 C   0  0  1  0  0  0  0  0  0  0  0  0
  152.8448  139.2961  154.3173 C   0  0  0  0  0  0  0  0  0  0  0  0
  151.5896  137.3450  154.0220 O   0  0  0  0  0  0  0  0  0  0  0  0
  150.3536  139.3877  154.4678 C   0  0  0  0  0  0  0  0  0  0  0  0
  150.0817  140.7285  154.8703 C   0  0  0  0  0  0  0  0  0  0  0  0
  148.9184  141.1775  154.4288 N   0  0  0  0  0  0  0  0  0  0  0  0
  148.3981  140.1401  153.7438 N   0  0  0  0  0  0  0  0  0  0  0  0
  147.1057  140.2801  153.1081 C   0  0  0  0  0  0  0  0  0  0  0  0
  149.2353  139.0465  153.7574 C   0  0  0  0  0  0  0  0  0  0  0  0
  151.8918  144.3648  157.8196 H   0  0  0  0  0  0  0  0  0  0  0  0
  153.3953  143.6355  158.3729 H   0  0  0  0  0  0  0  0  0  0  0  0
  152.0254  143.7874  159.4738 H   0  0  0  0  0  0  0  0  0  0  0  0
  150.7134  142.1700  158.0609 H   0  0  0  0  0  0  0  0  0  0  0  0
  152.0257  142.0922  156.9225 H   0  0  0  0  0  0  0  0  0  0  0  0
  151.6853  140.6727  159.4891 H   0  0  0  0  0  0  0  0  0  0  0  0
  154.3337  140.5858  159.6927 H   0  0  0  0  0  0  0  0  0  0  0  0
  154.2563  142.1256  158.8877 H   0  0  0  0  0  0  0  0  0  0  0  0
  154.3315  142.5302  161.2878 H   0  0  0  0  0  0  0  0  0  0  0  0
  152.9628  141.4714  161.5790 H   0  0  0  0  0  0  0  0  0  0  0  0
  152.7295  142.9963  160.7234 H   0  0  0  0  0  0  0  0  0  0  0  0
  150.7400  139.6653  157.3844 H   0  0  0  0  0  0  0  0  0  0  0  0
  152.6806  137.7004  156.4266 H   0  0  0  0  0  0  0  0  0  0  0  0
  150.9781  137.3746  156.5379 H   0  0  0  0  0  0  0  0  0  0  0  0
  152.9511  140.2456  154.8432 H   0  0  0  0  0  0  0  0  0  0  0  0
  152.8179  139.5158  153.2490 H   0  0  0  0  0  0  0  0  0  0  0  0
  153.7455  138.7122  154.5115 H   0  0  0  0  0  0  0  0  0  0  0  0
  151.0014  137.4438  153.2882 H   0  0  0  0  0  0  0  0  0  0  0  0
  150.6991  141.3906  155.4594 H   0  0  0  0  0  0  0  0  0  0  0  0
  146.7148  139.2988  152.8374 H   0  0  0  0  0  0  0  0  0  0  0  0
  147.2047  140.8851  152.2065 H   0  0  0  0  0  0  0  0  0  0  0  0
  146.4046  140.7633  153.7896 H   0  0  0  0  0  0  0  0  0  0  0  0
  148.9755  138.1254  153.2568 H   0  0  0  0  0  0  0  0  0  0  0  0
  1  2  1  0  0  0  0
  1 19  1  0  0  0  0
  1 20  1  0  0  0  0
  1 21  1  0  0  0  0
  2  3  1  0  0  0  0
  2 22  1  0  0  0  0
  2 23  1  0  0  0  0
  3  4  1  0  0  0  0
  3  6  1  0  0  0  0
  3 24  1  0  0  0  0
  4  5  1  0  0  0  0
  4 25  1  0  0  0  0
  4 26  1  0  0  0  0
  5 27  1  0  0  0  0
  5 28  1  0  0  0  0
  5 29  1  0  0  0  0
  6  7  2  0  0  0  0
  6  8  1  0  0  0  0
  8  9  1  0  0  0  0
  8 30  1  0  0  0  0
  9 10  1  0  0  0  0
  9 31  1  0  0  0  0
  9 32  1  0  0  0  0
 10 11  1  0  0  0  0
 10 12  1  0  0  0  0
 10 13  1  0  0  0  0
 11 33  1  0  0  0  0
 11 34  1  0  0  0  0
 11 35  1  0  0  0  0
 12 36  1  0  0  0  0
 13 18  2  0  0  0  0
 13 14  1  0  0  0  0
 14 15  2  0  0  0  0
 14 37  1  0  0  0  0
 15 16  1  0  0  0  0
 16 17  1  0  0  0  0
 16 18  1  0  0  0  0
 17 38  1  0  0  0  0
 17 39  1  0  0  0  0
 17 40  1  0  0  0  0
 18 41  1  0  0  0  0
M  END
> <s_m_source_file>
AV-unprocessed.smi

> <i_m_source_file_index>
3271

> <i_lp_mmshare_version>
43012

> <i_f3d_flags>
0

> <s_epik_input>
W0NIM11bQ0gyXVtDSF0oW0NIMl1bQ0gzXSlDKD1PKVtOSF1bQ0gyXVtDQEBdKFtDSDNdKShbT0hdKWMxW2NIXW5uKFtDSDNdKVtjSF0x

> <s_epik_cmdline>
J2VwaWtfcHl0aG9uJywgJy1waCcsICc3LjAnLCAnLXRuJywgJzgnLCAnLW1hJywgJzIwMCcsICctbWV0YWxfYmluZGluZycsICctaW1hZScsICc8aW5maWxlLm1hZT4nLCAnLW9tYWUnLCAnPG91dGZpbGUubWFlPic=

> <r_lp_tautomer_probability>
1

> <r_epik_Ionization_Penalty>
6.03488e-05

> <r_epik_Ionization_Penalty_Charging>
0

> <r_epik_Ionization_Penalty_Neutral>
6.03488e-05

> <r_epik_State_Penalty>
-0

> <r_epik_Charging_Adjusted_Penalty>
0

> <i_epik_Tot_Q>
0

> <i_epik_Tot_abs_Q>
0

> <r_epik_Metal_State_Penalty>
-0

> <b_epik_Metal_Only>
0

> <s_lp_Force_Field>
OPLS_2005

> <r_lp_Energy>
0.472609

> <b_lp_Chiralities_Consistent>
1

> <s_lp_Variant>
AV-unprocessed.smi:3271-1

> <Gold.Version>
5.8.1

> <Gold.Id.Protein>
6NUR|6NUR_protein|mol2

> <Gold.PLP.Fitness>
43.3596

> <Gold.PLP.PLP>
-36.6365

> <Gold.PLP.part.hbond>
-2.1978

> <Gold.PLP.part.metal>
0.0000

> <Gold.PLP.part.buried>
-1.8313

> <Gold.PLP.part.nonpolar>
-32.3845

> <Gold.PLP.part.repulsive>
0.1811

> <Gold.PLP.ligand.clash>
0.0000

> <Gold.PLP.ligand.torsion>
1.2204

> <Gold.PLP.Chemscore.Hbond>
2.0000

> <Gold.PLP.Chemscore.CHOScore>
1.0000

> <Gold.PLP.Chemscore.Metal>
0.0000

> <Gold.Chemscore.Hbonds>
donor molecule, donor type, donor heavy atom, donor atom, acceptor molecule, acceptor atom, score
      L1  H    12    36       P1  7949  0.11
      P1  H  7997  8009       L1     7  0.10
      P1  H 10752 10764       L1    12  0.63
      L1  C    18    41       P1  7948  1.00

> <Gold.PLP.Chemscore.Internal.Correction>
0.1639

> <Gold.Rescore>
     Score         DG    S(hbond)    S(metal)    S(lipo)     H(rot)  DE(clash)    DE(int)     intcor
     15.42     -16.76       1.89        0.00      93.61       2.33       0.03       1.32       ----

> <Gold.Chemscore.Fitness>
15.4164

> <Gold.Chemscore.DG>
-16.7606

> <Gold.Chemscore.ZeroCoef>
-5.4800

> <Gold.Chemscore.Hbond>
1.8871

> <Gold.Chemscore.Metal>
0.0000

> <Gold.Chemscore.Lipo>
93.6144

> <Gold.Chemscore.Internal_Hbond>
0.0000

> <Gold.Chemscore.DEClash>
0.0282

> <Gold.Chemscore.DEInternal>
1.3160

> <Gold.Chemscore.Rot>
2.3341

> <Gold.Chemscore.Internal.Correction>
   9.000000E+99

> <Gold.Chemscore.Hbonds>
donor molecule, donor type, donor heavy atom, donor atom, acceptor molecule, acceptor atom, score
      L1  H    12    36       P1  7949  0.03
      P1  H  7997  8009       L1     7  0.11
      P1  H 10752 10764       L1    12  0.61

> <Gold.Chemscore.Hbond.Weighted>
-6.3030

> <Gold.Chemscore.Metal.Weighted>
-0.0000

> <Gold.Chemscore.Lipo.Weighted>
-10.9529

> <Gold.Chemscore.Internal_Hbond.Weighted>
0.0000

> <Gold.Chemscore.DEClash.Weighted>
0.0282

> <Gold.Chemscore.DEInternal.Weighted>
1.3160

> <Gold.Chemscore.Rot.Weighted>
5.9753

> <Gold.Chemscore.Internal.Correction.Weighted>
   9.000000E+99

> <Gold.Protein.RotatedTorsions>
[ 6907 6896 6895 6894 ] final -127.00 input  -60.11 | X-H torsion
[ 7974 7965 7964 7962 ] final   69.54 input  175.53 | X-H torsion
[ 8008 7997 7996 7995 ] final  168.09 input   59.86 | X-H torsion
[ 10167 10162 10161 10158 ] final   96.57 input  -65.29 | X-H torsion
[ 10718 10713 10712 10709 ] final -141.95 input   66.30 | X-H torsion
[ 10763 10752 10751 10750 ] final  -75.43 input  -60.55 | X-H torsion
[ 11005 11000 10999 10996 ] final   25.80 input  -57.11 | X-H torsion

> <Gold.Protein.ActiveResidues>
 VAL166  LYS551  ARG553  GLY616  TRP617  ASP618  TYR619  PRO620  LYS621  CYS622 
 ASP623  PHE694  ASN695  SER759  ASP760  ASP761  ALA762  ILE779  LEU786  VAL792 
 PHE793  MET794  SER795  GLU796  ALA797  LYS798  CYS799  TRP800  GLU811  SER814 

> <Gold.Protein.RotatedAtoms>
  150.9027  133.7098  159.2874 H   0  0  0  0  0  0  0  0  0  0  0  0  # atno 6907 bound_to 6896
  151.4611  135.1037  159.9734 H   0  0  0  0  0  0  0  0  0  0  0  0  # atno 6908 bound_to 6896
  152.4886  133.8390  159.7198 H   0  0  0  0  0  0  0  0  0  0  0  0  # atno 6909 bound_to 6896
  145.7892  139.2925  143.1220 H   0  0  0  0  0  0  0  0  0  0  0  0  # atno 7974 bound_to 7965
  156.1577  140.1599  156.8664 H   0  0  0  0  0  0  0  0  0  0  0  0  # atno 8008 bound_to 7997
  154.5131  140.0796  156.8064 H   0  0  0  0  0  0  0  0  0  0  0  0  # atno 8009 bound_to 7997
  155.3770  140.3403  155.4247 H   0  0  0  0  0  0  0  0  0  0  0  0  # atno 8010 bound_to 7997
  139.7882  144.6862  150.9929 H   0  0  0  0  0  0  0  0  0  0  0  0  # atno 10167 bound_to 10162
  156.3401  130.7633  151.1767 H   0  0  0  0  0  0  0  0  0  0  0  0  # atno 10718 bound_to 10713
  154.4864  135.5831  153.6427 H   0  0  0  0  0  0  0  0  0  0  0  0  # atno 10763 bound_to 10752
  152.9855  135.6102  154.3181 H   0  0  0  0  0  0  0  0  0  0  0  0  # atno 10764 bound_to 10752
  154.3077  135.2845  155.2560 H   0  0  0  0  0  0  0  0  0  0  0  0  # atno 10765 bound_to 10752
  140.3439  134.2302  155.7687 H   0  0  0  0  0  0  0  0  0  0  0  0  # atno 11005 bound_to 11000
  145.9995  140.8533  143.0026 LP  0  0  0  0  0  0  0  0  0  0  0  0  # atno 17320 bound_to 7965
  144.6784  140.2331  143.7353 LP  0  0  0  0  0  0  0  0  0  0  0  0  # atno 17321 bound_to 7965
  140.7820  143.4409  151.0553 LP  0  0  0  0  0  0  0  0  0  0  0  0  # atno 17342 bound_to 10162
  139.8087  143.7981  152.3169 LP  0  0  0  0  0  0  0  0  0  0  0  0  # atno 17343 bound_to 10162
  157.7445  131.0457  150.4855 LP  0  0  0  0  0  0  0  0  0  0  0  0  # atno 17370 bound_to 10713
  156.5034  130.4122  149.6340 LP  0  0  0  0  0  0  0  0  0  0  0  0  # atno 17371 bound_to 10713
  141.2031  133.7921  157.0358 LP  0  0  0  0  0  0  0  0  0  0  0  0  # atno 17394 bound_to 11000
  140.0758  134.9676  157.1543 LP  0  0  0  0  0  0  0  0  0  0  0  0  # atno 17395 bound_to 11000

$$$$
