AV-unprocessed.smi:747|AV-procd|sdf|3580|dock6
  -GOLD-   22720 0573D 1   1.00000     0.00000
 Structure written by MMmdl.
 48 49  0  0  0  0  0  0  0  0  1 V2000
  154.3187  141.0429  161.8317 C   0  0  0  0  0  0  0  0  0  0  0  0
  153.3595  141.9085  161.1780 N   0  0  0  0  0  0  0  0  0  0  0  0
  152.7797  142.9754  161.9072 C   0  0  0  0  0  0  0  0  0  0  0  0
  153.0535  143.2023  163.0861 O   0  0  0  0  0  0  0  0  0  0  0  0
  151.8330  143.7810  161.1452 C   0  0  0  0  0  0  0  0  0  0  0  0
  151.5601  143.4954  159.8533 C   0  0  0  0  0  0  0  0  0  0  0  0
  152.1400  142.4454  159.1652 N   0  0  0  0  0  0  0  0  0  0  0  0
  151.7924  142.2239  157.7559 C   0  0  0  0  0  0  0  0  0  0  0  0
  150.9482  140.9629  157.5256 C   0  0  0  0  0  0  0  0  0  0  0  0
  151.3707  139.8467  157.8312 O   0  0  0  0  0  0  0  0  0  0  0  0
  149.7465  141.1657  156.9657 N   0  0  0  0  0  0  0  0  0  0  0  0
  148.7748  140.1254  156.6204 C   0  0  2  0  0  0  0  0  0  0  0  0
  149.4699  138.9675  155.8482 C   0  0  0  0  0  0  0  0  0  0  0  0
  150.1957  139.3656  154.5530 C   0  0  0  0  0  0  0  0  0  0  0  0
  149.7235  138.8494  153.4158 N   0  0  0  0  0  0  0  0  0  0  0  0
  151.1688  140.1169  154.5701 O   0  0  0  0  0  0  0  0  0  0  0  0
  147.5488  140.7546  155.8968 C   0  0  0  0  0  0  0  0  0  0  0  0
  147.9291  141.3326  154.5102 C   0  0  0  0  0  0  0  0  0  0  0  0
  146.7242  141.9594  153.7904 C   0  0  0  0  0  0  0  0  0  0  0  0
  146.0659  143.0458  154.6503 C   0  0  0  0  0  0  0  0  0  0  0  0
  145.6646  142.4850  156.0207 C   0  0  0  0  0  0  0  0  0  0  0  0
  146.8677  141.8572  156.7426 C   0  0  0  0  0  0  0  0  0  0  0  0
  153.0715  141.6171  159.8265 C   0  0  0  0  0  0  0  0  0  0  0  0
  153.6103  140.6769  159.2369 O   0  0  0  0  0  0  0  0  0  0  0  0
  154.4776  141.3356  162.8689 H   0  0  0  0  0  0  0  0  0  0  0  0
  155.2555  141.1226  161.2774 H   0  0  0  0  0  0  0  0  0  0  0  0
  153.9181  140.0283  161.7920 H   0  0  0  0  0  0  0  0  0  0  0  0
  151.3444  144.6186  161.6210 H   0  0  0  0  0  0  0  0  0  0  0  0
  150.8544  144.1250  159.3308 H   0  0  0  0  0  0  0  0  0  0  0  0
  151.2630  143.0873  157.3494 H   0  0  0  0  0  0  0  0  0  0  0  0
  152.7063  142.1377  157.1662 H   0  0  0  0  0  0  0  0  0  0  0  0
  149.4867  142.1157  156.7425 H   0  0  0  0  0  0  0  0  0  0  0  0
  148.4002  139.7024  157.5546 H   0  0  0  0  0  0  0  0  0  0  0  0
  150.2024  138.4860  156.4971 H   0  0  0  0  0  0  0  0  0  0  0  0
  148.7400  138.1885  155.6266 H   0  0  0  0  0  0  0  0  0  0  0  0
  150.1611  139.0805  152.5358 H   0  0  0  0  0  0  0  0  0  0  0  0
  148.9261  138.2303  153.4405 H   0  0  0  0  0  0  0  0  0  0  0  0
  146.8126  139.9678  155.7259 H   0  0  0  0  0  0  0  0  0  0  0  0
  148.7106  142.0841  154.6291 H   0  0  0  0  0  0  0  0  0  0  0  0
  148.3470  140.5571  153.8682 H   0  0  0  0  0  0  0  0  0  0  0  0
  147.0416  142.3831  152.8369 H   0  0  0  0  0  0  0  0  0  0  0  0
  145.9937  141.1840  153.5563 H   0  0  0  0  0  0  0  0  0  0  0  0
  146.7573  143.8789  154.7824 H   0  0  0  0  0  0  0  0  0  0  0  0
  145.1897  143.4465  154.1397 H   0  0  0  0  0  0  0  0  0  0  0  0
  145.2359  143.2777  156.6347 H   0  0  0  0  0  0  0  0  0  0  0  0
  144.8826  141.7351  155.8944 H   0  0  0  0  0  0  0  0  0  0  0  0
  146.5184  141.4525  157.6918 H   0  0  0  0  0  0  0  0  0  0  0  0
  147.5926  142.6352  156.9861 H   0  0  0  0  0  0  0  0  0  0  0  0
  1  2  1  0  0  0  0
  1 25  1  0  0  0  0
  1 26  1  0  0  0  0
  1 27  1  0  0  0  0
  2 23  1  0  0  0  0
  2  3  1  0  0  0  0
  3  4  2  0  0  0  0
  3  5  1  0  0  0  0
  5  6  2  0  0  0  0
  5 28  1  0  0  0  0
  6  7  1  0  0  0  0
  6 29  1  0  0  0  0
  7  8  1  0  0  0  0
  7 23  1  0  0  0  0
  8  9  1  0  0  0  0
  8 30  1  0  0  0  0
  8 31  1  0  0  0  0
  9 10  2  0  0  0  0
  9 11  1  0  0  0  0
 11 12  1  0  0  0  0
 11 32  1  0  0  0  0
 12 13  1  0  0  0  0
 12 17  1  0  0  0  0
 12 33  1  0  0  0  0
 13 14  1  0  0  0  0
 13 34  1  0  0  0  0
 13 35  1  0  0  0  0
 14 15  1  0  0  0  0
 14 16  2  0  0  0  0
 15 36  1  0  0  0  0
 15 37  1  0  0  0  0
 17 22  1  0  0  0  0
 17 18  1  0  0  0  0
 17 38  1  0  0  0  0
 18 19  1  0  0  0  0
 18 39  1  0  0  0  0
 18 40  1  0  0  0  0
 19 20  1  0  0  0  0
 19 41  1  0  0  0  0
 19 42  1  0  0  0  0
 20 21  1  0  0  0  0
 20 43  1  0  0  0  0
 20 44  1  0  0  0  0
 21 22  1  0  0  0  0
 21 45  1  0  0  0  0
 21 46  1  0  0  0  0
 22 47  1  0  0  0  0
 22 48  1  0  0  0  0
 23 24  2  0  0  0  0
M  END
> <s_m_source_file>
AV-unprocessed.smi

> <i_m_source_file_index>
747

> <i_lp_mmshare_version>
43012

> <i_f3d_flags>
0

> <s_epik_input>
W0NIM11uMWMoPU8pW2NIXVtjSF1uKGMxPU8pW0NIMl1DKD1PKVtOSF1bQ0BIXShbQ0gyXUMoPU8pW05IMl0pW0NIXTJbQ0gyXVtDSDJdW0NIMl1bQ0gyXVtDSDJdMg==

> <s_epik_cmdline>
J2VwaWtfcHl0aG9uJywgJy1waCcsICc3LjAnLCAnLXRuJywgJzgnLCAnLW1hJywgJzIwMCcsICctbWV0YWxfYmluZGluZycsICctaW1hZScsICc8aW5maWxlLm1hZT4nLCAnLW9tYWUnLCAnPG91dGZpbGUubWFlPic=

> <r_lp_tautomer_probability>
1

> <r_epik_Ionization_Penalty>
6.11221e-08

> <r_epik_Ionization_Penalty_Charging>
1.14855e-08

> <r_epik_Ionization_Penalty_Neutral>
4.96365e-08

> <r_epik_State_Penalty>
-0

> <r_epik_Charging_Adjusted_Penalty>
1.14855e-08

> <i_epik_Tot_Q>
0

> <i_epik_Tot_abs_Q>
0

> <r_epik_Metal_State_Penalty>
-0

> <b_epik_Metal_Only>
0

> <s_lp_Force_Field>
OPLS_2005

> <r_lp_Energy>
14.8557

> <b_lp_Chiralities_Consistent>
1

> <s_lp_Variant>
AV-unprocessed.smi:747-1

> <Gold.Version>
5.8.1

> <Gold.Id.Protein>
6NUR|6NUR_protein|mol2

> <Gold.PLP.Fitness>
52.2816

> <Gold.PLP.PLP>
-47.4752

> <Gold.PLP.part.hbond>
-2.9432

> <Gold.PLP.part.metal>
0.0000

> <Gold.PLP.part.buried>
-8.4612

> <Gold.PLP.part.nonpolar>
-35.3585

> <Gold.PLP.part.repulsive>
0.3347

> <Gold.PLP.ligand.clash>
0.0000

> <Gold.PLP.ligand.torsion>
0.2277

> <Gold.PLP.Chemscore.Hbond>
1.6880

> <Gold.PLP.Chemscore.CHOScore>
0.0000

> <Gold.PLP.Chemscore.Metal>
0.0000

> <Gold.Chemscore.Hbonds>
donor molecule, donor type, donor heavy atom, donor atom, acceptor molecule, acceptor atom, score
      L1  H    15    36       P1  7957  0.67
      P1  H  7989  7998       L1    16  0.65

> <Gold.PLP.Chemscore.Internal.Correction>
0.1978

> <Gold.Rescore>
     Score         DG    S(hbond)    S(metal)    S(lipo)     H(rot)  DE(clash)    DE(int)     intcor
      9.44     -12.97       1.96        0.00      71.86       2.91       0.46       3.06       ----

> <Gold.Chemscore.Fitness>
9.4423

> <Gold.Chemscore.DG>
-12.9663

> <Gold.Chemscore.ZeroCoef>
-5.4800

> <Gold.Chemscore.Hbond>
1.9562

> <Gold.Chemscore.Metal>
0.0000

> <Gold.Chemscore.Lipo>
71.8614

> <Gold.Chemscore.Internal_Hbond>
0.0000

> <Gold.Chemscore.DEClash>
0.4634

> <Gold.Chemscore.DEInternal>
3.0606

> <Gold.Chemscore.Rot>
2.9122

> <Gold.Chemscore.Internal.Correction>
   9.000000E+99

> <Gold.Chemscore.Hbonds>
donor molecule, donor type, donor heavy atom, donor atom, acceptor molecule, acceptor atom, score
      L1  H    15    36       P1  7957  0.33
      P1  H  7989  7998       L1    16  0.65

> <Gold.Chemscore.Hbond.Weighted>
-6.5338

> <Gold.Chemscore.Metal.Weighted>
-0.0000

> <Gold.Chemscore.Lipo.Weighted>
-8.4078

> <Gold.Chemscore.Internal_Hbond.Weighted>
0.0000

> <Gold.Chemscore.DEClash.Weighted>
0.4634

> <Gold.Chemscore.DEInternal.Weighted>
3.0606

> <Gold.Chemscore.Rot.Weighted>
7.4553

> <Gold.Chemscore.Internal.Correction.Weighted>
   9.000000E+99

> <Gold.Protein.RotatedTorsions>
[ 6907 6896 6895 6894 ] final  127.92 input  -60.11 | X-H torsion
[ 7974 7965 7964 7962 ] final  168.71 input  175.53 | X-H torsion
[ 8008 7997 7996 7995 ] final  -10.67 input   59.86 | X-H torsion
[ 10167 10162 10161 10158 ] final  -58.97 input  -65.29 | X-H torsion
[ 10718 10713 10712 10709 ] final  -78.14 input   66.30 | X-H torsion
[ 10763 10752 10751 10750 ] final  -43.50 input  -60.55 | X-H torsion
[ 11005 11000 10999 10996 ] final -178.50 input  -57.11 | X-H torsion

> <Gold.Protein.ActiveResidues>
 VAL166  LYS551  ARG553  GLY616  TRP617  ASP618  TYR619  PRO620  LYS621  CYS622 
 ASP623  PHE694  ASN695  SER759  ASP760  ASP761  ALA762  ILE779  LEU786  VAL792 
 PHE793  MET794  SER795  GLU796  ALA797  LYS798  CYS799  TRP800  GLU811  SER814 

> <Gold.Protein.RotatedAtoms>
  152.3768  133.6492  159.6129 H   0  0  0  0  0  0  0  0  0  0  0  0  # atno 6907 bound_to 6896
  150.7710  133.9180  159.3398 H   0  0  0  0  0  0  0  0  0  0  0  0  # atno 6908 bound_to 6896
  151.6993  135.0934  160.0299 H   0  0  0  0  0  0  0  0  0  0  0  0  # atno 6909 bound_to 6896
  144.7379  139.8948  143.6405 H   0  0  0  0  0  0  0  0  0  0  0  0  # atno 7974 bound_to 7965
  154.5534  140.2323  155.8449 H   0  0  0  0  0  0  0  0  0  0  0  0  # atno 8008 bound_to 7997
  156.1967  140.3063  155.9401 H   0  0  0  0  0  0  0  0  0  0  0  0  # atno 8009 bound_to 7997
  155.3027  140.0432  157.3021 H   0  0  0  0  0  0  0  0  0  0  0  0  # atno 8010 bound_to 7997
  140.6164  143.2404  151.5586 H   0  0  0  0  0  0  0  0  0  0  0  0  # atno 10167 bound_to 10162
  156.0125  130.4510  150.3451 H   0  0  0  0  0  0  0  0  0  0  0  0  # atno 10718 bound_to 10713
  153.9966  135.6698  153.4757 H   0  0  0  0  0  0  0  0  0  0  0  0  # atno 10763 bound_to 10752
  153.0681  135.4989  154.8241 H   0  0  0  0  0  0  0  0  0  0  0  0  # atno 10764 bound_to 10752
  154.7077  135.3091  154.9207 H   0  0  0  0  0  0  0  0  0  0  0  0  # atno 10765 bound_to 10752
  140.4290  134.6536  157.4702 H   0  0  0  0  0  0  0  0  0  0  0  0  # atno 11005 bound_to 11000
  146.1115  139.4121  143.0284 LP  0  0  0  0  0  0  0  0  0  0  0  0  # atno 17320 bound_to 7965
  145.7436  140.9999  143.1288 LP  0  0  0  0  0  0  0  0  0  0  0  0  # atno 17321 bound_to 7965
  139.5402  144.2668  152.1335 LP  0  0  0  0  0  0  0  0  0  0  0  0  # atno 17342 bound_to 10162
  140.1879  144.4781  150.6494 LP  0  0  0  0  0  0  0  0  0  0  0  0  # atno 17343 bound_to 10162
  157.1545  131.0329  151.2870 LP  0  0  0  0  0  0  0  0  0  0  0  0  # atno 17370 bound_to 10713
  157.4364  130.7519  149.7032 LP  0  0  0  0  0  0  0  0  0  0  0  0  # atno 17371 bound_to 10713
  140.0147  134.6637  155.9328 LP  0  0  0  0  0  0  0  0  0  0  0  0  # atno 17394 bound_to 11000
  141.1753  133.6540  156.4805 LP  0  0  0  0  0  0  0  0  0  0  0  0  # atno 17395 bound_to 11000

$$$$
