AV-unprocessed.smi:893|AV-procd|sdf|4070|dock9
  -GOLD-   22720 1553D 1   1.00000     0.00000
 Structure written by MMmdl.
 26 27  0  0  0  0  0  0  0  0  2 V2000
  152.1469  137.8752  159.0095 C   0  0  0  0  0  0  0  0  0  0  0  0
  152.4108  139.3451  159.3895 C   0  0  0  0  0  0  0  0  0  0  0  0
  151.8894  140.4209  158.3973 C   0  0  1  0  0  0  0  0  0  0  0  0
  152.1174  141.8159  158.9584 C   0  0  0  0  0  0  0  0  0  0  0  0
  152.7493  142.1704  160.1881 C   0  0  0  0  0  0  0  0  0  0  0  0
  152.7962  143.4762  160.3954 N   0  0  0  0  0  0  0  0  0  0  0  0
  152.2015  144.0066  159.3085 N   0  0  0  0  0  0  0  0  0  0  0  0
  152.0740  145.4434  159.1934 C   0  0  0  0  0  0  0  0  0  0  0  0
  151.7859  143.0335  158.4266 C   0  0  0  0  0  0  0  0  0  0  0  0
  152.5091  140.2517  157.0888 N   0  5  0  0  0  0  0  0  0  0  0  0
  151.5352  140.0711  156.1651 C   0  0  0  0  0  0  0  0  0  0  0  0
  151.6680  139.9109  154.9540 O   0  0  0  0  0  0  0  0  0  0  0  0
  150.3293  140.0808  156.7418 N   0  0  0  0  0  0  0  0  0  0  0  0
  150.4128  140.2586  158.0569 C   0  0  0  0  0  0  0  0  0  0  0  0
  149.4840  140.2839  158.8642 O   0  0  0  0  0  0  0  0  0  0  0  0
  152.5731  137.2050  159.7561 H   0  0  0  0  0  0  0  0  0  0  0  0
  152.5977  137.6228  158.0497 H   0  0  0  0  0  0  0  0  0  0  0  0
  151.0809  137.6571  158.9489 H   0  0  0  0  0  0  0  0  0  0  0  0
  151.9687  139.5180  160.3715 H   0  0  0  0  0  0  0  0  0  0  0  0
  153.4847  139.4799  159.5258 H   0  0  0  0  0  0  0  0  0  0  0  0
  153.1716  141.5144  160.9350 H   0  0  0  0  0  0  0  0  0  0  0  0
  151.5627  145.7000  158.2651 H   0  0  0  0  0  0  0  0  0  0  0  0
  153.0629  145.9029  159.1921 H   0  0  0  0  0  0  0  0  0  0  0  0
  151.4981  145.8318  160.0340 H   0  0  0  0  0  0  0  0  0  0  0  0
  151.2904  143.2826  157.4996 H   0  0  0  0  0  0  0  0  0  0  0  0
  149.4627  139.9530  156.2411 H   0  0  0  0  0  0  0  0  0  0  0  0
  1  2  1  0  0  0  0
  1 16  1  0  0  0  0
  1 17  1  0  0  0  0
  1 18  1  0  0  0  0
  2  3  1  0  0  0  0
  2 19  1  0  0  0  0
  2 20  1  0  0  0  0
  3 14  1  0  0  0  0
  3  4  1  0  0  0  0
  3 10  1  0  0  0  0
  4  9  2  0  0  0  0
  4  5  1  0  0  0  0
  5  6  2  0  0  0  0
  5 21  1  0  0  0  0
  6  7  1  0  0  0  0
  7  8  1  0  0  0  0
  7  9  1  0  0  0  0
  8 22  1  0  0  0  0
  8 23  1  0  0  0  0
  8 24  1  0  0  0  0
  9 25  1  0  0  0  0
 10 11  1  0  0  0  0
 11 12  2  0  0  0  0
 11 13  1  0  0  0  0
 13 14  1  0  0  0  0
 13 26  1  0  0  0  0
 14 15  2  0  0  0  0
M  CHG  1  10  -1
M  END
> <s_m_source_file>
AV-unprocessed.smi

> <i_m_source_file_index>
893

> <i_lp_mmshare_version>
43012

> <i_f3d_flags>
0

> <s_epik_input>
Tz1DMVtOSF1DKD1PKVtOSF1bQ0BAXTEoW0NIMl1bQ0gzXSljMltjSF1ubihbQ0gzXSlbY0hdMg==

> <s_epik_cmdline>
J2VwaWtfcHl0aG9uJywgJy1waCcsICc3LjAnLCAnLXRuJywgJzgnLCAnLW1hJywgJzIwMCcsICctbWV0YWxfYmluZGluZycsICctaW1hZScsICc8aW5maWxlLm1hZT4nLCAnLW9tYWUnLCAnPG91dGZpbGUubWFlPic=

> <r_lp_tautomer_probability>
1

> <r_epik_Ionization_Penalty>
4.97057

> <r_epik_Ionization_Penalty_Charging>
4.97009

> <r_epik_Ionization_Penalty_Neutral>
0.000472554

> <r_epik_State_Penalty>
4.98892

> <r_epik_Charging_Adjusted_Penalty>
9.95901

> <i_epik_Tot_Q>
-1

> <i_epik_Tot_abs_Q>
1

> <r_epik_Metal_State_Penalty>
1.41037

> <b_epik_Metal_Only>
1

> <s_lp_Force_Field>
OPLS_2005

> <r_lp_Energy>
9.72866

> <b_lp_Chiralities_Consistent>
1

> <s_lp_Variant>
AV-unprocessed.smi:893-5

> <Gold.Version>
5.8.1

> <Gold.Id.Protein>
6NUR|6NUR_protein|mol2

> <Gold.PLP.Fitness>
36.9539

> <Gold.PLP.PLP>
-28.0040

> <Gold.PLP.part.hbond>
-3.9889

> <Gold.PLP.part.metal>
0.0000

> <Gold.PLP.part.buried>
-0.3191

> <Gold.PLP.part.nonpolar>
-23.5492

> <Gold.PLP.part.repulsive>
0.0851

> <Gold.PLP.ligand.clash>
0.0000

> <Gold.PLP.ligand.torsion>
0.0689

> <Gold.PLP.Chemscore.Hbond>
3.0000

> <Gold.PLP.Chemscore.CHOScore>
0.0000

> <Gold.PLP.Chemscore.Metal>
0.0000

> <Gold.Chemscore.Hbonds>
donor molecule, donor type, donor heavy atom, donor atom, acceptor molecule, acceptor atom, score
      P1  H  7989  7998       L1    12  1.00
      P1  H  7997  8009       L1    10  2.00

> <Gold.PLP.Chemscore.Internal.Correction>
0.0877

> <Gold.Rescore>
     Score         DG    S(hbond)    S(metal)    S(lipo)     H(rot)  DE(clash)    DE(int)     intcor
     14.67     -15.87       1.96        0.00      60.94       1.28       1.14       0.06       ----

> <Gold.Chemscore.Fitness>
14.6741

> <Gold.Chemscore.DG>
-15.8722

> <Gold.Chemscore.ZeroCoef>
-5.4800

> <Gold.Chemscore.Hbond>
1.9583

> <Gold.Chemscore.Metal>
0.0000

> <Gold.Chemscore.Lipo>
60.9374

> <Gold.Chemscore.Internal_Hbond>
0.0000

> <Gold.Chemscore.DEClash>
1.1374

> <Gold.Chemscore.DEInternal>
0.0607

> <Gold.Chemscore.Rot>
1.2805

> <Gold.Chemscore.Internal.Correction>
   9.000000E+99

> <Gold.Chemscore.Hbonds>
donor molecule, donor type, donor heavy atom, donor atom, acceptor molecule, acceptor atom, score
      P1  H  7989  7998       L1    12  0.97
      P1  H  7997  8009       L1    10  0.94

> <Gold.Chemscore.Hbond.Weighted>
-6.5407

> <Gold.Chemscore.Metal.Weighted>
-0.0000

> <Gold.Chemscore.Lipo.Weighted>
-7.1297

> <Gold.Chemscore.Internal_Hbond.Weighted>
0.0000

> <Gold.Chemscore.DEClash.Weighted>
1.1374

> <Gold.Chemscore.DEInternal.Weighted>
0.0607

> <Gold.Chemscore.Rot.Weighted>
3.2782

> <Gold.Chemscore.Internal.Correction.Weighted>
   9.000000E+99

> <Gold.Protein.RotatedTorsions>
[ 6907 6896 6895 6894 ] final  -49.66 input  -60.11 | X-H torsion
[ 7974 7965 7964 7962 ] final  -80.60 input  175.53 | X-H torsion
[ 8008 7997 7996 7995 ] final  179.07 input   59.86 | X-H torsion
[ 10167 10162 10161 10158 ] final  -77.61 input  -65.29 | X-H torsion
[ 10718 10713 10712 10709 ] final  108.52 input   66.30 | X-H torsion
[ 10763 10752 10751 10750 ] final -170.14 input  -60.55 | X-H torsion
[ 11005 11000 10999 10996 ] final  100.54 input  -57.11 | X-H torsion

> <Gold.Protein.ActiveResidues>
 VAL166  LYS551  ARG553  GLY616  TRP617  ASP618  TYR619  PRO620  LYS621  CYS622 
 ASP623  PHE694  ASN695  SER759  ASP760  ASP761  ALA762  ILE779  LEU786  VAL792 
 PHE793  MET794  SER795  GLU796  ALA797  LYS798  CYS799  TRP800  GLU811  SER814 

> <Gold.Protein.RotatedAtoms>
  150.8783  134.8170  159.7206 H   0  0  0  0  0  0  0  0  0  0  0  0  # atno 6907 bound_to 6896
  152.4761  134.4836  159.9683 H   0  0  0  0  0  0  0  0  0  0  0  0  # atno 6908 bound_to 6896
  151.4914  133.3485  159.2889 H   0  0  0  0  0  0  0  0  0  0  0  0  # atno 6909 bound_to 6896
  145.5578  140.9487  143.1464 H   0  0  0  0  0  0  0  0  0  0  0  0  # atno 7974 bound_to 7965
  156.0475  140.1317  157.0087 H   0  0  0  0  0  0  0  0  0  0  0  0  # atno 8008 bound_to 7997
  154.4419  140.1017  156.6398 H   0  0  0  0  0  0  0  0  0  0  0  0  # atno 8009 bound_to 7997
  155.5574  140.3464  155.4485 H   0  0  0  0  0  0  0  0  0  0  0  0  # atno 8010 bound_to 7997
  140.4755  143.2415  151.8140 H   0  0  0  0  0  0  0  0  0  0  0  0  # atno 10167 bound_to 10162
  157.6582  131.0895  150.6318 H   0  0  0  0  0  0  0  0  0  0  0  0  # atno 10718 bound_to 10713
  154.6447  135.2903  155.0060 H   0  0  0  0  0  0  0  0  0  0  0  0  # atno 10763 bound_to 10752
  154.1174  135.6553  153.4900 H   0  0  0  0  0  0  0  0  0  0  0  0  # atno 10764 bound_to 10752
  153.0345  135.5279  154.7329 H   0  0  0  0  0  0  0  0  0  0  0  0  # atno 10765 bound_to 10752
  139.8771  134.9145  156.4772 H   0  0  0  0  0  0  0  0  0  0  0  0  # atno 11005 bound_to 11000
  144.7498  139.7224  143.7278 LP  0  0  0  0  0  0  0  0  0  0  0  0  # atno 17320 bound_to 7965
  146.1872  139.5094  142.9828 LP  0  0  0  0  0  0  0  0  0  0  0  0  # atno 17321 bound_to 7965
  139.4825  144.4839  151.9272 LP  0  0  0  0  0  0  0  0  0  0  0  0  # atno 17342 bound_to 10162
  140.3924  144.2598  150.5898 LP  0  0  0  0  0  0  0  0  0  0  0  0  # atno 17343 bound_to 10162
  156.6622  130.4515  149.5684 LP  0  0  0  0  0  0  0  0  0  0  0  0  # atno 17370 bound_to 10713
  156.2058  130.6648  151.1217 LP  0  0  0  0  0  0  0  0  0  0  0  0  # atno 17371 bound_to 10713
  140.8753  133.7957  155.9408 LP  0  0  0  0  0  0  0  0  0  0  0  0  # atno 17394 bound_to 11000
  140.8910  134.2495  157.5094 LP  0  0  0  0  0  0  0  0  0  0  0  0  # atno 17395 bound_to 11000

$$$$
