AV-unprocessed.smi:1388|AV-procd|sdf|5644|dock8
  -GOLD-   22720 5263D 1   1.00000     0.00000
 Structure written by MMmdl.
 45 46  0  0  0  0  0  0  0  0  3 V2000
  152.6027  138.4116  154.8003 C   0  0  0  0  0  0  0  0  0  0  0  0
  151.9710  139.6760  155.1594 N   0  5  0  0  0  0  0  0  0  0  0  0
  151.7898  140.0861  156.4457 C   0  0  0  0  0  0  0  0  0  0  0  0
  152.4406  139.8441  157.4670 O   0  0  0  0  0  0  0  0  0  0  0  0
  150.5554  140.9890  156.5707 C   0  0  0  0  0  0  0  0  0  0  0  0
  149.4070  140.4332  155.8090 N   0  3  2  0  0  0  0  0  0  0  0  0
  149.2774  141.0348  154.4583 C   0  0  0  0  0  0  0  0  0  0  0  0
  148.1833  140.3302  153.6388 C   0  0  0  0  0  0  0  0  0  0  0  0
  146.8332  140.3474  154.3786 C   0  0  1  0  0  0  0  0  0  0  0  0
  145.8276  139.5873  153.6421 N   0  0  0  0  0  0  0  0  0  0  0  0
  145.8586  138.2623  153.4373 C   0  0  0  0  0  0  0  0  0  0  0  0
  146.7534  137.5319  153.8641 O   0  0  0  0  0  0  0  0  0  0  0  0
  144.7940  137.8560  152.7232 N   0  0  0  0  0  0  0  0  0  0  0  0
  144.4795  136.5425  152.2728 C   0  0  0  0  0  0  0  0  0  0  0  0
  145.2417  135.8779  151.3681 N   0  0  0  0  0  0  0  0  0  0  0  0
  144.8818  134.6384  150.9772 C   0  0  0  0  0  0  0  0  0  0  0  0
  143.7380  133.9824  151.4632 C   0  0  0  0  0  0  0  0  0  0  0  0
  142.9377  134.6560  152.4018 C   0  0  0  0  0  0  0  0  0  0  0  0
  143.3066  135.9534  152.8167 C   0  0  0  0  0  0  0  0  0  0  0  0
  142.4423  136.6832  153.8324 C   0  0  0  0  0  0  0  0  0  0  0  0
  147.0090  139.7537  155.7852 C   0  0  0  0  0  0  0  0  0  0  0  0
  148.1223  140.4798  156.5572 C   0  0  0  0  0  0  0  0  0  0  0  0
  152.6891  138.2952  153.7202 H   0  0  0  0  0  0  0  0  0  0  0  0
  152.0375  137.5508  155.1588 H   0  0  0  0  0  0  0  0  0  0  0  0
  153.6115  138.3187  155.2031 H   0  0  0  0  0  0  0  0  0  0  0  0
  150.2824  141.1283  157.6180 H   0  0  0  0  0  0  0  0  0  0  0  0
  150.8245  141.9738  156.1848 H   0  0  0  0  0  0  0  0  0  0  0  0
  149.0530  142.0985  154.5529 H   0  0  0  0  0  0  0  0  0  0  0  0
  150.2273  140.9560  153.9279 H   0  0  0  0  0  0  0  0  0  0  0  0
  148.0867  140.8139  152.6661 H   0  0  0  0  0  0  0  0  0  0  0  0
  148.4864  139.3003  153.4432 H   0  0  0  0  0  0  0  0  0  0  0  0
  146.4971  141.3810  154.4842 H   0  0  0  0  0  0  0  0  0  0  0  0
  145.0543  140.1100  153.2572 H   0  0  0  0  0  0  0  0  0  0  0  0
  144.1301  138.5705  152.4644 H   0  0  0  0  0  0  0  0  0  0  0  0
  145.5242  134.1569  150.2549 H   0  0  0  0  0  0  0  0  0  0  0  0
  143.4820  132.9892  151.1247 H   0  0  0  0  0  0  0  0  0  0  0  0
  142.0517  134.1798  152.7956 H   0  0  0  0  0  0  0  0  0  0  0  0
  141.6082  136.0631  154.1619 H   0  0  0  0  0  0  0  0  0  0  0  0
  142.0319  137.5956  153.3986 H   0  0  0  0  0  0  0  0  0  0  0  0
  143.0284  136.9501  154.7123 H   0  0  0  0  0  0  0  0  0  0  0  0
  146.0726  139.8207  156.3406 H   0  0  0  0  0  0  0  0  0  0  0  0
  147.2528  138.6924  155.7149 H   0  0  0  0  0  0  0  0  0  0  0  0
  148.2362  140.0127  157.5358 H   0  0  0  0  0  0  0  0  0  0  0  0
  147.8408  141.5188  156.7352 H   0  0  0  0  0  0  0  0  0  0  0  0
  149.6322  139.4575  155.6692 H   0  0  0  0  0  0  0  0  0  0  0  0
  1  2  1  0  0  0  0
  1 23  1  0  0  0  0
  1 24  1  0  0  0  0
  1 25  1  0  0  0  0
  2  3  1  0  0  0  0
  3  4  2  0  0  0  0
  3  5  1  0  0  0  0
  5  6  1  0  0  0  0
  5 26  1  0  0  0  0
  5 27  1  0  0  0  0
  6 22  1  0  0  0  0
  6  7  1  0  0  0  0
  6 45  1  0  0  0  0
  7  8  1  0  0  0  0
  7 28  1  0  0  0  0
  7 29  1  0  0  0  0
  8  9  1  0  0  0  0
  8 30  1  0  0  0  0
  8 31  1  0  0  0  0
  9 10  1  0  0  0  0
  9 21  1  0  0  0  0
  9 32  1  0  0  0  0
 10 11  1  0  0  0  0
 10 33  1  0  0  0  0
 11 12  2  0  0  0  0
 11 13  1  0  0  0  0
 13 14  1  0  0  0  0
 13 34  1  0  0  0  0
 14 19  1  0  0  0  0
 14 15  2  0  0  0  0
 15 16  1  0  0  0  0
 16 17  2  0  0  0  0
 16 35  1  0  0  0  0
 17 18  1  0  0  0  0
 17 36  1  0  0  0  0
 18 19  2  0  0  0  0
 18 37  1  0  0  0  0
 19 20  1  0  0  0  0
 20 38  1  0  0  0  0
 20 39  1  0  0  0  0
 20 40  1  0  0  0  0
 21 22  1  0  0  0  0
 21 41  1  0  0  0  0
 21 42  1  0  0  0  0
 22 43  1  0  0  0  0
 22 44  1  0  0  0  0
M  CHG  1   2  -1
M  CHG  1   6   1
M  END
> <s_m_source_file>
AV-unprocessed.smi

> <i_m_source_file_index>
1388

> <i_lp_mmshare_version>
43012

> <i_f3d_flags>
0

> <s_epik_input>
W0NIM11bTkhdQyg9TylbQ0gyXU4xW0NIMl1bQ0gyXVtDSF0oW0NIMl1bQ0gyXTEpW05IXUMoPU8pW05IXWMybltjSF1bY0hdW2NIXWMyW0NIM10=

> <s_epik_cmdline>
J2VwaWtfcHl0aG9uJywgJy1waCcsICc3LjAnLCAnLXRuJywgJzgnLCAnLW1hJywgJzIwMCcsICctbWV0YWxfYmluZGluZycsICctaW1hZScsICc8aW5maWxlLm1hZT4nLCAnLW9tYWUnLCAnPG91dGZpbGUubWFlPic=

> <r_epik_Ionization_Penalty>
6.13951

> <r_epik_Ionization_Penalty_Charging>
6.13946

> <r_epik_Ionization_Penalty_Neutral>
4.54304e-05

> <r_epik_State_Penalty>
6.9595

> <r_epik_Charging_Adjusted_Penalty>
13.099

> <i_epik_Tot_Q>
0

> <i_epik_Tot_abs_Q>
2

> <r_epik_Metal_State_Penalty>
2.89141

> <b_epik_Metal_Only>
1

> <s_lp_Force_Field>
OPLS_2005

> <r_lp_Energy>
12.447

> <b_lp_Chiralities_Consistent>
1

> <s_lp_Variant>
AV-unprocessed.smi:1388-4

> <Gold.Version>
5.8.1

> <Gold.Id.Protein>
6NUR|6NUR_protein|mol2

> <Gold.PLP.Fitness>
44.2182

> <Gold.PLP.PLP>
-32.8170

> <Gold.PLP.part.hbond>
-4.5894

> <Gold.PLP.part.metal>
0.0000

> <Gold.PLP.part.buried>
-4.1285

> <Gold.PLP.part.nonpolar>
-25.2752

> <Gold.PLP.part.repulsive>
0.4886

> <Gold.PLP.ligand.clash>
0.0000

> <Gold.PLP.ligand.torsion>
1.5890

> <Gold.PLP.Chemscore.Hbond>
3.8400

> <Gold.PLP.Chemscore.CHOScore>
1.0000

> <Gold.PLP.Chemscore.Metal>
0.0000

> <Gold.Chemscore.Hbonds>
donor molecule, donor type, donor heavy atom, donor atom, acceptor molecule, acceptor atom, score
      L1  H    10    33       P1 10175  1.00
      L1  H    13    34       P1 10175  0.98
      P1  H  7989  7998       L1     2  0.86
      P1  H  7997  8008       L1     4  0.80
      L1  C    16    35       P1  7921  0.41

> <Gold.PLP.Chemscore.Internal.Correction>
0.0592

> <Gold.Rescore>
     Score         DG    S(hbond)    S(metal)    S(lipo)     H(rot)  DE(clash)    DE(int)     intcor
     16.47     -20.41       3.64        0.00      59.25       1.63       0.63       3.30       ----

> <Gold.Chemscore.Fitness>
16.4727

> <Gold.Chemscore.DG>
-20.4068

> <Gold.Chemscore.ZeroCoef>
-5.4800

> <Gold.Chemscore.Hbond>
3.6431

> <Gold.Chemscore.Metal>
0.0000

> <Gold.Chemscore.Lipo>
59.2500

> <Gold.Chemscore.Internal_Hbond>
0.0000

> <Gold.Chemscore.DEClash>
0.6318

> <Gold.Chemscore.DEInternal>
3.3023

> <Gold.Chemscore.Rot>
1.6303

> <Gold.Chemscore.Internal.Correction>
   9.000000E+99

> <Gold.Chemscore.Hbonds>
donor molecule, donor type, donor heavy atom, donor atom, acceptor molecule, acceptor atom, score
      L1  H    10    33       P1 10175  0.99
      L1  H    13    34       P1 10175  0.93
      P1  H  7989  7998       L1     2  0.62
      P1  H  7997  8008       L1     4  0.20

> <Gold.Chemscore.Hbond.Weighted>
-12.1681

> <Gold.Chemscore.Metal.Weighted>
-0.0000

> <Gold.Chemscore.Lipo.Weighted>
-6.9323

> <Gold.Chemscore.Internal_Hbond.Weighted>
0.0000

> <Gold.Chemscore.DEClash.Weighted>
0.6318

> <Gold.Chemscore.DEInternal.Weighted>
3.3023

> <Gold.Chemscore.Rot.Weighted>
4.1735

> <Gold.Chemscore.Internal.Correction.Weighted>
   9.000000E+99

> <Gold.Protein.RotatedTorsions>
[ 6907 6896 6895 6894 ] final   40.20 input  -60.11 | X-H torsion
[ 7974 7965 7964 7962 ] final  117.65 input  175.53 | X-H torsion
[ 8008 7997 7996 7995 ] final  -64.48 input   59.86 | X-H torsion
[ 10167 10162 10161 10158 ] final  131.05 input  -65.29 | X-H torsion
[ 10718 10713 10712 10709 ] final -168.62 input   66.30 | X-H torsion
[ 10763 10752 10751 10750 ] final -163.19 input  -60.55 | X-H torsion
[ 11005 11000 10999 10996 ] final -169.07 input  -57.11 | X-H torsion

> <Gold.Protein.ActiveResidues>
 VAL166  LYS551  ARG553  GLY616  TRP617  ASP618  TYR619  PRO620  LYS621  CYS622 
 ASP623  PHE694  ASN695  SER759  ASP760  ASP761  ALA762  ILE779  LEU786  VAL792 
 PHE793  MET794  SER795  GLU796  ALA797  LYS798  CYS799  TRP800  GLU811  SER814 

> <Gold.Protein.RotatedAtoms>
  152.1794  134.8767  160.0527 H   0  0  0  0  0  0  0  0  0  0  0  0  # atno 6907 bound_to 6896
  151.9696  133.3716  159.4074 H   0  0  0  0  0  0  0  0  0  0  0  0  # atno 6908 bound_to 6896
  150.6915  134.4077  159.5191 H   0  0  0  0  0  0  0  0  0  0  0  0  # atno 6909 bound_to 6896
  145.1648  139.3134  143.4498 H   0  0  0  0  0  0  0  0  0  0  0  0  # atno 7974 bound_to 7965
  154.4614  140.0953  156.6904 H   0  0  0  0  0  0  0  0  0  0  0  0  # atno 8008 bound_to 7997
  155.4983  140.3473  155.4348 H   0  0  0  0  0  0  0  0  0  0  0  0  # atno 8009 bound_to 7997
  156.0877  140.1389  156.9620 H   0  0  0  0  0  0  0  0  0  0  0  0  # atno 8010 bound_to 7997
  139.5401  144.6722  151.4652 H   0  0  0  0  0  0  0  0  0  0  0  0  # atno 10167 bound_to 10162
  156.6996  130.9191  151.3078 H   0  0  0  0  0  0  0  0  0  0  0  0  # atno 10718 bound_to 10713
  154.7145  135.3013  154.9145 H   0  0  0  0  0  0  0  0  0  0  0  0  # atno 10763 bound_to 10752
  154.0036  135.6704  153.4765 H   0  0  0  0  0  0  0  0  0  0  0  0  # atno 10764 bound_to 10752
  153.0782  135.5023  154.8363 H   0  0  0  0  0  0  0  0  0  0  0  0  # atno 10765 bound_to 10752
  140.5349  134.5580  157.5084 H   0  0  0  0  0  0  0  0  0  0  0  0  # atno 11005 bound_to 11000
  146.3477  140.1772  142.8589 LP  0  0  0  0  0  0  0  0  0  0  0  0  # atno 17320 bound_to 7965
  145.0293  140.8858  143.5119 LP  0  0  0  0  0  0  0  0  0  0  0  0  # atno 17321 bound_to 7965
  140.6627  143.8463  150.6906 LP  0  0  0  0  0  0  0  0  0  0  0  0  # atno 17342 bound_to 10162
  140.1863  143.4073  152.1896 LP  0  0  0  0  0  0  0  0  0  0  0  0  # atno 17343 bound_to 10162
  157.6978  130.9300  150.0696 LP  0  0  0  0  0  0  0  0  0  0  0  0  # atno 17370 bound_to 10713
  156.1738  130.3647  149.9128 LP  0  0  0  0  0  0  0  0  0  0  0  0  # atno 17371 bound_to 10713
  139.9535  134.7576  156.0395 LP  0  0  0  0  0  0  0  0  0  0  0  0  # atno 17394 bound_to 11000
  141.1261  133.6599  156.3339 LP  0  0  0  0  0  0  0  0  0  0  0  0  # atno 17395 bound_to 11000

$$$$
