AV-unprocessed.smi:2138|AV-procd|sdf|8711|dock6
  -GOLD-   2272011473D 1   1.00000     0.00000
 Structure written by MMmdl.
 46 47  0  0  0  0  0  0  0  0  1 V2000
  152.8872  143.5613  158.9860 C   0  0  0  0  0  0  0  0  0  0  0  0
  152.2019  142.4318  158.4744 O   0  0  0  0  0  0  0  0  0  0  0  0
  151.0768  142.7896  157.6896 C   0  0  0  0  0  0  0  0  0  0  0  0
  150.3499  141.5165  157.2483 C   0  0  0  0  0  0  0  0  0  0  0  0
  150.8966  141.0854  156.0056 O   0  0  0  0  0  0  0  0  0  0  0  0
  150.7995  139.7501  155.6708 C   0  0  0  0  0  0  0  0  0  0  0  0
  150.5181  138.8183  156.6893 C   0  0  0  0  0  0  0  0  0  0  0  0
  150.4118  137.4540  156.3564 C   0  0  0  0  0  0  0  0  0  0  0  0
  150.5986  137.0614  155.0085 C   0  0  0  0  0  0  0  0  0  0  0  0
  150.5036  135.7261  154.5281 N   0  0  0  0  0  0  0  0  0  0  0  0
  150.0340  134.6251  155.1442 C   0  0  0  0  0  0  0  0  0  0  0  0
  149.6078  134.5921  156.2983 O   0  0  0  0  0  0  0  0  0  0  0  0
  150.0638  133.3340  154.3098 C   0  0  1  0  0  0  0  0  0  0  0  0
  149.6983  132.0998  155.1560 C   0  0  0  0  0  0  0  0  0  0  0  0
  148.3625  131.6456  154.5913 C   0  0  0  0  0  0  0  0  0  0  0  0
  147.7166  130.7245  155.0886 O   0  0  0  0  0  0  0  0  0  0  0  0
  148.0134  132.3770  153.5228 N   0  0  0  0  0  0  0  0  0  0  0  0
  146.8005  132.2591  152.7035 C   0  0  0  0  0  0  0  0  0  0  0  0
  146.5327  130.7996  152.2962 C   0  0  0  0  0  0  0  0  0  0  0  0
  146.8466  133.2008  151.4878 C   0  0  0  0  0  0  0  0  0  0  0  0
  149.0307  133.3530  153.1634 C   0  0  0  0  0  0  0  0  0  0  0  0
  150.8712  138.0740  154.0653 C   0  0  0  0  0  0  0  0  0  0  0  0
  150.9730  139.3829  154.3774 N   0  0  0  0  0  0  0  0  0  0  0  0
  153.7426  143.2339  159.5771 H   0  0  0  0  0  0  0  0  0  0  0  0
  152.2400  144.1566  159.6314 H   0  0  0  0  0  0  0  0  0  0  0  0
  153.2583  144.1964  158.1803 H   0  0  0  0  0  0  0  0  0  0  0  0
  150.4021  143.4239  158.2665 H   0  0  0  0  0  0  0  0  0  0  0  0
  151.3977  143.3575  156.8148 H   0  0  0  0  0  0  0  0  0  0  0  0
  150.4767  140.7413  158.0060 H   0  0  0  0  0  0  0  0  0  0  0  0
  149.2824  141.7197  157.1463 H   0  0  0  0  0  0  0  0  0  0  0  0
  150.3800  139.1453  157.7095 H   0  0  0  0  0  0  0  0  0  0  0  0
  150.1795  136.7506  157.1395 H   0  0  0  0  0  0  0  0  0  0  0  0
  150.8683  135.5809  153.5978 H   0  0  0  0  0  0  0  0  0  0  0  0
  151.0630  133.2037  153.8906 H   0  0  0  0  0  0  0  0  0  0  0  0
  150.4344  131.3053  155.0300 H   0  0  0  0  0  0  0  0  0  0  0  0
  149.6091  132.3087  156.2235 H   0  0  0  0  0  0  0  0  0  0  0  0
  145.9587  132.5767  153.3208 H   0  0  0  0  0  0  0  0  0  0  0  0
  145.5779  130.7108  151.7775 H   0  0  0  0  0  0  0  0  0  0  0  0
  146.4937  130.1493  153.1709 H   0  0  0  0  0  0  0  0  0  0  0  0
  147.3036  130.4147  151.6284 H   0  0  0  0  0  0  0  0  0  0  0  0
  145.9006  133.1829  150.9461 H   0  0  0  0  0  0  0  0  0  0  0  0
  147.6302  132.9187  150.7844 H   0  0  0  0  0  0  0  0  0  0  0  0
  147.0283  134.2308  151.7962 H   0  0  0  0  0  0  0  0  0  0  0  0
  148.5811  134.3364  153.0127 H   0  0  0  0  0  0  0  0  0  0  0  0
  149.4944  133.0574  152.2213 H   0  0  0  0  0  0  0  0  0  0  0  0
  151.0133  137.8279  153.0231 H   0  0  0  0  0  0  0  0  0  0  0  0
  1  2  1  0  0  0  0
  1 24  1  0  0  0  0
  1 25  1  0  0  0  0
  1 26  1  0  0  0  0
  2  3  1  0  0  0  0
  3  4  1  0  0  0  0
  3 27  1  0  0  0  0
  3 28  1  0  0  0  0
  4  5  1  0  0  0  0
  4 29  1  0  0  0  0
  4 30  1  0  0  0  0
  5  6  1  0  0  0  0
  6 23  1  0  0  0  0
  6  7  2  0  0  0  0
  7  8  1  0  0  0  0
  7 31  1  0  0  0  0
  8  9  2  0  0  0  0
  8 32  1  0  0  0  0
  9 10  1  0  0  0  0
  9 22  1  0  0  0  0
 10 11  1  0  0  0  0
 10 33  1  0  0  0  0
 11 12  2  0  0  0  0
 11 13  1  0  0  0  0
 13 21  1  0  0  0  0
 13 14  1  0  0  0  0
 13 34  1  0  0  0  0
 14 15  1  0  0  0  0
 14 35  1  0  0  0  0
 14 36  1  0  0  0  0
 15 16  2  0  0  0  0
 15 17  1  0  0  0  0
 17 18  1  0  0  0  0
 17 21  1  0  0  0  0
 18 19  1  0  0  0  0
 18 20  1  0  0  0  0
 18 37  1  0  0  0  0
 19 38  1  0  0  0  0
 19 39  1  0  0  0  0
 19 40  1  0  0  0  0
 20 41  1  0  0  0  0
 20 42  1  0  0  0  0
 20 43  1  0  0  0  0
 21 44  1  0  0  0  0
 21 45  1  0  0  0  0
 22 23  2  0  0  0  0
 22 46  1  0  0  0  0
M  END
> <s_m_source_file>
AV-unprocessed.smi

> <i_m_source_file_index>
2138

> <i_lp_mmshare_version>
43012

> <i_f3d_flags>
0

> <s_epik_input>
W0NIM11PW0NIMl1bQ0gyXU9jMVtjSF1bY0hdYyhbY0hdbjEpW05IXUMoPU8pW0NAQEhdMltDSDJdQyg9TylOKFtDSDJdMilbQ0hdKFtDSDNdKVtDSDNd

> <s_epik_cmdline>
J2VwaWtfcHl0aG9uJywgJy1waCcsICc3LjAnLCAnLXRuJywgJzgnLCAnLW1hJywgJzIwMCcsICctbWV0YWxfYmluZGluZycsICctaW1hZScsICc8aW5maWxlLm1hZT4nLCAnLW9tYWUnLCAnPG91dGZpbGUubWFlPic=

> <r_lp_tautomer_probability>
1

> <r_epik_Ionization_Penalty>
1.72652e-05

> <r_epik_Ionization_Penalty_Charging>
0

> <r_epik_Ionization_Penalty_Neutral>
1.72652e-05

> <r_epik_State_Penalty>
-0

> <r_epik_Charging_Adjusted_Penalty>
0

> <i_epik_Tot_Q>
0

> <i_epik_Tot_abs_Q>
0

> <r_epik_Metal_State_Penalty>
-0

> <b_epik_Metal_Only>
0

> <s_lp_Force_Field>
OPLS_2005

> <r_lp_Energy>
21.5992

> <b_lp_Chiralities_Consistent>
1

> <s_lp_Variant>
AV-unprocessed.smi:2138-2

> <Gold.Version>
5.8.1

> <Gold.Id.Protein>
6NUR|6NUR_protein|mol2

> <Gold.PLP.Fitness>
42.4168

> <Gold.PLP.PLP>
-36.8494

> <Gold.PLP.part.hbond>
-2.2864

> <Gold.PLP.part.metal>
0.0000

> <Gold.PLP.part.buried>
-4.1556

> <Gold.PLP.part.nonpolar>
-30.3018

> <Gold.PLP.part.repulsive>
0.2992

> <Gold.PLP.ligand.clash>
0.0000

> <Gold.PLP.ligand.torsion>
0.8740

> <Gold.PLP.Chemscore.Hbond>
1.3868

> <Gold.PLP.Chemscore.CHOScore>
1.0209

> <Gold.PLP.Chemscore.Metal>
0.0000

> <Gold.Chemscore.Hbonds>
donor molecule, donor type, donor heavy atom, donor atom, acceptor molecule, acceptor atom, score
      L1  H    10    33       P1  7949  0.45
      P1  H  7989  7998       L1    23  1.00
      L1  C    22    46       P1  7948  0.04
      L1  C    22    46       P1  7949  1.00

> <Gold.PLP.Chemscore.Internal.Correction>
0.0926

> <Gold.Rescore>
     Score         DG    S(hbond)    S(metal)    S(lipo)     H(rot)  DE(clash)    DE(int)     intcor
     10.49     -13.38       0.94        0.00      84.57       2.00       0.08       2.81       ----

> <Gold.Chemscore.Fitness>
10.4945

> <Gold.Chemscore.DG>
-13.3778

> <Gold.Chemscore.ZeroCoef>
-5.4800

> <Gold.Chemscore.Hbond>
0.9378

> <Gold.Chemscore.Metal>
0.0000

> <Gold.Chemscore.Lipo>
84.5684

> <Gold.Chemscore.Internal_Hbond>
0.0000

> <Gold.Chemscore.DEClash>
0.0765

> <Gold.Chemscore.DEInternal>
2.8069

> <Gold.Chemscore.Rot>
2.0035

> <Gold.Chemscore.Internal.Correction>
   9.000000E+99

> <Gold.Chemscore.Hbonds>
donor molecule, donor type, donor heavy atom, donor atom, acceptor molecule, acceptor atom, score
      L1  H    10    33       P1  7949  0.04
      P1  H  7989  7998       L1    23  0.60

> <Gold.Chemscore.Hbond.Weighted>
-3.1324

> <Gold.Chemscore.Metal.Weighted>
-0.0000

> <Gold.Chemscore.Lipo.Weighted>
-9.8945

> <Gold.Chemscore.Internal_Hbond.Weighted>
0.0000

> <Gold.Chemscore.DEClash.Weighted>
0.0765

> <Gold.Chemscore.DEInternal.Weighted>
2.8069

> <Gold.Chemscore.Rot.Weighted>
5.1290

> <Gold.Chemscore.Internal.Correction.Weighted>
   9.000000E+99

> <Gold.Protein.RotatedTorsions>
[ 6907 6896 6895 6894 ] final    4.10 input  -60.11 | X-H torsion
[ 7974 7965 7964 7962 ] final    8.28 input  175.53 | X-H torsion
[ 8008 7997 7996 7995 ] final  -24.69 input   59.86 | X-H torsion
[ 10167 10162 10161 10158 ] final  127.51 input  -65.29 | X-H torsion
[ 10718 10713 10712 10709 ] final  -22.58 input   66.30 | X-H torsion
[ 10763 10752 10751 10750 ] final  -67.66 input  -60.55 | X-H torsion
[ 11005 11000 10999 10996 ] final  173.94 input  -57.11 | X-H torsion

> <Gold.Protein.ActiveResidues>
 VAL166  LYS551  ARG553  GLY616  TRP617  ASP618  TYR619  PRO620  LYS621  CYS622 
 ASP623  PHE694  ASN695  SER759  ASP760  ASP761  ALA762  ILE779  LEU786  VAL792 
 PHE793  MET794  SER795  GLU796  ALA797  LYS798  CYS799  TRP800  GLU811  SER814 

> <Gold.Protein.RotatedAtoms>
  151.6358  135.1018  160.0130 H   0  0  0  0  0  0  0  0  0  0  0  0  # atno 6907 bound_to 6896
  152.4081  133.6917  159.6383 H   0  0  0  0  0  0  0  0  0  0  0  0  # atno 6908 bound_to 6896
  150.7974  133.8589  159.3267 H   0  0  0  0  0  0  0  0  0  0  0  0  # atno 6909 bound_to 6896
  146.2418  139.9957  142.8421 H   0  0  0  0  0  0  0  0  0  0  0  0  # atno 7974 bound_to 7965
  154.4515  140.1947  156.0504 H   0  0  0  0  0  0  0  0  0  0  0  0  # atno 8008 bound_to 7997
  156.0659  140.3291  155.7489 H   0  0  0  0  0  0  0  0  0  0  0  0  # atno 8009 bound_to 7997
  155.5340  140.0580  157.2874 H   0  0  0  0  0  0  0  0  0  0  0  0  # atno 8010 bound_to 7997
  139.5574  144.6858  151.4142 H   0  0  0  0  0  0  0  0  0  0  0  0  # atno 10167 bound_to 10162
  156.5026  130.4591  149.6692 H   0  0  0  0  0  0  0  0  0  0  0  0  # atno 10718 bound_to 10713
  154.3777  135.6081  153.5774 H   0  0  0  0  0  0  0  0  0  0  0  0  # atno 10763 bound_to 10752
  152.9789  135.5853  154.4447 H   0  0  0  0  0  0  0  0  0  0  0  0  # atno 10764 bound_to 10752
  154.4211  135.2846  155.1952 H   0  0  0  0  0  0  0  0  0  0  0  0  # atno 10765 bound_to 10752
  140.3459  134.7237  157.4234 H   0  0  0  0  0  0  0  0  0  0  0  0  # atno 11005 bound_to 11000
  145.1462  140.9598  143.4459 LP  0  0  0  0  0  0  0  0  0  0  0  0  # atno 17320 bound_to 7965
  145.0248  139.3392  143.6054 LP  0  0  0  0  0  0  0  0  0  0  0  0  # atno 17321 bound_to 7965
  140.6849  143.7996  150.7172 LP  0  0  0  0  0  0  0  0  0  0  0  0  # atno 17342 bound_to 10162
  140.1461  143.4398  152.2162 LP  0  0  0  0  0  0  0  0  0  0  0  0  # atno 17343 bound_to 10162
  156.3318  130.7335  151.2266 LP  0  0  0  0  0  0  0  0  0  0  0  0  # atno 17370 bound_to 10713
  157.7461  131.0428  150.4711 LP  0  0  0  0  0  0  0  0  0  0  0  0  # atno 17371 bound_to 10713
  140.0743  134.5819  155.8608 LP  0  0  0  0  0  0  0  0  0  0  0  0  # atno 17394 bound_to 11000
  141.2026  133.6626  156.6013 LP  0  0  0  0  0  0  0  0  0  0  0  0  # atno 17395 bound_to 11000

$$$$
