AV-unprocessed.smi:3029|AV-procd|sdf|11531|dock4
  -GOLD-   2272016473D 1   1.00000     0.00000
 Structure written by MMmdl.
 41 42  0  0  0  0  0  0  0  0  3 V2000
  147.3752  141.4492  153.5164 O   0  0  0  0  0  0  0  0  0  0  0  0
  148.4393  140.8759  153.7498 C   0  0  0  0  0  0  0  0  0  0  0  0
  149.6706  141.6142  154.0486 C   0  0  0  0  0  0  0  0  0  0  0  0
  150.8273  140.9805  154.3247 C   0  0  0  0  0  0  0  0  0  0  0  0
  150.8878  139.5316  154.3362 C   0  0  0  0  0  0  0  0  0  0  0  0
  152.1195  138.8416  154.6511 N   0  3  0  0  0  0  0  0  0  0  0  0
  152.0762  137.6522  154.9508 O   0  0  0  0  0  0  0  0  0  0  0  0
  153.1727  139.4694  154.6093 O   0  5  0  0  0  0  0  0  0  0  0  0
  149.7578  138.8553  154.0504 C   0  0  0  0  0  0  0  0  0  0  0  0
  148.5492  139.5126  153.7496 N   0  0  0  0  0  0  0  0  0  0  0  0
  147.3840  138.6670  153.4604 C   0  0  0  0  0  0  0  0  0  0  0  0
  147.1079  137.6940  154.6168 C   0  0  0  0  0  0  0  0  0  0  0  0
  146.5675  136.4506  154.0897 N   0  0  0  0  0  0  0  0  0  0  0  0
  145.9614  135.6328  155.1374 C   0  0  2  0  0  0  0  0  0  0  0  0
  146.9805  135.4728  156.2855 C   0  0  0  0  0  0  0  0  0  0  0  0
  148.1344  134.5184  155.9303 C   0  0  0  0  0  0  0  0  0  0  0  0
  147.6132  133.1599  155.4437 C   0  0  0  0  0  0  0  0  0  0  0  0
  146.6490  133.3257  154.2598 C   0  0  0  0  0  0  0  0  0  0  0  0
  145.4670  134.2544  154.6132 C   0  0  2  0  0  0  0  0  0  0  0  0
  144.4066  134.3239  153.4898 C   0  0  0  0  0  0  0  0  0  0  0  0
  143.3666  135.0835  153.8354 F   0  0  0  0  0  0  0  0  0  0  0  0
  144.9563  134.8410  152.3907 F   0  0  0  0  0  0  0  0  0  0  0  0
  143.9737  133.0984  153.1929 F   0  0  0  0  0  0  0  0  0  0  0  0
  149.6481  142.6943  154.0456 H   0  0  0  0  0  0  0  0  0  0  0  0
  151.7086  141.5679  154.5369 H   0  0  0  0  0  0  0  0  0  0  0  0
  149.6958  137.7763  154.0389 H   0  0  0  0  0  0  0  0  0  0  0  0
  146.5042  139.2847  153.2693 H   0  0  0  0  0  0  0  0  0  0  0  0
  147.5439  138.1087  152.5364 H   0  0  0  0  0  0  0  0  0  0  0  0
  148.0288  137.4888  155.1643 H   0  0  0  0  0  0  0  0  0  0  0  0
  146.4034  138.1387  155.3189 H   0  0  0  0  0  0  0  0  0  0  0  0
  147.3097  135.9308  153.6433 H   0  0  0  0  0  0  0  0  0  0  0  0
  145.1047  136.1686  155.5500 H   0  0  0  0  0  0  0  0  0  0  0  0
  147.3757  136.4446  156.5849 H   0  0  0  0  0  0  0  0  0  0  0  0
  146.4617  135.0802  157.1610 H   0  0  0  0  0  0  0  0  0  0  0  0
  148.7580  134.9671  155.1561 H   0  0  0  0  0  0  0  0  0  0  0  0
  148.7789  134.3785  156.7984 H   0  0  0  0  0  0  0  0  0  0  0  0
  148.4503  132.5243  155.1534 H   0  0  0  0  0  0  0  0  0  0  0  0
  147.1052  132.6476  156.2619 H   0  0  0  0  0  0  0  0  0  0  0  0
  147.1885  133.7230  153.3992 H   0  0  0  0  0  0  0  0  0  0  0  0
  146.2783  132.3449  153.9613 H   0  0  0  0  0  0  0  0  0  0  0  0
  144.9600  133.7865  155.4591 H   0  0  0  0  0  0  0  0  0  0  0  0
  1  2  2  0  0  0  0
  2 10  1  0  0  0  0
  2  3  1  0  0  0  0
  3  4  2  0  0  0  0
  3 24  1  0  0  0  0
  4  5  1  0  0  0  0
  4 25  1  0  0  0  0
  5  6  1  0  0  0  0
  5  9  2  0  0  0  0
  6  7  2  0  0  0  0
  6  8  1  0  0  0  0
  9 10  1  0  0  0  0
  9 26  1  0  0  0  0
 10 11  1  0  0  0  0
 11 12  1  0  0  0  0
 11 27  1  0  0  0  0
 11 28  1  0  0  0  0
 12 13  1  0  0  0  0
 12 29  1  0  0  0  0
 12 30  1  0  0  0  0
 13 14  1  0  0  0  0
 13 31  1  0  0  0  0
 14 19  1  0  0  0  0
 14 15  1  0  0  0  0
 14 32  1  0  0  0  0
 15 16  1  0  0  0  0
 15 33  1  0  0  0  0
 15 34  1  0  0  0  0
 16 17  1  0  0  0  0
 16 35  1  0  0  0  0
 16 36  1  0  0  0  0
 17 18  1  0  0  0  0
 17 37  1  0  0  0  0
 17 38  1  0  0  0  0
 18 19  1  0  0  0  0
 18 39  1  0  0  0  0
 18 40  1  0  0  0  0
 19 20  1  0  0  0  0
 19 41  1  0  0  0  0
 20 21  1  0  0  0  0
 20 22  1  0  0  0  0
 20 23  1  0  0  0  0
M  CHG  1   6   1
M  CHG  1   8  -1
M  END
> <s_m_source_file>
AV-unprocessed.smi

> <i_m_source_file_index>
3029

> <i_lp_mmshare_version>
43012

> <i_f3d_flags>
0

> <s_epik_input>
Tz1jMVtjSF1bY0hdYyhbTitdKD1PKVtPLV0pW2NIXW4xW0NIMl1bQ0gyXVtOSF1bQ0BASF0yW0NIMl1bQ0gyXVtDSDJdW0NIMl1bQ0BIXTJDKEYpKEYpRg==

> <s_epik_cmdline>
J2VwaWtfcHl0aG9uJywgJy1waCcsICc3LjAnLCAnLXRuJywgJzgnLCAnLW1hJywgJzIwMCcsICctbWV0YWxfYmluZGluZycsICctaW1hZScsICc8aW5maWxlLm1hZT4nLCAnLW9tYWUnLCAnPG91dGZpbGUubWFlPic=

> <r_lp_tautomer_probability>
1

> <r_epik_Ionization_Penalty>
1.65565

> <r_epik_Ionization_Penalty_Charging>
3.32684e-10

> <r_epik_Ionization_Penalty_Neutral>
1.65565

> <r_epik_State_Penalty>
1.75811

> <r_epik_Charging_Adjusted_Penalty>
1.75811

> <i_epik_Tot_Q>
0

> <i_epik_Tot_abs_Q>
2

> <r_epik_Metal_State_Penalty>
1.75811

> <b_epik_Metal_Only>
0

> <s_lp_Force_Field>
OPLS_2005

> <r_lp_Energy>
35.9342

> <b_lp_Chiralities_Consistent>
1

> <s_lp_Variant>
AV-unprocessed.smi:3029-7

> <Gold.Version>
5.8.1

> <Gold.Id.Protein>
6NUR|6NUR_protein|mol2

> <Gold.PLP.Fitness>
51.8030

> <Gold.PLP.PLP>
-41.1108

> <Gold.PLP.part.hbond>
-3.2313

> <Gold.PLP.part.metal>
0.0000

> <Gold.PLP.part.buried>
-0.3658

> <Gold.PLP.part.nonpolar>
-36.8673

> <Gold.PLP.part.repulsive>
0.2465

> <Gold.PLP.ligand.clash>
0.0000

> <Gold.PLP.ligand.torsion>
0.4599

> <Gold.PLP.Chemscore.Hbond>
2.8160

> <Gold.PLP.Chemscore.CHOScore>
1.0000

> <Gold.PLP.Chemscore.Metal>
0.0000

> <Gold.Chemscore.Hbonds>
donor molecule, donor type, donor heavy atom, donor atom, acceptor molecule, acceptor atom, score
      P1  H  7997  8009       L1     8  1.00
      P1  H 10752 10765       L1     7  0.34
      L1  C     9    26       P1  7948  0.43

> <Gold.PLP.Chemscore.Internal.Correction>
0.1642

> <Gold.Rescore>
     Score         DG    S(hbond)    S(metal)    S(lipo)     H(rot)  DE(clash)    DE(int)     intcor
     15.54     -17.47       2.80        0.00      63.22       1.86       0.07       1.86       ----

> <Gold.Chemscore.Fitness>
15.5418

> <Gold.Chemscore.DG>
-17.4699

> <Gold.Chemscore.ZeroCoef>
-5.4800

> <Gold.Chemscore.Hbond>
2.7995

> <Gold.Chemscore.Metal>
0.0000

> <Gold.Chemscore.Lipo>
63.2219

> <Gold.Chemscore.Internal_Hbond>
0.0000

> <Gold.Chemscore.DEClash>
0.0653

> <Gold.Chemscore.DEInternal>
1.8628

> <Gold.Chemscore.Rot>
1.8584

> <Gold.Chemscore.Internal.Correction>
   9.000000E+99

> <Gold.Chemscore.Hbonds>
donor molecule, donor type, donor heavy atom, donor atom, acceptor molecule, acceptor atom, score
      L1  H    13    31       P1  7948  0.05
      P1  H  7997  8009       L1     8  0.99
      P1  H 10752 10765       L1     7  0.35

> <Gold.Chemscore.Hbond.Weighted>
-9.3505

> <Gold.Chemscore.Metal.Weighted>
-0.0000

> <Gold.Chemscore.Lipo.Weighted>
-7.3970

> <Gold.Chemscore.Internal_Hbond.Weighted>
0.0000

> <Gold.Chemscore.DEClash.Weighted>
0.0653

> <Gold.Chemscore.DEInternal.Weighted>
1.8628

> <Gold.Chemscore.Rot.Weighted>
4.7576

> <Gold.Chemscore.Internal.Correction.Weighted>
   9.000000E+99

> <Gold.Protein.RotatedTorsions>
[ 6907 6896 6895 6894 ] final -140.41 input  -60.11 | X-H torsion
[ 7974 7965 7964 7962 ] final  -84.60 input  175.53 | X-H torsion
[ 8008 7997 7996 7995 ] final -122.16 input   59.86 | X-H torsion
[ 10167 10162 10161 10158 ] final   25.04 input  -65.29 | X-H torsion
[ 10718 10713 10712 10709 ] final -100.18 input   66.30 | X-H torsion
[ 10763 10752 10751 10750 ] final  163.71 input  -60.55 | X-H torsion
[ 11005 11000 10999 10996 ] final  -72.12 input  -57.11 | X-H torsion

> <Gold.Protein.ActiveResidues>
 VAL166  LYS551  ARG553  GLY616  TRP617  ASP618  TYR619  PRO620  LYS621  CYS622 
 ASP623  PHE694  ASN695  SER759  ASP760  ASP761  ALA762  ILE779  LEU786  VAL792 
 PHE793  MET794  SER795  GLU796  ALA797  LYS798  CYS799  TRP800  GLU811  SER814 

> <Gold.Protein.RotatedAtoms>
  151.0603  133.5549  159.2634 H   0  0  0  0  0  0  0  0  0  0  0  0  # atno 6907 bound_to 6896
  151.2527  135.0627  159.9078 H   0  0  0  0  0  0  0  0  0  0  0  0  # atno 6908 bound_to 6896
  152.5396  134.0361  159.8100 H   0  0  0  0  0  0  0  0  0  0  0  0  # atno 6909 bound_to 6896
  145.5045  140.9545  143.1741 H   0  0  0  0  0  0  0  0  0  0  0  0  # atno 7974 bound_to 7965
  155.1597  140.0405  157.2840 H   0  0  0  0  0  0  0  0  0  0  0  0  # atno 8008 bound_to 7997
  154.6345  140.2532  155.7367 H   0  0  0  0  0  0  0  0  0  0  0  0  # atno 8009 bound_to 7997
  156.2501  140.2868  156.0712 H   0  0  0  0  0  0  0  0  0  0  0  0  # atno 8010 bound_to 7997
  140.5139  144.0115  150.6385 H   0  0  0  0  0  0  0  0  0  0  0  0  # atno 10167 bound_to 10162
  156.0155  130.5316  150.6779 H   0  0  0  0  0  0  0  0  0  0  0  0  # atno 10718 bound_to 10713
  154.2978  135.2759  155.2625 H   0  0  0  0  0  0  0  0  0  0  0  0  # atno 10763 bound_to 10752
  154.5075  135.5791  153.6582 H   0  0  0  0  0  0  0  0  0  0  0  0  # atno 10764 bound_to 10752
  152.9905  135.6173  154.3147 H   0  0  0  0  0  0  0  0  0  0  0  0  # atno 10765 bound_to 10752
  141.1603  133.6837  156.7010 H   0  0  0  0  0  0  0  0  0  0  0  0  # atno 11005 bound_to 11000
  144.7761  139.6626  143.7174 LP  0  0  0  0  0  0  0  0  0  0  0  0  # atno 17320 bound_to 7965
  146.2205  139.5628  142.9621 LP  0  0  0  0  0  0  0  0  0  0  0  0  # atno 17321 bound_to 7965
  140.3445  143.2999  152.0553 LP  0  0  0  0  0  0  0  0  0  0  0  0  # atno 17342 bound_to 10162
  139.4903  144.6418  151.6860 LP  0  0  0  0  0  0  0  0  0  0  0  0  # atno 17343 bound_to 10162
  157.4487  131.0870  151.0868 LP  0  0  0  0  0  0  0  0  0  0  0  0  # atno 17370 bound_to 10713
  157.1390  130.6135  149.5550 LP  0  0  0  0  0  0  0  0  0  0  0  0  # atno 17371 bound_to 10713
  140.2959  134.8203  157.4056 LP  0  0  0  0  0  0  0  0  0  0  0  0  # atno 17394 bound_to 11000
  140.1305  134.5101  155.8109 LP  0  0  0  0  0  0  0  0  0  0  0  0  # atno 17395 bound_to 11000

$$$$
