AV-unprocessed.smi:2078|AV-procd|sdf|8464|dock8
  -GOLD-   2272011163D 1   1.00000     0.00000
 Structure written by MMmdl.
 42 43  0  0  0  0  0  0  0  0  2 V2000
  153.6646  137.4978  156.9439 C   0  0  0  0  0  0  0  0  0  0  0  0
  152.7631  138.2004  155.9865 C   0  0  0  0  0  0  0  0  0  0  0  0
  151.5979  137.8366  155.3717 C   0  0  0  0  0  0  0  0  0  0  0  0
  151.2781  138.9792  154.5912 C   0  0  0  0  0  0  0  0  0  0  0  0
  150.1130  139.0060  153.7830 N   0  0  0  0  0  0  0  0  0  0  0  0
  148.8653  138.6517  154.1347 C   0  0  0  0  0  0  0  0  0  0  0  0
  148.5299  138.2345  155.2437 O   0  0  0  0  0  0  0  0  0  0  0  0
  148.0069  138.8049  153.1157 N   0  0  0  0  0  0  0  0  0  0  0  0
  146.5790  138.5171  153.1820 C   0  0  0  0  0  0  0  0  0  0  0  0
  146.0874  137.7886  151.9159 C   0  0  0  0  0  0  0  0  0  0  0  0
  146.3280  136.3255  151.9808 N   0  3  2  0  0  0  0  0  0  0  0  0
  145.8167  135.5971  150.7893 C   0  0  0  0  0  0  0  0  0  0  0  0
  146.2197  134.1148  150.8328 C   0  0  0  0  0  0  0  0  0  0  0  0
  145.7399  133.4514  152.1315 C   0  0  0  0  0  0  0  0  0  0  0  0
  146.2120  134.2379  153.3687 C   0  0  1  0  0  0  0  0  0  0  0  0
  147.7118  134.0510  153.6579 C   0  0  0  0  0  0  0  0  0  0  0  0
  145.8235  135.7262  153.2448 C   0  0  0  0  0  0  0  0  0  0  0  0
  152.1661  139.9531  154.7189 N   0  0  0  0  0  0  0  0  0  0  0  0
  153.1227  139.4589  155.6134 O   0  0  0  0  0  0  0  0  0  0  0  0
  153.0944  137.0698  157.7684 H   0  0  0  0  0  0  0  0  0  0  0  0
  154.4018  138.1824  157.3644 H   0  0  0  0  0  0  0  0  0  0  0  0
  154.2000  136.6893  156.4462 H   0  0  0  0  0  0  0  0  0  0  0  0
  151.0639  136.9026  155.4670 H   0  0  0  0  0  0  0  0  0  0  0  0
  150.2447  139.3321  152.8370 H   0  0  0  0  0  0  0  0  0  0  0  0
  148.3637  139.1556  152.2385 H   0  0  0  0  0  0  0  0  0  0  0  0
  146.3742  137.9396  154.0839 H   0  0  0  0  0  0  0  0  0  0  0  0
  146.0485  139.4632  153.2941 H   0  0  0  0  0  0  0  0  0  0  0  0
  145.0172  137.9762  151.8167 H   0  0  0  0  0  0  0  0  0  0  0  0
  146.5538  138.1947  151.0169 H   0  0  0  0  0  0  0  0  0  0  0  0
  144.7302  135.6891  150.7440 H   0  0  0  0  0  0  0  0  0  0  0  0
  146.2068  136.0400  149.8737 H   0  0  0  0  0  0  0  0  0  0  0  0
  145.7993  133.5911  149.9736 H   0  0  0  0  0  0  0  0  0  0  0  0
  147.3028  134.0244  150.7444 H   0  0  0  0  0  0  0  0  0  0  0  0
  144.6498  133.4103  152.1276 H   0  0  0  0  0  0  0  0  0  0  0  0
  146.0837  132.4175  152.1795 H   0  0  0  0  0  0  0  0  0  0  0  0
  145.6812  133.8329  154.2315 H   0  0  0  0  0  0  0  0  0  0  0  0
  148.3351  134.4512  152.8582 H   0  0  0  0  0  0  0  0  0  0  0  0
  147.9600  132.9955  153.7747 H   0  0  0  0  0  0  0  0  0  0  0  0
  147.9971  134.5571  154.5808 H   0  0  0  0  0  0  0  0  0  0  0  0
  146.2162  136.2750  154.1020 H   0  0  0  0  0  0  0  0  0  0  0  0
  144.7377  135.8313  153.2792 H   0  0  0  0  0  0  0  0  0  0  0  0
  147.3303  136.2021  151.9954 H   0  0  0  0  0  0  0  0  0  0  0  0
  1  2  1  0  0  0  0
  1 20  1  0  0  0  0
  1 21  1  0  0  0  0
  1 22  1  0  0  0  0
  2 19  1  0  0  0  0
  2  3  2  0  0  0  0
  3  4  1  0  0  0  0
  3 23  1  0  0  0  0
  4  5  1  0  0  0  0
  4 18  2  0  0  0  0
  5  6  1  0  0  0  0
  5 24  1  0  0  0  0
  6  7  2  0  0  0  0
  6  8  1  0  0  0  0
  8  9  1  0  0  0  0
  8 25  1  0  0  0  0
  9 10  1  0  0  0  0
  9 26  1  0  0  0  0
  9 27  1  0  0  0  0
 10 11  1  0  0  0  0
 10 28  1  0  0  0  0
 10 29  1  0  0  0  0
 11 17  1  0  0  0  0
 11 12  1  0  0  0  0
 11 42  1  0  0  0  0
 12 13  1  0  0  0  0
 12 30  1  0  0  0  0
 12 31  1  0  0  0  0
 13 14  1  0  0  0  0
 13 32  1  0  0  0  0
 13 33  1  0  0  0  0
 14 15  1  0  0  0  0
 14 34  1  0  0  0  0
 14 35  1  0  0  0  0
 15 16  1  0  0  0  0
 15 17  1  0  0  0  0
 15 36  1  0  0  0  0
 16 37  1  0  0  0  0
 16 38  1  0  0  0  0
 16 39  1  0  0  0  0
 17 40  1  0  0  0  0
 17 41  1  0  0  0  0
 18 19  1  0  0  0  0
M  CHG  1  11   1
M  END
> <s_m_source_file>
AV-unprocessed.smi

> <i_m_source_file_index>
2078

> <i_lp_mmshare_version>
43012

> <i_f3d_flags>
0

> <s_epik_input>
W0NIM11jMVtjSF1jKG5vMSlbTkhdQyg9TylbTkhdW0NIMl1bQ0gyXU4yW0NIMl1bQ0gyXVtDSDJdW0NAQEhdKFtDSDNdKVtDSDJdMg==

> <s_epik_cmdline>
J2VwaWtfcHl0aG9uJywgJy1waCcsICc3LjAnLCAnLXRuJywgJzgnLCAnLW1hJywgJzIwMCcsICctbWV0YWxfYmluZGluZycsICctaW1hZScsICc8aW5maWxlLm1hZT4nLCAnLW9tYWUnLCAnPG91dGZpbGUubWFlPic=

> <r_epik_Ionization_Penalty>
0.00216453

> <r_epik_Ionization_Penalty_Charging>
0.00212879

> <r_epik_Ionization_Penalty_Neutral>
3.57418e-05

> <r_epik_State_Penalty>
0.00146033

> <r_epik_Charging_Adjusted_Penalty>
0.00358912

> <i_epik_Tot_Q>
1

> <i_epik_Tot_abs_Q>
1

> <r_epik_Metal_State_Penalty>
0.0215827

> <b_epik_Metal_Only>
0

> <s_lp_Force_Field>
OPLS_2005

> <r_lp_Energy>
15.3902

> <b_lp_Chiralities_Consistent>
1

> <s_lp_Variant>
AV-unprocessed.smi:2078-2

> <Gold.Version>
5.8.1

> <Gold.Id.Protein>
6NUR|6NUR_protein|mol2

> <Gold.PLP.Fitness>
45.3664

> <Gold.PLP.PLP>
-29.3932

> <Gold.PLP.part.hbond>
-5.8366

> <Gold.PLP.part.metal>
0.0000

> <Gold.PLP.part.buried>
-3.1086

> <Gold.PLP.part.nonpolar>
-20.5587

> <Gold.PLP.part.repulsive>
0.3195

> <Gold.PLP.ligand.clash>
0.0000

> <Gold.PLP.ligand.torsion>
0.6733

> <Gold.PLP.Chemscore.Hbond>
5.7680

> <Gold.PLP.Chemscore.CHOScore>
0.0000

> <Gold.PLP.Chemscore.Metal>
0.0000

> <Gold.Chemscore.Hbonds>
donor molecule, donor type, donor heavy atom, donor atom, acceptor molecule, acceptor atom, score
      L1  H     5    24       P1  7957  1.00
      L1  H     8    25       P1  7957  1.00
      L1  H    11    42       P1  7948  2.00
      P1  H  7989  7998       L1    18  0.68
      P1  H  7997  8009       L1    19  1.00

> <Gold.PLP.Chemscore.Internal.Correction>
0.0158

> <Gold.Rescore>
     Score         DG    S(hbond)    S(metal)    S(lipo)     H(rot)  DE(clash)    DE(int)     intcor
     20.96     -21.67       4.14        0.00      54.68       1.57       0.06       0.66       ----

> <Gold.Chemscore.Fitness>
20.9597

> <Gold.Chemscore.DG>
-21.6739

> <Gold.Chemscore.ZeroCoef>
-5.4800

> <Gold.Chemscore.Hbond>
4.1362

> <Gold.Chemscore.Metal>
0.0000

> <Gold.Chemscore.Lipo>
54.6797

> <Gold.Chemscore.Internal_Hbond>
0.0000

> <Gold.Chemscore.DEClash>
0.0591

> <Gold.Chemscore.DEInternal>
0.6551

> <Gold.Chemscore.Rot>
1.5697

> <Gold.Chemscore.Internal.Correction>
   9.000000E+99

> <Gold.Chemscore.Hbonds>
donor molecule, donor type, donor heavy atom, donor atom, acceptor molecule, acceptor atom, score
      L1  H     5    24       P1  7957  0.83
      L1  H     8    25       P1  7957  0.98
      L1  H    11    42       P1  7948  0.99
      P1  H  7989  7998       L1    18  0.13
      P1  H  7997  8009       L1    19  0.93

> <Gold.Chemscore.Hbond.Weighted>
-13.8148

> <Gold.Chemscore.Metal.Weighted>
-0.0000

> <Gold.Chemscore.Lipo.Weighted>
-6.3975

> <Gold.Chemscore.Internal_Hbond.Weighted>
0.0000

> <Gold.Chemscore.DEClash.Weighted>
0.0591

> <Gold.Chemscore.DEInternal.Weighted>
0.6551

> <Gold.Chemscore.Rot.Weighted>
4.0185

> <Gold.Chemscore.Internal.Correction.Weighted>
   9.000000E+99

> <Gold.Protein.RotatedTorsions>
[ 6907 6896 6895 6894 ] final  108.60 input  -60.11 | X-H torsion
[ 7974 7965 7964 7962 ] final   11.07 input  175.53 | X-H torsion
[ 8008 7997 7996 7995 ] final -134.99 input   59.86 | X-H torsion
[ 10167 10162 10161 10158 ] final    6.18 input  -65.29 | X-H torsion
[ 10718 10713 10712 10709 ] final   62.52 input   66.30 | X-H torsion
[ 10763 10752 10751 10750 ] final   11.49 input  -60.55 | X-H torsion
[ 11005 11000 10999 10996 ] final -165.26 input  -57.11 | X-H torsion

> <Gold.Protein.ActiveResidues>
 VAL166  LYS551  ARG553  GLY616  TRP617  ASP618  TYR619  PRO620  LYS621  CYS622 
 ASP623  PHE694  ASN695  SER759  ASP760  ASP761  ALA762  ILE779  LEU786  VAL792 
 PHE793  MET794  SER795  GLU796  ALA797  LYS798  CYS799  TRP800  GLU811  SER814 

> <Gold.Protein.RotatedAtoms>
  152.5105  133.9065  159.7466 H   0  0  0  0  0  0  0  0  0  0  0  0  # atno 6907 bound_to 6896
  150.9468  133.6585  159.2786 H   0  0  0  0  0  0  0  0  0  0  0  0  # atno 6908 bound_to 6896
  151.3878  135.0956  159.9569 H   0  0  0  0  0  0  0  0  0  0  0  0  # atno 6909 bound_to 6896
  146.2377  139.9539  142.8467 H   0  0  0  0  0  0  0  0  0  0  0  0  # atno 7974 bound_to 7965
  155.3712  140.0488  157.3045 H   0  0  0  0  0  0  0  0  0  0  0  0  # atno 8008 bound_to 7997
  154.5129  140.2198  155.9085 H   0  0  0  0  0  0  0  0  0  0  0  0  # atno 8009 bound_to 7997
  156.1603  140.3118  155.8801 H   0  0  0  0  0  0  0  0  0  0  0  0  # atno 8010 bound_to 7997
  140.6442  143.7703  150.7473 H   0  0  0  0  0  0  0  0  0  0  0  0  # atno 10167 bound_to 10162
  157.5907  130.9055  149.9598 H   0  0  0  0  0  0  0  0  0  0  0  0  # atno 10718 bound_to 10713
  153.1921  135.6844  153.8340 H   0  0  0  0  0  0  0  0  0  0  0  0  # atno 10763 bound_to 10752
  153.7635  135.3206  155.3342 H   0  0  0  0  0  0  0  0  0  0  0  0  # atno 10764 bound_to 10752
  154.8123  135.4709  154.0648 H   0  0  0  0  0  0  0  0  0  0  0  0  # atno 10765 bound_to 10752
  140.5777  134.5173  157.5173 H   0  0  0  0  0  0  0  0  0  0  0  0  # atno 11005 bound_to 11000
  145.1835  140.9778  143.4252 LP  0  0  0  0  0  0  0  0  0  0  0  0  # atno 17320 bound_to 7965
  144.9921  139.3679  143.6209 LP  0  0  0  0  0  0  0  0  0  0  0  0  # atno 17321 bound_to 7965
  140.1340  143.4500  152.2236 LP  0  0  0  0  0  0  0  0  0  0  0  0  # atno 17342 bound_to 10162
  139.5652  144.7430  151.4044 LP  0  0  0  0  0  0  0  0  0  0  0  0  # atno 17343 bound_to 10162
  156.0961  130.3659  150.0304 LP  0  0  0  0  0  0  0  0  0  0  0  0  # atno 17370 bound_to 10713
  156.8427  130.9431  151.3631 LP  0  0  0  0  0  0  0  0  0  0  0  0  # atno 17371 bound_to 10713
  139.9332  134.7925  156.0875 LP  0  0  0  0  0  0  0  0  0  0  0  0  # atno 17394 bound_to 11000
  141.1016  133.6675  156.2767 LP  0  0  0  0  0  0  0  0  0  0  0  0  # atno 17395 bound_to 11000

$$$$
