AV-unprocessed.smi:3271|AV-procd|sdf|12516|dock3
  -GOLD-   2272018423D 1   1.00000     0.00000
 Structure written by MMmdl.
 41 41  0  0  0  0  0  0  0  0  1 V2000
  151.5976  144.4113  157.8172 C   0  0  0  0  0  0  0  0  0  0  0  0
  151.4035  142.9061  157.5747 C   0  0  0  0  0  0  0  0  0  0  0  0
  151.9414  142.0020  158.7072 C   0  0  0  0  0  0  0  0  0  0  0  0
  153.1602  142.6596  159.3944 C   0  0  0  0  0  0  0  0  0  0  0  0
  153.7019  141.8891  160.6085 C   0  0  0  0  0  0  0  0  0  0  0  0
  152.2779  140.5945  158.1851 C   0  0  0  0  0  0  0  0  0  0  0  0
  153.4098  140.1319  158.3265 O   0  0  0  0  0  0  0  0  0  0  0  0
  151.2793  139.9270  157.5883 N   0  0  0  0  0  0  0  0  0  0  0  0
  151.3737  138.5782  157.0347 C   0  0  0  0  0  0  0  0  0  0  0  0
  151.3090  138.5232  155.4840 C   0  0  1  0  0  0  0  0  0  0  0  0
  152.5196  139.2539  154.8780 C   0  0  0  0  0  0  0  0  0  0  0  0
  151.4872  137.1689  155.1156 O   0  0  0  0  0  0  0  0  0  0  0  0
  150.0272  139.0996  154.9156 C   0  0  0  0  0  0  0  0  0  0  0  0
  149.0073  138.4287  154.1784 C   0  0  0  0  0  0  0  0  0  0  0  0
  148.0066  139.2229  153.8357 N   0  0  0  0  0  0  0  0  0  0  0  0
  148.3548  140.4294  154.3249 N   0  0  0  0  0  0  0  0  0  0  0  0
  147.4718  141.5598  154.1335 C   0  0  0  0  0  0  0  0  0  0  0  0
  149.5699  140.3878  154.9720 C   0  0  0  0  0  0  0  0  0  0  0  0
  151.2624  144.9863  156.9537 H   0  0  0  0  0  0  0  0  0  0  0  0
  152.6479  144.6501  157.9862 H   0  0  0  0  0  0  0  0  0  0  0  0
  151.0300  144.7591  158.6805 H   0  0  0  0  0  0  0  0  0  0  0  0
  150.3456  142.7014  157.4033 H   0  0  0  0  0  0  0  0  0  0  0  0
  151.9090  142.6467  156.6438 H   0  0  0  0  0  0  0  0  0  0  0  0
  151.1548  141.9103  159.4585 H   0  0  0  0  0  0  0  0  0  0  0  0
  153.9649  142.8051  158.6724 H   0  0  0  0  0  0  0  0  0  0  0  0
  152.8782  143.6587  159.7285 H   0  0  0  0  0  0  0  0  0  0  0  0
  154.4860  142.4582  161.1082 H   0  0  0  0  0  0  0  0  0  0  0  0
  154.1345  140.9339  160.3130 H   0  0  0  0  0  0  0  0  0  0  0  0
  152.9165  141.6929  161.3388 H   0  0  0  0  0  0  0  0  0  0  0  0
  150.3820  140.3842  157.5192 H   0  0  0  0  0  0  0  0  0  0  0  0
  152.3516  138.2174  157.3550 H   0  0  0  0  0  0  0  0  0  0  0  0
  150.6490  137.9044  157.4963 H   0  0  0  0  0  0  0  0  0  0  0  0
  152.4969  140.3189  155.1121 H   0  0  0  0  0  0  0  0  0  0  0  0
  152.5386  139.1588  153.7914 H   0  0  0  0  0  0  0  0  0  0  0  0
  153.4601  138.8552  155.2607 H   0  0  0  0  0  0  0  0  0  0  0  0
  151.7889  137.1405  154.2198 H   0  0  0  0  0  0  0  0  0  0  0  0
  148.9599  137.3882  153.8929 H   0  0  0  0  0  0  0  0  0  0  0  0
  148.0047  142.4885  154.3394 H   0  0  0  0  0  0  0  0  0  0  0  0
  146.6216  141.4791  154.8114 H   0  0  0  0  0  0  0  0  0  0  0  0
  147.1101  141.5812  153.1049 H   0  0  0  0  0  0  0  0  0  0  0  0
  150.0029  141.2672  155.4253 H   0  0  0  0  0  0  0  0  0  0  0  0
  1  2  1  0  0  0  0
  1 19  1  0  0  0  0
  1 20  1  0  0  0  0
  1 21  1  0  0  0  0
  2  3  1  0  0  0  0
  2 22  1  0  0  0  0
  2 23  1  0  0  0  0
  3  4  1  0  0  0  0
  3  6  1  0  0  0  0
  3 24  1  0  0  0  0
  4  5  1  0  0  0  0
  4 25  1  0  0  0  0
  4 26  1  0  0  0  0
  5 27  1  0  0  0  0
  5 28  1  0  0  0  0
  5 29  1  0  0  0  0
  6  7  2  0  0  0  0
  6  8  1  0  0  0  0
  8  9  1  0  0  0  0
  8 30  1  0  0  0  0
  9 10  1  0  0  0  0
  9 31  1  0  0  0  0
  9 32  1  0  0  0  0
 10 11  1  0  0  0  0
 10 12  1  0  0  0  0
 10 13  1  0  0  0  0
 11 33  1  0  0  0  0
 11 34  1  0  0  0  0
 11 35  1  0  0  0  0
 12 36  1  0  0  0  0
 13 18  2  0  0  0  0
 13 14  1  0  0  0  0
 14 15  2  0  0  0  0
 14 37  1  0  0  0  0
 15 16  1  0  0  0  0
 16 17  1  0  0  0  0
 16 18  1  0  0  0  0
 17 38  1  0  0  0  0
 17 39  1  0  0  0  0
 17 40  1  0  0  0  0
 18 41  1  0  0  0  0
M  END
> <s_m_source_file>
AV-unprocessed.smi

> <i_m_source_file_index>
3271

> <i_lp_mmshare_version>
43012

> <i_f3d_flags>
0

> <s_epik_input>
W0NIM11bQ0gyXVtDSF0oW0NIMl1bQ0gzXSlDKD1PKVtOSF1bQ0gyXVtDQEBdKFtDSDNdKShbT0hdKWMxW2NIXW5uKFtDSDNdKVtjSF0x

> <s_epik_cmdline>
J2VwaWtfcHl0aG9uJywgJy1waCcsICc3LjAnLCAnLXRuJywgJzgnLCAnLW1hJywgJzIwMCcsICctbWV0YWxfYmluZGluZycsICctaW1hZScsICc8aW5maWxlLm1hZT4nLCAnLW9tYWUnLCAnPG91dGZpbGUubWFlPic=

> <r_lp_tautomer_probability>
1

> <r_epik_Ionization_Penalty>
6.03488e-05

> <r_epik_Ionization_Penalty_Charging>
0

> <r_epik_Ionization_Penalty_Neutral>
6.03488e-05

> <r_epik_State_Penalty>
-0

> <r_epik_Charging_Adjusted_Penalty>
0

> <i_epik_Tot_Q>
0

> <i_epik_Tot_abs_Q>
0

> <r_epik_Metal_State_Penalty>
-0

> <b_epik_Metal_Only>
0

> <s_lp_Force_Field>
OPLS_2005

> <r_lp_Energy>
0.472609

> <b_lp_Chiralities_Consistent>
1

> <s_lp_Variant>
AV-unprocessed.smi:3271-1

> <Gold.Version>
5.8.1

> <Gold.Id.Protein>
6NUR|6NUR_protein|mol2

> <Gold.PLP.Fitness>
43.6986

> <Gold.PLP.PLP>
-38.3728

> <Gold.PLP.part.hbond>
-1.0442

> <Gold.PLP.part.metal>
0.0000

> <Gold.PLP.part.buried>
-3.0617

> <Gold.PLP.part.nonpolar>
-34.3506

> <Gold.PLP.part.repulsive>
0.8741

> <Gold.PLP.ligand.clash>
0.0000

> <Gold.PLP.ligand.torsion>
0.4262

> <Gold.PLP.Chemscore.Hbond>
1.0000

> <Gold.PLP.Chemscore.CHOScore>
1.0000

> <Gold.PLP.Chemscore.Metal>
0.0000

> <Gold.Chemscore.Hbonds>
donor molecule, donor type, donor heavy atom, donor atom, acceptor molecule, acceptor atom, score
      P1  H  7997  8008       L1     7  0.98
      L1  C    14    37       P1  7948  1.00

> <Gold.PLP.Chemscore.Internal.Correction>
0.1782

> <Gold.Rescore>
     Score         DG    S(hbond)    S(metal)    S(lipo)     H(rot)  DE(clash)    DE(int)     intcor
     13.37     -14.75       0.95        0.00     103.26       2.33       0.59       0.79       ----

> <Gold.Chemscore.Fitness>
13.3721

> <Gold.Chemscore.DG>
-14.7482

> <Gold.Chemscore.ZeroCoef>
-5.4800

> <Gold.Chemscore.Hbond>
0.9468

> <Gold.Chemscore.Metal>
0.0000

> <Gold.Chemscore.Lipo>
103.2564

> <Gold.Chemscore.Internal_Hbond>
0.0000

> <Gold.Chemscore.DEClash>
0.5888

> <Gold.Chemscore.DEInternal>
0.7873

> <Gold.Chemscore.Rot>
2.3341

> <Gold.Chemscore.Internal.Correction>
   9.000000E+99

> <Gold.Chemscore.Hbonds>
donor molecule, donor type, donor heavy atom, donor atom, acceptor molecule, acceptor atom, score
      P1  H  7997  8008       L1     7  0.93

> <Gold.Chemscore.Hbond.Weighted>
-3.1625

> <Gold.Chemscore.Metal.Weighted>
-0.0000

> <Gold.Chemscore.Lipo.Weighted>
-12.0810

> <Gold.Chemscore.Internal_Hbond.Weighted>
0.0000

> <Gold.Chemscore.DEClash.Weighted>
0.5888

> <Gold.Chemscore.DEInternal.Weighted>
0.7873

> <Gold.Chemscore.Rot.Weighted>
5.9753

> <Gold.Chemscore.Internal.Correction.Weighted>
   9.000000E+99

> <Gold.Protein.RotatedTorsions>
[ 6907 6896 6895 6894 ] final -103.00 input  -60.11 | X-H torsion
[ 7974 7965 7964 7962 ] final   51.30 input  175.53 | X-H torsion
[ 8008 7997 7996 7995 ] final  -84.45 input   59.86 | X-H torsion
[ 10167 10162 10161 10158 ] final    7.84 input  -65.29 | X-H torsion
[ 10718 10713 10712 10709 ] final  156.46 input   66.30 | X-H torsion
[ 10763 10752 10751 10750 ] final  108.71 input  -60.55 | X-H torsion
[ 11005 11000 10999 10996 ] final  -38.40 input  -57.11 | X-H torsion

> <Gold.Protein.ActiveResidues>
 VAL166  LYS551  ARG553  GLY616  TRP617  ASP618  TYR619  PRO620  LYS621  CYS622 
 ASP623  PHE694  ASN695  SER759  ASP760  ASP761  ALA762  ILE779  LEU786  VAL792 
 PHE793  MET794  SER795  GLU796  ALA797  LYS798  CYS799  TRP800  GLU811  SER814 

> <Gold.Protein.RotatedAtoms>
  150.7220  134.0496  159.3793 H   0  0  0  0  0  0  0  0  0  0  0  0  # atno 6907 bound_to 6896
  151.8473  135.0567  160.0464 H   0  0  0  0  0  0  0  0  0  0  0  0  # atno 6908 bound_to 6896
  152.2817  133.5441  159.5538 H   0  0  0  0  0  0  0  0  0  0  0  0  # atno 6909 bound_to 6896
  145.9926  139.4355  143.0064 H   0  0  0  0  0  0  0  0  0  0  0  0  # atno 7974 bound_to 7965
  154.6299  140.0605  156.9719 H   0  0  0  0  0  0  0  0  0  0  0  0  # atno 8008 bound_to 7997
  155.1682  140.3288  155.4379 H   0  0  0  0  0  0  0  0  0  0  0  0  # atno 8009 bound_to 7997
  156.2477  140.1919  156.6785 H   0  0  0  0  0  0  0  0  0  0  0  0  # atno 8010 bound_to 7997
  140.6348  143.7910  150.7345 H   0  0  0  0  0  0  0  0  0  0  0  0  # atno 10167 bound_to 10162
  157.2046  131.0684  151.2005 H   0  0  0  0  0  0  0  0  0  0  0  0  # atno 10718 bound_to 10713
  153.4244  135.3803  155.2131 H   0  0  0  0  0  0  0  0  0  0  0  0  # atno 10763 bound_to 10752
  154.8746  135.3825  154.4344 H   0  0  0  0  0  0  0  0  0  0  0  0  # atno 10764 bound_to 10752
  153.4868  135.7088  153.5969 H   0  0  0  0  0  0  0  0  0  0  0  0  # atno 10765 bound_to 10752
  141.0024  133.6948  156.2048 H   0  0  0  0  0  0  0  0  0  0  0  0  # atno 11005 bound_to 11000
  145.7607  140.9936  143.1201 LP  0  0  0  0  0  0  0  0  0  0  0  0  # atno 17320 bound_to 7965
  144.6894  139.9326  143.7472 LP  0  0  0  0  0  0  0  0  0  0  0  0  # atno 17321 bound_to 7965
  140.1529  143.4342  152.2119 LP  0  0  0  0  0  0  0  0  0  0  0  0  # atno 17342 bound_to 10162
  139.5560  144.7373  151.4294 LP  0  0  0  0  0  0  0  0  0  0  0  0  # atno 17343 bound_to 10162
  157.3733  130.7192  149.6579 LP  0  0  0  0  0  0  0  0  0  0  0  0  # atno 17370 bound_to 10713
  155.9697  130.4193  150.4367 LP  0  0  0  0  0  0  0  0  0  0  0  0  # atno 17371 bound_to 10713
  140.6867  134.4710  157.5589 LP  0  0  0  0  0  0  0  0  0  0  0  0  # atno 17394 bound_to 11000
  139.9046  134.8479  156.1758 LP  0  0  0  0  0  0  0  0  0  0  0  0  # atno 17395 bound_to 11000

$$$$
