AV-unprocessed.smi:2168|AV-procd|sdf|8821|dock2
  -GOLD-   2272012 13D 1   1.00000     0.00000
 Structure written by MMmdl.
 46 47  0  0  0  0  0  0  0  0  3 V2000
  145.8672  133.3992  162.2332 C   0  0  0  0  0  0  0  0  0  0  0  0
  146.9858  133.7741  161.2475 C   0  0  0  0  0  0  0  0  0  0  0  0
  147.3106  135.2150  161.2611 N   0  0  0  0  0  0  0  0  0  0  0  0
  147.6983  135.8002  162.5605 C   0  0  0  0  0  0  0  0  0  0  0  0
  147.0293  137.1559  162.8335 C   0  0  0  0  0  0  0  0  0  0  0  0
  147.6409  136.0675  159.7784 S   0  0  0  0  0  0  0  0  0  0  0  0
  147.1882  137.4528  159.9876 O   0  0  0  0  0  0  0  0  0  0  0  0
  149.0661  135.8471  159.4828 O   0  0  0  0  0  0  0  0  0  0  0  0
  146.6566  135.2069  158.8214 N   0  5  0  0  0  0  0  0  0  0  0  0
  147.1667  134.0193  158.1676 C   0  0  0  0  0  0  0  0  0  0  0  0
  146.7150  133.9645  156.7172 C   0  0  0  0  0  0  0  0  0  0  0  0
  147.3282  134.7737  155.7347 C   0  0  0  0  0  0  0  0  0  0  0  0
  146.8995  134.6859  154.3937 C   0  0  0  0  0  0  0  0  0  0  0  0
  145.8586  133.7902  154.0390 C   0  0  0  0  0  0  0  0  0  0  0  0
  145.3753  133.6262  152.7209 N   0  0  0  0  0  0  0  0  0  0  0  0
  145.5216  132.3173  152.0895 C   0  0  0  0  0  0  0  0  0  0  0  0
  144.6703  132.2325  150.8114 C   0  0  0  0  0  0  0  0  0  0  0  0
  144.9939  133.3136  149.9453 O   0  0  0  0  0  0  0  0  0  0  0  0
  144.6989  134.5703  150.5428 C   0  0  0  0  0  0  0  0  0  0  0  0
  145.5520  134.7561  151.8086 C   0  0  0  0  0  0  0  0  0  0  0  0
  145.3045  133.0379  155.0211 N   0  3  0  0  0  0  0  0  0  0  0  0
  145.6841  133.0876  156.3170 C   0  0  0  0  0  0  0  0  0  0  0  0
  145.6102  132.3446  162.1361 H   0  0  0  0  0  0  0  0  0  0  0  0
  144.9599  133.9765  162.0607 H   0  0  0  0  0  0  0  0  0  0  0  0
  146.1740  133.5622  163.2662 H   0  0  0  0  0  0  0  0  0  0  0  0
  147.8871  133.2114  161.4910 H   0  0  0  0  0  0  0  0  0  0  0  0
  146.7056  133.4718  160.2381 H   0  0  0  0  0  0  0  0  0  0  0  0
  147.4474  135.1054  163.3614 H   0  0  0  0  0  0  0  0  0  0  0  0
  148.7824  135.9135  162.5868 H   0  0  0  0  0  0  0  0  0  0  0  0
  147.2950  137.5176  163.8267 H   0  0  0  0  0  0  0  0  0  0  0  0
  145.9428  137.0847  162.7915 H   0  0  0  0  0  0  0  0  0  0  0  0
  147.3482  137.9138  162.1185 H   0  0  0  0  0  0  0  0  0  0  0  0
  148.2565  133.9817  158.1860 H   0  0  0  0  0  0  0  0  0  0  0  0
  146.8311  133.1080  158.6634 H   0  0  0  0  0  0  0  0  0  0  0  0
  148.1272  135.4571  155.9892 H   0  0  0  0  0  0  0  0  0  0  0  0
  147.3817  135.3169  153.6632 H   0  0  0  0  0  0  0  0  0  0  0  0
  146.5730  132.1468  151.8544 H   0  0  0  0  0  0  0  0  0  0  0  0
  145.2016  131.5273  152.7692 H   0  0  0  0  0  0  0  0  0  0  0  0
  144.8635  131.2927  150.2942 H   0  0  0  0  0  0  0  0  0  0  0  0
  143.6057  132.2501  151.0508 H   0  0  0  0  0  0  0  0  0  0  0  0
  144.9138  135.3632  149.8266 H   0  0  0  0  0  0  0  0  0  0  0  0
  143.6350  134.6343  150.7774 H   0  0  0  0  0  0  0  0  0  0  0  0
  145.2734  135.6994  152.2779 H   0  0  0  0  0  0  0  0  0  0  0  0
  146.6067  134.8303  151.5409 H   0  0  0  0  0  0  0  0  0  0  0  0
  145.1546  132.4181  156.9811 H   0  0  0  0  0  0  0  0  0  0  0  0
  144.5614  132.3872  154.7676 H   0  0  0  0  0  0  0  0  0  0  0  0
  1  2  1  0  0  0  0
  1 23  1  0  0  0  0
  1 24  1  0  0  0  0
  1 25  1  0  0  0  0
  2  3  1  0  0  0  0
  2 26  1  0  0  0  0
  2 27  1  0  0  0  0
  3  4  1  0  0  0  0
  3  6  1  0  0  0  0
  4  5  1  0  0  0  0
  4 28  1  0  0  0  0
  4 29  1  0  0  0  0
  5 30  1  0  0  0  0
  5 31  1  0  0  0  0
  5 32  1  0  0  0  0
  6  7  2  0  0  0  0
  6  8  2  0  0  0  0
  6  9  1  0  0  0  0
  9 10  1  0  0  0  0
 10 11  1  0  0  0  0
 10 33  1  0  0  0  0
 10 34  1  0  0  0  0
 11 22  1  0  0  0  0
 11 12  2  0  0  0  0
 12 13  1  0  0  0  0
 12 35  1  0  0  0  0
 13 14  2  0  0  0  0
 13 36  1  0  0  0  0
 14 15  1  0  0  0  0
 14 21  1  0  0  0  0
 15 20  1  0  0  0  0
 15 16  1  0  0  0  0
 16 17  1  0  0  0  0
 16 37  1  0  0  0  0
 16 38  1  0  0  0  0
 17 18  1  0  0  0  0
 17 39  1  0  0  0  0
 17 40  1  0  0  0  0
 18 19  1  0  0  0  0
 19 20  1  0  0  0  0
 19 41  1  0  0  0  0
 19 42  1  0  0  0  0
 20 43  1  0  0  0  0
 20 44  1  0  0  0  0
 21 22  2  0  0  0  0
 21 46  1  0  0  0  0
 22 45  1  0  0  0  0
M  CHG  1   9  -1
M  CHG  1  21   1
M  END
> <s_m_source_file>
AV-unprocessed.smi

> <i_m_source_file_index>
2168

> <i_lp_mmshare_version>
43012

> <i_f3d_flags>
0

> <s_epik_input>
W0NIM11bQ0gyXU4oW0NIMl1bQ0gzXSlTKD1PKSg9TylbTkhdW0NIMl1jMVtjSF1bY0hdYyhuW2NIXTEpTjJbQ0gyXVtDSDJdT1tDSDJdW0NIMl0y

> <s_epik_cmdline>
J2VwaWtfcHl0aG9uJywgJy1waCcsICc3LjAnLCAnLXRuJywgJzgnLCAnLW1hJywgJzIwMCcsICctbWV0YWxfYmluZGluZycsICctaW1hZScsICc8aW5maWxlLm1hZT4nLCAnLW9tYWUnLCAnPG91dGZpbGUubWFlPic=

> <r_lp_tautomer_probability>
0.999994

> <r_epik_Ionization_Penalty>
2.67026

> <r_epik_Ionization_Penalty_Charging>
2.67026

> <r_epik_Ionization_Penalty_Neutral>
4.07977e-08

> <r_epik_State_Penalty>
4.05768

> <r_epik_Charging_Adjusted_Penalty>
6.72795

> <i_epik_Tot_Q>
0

> <i_epik_Tot_abs_Q>
2

> <r_epik_Metal_State_Penalty>
2.91237

> <b_epik_Metal_Only>
1

> <s_lp_Force_Field>
OPLS_2005

> <r_lp_Energy>
13.0843

> <b_lp_Chiralities_Consistent>
1

> <s_lp_Variant>
AV-unprocessed.smi:2168-4

> <Gold.Version>
5.8.1

> <Gold.Id.Protein>
6NUR|6NUR_protein|mol2

> <Gold.PLP.Fitness>
42.6504

> <Gold.PLP.PLP>
-31.9819

> <Gold.PLP.part.hbond>
-3.0000

> <Gold.PLP.part.metal>
0.0000

> <Gold.PLP.part.buried>
-3.9662

> <Gold.PLP.part.nonpolar>
-24.1626

> <Gold.PLP.part.repulsive>
1.0199

> <Gold.PLP.ligand.clash>
0.0000

> <Gold.PLP.ligand.torsion>
2.5570

> <Gold.PLP.Chemscore.Hbond>
3.9760

> <Gold.PLP.Chemscore.CHOScore>
0.0000

> <Gold.PLP.Chemscore.Metal>
0.0000

> <Gold.Chemscore.Hbonds>
donor molecule, donor type, donor heavy atom, donor atom, acceptor molecule, acceptor atom, score
      L1  H    21    46       P1 10957  2.00
      P1  H  6896  6907       L1     8  0.99
      P1  H  6934  6947       L1     7  1.00

> <Gold.PLP.Chemscore.Internal.Correction>
3.8545

> <Gold.Rescore>
     Score         DG    S(hbond)    S(metal)    S(lipo)     H(rot)  DE(clash)    DE(int)     intcor
     15.36     -18.23       2.90        0.00      63.78       1.72       0.07       2.80       ----

> <Gold.Chemscore.Fitness>
15.3636

> <Gold.Chemscore.DG>
-18.2284

> <Gold.Chemscore.ZeroCoef>
-5.4800

> <Gold.Chemscore.Hbond>
2.8978

> <Gold.Chemscore.Metal>
0.0000

> <Gold.Chemscore.Lipo>
63.7821

> <Gold.Chemscore.Internal_Hbond>
0.0000

> <Gold.Chemscore.DEClash>
0.0650

> <Gold.Chemscore.DEInternal>
2.7998

> <Gold.Chemscore.Rot>
1.7159

> <Gold.Chemscore.Internal.Correction>
   9.000000E+99

> <Gold.Chemscore.Hbonds>
donor molecule, donor type, donor heavy atom, donor atom, acceptor molecule, acceptor atom, score
      L1  H    21    46       P1 10957  0.78
      P1  H  6896  6907       L1     8  0.92
      P1  H  6934  6947       L1     7  0.95

> <Gold.Chemscore.Hbond.Weighted>
-9.6785

> <Gold.Chemscore.Metal.Weighted>
-0.0000

> <Gold.Chemscore.Lipo.Weighted>
-7.4625

> <Gold.Chemscore.Internal_Hbond.Weighted>
0.0000

> <Gold.Chemscore.DEClash.Weighted>
0.0650

> <Gold.Chemscore.DEInternal.Weighted>
2.7998

> <Gold.Chemscore.Rot.Weighted>
4.3926

> <Gold.Chemscore.Internal.Correction.Weighted>
   9.000000E+99

> <Gold.Protein.RotatedTorsions>
[ 6907 6896 6895 6894 ] final  -68.89 input  -60.11 | X-H torsion
[ 7974 7965 7964 7962 ] final -157.40 input  175.53 | X-H torsion
[ 8008 7997 7996 7995 ] final -115.37 input   59.86 | X-H torsion
[ 10167 10162 10161 10158 ] final -170.78 input  -65.29 | X-H torsion
[ 10718 10713 10712 10709 ] final  -76.61 input   66.30 | X-H torsion
[ 10763 10752 10751 10750 ] final   30.70 input  -60.55 | X-H torsion
[ 11005 11000 10999 10996 ] final   66.91 input  -57.11 | X-H torsion

> <Gold.Protein.ActiveResidues>
 VAL166  LYS551  ARG553  GLY616  TRP617  ASP618  TYR619  PRO620  LYS621  CYS622 
 ASP623  PHE694  ASN695  SER759  ASP760  ASP761  ALA762  ILE779  LEU786  VAL792 
 PHE793  MET794  SER795  GLU796  ALA797  LYS798  CYS799  TRP800  GLU811  SER814 

> <Gold.Protein.RotatedAtoms>
  150.7333  134.5675  159.5873 H   0  0  0  0  0  0  0  0  0  0  0  0  # atno 6907 bound_to 6896
  152.3122  134.7480  160.0342 H   0  0  0  0  0  0  0  0  0  0  0  0  # atno 6908 bound_to 6896
  151.8024  133.3336  159.3567 H   0  0  0  0  0  0  0  0  0  0  0  0  # atno 6909 bound_to 6896
  144.7550  140.3974  143.6019 H   0  0  0  0  0  0  0  0  0  0  0  0  # atno 7974 bound_to 7965
  155.0509  140.0393  157.2543 H   0  0  0  0  0  0  0  0  0  0  0  0  # atno 8008 bound_to 7997
  154.7138  140.2698  155.6580 H   0  0  0  0  0  0  0  0  0  0  0  0  # atno 8009 bound_to 7997
  156.2797  140.2716  156.1788 H   0  0  0  0  0  0  0  0  0  0  0  0  # atno 8010 bound_to 7997
  139.5841  144.1357  152.1553 H   0  0  0  0  0  0  0  0  0  0  0  0  # atno 10167 bound_to 10162
  156.0170  130.4470  150.3220 H   0  0  0  0  0  0  0  0  0  0  0  0  # atno 10718 bound_to 10713
  153.0357  135.6457  154.1085 H   0  0  0  0  0  0  0  0  0  0  0  0  # atno 10763 bound_to 10752
  154.0800  135.2874  155.3293 H   0  0  0  0  0  0  0  0  0  0  0  0  # atno 10764 bound_to 10752
  154.6536  135.5417  153.7996 H   0  0  0  0  0  0  0  0  0  0  0  0  # atno 10765 bound_to 10752
  139.9803  134.6755  156.0276 H   0  0  0  0  0  0  0  0  0  0  0  0  # atno 11005 bound_to 11000
  145.6812  139.1619  143.2700 LP  0  0  0  0  0  0  0  0  0  0  0  0  # atno 17320 bound_to 7965
  146.1548  140.6873  142.9305 LP  0  0  0  0  0  0  0  0  0  0  0  0  # atno 17321 bound_to 7965
  140.0917  144.5615  150.7050 LP  0  0  0  0  0  0  0  0  0  0  0  0  # atno 17342 bound_to 10162
  140.7115  143.2509  151.4565 LP  0  0  0  0  0  0  0  0  0  0  0  0  # atno 17343 bound_to 10162
  157.1320  131.0274  151.2965 LP  0  0  0  0  0  0  0  0  0  0  0  0  # atno 17370 bound_to 10713
  157.4543  130.7616  149.7178 LP  0  0  0  0  0  0  0  0  0  0  0  0  # atno 17371 bound_to 10713
  141.1475  133.6553  156.3913 LP  0  0  0  0  0  0  0  0  0  0  0  0  # atno 17394 bound_to 11000
  140.5111  134.6394  157.5284 LP  0  0  0  0  0  0  0  0  0  0  0  0  # atno 17395 bound_to 11000

$$$$
