AV-unprocessed.smi:1131|AV-procd|sdf|4850|dock1
  -GOLD-   22720 3423D 1   1.00000     0.00000
 Structure written by MMmdl.
 33 34  0  0  0  0  0  0  0  0  1 V2000
  152.0529  141.1630  157.3605 O   0  0  0  0  0  0  0  0  0  0  0  0
  151.1735  141.7767  156.7542 C   0  0  0  0  0  0  0  0  0  0  0  0
  150.2147  141.0452  155.8036 C   0  0  0  0  0  0  0  0  0  0  0  0
  150.4909  139.6047  155.7005 N   0  0  0  0  0  0  0  0  0  0  0  0
  149.5124  138.6786  156.0332 C   0  0  0  0  0  0  0  0  0  0  0  0
  149.7023  137.3390  155.9739 C   0  0  0  0  0  0  0  0  0  0  0  0
  150.9855  136.7933  155.5451 C   0  0  0  0  0  0  0  0  0  0  0  0
  151.2540  135.5972  155.4577 O   0  0  0  0  0  0  0  0  0  0  0  0
  151.9450  137.7565  155.2218 N   0  0  0  0  0  0  0  0  0  0  0  0
  151.7562  139.1381  155.2816 C   0  0  0  0  0  0  0  0  0  0  0  0
  152.6725  139.9011  154.9775 O   0  0  0  0  0  0  0  0  0  0  0  0
  150.9748  143.0963  156.8900 N   0  0  0  0  0  0  0  0  0  0  0  0
  151.7594  143.9792  157.7465 C   0  0  0  0  0  0  0  0  0  0  0  0
  151.6666  143.5797  159.2317 C   0  0  2  0  0  0  0  0  0  0  0  0
  151.8868  144.7155  160.2114 C   0  0  0  0  0  0  0  0  0  0  0  0
  152.2180  143.9612  161.4950 C   0  0  0  0  0  0  0  0  0  0  0  0
  152.8755  142.7656  161.0847 O   0  0  0  0  0  0  0  0  0  0  0  0
  152.7448  142.5923  159.6764 C   0  0  0  0  0  0  0  0  0  0  0  0
  152.8507  137.4255  154.9226 H   0  0  0  0  0  0  0  0  0  0  0  0
  149.1955  141.2098  156.1570 H   0  0  0  0  0  0  0  0  0  0  0  0
  150.2540  141.5070  154.8147 H   0  0  0  0  0  0  0  0  0  0  0  0
  148.5471  139.0375  156.3609 H   0  0  0  0  0  0  0  0  0  0  0  0
  148.9009  136.6677  156.2470 H   0  0  0  0  0  0  0  0  0  0  0  0
  150.2280  143.5209  156.3594 H   0  0  0  0  0  0  0  0  0  0  0  0
  152.8010  143.9832  157.4203 H   0  0  0  0  0  0  0  0  0  0  0  0
  151.3909  144.9961  157.6081 H   0  0  0  0  0  0  0  0  0  0  0  0
  150.6911  143.1330  159.4319 H   0  0  0  0  0  0  0  0  0  0  0  0
  152.7384  145.3243  159.9045 H   0  0  0  0  0  0  0  0  0  0  0  0
  151.0196  145.3678  160.3169 H   0  0  0  0  0  0  0  0  0  0  0  0
  152.8394  144.5458  162.1737 H   0  0  0  0  0  0  0  0  0  0  0  0
  151.3031  143.6895  162.0228 H   0  0  0  0  0  0  0  0  0  0  0  0
  152.4954  141.5614  159.4244 H   0  0  0  0  0  0  0  0  0  0  0  0
  153.7033  142.8297  159.2129 H   0  0  0  0  0  0  0  0  0  0  0  0
  1  2  2  0  0  0  0
  2  3  1  0  0  0  0
  2 12  1  0  0  0  0
  3  4  1  0  0  0  0
  3 20  1  0  0  0  0
  3 21  1  0  0  0  0
  4 10  1  0  0  0  0
  4  5  1  0  0  0  0
  5  6  2  0  0  0  0
  5 22  1  0  0  0  0
  6  7  1  0  0  0  0
  6 23  1  0  0  0  0
  7  8  2  0  0  0  0
  7  9  1  0  0  0  0
  9 19  1  0  0  0  0
  9 10  1  0  0  0  0
 10 11  2  0  0  0  0
 12 13  1  0  0  0  0
 12 24  1  0  0  0  0
 13 14  1  0  0  0  0
 13 25  1  0  0  0  0
 13 26  1  0  0  0  0
 14 18  1  0  0  0  0
 14 15  1  0  0  0  0
 14 27  1  0  0  0  0
 15 16  1  0  0  0  0
 15 28  1  0  0  0  0
 15 29  1  0  0  0  0
 16 17  1  0  0  0  0
 16 30  1  0  0  0  0
 16 31  1  0  0  0  0
 17 18  1  0  0  0  0
 18 32  1  0  0  0  0
 18 33  1  0  0  0  0
M  END
> <s_m_source_file>
AV-unprocessed.smi

> <i_m_source_file_index>
1131

> <i_lp_mmshare_version>
43012

> <i_f3d_flags>
0

> <s_epik_input>
W0NIMl0xT1tDSDJdW0NIMl1bQ0BIXTFbQ0gyXVtOSF1DKD1PKVtDSDJdbjJbY0hdW2NIXWMoPU8pW25IXWMyPU8=

> <s_epik_cmdline>
J2VwaWtfcHl0aG9uJywgJy1waCcsICc3LjAnLCAnLXRuJywgJzgnLCAnLW1hJywgJzIwMCcsICctbWV0YWxfYmluZGluZycsICctaW1hZScsICc8aW5maWxlLm1hZT4nLCAnLW9tYWUnLCAnPG91dGZpbGUubWFlPic=

> <r_lp_tautomer_probability>
0.999537

> <r_epik_Ionization_Penalty>
0.00329016

> <r_epik_Ionization_Penalty_Charging>
0.00329014

> <r_epik_Ionization_Penalty_Neutral>
1.87063e-08

> <r_epik_State_Penalty>
0.00232461

> <r_epik_Charging_Adjusted_Penalty>
0.00561475

> <i_epik_Tot_Q>
0

> <i_epik_Tot_abs_Q>
0

> <r_epik_Metal_State_Penalty>
0.365289

> <b_epik_Metal_Only>
0

> <s_lp_Force_Field>
OPLS_2005

> <r_lp_Energy>
17.5195

> <b_lp_Chiralities_Consistent>
1

> <s_lp_Variant>
AV-unprocessed.smi:1131-1

> <Gold.Version>
5.8.1

> <Gold.Id.Protein>
6NUR|6NUR_protein|mol2

> <Gold.PLP.Fitness>
45.3378

> <Gold.PLP.PLP>
-35.7312

> <Gold.PLP.part.hbond>
-4.0000

> <Gold.PLP.part.metal>
0.0000

> <Gold.PLP.part.buried>
-4.0779

> <Gold.PLP.part.nonpolar>
-28.0576

> <Gold.PLP.part.repulsive>
0.3206

> <Gold.PLP.ligand.clash>
0.0000

> <Gold.PLP.ligand.torsion>
0.3486

> <Gold.PLP.Chemscore.Hbond>
3.4314

> <Gold.PLP.Chemscore.CHOScore>
0.0000

> <Gold.PLP.Chemscore.Metal>
0.0000

> <Gold.Chemscore.Hbonds>
donor molecule, donor type, donor heavy atom, donor atom, acceptor molecule, acceptor atom, score
      L1  H    12    24       P1  8028  1.00
      P1  H  7989  7998       L1    11  0.44
      P1  H  7997  8008       L1    11  0.98
      P1  H 10752 10764       L1     8  1.00

> <Gold.PLP.Chemscore.Internal.Correction>
0.0096

> <Gold.Rescore>
     Score         DG    S(hbond)    S(metal)    S(lipo)     H(rot)  DE(clash)    DE(int)     intcor
     14.69     -16.46       2.56        0.00      66.47       2.09       0.00       1.77       ----

> <Gold.Chemscore.Fitness>
14.6863

> <Gold.Chemscore.DG>
-16.4601

> <Gold.Chemscore.ZeroCoef>
-5.4800

> <Gold.Chemscore.Hbond>
2.5622

> <Gold.Chemscore.Metal>
0.0000

> <Gold.Chemscore.Lipo>
66.4747

> <Gold.Chemscore.Internal_Hbond>
0.0000

> <Gold.Chemscore.DEClash>
0.0000

> <Gold.Chemscore.DEInternal>
1.7738

> <Gold.Chemscore.Rot>
2.0919

> <Gold.Chemscore.Internal.Correction>
   9.000000E+99

> <Gold.Chemscore.Hbonds>
donor molecule, donor type, donor heavy atom, donor atom, acceptor molecule, acceptor atom, score
      L1  H    12    24       P1  8028  0.99
      P1  H  7989  7998       L1    11  0.07
      P1  H  7997  8008       L1    11  0.91
      P1  H 10752 10764       L1     8  0.60

> <Gold.Chemscore.Hbond.Weighted>
-8.5578

> <Gold.Chemscore.Metal.Weighted>
-0.0000

> <Gold.Chemscore.Lipo.Weighted>
-7.7775

> <Gold.Chemscore.Internal_Hbond.Weighted>
0.0000

> <Gold.Chemscore.DEClash.Weighted>
0.0000

> <Gold.Chemscore.DEInternal.Weighted>
1.7738

> <Gold.Chemscore.Rot.Weighted>
5.3552

> <Gold.Chemscore.Internal.Correction.Weighted>
   9.000000E+99

> <Gold.Protein.RotatedTorsions>
[ 6907 6896 6895 6894 ] final  176.99 input  -60.11 | X-H torsion
[ 7974 7965 7964 7962 ] final -137.36 input  175.53 | X-H torsion
[ 8008 7997 7996 7995 ] final   -6.47 input   59.86 | X-H torsion
[ 10167 10162 10161 10158 ] final  125.08 input  -65.29 | X-H torsion
[ 10718 10713 10712 10709 ] final   13.26 input   66.30 | X-H torsion
[ 10763 10752 10751 10750 ] final  -40.41 input  -60.55 | X-H torsion
[ 11005 11000 10999 10996 ] final  -17.35 input  -57.11 | X-H torsion

> <Gold.Protein.ActiveResidues>
 VAL166  LYS551  ARG553  GLY616  TRP617  ASP618  TYR619  PRO620  LYS621  CYS622 
 ASP623  PHE694  ASN695  SER759  ASP760  ASP761  ALA762  ILE779  LEU786  VAL792 
 PHE793  MET794  SER795  GLU796  ALA797  LYS798  CYS799  TRP800  GLU811  SER814 

> <Gold.Protein.RotatedAtoms>
  151.7112  133.3312  159.3290 H   0  0  0  0  0  0  0  0  0  0  0  0  # atno 6907 bound_to 6896
  150.7693  134.6531  159.6308 H   0  0  0  0  0  0  0  0  0  0  0  0  # atno 6908 bound_to 6896
  152.3710  134.6736  160.0228 H   0  0  0  0  0  0  0  0  0  0  0  0  # atno 6909 bound_to 6896
  144.8848  140.6559  143.5183 H   0  0  0  0  0  0  0  0  0  0  0  0  # atno 7974 bound_to 7965
  154.5935  140.2432  155.7889 H   0  0  0  0  0  0  0  0  0  0  0  0  # atno 8008 bound_to 7997
  156.2263  140.2981  156.0029 H   0  0  0  0  0  0  0  0  0  0  0  0  # atno 8009 bound_to 7997
  155.2333  140.0404  157.2955 H   0  0  0  0  0  0  0  0  0  0  0  0  # atno 8010 bound_to 7997
  139.5706  144.6936  151.3790 H   0  0  0  0  0  0  0  0  0  0  0  0  # atno 10167 bound_to 10162
  157.0221  130.6159  149.5722 H   0  0  0  0  0  0  0  0  0  0  0  0  # atno 10718 bound_to 10713
  153.9455  135.6756  153.4744 H   0  0  0  0  0  0  0  0  0  0  0  0  # atno 10763 bound_to 10752
  153.0910  135.4874  154.8687 H   0  0  0  0  0  0  0  0  0  0  0  0  # atno 10764 bound_to 10752
  154.7354  135.3148  154.8779 H   0  0  0  0  0  0  0  0  0  0  0  0  # atno 10765 bound_to 10752
  140.8160  133.8104  155.9611 H   0  0  0  0  0  0  0  0  0  0  0  0  # atno 11005 bound_to 11000
  145.3889  139.1621  143.4240 LP  0  0  0  0  0  0  0  0  0  0  0  0  # atno 17320 bound_to 7965
  146.3017  140.3976  142.8701 LP  0  0  0  0  0  0  0  0  0  0  0  0  # atno 17321 bound_to 7965
  140.6990  143.7679  150.7372 LP  0  0  0  0  0  0  0  0  0  0  0  0  # atno 17342 bound_to 10162
  140.1183  143.4635  152.2328 LP  0  0  0  0  0  0  0  0  0  0  0  0  # atno 17343 bound_to 10162
  156.0099  130.5189  150.7953 LP  0  0  0  0  0  0  0  0  0  0  0  0  # atno 17370 bound_to 10713
  157.5242  131.0933  151.0040 LP  0  0  0  0  0  0  0  0  0  0  0  0  # atno 17371 bound_to 10713
  140.9149  134.2215  157.4963 LP  0  0  0  0  0  0  0  0  0  0  0  0  # atno 17394 bound_to 11000
  139.8711  134.9766  156.4929 LP  0  0  0  0  0  0  0  0  0  0  0  0  # atno 17395 bound_to 11000

$$$$
