AV-unprocessed.smi:3342|AV-procd|sdf|12890|dock6
  -GOLD-   2272019293D 1   1.00000     0.00000
 Structure written by MMmdl.
 41 42  0  0  0  0  0  0  0  0  1 V2000
  149.8492  141.9659  157.3276 C   0  0  0  0  0  0  0  0  0  0  0  0
  151.3691  141.7624  157.2283 C   0  0  1  0  0  0  0  0  0  0  0  0
  152.0685  142.0830  158.5628 C   0  0  0  0  0  0  0  0  0  0  0  0
  151.9625  143.4863  158.9180 N   0  0  0  0  0  0  0  0  0  0  0  0
  152.5352  144.1196  160.0136 C   0  0  0  0  0  0  0  0  0  0  0  0
  152.1675  145.4440  159.9378 C   0  0  0  0  0  0  0  0  0  0  0  0
  151.3724  145.6463  158.8121 N   0  0  0  0  0  0  0  0  0  0  0  0
  151.2945  144.4428  158.2591 C   0  0  0  0  0  0  0  0  0  0  0  0
  151.6654  140.3881  156.8308 N   0  0  0  0  0  0  0  0  0  0  0  0
  151.2995  139.8050  155.6770 C   0  0  0  0  0  0  0  0  0  0  0  0
  150.6205  140.3922  154.8335 O   0  0  0  0  0  0  0  0  0  0  0  0
  151.7412  138.5310  155.5219 N   0  0  0  0  0  0  0  0  0  0  0  0
  152.6017  137.7838  156.4553 C   0  0  0  0  0  0  0  0  0  0  0  0
  151.7513  136.7126  157.1607 C   0  0  0  0  0  0  0  0  0  0  0  0
  151.0797  135.7708  156.1333 C   0  0  0  0  0  0  0  0  0  0  0  0
  150.1287  134.7865  156.8273 C   0  0  0  0  0  0  0  0  0  0  0  0
  149.5487  133.8582  156.0624 N   0  0  0  0  0  0  0  0  0  0  0  0
  149.9192  134.8599  158.0368 O   0  0  0  0  0  0  0  0  0  0  0  0
  150.3420  136.5829  155.0426 C   0  0  0  0  0  0  0  0  0  0  0  0
  151.2574  137.6645  154.4401 C   0  0  0  0  0  0  0  0  0  0  0  0
  149.6094  142.9911  157.6098 H   0  0  0  0  0  0  0  0  0  0  0  0
  149.4077  141.3038  158.0731 H   0  0  0  0  0  0  0  0  0  0  0  0
  149.3598  141.7666  156.3737 H   0  0  0  0  0  0  0  0  0  0  0  0
  151.7559  142.4470  156.4709 H   0  0  0  0  0  0  0  0  0  0  0  0
  151.6268  141.4970  159.3698 H   0  0  0  0  0  0  0  0  0  0  0  0
  153.1242  141.8105  158.5197 H   0  0  0  0  0  0  0  0  0  0  0  0
  153.1422  143.5913  160.7340 H   0  0  0  0  0  0  0  0  0  0  0  0
  152.4122  146.2603  160.6014 H   0  0  0  0  0  0  0  0  0  0  0  0
  150.7403  144.2530  157.3513 H   0  0  0  0  0  0  0  0  0  0  0  0
  152.2185  139.8412  157.4742 H   0  0  0  0  0  0  0  0  0  0  0  0
  153.4071  137.3078  155.8942 H   0  0  0  0  0  0  0  0  0  0  0  0
  153.1017  138.4076  157.1963 H   0  0  0  0  0  0  0  0  0  0  0  0
  152.3785  136.1359  157.8416 H   0  0  0  0  0  0  0  0  0  0  0  0
  150.9966  137.2045  157.7766 H   0  0  0  0  0  0  0  0  0  0  0  0
  151.8695  135.1993  155.6423 H   0  0  0  0  0  0  0  0  0  0  0  0
  148.9165  133.1873  156.4740 H   0  0  0  0  0  0  0  0  0  0  0  0
  149.7470  133.8303  155.0729 H   0  0  0  0  0  0  0  0  0  0  0  0
  149.9926  135.9169  154.2528 H   0  0  0  0  0  0  0  0  0  0  0  0
  149.4532  137.0604  155.4591 H   0  0  0  0  0  0  0  0  0  0  0  0
  150.7209  138.2138  153.6652 H   0  0  0  0  0  0  0  0  0  0  0  0
  152.1078  137.2013  153.9376 H   0  0  0  0  0  0  0  0  0  0  0  0
  1  2  1  0  0  0  0
  1 21  1  0  0  0  0
  1 22  1  0  0  0  0
  1 23  1  0  0  0  0
  2  3  1  0  0  0  0
  2  9  1  0  0  0  0
  2 24  1  0  0  0  0
  3  4  1  0  0  0  0
  3 25  1  0  0  0  0
  3 26  1  0  0  0  0
  4  8  1  0  0  0  0
  4  5  1  0  0  0  0
  5  6  2  0  0  0  0
  5 27  1  0  0  0  0
  6  7  1  0  0  0  0
  6 28  1  0  0  0  0
  7  8  2  0  0  0  0
  8 29  1  0  0  0  0
  9 10  1  0  0  0  0
  9 30  1  0  0  0  0
 10 11  2  0  0  0  0
 10 12  1  0  0  0  0
 12 20  1  0  0  0  0
 12 13  1  0  0  0  0
 13 14  1  0  0  0  0
 13 31  1  0  0  0  0
 13 32  1  0  0  0  0
 14 15  1  0  0  0  0
 14 33  1  0  0  0  0
 14 34  1  0  0  0  0
 15 16  1  0  0  0  0
 15 19  1  0  0  0  0
 15 35  1  0  0  0  0
 16 17  1  0  0  0  0
 16 18  2  0  0  0  0
 17 36  1  0  0  0  0
 17 37  1  0  0  0  0
 19 20  1  0  0  0  0
 19 38  1  0  0  0  0
 19 39  1  0  0  0  0
 20 40  1  0  0  0  0
 20 41  1  0  0  0  0
M  END
> <s_m_source_file>
AV-unprocessed.smi

> <i_m_source_file_index>
3342

> <i_lp_mmshare_version>
43012

> <i_f3d_flags>
0

> <s_epik_input>
W2NIXTFuW2NIXVtjSF1uMVtDSDJdW0NAQEhdKFtDSDNdKVtOSF1DKD1PKU4yW0NIMl1bQ0gyXVtDSF0oQyg9TylbTkgyXSlbQ0gyXVtDSDJdMg==

> <s_epik_cmdline>
J2VwaWtfcHl0aG9uJywgJy1waCcsICc3LjAnLCAnLXRuJywgJzgnLCAnLW1hJywgJzIwMCcsICctbWV0YWxfYmluZGluZycsICctaW1hZScsICc8aW5maWxlLm1hZT4nLCAnLW9tYWUnLCAnPG91dGZpbGUubWFlPic=

> <r_lp_tautomer_probability>
1

> <r_epik_Ionization_Penalty>
0.624431

> <r_epik_Ionization_Penalty_Charging>
0.624374

> <r_epik_Ionization_Penalty_Neutral>
5.67186e-05

> <r_epik_State_Penalty>
0.640677

> <r_epik_Charging_Adjusted_Penalty>
1.26505

> <i_epik_Tot_Q>
0

> <i_epik_Tot_abs_Q>
0

> <r_epik_Metal_State_Penalty>
0.307574

> <b_epik_Metal_Only>
0

> <s_lp_Force_Field>
OPLS_2005

> <r_lp_Energy>
30.3525

> <b_lp_Chiralities_Consistent>
1

> <s_lp_Variant>
AV-unprocessed.smi:3342-4

> <Gold.Version>
5.8.1

> <Gold.Id.Protein>
6NUR|6NUR_protein|mol2

> <Gold.PLP.Fitness>
46.5993

> <Gold.PLP.PLP>
-37.9173

> <Gold.PLP.part.hbond>
-3.0000

> <Gold.PLP.part.metal>
0.0000

> <Gold.PLP.part.buried>
-5.4577

> <Gold.PLP.part.nonpolar>
-30.1755

> <Gold.PLP.part.repulsive>
0.3775

> <Gold.PLP.ligand.clash>
0.0000

> <Gold.PLP.ligand.torsion>
0.0959

> <Gold.PLP.Chemscore.Hbond>
1.9280

> <Gold.PLP.Chemscore.CHOScore>
1.0000

> <Gold.PLP.Chemscore.Metal>
0.0000

> <Gold.Chemscore.Hbonds>
donor molecule, donor type, donor heavy atom, donor atom, acceptor molecule, acceptor atom, score
      P1  H  6896  6908       L1    18  0.83
      P1  H  7989  7998       L1    11  1.00
      L1  C     8    29       P1  8028  1.00

> <Gold.PLP.Chemscore.Internal.Correction>
0.0897

> <Gold.Rescore>
     Score         DG    S(hbond)    S(metal)    S(lipo)     H(rot)  DE(clash)    DE(int)     intcor
     13.53     -14.43       1.95        0.00      70.48       2.28       0.03       0.87       ----

> <Gold.Chemscore.Fitness>
13.5284

> <Gold.Chemscore.DG>
-14.4302

> <Gold.Chemscore.ZeroCoef>
-5.4800

> <Gold.Chemscore.Hbond>
1.9549

> <Gold.Chemscore.Metal>
0.0000

> <Gold.Chemscore.Lipo>
70.4835

> <Gold.Chemscore.Internal_Hbond>
0.0000

> <Gold.Chemscore.DEClash>
0.0294

> <Gold.Chemscore.DEInternal>
0.8724

> <Gold.Chemscore.Rot>
2.2757

> <Gold.Chemscore.Internal.Correction>
   9.000000E+99

> <Gold.Chemscore.Hbonds>
donor molecule, donor type, donor heavy atom, donor atom, acceptor molecule, acceptor atom, score
      P1  H  6896  6908       L1    18  0.83
      P1  H  7989  7998       L1    11  0.73

> <Gold.Chemscore.Hbond.Weighted>
-6.5295

> <Gold.Chemscore.Metal.Weighted>
-0.0000

> <Gold.Chemscore.Lipo.Weighted>
-8.2466

> <Gold.Chemscore.Internal_Hbond.Weighted>
0.0000

> <Gold.Chemscore.DEClash.Weighted>
0.0294

> <Gold.Chemscore.DEInternal.Weighted>
0.8724

> <Gold.Chemscore.Rot.Weighted>
5.8259

> <Gold.Chemscore.Internal.Correction.Weighted>
   9.000000E+99

> <Gold.Protein.RotatedTorsions>
[ 6907 6896 6895 6894 ] final  136.14 input  -60.11 | X-H torsion
[ 7974 7965 7964 7962 ] final  -48.83 input  175.53 | X-H torsion
[ 8008 7997 7996 7995 ] final  140.85 input   59.86 | X-H torsion
[ 10167 10162 10161 10158 ] final  -38.91 input  -65.29 | X-H torsion
[ 10718 10713 10712 10709 ] final  103.41 input   66.30 | X-H torsion
[ 10763 10752 10751 10750 ] final  126.61 input  -60.55 | X-H torsion
[ 11005 11000 10999 10996 ] final -150.76 input  -57.11 | X-H torsion

> <Gold.Protein.ActiveResidues>
 VAL166  LYS551  ARG553  GLY616  TRP617  ASP618  TYR619  PRO620  LYS621  CYS622 
 ASP623  PHE694  ASN695  SER759  ASP760  ASP761  ALA762  ILE779  LEU786  VAL792 
 PHE793  MET794  SER795  GLU796  ALA797  LYS798  CYS799  TRP800  GLU811  SER814 

> <Gold.Protein.RotatedAtoms>
  152.2927  133.5577  159.5567 H   0  0  0  0  0  0  0  0  0  0  0  0  # atno 6907 bound_to 6896
  150.7242  134.0405  159.3773 H   0  0  0  0  0  0  0  0  0  0  0  0  # atno 6908 bound_to 6896
  151.8310  135.0622  160.0487 H   0  0  0  0  0  0  0  0  0  0  0  0  # atno 6909 bound_to 6896
  145.9470  140.7609  142.9524 H   0  0  0  0  0  0  0  0  0  0  0  0  # atno 7974 bound_to 7965
  156.2974  140.2330  156.4468 H   0  0  0  0  0  0  0  0  0  0  0  0  # atno 8008 bound_to 7997
  154.8137  140.0441  157.1382 H   0  0  0  0  0  0  0  0  0  0  0  0  # atno 8009 bound_to 7997
  154.9394  140.3027  155.5132 H   0  0  0  0  0  0  0  0  0  0  0  0  # atno 8010 bound_to 7997
  140.7079  143.3247  151.2708 H   0  0  0  0  0  0  0  0  0  0  0  0  # atno 10167 bound_to 10162
  157.6773  131.0778  150.5552 H   0  0  0  0  0  0  0  0  0  0  0  0  # atno 10718 bound_to 10713
  153.6960  135.3291  155.3213 H   0  0  0  0  0  0  0  0  0  0  0  0  # atno 10763 bound_to 10752
  154.8426  135.4443  154.1459 H   0  0  0  0  0  0  0  0  0  0  0  0  # atno 10764 bound_to 10752
  153.2514  135.6981  153.7753 H   0  0  0  0  0  0  0  0  0  0  0  0  # atno 10765 bound_to 10752
  140.7368  134.3559  157.5156 H   0  0  0  0  0  0  0  0  0  0  0  0  # atno 11005 bound_to 11000
  144.6789  140.2372  143.7348 LP  0  0  0  0  0  0  0  0  0  0  0  0  # atno 17320 bound_to 7965
  145.8223  139.2049  143.1930 LP  0  0  0  0  0  0  0  0  0  0  0  0  # atno 17321 bound_to 7965
  139.6711  144.0018  152.2754 LP  0  0  0  0  0  0  0  0  0  0  0  0  # atno 17342 bound_to 10162
  139.9617  144.6553  150.8073 LP  0  0  0  0  0  0  0  0  0  0  0  0  # atno 17343 bound_to 10162
  156.5855  130.4315  149.5959 LP  0  0  0  0  0  0  0  0  0  0  0  0  # atno 17370 bound_to 10713
  156.2626  130.6971  151.1744 LP  0  0  0  0  0  0  0  0  0  0  0  0  # atno 17371 bound_to 10713
  139.8814  134.9054  156.2900 LP  0  0  0  0  0  0  0  0  0  0  0  0  # atno 17394 bound_to 11000
  140.9872  133.7231  156.0760 LP  0  0  0  0  0  0  0  0  0  0  0  0  # atno 17395 bound_to 11000

$$$$
