AV-unprocessed.smi:194|AV-procd|sdf|1520|dock10
  -GOLD-   2262019363D 1   1.00000     0.00000
 Structure written by MMmdl.
 53 55  0  0  0  0  0  0  0  0  1 V2000
  148.5682  142.2306  158.3380 C   0  0  0  0  0  0  0  0  0  0  0  0
  149.9875  141.6408  158.3098 C   0  0  2  0  0  0  0  0  0  0  0  0
  151.0373  142.7108  157.9474 C   0  0  0  0  0  0  0  0  0  0  0  0
  151.3502  143.7808  159.4327 S   0  0  1  0  0  0  0  0  0  0  0  0
  152.5429  144.9399  158.6146 C   0  0  0  0  0  0  0  0  0  0  0  0
  150.0652  144.5718  159.6854 O   0  0  0  0  0  0  0  0  0  0  0  0
  150.0473  140.4691  157.4242 N   0  0  0  0  0  0  0  0  0  0  0  0
  149.6682  140.5729  156.0182 C   0  0  0  0  0  0  0  0  0  0  0  0
  150.1600  139.2312  157.9755 C   0  0  0  0  0  0  0  0  0  0  0  0
  151.4063  138.7209  158.1562 N   0  0  0  0  0  0  0  0  0  0  0  0
  151.5743  137.5046  158.6806 C   0  0  0  0  0  0  0  0  0  0  0  0
  150.6467  136.6384  159.0890 N   0  0  0  0  0  0  0  0  0  0  0  0
  149.3905  137.1383  158.9116 C   0  0  0  0  0  0  0  0  0  0  0  0
  149.0585  138.4148  158.3713 C   0  0  0  0  0  0  0  0  0  0  0  0
  147.6772  138.5768  158.3765 N   0  0  0  0  0  0  0  0  0  0  0  0
  147.2226  137.4641  158.8823 C   0  0  0  0  0  0  0  0  0  0  0  0
  148.1815  136.5344  159.2137 N   0  0  0  0  0  0  0  0  0  0  0  0
  147.9500  135.2212  159.7984 C   0  0  0  0  0  0  0  0  0  0  0  0
  147.0651  135.1943  161.0819 C   0  0  0  0  0  0  0  0  0  0  0  0
  147.7641  135.9384  162.2595 C   0  0  0  0  0  0  0  0  0  0  0  0
  147.6107  137.3431  162.2200 O   0  0  0  0  0  0  0  0  0  0  0  0
  145.6522  135.7655  160.7969 C   0  0  0  0  0  0  0  0  0  0  0  0
  144.6525  135.4631  161.9260 C   0  0  0  0  0  0  0  0  0  0  0  0
  144.5595  134.0582  162.1211 O   0  0  0  0  0  0  0  0  0  0  0  0
  145.7888  133.4766  162.5343 C   0  0  0  0  0  0  0  0  0  0  0  0
  146.8729  133.7034  161.4620 C   0  0  0  0  0  0  0  0  0  0  0  0
  148.4967  143.0437  159.0608 H   0  0  0  0  0  0  0  0  0  0  0  0
  147.8356  141.4745  158.6223 H   0  0  0  0  0  0  0  0  0  0  0  0
  148.2775  142.6281  157.3650 H   0  0  0  0  0  0  0  0  0  0  0  0
  150.1964  141.3345  159.3350 H   0  0  0  0  0  0  0  0  0  0  0  0
  151.9714  142.2688  157.6021 H   0  0  0  0  0  0  0  0  0  0  0  0
  150.6653  143.3441  157.1416 H   0  0  0  0  0  0  0  0  0  0  0  0
  153.4030  144.3926  158.2292 H   0  0  0  0  0  0  0  0  0  0  0  0
  152.8963  145.6812  159.3311 H   0  0  0  0  0  0  0  0  0  0  0  0
  152.0605  145.4606  157.7873 H   0  0  0  0  0  0  0  0  0  0  0  0
  150.1325  139.7809  155.4294 H   0  0  0  0  0  0  0  0  0  0  0  0
  149.9833  141.5236  155.5909 H   0  0  0  0  0  0  0  0  0  0  0  0
  148.5862  140.4994  155.9067 H   0  0  0  0  0  0  0  0  0  0  0  0
  152.5988  137.1790  158.7857 H   0  0  0  0  0  0  0  0  0  0  0  0
  146.1662  137.2844  159.0188 H   0  0  0  0  0  0  0  0  0  0  0  0
  147.5059  134.5945  159.0237 H   0  0  0  0  0  0  0  0  0  0  0  0
  148.9231  134.7767  160.0122 H   0  0  0  0  0  0  0  0  0  0  0  0
  147.3732  135.6171  163.2229 H   0  0  0  0  0  0  0  0  0  0  0  0
  148.8292  135.7059  162.2736 H   0  0  0  0  0  0  0  0  0  0  0  0
  147.3119  137.6369  163.0670 H   0  0  0  0  0  0  0  0  0  0  0  0
  145.6882  136.8399  160.6175 H   0  0  0  0  0  0  0  0  0  0  0  0
  145.2644  135.3237  159.8783 H   0  0  0  0  0  0  0  0  0  0  0  0
  144.9361  135.9592  162.8550 H   0  0  0  0  0  0  0  0  0  0  0  0
  143.6661  135.8411  161.6573 H   0  0  0  0  0  0  0  0  0  0  0  0
  146.0845  133.8751  163.5047 H   0  0  0  0  0  0  0  0  0  0  0  0
  145.6330  132.4074  162.6783 H   0  0  0  0  0  0  0  0  0  0  0  0
  146.5821  133.1371  160.5758 H   0  0  0  0  0  0  0  0  0  0  0  0
  147.8175  133.2719  161.7957 H   0  0  0  0  0  0  0  0  0  0  0  0
  1  2  1  0  0  0  0
  1 27  1  0  0  0  0
  1 28  1  0  0  0  0
  1 29  1  0  0  0  0
  2  3  1  0  0  0  0
  2  7  1  0  0  0  0
  2 30  1  0  0  0  0
  3  4  1  0  0  0  0
  3 31  1  0  0  0  0
  3 32  1  0  0  0  0
  4  5  1  0  0  0  0
  4  6  2  0  0  0  0
  5 33  1  0  0  0  0
  5 34  1  0  0  0  0
  5 35  1  0  0  0  0
  7  8  1  0  0  0  0
  7  9  1  0  0  0  0
  8 36  1  0  0  0  0
  8 37  1  0  0  0  0
  8 38  1  0  0  0  0
  9 14  1  0  0  0  0
  9 10  2  0  0  0  0
 10 11  1  0  0  0  0
 11 12  2  0  0  0  0
 11 39  1  0  0  0  0
 12 13  1  0  0  0  0
 13 17  1  0  0  0  0
 13 14  2  0  0  0  0
 14 15  1  0  0  0  0
 15 16  2  0  0  0  0
 16 17  1  0  0  0  0
 16 40  1  0  0  0  0
 17 18  1  0  0  0  0
 18 19  1  0  0  0  0
 18 41  1  0  0  0  0
 18 42  1  0  0  0  0
 19 26  1  0  0  0  0
 19 20  1  0  0  0  0
 19 22  1  0  0  0  0
 20 21  1  0  0  0  0
 20 43  1  0  0  0  0
 20 44  1  0  0  0  0
 21 45  1  0  0  0  0
 22 23  1  0  0  0  0
 22 46  1  0  0  0  0
 22 47  1  0  0  0  0
 23 24  1  0  0  0  0
 23 48  1  0  0  0  0
 23 49  1  0  0  0  0
 24 25  1  0  0  0  0
 25 26  1  0  0  0  0
 25 50  1  0  0  0  0
 25 51  1  0  0  0  0
 26 52  1  0  0  0  0
 26 53  1  0  0  0  0
M  END
> <s_m_source_file>
AV-unprocessed.smi

> <i_m_source_file_index>
194

> <i_lp_mmshare_version>
43012

> <i_f3d_flags>
0

> <s_epik_input>
W0NIM11bU0BAXSg9TylbQ0gyXVtDQEBIXShbQ0gzXSlOKFtDSDNdKWMobltjSF1uMSljKGMxMiluW2NIXW4yW0NIMl1DMyhbQ0gyXVtPSF0pW0NIMl1bQ0gyXU9bQ0gyXVtDSDJdMw==

> <s_epik_cmdline>
J2VwaWtfcHl0aG9uJywgJy1waCcsICc3LjAnLCAnLXRuJywgJzgnLCAnLW1hJywgJzIwMCcsICctbWV0YWxfYmluZGluZycsICctaW1hZScsICc8aW5maWxlLm1hZT4nLCAnLW9tYWUnLCAnPG91dGZpbGUubWFlPic=

> <r_lp_tautomer_probability>
1

> <r_epik_Ionization_Penalty>
0.00101625

> <r_epik_Ionization_Penalty_Charging>
0

> <r_epik_Ionization_Penalty_Neutral>
0.00101625

> <r_epik_State_Penalty>
0.000568005

> <r_epik_Charging_Adjusted_Penalty>
0.000568005

> <i_epik_Tot_Q>
0

> <i_epik_Tot_abs_Q>
0

> <r_epik_Metal_State_Penalty>
-0

> <b_epik_Metal_Only>
0

> <s_lp_Force_Field>
OPLS_2005

> <r_lp_Energy>
28.4609

> <b_lp_Chiralities_Consistent>
1

> <s_lp_Variant>
AV-unprocessed.smi:194-1

> <Gold.Version>
5.8.1

> <Gold.Id.Protein>
6NUR|6NUR_protein|mol2

> <Gold.PLP.Fitness>
44.4861

> <Gold.PLP.PLP>
-41.0753

> <Gold.PLP.part.hbond>
-3.6912

> <Gold.PLP.part.metal>
0.0000

> <Gold.PLP.part.buried>
-6.7101

> <Gold.PLP.part.nonpolar>
-30.6572

> <Gold.PLP.part.repulsive>
0.2265

> <Gold.PLP.ligand.clash>
0.0000

> <Gold.PLP.ligand.torsion>
2.1211

> <Gold.PLP.Chemscore.Hbond>
2.3600

> <Gold.PLP.Chemscore.CHOScore>
0.0000

> <Gold.PLP.Chemscore.Metal>
0.0000

> <Gold.Chemscore.Hbonds>
donor molecule, donor type, donor heavy atom, donor atom, acceptor molecule, acceptor atom, score
      P1  H  6896  6908       L1    12  1.00
      P1  H  6931  6943       L1    21  0.85
      P1  H  6934  6947       L1    21  0.38

> <Gold.PLP.Chemscore.Internal.Correction>
0.5731

> <Gold.Rescore>
     Score         DG    S(hbond)    S(metal)    S(lipo)     H(rot)  DE(clash)    DE(int)     intcor
      9.67     -12.96       1.69        0.00      82.01       3.03       0.16       3.14       ----

> <Gold.Chemscore.Fitness>
9.6673

> <Gold.Chemscore.DG>
-12.9626

> <Gold.Chemscore.ZeroCoef>
-5.4800

> <Gold.Chemscore.Hbond>
1.6896

> <Gold.Chemscore.Metal>
0.0000

> <Gold.Chemscore.Lipo>
82.0076

> <Gold.Chemscore.Internal_Hbond>
0.0000

> <Gold.Chemscore.DEClash>
0.1596

> <Gold.Chemscore.DEInternal>
3.1357

> <Gold.Chemscore.Rot>
3.0295

> <Gold.Chemscore.Internal.Correction>
   9.000000E+99

> <Gold.Chemscore.Hbonds>
donor molecule, donor type, donor heavy atom, donor atom, acceptor molecule, acceptor atom, score
      P1  H  6896  6908       L1    12  0.96
      P1  H  6931  6943       L1    21  0.35
      P1  H  6934  6947       L1    21  0.13

> <Gold.Chemscore.Hbond.Weighted>
-5.6433

> <Gold.Chemscore.Metal.Weighted>
-0.0000

> <Gold.Chemscore.Lipo.Weighted>
-9.5949

> <Gold.Chemscore.Internal_Hbond.Weighted>
0.0000

> <Gold.Chemscore.DEClash.Weighted>
0.1596

> <Gold.Chemscore.DEInternal.Weighted>
3.1357

> <Gold.Chemscore.Rot.Weighted>
7.7555

> <Gold.Chemscore.Internal.Correction.Weighted>
   9.000000E+99

> <Gold.Protein.RotatedTorsions>
[ 6907 6896 6895 6894 ] final -162.34 input  -60.11 | X-H torsion
[ 7974 7965 7964 7962 ] final  178.68 input  175.53 | X-H torsion
[ 8008 7997 7996 7995 ] final  -72.91 input   59.86 | X-H torsion
[ 10167 10162 10161 10158 ] final  -74.22 input  -65.29 | X-H torsion
[ 10718 10713 10712 10709 ] final  -91.64 input   66.30 | X-H torsion
[ 10763 10752 10751 10750 ] final  -71.19 input  -60.55 | X-H torsion
[ 11005 11000 10999 10996 ] final  141.62 input  -57.11 | X-H torsion

> <Gold.Protein.ActiveResidues>
 VAL166  LYS551  ARG553  GLY616  TRP617  ASP618  TYR619  PRO620  LYS621  CYS622 
 ASP623  PHE694  ASN695  SER759  ASP760  ASP761  ALA762  ILE779  LEU786  VAL792 
 PHE793  MET794  SER795  GLU796  ALA797  LYS798  CYS799  TRP800  GLU811  SER814 

> <Gold.Protein.RotatedAtoms>
  151.3788  133.3828  159.2707 H   0  0  0  0  0  0  0  0  0  0  0  0  # atno 6907 bound_to 6896
  150.9594  134.8985  159.7731 H   0  0  0  0  0  0  0  0  0  0  0  0  # atno 6908 bound_to 6896
  152.5143  134.3746  159.9382 H   0  0  0  0  0  0  0  0  0  0  0  0  # atno 6909 bound_to 6896
  144.7153  140.0433  143.6437 H   0  0  0  0  0  0  0  0  0  0  0  0  # atno 7974 bound_to 7965
  154.5204  140.0788  156.8161 H   0  0  0  0  0  0  0  0  0  0  0  0  # atno 8008 bound_to 7997
  155.3588  140.3417  155.4222 H   0  0  0  0  0  0  0  0  0  0  0  0  # atno 8009 bound_to 7997
  156.1675  140.1608  156.8493 H   0  0  0  0  0  0  0  0  0  0  0  0  # atno 8010 bound_to 7997
  140.5045  143.2355  151.7697 H   0  0  0  0  0  0  0  0  0  0  0  0  # atno 10167 bound_to 10162
  155.9995  130.4956  150.5505 H   0  0  0  0  0  0  0  0  0  0  0  0  # atno 10718 bound_to 10713
  154.4282  135.5970  153.6052 H   0  0  0  0  0  0  0  0  0  0  0  0  # atno 10763 bound_to 10752
  152.9797  135.5969  154.3871 H   0  0  0  0  0  0  0  0  0  0  0  0  # atno 10764 bound_to 10752
  154.3706  135.2841  155.2247 H   0  0  0  0  0  0  0  0  0  0  0  0  # atno 10765 bound_to 10752
  140.0415  134.9302  157.0852 H   0  0  0  0  0  0  0  0  0  0  0  0  # atno 11005 bound_to 11000
  146.0005  139.3087  143.0930 LP  0  0  0  0  0  0  0  0  0  0  0  0  # atno 17320 bound_to 7965
  145.8799  140.9369  143.0607 LP  0  0  0  0  0  0  0  0  0  0  0  0  # atno 17321 bound_to 7965
  139.4880  144.4476  151.9692 LP  0  0  0  0  0  0  0  0  0  0  0  0  # atno 17342 bound_to 10162
  140.3566  144.3024  150.5940 LP  0  0  0  0  0  0  0  0  0  0  0  0  # atno 17343 bound_to 10162
  157.3429  131.0720  151.1774 LP  0  0  0  0  0  0  0  0  0  0  0  0  # atno 17370 bound_to 10713
  157.2616  130.6661  149.5977 LP  0  0  0  0  0  0  0  0  0  0  0  0  # atno 17371 bound_to 10713
  140.4061  134.2031  155.7163 LP  0  0  0  0  0  0  0  0  0  0  0  0  # atno 17394 bound_to 11000
  141.1885  133.8258  157.0991 LP  0  0  0  0  0  0  0  0  0  0  0  0  # atno 17395 bound_to 11000

$$$$
