AV-unprocessed.smi:3348|AV-procd|sdf|12923|dock9
  -GOLD-   2272019343D 1   1.00000     0.00000
 Structure written by MMmdl.
 46 47  0  0  0  0  0  0  0  0  1 V2000
  147.4093  142.0075  153.5044 C   0  0  0  0  0  0  0  0  0  0  0  0
  148.6203  141.4606  154.2732 C   0  0  2  0  0  0  0  0  0  0  0  0
  148.6339  139.9110  154.2066 C   0  0  0  0  0  0  0  0  0  0  0  0
  149.9120  139.2953  154.5240 N   0  0  0  0  0  0  0  0  0  0  0  0
  150.2464  137.9574  154.4800 C   0  0  0  0  0  0  0  0  0  0  0  0
  151.5604  137.8526  154.8346 C   0  0  0  0  0  0  0  0  0  0  0  0
  151.9576  139.2003  155.0582 C   0  0  0  0  0  0  0  0  0  0  0  0
  150.9733  140.0620  154.8592 N   0  0  0  0  0  0  0  0  0  0  0  0
  148.5724  141.9758  155.6473 N   0  0  0  0  0  0  0  0  0  0  0  0
  149.2042  141.1411  156.6676 C   0  0  0  0  0  0  0  0  0  0  0  0
  150.5644  141.7191  157.0924 C   0  0  0  0  0  0  0  0  0  0  0  0
  150.4473  142.6390  158.1724 O   0  0  0  0  0  0  0  0  0  0  0  0
  151.6239  142.8164  158.9547 C   0  0  2  0  0  0  0  0  0  0  0  0
  151.9904  141.4460  159.5536 C   0  0  0  0  0  0  0  0  0  0  0  0
  153.2005  141.5521  160.4914 C   0  0  0  0  0  0  0  0  0  0  0  0
  152.9408  142.5799  161.6029 C   0  0  0  0  0  0  0  0  0  0  0  0
  152.5614  143.9497  161.0175 C   0  0  0  0  0  0  0  0  0  0  0  0
  151.3506  143.8542  160.0661 C   0  0  1  0  0  0  0  0  0  0  0  0
  151.0041  145.2353  159.4868 C   0  0  0  0  0  0  0  0  0  0  0  0
  147.4332  141.6957  152.4598 H   0  0  0  0  0  0  0  0  0  0  0  0
  147.3943  143.0979  153.5172 H   0  0  0  0  0  0  0  0  0  0  0  0
  146.4712  141.6550  153.9351 H   0  0  0  0  0  0  0  0  0  0  0  0
  149.5064  141.8531  153.7728 H   0  0  0  0  0  0  0  0  0  0  0  0
  147.8696  139.4980  154.8664 H   0  0  0  0  0  0  0  0  0  0  0  0
  148.3728  139.5840  153.1993 H   0  0  0  0  0  0  0  0  0  0  0  0
  149.5274  137.1987  154.2082 H   0  0  0  0  0  0  0  0  0  0  0  0
  152.1495  136.9512  154.9155 H   0  0  0  0  0  0  0  0  0  0  0  0
  152.9265  139.5761  155.3522 H   0  0  0  0  0  0  0  0  0  0  0  0
  148.9800  142.9049  155.6753 H   0  0  0  0  0  0  0  0  0  0  0  0
  148.5638  141.0198  157.5366 H   0  0  0  0  0  0  0  0  0  0  0  0
  149.3635  140.1408  156.2635 H   0  0  0  0  0  0  0  0  0  0  0  0
  151.2447  140.9145  157.3750 H   0  0  0  0  0  0  0  0  0  0  0  0
  151.0313  142.2304  156.2501 H   0  0  0  0  0  0  0  0  0  0  0  0
  152.4599  143.1730  158.3496 H   0  0  0  0  0  0  0  0  0  0  0  0
  151.1380  141.0471  160.1053 H   0  0  0  0  0  0  0  0  0  0  0  0
  152.1990  140.7315  158.7578 H   0  0  0  0  0  0  0  0  0  0  0  0
  153.4195  140.5774  160.9278 H   0  0  0  0  0  0  0  0  0  0  0  0
  154.0828  141.8418  159.9195 H   0  0  0  0  0  0  0  0  0  0  0  0
  152.1375  142.2242  162.2492 H   0  0  0  0  0  0  0  0  0  0  0  0
  153.8251  142.6767  162.2333 H   0  0  0  0  0  0  0  0  0  0  0  0
  152.3439  144.6443  161.8298 H   0  0  0  0  0  0  0  0  0  0  0  0
  153.4177  144.3624  160.4821 H   0  0  0  0  0  0  0  0  0  0  0  0
  150.4926  143.5131  160.6474 H   0  0  0  0  0  0  0  0  0  0  0  0
  151.8179  145.6240  158.8739 H   0  0  0  0  0  0  0  0  0  0  0  0
  150.8106  145.9572  160.2806 H   0  0  0  0  0  0  0  0  0  0  0  0
  150.1107  145.1908  158.8634 H   0  0  0  0  0  0  0  0  0  0  0  0
  1  2  1  0  0  0  0
  1 20  1  0  0  0  0
  1 21  1  0  0  0  0
  1 22  1  0  0  0  0
  2  3  1  0  0  0  0
  2  9  1  0  0  0  0
  2 23  1  0  0  0  0
  3  4  1  0  0  0  0
  3 24  1  0  0  0  0
  3 25  1  0  0  0  0
  4  8  1  0  0  0  0
  4  5  1  0  0  0  0
  5  6  2  0  0  0  0
  5 26  1  0  0  0  0
  6  7  1  0  0  0  0
  6 27  1  0  0  0  0
  7  8  2  0  0  0  0
  7 28  1  0  0  0  0
  9 10  1  0  0  0  0
  9 29  1  0  0  0  0
 10 11  1  0  0  0  0
 10 30  1  0  0  0  0
 10 31  1  0  0  0  0
 11 12  1  0  0  0  0
 11 32  1  0  0  0  0
 11 33  1  0  0  0  0
 12 13  1  0  0  0  0
 13 18  1  0  0  0  0
 13 14  1  0  0  0  0
 13 34  1  0  0  0  0
 14 15  1  0  0  0  0
 14 35  1  0  0  0  0
 14 36  1  0  0  0  0
 15 16  1  0  0  0  0
 15 37  1  0  0  0  0
 15 38  1  0  0  0  0
 16 17  1  0  0  0  0
 16 39  1  0  0  0  0
 16 40  1  0  0  0  0
 17 18  1  0  0  0  0
 17 41  1  0  0  0  0
 17 42  1  0  0  0  0
 18 19  1  0  0  0  0
 18 43  1  0  0  0  0
 19 44  1  0  0  0  0
 19 45  1  0  0  0  0
 19 46  1  0  0  0  0
M  END
> <s_m_source_file>
AV-unprocessed.smi

> <i_m_source_file_index>
3348

> <i_lp_mmshare_version>
43012

> <i_f3d_flags>
0

> <s_epik_input>
bjFbY0hdW2NIXVtjSF1uMVtDSDJdW0NAQEhdKFtDSDNdKVtOSF1bQ0gyXVtDSDJdT1tDQEBIXTJbQ0gyXVtDSDJdW0NIMl1bQ0gyXVtDQEhdMltDSDNd

> <s_epik_cmdline>
J2VwaWtfcHl0aG9uJywgJy1waCcsICc3LjAnLCAnLXRuJywgJzgnLCAnLW1hJywgJzIwMCcsICctbWV0YWxfYmluZGluZycsICctaW1hZScsICc8aW5maWxlLm1hZT4nLCAnLW9tYWUnLCAnPG91dGZpbGUubWFlPic=

> <r_lp_tautomer_probability>
1

> <r_epik_Ionization_Penalty>
2.46945

> <r_epik_Ionization_Penalty_Charging>
0

> <r_epik_Ionization_Penalty_Neutral>
2.46945

> <r_epik_State_Penalty>
2.6322

> <r_epik_Charging_Adjusted_Penalty>
2.6322

> <i_epik_Tot_Q>
0

> <i_epik_Tot_abs_Q>
0

> <r_epik_Metal_State_Penalty>
2.63217

> <b_epik_Metal_Only>
0

> <s_lp_Force_Field>
OPLS_2005

> <r_lp_Energy>
18.2161

> <b_lp_Chiralities_Consistent>
1

> <s_lp_Variant>
AV-unprocessed.smi:3348-9

> <Gold.Version>
5.8.1

> <Gold.Id.Protein>
6NUR|6NUR_protein|mol2

> <Gold.PLP.Fitness>
52.8524

> <Gold.PLP.PLP>
-46.1266

> <Gold.PLP.part.hbond>
-2.0000

> <Gold.PLP.part.metal>
0.0000

> <Gold.PLP.part.buried>
-4.6491

> <Gold.PLP.part.nonpolar>
-38.8306

> <Gold.PLP.part.repulsive>
0.1714

> <Gold.PLP.ligand.clash>
0.0000

> <Gold.PLP.ligand.torsion>
1.1244

> <Gold.PLP.Chemscore.Hbond>
2.0000

> <Gold.PLP.Chemscore.CHOScore>
0.9314

> <Gold.PLP.Chemscore.Metal>
0.0000

> <Gold.Chemscore.Hbonds>
donor molecule, donor type, donor heavy atom, donor atom, acceptor molecule, acceptor atom, score
      L1  H     9    29       P1  8028  1.00
      P1  H  7989  7998       L1     8  0.90
      L1  C     5    26       P1  7948  0.86

> <Gold.PLP.Chemscore.Internal.Correction>
0.1802

> <Gold.Rescore>
     Score         DG    S(hbond)    S(metal)    S(lipo)     H(rot)  DE(clash)    DE(int)     intcor
     14.55     -19.82       1.10        0.00     129.00       1.72       0.06       5.20       ----

> <Gold.Chemscore.Fitness>
14.5540

> <Gold.Chemscore.DG>
-19.8206

> <Gold.Chemscore.ZeroCoef>
-5.4800

> <Gold.Chemscore.Hbond>
1.0959

> <Gold.Chemscore.Metal>
0.0000

> <Gold.Chemscore.Lipo>
128.9980

> <Gold.Chemscore.Internal_Hbond>
0.0000

> <Gold.Chemscore.DEClash>
0.0636

> <Gold.Chemscore.DEInternal>
5.2030

> <Gold.Chemscore.Rot>
1.7237

> <Gold.Chemscore.Internal.Correction>
   9.000000E+99

> <Gold.Chemscore.Hbonds>
donor molecule, donor type, donor heavy atom, donor atom, acceptor molecule, acceptor atom, score
      L1  H     9    29       P1  8028  0.97
      P1  H  7989  7998       L1     8  0.15

> <Gold.Chemscore.Hbond.Weighted>
-3.6605

> <Gold.Chemscore.Metal.Weighted>
-0.0000

> <Gold.Chemscore.Lipo.Weighted>
-15.0928

> <Gold.Chemscore.Internal_Hbond.Weighted>
0.0000

> <Gold.Chemscore.DEClash.Weighted>
0.0636

> <Gold.Chemscore.DEInternal.Weighted>
5.2030

> <Gold.Chemscore.Rot.Weighted>
4.4126

> <Gold.Chemscore.Internal.Correction.Weighted>
   9.000000E+99

> <Gold.Protein.RotatedTorsions>
[ 6907 6896 6895 6894 ] final  166.03 input  -60.11 | X-H torsion
[ 7974 7965 7964 7962 ] final  -24.59 input  175.53 | X-H torsion
[ 8008 7997 7996 7995 ] final  147.57 input   59.86 | X-H torsion
[ 10167 10162 10161 10158 ] final   12.36 input  -65.29 | X-H torsion
[ 10718 10713 10712 10709 ] final -172.60 input   66.30 | X-H torsion
[ 10763 10752 10751 10750 ] final  -73.54 input  -60.55 | X-H torsion
[ 11005 11000 10999 10996 ] final  -84.02 input  -57.11 | X-H torsion

> <Gold.Protein.ActiveResidues>
 VAL166  LYS551  ARG553  GLY616  TRP617  ASP618  TYR619  PRO620  LYS621  CYS622 
 ASP623  PHE694  ASN695  SER759  ASP760  ASP761  ALA762  ILE779  LEU786  VAL792 
 PHE793  MET794  SER795  GLU796  ALA797  LYS798  CYS799  TRP800  GLU811  SER814 

> <Gold.Protein.RotatedAtoms>
  151.8852  133.3504  159.3779 H   0  0  0  0  0  0  0  0  0  0  0  0  # atno 6907 bound_to 6896
  150.7117  134.4979  159.5556 H   0  0  0  0  0  0  0  0  0  0  0  0  # atno 6908 bound_to 6896
  152.2538  134.8105  160.0492 H   0  0  0  0  0  0  0  0  0  0  0  0  # atno 6909 bound_to 6896
  146.1545  140.4772  142.8597 H   0  0  0  0  0  0  0  0  0  0  0  0  # atno 7974 bound_to 7965
  156.2820  140.2152  156.5559 H   0  0  0  0  0  0  0  0  0  0  0  0  # atno 8008 bound_to 7997
  154.7253  140.0500  157.0700 H   0  0  0  0  0  0  0  0  0  0  0  0  # atno 8009 bound_to 7997
  155.0424  140.3147  155.4723 H   0  0  0  0  0  0  0  0  0  0  0  0  # atno 8010 bound_to 7997
  140.6073  143.8481  150.7027 H   0  0  0  0  0  0  0  0  0  0  0  0  # atno 10167 bound_to 10162
  156.7579  130.9402  151.3117 H   0  0  0  0  0  0  0  0  0  0  0  0  # atno 10718 bound_to 10713
  154.4609  135.5894  153.6255 H   0  0  0  0  0  0  0  0  0  0  0  0  # atno 10763 bound_to 10752
  152.9823  135.6043  154.3487 H   0  0  0  0  0  0  0  0  0  0  0  0  # atno 10764 bound_to 10752
  154.3359  135.2842  155.2427 H   0  0  0  0  0  0  0  0  0  0  0  0  # atno 10765 bound_to 10752
  141.1654  133.7324  156.8806 H   0  0  0  0  0  0  0  0  0  0  0  0  # atno 11005 bound_to 11000
  144.7946  140.6097  143.6519 LP  0  0  0  0  0  0  0  0  0  0  0  0  # atno 17320 bound_to 7965
  145.4742  139.1501  143.3797 LP  0  0  0  0  0  0  0  0  0  0  0  0  # atno 17321 bound_to 7965
  140.2041  143.3935  152.1769 LP  0  0  0  0  0  0  0  0  0  0  0  0  # atno 17342 bound_to 10162
  139.5334  144.7184  151.4975 LP  0  0  0  0  0  0  0  0  0  0  0  0  # atno 17343 bound_to 10162
  157.6748  130.9084  150.0124 LP  0  0  0  0  0  0  0  0  0  0  0  0  # atno 17370 bound_to 10713
  156.1358  130.3642  149.9659 LP  0  0  0  0  0  0  0  0  0  0  0  0  # atno 17371 bound_to 10713
  140.1718  134.9095  157.2842 LP  0  0  0  0  0  0  0  0  0  0  0  0  # atno 17394 bound_to 11000
  140.2494  134.3701  155.7448 LP  0  0  0  0  0  0  0  0  0  0  0  0  # atno 17395 bound_to 11000

$$$$
