AV-unprocessed.smi:2003|AV-procd|sdf|8119|dock7
  -GOLD-   2272010353D 1   1.00000     0.00000
 Structure written by MMmdl.
 44 45  0  0  0  0  0  0  0  0  2 V2000
  146.2056  129.6289  151.8055 C   0  0  0  0  0  0  0  0  0  0  0  0
  146.0668  131.1199  151.7147 C   0  0  0  0  0  0  0  0  0  0  0  0
  146.8233  132.1156  152.3988 C   0  0  0  0  0  0  0  0  0  0  0  0
  146.2720  133.2807  151.9399 C   0  0  0  0  0  0  0  0  0  0  0  0
  146.5936  134.5628  152.2579 N   0  0  0  0  0  0  0  0  0  0  0  0
  145.7917  135.5422  152.7104 C   0  0  0  0  0  0  0  0  0  0  0  0
  144.5898  135.4288  152.9494 O   0  0  0  0  0  0  0  0  0  0  0  0
  146.4716  136.6863  152.8722 N   0  0  0  0  0  0  0  0  0  0  0  0
  145.9085  137.9485  153.3503 C   0  0  0  0  0  0  0  0  0  0  0  0
  146.9142  139.1309  153.3066 C   0  0  2  0  0  0  0  0  0  0  0  0
  148.2035  138.7541  154.0690 C   0  0  0  0  0  0  0  0  0  0  0  0
  146.3113  140.4164  153.7884 N   0  3  0  0  0  0  0  0  0  0  0  0
  145.8543  140.3892  155.2049 C   0  0  0  0  0  0  0  0  0  0  0  0
  145.2275  141.7338  155.6121 C   0  0  0  0  0  0  0  0  0  0  0  0
  146.1581  142.7844  155.3991 O   0  0  0  0  0  0  0  0  0  0  0  0
  146.5153  142.8923  154.0295 C   0  0  0  0  0  0  0  0  0  0  0  0
  147.1971  141.5928  153.5716 C   0  0  0  0  0  0  0  0  0  0  0  0
  145.2644  132.9768  151.0519 N   0  0  0  0  0  0  0  0  0  0  0  0
  144.3903  133.8649  150.3108 C   0  0  0  0  0  0  0  0  0  0  0  0
  145.1402  131.6390  150.9170 N   0  0  0  0  0  0  0  0  0  0  0  0
  147.0389  129.3490  152.4506 H   0  0  0  0  0  0  0  0  0  0  0  0
  146.3853  129.1898  150.8237 H   0  0  0  0  0  0  0  0  0  0  0  0
  145.3026  129.1753  152.2147 H   0  0  0  0  0  0  0  0  0  0  0  0
  147.6289  131.9749  153.1034 H   0  0  0  0  0  0  0  0  0  0  0  0
  147.5650  134.8046  152.1291 H   0  0  0  0  0  0  0  0  0  0  0  0
  147.4598  136.6805  152.6659 H   0  0  0  0  0  0  0  0  0  0  0  0
  144.9985  138.1951  152.8006 H   0  0  0  0  0  0  0  0  0  0  0  0
  145.5742  137.7852  154.3746 H   0  0  0  0  0  0  0  0  0  0  0  0
  147.2020  139.2729  152.2635 H   0  0  0  0  0  0  0  0  0  0  0  0
  148.5440  137.7546  153.7966 H   0  0  0  0  0  0  0  0  0  0  0  0
  148.0527  138.7675  155.1486 H   0  0  0  0  0  0  0  0  0  0  0  0
  149.0269  139.4286  153.8349 H   0  0  0  0  0  0  0  0  0  0  0  0
  145.1008  139.6179  155.3580 H   0  0  0  0  0  0  0  0  0  0  0  0
  146.6972  140.1551  155.8570 H   0  0  0  0  0  0  0  0  0  0  0  0
  144.3111  141.9226  155.0503 H   0  0  0  0  0  0  0  0  0  0  0  0
  144.9538  141.7149  156.6672 H   0  0  0  0  0  0  0  0  0  0  0  0
  145.6334  143.1060  153.4231 H   0  0  0  0  0  0  0  0  0  0  0  0
  147.1959  143.7353  153.9091 H   0  0  0  0  0  0  0  0  0  0  0  0
  148.1316  141.4517  154.1172 H   0  0  0  0  0  0  0  0  0  0  0  0
  147.4554  141.6990  152.5192 H   0  0  0  0  0  0  0  0  0  0  0  0
  144.9841  134.6201  149.7950 H   0  0  0  0  0  0  0  0  0  0  0  0
  143.7038  134.3589  150.9987 H   0  0  0  0  0  0  0  0  0  0  0  0
  143.8130  133.3073  149.5718 H   0  0  0  0  0  0  0  0  0  0  0  0
  145.4842  140.5679  153.2289 H   0  0  0  0  0  0  0  0  0  0  0  0
  1  2  1  0  0  0  0
  1 21  1  0  0  0  0
  1 22  1  0  0  0  0
  1 23  1  0  0  0  0
  2 20  2  0  0  0  0
  2  3  1  0  0  0  0
  3  4  2  0  0  0  0
  3 24  1  0  0  0  0
  4  5  1  0  0  0  0
  4 18  1  0  0  0  0
  5  6  1  0  0  0  0
  5 25  1  0  0  0  0
  6  7  2  0  0  0  0
  6  8  1  0  0  0  0
  8  9  1  0  0  0  0
  8 26  1  0  0  0  0
  9 10  1  0  0  0  0
  9 27  1  0  0  0  0
  9 28  1  0  0  0  0
 10 11  1  0  0  0  0
 10 12  1  0  0  0  0
 10 29  1  0  0  0  0
 11 30  1  0  0  0  0
 11 31  1  0  0  0  0
 11 32  1  0  0  0  0
 12 17  1  0  0  0  0
 12 13  1  0  0  0  0
 12 44  1  0  0  0  0
 13 14  1  0  0  0  0
 13 33  1  0  0  0  0
 13 34  1  0  0  0  0
 14 15  1  0  0  0  0
 14 35  1  0  0  0  0
 14 36  1  0  0  0  0
 15 16  1  0  0  0  0
 16 17  1  0  0  0  0
 16 37  1  0  0  0  0
 16 38  1  0  0  0  0
 17 39  1  0  0  0  0
 17 40  1  0  0  0  0
 18 19  1  0  0  0  0
 18 20  1  0  0  0  0
 19 41  1  0  0  0  0
 19 42  1  0  0  0  0
 19 43  1  0  0  0  0
M  CHG  1  12   1
M  END
> <s_m_source_file>
AV-unprocessed.smi

> <i_m_source_file_index>
2003

> <i_lp_mmshare_version>
43012

> <i_f3d_flags>
0

> <s_epik_input>
W0NIM11jMVtjSF1jKG4objEpW0NIM10pW05IXUMoPU8pW05IXVtDSDJdW0NASF0oW0NIM10pTjJbQ0gyXVtDSDJdT1tDSDJdW0NIMl0y

> <s_epik_cmdline>
J2VwaWtfcHl0aG9uJywgJy1waCcsICc3LjAnLCAnLXRuJywgJzgnLCAnLW1hJywgJzIwMCcsICctbWV0YWxfYmluZGluZycsICctaW1hZScsICc8aW5maWxlLm1hZT4nLCAnLW9tYWUnLCAnPG91dGZpbGUubWFlPic=

> <r_lp_tautomer_probability>
1

> <r_epik_Ionization_Penalty>
0.663903

> <r_epik_Ionization_Penalty_Charging>
0.663826

> <r_epik_Ionization_Penalty_Neutral>
7.78239e-05

> <r_epik_State_Penalty>
0.683414

> <r_epik_Charging_Adjusted_Penalty>
1.34724

> <i_epik_Tot_Q>
1

> <i_epik_Tot_abs_Q>
1

> <r_epik_Metal_State_Penalty>
0.683419

> <b_epik_Metal_Only>
0

> <s_lp_Force_Field>
OPLS_2005

> <r_lp_Energy>
28.7948

> <b_lp_Chiralities_Consistent>
1

> <s_lp_Variant>
AV-unprocessed.smi:2003-3

> <Gold.Version>
5.8.1

> <Gold.Id.Protein>
6NUR|6NUR_protein|mol2

> <Gold.PLP.Fitness>
42.2920

> <Gold.PLP.PLP>
-31.3442

> <Gold.PLP.part.hbond>
-3.0000

> <Gold.PLP.part.metal>
0.0000

> <Gold.PLP.part.buried>
-5.7435

> <Gold.PLP.part.nonpolar>
-23.1664

> <Gold.PLP.part.repulsive>
0.3908

> <Gold.PLP.ligand.clash>
0.0000

> <Gold.PLP.ligand.torsion>
0.5378

> <Gold.PLP.Chemscore.Hbond>
3.9920

> <Gold.PLP.Chemscore.CHOScore>
0.0000

> <Gold.PLP.Chemscore.Metal>
0.0000

> <Gold.Chemscore.Hbonds>
donor molecule, donor type, donor heavy atom, donor atom, acceptor molecule, acceptor atom, score
      L1  H     5    25       P1  7948  0.99
      L1  H     8    26       P1  7948  1.00
      L1  H    12    44       P1 10175  2.00

> <Gold.PLP.Chemscore.Internal.Correction>
0.0475

> <Gold.Rescore>
     Score         DG    S(hbond)    S(metal)    S(lipo)     H(rot)  DE(clash)    DE(int)     intcor
     17.94     -18.56       2.84        0.00      64.43       1.54       0.03       0.59       ----

> <Gold.Chemscore.Fitness>
17.9415

> <Gold.Chemscore.DG>
-18.5597

> <Gold.Chemscore.ZeroCoef>
-5.4800

> <Gold.Chemscore.Hbond>
2.8395

> <Gold.Chemscore.Metal>
0.0000

> <Gold.Chemscore.Lipo>
64.4256

> <Gold.Chemscore.Internal_Hbond>
0.0000

> <Gold.Chemscore.DEClash>
0.0310

> <Gold.Chemscore.DEInternal>
0.5872

> <Gold.Chemscore.Rot>
1.5398

> <Gold.Chemscore.Internal.Correction>
   9.000000E+99

> <Gold.Chemscore.Hbonds>
donor molecule, donor type, donor heavy atom, donor atom, acceptor molecule, acceptor atom, score
      L1  H     5    25       P1  7948  0.76
      L1  H     8    26       P1  7948  0.99
      L1  H    12    44       P1 10175  0.90

> <Gold.Chemscore.Hbond.Weighted>
-9.4839

> <Gold.Chemscore.Metal.Weighted>
-0.0000

> <Gold.Chemscore.Lipo.Weighted>
-7.5378

> <Gold.Chemscore.Internal_Hbond.Weighted>
0.0000

> <Gold.Chemscore.DEClash.Weighted>
0.0310

> <Gold.Chemscore.DEInternal.Weighted>
0.5872

> <Gold.Chemscore.Rot.Weighted>
3.9420

> <Gold.Chemscore.Internal.Correction.Weighted>
   9.000000E+99

> <Gold.Protein.RotatedTorsions>
[ 6907 6896 6895 6894 ] final    1.59 input  -60.11 | X-H torsion
[ 7974 7965 7964 7962 ] final   52.48 input  175.53 | X-H torsion
[ 8008 7997 7996 7995 ] final   -0.57 input   59.86 | X-H torsion
[ 10167 10162 10161 10158 ] final  -33.21 input  -65.29 | X-H torsion
[ 10718 10713 10712 10709 ] final -113.88 input   66.30 | X-H torsion
[ 10763 10752 10751 10750 ] final  -12.65 input  -60.55 | X-H torsion
[ 11005 11000 10999 10996 ] final  -79.45 input  -57.11 | X-H torsion

> <Gold.Protein.ActiveResidues>
 VAL166  LYS551  ARG553  GLY616  TRP617  ASP618  TYR619  PRO620  LYS621  CYS622 
 ASP623  PHE694  ASN695  SER759  ASP760  ASP761  ALA762  ILE779  LEU786  VAL792 
 PHE793  MET794  SER795  GLU796  ALA797  LYS798  CYS799  TRP800  GLU811  SER814 

> <Gold.Protein.RotatedAtoms>
  151.5951  135.1051  160.0047 H   0  0  0  0  0  0  0  0  0  0  0  0  # atno 6907 bound_to 6896
  152.4287  133.7235  159.6557 H   0  0  0  0  0  0  0  0  0  0  0  0  # atno 6908 bound_to 6896
  150.8177  133.8236  159.3175 H   0  0  0  0  0  0  0  0  0  0  0  0  # atno 6909 bound_to 6896
  145.9808  139.4241  143.0133 H   0  0  0  0  0  0  0  0  0  0  0  0  # atno 7974 bound_to 7965
  154.6565  140.2581  155.7155 H   0  0  0  0  0  0  0  0  0  0  0  0  # atno 8008 bound_to 7997
  156.2599  140.2857  156.0942 H   0  0  0  0  0  0  0  0  0  0  0  0  # atno 8009 bound_to 7997
  155.1372  140.0379  157.2780 H   0  0  0  0  0  0  0  0  0  0  0  0  # atno 8010 bound_to 7997
  140.7208  143.3637  151.1912 H   0  0  0  0  0  0  0  0  0  0  0  0  # atno 10167 bound_to 10162
  156.0794  130.5997  150.8701 H   0  0  0  0  0  0  0  0  0  0  0  0  # atno 10718 bound_to 10713
  153.5017  135.7017  153.5828 H   0  0  0  0  0  0  0  0  0  0  0  0  # atno 10763 bound_to 10752
  153.3957  135.3884  155.1953 H   0  0  0  0  0  0  0  0  0  0  0  0  # atno 10764 bound_to 10752
  154.8710  135.3869  154.4488 H   0  0  0  0  0  0  0  0  0  0  0  0  # atno 10765 bound_to 10752
  141.1667  133.7106  156.8124 H   0  0  0  0  0  0  0  0  0  0  0  0  # atno 11005 bound_to 11000
  145.7772  140.9872  143.1118 LP  0  0  0  0  0  0  0  0  0  0  0  0  # atno 17320 bound_to 7965
  144.6861  139.9519  143.7478 LP  0  0  0  0  0  0  0  0  0  0  0  0  # atno 17321 bound_to 7965
  139.7195  143.9247  152.2979 LP  0  0  0  0  0  0  0  0  0  0  0  0  # atno 17342 bound_to 10162
  139.8999  144.6918  150.8677 LP  0  0  0  0  0  0  0  0  0  0  0  0  # atno 17343 bound_to 10162
  157.5905  131.0944  150.9126 LP  0  0  0  0  0  0  0  0  0  0  0  0  # atno 17370 bound_to 10713
  156.9303  130.5347  149.5279 LP  0  0  0  0  0  0  0  0  0  0  0  0  # atno 17371 bound_to 10713
  140.2178  134.8779  157.3344 LP  0  0  0  0  0  0  0  0  0  0  0  0  # atno 17394 bound_to 11000
  140.2019  134.4244  155.7658 LP  0  0  0  0  0  0  0  0  0  0  0  0  # atno 17395 bound_to 11000

$$$$
