AV-unprocessed.smi:1154|AV-procd|sdf|4902|dock4
  -GOLD-   22720 3473D 1   1.00000     0.00000
 Structure written by MMmdl.
 42 43  0  0  0  0  0  0  0  0  2 V2000
  143.7573  132.5795  148.3129 C   0  0  0  0  0  0  0  0  0  0  0  0
  144.4206  132.7630  149.6851 C   0  0  2  0  0  0  0  0  0  0  0  0
  144.5315  134.2522  150.0574 C   0  0  0  0  0  0  0  0  0  0  0  0
  145.2408  134.4322  151.4111 C   0  0  2  0  0  0  0  0  0  0  0  0
  145.3812  135.9164  151.7771 C   0  0  0  0  0  0  0  0  0  0  0  0
  146.6131  133.7269  151.3872 C   0  0  0  0  0  0  0  0  0  0  0  0
  146.4973  132.2865  151.0382 N   0  3  1  0  0  0  0  0  0  0  0  0
  145.9763  131.4484  152.1518 C   0  0  0  0  0  0  0  0  0  0  0  0
  145.7307  129.9913  151.7284 C   0  0  0  0  0  0  0  0  0  0  0  0
  146.9907  129.3361  151.4065 N   0  0  0  0  0  0  0  0  0  0  0  0
  147.4312  128.2127  151.9929 C   0  0  0  0  0  0  0  0  0  0  0  0
  146.8108  127.6269  152.8793 O   0  0  0  0  0  0  0  0  0  0  0  0
  148.7787  127.6684  151.5143 C   0  0  0  0  0  0  0  0  0  0  0  0
  148.6980  126.2533  151.2025 N   0  0  0  0  0  0  0  0  0  0  0  0
  149.0694  125.5723  150.1165 C   0  0  0  0  0  0  0  0  0  0  0  0
  148.8033  124.2806  150.2345 N   0  0  0  0  0  0  0  0  0  0  0  0
  148.2328  124.1905  151.4933 N   0  0  0  0  0  0  0  0  0  0  0  0
  148.1681  125.3578  152.0727 N   0  0  0  0  0  0  0  0  0  0  0  0
  145.8117  132.0928  149.7308 C   0  0  0  0  0  0  0  0  0  0  0  0
  144.3422  133.0507  147.5221 H   0  0  0  0  0  0  0  0  0  0  0  0
  142.7607  133.0217  148.2971 H   0  0  0  0  0  0  0  0  0  0  0  0
  143.6517  131.5231  148.0645 H   0  0  0  0  0  0  0  0  0  0  0  0
  143.7742  132.2777  150.4169 H   0  0  0  0  0  0  0  0  0  0  0  0
  145.0819  134.7856  149.2806 H   0  0  0  0  0  0  0  0  0  0  0  0
  143.5376  134.7003  150.0951 H   0  0  0  0  0  0  0  0  0  0  0  0
  144.6252  133.9671  152.1823 H   0  0  0  0  0  0  0  0  0  0  0  0
  145.9881  136.4509  151.0455 H   0  0  0  0  0  0  0  0  0  0  0  0
  145.8525  136.0376  152.7530 H   0  0  0  0  0  0  0  0  0  0  0  0
  144.4068  136.4039  151.8205 H   0  0  0  0  0  0  0  0  0  0  0  0
  147.2572  134.2060  150.6483 H   0  0  0  0  0  0  0  0  0  0  0  0
  147.1211  133.8393  152.3460 H   0  0  0  0  0  0  0  0  0  0  0  0
  146.7102  131.4409  152.9592 H   0  0  0  0  0  0  0  0  0  0  0  0
  145.0696  131.8833  152.5718 H   0  0  0  0  0  0  0  0  0  0  0  0
  145.2475  129.4228  152.5229 H   0  0  0  0  0  0  0  0  0  0  0  0
  145.0676  129.9650  150.8618 H   0  0  0  0  0  0  0  0  0  0  0  0
  147.5635  129.7595  150.6907 H   0  0  0  0  0  0  0  0  0  0  0  0
  149.1007  128.2103  150.6243 H   0  0  0  0  0  0  0  0  0  0  0  0
  149.5414  127.8214  152.2794 H   0  0  0  0  0  0  0  0  0  0  0  0
  149.5251  126.0191  149.2451 H   0  0  0  0  0  0  0  0  0  0  0  0
  145.7331  131.0335  149.4898 H   0  0  0  0  0  0  0  0  0  0  0  0
  146.4453  132.5258  148.9553 H   0  0  0  0  0  0  0  0  0  0  0  0
  147.4474  131.9707  150.9031 H   0  0  0  0  0  0  0  0  0  0  0  0
  1  2  1  0  0  0  0
  1 20  1  0  0  0  0
  1 21  1  0  0  0  0
  1 22  1  0  0  0  0
  2 19  1  0  0  0  0
  2  3  1  0  0  0  0
  2 23  1  0  0  0  0
  3  4  1  0  0  0  0
  3 24  1  0  0  0  0
  3 25  1  0  0  0  0
  4  5  1  0  0  0  0
  4  6  1  0  0  0  0
  4 26  1  0  0  0  0
  5 27  1  0  0  0  0
  5 28  1  0  0  0  0
  5 29  1  0  0  0  0
  6  7  1  0  0  0  0
  6 30  1  0  0  0  0
  6 31  1  0  0  0  0
  7  8  1  0  0  0  0
  7 19  1  0  0  0  0
  7 42  1  0  0  0  0
  8  9  1  0  0  0  0
  8 32  1  0  0  0  0
  8 33  1  0  0  0  0
  9 10  1  0  0  0  0
  9 34  1  0  0  0  0
  9 35  1  0  0  0  0
 10 11  1  0  0  0  0
 10 36  1  0  0  0  0
 11 12  2  0  0  0  0
 11 13  1  0  0  0  0
 13 14  1  0  0  0  0
 13 37  1  0  0  0  0
 13 38  1  0  0  0  0
 14 18  1  0  0  0  0
 14 15  1  0  0  0  0
 15 16  2  0  0  0  0
 15 39  1  0  0  0  0
 16 17  1  0  0  0  0
 17 18  2  0  0  0  0
 19 40  1  0  0  0  0
 19 41  1  0  0  0  0
M  CHG  1   7   1
M  END
> <s_m_source_file>
AV-unprocessed.smi

> <i_m_source_file_index>
1154

> <i_lp_mmshare_version>
43012

> <i_f3d_flags>
0

> <s_epik_input>
W0NIM11bQ0BASF0xW0NIMl1bQ0BASF0oW0NIM10pW0NIMl1OKFtDSDJdMSlbQ0gyXVtDSDJdW05IXUMoPU8pW0NIMl1uMltjSF1ubm4y

> <s_epik_cmdline>
J2VwaWtfcHl0aG9uJywgJy1waCcsICc3LjAnLCAnLXRuJywgJzgnLCAnLW1hJywgJzIwMCcsICctbWV0YWxfYmluZGluZycsICctaW1hZScsICc8aW5maWxlLm1hZT4nLCAnLW9tYWUnLCAnPG91dGZpbGUubWFlPic=

> <r_lp_tautomer_probability>
1

> <r_epik_Ionization_Penalty>
0.00217773

> <r_epik_Ionization_Penalty_Charging>
0.00217329

> <r_epik_Ionization_Penalty_Neutral>
4.43997e-06

> <r_epik_State_Penalty>
0.00149294

> <r_epik_Charging_Adjusted_Penalty>
0.00366623

> <i_epik_Tot_Q>
1

> <i_epik_Tot_abs_Q>
1

> <r_epik_Metal_State_Penalty>
-0

> <b_epik_Metal_Only>
0

> <s_lp_Force_Field>
OPLS_2005

> <r_lp_Energy>
22.2263

> <b_lp_Chiralities_Consistent>
1

> <s_lp_Variant>
AV-unprocessed.smi:1154-3

> <Gold.Version>
5.8.1

> <Gold.Id.Protein>
6NUR|6NUR_protein|mol2

> <Gold.PLP.Fitness>
52.9634

> <Gold.PLP.PLP>
-44.6294

> <Gold.PLP.part.hbond>
-3.2924

> <Gold.PLP.part.metal>
0.0000

> <Gold.PLP.part.buried>
-6.9780

> <Gold.PLP.part.nonpolar>
-34.7365

> <Gold.PLP.part.repulsive>
0.2449

> <Gold.PLP.ligand.clash>
0.0000

> <Gold.PLP.ligand.torsion>
0.2636

> <Gold.PLP.Chemscore.Hbond>
1.9280

> <Gold.PLP.Chemscore.CHOScore>
0.9963

> <Gold.PLP.Chemscore.Metal>
0.0000

> <Gold.Chemscore.Hbonds>
donor molecule, donor type, donor heavy atom, donor atom, acceptor molecule, acceptor atom, score
      L1  H     7    42       P1 10747  1.00
      L1  H    10    36       P1 10747  0.98
      L1  C    15    39       P1 10769  1.00

> <Gold.PLP.Chemscore.Internal.Correction>
0.0886

> <Gold.Rescore>
     Score         DG    S(hbond)    S(metal)    S(lipo)     H(rot)  DE(clash)    DE(int)     intcor
     13.50     -15.01       1.90        0.00      85.50       2.67       0.03       1.48       ----

> <Gold.Chemscore.Fitness>
13.5013

> <Gold.Chemscore.DG>
-15.0095

> <Gold.Chemscore.ZeroCoef>
-5.4800

> <Gold.Chemscore.Hbond>
1.9026

> <Gold.Chemscore.Metal>
0.0000

> <Gold.Chemscore.Lipo>
85.5003

> <Gold.Chemscore.Internal_Hbond>
0.0000

> <Gold.Chemscore.DEClash>
0.0324

> <Gold.Chemscore.DEInternal>
1.4758

> <Gold.Chemscore.Rot>
2.6674

> <Gold.Chemscore.Internal.Correction>
   9.000000E+99

> <Gold.Chemscore.Hbonds>
donor molecule, donor type, donor heavy atom, donor atom, acceptor molecule, acceptor atom, score
      L1  H     7    42       P1 10747  0.96
      L1  H    10    36       P1 10747  0.93

> <Gold.Chemscore.Hbond.Weighted>
-6.3546

> <Gold.Chemscore.Metal.Weighted>
-0.0000

> <Gold.Chemscore.Lipo.Weighted>
-10.0035

> <Gold.Chemscore.Internal_Hbond.Weighted>
0.0000

> <Gold.Chemscore.DEClash.Weighted>
0.0324

> <Gold.Chemscore.DEInternal.Weighted>
1.4758

> <Gold.Chemscore.Rot.Weighted>
6.8286

> <Gold.Chemscore.Internal.Correction.Weighted>
   9.000000E+99

> <Gold.Protein.RotatedTorsions>
[ 6907 6896 6895 6894 ] final  -31.80 input  -60.11 | X-H torsion
[ 7974 7965 7964 7962 ] final   17.58 input  175.53 | X-H torsion
[ 8008 7997 7996 7995 ] final -111.04 input   59.86 | X-H torsion
[ 10167 10162 10161 10158 ] final  146.43 input  -65.29 | X-H torsion
[ 10718 10713 10712 10709 ] final -131.50 input   66.30 | X-H torsion
[ 10763 10752 10751 10750 ] final  -12.52 input  -60.55 | X-H torsion
[ 11005 11000 10999 10996 ] final  -14.49 input  -57.11 | X-H torsion

> <Gold.Protein.ActiveResidues>
 VAL166  LYS551  ARG553  GLY616  TRP617  ASP618  TYR619  PRO620  LYS621  CYS622 
 ASP623  PHE694  ASN695  SER759  ASP760  ASP761  ALA762  ILE779  LEU786  VAL792 
 PHE793  MET794  SER795  GLU796  ALA797  LYS798  CYS799  TRP800  GLU811  SER814 

> <Gold.Protein.RotatedAtoms>
  151.0873  134.9894  159.8384 H   0  0  0  0  0  0  0  0  0  0  0  0  # atno 6907 bound_to 6896
  152.5425  134.2109  159.8759 H   0  0  0  0  0  0  0  0  0  0  0  0  # atno 6908 bound_to 6896
  151.2143  133.4494  159.2632 H   0  0  0  0  0  0  0  0  0  0  0  0  # atno 6909 bound_to 6896
  146.2213  139.8581  142.8610 H   0  0  0  0  0  0  0  0  0  0  0  0  # atno 7974 bound_to 7965
  154.9837  140.0396  157.2289 H   0  0  0  0  0  0  0  0  0  0  0  0  # atno 8008 bound_to 7997
  154.7691  140.2798  155.6130 H   0  0  0  0  0  0  0  0  0  0  0  0  # atno 8009 bound_to 7997
  156.2918  140.2613  156.2489 H   0  0  0  0  0  0  0  0  0  0  0  0  # atno 8010 bound_to 7997
  139.4907  144.5830  151.6834 H   0  0  0  0  0  0  0  0  0  0  0  0  # atno 10167 bound_to 10162
  156.2250  130.7002  151.0797 H   0  0  0  0  0  0  0  0  0  0  0  0  # atno 10718 bound_to 10713
  153.4997  135.7017  153.5838 H   0  0  0  0  0  0  0  0  0  0  0  0  # atno 10763 bound_to 10752
  153.3975  135.3880  155.1965 H   0  0  0  0  0  0  0  0  0  0  0  0  # atno 10764 bound_to 10752
  154.8711  135.3873  154.4466 H   0  0  0  0  0  0  0  0  0  0  0  0  # atno 10765 bound_to 10752
  140.7870  133.8318  155.9344 H   0  0  0  0  0  0  0  0  0  0  0  0  # atno 11005 bound_to 11000
  145.2732  141.0115  143.3760 LP  0  0  0  0  0  0  0  0  0  0  0  0  # atno 17320 bound_to 7965
  144.9207  139.4415  143.6542 LP  0  0  0  0  0  0  0  0  0  0  0  0  # atno 17321 bound_to 7965
  140.5440  144.0533  150.6099 LP  0  0  0  0  0  0  0  0  0  0  0  0  # atno 17342 bound_to 10162
  140.3565  143.2932  152.0430 LP  0  0  0  0  0  0  0  0  0  0  0  0  # atno 17343 bound_to 10162
  157.7106  131.0736  150.6514 LP  0  0  0  0  0  0  0  0  0  0  0  0  # atno 17370 bound_to 10713
  156.6579  130.4503  149.5697 LP  0  0  0  0  0  0  0  0  0  0  0  0  # atno 17371 bound_to 10713
  140.9427  134.1880  157.4786 LP  0  0  0  0  0  0  0  0  0  0  0  0  # atno 17394 bound_to 11000
  139.8735  134.9878  156.5385 LP  0  0  0  0  0  0  0  0  0  0  0  0  # atno 17395 bound_to 11000

$$$$
