AV-unprocessed.smi:1575|AV-procd|sdf|6339|dock6
  -GOLD-   22720 6553D 1   1.00000     0.00000
 Structure written by MMmdl.
 41 41  0  0  0  0  0  0  0  0  1 V2000
  155.0185  137.8161  161.2634 C   0  0  0  0  0  0  0  0  0  0  0  0
  154.1978  138.8763  160.6994 N   0  0  0  0  0  0  0  0  0  0  0  0
  154.5622  139.6404  159.6596 C   0  0  0  0  0  0  0  0  0  0  0  0
  155.6357  139.5043  159.0698 O   0  0  0  0  0  0  0  0  0  0  0  0
  153.5486  140.7072  159.2115 C   0  0  2  0  0  0  0  0  0  0  0  0
  153.3184  141.6723  160.3989 C   0  0  0  0  0  0  0  0  0  0  0  0
  152.1835  142.7032  160.1971 C   0  0  0  0  0  0  0  0  0  0  0  0
  152.3645  143.5368  158.9173 C   0  0  0  0  0  0  0  0  0  0  0  0
  152.0656  143.6230  161.4218 C   0  0  0  0  0  0  0  0  0  0  0  0
  152.2759  140.0726  158.8698 N   0  0  0  0  0  0  0  0  0  0  0  0
  151.9541  139.5743  157.6663 C   0  0  0  0  0  0  0  0  0  0  0  0
  152.7179  139.5981  156.7001 O   0  0  0  0  0  0  0  0  0  0  0  0
  150.5650  138.9327  157.5506 C   0  0  0  0  0  0  0  0  0  0  0  0
  149.7604  139.5104  156.4649 N   0  0  0  0  0  0  0  0  0  0  0  0
  148.5579  140.1444  156.7437 C   0  0  0  0  0  0  0  0  0  0  0  0
  147.7652  140.6910  155.7914 C   0  0  0  0  0  0  0  0  0  0  0  0
  148.1531  140.6354  154.3860 C   0  0  0  0  0  0  0  0  0  0  0  0
  147.5051  141.1028  153.4524 O   0  0  0  0  0  0  0  0  0  0  0  0
  149.3675  139.9867  154.1460 N   0  0  0  0  0  0  0  0  0  0  0  0
  150.1877  139.4188  155.1222 C   0  0  0  0  0  0  0  0  0  0  0  0
  151.2383  138.8644  154.8012 O   0  0  0  0  0  0  0  0  0  0  0  0
  149.6761  139.9219  153.1869 H   0  0  0  0  0  0  0  0  0  0  0  0
  154.4888  137.3321  162.0837 H   0  0  0  0  0  0  0  0  0  0  0  0
  155.9556  138.2172  161.6518 H   0  0  0  0  0  0  0  0  0  0  0  0
  155.2476  137.0594  160.5119 H   0  0  0  0  0  0  0  0  0  0  0  0
  153.2996  139.0446  161.1288 H   0  0  0  0  0  0  0  0  0  0  0  0
  153.9488  141.2488  158.3528 H   0  0  0  0  0  0  0  0  0  0  0  0
  153.1029  141.0886  161.2961 H   0  0  0  0  0  0  0  0  0  0  0  0
  154.2426  142.2118  160.6137 H   0  0  0  0  0  0  0  0  0  0  0  0
  151.2366  142.1688  160.1133 H   0  0  0  0  0  0  0  0  0  0  0  0
  153.3226  144.0574  158.9149 H   0  0  0  0  0  0  0  0  0  0  0  0
  151.5793  144.2879  158.8261 H   0  0  0  0  0  0  0  0  0  0  0  0
  152.3166  142.9171  158.0221 H   0  0  0  0  0  0  0  0  0  0  0  0
  152.9742  144.2082  161.5676 H   0  0  0  0  0  0  0  0  0  0  0  0
  151.8900  143.0481  162.3315 H   0  0  0  0  0  0  0  0  0  0  0  0
  151.2347  144.3204  161.3111 H   0  0  0  0  0  0  0  0  0  0  0  0
  151.5943  139.9973  159.6108 H   0  0  0  0  0  0  0  0  0  0  0  0
  150.7009  137.8617  157.3942 H   0  0  0  0  0  0  0  0  0  0  0  0
  150.0312  139.0191  158.4995 H   0  0  0  0  0  0  0  0  0  0  0  0
  148.2285  140.2059  157.7712 H   0  0  0  0  0  0  0  0  0  0  0  0
  146.8388  141.1712  156.0711 H   0  0  0  0  0  0  0  0  0  0  0  0
  1  2  1  0  0  0  0
  1 23  1  0  0  0  0
  1 24  1  0  0  0  0
  1 25  1  0  0  0  0
  2  3  1  0  0  0  0
  2 26  1  0  0  0  0
  3  4  2  0  0  0  0
  3  5  1  0  0  0  0
  5  6  1  0  0  0  0
  5 10  1  0  0  0  0
  5 27  1  0  0  0  0
  6  7  1  0  0  0  0
  6 28  1  0  0  0  0
  6 29  1  0  0  0  0
  7  8  1  0  0  0  0
  7  9  1  0  0  0  0
  7 30  1  0  0  0  0
  8 31  1  0  0  0  0
  8 32  1  0  0  0  0
  8 33  1  0  0  0  0
  9 34  1  0  0  0  0
  9 35  1  0  0  0  0
  9 36  1  0  0  0  0
 10 11  1  0  0  0  0
 10 37  1  0  0  0  0
 11 12  2  0  0  0  0
 11 13  1  0  0  0  0
 13 14  1  0  0  0  0
 13 38  1  0  0  0  0
 13 39  1  0  0  0  0
 14 20  1  0  0  0  0
 14 15  1  0  0  0  0
 15 16  2  0  0  0  0
 15 40  1  0  0  0  0
 16 17  1  0  0  0  0
 16 41  1  0  0  0  0
 17 18  2  0  0  0  0
 17 19  1  0  0  0  0
 19 22  1  0  0  0  0
 19 20  1  0  0  0  0
 20 21  2  0  0  0  0
M  END
> <s_m_source_file>
AV-unprocessed.smi

> <i_m_source_file_index>
1575

> <i_lp_mmshare_version>
43012

> <i_f3d_flags>
0

> <s_epik_input>
W0NIM11bTkhdQyg9TylbQ0BIXShbQ0gyXVtDSF0oW0NIM10pW0NIM10pW05IXUMoPU8pW0NIMl1uMVtjSF1bY0hdYyg9TylbbkhdYzE9Tw==

> <s_epik_cmdline>
J2VwaWtfcHl0aG9uJywgJy1waCcsICc3LjAnLCAnLXRuJywgJzgnLCAnLW1hJywgJzIwMCcsICctbWV0YWxfYmluZGluZycsICctaW1hZScsICc8aW5maWxlLm1hZT4nLCAnLW9tYWUnLCAnPG91dGZpbGUubWFlPic=

> <r_lp_tautomer_probability>
0.999537

> <r_epik_Ionization_Penalty>
0.00357166

> <r_epik_Ionization_Penalty_Charging>
0.00357161

> <r_epik_Ionization_Penalty_Neutral>
5.44484e-08

> <r_epik_State_Penalty>
0.00253761

> <r_epik_Charging_Adjusted_Penalty>
0.00610921

> <i_epik_Tot_Q>
0

> <i_epik_Tot_abs_Q>
0

> <r_epik_Metal_State_Penalty>
0.368734

> <b_epik_Metal_Only>
0

> <s_lp_Force_Field>
OPLS_2005

> <r_lp_Energy>
6.26633

> <b_lp_Chiralities_Consistent>
1

> <s_lp_Variant>
AV-unprocessed.smi:1575-1

> <Gold.Version>
5.8.1

> <Gold.Id.Protein>
6NUR|6NUR_protein|mol2

> <Gold.PLP.Fitness>
44.6237

> <Gold.PLP.PLP>
-34.7923

> <Gold.PLP.part.hbond>
-4.7428

> <Gold.PLP.part.metal>
0.0000

> <Gold.PLP.part.buried>
-1.9467

> <Gold.PLP.part.nonpolar>
-28.1680

> <Gold.PLP.part.repulsive>
0.6535

> <Gold.PLP.ligand.clash>
0.0000

> <Gold.PLP.ligand.torsion>
0.4246

> <Gold.PLP.Chemscore.Hbond>
3.5070

> <Gold.PLP.Chemscore.CHOScore>
0.0000

> <Gold.PLP.Chemscore.Metal>
0.0000

> <Gold.Chemscore.Hbonds>
donor molecule, donor type, donor heavy atom, donor atom, acceptor molecule, acceptor atom, score
      L1  H    19    22       P1  7957  1.00
      P1  H  7989  7998       L1    21  0.01
      P1  H  7997  8009       L1     4  1.00
      P1  H  7997  8010       L1    12  1.00

> <Gold.PLP.Chemscore.Internal.Correction>
0.1596

> <Gold.Rescore>
     Score         DG    S(hbond)    S(metal)    S(lipo)     H(rot)  DE(clash)    DE(int)     intcor
     13.72     -15.84       2.75        0.00      71.58       2.81       0.09       2.03       ----

> <Gold.Chemscore.Fitness>
13.7211

> <Gold.Chemscore.DG>
-15.8376

> <Gold.Chemscore.ZeroCoef>
-5.4800

> <Gold.Chemscore.Hbond>
2.7454

> <Gold.Chemscore.Metal>
0.0000

> <Gold.Chemscore.Lipo>
71.5761

> <Gold.Chemscore.Internal_Hbond>
0.0000

> <Gold.Chemscore.DEClash>
0.0890

> <Gold.Chemscore.DEInternal>
2.0275

> <Gold.Chemscore.Rot>
2.8072

> <Gold.Chemscore.Internal.Correction>
   9.000000E+99

> <Gold.Chemscore.Hbonds>
donor molecule, donor type, donor heavy atom, donor atom, acceptor molecule, acceptor atom, score
      L1  H    19    22       P1  7957  0.93
      P1  H  7997  8009       L1     4  0.91
      P1  H  7997  8010       L1    12  0.96

> <Gold.Chemscore.Hbond.Weighted>
-9.1696

> <Gold.Chemscore.Metal.Weighted>
-0.0000

> <Gold.Chemscore.Lipo.Weighted>
-8.3744

> <Gold.Chemscore.Internal_Hbond.Weighted>
0.0000

> <Gold.Chemscore.DEClash.Weighted>
0.0890

> <Gold.Chemscore.DEInternal.Weighted>
2.0275

> <Gold.Chemscore.Rot.Weighted>
7.1864

> <Gold.Chemscore.Internal.Correction.Weighted>
   9.000000E+99

> <Gold.Protein.RotatedTorsions>
[ 6907 6896 6895 6894 ] final   52.08 input  -60.11 | X-H torsion
[ 7974 7965 7964 7962 ] final -144.80 input  175.53 | X-H torsion
[ 8008 7997 7996 7995 ] final   86.15 input   59.86 | X-H torsion
[ 10167 10162 10161 10158 ] final   83.38 input  -65.29 | X-H torsion
[ 10718 10713 10712 10709 ] final   -9.79 input   66.30 | X-H torsion
[ 10763 10752 10751 10750 ] final   73.28 input  -60.55 | X-H torsion
[ 11005 11000 10999 10996 ] final  -94.41 input  -57.11 | X-H torsion

> <Gold.Protein.ActiveResidues>
 VAL166  LYS551  ARG553  GLY616  TRP617  ASP618  TYR619  PRO620  LYS621  CYS622 
 ASP623  PHE694  ASN695  SER759  ASP760  ASP761  ALA762  ILE779  LEU786  VAL792 
 PHE793  MET794  SER795  GLU796  ALA797  LYS798  CYS799  TRP800  GLU811  SER814 

> <Gold.Protein.RotatedAtoms>
  152.3195  134.7398  160.0317 H   0  0  0  0  0  0  0  0  0  0  0  0  # atno 6907 bound_to 6896
  151.7852  133.3348  159.3491 H   0  0  0  0  0  0  0  0  0  0  0  0  # atno 6908 bound_to 6896
  150.7362  134.5825  159.5990 H   0  0  0  0  0  0  0  0  0  0  0  0  # atno 6909 bound_to 6896
  144.8272  140.5664  143.5539 H   0  0  0  0  0  0  0  0  0  0  0  0  # atno 7974 bound_to 7965
  155.9591  140.3395  155.6474 H   0  0  0  0  0  0  0  0  0  0  0  0  # atno 8008 bound_to 7997
  155.6822  140.0739  157.2498 H   0  0  0  0  0  0  0  0  0  0  0  0  # atno 8009 bound_to 7997
  154.4139  140.1672  156.1982 H   0  0  0  0  0  0  0  0  0  0  0  0  # atno 8010 bound_to 7997
  139.9190  144.6224  150.8459 H   0  0  0  0  0  0  0  0  0  0  0  0  # atno 10167 bound_to 10162
  156.6829  130.5042  149.5966 H   0  0  0  0  0  0  0  0  0  0  0  0  # atno 10718 bound_to 10713
  153.0511  135.5069  154.7869 H   0  0  0  0  0  0  0  0  0  0  0  0  # atno 10763 bound_to 10752
  154.6731  135.2956  154.9717 H   0  0  0  0  0  0  0  0  0  0  0  0  # atno 10764 bound_to 10752
  154.0529  135.6701  153.4855 H   0  0  0  0  0  0  0  0  0  0  0  0  # atno 10765 bound_to 10752
  141.1471  133.7954  157.0293 H   0  0  0  0  0  0  0  0  0  0  0  0  # atno 11005 bound_to 11000
  145.4975  139.1485  143.3676 LP  0  0  0  0  0  0  0  0  0  0  0  0  # atno 17320 bound_to 7965
  146.2577  140.5114  142.8867 LP  0  0  0  0  0  0  0  0  0  0  0  0  # atno 17321 bound_to 7965
  140.7667  143.3310  151.2409 LP  0  0  0  0  0  0  0  0  0  0  0  0  # atno 17342 bound_to 10162
  139.6878  143.9744  152.2843 LP  0  0  0  0  0  0  0  0  0  0  0  0  # atno 17343 bound_to 10162
  156.1854  130.6526  151.1000 LP  0  0  0  0  0  0  0  0  0  0  0  0  # atno 17370 bound_to 10713
  157.7037  131.0765  150.6737 LP  0  0  0  0  0  0  0  0  0  0  0  0  # atno 17371 bound_to 10713
  140.0764  134.9673  157.1553 LP  0  0  0  0  0  0  0  0  0  0  0  0  # atno 17394 bound_to 11000
  140.3638  134.2465  155.7184 LP  0  0  0  0  0  0  0  0  0  0  0  0  # atno 17395 bound_to 11000

$$$$
