AV-unprocessed.smi:1056|AV-procd|sdf|4633|dock5
  -GOLD-   22720 3133D 1   1.00000     0.00000
 Structure written by MMmdl.
 45 47  0  0  0  0  0  0  0  0  2 V2000
  153.3088  142.8313  162.2318 C   0  0  0  0  0  0  0  0  0  0  0  0
  152.8315  142.3886  160.8599 C   0  0  0  0  0  0  0  0  0  0  0  0
  153.1076  141.0713  160.4290 C   0  0  0  0  0  0  0  0  0  0  0  0
  152.6828  140.6205  159.1602 C   0  0  0  0  0  0  0  0  0  0  0  0
  152.8408  139.3919  158.5419 N   0  0  0  0  0  0  0  0  0  0  0  0
  152.2280  139.5950  157.3792 C   0  0  0  0  0  0  0  0  0  0  0  0
  151.6954  140.8143  157.1690 N   0  0  0  0  0  0  0  0  0  0  0  0
  150.9830  141.2723  155.9910 C   0  0  0  0  0  0  0  0  0  0  0  0
  149.4656  141.3996  156.2372 C   0  0  1  0  0  0  0  0  0  0  0  0
  149.2063  142.6050  156.9277 O   0  0  0  0  0  0  0  0  0  0  0  0
  148.6464  141.4121  154.9312 C   0  0  0  0  0  0  0  0  0  0  0  0
  147.3902  142.1952  155.0472 N   0  3  1  0  0  0  0  0  0  0  0  0
  146.6855  142.3941  153.7579 C   0  0  0  0  0  0  0  0  0  0  0  0
  145.5270  143.3911  153.9364 C   0  0  0  0  0  0  0  0  0  0  0  0
  144.7518  143.1552  155.1522 N   0  0  0  0  0  0  0  0  0  0  0  0
  145.1337  142.3807  156.1808 C   0  0  0  0  0  0  0  0  0  0  0  0
  144.4325  142.2391  157.1789 O   0  0  0  0  0  0  0  0  0  0  0  0
  146.4847  141.6547  156.0933 C   0  0  0  0  0  0  0  0  0  0  0  0
  151.9687  141.5313  158.3283 C   0  0  0  0  0  0  0  0  0  0  0  0
  151.6866  142.8441  158.7456 C   0  0  0  0  0  0  0  0  0  0  0  0
  152.1202  143.2787  160.0155 C   0  0  0  0  0  0  0  0  0  0  0  0
  151.8156  144.6995  160.4561 C   0  0  0  0  0  0  0  0  0  0  0  0
  153.7702  142.0076  162.7777 H   0  0  0  0  0  0  0  0  0  0  0  0
  152.4747  143.1999  162.8291 H   0  0  0  0  0  0  0  0  0  0  0  0
  154.0475  143.6276  162.1385 H   0  0  0  0  0  0  0  0  0  0  0  0
  153.6505  140.3937  161.0718 H   0  0  0  0  0  0  0  0  0  0  0  0
  152.1656  138.8135  156.6359 H   0  0  0  0  0  0  0  0  0  0  0  0
  151.4027  142.2282  155.6740 H   0  0  0  0  0  0  0  0  0  0  0  0
  151.1828  140.5624  155.1876 H   0  0  0  0  0  0  0  0  0  0  0  0
  149.1290  140.5903  156.8841 H   0  0  0  0  0  0  0  0  0  0  0  0
  148.9284  143.2577  156.3026 H   0  0  0  0  0  0  0  0  0  0  0  0
  149.2405  141.8087  154.1061 H   0  0  0  0  0  0  0  0  0  0  0  0
  148.4057  140.3812  154.6657 H   0  0  0  0  0  0  0  0  0  0  0  0
  147.3599  142.7663  152.9878 H   0  0  0  0  0  0  0  0  0  0  0  0
  146.3044  141.4335  153.4069 H   0  0  0  0  0  0  0  0  0  0  0  0
  145.9241  144.4054  153.9917 H   0  0  0  0  0  0  0  0  0  0  0  0
  144.8634  143.3615  153.0719 H   0  0  0  0  0  0  0  0  0  0  0  0
  143.8581  143.6217  155.2214 H   0  0  0  0  0  0  0  0  0  0  0  0
  146.2894  140.5996  155.8949 H   0  0  0  0  0  0  0  0  0  0  0  0
  146.9784  141.7125  157.0644 H   0  0  0  0  0  0  0  0  0  0  0  0
  151.1432  143.5114  158.0937 H   0  0  0  0  0  0  0  0  0  0  0  0
  151.3026  145.2581  159.6725 H   0  0  0  0  0  0  0  0  0  0  0  0
  152.7366  145.2311  160.6966 H   0  0  0  0  0  0  0  0  0  0  0  0
  151.1763  144.6965  161.3391 H   0  0  0  0  0  0  0  0  0  0  0  0
  147.6583  143.1143  155.3688 H   0  0  0  0  0  0  0  0  0  0  0  0
  1  2  1  0  0  0  0
  1 23  1  0  0  0  0
  1 24  1  0  0  0  0
  1 25  1  0  0  0  0
  2 21  1  0  0  0  0
  2  3  2  0  0  0  0
  3  4  1  0  0  0  0
  3 26  1  0  0  0  0
  4 19  2  0  0  0  0
  4  5  1  0  0  0  0
  5  6  2  0  0  0  0
  6  7  1  0  0  0  0
  6 27  1  0  0  0  0
  7  8  1  0  0  0  0
  7 19  1  0  0  0  0
  8  9  1  0  0  0  0
  8 28  1  0  0  0  0
  8 29  1  0  0  0  0
  9 10  1  0  0  0  0
  9 11  1  0  0  0  0
  9 30  1  0  0  0  0
 10 31  1  0  0  0  0
 11 12  1  0  0  0  0
 11 32  1  0  0  0  0
 11 33  1  0  0  0  0
 12 18  1  0  0  0  0
 12 13  1  0  0  0  0
 12 45  1  0  0  0  0
 13 14  1  0  0  0  0
 13 34  1  0  0  0  0
 13 35  1  0  0  0  0
 14 15  1  0  0  0  0
 14 36  1  0  0  0  0
 14 37  1  0  0  0  0
 15 16  1  0  0  0  0
 15 38  1  0  0  0  0
 16 17  2  0  0  0  0
 16 18  1  0  0  0  0
 18 39  1  0  0  0  0
 18 40  1  0  0  0  0
 19 20  1  0  0  0  0
 20 21  2  0  0  0  0
 20 41  1  0  0  0  0
 21 22  1  0  0  0  0
 22 42  1  0  0  0  0
 22 43  1  0  0  0  0
 22 44  1  0  0  0  0
M  CHG  1  12   1
M  END
> <s_m_source_file>
AV-unprocessed.smi

> <i_m_source_file_index>
1056

> <i_lp_mmshare_version>
43012

> <i_f3d_flags>
0

> <s_epik_input>
W0NIM11jKFtjSF0xKWMoW0NIM10pW2NIXWMoYzEyKW4oW2NIXW4yKVtDSDJdW0NASF0oW09IXSlbQ0gyXU4zW0NIMl1bQ0gyXVtOSF1DKD1PKVtDSDJdMw==

> <s_epik_cmdline>
J2VwaWtfcHl0aG9uJywgJy1waCcsICc3LjAnLCAnLXRuJywgJzgnLCAnLW1hJywgJzIwMCcsICctbWV0YWxfYmluZGluZycsICctaW1hZScsICc8aW5maWxlLm1hZT4nLCAnLW9tYWUnLCAnPG91dGZpbGUubWFlPic=

> <r_epik_Ionization_Penalty>
0.153633

> <r_epik_Ionization_Penalty_Charging>
0.0674887

> <r_epik_Ionization_Penalty_Neutral>
0.0861443

> <r_epik_State_Penalty>
0.135155

> <r_epik_Charging_Adjusted_Penalty>
0.202644

> <i_epik_Tot_Q>
1

> <i_epik_Tot_abs_Q>
1

> <r_epik_Metal_State_Penalty>
0.190685

> <b_epik_Metal_Only>
0

> <s_lp_Force_Field>
OPLS_2005

> <r_lp_Energy>
24.5126

> <b_lp_Chiralities_Consistent>
1

> <s_lp_Variant>
AV-unprocessed.smi:1056-4

> <Gold.Version>
5.8.1

> <Gold.Id.Protein>
6NUR|6NUR_protein|mol2

> <Gold.PLP.Fitness>
54.4790

> <Gold.PLP.PLP>
-46.8470

> <Gold.PLP.part.hbond>
-1.9001

> <Gold.PLP.part.metal>
0.0000

> <Gold.PLP.part.buried>
-7.7924

> <Gold.PLP.part.nonpolar>
-36.8250

> <Gold.PLP.part.repulsive>
0.1068

> <Gold.PLP.ligand.clash>
0.0000

> <Gold.PLP.ligand.torsion>
0.7259

> <Gold.PLP.Chemscore.Hbond>
3.0000

> <Gold.PLP.Chemscore.CHOScore>
0.0000

> <Gold.PLP.Chemscore.Metal>
0.0000

> <Gold.Chemscore.Hbonds>
donor molecule, donor type, donor heavy atom, donor atom, acceptor molecule, acceptor atom, score
      L1  H    10    31       P1  8028  1.00
      L1  H    12    45       P1  8028  2.00

> <Gold.PLP.Chemscore.Internal.Correction>
0.0838

> <Gold.Rescore>
     Score         DG    S(hbond)    S(metal)    S(lipo)     H(rot)  DE(clash)    DE(int)     intcor
     17.21     -18.61       1.61        0.00     118.30       2.38       0.48       0.93       ----

> <Gold.Chemscore.Fitness>
17.2067

> <Gold.Chemscore.DG>
-18.6140

> <Gold.Chemscore.ZeroCoef>
-5.4800

> <Gold.Chemscore.Hbond>
1.6111

> <Gold.Chemscore.Metal>
0.0000

> <Gold.Chemscore.Lipo>
118.3030

> <Gold.Chemscore.Internal_Hbond>
0.0000

> <Gold.Chemscore.DEClash>
0.4818

> <Gold.Chemscore.DEInternal>
0.9255

> <Gold.Chemscore.Rot>
2.3783

> <Gold.Chemscore.Internal.Correction>
   9.000000E+99

> <Gold.Chemscore.Hbonds>
donor molecule, donor type, donor heavy atom, donor atom, acceptor molecule, acceptor atom, score
      L1  H    10    31       P1  8028  0.96
      L1  H    12    45       P1  8028  0.37

> <Gold.Chemscore.Hbond.Weighted>
-5.3809

> <Gold.Chemscore.Metal.Weighted>
-0.0000

> <Gold.Chemscore.Lipo.Weighted>
-13.8415

> <Gold.Chemscore.Internal_Hbond.Weighted>
0.0000

> <Gold.Chemscore.DEClash.Weighted>
0.4818

> <Gold.Chemscore.DEInternal.Weighted>
0.9255

> <Gold.Chemscore.Rot.Weighted>
6.0884

> <Gold.Chemscore.Internal.Correction.Weighted>
   9.000000E+99

> <Gold.Protein.RotatedTorsions>
[ 6907 6896 6895 6894 ] final  -41.27 input  -60.11 | X-H torsion
[ 7974 7965 7964 7962 ] final   30.23 input  175.53 | X-H torsion
[ 8008 7997 7996 7995 ] final  -82.78 input   59.86 | X-H torsion
[ 10167 10162 10161 10158 ] final -174.52 input  -65.29 | X-H torsion
[ 10718 10713 10712 10709 ] final    0.44 input   66.30 | X-H torsion
[ 10763 10752 10751 10750 ] final   80.67 input  -60.55 | X-H torsion
[ 11005 11000 10999 10996 ] final  126.00 input  -57.11 | X-H torsion

> <Gold.Protein.ActiveResidues>
 VAL166  LYS551  ARG553  GLY616  TRP617  ASP618  TYR619  PRO620  LYS621  CYS622 
 ASP623  PHE694  ASN695  SER759  ASP760  ASP761  ALA762  ILE779  LEU786  VAL792 
 PHE793  MET794  SER795  GLU796  ALA797  LYS798  CYS799  TRP800  GLU811  SER814 

> <Gold.Protein.RotatedAtoms>
  150.9687  134.9064  159.7774 H   0  0  0  0  0  0  0  0  0  0  0  0  # atno 6907 bound_to 6896
  152.5182  134.3570  159.9281 H   0  0  0  0  0  0  0  0  0  0  0  0  # atno 6908 bound_to 6896
  151.3580  133.3859  159.2721 H   0  0  0  0  0  0  0  0  0  0  0  0  # atno 6909 bound_to 6896
  146.1624  139.6816  142.9024 H   0  0  0  0  0  0  0  0  0  0  0  0  # atno 7974 bound_to 7965
  154.6121  140.0628  156.9508 H   0  0  0  0  0  0  0  0  0  0  0  0  # atno 8008 bound_to 7997
  155.1955  140.3310  155.4333 H   0  0  0  0  0  0  0  0  0  0  0  0  # atno 8009 bound_to 7997
  156.2383  140.1873  156.7042 H   0  0  0  0  0  0  0  0  0  0  0  0  # atno 8010 bound_to 7997
  139.5629  144.1825  152.1267 H   0  0  0  0  0  0  0  0  0  0  0  0  # atno 10167 bound_to 10162
  156.8334  130.5496  149.5684 H   0  0  0  0  0  0  0  0  0  0  0  0  # atno 10718 bound_to 10713
  153.1053  135.4794  154.8940 H   0  0  0  0  0  0  0  0  0  0  0  0  # atno 10763 bound_to 10752
  154.7423  135.3085  154.8708 H   0  0  0  0  0  0  0  0  0  0  0  0  # atno 10764 bound_to 10752
  153.9313  135.6844  153.4799 H   0  0  0  0  0  0  0  0  0  0  0  0  # atno 10765 bound_to 10752
  139.9434  134.9633  156.8642 H   0  0  0  0  0  0  0  0  0  0  0  0  # atno 11005 bound_to 11000
  145.4554  141.0430  143.2781 LP  0  0  0  0  0  0  0  0  0  0  0  0  # atno 17320 bound_to 7965
  144.8045  139.6077  143.7057 LP  0  0  0  0  0  0  0  0  0  0  0  0  # atno 17321 bound_to 7965
  140.1342  144.5260  150.6783 LP  0  0  0  0  0  0  0  0  0  0  0  0  # atno 17342 bound_to 10162
  140.6911  143.2376  151.5129 LP  0  0  0  0  0  0  0  0  0  0  0  0  # atno 17343 bound_to 10162
  156.0921  130.5904  150.9751 LP  0  0  0  0  0  0  0  0  0  0  0  0  # atno 17370 bound_to 10713
  157.6394  131.0912  150.8281 LP  0  0  0  0  0  0  0  0  0  0  0  0  # atno 17371 bound_to 10713
  140.5894  134.0276  155.7494 LP  0  0  0  0  0  0  0  0  0  0  0  0  # atno 17394 bound_to 11000
  141.1077  133.9667  157.2967 LP  0  0  0  0  0  0  0  0  0  0  0  0  # atno 17395 bound_to 11000

$$$$
