AV-unprocessed.smi:54|AV-procd|sdf|530|dock8
  -GOLD-   2262016403D 1   1.00000     0.00000
 Structure written by MMmdl.
 44 46  0  0  0  0  0  0  0  0  1 V2000
  148.6434  133.9930  153.9816 C   0  0  0  0  0  0  0  0  0  0  0  0
  150.1658  133.9732  154.1929 C   0  0  0  0  0  0  0  0  0  0  0  0
  150.6175  132.6736  154.8789 C   0  0  0  0  0  0  0  0  0  0  0  0
  150.6132  135.1971  155.0005 C   0  0  0  0  0  0  0  0  0  0  0  0
  151.1702  135.0908  156.0937 O   0  0  0  0  0  0  0  0  0  0  0  0
  150.3253  136.4829  154.3912 N   0  0  0  0  0  0  0  0  0  0  0  0
  150.6070  137.7091  154.8892 C   0  0  0  0  0  0  0  0  0  0  0  0
  149.9261  138.7992  154.5637 N   0  0  0  0  0  0  0  0  0  0  0  0
  150.3588  139.9419  155.1769 C   0  0  0  0  0  0  0  0  0  0  0  0
  151.4020  140.0525  156.0720 C   0  0  0  0  0  0  0  0  0  0  0  0
  151.5495  141.3751  156.4749 N   0  0  0  0  0  0  0  0  0  0  0  0
  150.6129  142.0102  155.8264 C   0  0  0  0  0  0  0  0  0  0  0  0
  149.8443  141.2096  155.0137 N   0  0  0  0  0  0  0  0  0  0  0  0
  148.6913  141.5766  154.1304 C   0  0  1  0  0  0  0  0  0  0  0  0
  148.4818  140.5291  153.2282 O   0  0  0  0  0  0  0  0  0  0  0  0
  147.2786  139.8500  153.5610 C   0  0  2  0  0  0  0  0  0  0  0  0
  146.7509  139.0518  152.3555 C   0  0  0  0  0  0  0  0  0  0  0  0
  147.7925  138.4264  151.6345 O   0  0  0  0  0  0  0  0  0  0  0  0
  146.3830  140.9611  154.1107 C   0  0  1  0  0  0  0  0  0  0  0  0
  145.2958  140.4733  154.8744 O   0  0  0  0  0  0  0  0  0  0  0  0
  147.3771  141.7824  154.9270 C   0  0  1  0  0  0  0  0  0  0  0  0
  147.4526  141.3441  156.2767 O   0  0  0  0  0  0  0  0  0  0  0  0
  152.1416  138.8805  156.4416 C   0  0  0  0  0  0  0  0  0  0  0  0
  153.0883  138.7906  157.2201 O   0  0  0  0  0  0  0  0  0  0  0  0
  151.6684  137.7318  155.7943 N   0  0  0  0  0  0  0  0  0  0  0  0
  149.0230  142.4669  153.5945 H   0  0  0  0  0  0  0  0  0  0  0  0
  147.5197  139.1503  154.3637 H   0  0  0  0  0  0  0  0  0  0  0  0
  145.9998  141.5793  153.2984 H   0  0  0  0  0  0  0  0  0  0  0  0
  147.1141  142.8409  154.9261 H   0  0  0  0  0  0  0  0  0  0  0  0
  148.3226  134.9141  153.4932 H   0  0  0  0  0  0  0  0  0  0  0  0
  148.1056  133.9120  154.9272 H   0  0  0  0  0  0  0  0  0  0  0  0
  148.3269  133.1621  153.3504 H   0  0  0  0  0  0  0  0  0  0  0  0
  150.6434  134.0191  153.2130 H   0  0  0  0  0  0  0  0  0  0  0  0
  151.6962  132.6635  155.0403 H   0  0  0  0  0  0  0  0  0  0  0  0
  150.3709  131.8049  154.2678 H   0  0  0  0  0  0  0  0  0  0  0  0
  150.1340  132.5419  155.8479 H   0  0  0  0  0  0  0  0  0  0  0  0
  149.8316  136.4534  153.5112 H   0  0  0  0  0  0  0  0  0  0  0  0
  150.4621  143.0751  155.9258 H   0  0  0  0  0  0  0  0  0  0  0  0
  146.0288  138.3018  152.6788 H   0  0  0  0  0  0  0  0  0  0  0  0
  146.2299  139.7225  151.6721 H   0  0  0  0  0  0  0  0  0  0  0  0
  148.0632  137.6536  152.1064 H   0  0  0  0  0  0  0  0  0  0  0  0
  144.6182  140.1927  154.2779 H   0  0  0  0  0  0  0  0  0  0  0  0
  147.0214  141.9856  156.8205 H   0  0  0  0  0  0  0  0  0  0  0  0
  152.1444  136.8674  156.0067 H   0  0  0  0  0  0  0  0  0  0  0  0
  1  2  1  0  0  0  0
  1 30  1  0  0  0  0
  1 31  1  0  0  0  0
  1 32  1  0  0  0  0
  2  3  1  0  0  0  0
  2  4  1  0  0  0  0
  2 33  1  0  0  0  0
  3 34  1  0  0  0  0
  3 35  1  0  0  0  0
  3 36  1  0  0  0  0
  4  5  2  0  0  0  0
  4  6  1  0  0  0  0
  6 37  1  0  0  0  0
  6  7  1  0  0  0  0
  7 25  1  0  0  0  0
  7  8  2  0  0  0  0
  8  9  1  0  0  0  0
  9 13  1  0  0  0  0
  9 10  2  0  0  0  0
 10 11  1  0  0  0  0
 10 23  1  0  0  0  0
 11 12  2  0  0  0  0
 12 13  1  0  0  0  0
 12 38  1  0  0  0  0
 13 14  1  0  0  0  0
 14 26  1  0  0  0  0
 14 21  1  0  0  0  0
 14 15  1  0  0  0  0
 15 16  1  0  0  0  0
 16 27  1  0  0  0  0
 16 17  1  0  0  0  0
 16 19  1  0  0  0  0
 17 18  1  0  0  0  0
 17 39  1  0  0  0  0
 17 40  1  0  0  0  0
 18 41  1  0  0  0  0
 19 28  1  0  0  0  0
 19 20  1  0  0  0  0
 19 21  1  0  0  0  0
 20 42  1  0  0  0  0
 21 29  1  0  0  0  0
 21 22  1  0  0  0  0
 22 43  1  0  0  0  0
 23 24  2  0  0  0  0
 23 25  1  0  0  0  0
 25 44  1  0  0  0  0
M  END
> <s_m_source_file>
AV-unprocessed.smi

> <i_m_source_file_index>
54

> <i_lp_mmshare_version>
43012

> <i_f3d_flags>
0

> <s_epik_input>
W0NIM11bQ0hdKFtDSDNdKUMoPU8pW05IXWMobjEpW25IXWMoPU8pYyhjMTIpbltjSF1uMltDQEBIXTNPW0NASF0oW0NIMl1bT0hdKVtDQEBIXShbT0hdKVtDQEhdM1tPSF0=

> <s_epik_cmdline>
J2VwaWtfcHl0aG9uJywgJy1waCcsICc3LjAnLCAnLXRuJywgJzgnLCAnLW1hJywgJzIwMCcsICctbWV0YWxfYmluZGluZycsICctaW1hZScsICc8aW5maWxlLm1hZT4nLCAnLW9tYWUnLCAnPG91dGZpbGUubWFlPic=

> <r_lp_tautomer_probability>
0.85571

> <r_epik_Ionization_Penalty>
0.0316551

> <r_epik_Ionization_Penalty_Charging>
0.0316043

> <r_epik_Ionization_Penalty_Neutral>
5.07097e-05

> <r_epik_State_Penalty>
3.15494e-07

> <r_epik_Charging_Adjusted_Penalty>
0.0316047

> <i_epik_Tot_Q>
0

> <i_epik_Tot_abs_Q>
0

> <r_epik_Metal_State_Penalty>
0.421206

> <b_epik_Metal_Only>
0

> <s_epik_Chemistry_Notes>
This compound contains an acetal/aminal-like group ( X-CH(R)-Y where X, Y are N, S, or O) that may be acid/base labile, releasing an aldehyde.

> <s_lp_Force_Field>
OPLS_2005

> <r_lp_Energy>
47.6187

> <b_lp_Chiralities_Consistent>
1

> <s_lp_Variant>
AV-unprocessed.smi:54-2

> <Gold.Version>
5.8.1

> <Gold.Id.Protein>
6NUR|6NUR_protein|mol2

> <Gold.PLP.Fitness>
49.1116

> <Gold.PLP.PLP>
-33.8590

> <Gold.PLP.part.hbond>
-6.4081

> <Gold.PLP.part.metal>
0.0000

> <Gold.PLP.part.buried>
-0.3465

> <Gold.PLP.part.nonpolar>
-29.7933

> <Gold.PLP.part.repulsive>
4.8236

> <Gold.PLP.ligand.clash>
0.0000

> <Gold.PLP.ligand.torsion>
0.8310

> <Gold.PLP.Chemscore.Hbond>
4.6301

> <Gold.PLP.Chemscore.CHOScore>
1.0000

> <Gold.PLP.Chemscore.Metal>
0.0000

> <Gold.Chemscore.Hbonds>
donor molecule, donor type, donor heavy atom, donor atom, acceptor molecule, acceptor atom, score
      L1  H     6    37       P1  7948  1.00
      L1  H    18    41       P1  7948  0.77
      L1  H    20    42       P1 10175  0.92
      P1  H  7954  7966       L1    18  0.91
      P1  H  7997  8010       L1    24  1.00
      P1  H 10752 10765       L1     5  0.02
      L1  C    12    38       P1  8028  1.00

> <Gold.PLP.Chemscore.Internal.Correction>
0.0244

> <Gold.Rescore>
     Score         DG    S(hbond)    S(metal)    S(lipo)     H(rot)  DE(clash)    DE(int)     intcor
      5.64     -10.60       2.98        0.00      47.33       4.05       1.65       3.31       ----

> <Gold.Chemscore.Fitness>
5.6379

> <Gold.Chemscore.DG>
-10.6025

> <Gold.Chemscore.ZeroCoef>
-5.4800

> <Gold.Chemscore.Hbond>
2.9794

> <Gold.Chemscore.Metal>
0.0000

> <Gold.Chemscore.Lipo>
47.3276

> <Gold.Chemscore.Internal_Hbond>
0.0000

> <Gold.Chemscore.DEClash>
1.6518

> <Gold.Chemscore.DEInternal>
3.3128

> <Gold.Chemscore.Rot>
4.0493

> <Gold.Chemscore.Internal.Correction>
   9.000000E+99

> <Gold.Chemscore.Hbonds>
donor molecule, donor type, donor heavy atom, donor atom, acceptor molecule, acceptor atom, score
      L1  H     6    37       P1  7948  0.26
      L1  H    18    41       P1  7948  0.76
      L1  H    20    42       P1 10175  0.83
      P1  H  7954  7966       L1    18  0.20
      P1  H  7997  8010       L1    24  0.82

> <Gold.Chemscore.Hbond.Weighted>
-9.9514

> <Gold.Chemscore.Metal.Weighted>
-0.0000

> <Gold.Chemscore.Lipo.Weighted>
-5.5373

> <Gold.Chemscore.Internal_Hbond.Weighted>
0.0000

> <Gold.Chemscore.DEClash.Weighted>
1.6518

> <Gold.Chemscore.DEInternal.Weighted>
3.3128

> <Gold.Chemscore.Rot.Weighted>
10.3662

> <Gold.Chemscore.Internal.Correction.Weighted>
   9.000000E+99

> <Gold.Protein.RotatedTorsions>
[ 6907 6896 6895 6894 ] final  112.82 input  -60.11 | X-H torsion
[ 7974 7965 7964 7962 ] final  -58.70 input  175.53 | X-H torsion
[ 8008 7997 7996 7995 ] final   48.10 input   59.86 | X-H torsion
[ 10167 10162 10161 10158 ] final  -75.59 input  -65.29 | X-H torsion
[ 10718 10713 10712 10709 ] final  -96.53 input   66.30 | X-H torsion
[ 10763 10752 10751 10750 ] final -168.80 input  -60.55 | X-H torsion
[ 11005 11000 10999 10996 ] final   -9.03 input  -57.11 | X-H torsion

> <Gold.Protein.ActiveResidues>
 VAL166  LYS551  ARG553  GLY616  TRP617  ASP618  TYR619  PRO620  LYS621  CYS622 
 ASP623  PHE694  ASN695  SER759  ASP760  ASP761  ALA762  ILE779  LEU786  VAL792 
 PHE793  MET794  SER795  GLU796  ALA797  LYS798  CYS799  TRP800  GLU811  SER814 

> <Gold.Protein.RotatedAtoms>
  152.4895  133.8463  159.7178 H   0  0  0  0  0  0  0  0  0  0  0  0  # atno 6907 bound_to 6896
  150.9012  133.7107  159.2885 H   0  0  0  0  0  0  0  0  0  0  0  0  # atno 6908 bound_to 6896
  151.4547  135.1037  159.9760 H   0  0  0  0  0  0  0  0  0  0  0  0  # atno 6909 bound_to 6896
  145.8362  140.8447  143.0058 H   0  0  0  0  0  0  0  0  0  0  0  0  # atno 7974 bound_to 7965
  155.3801  140.3428  155.4246 H   0  0  0  0  0  0  0  0  0  0  0  0  # atno 8008 bound_to 7997
  156.1615  140.1602  156.8637 H   0  0  0  0  0  0  0  0  0  0  0  0  # atno 8009 bound_to 7997
  154.5144  140.0782  156.8035 H   0  0  0  0  0  0  0  0  0  0  0  0  # atno 8010 bound_to 7997
  140.4929  143.2376  151.7877 H   0  0  0  0  0  0  0  0  0  0  0  0  # atno 10167 bound_to 10162
  156.0064  130.5155  150.6239 H   0  0  0  0  0  0  0  0  0  0  0  0  # atno 10718 bound_to 10713
  154.6591  135.2922  154.9890 H   0  0  0  0  0  0  0  0  0  0  0  0  # atno 10763 bound_to 10752
  154.0956  135.6584  153.4863 H   0  0  0  0  0  0  0  0  0  0  0  0  # atno 10764 bound_to 10752
  153.0419  135.5230  154.7533 H   0  0  0  0  0  0  0  0  0  0  0  0  # atno 10765 bound_to 10752
  140.7298  133.8758  155.8884 H   0  0  0  0  0  0  0  0  0  0  0  0  # atno 11005 bound_to 11000
  144.6736  140.0744  143.7471 LP  0  0  0  0  0  0  0  0  0  0  0  0  # atno 17320 bound_to 7965
  145.9516  139.2738  143.1208 LP  0  0  0  0  0  0  0  0  0  0  0  0  # atno 17321 bound_to 7965
  139.4855  144.4625  151.9524 LP  0  0  0  0  0  0  0  0  0  0  0  0  # atno 17342 bound_to 10162
  140.3712  144.2853  150.5920 LP  0  0  0  0  0  0  0  0  0  0  0  0  # atno 17343 bound_to 10162
  157.4050  131.0815  151.1274 LP  0  0  0  0  0  0  0  0  0  0  0  0  # atno 17370 bound_to 10713
  157.1923  130.6357  149.5709 LP  0  0  0  0  0  0  0  0  0  0  0  0  # atno 17371 bound_to 10713
  140.9931  134.1252  157.4389 LP  0  0  0  0  0  0  0  0  0  0  0  0  # atno 17394 bound_to 11000
  139.8829  135.0046  156.6261 LP  0  0  0  0  0  0  0  0  0  0  0  0  # atno 17395 bound_to 11000

$$$$
