AV-unprocessed.smi:3085|AV-procd|sdf|11763|dock7
  -GOLD-   2272017143D 1   1.00000     0.00000
 Structure written by MMmdl.
 26 27  0  0  0  0  0  0  0  0  2 V2000
  152.8700  142.2659  160.5212 C   0  0  0  0  0  0  0  0  0  0  0  0
  153.3772  140.9369  159.9527 C   0  0  0  0  0  0  0  0  0  0  0  0
  152.7517  140.6166  158.6131 C   0  0  0  0  0  0  0  0  0  0  0  0
  151.8365  141.3496  157.9874 N   0  0  0  0  0  0  0  0  0  0  0  0
  151.6078  140.7301  156.8198 C   0  0  0  0  0  0  0  0  0  0  0  0
  150.6046  141.1851  155.7784 C   0  0  1  0  0  0  0  0  0  0  0  0
  150.6605  140.2904  154.5233 C   0  0  0  0  0  0  0  0  0  0  0  0
  149.6843  140.7350  153.5285 N   0  0  0  0  0  0  0  0  0  0  0  0
  148.3399  140.7958  154.0975 C   0  0  0  0  0  0  0  0  0  0  0  0
  148.3347  141.6772  155.3579 C   0  0  0  0  0  0  0  0  0  0  0  0
  149.2755  141.1686  156.2961 O   0  0  0  0  0  0  0  0  0  0  0  0
  152.3557  139.6204  156.7182 N   0  0  0  0  0  0  0  0  0  0  0  0
  153.0649  139.5714  157.8274 N   0  5  0  0  0  0  0  0  0  0  0  0
  153.3322  142.4790  161.4849 H   0  0  0  0  0  0  0  0  0  0  0  0
  151.7894  142.2431  160.6650 H   0  0  0  0  0  0  0  0  0  0  0  0
  153.1012  143.0928  159.8490 H   0  0  0  0  0  0  0  0  0  0  0  0
  154.4607  140.9697  159.8367 H   0  0  0  0  0  0  0  0  0  0  0  0
  153.1588  140.1256  160.6476 H   0  0  0  0  0  0  0  0  0  0  0  0
  150.8631  142.2111  155.5096 H   0  0  0  0  0  0  0  0  0  0  0  0
  151.6625  140.3098  154.0941 H   0  0  0  0  0  0  0  0  0  0  0  0
  150.4605  139.2548  154.8018 H   0  0  0  0  0  0  0  0  0  0  0  0
  149.6912  140.0969  152.7396 H   0  0  0  0  0  0  0  0  0  0  0  0
  147.6385  141.1890  153.3616 H   0  0  0  0  0  0  0  0  0  0  0  0
  147.9992  139.7914  154.3522 H   0  0  0  0  0  0  0  0  0  0  0  0
  148.5672  142.7149  155.1133 H   0  0  0  0  0  0  0  0  0  0  0  0
  147.3448  141.6721  155.8146 H   0  0  0  0  0  0  0  0  0  0  0  0
  1  2  1  0  0  0  0
  1 14  1  0  0  0  0
  1 15  1  0  0  0  0
  1 16  1  0  0  0  0
  2  3  1  0  0  0  0
  2 17  1  0  0  0  0
  2 18  1  0  0  0  0
  3 13  1  0  0  0  0
  3  4  2  0  0  0  0
  4  5  1  0  0  0  0
  5  6  1  0  0  0  0
  5 12  2  0  0  0  0
  6 11  1  0  0  0  0
  6  7  1  0  0  0  0
  6 19  1  0  0  0  0
  7  8  1  0  0  0  0
  7 20  1  0  0  0  0
  7 21  1  0  0  0  0
  8  9  1  0  0  0  0
  8 22  1  0  0  0  0
  9 10  1  0  0  0  0
  9 23  1  0  0  0  0
  9 24  1  0  0  0  0
 10 11  1  0  0  0  0
 10 25  1  0  0  0  0
 10 26  1  0  0  0  0
 12 13  1  0  0  0  0
M  CHG  1  13  -1
M  END
> <s_m_source_file>
AV-unprocessed.smi

> <i_m_source_file_index>
3085

> <i_lp_mmshare_version>
43012

> <i_f3d_flags>
0

> <s_epik_input>
W0NIM11bQ0gyXWMxbmMobltuSF0xKVtDQEBIXTJbQ0gyXVtOSF1bQ0gyXVtDSDJdTzI=

> <s_epik_cmdline>
J2VwaWtfcHl0aG9uJywgJy1waCcsICc3LjAnLCAnLXRuJywgJzgnLCAnLW1hJywgJzIwMCcsICctbWV0YWxfYmluZGluZycsICctaW1hZScsICc8aW5maWxlLm1hZT4nLCAnLW9tYWUnLCAnPG91dGZpbGUubWFlPic=

> <r_lp_tautomer_probability>
0.948284

> <r_epik_Ionization_Penalty>
17.858

> <r_epik_Ionization_Penalty_Charging>
16.2847

> <r_epik_Ionization_Penalty_Neutral>
1.5733

> <r_epik_State_Penalty>
7.01418

> <r_epik_Charging_Adjusted_Penalty>
23.2989

> <i_epik_Tot_Q>
-1

> <i_epik_Tot_abs_Q>
1

> <r_epik_Metal_State_Penalty>
3.17281

> <b_epik_Metal_Only>
1

> <s_lp_Force_Field>
OPLS_2005

> <r_lp_Energy>
10.7333

> <b_lp_Chiralities_Consistent>
1

> <s_lp_Variant>
AV-unprocessed.smi:3085-14

> <Gold.Version>
5.8.1

> <Gold.Id.Protein>
6NUR|6NUR_protein|mol2

> <Gold.PLP.Fitness>
33.4299

> <Gold.PLP.PLP>
-23.1676

> <Gold.PLP.part.hbond>
-4.7203

> <Gold.PLP.part.metal>
0.0000

> <Gold.PLP.part.buried>
2.8256

> <Gold.PLP.part.nonpolar>
-19.5605

> <Gold.PLP.part.repulsive>
0.0734

> <Gold.PLP.ligand.clash>
0.0000

> <Gold.PLP.ligand.torsion>
0.0480

> <Gold.PLP.Chemscore.Hbond>
3.4484

> <Gold.PLP.Chemscore.CHOScore>
0.0000

> <Gold.PLP.Chemscore.Metal>
0.0000

> <Gold.Chemscore.Hbonds>
donor molecule, donor type, donor heavy atom, donor atom, acceptor molecule, acceptor atom, score
      L1  H     8    22       P1  7957  0.86
      P1  H  7997  8010       L1    13  1.85
      P1  H  8011  8017       L1     8  0.60

> <Gold.PLP.Chemscore.Internal.Correction>
0.0132

> <Gold.Rescore>
     Score         DG    S(hbond)    S(metal)    S(lipo)     H(rot)  DE(clash)    DE(int)     intcor
     10.68     -12.24       1.39        0.00      45.77       1.26       1.51       0.05       ----

> <Gold.Chemscore.Fitness>
10.6759

> <Gold.Chemscore.DG>
-12.2381

> <Gold.Chemscore.ZeroCoef>
-5.4800

> <Gold.Chemscore.Hbond>
1.3881

> <Gold.Chemscore.Metal>
0.0000

> <Gold.Chemscore.Lipo>
45.7700

> <Gold.Chemscore.Internal_Hbond>
0.0000

> <Gold.Chemscore.DEClash>
1.5078

> <Gold.Chemscore.DEInternal>
0.0544

> <Gold.Chemscore.Rot>
1.2630

> <Gold.Chemscore.Internal.Correction>
   9.000000E+99

> <Gold.Chemscore.Hbonds>
donor molecule, donor type, donor heavy atom, donor atom, acceptor molecule, acceptor atom, score
      L1  H     8    22       P1  7957  0.83
      P1  H  7997  8010       L1    13  0.08
      P1  H  8011  8017       L1     8  0.02

> <Gold.Chemscore.Hbond.Weighted>
-4.6363

> <Gold.Chemscore.Metal.Weighted>
-0.0000

> <Gold.Chemscore.Lipo.Weighted>
-5.3551

> <Gold.Chemscore.Internal_Hbond.Weighted>
0.0000

> <Gold.Chemscore.DEClash.Weighted>
1.5078

> <Gold.Chemscore.DEInternal.Weighted>
0.0544

> <Gold.Chemscore.Rot.Weighted>
3.2333

> <Gold.Chemscore.Internal.Correction.Weighted>
   9.000000E+99

> <Gold.Protein.RotatedTorsions>
[ 6907 6896 6895 6894 ] final -126.29 input  -60.11 | X-H torsion
[ 7974 7965 7964 7962 ] final  172.22 input  175.53 | X-H torsion
[ 8008 7997 7996 7995 ] final   22.44 input   59.86 | X-H torsion
[ 10167 10162 10161 10158 ] final  167.87 input  -65.29 | X-H torsion
[ 10718 10713 10712 10709 ] final -120.29 input   66.30 | X-H torsion
[ 10763 10752 10751 10750 ] final  -50.80 input  -60.55 | X-H torsion
[ 11005 11000 10999 10996 ] final -110.78 input  -57.11 | X-H torsion

> <Gold.Protein.ActiveResidues>
 VAL166  LYS551  ARG553  GLY616  TRP617  ASP618  TYR619  PRO620  LYS621  CYS622 
 ASP623  PHE694  ASN695  SER759  ASP760  ASP761  ALA762  ILE779  LEU786  VAL792 
 PHE793  MET794  SER795  GLU796  ALA797  LYS798  CYS799  TRP800  GLU811  SER814 

> <Gold.Protein.RotatedAtoms>
  150.8954  133.7187  159.2892 H   0  0  0  0  0  0  0  0  0  0  0  0  # atno 6907 bound_to 6896
  151.4724  135.1045  159.9764 H   0  0  0  0  0  0  0  0  0  0  0  0  # atno 6908 bound_to 6896
  152.4845  133.8291  159.7149 H   0  0  0  0  0  0  0  0  0  0  0  0  # atno 6909 bound_to 6896
  144.7274  139.9466  143.6430 H   0  0  0  0  0  0  0  0  0  0  0  0  # atno 7974 bound_to 7965
  154.9657  140.3083  155.5010 H   0  0  0  0  0  0  0  0  0  0  0  0  # atno 8008 bound_to 7997
  156.2972  140.2293  156.4684 H   0  0  0  0  0  0  0  0  0  0  0  0  # atno 8009 bound_to 7997
  154.7923  140.0439  157.1199 H   0  0  0  0  0  0  0  0  0  0  0  0  # atno 8010 bound_to 7997
  139.4955  144.3875  151.9554 H   0  0  0  0  0  0  0  0  0  0  0  0  # atno 10167 bound_to 10162
  156.1247  130.6350  150.9522 H   0  0  0  0  0  0  0  0  0  0  0  0  # atno 10718 bound_to 10713
  154.1162  135.6541  153.4894 H   0  0  0  0  0  0  0  0  0  0  0  0  # atno 10763 bound_to 10752
  153.0240  135.5259  154.7142 H   0  0  0  0  0  0  0  0  0  0  0  0  # atno 10764 bound_to 10752
  154.6337  135.2979  155.0156 H   0  0  0  0  0  0  0  0  0  0  0  0  # atno 10765 bound_to 10752
  141.0772  133.9281  157.2365 H   0  0  0  0  0  0  0  0  0  0  0  0  # atno 11005 bound_to 11000
  146.0744  139.3732  143.0503 LP  0  0  0  0  0  0  0  0  0  0  0  0  # atno 17320 bound_to 7965
  145.7925  140.9808  143.1041 LP  0  0  0  0  0  0  0  0  0  0  0  0  # atno 17321 bound_to 7965
  140.3312  144.3314  150.5987 LP  0  0  0  0  0  0  0  0  0  0  0  0  # atno 17342 bound_to 10162
  140.5643  143.2188  151.7710 LP  0  0  0  0  0  0  0  0  0  0  0  0  # atno 17343 bound_to 10162
  157.6429  131.0908  150.8214 LP  0  0  0  0  0  0  0  0  0  0  0  0  # atno 17370 bound_to 10713
  156.8306  130.5015  149.5332 LP  0  0  0  0  0  0  0  0  0  0  0  0  # atno 17371 bound_to 10713
  139.9584  135.0160  156.9194 LP  0  0  0  0  0  0  0  0  0  0  0  0  # atno 17394 bound_to 11000
  140.5547  134.0592  155.7380 LP  0  0  0  0  0  0  0  0  0  0  0  0  # atno 17395 bound_to 11000

$$$$
