AV-unprocessed.smi:335|AV-procd|sdf|2370|dock7
  -GOLD-   2262022283D 1   1.00000     0.00000
 Structure written by MMmdl.
 42 44  0  0  0  0  0  0  0  0  1 V2000
  151.0387  141.0897  155.9482 C   0  0  0  0  0  0  0  0  0  0  0  0
  151.1831  139.9885  155.0687 O   0  0  0  0  0  0  0  0  0  0  0  0
  150.7837  138.7639  155.6627 C   0  0  0  0  0  0  0  0  0  0  0  0
  151.0355  137.6092  154.6789 C   0  0  0  0  0  0  0  0  0  0  0  0
  150.5175  136.3344  155.1884 N   0  0  0  0  0  0  0  0  0  0  0  0
  149.2957  135.9666  154.6500 N   0  0  0  0  0  0  0  0  0  0  0  0
  148.7416  134.8496  154.9960 C   0  0  0  0  0  0  0  0  0  0  0  0
  147.4307  134.4168  154.4378 C   0  0  0  0  0  0  0  0  0  0  0  0
  146.5649  133.8953  155.1427 O   0  0  0  0  0  0  0  0  0  0  0  0
  147.2683  134.6361  153.1202 N   0  0  0  0  0  0  0  0  0  0  0  0
  146.0865  134.2966  152.3352 C   0  0  0  0  0  0  0  0  0  0  0  0
  146.3366  133.1295  151.3956 C   0  0  0  0  0  0  0  0  0  0  0  0
  145.2014  132.4367  150.6793 C   0  0  0  0  0  0  0  0  0  0  0  0
  145.9542  131.7192  151.7766 C   0  0  0  0  0  0  0  0  0  0  0  0
  145.5666  135.4951  151.5630 C   0  0  0  0  0  0  0  0  0  0  0  0
  144.2315  136.1171  151.8959 C   0  0  0  0  0  0  0  0  0  0  0  0
  144.4144  135.3681  150.5947 C   0  0  0  0  0  0  0  0  0  0  0  0
  149.3843  133.9661  155.9543 C   0  0  0  0  0  0  0  0  0  0  0  0
  150.5716  134.3423  156.4777 C   0  0  0  0  0  0  0  0  0  0  0  0
  151.2199  135.5999  156.1030 C   0  0  0  0  0  0  0  0  0  0  0  0
  152.3016  135.9631  156.5643 O   0  0  0  0  0  0  0  0  0  0  0  0
  151.3541  142.0041  155.4459 H   0  0  0  0  0  0  0  0  0  0  0  0
  151.6563  140.9659  156.8388 H   0  0  0  0  0  0  0  0  0  0  0  0
  149.9999  141.2152  156.2562 H   0  0  0  0  0  0  0  0  0  0  0  0
  151.3226  138.5987  156.5969 H   0  0  0  0  0  0  0  0  0  0  0  0
  149.7215  138.8084  155.9074 H   0  0  0  0  0  0  0  0  0  0  0  0
  150.5736  137.8383  153.7173 H   0  0  0  0  0  0  0  0  0  0  0  0
  152.1050  137.5318  154.4741 H   0  0  0  0  0  0  0  0  0  0  0  0
  148.0329  135.0681  152.6213 H   0  0  0  0  0  0  0  0  0  0  0  0
  145.2917  133.9994  153.0224 H   0  0  0  0  0  0  0  0  0  0  0  0
  147.2577  133.2276  150.8237 H   0  0  0  0  0  0  0  0  0  0  0  0
  144.1849  132.7561  150.9003 H   0  0  0  0  0  0  0  0  0  0  0  0
  145.3767  132.1151  149.6549 H   0  0  0  0  0  0  0  0  0  0  0  0
  146.6337  130.9213  151.4850 H   0  0  0  0  0  0  0  0  0  0  0  0
  145.4378  131.5697  152.7227 H   0  0  0  0  0  0  0  0  0  0  0  0
  146.3494  136.1928  151.2700 H   0  0  0  0  0  0  0  0  0  0  0  0
  143.6294  135.6421  152.6681 H   0  0  0  0  0  0  0  0  0  0  0  0
  144.1568  137.2016  151.8474 H   0  0  0  0  0  0  0  0  0  0  0  0
  144.4624  135.9528  149.6785 H   0  0  0  0  0  0  0  0  0  0  0  0
  143.9254  134.4002  150.5048 H   0  0  0  0  0  0  0  0  0  0  0  0
  148.9291  133.0316  156.2487 H   0  0  0  0  0  0  0  0  0  0  0  0
  151.0594  133.6964  157.1930 H   0  0  0  0  0  0  0  0  0  0  0  0
  1  2  1  0  0  0  0
  1 22  1  0  0  0  0
  1 23  1  0  0  0  0
  1 24  1  0  0  0  0
  2  3  1  0  0  0  0
  3  4  1  0  0  0  0
  3 25  1  0  0  0  0
  3 26  1  0  0  0  0
  4  5  1  0  0  0  0
  4 27  1  0  0  0  0
  4 28  1  0  0  0  0
  5 20  1  0  0  0  0
  5  6  1  0  0  0  0
  6  7  2  0  0  0  0
  7  8  1  0  0  0  0
  7 18  1  0  0  0  0
  8  9  2  0  0  0  0
  8 10  1  0  0  0  0
 10 11  1  0  0  0  0
 10 29  1  0  0  0  0
 11 12  1  0  0  0  0
 11 15  1  0  0  0  0
 11 30  1  0  0  0  0
 12 14  1  0  0  0  0
 12 13  1  0  0  0  0
 12 31  1  0  0  0  0
 13 14  1  0  0  0  0
 13 32  1  0  0  0  0
 13 33  1  0  0  0  0
 14 34  1  0  0  0  0
 14 35  1  0  0  0  0
 15 17  1  0  0  0  0
 15 16  1  0  0  0  0
 15 36  1  0  0  0  0
 16 17  1  0  0  0  0
 16 37  1  0  0  0  0
 16 38  1  0  0  0  0
 17 39  1  0  0  0  0
 17 40  1  0  0  0  0
 18 19  2  0  0  0  0
 18 41  1  0  0  0  0
 19 20  1  0  0  0  0
 19 42  1  0  0  0  0
 20 21  2  0  0  0  0
M  END
> <s_m_source_file>
AV-unprocessed.smi

> <i_m_source_file_index>
335

> <i_lp_mmshare_version>
43012

> <i_f3d_flags>
0

> <s_epik_input>
W0NIM11PW0NIMl1bQ0gyXW4xbmMoW2NIXVtjSF1jMT1PKUMoPU8pW05IXVtDSF0oW0NIXTJbQ0gyXVtDSDJdMilbQ0hdM1tDSDJdW0NIMl0z

> <s_epik_cmdline>
J2VwaWtfcHl0aG9uJywgJy1waCcsICc3LjAnLCAnLXRuJywgJzgnLCAnLW1hJywgJzIwMCcsICctbWV0YWxfYmluZGluZycsICctaW1hZScsICc8aW5maWxlLm1hZT4nLCAnLW9tYWUnLCAnPG91dGZpbGUubWFlPic=

> <r_lp_tautomer_probability>
1

> <r_epik_Ionization_Penalty>
5.73468e-07

> <r_epik_Ionization_Penalty_Charging>
6.67133e-09

> <r_epik_Ionization_Penalty_Neutral>
5.66797e-07

> <r_epik_State_Penalty>
-0

> <r_epik_Charging_Adjusted_Penalty>
6.67133e-09

> <i_epik_Tot_Q>
0

> <i_epik_Tot_abs_Q>
0

> <r_epik_Metal_State_Penalty>
-0

> <b_epik_Metal_Only>
0

> <s_lp_Force_Field>
OPLS_2005

> <r_lp_Energy>
44.174

> <b_lp_Chiralities_Consistent>
1

> <s_lp_Variant>
AV-unprocessed.smi:335-1

> <Gold.Version>
5.8.1

> <Gold.Id.Protein>
6NUR|6NUR_protein|mol2

> <Gold.PLP.Fitness>
39.2338

> <Gold.PLP.PLP>
-32.7366

> <Gold.PLP.part.hbond>
-3.0000

> <Gold.PLP.part.metal>
0.0000

> <Gold.PLP.part.buried>
-4.9062

> <Gold.PLP.part.nonpolar>
-26.8289

> <Gold.PLP.part.repulsive>
2.5181

> <Gold.PLP.ligand.clash>
0.0000

> <Gold.PLP.ligand.torsion>
2.3897

> <Gold.PLP.Chemscore.Hbond>
3.0000

> <Gold.PLP.Chemscore.CHOScore>
0.0000

> <Gold.PLP.Chemscore.Metal>
0.0000

> <Gold.Chemscore.Hbonds>
donor molecule, donor type, donor heavy atom, donor atom, acceptor molecule, acceptor atom, score
      L1  H    10    29       P1  7948  1.00
      P1  H  7989  7998       L1     2  1.00
      P1  H 10752 10764       L1    21  1.00

> <Gold.PLP.Chemscore.Internal.Correction>
2.2765

> <Gold.Rescore>
     Score         DG    S(hbond)    S(metal)    S(lipo)     H(rot)  DE(clash)    DE(int)     intcor
     12.53     -15.57       1.90        0.00      72.40       1.85       0.88       2.16       ----

> <Gold.Chemscore.Fitness>
12.5322

> <Gold.Chemscore.DG>
-15.5723

> <Gold.Chemscore.ZeroCoef>
-5.4800

> <Gold.Chemscore.Hbond>
1.9002

> <Gold.Chemscore.Metal>
0.0000

> <Gold.Chemscore.Lipo>
72.4010

> <Gold.Chemscore.Internal_Hbond>
0.0000

> <Gold.Chemscore.DEClash>
0.8773

> <Gold.Chemscore.DEInternal>
2.1628

> <Gold.Chemscore.Rot>
1.8458

> <Gold.Chemscore.Internal.Correction>
   9.000000E+99

> <Gold.Chemscore.Hbonds>
donor molecule, donor type, donor heavy atom, donor atom, acceptor molecule, acceptor atom, score
      L1  H    10    29       P1  7948  0.92
      P1  H  7989  7998       L1     2  0.26
      P1  H 10752 10764       L1    21  0.43

> <Gold.Chemscore.Hbond.Weighted>
-6.3466

> <Gold.Chemscore.Metal.Weighted>
-0.0000

> <Gold.Chemscore.Lipo.Weighted>
-8.4709

> <Gold.Chemscore.Internal_Hbond.Weighted>
0.0000

> <Gold.Chemscore.DEClash.Weighted>
0.8773

> <Gold.Chemscore.DEInternal.Weighted>
2.1628

> <Gold.Chemscore.Rot.Weighted>
4.7252

> <Gold.Chemscore.Internal.Correction.Weighted>
   9.000000E+99

> <Gold.Protein.RotatedTorsions>
[ 6907 6896 6895 6894 ] final   44.72 input  -60.11 | X-H torsion
[ 7974 7965 7964 7962 ] final  -76.39 input  175.53 | X-H torsion
[ 8008 7997 7996 7995 ] final  145.89 input   59.86 | X-H torsion
[ 10167 10162 10161 10158 ] final  -57.90 input  -65.29 | X-H torsion
[ 10718 10713 10712 10709 ] final  -43.82 input   66.30 | X-H torsion
[ 10763 10752 10751 10750 ] final    0.78 input  -60.55 | X-H torsion
[ 11005 11000 10999 10996 ] final  -99.38 input  -57.11 | X-H torsion

> <Gold.Protein.ActiveResidues>
 VAL166  LYS551  ARG553  GLY616  TRP617  ASP618  TYR619  PRO620  LYS621  CYS622 
 ASP623  PHE694  ASN695  SER759  ASP760  ASP761  ALA762  ILE779  LEU786  VAL792 
 PHE793  MET794  SER795  GLU796  ALA797  LYS798  CYS799  TRP800  GLU811  SER814 

> <Gold.Protein.RotatedAtoms>
  152.2359  134.8277  160.0466 H   0  0  0  0  0  0  0  0  0  0  0  0  # atno 6907 bound_to 6896
  151.9009  133.3532  159.3838 H   0  0  0  0  0  0  0  0  0  0  0  0  # atno 6908 bound_to 6896
  150.7039  134.4755  159.5490 H   0  0  0  0  0  0  0  0  0  0  0  0  # atno 6909 bound_to 6896
  145.6135  140.9381  143.1176 H   0  0  0  0  0  0  0  0  0  0  0  0  # atno 7974 bound_to 7965
  156.2871  140.2197  156.5289 H   0  0  0  0  0  0  0  0  0  0  0  0  # atno 8008 bound_to 7997
  154.7466  140.0483  157.0879 H   0  0  0  0  0  0  0  0  0  0  0  0  # atno 8009 bound_to 7997
  155.0163  140.3119  155.4813 H   0  0  0  0  0  0  0  0  0  0  0  0  # atno 8010 bound_to 7997
  140.6230  143.2427  151.5434 H   0  0  0  0  0  0  0  0  0  0  0  0  # atno 10167 bound_to 10162
  156.2450  130.4183  149.8716 H   0  0  0  0  0  0  0  0  0  0  0  0  # atno 10718 bound_to 10713
  153.3163  135.6966  153.7070 H   0  0  0  0  0  0  0  0  0  0  0  0  # atno 10763 bound_to 10752
  153.5928  135.3476  155.2918 H   0  0  0  0  0  0  0  0  0  0  0  0  # atno 10764 bound_to 10752
  154.8587  135.4322  154.2315 H   0  0  0  0  0  0  0  0  0  0  0  0  # atno 10765 bound_to 10752
  141.1311  133.8317  157.0963 H   0  0  0  0  0  0  0  0  0  0  0  0  # atno 11005 bound_to 11000
  144.7260  139.7875  143.7365 LP  0  0  0  0  0  0  0  0  0  0  0  0  # atno 17320 bound_to 7965
  146.1486  139.4562  143.0063 LP  0  0  0  0  0  0  0  0  0  0  0  0  # atno 17321 bound_to 7965
  139.5455  144.2533  152.1433 LP  0  0  0  0  0  0  0  0  0  0  0  0  # atno 17342 bound_to 10162
  140.1758  144.4892  150.6555 LP  0  0  0  0  0  0  0  0  0  0  0  0  # atno 17343 bound_to 10162
  156.6284  130.8655  151.3490 LP  0  0  0  0  0  0  0  0  0  0  0  0  # atno 17370 bound_to 10713
  157.7191  130.9535  150.1369 LP  0  0  0  0  0  0  0  0  0  0  0  0  # atno 17371 bound_to 10713
  140.0361  134.9877  157.0873 LP  0  0  0  0  0  0  0  0  0  0  0  0  # atno 17394 bound_to 11000
  140.4209  134.1882  155.7164 LP  0  0  0  0  0  0  0  0  0  0  0  0  # atno 17395 bound_to 11000

$$$$
