AV-unprocessed.smi:761|AV-procd|sdf|3630|dock9
  -GOLD-   22720 1 23D 1   1.00000     0.00000
 Structure written by MMmdl.
 34 35  0  0  0  0  0  0  0  0  2 V2000
  144.5285  136.6804  151.3087 O   0  0  0  0  0  0  0  0  0  0  0  0
  145.7387  136.4788  151.4089 C   0  0  0  0  0  0  0  0  0  0  0  0
  146.6091  137.4214  151.7985 N   0  0  0  0  0  0  0  0  0  0  0  0
  146.2441  138.7840  152.1680 C   0  0  0  0  0  0  0  0  0  0  0  0
  146.9229  139.2133  153.4819 C   0  0  0  0  0  0  0  0  0  0  0  0
  148.1642  139.9837  153.2394 N   0  3  0  0  0  0  0  0  0  0  0  0
  149.2948  139.6496  154.1532 C   0  0  0  0  0  0  0  0  0  0  0  0
  149.9223  140.9866  154.4295 C   0  0  0  0  0  0  0  0  0  0  0  0
  149.1967  141.9775  153.9240 C   0  0  0  0  0  0  0  0  0  0  0  0
  147.9680  141.4609  153.2307 C   0  0  0  0  0  0  0  0  0  0  0  0
  146.3642  135.3224  151.1286 N   0  0  0  0  0  0  0  0  0  0  0  0
  145.7999  134.0857  150.7129 C   0  0  0  0  0  0  0  0  0  0  0  0
  144.4140  134.0508  150.4540 C   0  0  0  0  0  0  0  0  0  0  0  0
  143.8332  132.8410  150.0238 C   0  0  0  0  0  0  0  0  0  0  0  0
  144.5382  131.7058  149.8354 N   0  0  0  0  0  0  0  0  0  0  0  0
  145.8669  131.7446  150.0691 C   0  0  0  0  0  0  0  0  0  0  0  0
  146.5461  132.9010  150.5024 C   0  0  0  0  0  0  0  0  0  0  0  0
  147.5878  137.1779  151.8497 H   0  0  0  0  0  0  0  0  0  0  0  0
  146.4998  139.4624  151.3522 H   0  0  0  0  0  0  0  0  0  0  0  0
  145.1602  138.8271  152.2777 H   0  0  0  0  0  0  0  0  0  0  0  0
  146.2302  139.8365  154.0494 H   0  0  0  0  0  0  0  0  0  0  0  0
  147.1512  138.3490  154.1075 H   0  0  0  0  0  0  0  0  0  0  0  0
  148.9539  139.2074  155.0907 H   0  0  0  0  0  0  0  0  0  0  0  0
  149.9982  138.9699  153.6718 H   0  0  0  0  0  0  0  0  0  0  0  0
  150.8387  141.0979  154.9907 H   0  0  0  0  0  0  0  0  0  0  0  0
  149.4235  143.0306  154.0044 H   0  0  0  0  0  0  0  0  0  0  0  0
  147.8946  141.8385  152.2105 H   0  0  0  0  0  0  0  0  0  0  0  0
  147.0812  141.7634  153.7897 H   0  0  0  0  0  0  0  0  0  0  0  0
  147.3724  135.3403  151.1763 H   0  0  0  0  0  0  0  0  0  0  0  0
  143.8012  134.9307  150.5853 H   0  0  0  0  0  0  0  0  0  0  0  0
  142.7734  132.7855  149.8236 H   0  0  0  0  0  0  0  0  0  0  0  0
  146.4091  130.8261  149.8994 H   0  0  0  0  0  0  0  0  0  0  0  0
  147.6140  132.8574  150.6491 H   0  0  0  0  0  0  0  0  0  0  0  0
  148.4803  139.7496  152.3092 H   0  0  0  0  0  0  0  0  0  0  0  0
  1  2  2  0  0  0  0
  2  3  1  0  0  0  0
  2 11  1  0  0  0  0
  3  4  1  0  0  0  0
  3 18  1  0  0  0  0
  4  5  1  0  0  0  0
  4 19  1  0  0  0  0
  4 20  1  0  0  0  0
  5  6  1  0  0  0  0
  5 21  1  0  0  0  0
  5 22  1  0  0  0  0
  6 10  1  0  0  0  0
  6  7  1  0  0  0  0
  6 34  1  0  0  0  0
  7  8  1  0  0  0  0
  7 23  1  0  0  0  0
  7 24  1  0  0  0  0
  8  9  2  0  0  0  0
  8 25  1  0  0  0  0
  9 10  1  0  0  0  0
  9 26  1  0  0  0  0
 10 27  1  0  0  0  0
 10 28  1  0  0  0  0
 11 12  1  0  0  0  0
 11 29  1  0  0  0  0
 12 17  1  0  0  0  0
 12 13  2  0  0  0  0
 13 14  1  0  0  0  0
 13 30  1  0  0  0  0
 14 15  2  0  0  0  0
 14 31  1  0  0  0  0
 15 16  1  0  0  0  0
 16 17  2  0  0  0  0
 16 32  1  0  0  0  0
 17 33  1  0  0  0  0
M  CHG  1   6   1
M  END
> <s_m_source_file>
AV-unprocessed.smi

> <i_m_source_file_index>
761

> <i_lp_mmshare_version>
43012

> <i_f3d_flags>
0

> <s_epik_input>
W2NIXTFbY0hdbltjSF1bY0hdYzFbTkhdQyg9TylbTkhdW0NIMl1bQ0gyXU4yW0NIMl1bQ0hdPVtDSF1bQ0gyXTI=

> <s_epik_cmdline>
J2VwaWtfcHl0aG9uJywgJy1waCcsICc3LjAnLCAnLXRuJywgJzgnLCAnLW1hJywgJzIwMCcsICctbWV0YWxfYmluZGluZycsICctaW1hZScsICc8aW5maWxlLm1hZT4nLCAnLW9tYWUnLCAnPG91dGZpbGUubWFlPic=

> <r_epik_Ionization_Penalty>
0.100973

> <r_epik_Ionization_Penalty_Charging>
0.00265978

> <r_epik_Ionization_Penalty_Neutral>
0.098313

> <r_epik_State_Penalty>
0.0959991

> <r_epik_Charging_Adjusted_Penalty>
0.0986589

> <i_epik_Tot_Q>
1

> <i_epik_Tot_abs_Q>
1

> <r_epik_Metal_State_Penalty>
0.0816347

> <b_epik_Metal_Only>
0

> <s_lp_Force_Field>
OPLS_2005

> <r_lp_Energy>
25.6578

> <b_lp_Chiralities_Consistent>
1

> <s_lp_Variant>
AV-unprocessed.smi:761-1

> <Gold.Version>
5.8.1

> <Gold.Id.Protein>
6NUR|6NUR_protein|mol2

> <Gold.PLP.Fitness>
43.9662

> <Gold.PLP.PLP>
-31.5914

> <Gold.PLP.part.hbond>
-4.0000

> <Gold.PLP.part.metal>
0.0000

> <Gold.PLP.part.buried>
1.2719

> <Gold.PLP.part.nonpolar>
-29.1878

> <Gold.PLP.part.repulsive>
1.3833

> <Gold.PLP.ligand.clash>
0.0000

> <Gold.PLP.ligand.torsion>
0.8415

> <Gold.PLP.Chemscore.Hbond>
3.1091

> <Gold.PLP.Chemscore.CHOScore>
1.5712

> <Gold.PLP.Chemscore.Metal>
0.0000

> <Gold.Chemscore.Hbonds>
donor molecule, donor type, donor heavy atom, donor atom, acceptor molecule, acceptor atom, score
      L1  H     3    18       P1  7948  1.00
      L1  H     6    34       P1  7957  0.93
      L1  H    11    29       P1  7948  0.98
      P1  H 10785 10796       L1    15  0.14
      L1  C    14    31       P1 10186  1.00
      L1  C    16    32       P1 10747  0.68

> <Gold.PLP.Chemscore.Internal.Correction>
0.0171

> <Gold.Rescore>
     Score         DG    S(hbond)    S(metal)    S(lipo)     H(rot)  DE(clash)    DE(int)     intcor
     17.11     -20.27       2.77        0.00      80.41       1.51       0.93       2.23       ----

> <Gold.Chemscore.Fitness>
17.1076

> <Gold.Chemscore.DG>
-20.2701

> <Gold.Chemscore.ZeroCoef>
-5.4800

> <Gold.Chemscore.Hbond>
2.7702

> <Gold.Chemscore.Metal>
0.0000

> <Gold.Chemscore.Lipo>
80.4073

> <Gold.Chemscore.Internal_Hbond>
0.0000

> <Gold.Chemscore.DEClash>
0.9345

> <Gold.Chemscore.DEInternal>
2.2280

> <Gold.Chemscore.Rot>
1.5117

> <Gold.Chemscore.Internal.Correction>
   9.000000E+99

> <Gold.Chemscore.Hbonds>
donor molecule, donor type, donor heavy atom, donor atom, acceptor molecule, acceptor atom, score
      L1  H     3    18       P1  7948  0.99
      L1  H     6    34       P1  7957  0.89
      L1  H    11    29       P1  7948  0.61
      P1  H 10785 10796       L1    15  0.11

> <Gold.Chemscore.Hbond.Weighted>
-9.2525

> <Gold.Chemscore.Metal.Weighted>
-0.0000

> <Gold.Chemscore.Lipo.Weighted>
-9.4077

> <Gold.Chemscore.Internal_Hbond.Weighted>
0.0000

> <Gold.Chemscore.DEClash.Weighted>
0.9345

> <Gold.Chemscore.DEInternal.Weighted>
2.2280

> <Gold.Chemscore.Rot.Weighted>
3.8700

> <Gold.Chemscore.Internal.Correction.Weighted>
   9.000000E+99

> <Gold.Protein.RotatedTorsions>
[ 6907 6896 6895 6894 ] final  -44.99 input  -60.11 | X-H torsion
[ 7974 7965 7964 7962 ] final  -28.00 input  175.53 | X-H torsion
[ 8008 7997 7996 7995 ] final   19.24 input   59.86 | X-H torsion
[ 10167 10162 10161 10158 ] final   61.71 input  -65.29 | X-H torsion
[ 10718 10713 10712 10709 ] final  -42.75 input   66.30 | X-H torsion
[ 10763 10752 10751 10750 ] final  136.16 input  -60.55 | X-H torsion
[ 11005 11000 10999 10996 ] final  131.57 input  -57.11 | X-H torsion

> <Gold.Protein.ActiveResidues>
 VAL166  LYS551  ARG553  GLY616  TRP617  ASP618  TYR619  PRO620  LYS621  CYS622 
 ASP623  PHE694  ASN695  SER759  ASP760  ASP761  ALA762  ILE779  LEU786  VAL792 
 PHE793  MET794  SER795  GLU796  ALA797  LYS798  CYS799  TRP800  GLU811  SER814 

> <Gold.Protein.RotatedAtoms>
  150.9268  134.8684  159.7524 H   0  0  0  0  0  0  0  0  0  0  0  0  # atno 6907 bound_to 6896
  152.5019  134.4138  159.9467 H   0  0  0  0  0  0  0  0  0  0  0  0  # atno 6908 bound_to 6896
  151.4167  133.3671  159.2786 H   0  0  0  0  0  0  0  0  0  0  0  0  # atno 6909 bound_to 6896
  146.1319  140.5226  142.8690 H   0  0  0  0  0  0  0  0  0  0  0  0  # atno 7974 bound_to 7965
  154.9178  140.3023  155.5232 H   0  0  0  0  0  0  0  0  0  0  0  0  # atno 8008 bound_to 7997
  156.3011  140.2377  156.4161 H   0  0  0  0  0  0  0  0  0  0  0  0  # atno 8009 bound_to 7997
  154.8361  140.0416  157.1498 H   0  0  0  0  0  0  0  0  0  0  0  0  # atno 8010 bound_to 7997
  140.1518  144.4455  150.6755 H   0  0  0  0  0  0  0  0  0  0  0  0  # atno 10167 bound_to 10162
  156.2562  130.4192  149.8593 H   0  0  0  0  0  0  0  0  0  0  0  0  # atno 10718 bound_to 10713
  153.8519  135.3078  155.3433 H   0  0  0  0  0  0  0  0  0  0  0  0  # atno 10763 bound_to 10752
  154.7887  135.4795  154.0007 H   0  0  0  0  0  0  0  0  0  0  0  0  # atno 10764 bound_to 10752
  153.1513  135.6843  153.8971 H   0  0  0  0  0  0  0  0  0  0  0  0  # atno 10765 bound_to 10752
  139.9738  134.9569  156.9458 H   0  0  0  0  0  0  0  0  0  0  0  0  # atno 11005 bound_to 11000
  144.7699  140.5614  143.6677 LP  0  0  0  0  0  0  0  0  0  0  0  0  # atno 17320 bound_to 7965
  145.5242  139.1476  143.3535 LP  0  0  0  0  0  0  0  0  0  0  0  0  # atno 17321 bound_to 7965
  140.6698  143.2281  151.5654 LP  0  0  0  0  0  0  0  0  0  0  0  0  # atno 17342 bound_to 10162
  139.5422  144.2616  152.1373 LP  0  0  0  0  0  0  0  0  0  0  0  0  # atno 17343 bound_to 10162
  156.6124  130.8592  151.3457 LP  0  0  0  0  0  0  0  0  0  0  0  0  # atno 17370 bound_to 10713
  157.7233  130.9588  150.1530 LP  0  0  0  0  0  0  0  0  0  0  0  0  # atno 17371 bound_to 10713
  140.5237  134.0882  155.7298 LP  0  0  0  0  0  0  0  0  0  0  0  0  # atno 17394 bound_to 11000
  141.1417  133.9127  157.2311 LP  0  0  0  0  0  0  0  0  0  0  0  0  # atno 17395 bound_to 11000

$$$$
