AV-unprocessed.smi:280|AV-procd|sdf|2099|dock6
  -GOLD-   2262021383D 1   1.00000     0.00000
 Structure written by MMmdl.
 59 62  0  0  0  0  0  0  0  0  2 V2000
  147.8293  136.1722  156.5058 C   0  0  0  0  0  0  0  0  0  0  0  0
  148.3644  136.0793  155.0595 C   0  0  2  0  0  0  0  0  0  0  0  0
  149.8447  136.5074  154.9662 C   0  0  0  0  0  0  0  0  0  0  0  0
  149.9814  137.9591  155.0882 N   0  0  0  0  0  0  0  0  0  0  0  0
  150.3516  138.4775  156.2914 C   0  0  0  0  0  0  0  0  0  0  0  0
  150.7982  137.6047  157.2325 N   0  0  0  0  0  0  0  0  0  0  0  0
  151.1832  138.0349  158.4363 C   0  0  0  0  0  0  0  0  0  0  0  0
  151.2033  139.2814  158.9068 N   0  0  0  0  0  0  0  0  0  0  0  0
  150.7564  140.1688  157.9737 C   0  0  0  0  0  0  0  0  0  0  0  0
  150.3134  139.8592  156.6542 C   0  0  0  0  0  0  0  0  0  0  0  0
  149.9170  141.0311  156.0173 N   0  0  0  0  0  0  0  0  0  0  0  0
  150.1289  141.9716  156.8957 C   0  0  0  0  0  0  0  0  0  0  0  0
  150.6445  141.5433  158.0962 N   0  0  0  0  0  0  0  0  0  0  0  0
  150.9779  142.3672  159.2480 C   0  0  0  0  0  0  0  0  0  0  0  0
  152.4849  142.6538  159.4262 C   0  0  0  0  0  0  0  0  0  0  0  0
  152.9158  143.8535  158.5615 C   0  0  0  0  0  0  0  0  0  0  0  0
  152.2050  145.0309  158.8905 O   0  0  0  0  0  0  0  0  0  0  0  0
  153.0221  142.6261  160.8659 C   0  0  0  0  0  0  0  0  0  0  0  0
  153.5581  141.2964  160.7052 O   0  0  0  0  0  0  0  0  0  0  0  0
  153.3621  141.4010  159.2795 C   0  0  0  0  0  0  0  0  0  0  0  0
  149.1796  138.7285  154.1428 C   0  0  0  0  0  0  0  0  0  0  0  0
  147.6961  138.3209  154.2146 C   0  0  0  0  0  0  0  0  0  0  0  0
  147.5446  136.8468  154.0750 N   0  3  2  0  0  0  0  0  0  0  0  0
  146.1326  136.3888  153.9615 C   0  0  0  0  0  0  0  0  0  0  0  0
  145.6367  136.2934  152.4977 C   0  0  0  0  0  0  0  0  0  0  0  0
  146.0096  134.9516  151.8405 C   0  0  0  0  0  0  0  0  0  0  0  0
  144.1142  136.5046  152.4445 C   0  0  0  0  0  0  0  0  0  0  0  0
  146.2071  137.3359  151.7332 O   0  0  0  0  0  0  0  0  0  0  0  0
  148.4546  135.5903  157.1835 H   0  0  0  0  0  0  0  0  0  0  0  0
  146.8160  135.7817  156.5937 H   0  0  0  0  0  0  0  0  0  0  0  0
  147.8196  137.1961  156.8783 H   0  0  0  0  0  0  0  0  0  0  0  0
  148.3195  135.0297  154.7659 H   0  0  0  0  0  0  0  0  0  0  0  0
  150.4370  135.9639  155.7024 H   0  0  0  0  0  0  0  0  0  0  0  0
  150.2441  136.2193  153.9931 H   0  0  0  0  0  0  0  0  0  0  0  0
  151.5254  137.2712  159.1194 H   0  0  0  0  0  0  0  0  0  0  0  0
  149.9106  143.0088  156.6886 H   0  0  0  0  0  0  0  0  0  0  0  0
  150.4251  143.3028  159.1516 H   0  0  0  0  0  0  0  0  0  0  0  0
  150.5774  141.8851  160.1407 H   0  0  0  0  0  0  0  0  0  0  0  0
  153.9751  144.0708  158.7003 H   0  0  0  0  0  0  0  0  0  0  0  0
  152.7842  143.6428  157.4999 H   0  0  0  0  0  0  0  0  0  0  0  0
  151.5034  145.1418  158.2671 H   0  0  0  0  0  0  0  0  0  0  0  0
  153.8096  143.3564  161.0593 H   0  0  0  0  0  0  0  0  0  0  0  0
  152.2541  142.6734  161.6367 H   0  0  0  0  0  0  0  0  0  0  0  0
  152.8400  140.5376  158.8651 H   0  0  0  0  0  0  0  0  0  0  0  0
  154.3045  141.5683  158.7555 H   0  0  0  0  0  0  0  0  0  0  0  0
  149.3066  139.8014  154.2812 H   0  0  0  0  0  0  0  0  0  0  0  0
  149.5596  138.5183  153.1423 H   0  0  0  0  0  0  0  0  0  0  0  0
  147.2516  138.6456  155.1549 H   0  0  0  0  0  0  0  0  0  0  0  0
  147.1514  138.8374  153.4262 H   0  0  0  0  0  0  0  0  0  0  0  0
  146.0416  135.3923  154.3954 H   0  0  0  0  0  0  0  0  0  0  0  0
  145.4815  137.0306  154.5578 H   0  0  0  0  0  0  0  0  0  0  0  0
  145.5985  134.1116  152.4012 H   0  0  0  0  0  0  0  0  0  0  0  0
  147.0895  134.8131  151.7824 H   0  0  0  0  0  0  0  0  0  0  0  0
  145.6210  134.8875  150.8234 H   0  0  0  0  0  0  0  0  0  0  0  0
  143.5887  135.7312  153.0061 H   0  0  0  0  0  0  0  0  0  0  0  0
  143.7417  136.4746  151.4196 H   0  0  0  0  0  0  0  0  0  0  0  0
  143.8301  137.4686  152.8687 H   0  0  0  0  0  0  0  0  0  0  0  0
  147.1107  137.1213  151.5560 H   0  0  0  0  0  0  0  0  0  0  0  0
  147.9563  136.6247  153.1798 H   0  0  0  0  0  0  0  0  0  0  0  0
  1  2  1  0  0  0  0
  1 29  1  0  0  0  0
  1 30  1  0  0  0  0
  1 31  1  0  0  0  0
  2 23  1  0  0  0  0
  2  3  1  0  0  0  0
  2 32  1  0  0  0  0
  3  4  1  0  0  0  0
  3 33  1  0  0  0  0
  3 34  1  0  0  0  0
  4  5  1  0  0  0  0
  4 21  1  0  0  0  0
  5 10  1  0  0  0  0
  5  6  2  0  0  0  0
  6  7  1  0  0  0  0
  7  8  2  0  0  0  0
  7 35  1  0  0  0  0
  8  9  1  0  0  0  0
  9 13  1  0  0  0  0
  9 10  2  0  0  0  0
 10 11  1  0  0  0  0
 11 12  2  0  0  0  0
 12 13  1  0  0  0  0
 12 36  1  0  0  0  0
 13 14  1  0  0  0  0
 14 15  1  0  0  0  0
 14 37  1  0  0  0  0
 14 38  1  0  0  0  0
 15 20  1  0  0  0  0
 15 16  1  0  0  0  0
 15 18  1  0  0  0  0
 16 17  1  0  0  0  0
 16 39  1  0  0  0  0
 16 40  1  0  0  0  0
 17 41  1  0  0  0  0
 18 19  1  0  0  0  0
 18 42  1  0  0  0  0
 18 43  1  0  0  0  0
 19 20  1  0  0  0  0
 20 44  1  0  0  0  0
 20 45  1  0  0  0  0
 21 22  1  0  0  0  0
 21 46  1  0  0  0  0
 21 47  1  0  0  0  0
 22 23  1  0  0  0  0
 22 48  1  0  0  0  0
 22 49  1  0  0  0  0
 23 24  1  0  0  0  0
 23 59  1  0  0  0  0
 24 25  1  0  0  0  0
 24 50  1  0  0  0  0
 24 51  1  0  0  0  0
 25 26  1  0  0  0  0
 25 27  1  0  0  0  0
 25 28  1  0  0  0  0
 26 52  1  0  0  0  0
 26 53  1  0  0  0  0
 26 54  1  0  0  0  0
 27 55  1  0  0  0  0
 27 56  1  0  0  0  0
 27 57  1  0  0  0  0
 28 58  1  0  0  0  0
M  CHG  1  23   1
M  END
> <s_m_source_file>
AV-unprocessed.smi

> <i_m_source_file_index>
280

> <i_lp_mmshare_version>
43012

> <i_f3d_flags>
0

> <s_epik_input>
W0NIM11DKFtDSDNdKShbT0hdKVtDSDJdTjFbQ0gyXVtDSDJdTihbQ0gyXVtDQEhdMVtDSDNdKWMobltjSF1uMiljKGMyMyluW2NIXW4zW0NIMl1DNChbQ0gyXVtPSF0pW0NIMl1PW0NIMl00

> <s_epik_cmdline>
J2VwaWtfcHl0aG9uJywgJy1waCcsICc3LjAnLCAnLXRuJywgJzgnLCAnLW1hJywgJzIwMCcsICctbWV0YWxfYmluZGluZycsICctaW1hZScsICc8aW5maWxlLm1hZT4nLCAnLW9tYWUnLCAnPG91dGZpbGUubWFlPic=

> <r_lp_tautomer_probability>
1

> <r_epik_Ionization_Penalty>
0.00179402

> <r_epik_Ionization_Penalty_Charging>
0.00173996

> <r_epik_Ionization_Penalty_Neutral>
5.40607e-05

> <r_epik_State_Penalty>
-0

> <r_epik_Charging_Adjusted_Penalty>
0.00173996

> <i_epik_Tot_Q>
1

> <i_epik_Tot_abs_Q>
1

> <r_epik_Metal_State_Penalty>
-0

> <b_epik_Metal_Only>
0

> <s_lp_Force_Field>
OPLS_2005

> <r_lp_Energy>
53.0384

> <b_lp_Chiralities_Consistent>
1

> <s_lp_Variant>
AV-unprocessed.smi:280-3

> <Gold.Version>
5.8.1

> <Gold.Id.Protein>
6NUR|6NUR_protein|mol2

> <Gold.PLP.Fitness>
47.1211

> <Gold.PLP.PLP>
-37.7721

> <Gold.PLP.part.hbond>
-2.3338

> <Gold.PLP.part.metal>
0.0000

> <Gold.PLP.part.buried>
-4.8267

> <Gold.PLP.part.nonpolar>
-29.9199

> <Gold.PLP.part.repulsive>
0.0601

> <Gold.PLP.ligand.clash>
0.0000

> <Gold.PLP.ligand.torsion>
1.8134

> <Gold.PLP.Chemscore.Hbond>
3.0000

> <Gold.PLP.Chemscore.CHOScore>
1.0000

> <Gold.PLP.Chemscore.Metal>
0.0000

> <Gold.Chemscore.Hbonds>
donor molecule, donor type, donor heavy atom, donor atom, acceptor molecule, acceptor atom, score
      L1  H    23    59       P1  7948  2.00
      L1  H    28    58       P1  7948  0.99
      L1  C    12    36       P1  8028  1.00

> <Gold.PLP.Chemscore.Internal.Correction>
0.9758

> <Gold.Rescore>
     Score         DG    S(hbond)    S(metal)    S(lipo)     H(rot)  DE(clash)    DE(int)     intcor
     11.33     -14.03       1.99        0.00      88.61       3.30       0.05       2.66       ----

> <Gold.Chemscore.Fitness>
11.3258

> <Gold.Chemscore.DG>
-14.0340

> <Gold.Chemscore.ZeroCoef>
-5.4800

> <Gold.Chemscore.Hbond>
1.9858

> <Gold.Chemscore.Metal>
0.0000

> <Gold.Chemscore.Lipo>
88.6054

> <Gold.Chemscore.Internal_Hbond>
0.0000

> <Gold.Chemscore.DEClash>
0.0471

> <Gold.Chemscore.DEInternal>
2.6611

> <Gold.Chemscore.Rot>
3.2991

> <Gold.Chemscore.Internal.Correction>
   9.000000E+99

> <Gold.Chemscore.Hbonds>
donor molecule, donor type, donor heavy atom, donor atom, acceptor molecule, acceptor atom, score
      L1  H    23    59       P1  7948  1.00
      L1  H    28    58       P1  7948  0.92

> <Gold.Chemscore.Hbond.Weighted>
-6.6327

> <Gold.Chemscore.Metal.Weighted>
-0.0000

> <Gold.Chemscore.Lipo.Weighted>
-10.3668

> <Gold.Chemscore.Internal_Hbond.Weighted>
0.0000

> <Gold.Chemscore.DEClash.Weighted>
0.0471

> <Gold.Chemscore.DEInternal.Weighted>
2.6611

> <Gold.Chemscore.Rot.Weighted>
8.4456

> <Gold.Chemscore.Internal.Correction.Weighted>
   9.000000E+99

> <Gold.Protein.RotatedTorsions>
[ 6907 6896 6895 6894 ] final   55.72 input  -60.11 | X-H torsion
[ 7974 7965 7964 7962 ] final  -85.77 input  175.53 | X-H torsion
[ 8008 7997 7996 7995 ] final  154.31 input   59.86 | X-H torsion
[ 10167 10162 10161 10158 ] final -118.31 input  -65.29 | X-H torsion
[ 10718 10713 10712 10709 ] final -137.12 input   66.30 | X-H torsion
[ 10763 10752 10751 10750 ] final   15.42 input  -60.55 | X-H torsion
[ 11005 11000 10999 10996 ] final  -58.28 input  -57.11 | X-H torsion

> <Gold.Protein.ActiveResidues>
 VAL166  LYS551  ARG553  GLY616  TRP617  ASP618  TYR619  PRO620  LYS621  CYS622 
 ASP623  PHE694  ASN695  SER759  ASP760  ASP761  ALA762  ILE779  LEU786  VAL792 
 PHE793  MET794  SER795  GLU796  ALA797  LYS798  CYS799  TRP800  GLU811  SER814 

> <Gold.Protein.RotatedAtoms>
  152.3567  134.6930  160.0219 H   0  0  0  0  0  0  0  0  0  0  0  0  # atno 6907 bound_to 6896
  151.7267  133.3311  159.3337 H   0  0  0  0  0  0  0  0  0  0  0  0  # atno 6908 bound_to 6896
  150.7576  134.6334  159.6243 H   0  0  0  0  0  0  0  0  0  0  0  0  # atno 6909 bound_to 6896
  145.4888  140.9554  143.1823 H   0  0  0  0  0  0  0  0  0  0  0  0  # atno 7974 bound_to 7965
  156.2537  140.1970  156.6627 H   0  0  0  0  0  0  0  0  0  0  0  0  # atno 8008 bound_to 7997
  154.6452  140.0578  156.9918 H   0  0  0  0  0  0  0  0  0  0  0  0  # atno 8009 bound_to 7997
  155.1501  140.3250  155.4436 H   0  0  0  0  0  0  0  0  0  0  0  0  # atno 8010 bound_to 7997
  140.0589  143.4987  152.2042 H   0  0  0  0  0  0  0  0  0  0  0  0  # atno 10167 bound_to 10162
  156.2845  130.7340  151.1347 H   0  0  0  0  0  0  0  0  0  0  0  0  # atno 10718 bound_to 10713
  153.1527  135.6781  153.8858 H   0  0  0  0  0  0  0  0  0  0  0  0  # atno 10763 bound_to 10752
  153.8279  135.3121  155.3417 H   0  0  0  0  0  0  0  0  0  0  0  0  # atno 10764 bound_to 10752
  154.7874  135.4854  154.0064 H   0  0  0  0  0  0  0  0  0  0  0  0  # atno 10765 bound_to 10752
  141.1201  133.6612  156.4897 H   0  0  0  0  0  0  0  0  0  0  0  0  # atno 11005 bound_to 11000
  144.7846  139.6454  143.7140 LP  0  0  0  0  0  0  0  0  0  0  0  0  # atno 17320 bound_to 7965
  146.2296  139.5789  142.9564 LP  0  0  0  0  0  0  0  0  0  0  0  0  # atno 17321 bound_to 7965
  139.5906  144.7548  151.3410 LP  0  0  0  0  0  0  0  0  0  0  0  0  # atno 17342 bound_to 10162
  140.7181  143.7210  150.7696 LP  0  0  0  0  0  0  0  0  0  0  0  0  # atno 17343 bound_to 10162
  157.7324  131.0599  150.5627 LP  0  0  0  0  0  0  0  0  0  0  0  0  # atno 17370 bound_to 10713
  156.5737  130.4286  149.6008 LP  0  0  0  0  0  0  0  0  0  0  0  0  # atno 17371 bound_to 10713
  140.4533  134.6908  157.5050 LP  0  0  0  0  0  0  0  0  0  0  0  0  # atno 17394 bound_to 11000
  140.0151  134.6631  155.9322 LP  0  0  0  0  0  0  0  0  0  0  0  0  # atno 17395 bound_to 11000

$$$$
