AV-unprocessed.smi:2339|AV-procd|sdf|9336|dock3
  -GOLD-   2272012553D 1   1.00000     0.00000
 Structure written by MMmdl.
 49 52  0  0  0  0  0  0  0  0  1 V2000
  146.6090  131.0406  161.8069 C   0  0  0  0  0  0  0  0  0  0  0  0
  147.9932  131.6212  161.4972 C   0  0  0  0  0  0  0  0  0  0  0  0
  147.9956  133.0755  161.5635 N   0  0  0  0  0  0  0  0  0  0  0  0
  147.5268  133.7489  162.6865 C   0  0  0  0  0  0  0  0  0  0  0  0
  147.4490  135.0899  162.7842 C   0  0  0  0  0  0  0  0  0  0  0  0
  147.8754  135.9246  161.6432 C   0  0  0  0  0  0  0  0  0  0  0  0
  147.8200  137.1527  161.7007 O   0  0  0  0  0  0  0  0  0  0  0  0
  148.3682  135.2050  160.4388 C   0  0  0  0  0  0  0  0  0  0  0  0
  148.7855  136.0061  159.3636 N   0  0  0  0  0  0  0  0  0  0  0  0
  149.8568  136.8194  159.2642 C   0  0  0  0  0  0  0  0  0  0  0  0
  150.7250  136.9612  160.1225 O   0  0  0  0  0  0  0  0  0  0  0  0
  149.9122  137.5039  158.1080 N   0  0  0  0  0  0  0  0  0  0  0  0
  150.9345  138.4630  157.6853 C   0  0  2  0  0  0  0  0  0  0  0  0
  150.7635  139.8273  158.3687 C   0  0  1  0  0  0  0  0  0  0  0  0
  151.7913  140.2993  159.3605 C   0  0  0  0  0  0  0  0  0  0  0  0
  152.7359  141.1416  158.4976 C   0  0  0  0  0  0  0  0  0  0  0  0
  152.5140  140.6825  157.1658 O   0  0  0  0  0  0  0  0  0  0  0  0
  151.1158  140.4408  157.0246 C   0  0  1  0  0  0  0  0  0  0  0  0
  150.7048  139.1375  156.3023 C   0  0  0  0  0  0  0  0  0  0  0  0
  149.2881  139.1498  155.6858 C   0  0  0  0  0  0  0  0  0  0  0  0
  149.4387  139.0320  154.1710 C   0  0  0  0  0  0  0  0  0  0  0  0
  150.7124  138.2191  153.9973 C   0  0  0  0  0  0  0  0  0  0  0  0
  151.6063  138.6952  155.1403 C   0  0  0  0  0  0  0  0  0  0  0  0
  148.3989  133.8483  160.4762 C   0  0  0  0  0  0  0  0  0  0  0  0
  146.6241  129.9523  161.7488 H   0  0  0  0  0  0  0  0  0  0  0  0
  145.8629  131.4018  161.0986 H   0  0  0  0  0  0  0  0  0  0  0  0
  146.2823  131.3161  162.8100 H   0  0  0  0  0  0  0  0  0  0  0  0
  148.7274  131.2243  162.1993 H   0  0  0  0  0  0  0  0  0  0  0  0
  148.3148  131.3014  160.5054 H   0  0  0  0  0  0  0  0  0  0  0  0
  147.2268  133.1040  163.4999 H   0  0  0  0  0  0  0  0  0  0  0  0
  147.0804  135.5702  163.6788 H   0  0  0  0  0  0  0  0  0  0  0  0
  148.1834  135.9650  158.5540 H   0  0  0  0  0  0  0  0  0  0  0  0
  149.1535  137.3552  157.4586 H   0  0  0  0  0  0  0  0  0  0  0  0
  151.9552  138.0895  157.7977 H   0  0  0  0  0  0  0  0  0  0  0  0
  149.7281  140.0347  158.6452 H   0  0  0  0  0  0  0  0  0  0  0  0
  151.3558  140.8874  160.1686 H   0  0  0  0  0  0  0  0  0  0  0  0
  152.3194  139.4556  159.8062 H   0  0  0  0  0  0  0  0  0  0  0  0
  152.4695  142.1978  158.5573 H   0  0  0  0  0  0  0  0  0  0  0  0
  153.7807  141.0357  158.7896 H   0  0  0  0  0  0  0  0  0  0  0  0
  150.5433  141.3358  156.7770 H   0  0  0  0  0  0  0  0  0  0  0  0
  148.6902  138.3066  156.0271 H   0  0  0  0  0  0  0  0  0  0  0  0
  148.7260  140.0460  155.9501 H   0  0  0  0  0  0  0  0  0  0  0  0
  148.5735  138.5705  153.6940 H   0  0  0  0  0  0  0  0  0  0  0  0
  149.5737  140.0230  153.7356 H   0  0  0  0  0  0  0  0  0  0  0  0
  150.4907  137.1582  154.1210 H   0  0  0  0  0  0  0  0  0  0  0  0
  151.1712  138.3535  153.0175 H   0  0  0  0  0  0  0  0  0  0  0  0
  152.2037  139.5374  154.7893 H   0  0  0  0  0  0  0  0  0  0  0  0
  152.3126  137.9196  155.4344 H   0  0  0  0  0  0  0  0  0  0  0  0
  148.7622  133.2454  159.6595 H   0  0  0  0  0  0  0  0  0  0  0  0
  1  2  1  0  0  0  0
  1 25  1  0  0  0  0
  1 26  1  0  0  0  0
  1 27  1  0  0  0  0
  2  3  1  0  0  0  0
  2 28  1  0  0  0  0
  2 29  1  0  0  0  0
  3 24  1  0  0  0  0
  3  4  1  0  0  0  0
  4  5  2  0  0  0  0
  4 30  1  0  0  0  0
  5  6  1  0  0  0  0
  5 31  1  0  0  0  0
  6  7  2  0  0  0  0
  6  8  1  0  0  0  0
  8  9  1  0  0  0  0
  8 24  2  0  0  0  0
  9 10  1  0  0  0  0
  9 32  1  0  0  0  0
 10 11  2  0  0  0  0
 10 12  1  0  0  0  0
 12 13  1  0  0  0  0
 12 33  1  0  0  0  0
 13 19  1  0  0  0  0
 13 14  1  0  0  0  0
 13 34  1  0  0  0  0
 14 18  1  0  0  0  0
 14 15  1  0  0  0  0
 14 35  1  0  0  0  0
 15 16  1  0  0  0  0
 15 36  1  0  0  0  0
 15 37  1  0  0  0  0
 16 17  1  0  0  0  0
 16 38  1  0  0  0  0
 16 39  1  0  0  0  0
 17 18  1  0  0  0  0
 18 19  1  0  0  0  0
 18 40  1  0  0  0  0
 19 23  1  0  0  0  0
 19 20  1  0  0  0  0
 20 21  1  0  0  0  0
 20 41  1  0  0  0  0
 20 42  1  0  0  0  0
 21 22  1  0  0  0  0
 21 43  1  0  0  0  0
 21 44  1  0  0  0  0
 22 23  1  0  0  0  0
 22 45  1  0  0  0  0
 22 46  1  0  0  0  0
 23 47  1  0  0  0  0
 23 48  1  0  0  0  0
 24 49  1  0  0  0  0
M  END
> <s_m_source_file>
AV-unprocessed.smi

> <i_m_source_file_index>
2339

> <i_lp_mmshare_version>
43012

> <i_f3d_flags>
0

> <s_epik_input>
W0NIM11bQ0gyXW4xW2NIXVtjSF1jKD1PKWMoW2NIXTEpW05IXUMoPU8pW05IXVtDQEBIXTJbQ0BASF0oW0NIMl1bQ0gyXU8zKVtDQEBIXTNDMjRbQ0gyXVtDSDJdW0NIMl1bQ0gyXTQ=

> <s_epik_cmdline>
J2VwaWtfcHl0aG9uJywgJy1waCcsICc3LjAnLCAnLXRuJywgJzgnLCAnLW1hJywgJzIwMCcsICctbWV0YWxfYmluZGluZycsICctaW1hZScsICc8aW5maWxlLm1hZT4nLCAnLW9tYWUnLCAnPG91dGZpbGUubWFlPic=

> <r_lp_tautomer_probability>
1

> <r_epik_Ionization_Penalty>
0.00145966

> <r_epik_Ionization_Penalty_Charging>
0.00143969

> <r_epik_Ionization_Penalty_Neutral>
1.99697e-05

> <r_epik_State_Penalty>
0.000961843

> <r_epik_Charging_Adjusted_Penalty>
0.00240153

> <i_epik_Tot_Q>
0

> <i_epik_Tot_abs_Q>
0

> <r_epik_Metal_State_Penalty>
-0

> <b_epik_Metal_Only>
0

> <s_lp_Force_Field>
OPLS_2005

> <r_lp_Energy>
57.0786

> <b_lp_Chiralities_Consistent>
1

> <s_lp_Variant>
AV-unprocessed.smi:2339-1

> <Gold.Version>
5.8.1

> <Gold.Id.Protein>
6NUR|6NUR_protein|mol2

> <Gold.PLP.Fitness>
46.5487

> <Gold.PLP.PLP>
-37.1967

> <Gold.PLP.part.hbond>
-4.8596

> <Gold.PLP.part.metal>
0.0000

> <Gold.PLP.part.buried>
-0.1715

> <Gold.PLP.part.nonpolar>
-33.0519

> <Gold.PLP.part.repulsive>
0.2389

> <Gold.PLP.ligand.clash>
0.0000

> <Gold.PLP.ligand.torsion>
0.8021

> <Gold.PLP.Chemscore.Hbond>
3.5920

> <Gold.PLP.Chemscore.CHOScore>
0.0000

> <Gold.PLP.Chemscore.Metal>
0.0000

> <Gold.Chemscore.Hbonds>
donor molecule, donor type, donor heavy atom, donor atom, acceptor molecule, acceptor atom, score
      P1  H  6896  6909       L1    11  0.70
      P1  H  6931  6943       L1     7  1.00
      P1  H  6934  6947       L1     7  0.54
      P1  H  7997  8008       L1    17  0.68

> <Gold.PLP.Chemscore.Internal.Correction>
0.1803

> <Gold.Rescore>
     Score         DG    S(hbond)    S(metal)    S(lipo)     H(rot)  DE(clash)    DE(int)     intcor
     22.40     -24.21       3.30        0.00      91.52       1.17       1.07       0.74       ----

> <Gold.Chemscore.Fitness>
22.3989

> <Gold.Chemscore.DG>
-24.2063

> <Gold.Chemscore.ZeroCoef>
-5.4800

> <Gold.Chemscore.Hbond>
3.2952

> <Gold.Chemscore.Metal>
0.0000

> <Gold.Chemscore.Lipo>
91.5192

> <Gold.Chemscore.Internal_Hbond>
0.0000

> <Gold.Chemscore.DEClash>
1.0670

> <Gold.Chemscore.DEInternal>
0.7404

> <Gold.Chemscore.Rot>
1.1670

> <Gold.Chemscore.Internal.Correction>
   9.000000E+99

> <Gold.Chemscore.Hbonds>
donor molecule, donor type, donor heavy atom, donor atom, acceptor molecule, acceptor atom, score
      P1  H  6896  6909       L1    11  0.07
      P1  H  6931  6943       L1     7  0.98
      P1  H  6934  6947       L1     7  0.53
      P1  H  7997  8008       L1    17  0.13

> <Gold.Chemscore.Hbond.Weighted>
-11.0060

> <Gold.Chemscore.Metal.Weighted>
-0.0000

> <Gold.Chemscore.Lipo.Weighted>
-10.7077

> <Gold.Chemscore.Internal_Hbond.Weighted>
0.0000

> <Gold.Chemscore.DEClash.Weighted>
1.0670

> <Gold.Chemscore.DEInternal.Weighted>
0.7404

> <Gold.Chemscore.Rot.Weighted>
2.9874

> <Gold.Chemscore.Internal.Correction.Weighted>
   9.000000E+99

> <Gold.Protein.RotatedTorsions>
[ 6907 6896 6895 6894 ] final  107.77 input  -60.11 | X-H torsion
[ 7974 7965 7964 7962 ] final  144.52 input  175.53 | X-H torsion
[ 8008 7997 7996 7995 ] final  -65.97 input   59.86 | X-H torsion
[ 10167 10162 10161 10158 ] final  106.69 input  -65.29 | X-H torsion
[ 10718 10713 10712 10709 ] final  131.48 input   66.30 | X-H torsion
[ 10763 10752 10751 10750 ] final  102.32 input  -60.55 | X-H torsion
[ 11005 11000 10999 10996 ] final -125.48 input  -57.11 | X-H torsion

> <Gold.Protein.ActiveResidues>
 VAL166  LYS551  ARG553  GLY616  TRP617  ASP618  TYR619  PRO620  LYS621  CYS622 
 ASP623  PHE694  ASN695  SER759  ASP760  ASP761  ALA762  ILE779  LEU786  VAL792 
 PHE793  MET794  SER795  GLU796  ALA797  LYS798  CYS799  TRP800  GLU811  SER814 

> <Gold.Protein.RotatedAtoms>
  152.5140  133.9185  159.7522 H   0  0  0  0  0  0  0  0  0  0  0  0  # atno 6907 bound_to 6896
  150.9562  133.6486  159.2769 H   0  0  0  0  0  0  0  0  0  0  0  0  # atno 6908 bound_to 6896
  151.3747  135.0934  159.9529 H   0  0  0  0  0  0  0  0  0  0  0  0  # atno 6909 bound_to 6896
  144.8829  139.5672  143.5834 H   0  0  0  0  0  0  0  0  0  0  0  0  # atno 7974 bound_to 7965
  154.4705  140.0922  156.7131 H   0  0  0  0  0  0  0  0  0  0  0  0  # atno 8008 bound_to 7997
  155.4738  140.3465  155.4311 H   0  0  0  0  0  0  0  0  0  0  0  0  # atno 8009 bound_to 7997
  156.1030  140.1427  156.9430 H   0  0  0  0  0  0  0  0  0  0  0  0  # atno 8010 bound_to 7997
  139.6988  144.7097  151.1220 H   0  0  0  0  0  0  0  0  0  0  0  0  # atno 10167 bound_to 10162
  157.4963  131.1092  150.9488 H   0  0  0  0  0  0  0  0  0  0  0  0  # atno 10718 bound_to 10713
  153.3381  135.4014  155.1549 H   0  0  0  0  0  0  0  0  0  0  0  0  # atno 10763 bound_to 10752
  154.8637  135.3627  154.5382 H   0  0  0  0  0  0  0  0  0  0  0  0  # atno 10764 bound_to 10752
  153.5825  135.7076  153.5517 H   0  0  0  0  0  0  0  0  0  0  0  0  # atno 10765 bound_to 10752
  140.9759  134.0741  157.3819 H   0  0  0  0  0  0  0  0  0  0  0  0  # atno 11005 bound_to 11000
  146.3006  139.7415  142.9094 LP  0  0  0  0  0  0  0  0  0  0  0  0  # atno 17320 bound_to 7965
  145.3921  141.0374  143.3118 LP  0  0  0  0  0  0  0  0  0  0  0  0  # atno 17321 bound_to 7965
  140.7704  143.5453  150.9266 LP  0  0  0  0  0  0  0  0  0  0  0  0  # atno 17342 bound_to 10162
  139.9134  143.6693  152.3111 LP  0  0  0  0  0  0  0  0  0  0  0  0  # atno 17343 bound_to 10162
  157.0174  130.5660  149.5327 LP  0  0  0  0  0  0  0  0  0  0  0  0  # atno 17370 bound_to 10713
  156.0202  130.5297  150.8254 LP  0  0  0  0  0  0  0  0  0  0  0  0  # atno 17371 bound_to 10713
  139.8930  135.0128  156.6877 LP  0  0  0  0  0  0  0  0  0  0  0  0  # atno 17394 bound_to 11000
  140.7260  133.9100  155.8179 LP  0  0  0  0  0  0  0  0  0  0  0  0  # atno 17395 bound_to 11000

$$$$
