AV-unprocessed.smi:2673|AV-procd|sdf|10355|dock4
  -GOLD-   2272014383D 1   1.00000     0.00000
 Structure written by MMmdl.
 31 32  0  0  0  0  0  0  0  0  2 V2000
  148.2445  136.9030  157.9018 O   0  0  0  0  0  0  0  0  0  0  0  0
  149.2049  137.0273  158.6642 C   0  0  0  0  0  0  0  0  0  0  0  0
  149.4093  136.3263  159.8028 N   0  5  0  0  0  0  0  0  0  0  0  0
  148.3844  136.0855  160.6371 C   0  0  0  0  0  0  0  0  0  0  0  0
  147.6421  137.0705  161.1681 N   0  0  0  0  0  0  0  0  0  0  0  0
  146.6364  136.6058  162.0048 N   0  0  0  0  0  0  0  0  0  0  0  0
  146.6522  135.2760  162.0912 C   0  0  0  0  0  0  0  0  0  0  0  0
  147.8971  134.4708  161.1598 S   0  0  0  0  0  0  0  0  0  0  0  0
  150.1807  137.9159  158.4070 N   0  0  0  0  0  0  0  0  0  0  0  0
  150.3586  138.8601  157.2883 C   0  0  0  0  0  0  0  0  0  0  0  0
  151.7580  139.5055  157.5258 C   0  0  0  0  0  0  0  0  0  0  0  0
  152.0897  140.3886  156.5863 F   0  0  0  0  0  0  0  0  0  0  0  0
  151.7827  140.1363  158.7015 F   0  0  0  0  0  0  0  0  0  0  0  0
  152.7033  138.5638  157.5487 F   0  0  0  0  0  0  0  0  0  0  0  0
  150.3226  138.0830  155.9349 C   0  0  0  0  0  0  0  0  0  0  0  0
  150.2206  138.9819  154.6900 C   0  0  0  0  0  0  0  0  0  0  0  0
  149.0396  139.9550  154.7964 C   0  0  0  0  0  0  0  0  0  0  0  0
  149.1421  140.8117  156.0645 C   0  0  0  0  0  0  0  0  0  0  0  0
  149.2307  139.9380  157.3285 C   0  0  0  0  0  0  0  0  0  0  0  0
  145.9281  134.7659  162.7085 H   0  0  0  0  0  0  0  0  0  0  0  0
  150.9204  137.9416  159.0936 H   0  0  0  0  0  0  0  0  0  0  0  0
  151.1932  137.4327  155.8475 H   0  0  0  0  0  0  0  0  0  0  0  0
  149.4630  137.4158  155.9011 H   0  0  0  0  0  0  0  0  0  0  0  0
  151.1466  139.5351  154.5393 H   0  0  0  0  0  0  0  0  0  0  0  0
  150.1004  138.3595  153.8029 H   0  0  0  0  0  0  0  0  0  0  0  0
  149.0054  140.5965  153.9154 H   0  0  0  0  0  0  0  0  0  0  0  0
  148.1039  139.3945  154.8084 H   0  0  0  0  0  0  0  0  0  0  0  0
  150.0021  141.4765  155.9960 H   0  0  0  0  0  0  0  0  0  0  0  0
  148.2703  141.4629  156.1354 H   0  0  0  0  0  0  0  0  0  0  0  0
  148.2569  139.4649  157.4440 H   0  0  0  0  0  0  0  0  0  0  0  0
  149.3455  140.5742  158.2062 H   0  0  0  0  0  0  0  0  0  0  0  0
  1  2  2  0  0  0  0
  2  3  1  0  0  0  0
  2  9  1  0  0  0  0
  3  4  1  0  0  0  0
  4  8  1  0  0  0  0
  4  5  2  0  0  0  0
  5  6  1  0  0  0  0
  6  7  2  0  0  0  0
  7  8  1  0  0  0  0
  7 20  1  0  0  0  0
  9 10  1  0  0  0  0
  9 21  1  0  0  0  0
 10 19  1  0  0  0  0
 10 11  1  0  0  0  0
 10 15  1  0  0  0  0
 11 12  1  0  0  0  0
 11 13  1  0  0  0  0
 11 14  1  0  0  0  0
 15 16  1  0  0  0  0
 15 22  1  0  0  0  0
 15 23  1  0  0  0  0
 16 17  1  0  0  0  0
 16 24  1  0  0  0  0
 16 25  1  0  0  0  0
 17 18  1  0  0  0  0
 17 26  1  0  0  0  0
 17 27  1  0  0  0  0
 18 19  1  0  0  0  0
 18 28  1  0  0  0  0
 18 29  1  0  0  0  0
 19 30  1  0  0  0  0
 19 31  1  0  0  0  0
M  CHG  1   3  -1
M  END
> <s_m_source_file>
AV-unprocessed.smi

> <i_m_source_file_index>
2673

> <i_lp_mmshare_version>
43012

> <i_f3d_flags>
0

> <s_epik_input>
czFbY0hdbm5jMVtOSF1DKD1PKVtOSF1DMihDKEYpKEYpRilbQ0gyXVtDSDJdW0NIMl1bQ0gyXVtDSDJdMg==

> <s_epik_cmdline>
J2VwaWtfcHl0aG9uJywgJy1waCcsICc3LjAnLCAnLXRuJywgJzgnLCAnLW1hJywgJzIwMCcsICctbWV0YWxfYmluZGluZycsICctaW1hZScsICc8aW5maWxlLm1hZT4nLCAnLW9tYWUnLCAnPG91dGZpbGUubWFlPic=

> <r_epik_Ionization_Penalty>
0.0924979

> <r_epik_Ionization_Penalty_Charging>
0.057676

> <r_epik_Ionization_Penalty_Neutral>
0.0348219

> <r_epik_State_Penalty>
0.0765232

> <r_epik_Charging_Adjusted_Penalty>
0.134199

> <i_epik_Tot_Q>
-1

> <i_epik_Tot_abs_Q>
1

> <r_epik_Metal_State_Penalty>
0.0698334

> <b_epik_Metal_Only>
0

> <s_lp_Force_Field>
OPLS_2005

> <r_lp_Energy>
15.8773

> <b_lp_Chiralities_Consistent>
1

> <s_lp_Variant>
AV-unprocessed.smi:2673-1

> <Gold.Version>
5.8.1

> <Gold.Id.Protein>
6NUR|6NUR_protein|mol2

> <Gold.PLP.Fitness>
33.8651

> <Gold.PLP.PLP>
-24.0812

> <Gold.PLP.part.hbond>
-3.0000

> <Gold.PLP.part.metal>
0.0000

> <Gold.PLP.part.buried>
-3.8963

> <Gold.PLP.part.nonpolar>
-17.3602

> <Gold.PLP.part.repulsive>
0.1296

> <Gold.PLP.ligand.clash>
0.0000

> <Gold.PLP.ligand.torsion>
0.8996

> <Gold.PLP.Chemscore.Hbond>
3.8560

> <Gold.PLP.Chemscore.CHOScore>
0.0000

> <Gold.PLP.Chemscore.Metal>
0.0000

> <Gold.Chemscore.Hbonds>
donor molecule, donor type, donor heavy atom, donor atom, acceptor molecule, acceptor atom, score
      P1  H  6896  6907       L1     3  1.95
      P1  H  6931  6943       L1     5  0.98
      P1  H  6934  6947       L1     5  0.90

> <Gold.PLP.Chemscore.Internal.Correction>
0.0152

> <Gold.Rescore>
     Score         DG    S(hbond)    S(metal)    S(lipo)     H(rot)  DE(clash)    DE(int)     intcor
     11.80     -14.69       1.94        0.00      45.13       1.00       0.07       2.82       ----

> <Gold.Chemscore.Fitness>
11.8050

> <Gold.Chemscore.DG>
-14.6946

> <Gold.Chemscore.ZeroCoef>
-5.4800

> <Gold.Chemscore.Hbond>
1.9445

> <Gold.Chemscore.Metal>
0.0000

> <Gold.Chemscore.Lipo>
45.1284

> <Gold.Chemscore.Internal_Hbond>
0.0000

> <Gold.Chemscore.DEClash>
0.0731

> <Gold.Chemscore.DEInternal>
2.8165

> <Gold.Chemscore.Rot>
1.0000

> <Gold.Chemscore.Internal.Correction>
   9.000000E+99

> <Gold.Chemscore.Hbonds>
donor molecule, donor type, donor heavy atom, donor atom, acceptor molecule, acceptor atom, score
      P1  H  6896  6907       L1     3  0.77
      P1  H  6931  6943       L1     5  0.31
      P1  H  6934  6947       L1     5  0.33

> <Gold.Chemscore.Hbond.Weighted>
-6.4946

> <Gold.Chemscore.Metal.Weighted>
-0.0000

> <Gold.Chemscore.Lipo.Weighted>
-5.2800

> <Gold.Chemscore.Internal_Hbond.Weighted>
0.0000

> <Gold.Chemscore.DEClash.Weighted>
0.0731

> <Gold.Chemscore.DEInternal.Weighted>
2.8165

> <Gold.Chemscore.Rot.Weighted>
2.5600

> <Gold.Chemscore.Internal.Correction.Weighted>
   9.000000E+99

> <Gold.Protein.RotatedTorsions>
[ 6907 6896 6895 6894 ] final  -50.71 input  -60.11 | X-H torsion
[ 7974 7965 7964 7962 ] final   34.35 input  175.53 | X-H torsion
[ 8008 7997 7996 7995 ] final  -85.60 input   59.86 | X-H torsion
[ 10167 10162 10161 10158 ] final  169.63 input  -65.29 | X-H torsion
[ 10718 10713 10712 10709 ] final  -55.11 input   66.30 | X-H torsion
[ 10763 10752 10751 10750 ] final   35.64 input  -60.55 | X-H torsion
[ 11005 11000 10999 10996 ] final  -42.79 input  -57.11 | X-H torsion

> <Gold.Protein.ActiveResidues>
 VAL166  LYS551  ARG553  GLY616  TRP617  ASP618  TYR619  PRO620  LYS621  CYS622 
 ASP623  PHE694  ASN695  SER759  ASP760  ASP761  ALA762  ILE779  LEU786  VAL792 
 PHE793  MET794  SER795  GLU796  ALA797  LYS798  CYS799  TRP800  GLU811  SER814 

> <Gold.Protein.RotatedAtoms>
  150.8681  134.8049  159.7133 H   0  0  0  0  0  0  0  0  0  0  0  0  # atno 6907 bound_to 6896
  152.4695  134.4991  159.9729 H   0  0  0  0  0  0  0  0  0  0  0  0  # atno 6908 bound_to 6896
  151.5084  133.3451  159.2916 H   0  0  0  0  0  0  0  0  0  0  0  0  # atno 6909 bound_to 6896
  146.1358  139.6280  142.9196 H   0  0  0  0  0  0  0  0  0  0  0  0  # atno 7974 bound_to 7965
  154.6425  140.0589  156.9862 H   0  0  0  0  0  0  0  0  0  0  0  0  # atno 8008 bound_to 7997
  155.1495  140.3273  155.4416 H   0  0  0  0  0  0  0  0  0  0  0  0  # atno 8009 bound_to 7997
  156.2538  140.1950  156.6607 H   0  0  0  0  0  0  0  0  0  0  0  0  # atno 8010 bound_to 7997
  139.4997  144.3685  151.9750 H   0  0  0  0  0  0  0  0  0  0  0  0  # atno 10167 bound_to 10162
  156.1396  130.4155  150.0127 H   0  0  0  0  0  0  0  0  0  0  0  0  # atno 10718 bound_to 10713
  153.0110  135.6327  154.1859 H   0  0  0  0  0  0  0  0  0  0  0  0  # atno 10763 bound_to 10752
  154.1601  135.2824  155.3113 H   0  0  0  0  0  0  0  0  0  0  0  0  # atno 10764 bound_to 10752
  154.5988  135.5594  153.7413 H   0  0  0  0  0  0  0  0  0  0  0  0  # atno 10765 bound_to 10752
  141.0340  133.6808  156.2643 H   0  0  0  0  0  0  0  0  0  0  0  0  # atno 11005 bound_to 11000
  145.5158  141.0434  143.2463 LP  0  0  0  0  0  0  0  0  0  0  0  0  # atno 17320 bound_to 7965
  144.7739  139.6674  143.7183 LP  0  0  0  0  0  0  0  0  0  0  0  0  # atno 17321 bound_to 7965
  140.3121  144.3526  150.6031 LP  0  0  0  0  0  0  0  0  0  0  0  0  # atno 17342 bound_to 10162
  140.5790  143.2174  151.7462 LP  0  0  0  0  0  0  0  0  0  0  0  0  # atno 17343 bound_to 10162
  156.8016  130.9292  151.3646 LP  0  0  0  0  0  0  0  0  0  0  0  0  # atno 17370 bound_to 10713
  157.6563  130.8927  149.9736 LP  0  0  0  0  0  0  0  0  0  0  0  0  # atno 17371 bound_to 10713
  140.6356  134.5219  157.5564 LP  0  0  0  0  0  0  0  0  0  0  0  0  # atno 17394 bound_to 11000
  139.9227  134.8116  156.1161 LP  0  0  0  0  0  0  0  0  0  0  0  0  # atno 17395 bound_to 11000

$$$$
