AV-unprocessed.smi:1772|AV-procd|sdf|7160|dock2
  -GOLD-   22720 8393D 1   1.00000     0.00000
 Structure written by MMmdl.
 33 34  0  0  0  0  0  0  0  0  1 V2000
  144.3842  136.6302  151.8855 O   0  0  0  0  0  0  0  0  0  0  0  0
  145.5943  136.4096  151.8486 C   0  0  0  0  0  0  0  0  0  0  0  0
  146.5157  137.2926  152.2593 N   0  0  0  0  0  0  0  0  0  0  0  0
  146.2251  138.6230  152.7835 C   0  0  0  0  0  0  0  0  0  0  0  0
  147.5073  139.3939  153.1529 C   0  0  1  0  0  0  0  0  0  0  0  0
  147.2068  140.7917  153.7278 C   0  0  0  0  0  0  0  0  0  0  0  0
  148.5012  141.3611  154.3145 C   0  0  0  0  0  0  0  0  0  0  0  0
  149.3757  139.9261  155.0394 S   0  0  0  0  0  0  0  0  0  0  0  0
  150.7651  139.9132  154.5578 O   0  0  0  0  0  0  0  0  0  0  0  0
  149.0713  139.8453  156.4760 O   0  0  0  0  0  0  0  0  0  0  0  0
  148.4025  138.6461  154.1580 C   0  0  0  0  0  0  0  0  0  0  0  0
  146.1719  135.2762  151.4131 N   0  0  0  0  0  0  0  0  0  0  0  0
  145.5633  134.0940  150.9087 C   0  0  0  0  0  0  0  0  0  0  0  0
  146.4108  133.0153  150.5816 C   0  0  0  0  0  0  0  0  0  0  0  0
  145.8408  131.8331  150.0686 C   0  0  0  0  0  0  0  0  0  0  0  0
  144.5162  131.6765  149.8643 N   0  0  0  0  0  0  0  0  0  0  0  0
  143.7068  132.7134  150.1665 C   0  0  0  0  0  0  0  0  0  0  0  0
  144.1736  133.9388  150.6837 C   0  0  0  0  0  0  0  0  0  0  0  0
  147.4885  137.0289  152.2013 H   0  0  0  0  0  0  0  0  0  0  0  0
  145.6382  139.1881  152.0574 H   0  0  0  0  0  0  0  0  0  0  0  0
  145.5927  138.5065  153.6640 H   0  0  0  0  0  0  0  0  0  0  0  0
  148.0948  139.5472  152.2462 H   0  0  0  0  0  0  0  0  0  0  0  0
  146.7846  141.4570  152.9741 H   0  0  0  0  0  0  0  0  0  0  0  0
  146.4676  140.7029  154.5251 H   0  0  0  0  0  0  0  0  0  0  0  0
  149.1305  141.7775  153.5275 H   0  0  0  0  0  0  0  0  0  0  0  0
  148.3327  142.1266  155.0719 H   0  0  0  0  0  0  0  0  0  0  0  0
  147.8069  138.1137  154.9000 H   0  0  0  0  0  0  0  0  0  0  0  0
  149.0726  137.9339  153.6760 H   0  0  0  0  0  0  0  0  0  0  0  0
  147.1766  135.2352  151.4995 H   0  0  0  0  0  0  0  0  0  0  0  0
  147.4795  133.0848  150.7234 H   0  0  0  0  0  0  0  0  0  0  0  0
  146.4672  130.9910  149.8146 H   0  0  0  0  0  0  0  0  0  0  0  0
  142.6527  132.5643  149.9852 H   0  0  0  0  0  0  0  0  0  0  0  0
  143.4620  134.7245  150.8827 H   0  0  0  0  0  0  0  0  0  0  0  0
  1  2  2  0  0  0  0
  2  3  1  0  0  0  0
  2 12  1  0  0  0  0
  3  4  1  0  0  0  0
  3 19  1  0  0  0  0
  4  5  1  0  0  0  0
  4 20  1  0  0  0  0
  4 21  1  0  0  0  0
  5 11  1  0  0  0  0
  5  6  1  0  0  0  0
  5 22  1  0  0  0  0
  6  7  1  0  0  0  0
  6 23  1  0  0  0  0
  6 24  1  0  0  0  0
  7  8  1  0  0  0  0
  7 25  1  0  0  0  0
  7 26  1  0  0  0  0
  8  9  2  0  0  0  0
  8 10  2  0  0  0  0
  8 11  1  0  0  0  0
 11 27  1  0  0  0  0
 11 28  1  0  0  0  0
 12 13  1  0  0  0  0
 12 29  1  0  0  0  0
 13 18  1  0  0  0  0
 13 14  2  0  0  0  0
 14 15  1  0  0  0  0
 14 30  1  0  0  0  0
 15 16  2  0  0  0  0
 15 31  1  0  0  0  0
 16 17  1  0  0  0  0
 17 18  2  0  0  0  0
 17 32  1  0  0  0  0
 18 33  1  0  0  0  0
M  END
> <s_m_source_file>
AV-unprocessed.smi

> <i_m_source_file_index>
1772

> <i_lp_mmshare_version>
43012

> <i_f3d_flags>
0

> <s_epik_input>
W2NIXTFbY0hdbltjSF1bY0hdYzFbTkhdQyg9TylbTkhdW0NIMl1bQ0BASF0oW0NIMl0yKVtDSDJdW0NIMl1TMig9Tyk9Tw==

> <s_epik_cmdline>
J2VwaWtfcHl0aG9uJywgJy1waCcsICc3LjAnLCAnLXRuJywgJzgnLCAnLW1hJywgJzIwMCcsICctbWV0YWxfYmluZGluZycsICctaW1hZScsICc8aW5maWxlLm1hZT4nLCAnLW9tYWUnLCAnPG91dGZpbGUubWFlPic=

> <r_epik_Ionization_Penalty>
0.110577

> <r_epik_Ionization_Penalty_Charging>
0

> <r_epik_Ionization_Penalty_Neutral>
0.110577

> <r_epik_State_Penalty>
0.100289

> <r_epik_Charging_Adjusted_Penalty>
0.100289

> <i_epik_Tot_Q>
0

> <i_epik_Tot_abs_Q>
0

> <r_epik_Metal_State_Penalty>
0.0843891

> <b_epik_Metal_Only>
0

> <s_lp_Force_Field>
OPLS_2005

> <r_lp_Energy>
7.83536

> <b_lp_Chiralities_Consistent>
1

> <s_lp_Variant>
AV-unprocessed.smi:1772-2

> <Gold.Version>
5.8.1

> <Gold.Id.Protein>
6NUR|6NUR_protein|mol2

> <Gold.PLP.Fitness>
47.0503

> <Gold.PLP.PLP>
-32.0207

> <Gold.PLP.part.hbond>
-4.0000

> <Gold.PLP.part.metal>
0.0000

> <Gold.PLP.part.buried>
-3.0701

> <Gold.PLP.part.nonpolar>
-27.9056

> <Gold.PLP.part.repulsive>
1.9547

> <Gold.PLP.ligand.clash>
0.0000

> <Gold.PLP.ligand.torsion>
0.0077

> <Gold.PLP.Chemscore.Hbond>
3.1501

> <Gold.PLP.Chemscore.CHOScore>
1.8637

> <Gold.PLP.Chemscore.Metal>
0.0000

> <Gold.Chemscore.Hbonds>
donor molecule, donor type, donor heavy atom, donor atom, acceptor molecule, acceptor atom, score
      L1  H     3    19       P1  7948  1.00
      L1  H    12    29       P1  7948  0.99
      P1  H  7989  7998       L1     9  1.00
      P1  H 10785 10796       L1    16  0.17
      L1  C    15    31       P1 10747  0.90
      L1  C    17    32       P1 10186  0.90
      L1  C    17    32       P1 10952  0.08

> <Gold.PLP.Chemscore.Internal.Correction>
0.0037

> <Gold.Rescore>
     Score         DG    S(hbond)    S(metal)    S(lipo)     H(rot)  DE(clash)    DE(int)     intcor
     19.18     -20.43       2.96        0.00      71.66       1.30       0.07       1.18       ----

> <Gold.Chemscore.Fitness>
19.1789

> <Gold.Chemscore.DG>
-20.4279

> <Gold.Chemscore.ZeroCoef>
-5.4800

> <Gold.Chemscore.Hbond>
2.9608

> <Gold.Chemscore.Metal>
0.0000

> <Gold.Chemscore.Lipo>
71.6647

> <Gold.Chemscore.Internal_Hbond>
0.0000

> <Gold.Chemscore.DEClash>
0.0671

> <Gold.Chemscore.DEInternal>
1.1819

> <Gold.Chemscore.Rot>
1.2992

> <Gold.Chemscore.Internal.Correction>
   9.000000E+99

> <Gold.Chemscore.Hbonds>
donor molecule, donor type, donor heavy atom, donor atom, acceptor molecule, acceptor atom, score
      L1  H     3    19       P1  7948  1.00
      L1  H    12    29       P1  7948  0.80
      P1  H  7989  7998       L1     9  1.00
      P1  H 10785 10796       L1    16  0.10

> <Gold.Chemscore.Hbond.Weighted>
-9.8890

> <Gold.Chemscore.Metal.Weighted>
-0.0000

> <Gold.Chemscore.Lipo.Weighted>
-8.3848

> <Gold.Chemscore.Internal_Hbond.Weighted>
0.0000

> <Gold.Chemscore.DEClash.Weighted>
0.0671

> <Gold.Chemscore.DEInternal.Weighted>
1.1819

> <Gold.Chemscore.Rot.Weighted>
3.3259

> <Gold.Chemscore.Internal.Correction.Weighted>
   9.000000E+99

> <Gold.Protein.RotatedTorsions>
[ 6907 6896 6895 6894 ] final  -65.21 input  -60.11 | X-H torsion
[ 7974 7965 7964 7962 ] final  118.50 input  175.53 | X-H torsion
[ 8008 7997 7996 7995 ] final  -52.25 input   59.86 | X-H torsion
[ 10167 10162 10161 10158 ] final  -60.18 input  -65.29 | X-H torsion
[ 10718 10713 10712 10709 ] final  -91.82 input   66.30 | X-H torsion
[ 10763 10752 10751 10750 ] final  169.20 input  -60.55 | X-H torsion
[ 11005 11000 10999 10996 ] final  132.53 input  -57.11 | X-H torsion

> <Gold.Protein.ActiveResidues>
 VAL166  LYS551  ARG553  GLY616  TRP617  ASP618  TYR619  PRO620  LYS621  CYS622 
 ASP623  PHE694  ASN695  SER759  ASP760  ASP761  ALA762  ILE779  LEU786  VAL792 
 PHE793  MET794  SER795  GLU796  ALA797  LYS798  CYS799  TRP800  GLU811  SER814 

> <Gold.Protein.RotatedAtoms>
  150.7538  134.6192  159.6126 H   0  0  0  0  0  0  0  0  0  0  0  0  # atno 6907 bound_to 6896
  152.3503  134.7011  160.0247 H   0  0  0  0  0  0  0  0  0  0  0  0  # atno 6908 bound_to 6896
  151.7435  133.3287  159.3408 H   0  0  0  0  0  0  0  0  0  0  0  0  # atno 6909 bound_to 6896
  145.1545  139.3191  143.4549 H   0  0  0  0  0  0  0  0  0  0  0  0  # atno 7974 bound_to 7965
  154.4102  140.1228  156.4961 H   0  0  0  0  0  0  0  0  0  0  0  0  # atno 8008 bound_to 7997
  155.6942  140.3495  155.4886 H   0  0  0  0  0  0  0  0  0  0  0  0  # atno 8009 bound_to 7997
  155.9442  140.1093  157.1020 H   0  0  0  0  0  0  0  0  0  0  0  0  # atno 8010 bound_to 7997
  140.6088  143.2381  151.5759 H   0  0  0  0  0  0  0  0  0  0  0  0  # atno 10167 bound_to 10162
  155.9997  130.4963  150.5532 H   0  0  0  0  0  0  0  0  0  0  0  0  # atno 10718 bound_to 10713
  154.3797  135.2753  155.2218 H   0  0  0  0  0  0  0  0  0  0  0  0  # atno 10763 bound_to 10752
  154.4330  135.5972  153.6084 H   0  0  0  0  0  0  0  0  0  0  0  0  # atno 10764 bound_to 10752
  152.9835  135.6000  154.4038 H   0  0  0  0  0  0  0  0  0  0  0  0  # atno 10765 bound_to 10752
  139.9795  134.9552  156.9595 H   0  0  0  0  0  0  0  0  0  0  0  0  # atno 11005 bound_to 11000
  146.3490  140.1632  142.8590 LP  0  0  0  0  0  0  0  0  0  0  0  0  # atno 17320 bound_to 7965
  145.0396  140.8935  143.5060 LP  0  0  0  0  0  0  0  0  0  0  0  0  # atno 17321 bound_to 7965
  139.5345  144.2820  152.1221 LP  0  0  0  0  0  0  0  0  0  0  0  0  # atno 17342 bound_to 10162
  140.2015  144.4653  150.6429 LP  0  0  0  0  0  0  0  0  0  0  0  0  # atno 17343 bound_to 10162
  157.3452  131.0724  151.1757 LP  0  0  0  0  0  0  0  0  0  0  0  0  # atno 17370 bound_to 10713
  157.2592  130.6651  149.5966 LP  0  0  0  0  0  0  0  0  0  0  0  0  # atno 17371 bound_to 10713
  140.5125  134.0988  155.7273 LP  0  0  0  0  0  0  0  0  0  0  0  0  # atno 17394 bound_to 11000
  141.1469  133.9039  157.2193 LP  0  0  0  0  0  0  0  0  0  0  0  0  # atno 17395 bound_to 11000

$$$$
