AV-unprocessed.smi:216|AV-procd|sdf|1659|dock10
  -GOLD-   2262020 53D 1   1.00000     0.00000
 Structure written by MMmdl.
 65 69  0  0  0  0  0  0  0  0  1 V2000
  148.1702  131.1591  161.6413 C   0  0  0  0  0  0  0  0  0  0  0  0
  148.6145  132.2775  160.6738 C   0  0  1  0  0  0  0  0  0  0  0  0
  148.6434  131.7276  159.2334 C   0  0  0  0  0  0  0  0  0  0  0  0
  149.1861  132.7645  158.2466 C   0  0  0  0  0  0  0  0  0  0  0  0
  148.4377  134.0135  158.3514 N   0  0  0  0  0  0  0  0  0  0  0  0
  148.6035  134.9179  157.3517 C   0  0  0  0  0  0  0  0  0  0  0  0
  148.9966  134.5021  156.1173 N   0  0  0  0  0  0  0  0  0  0  0  0
  149.1672  135.3839  155.1283 C   0  0  0  0  0  0  0  0  0  0  0  0
  148.9974  136.7066  155.1522 N   0  0  0  0  0  0  0  0  0  0  0  0
  148.5959  137.1316  156.3842 C   0  0  0  0  0  0  0  0  0  0  0  0
  148.3829  136.3131  157.5298 C   0  0  0  0  0  0  0  0  0  0  0  0
  147.9801  137.1003  158.6010 N   0  0  0  0  0  0  0  0  0  0  0  0
  147.9679  138.3135  158.1215 C   0  0  0  0  0  0  0  0  0  0  0  0
  148.3033  138.4223  156.7907 N   0  0  0  0  0  0  0  0  0  0  0  0
  148.3586  139.6443  156.0008 C   0  0  0  0  0  0  0  0  0  0  0  0
  149.7946  140.1981  155.7556 C   0  0  0  0  0  0  0  0  0  0  0  0
  149.7529  141.4658  154.8543 C   0  0  0  0  0  0  0  0  0  0  0  0
  149.2970  141.1799  153.5469 O   0  0  0  0  0  0  0  0  0  0  0  0
  150.4417  140.5055  157.1293 C   0  0  0  0  0  0  0  0  0  0  0  0
  151.9530  140.7837  157.0337 C   0  0  0  0  0  0  0  0  0  0  0  0
  152.6106  139.6847  156.4168 O   0  0  0  0  0  0  0  0  0  0  0  0
  152.1694  139.4546  155.0854 C   0  0  0  0  0  0  0  0  0  0  0  0
  150.6683  139.1122  155.0779 C   0  0  0  0  0  0  0  0  0  0  0  0
  148.4067  134.5939  159.6942 C   0  0  0  0  0  0  0  0  0  0  0  0
  147.8141  133.6251  160.7618 C   0  0  0  0  0  0  0  0  0  0  0  0
  146.2875  133.4146  160.5266 C   0  0  0  0  0  0  0  0  0  0  0  0
  145.4367  134.6747  160.7752 C   0  0  0  0  0  0  0  0  0  0  0  0
  145.6809  135.2536  162.1742 C   0  0  0  0  0  0  0  0  0  0  0  0
  147.1723  135.5326  162.3990 C   0  0  0  0  0  0  0  0  0  0  0  0
  148.0119  134.2632  162.1672 C   0  0  0  0  0  0  0  0  0  0  0  0
  147.1593  130.8113  161.4316 H   0  0  0  0  0  0  0  0  0  0  0  0
  148.2154  131.4627  162.6854 H   0  0  0  0  0  0  0  0  0  0  0  0
  148.8257  130.2930  161.5457 H   0  0  0  0  0  0  0  0  0  0  0  0
  149.6484  132.5079  160.9362 H   0  0  0  0  0  0  0  0  0  0  0  0
  149.2658  130.8333  159.1862 H   0  0  0  0  0  0  0  0  0  0  0  0
  147.6444  131.4166  158.9271 H   0  0  0  0  0  0  0  0  0  0  0  0
  150.2405  132.9552  158.4519 H   0  0  0  0  0  0  0  0  0  0  0  0
  149.1192  132.3691  157.2319 H   0  0  0  0  0  0  0  0  0  0  0  0
  149.4847  134.9704  154.1826 H   0  0  0  0  0  0  0  0  0  0  0  0
  147.6996  139.1668  158.7271 H   0  0  0  0  0  0  0  0  0  0  0  0
  147.8560  139.4537  155.0517 H   0  0  0  0  0  0  0  0  0  0  0  0
  147.7486  140.3940  156.5066 H   0  0  0  0  0  0  0  0  0  0  0  0
  149.0994  142.2326  155.2665 H   0  0  0  0  0  0  0  0  0  0  0  0
  150.7387  141.9253  154.7833 H   0  0  0  0  0  0  0  0  0  0  0  0
  149.7774  140.4355  153.2178 H   0  0  0  0  0  0  0  0  0  0  0  0
  149.9405  141.3436  157.6142 H   0  0  0  0  0  0  0  0  0  0  0  0
  150.3012  139.6521  157.7941 H   0  0  0  0  0  0  0  0  0  0  0  0
  152.1598  141.7045  156.4876 H   0  0  0  0  0  0  0  0  0  0  0  0
  152.3675  140.9169  158.0330 H   0  0  0  0  0  0  0  0  0  0  0  0
  152.3883  140.3208  154.4601 H   0  0  0  0  0  0  0  0  0  0  0  0
  152.7392  138.6227  154.6711 H   0  0  0  0  0  0  0  0  0  0  0  0
  150.5382  138.1643  155.6016 H   0  0  0  0  0  0  0  0  0  0  0  0
  150.3421  138.9392  154.0518 H   0  0  0  0  0  0  0  0  0  0  0  0
  149.4327  134.8482  159.9645 H   0  0  0  0  0  0  0  0  0  0  0  0
  147.8651  135.5376  159.6860 H   0  0  0  0  0  0  0  0  0  0  0  0
  146.0980  133.0550  159.5153 H   0  0  0  0  0  0  0  0  0  0  0  0
  145.9124  132.6397  161.1934 H   0  0  0  0  0  0  0  0  0  0  0  0
  145.6522  135.4335  160.0255 H   0  0  0  0  0  0  0  0  0  0  0  0
  144.3803  134.4315  160.6589 H   0  0  0  0  0  0  0  0  0  0  0  0
  145.1050  136.1701  162.3053 H   0  0  0  0  0  0  0  0  0  0  0  0
  145.3217  134.5512  162.9275 H   0  0  0  0  0  0  0  0  0  0  0  0
  147.5046  136.3370  161.7427 H   0  0  0  0  0  0  0  0  0  0  0  0
  147.3269  135.8922  163.4167 H   0  0  0  0  0  0  0  0  0  0  0  0
  147.7345  133.5558  162.9466 H   0  0  0  0  0  0  0  0  0  0  0  0
  149.0659  134.4895  162.3326 H   0  0  0  0  0  0  0  0  0  0  0  0
  1  2  1  0  0  0  0
  1 31  1  0  0  0  0
  1 32  1  0  0  0  0
  1 33  1  0  0  0  0
  2 25  1  0  0  0  0
  2  3  1  0  0  0  0
  2 34  1  0  0  0  0
  3  4  1  0  0  0  0
  3 35  1  0  0  0  0
  3 36  1  0  0  0  0
  4  5  1  0  0  0  0
  4 37  1  0  0  0  0
  4 38  1  0  0  0  0
  5  6  1  0  0  0  0
  5 24  1  0  0  0  0
  6 11  1  0  0  0  0
  6  7  2  0  0  0  0
  7  8  1  0  0  0  0
  8  9  2  0  0  0  0
  8 39  1  0  0  0  0
  9 10  1  0  0  0  0
 10 14  1  0  0  0  0
 10 11  2  0  0  0  0
 11 12  1  0  0  0  0
 12 13  2  0  0  0  0
 13 14  1  0  0  0  0
 13 40  1  0  0  0  0
 14 15  1  0  0  0  0
 15 16  1  0  0  0  0
 15 41  1  0  0  0  0
 15 42  1  0  0  0  0
 16 23  1  0  0  0  0
 16 17  1  0  0  0  0
 16 19  1  0  0  0  0
 17 18  1  0  0  0  0
 17 43  1  0  0  0  0
 17 44  1  0  0  0  0
 18 45  1  0  0  0  0
 19 20  1  0  0  0  0
 19 46  1  0  0  0  0
 19 47  1  0  0  0  0
 20 21  1  0  0  0  0
 20 48  1  0  0  0  0
 20 49  1  0  0  0  0
 21 22  1  0  0  0  0
 22 23  1  0  0  0  0
 22 50  1  0  0  0  0
 22 51  1  0  0  0  0
 23 52  1  0  0  0  0
 23 53  1  0  0  0  0
 24 25  1  0  0  0  0
 24 54  1  0  0  0  0
 24 55  1  0  0  0  0
 25 30  1  0  0  0  0
 25 26  1  0  0  0  0
 26 27  1  0  0  0  0
 26 56  1  0  0  0  0
 26 57  1  0  0  0  0
 27 28  1  0  0  0  0
 27 58  1  0  0  0  0
 27 59  1  0  0  0  0
 28 29  1  0  0  0  0
 28 60  1  0  0  0  0
 28 61  1  0  0  0  0
 29 30  1  0  0  0  0
 29 62  1  0  0  0  0
 29 63  1  0  0  0  0
 30 64  1  0  0  0  0
 30 65  1  0  0  0  0
M  END
> <s_m_source_file>
AV-unprocessed.smi

> <i_m_source_file_index>
216

> <i_lp_mmshare_version>
43012

> <i_f3d_flags>
0

> <s_epik_input>
W0NIMl0xW0NIMl1bQ0gyXVtDSDJdW0NIMl1DMTJbQ0BIXShbQ0gzXSlbQ0gyXVtDSDJdTihbQ0gyXTIpYyhuW2NIXW4zKWMoYzM0KW5bY0hdbjRbQ0gyXUM1KFtDSDJdW09IXSlbQ0gyXVtDSDJdT1tDSDJdW0NIMl01

> <s_epik_cmdline>
J2VwaWtfcHl0aG9uJywgJy1waCcsICc3LjAnLCAnLXRuJywgJzgnLCAnLW1hJywgJzIwMCcsICctbWV0YWxfYmluZGluZycsICctaW1hZScsICc8aW5maWxlLm1hZT4nLCAnLW9tYWUnLCAnPG91dGZpbGUubWFlPic=

> <r_lp_tautomer_probability>
1

> <r_epik_Ionization_Penalty>
0.00291566

> <r_epik_Ionization_Penalty_Charging>
0

> <r_epik_Ionization_Penalty_Neutral>
0.00291566

> <r_epik_State_Penalty>
0.00199166

> <r_epik_Charging_Adjusted_Penalty>
0.00199166

> <i_epik_Tot_Q>
0

> <i_epik_Tot_abs_Q>
0

> <r_epik_Metal_State_Penalty>
-0

> <b_epik_Metal_Only>
0

> <s_lp_Force_Field>
OPLS_2005

> <r_lp_Energy>
50.0726

> <b_lp_Chiralities_Consistent>
1

> <s_lp_Variant>
AV-unprocessed.smi:216-2

> <Gold.Version>
5.8.1

> <Gold.Id.Protein>
6NUR|6NUR_protein|mol2

> <Gold.PLP.Fitness>
43.0281

> <Gold.PLP.PLP>
-34.5946

> <Gold.PLP.part.hbond>
-4.0000

> <Gold.PLP.part.metal>
0.0000

> <Gold.PLP.part.buried>
-2.8200

> <Gold.PLP.part.nonpolar>
-26.2463

> <Gold.PLP.part.repulsive>
0.1534

> <Gold.PLP.ligand.clash>
0.0000

> <Gold.PLP.ligand.torsion>
0.8327

> <Gold.PLP.Chemscore.Hbond>
2.3840

> <Gold.PLP.Chemscore.CHOScore>
0.8744

> <Gold.PLP.Chemscore.Metal>
0.0000

> <Gold.Chemscore.Hbonds>
donor molecule, donor type, donor heavy atom, donor atom, acceptor molecule, acceptor atom, score
      L1  H    18    45       P1  7957  0.28
      P1  H  7997  8010       L1    21  1.00
      P1  H  8011  8017       L1    18  0.94
      L1  C     8    39       P1  7948  0.54

> <Gold.PLP.Chemscore.Internal.Correction>
0.3239

> <Gold.Rescore>
     Score         DG    S(hbond)    S(metal)    S(lipo)     H(rot)  DE(clash)    DE(int)     intcor
     12.24     -15.80       1.40        0.00      96.48       2.20       0.19       3.37       ----

> <Gold.Chemscore.Fitness>
12.2398

> <Gold.Chemscore.DG>
-15.8002

> <Gold.Chemscore.ZeroCoef>
-5.4800

> <Gold.Chemscore.Hbond>
1.3979

> <Gold.Chemscore.Metal>
0.0000

> <Gold.Chemscore.Lipo>
96.4809

> <Gold.Chemscore.Internal_Hbond>
0.0000

> <Gold.Chemscore.DEClash>
0.1932

> <Gold.Chemscore.DEInternal>
3.3672

> <Gold.Chemscore.Rot>
2.2019

> <Gold.Chemscore.Internal.Correction>
   9.000000E+99

> <Gold.Chemscore.Hbonds>
donor molecule, donor type, donor heavy atom, donor atom, acceptor molecule, acceptor atom, score
      L1  H    18    45       P1  7957  0.28
      P1  H  7997  8010       L1    21  0.30
      P1  H  8011  8017       L1    18  0.17

> <Gold.Chemscore.Hbond.Weighted>
-4.6690

> <Gold.Chemscore.Metal.Weighted>
-0.0000

> <Gold.Chemscore.Lipo.Weighted>
-11.2883

> <Gold.Chemscore.Internal_Hbond.Weighted>
0.0000

> <Gold.Chemscore.DEClash.Weighted>
0.1932

> <Gold.Chemscore.DEInternal.Weighted>
3.3672

> <Gold.Chemscore.Rot.Weighted>
5.6370

> <Gold.Chemscore.Internal.Correction.Weighted>
   9.000000E+99

> <Gold.Protein.RotatedTorsions>
[ 6907 6896 6895 6894 ] final  106.05 input  -60.11 | X-H torsion
[ 7974 7965 7964 7962 ] final  144.10 input  175.53 | X-H torsion
[ 8008 7997 7996 7995 ] final   80.48 input   59.86 | X-H torsion
[ 10167 10162 10161 10158 ] final -120.49 input  -65.29 | X-H torsion
[ 10718 10713 10712 10709 ] final  148.50 input   66.30 | X-H torsion
[ 10763 10752 10751 10750 ] final   58.57 input  -60.55 | X-H torsion
[ 11005 11000 10999 10996 ] final  110.22 input  -57.11 | X-H torsion

> <Gold.Protein.ActiveResidues>
 VAL166  LYS551  ARG553  GLY616  TRP617  ASP618  TYR619  PRO620  LYS621  CYS622 
 ASP623  PHE694  ASN695  SER759  ASP760  ASP761  ALA762  ILE779  LEU786  VAL792 
 PHE793  MET794  SER795  GLU796  ALA797  LYS798  CYS799  TRP800  GLU811  SER814 

> <Gold.Protein.RotatedAtoms>
  152.5208  133.9438  159.7638 H   0  0  0  0  0  0  0  0  0  0  0  0  # atno 6907 bound_to 6896
  150.9762  133.6284  159.2737 H   0  0  0  0  0  0  0  0  0  0  0  0  # atno 6908 bound_to 6896
  151.3477  135.0883  159.9445 H   0  0  0  0  0  0  0  0  0  0  0  0  # atno 6909 bound_to 6896
  144.8864  139.5622  143.5819 H   0  0  0  0  0  0  0  0  0  0  0  0  # atno 7974 bound_to 7965
  155.8841  140.3442  155.5908 H   0  0  0  0  0  0  0  0  0  0  0  0  # atno 8008 bound_to 7997
  155.7686  140.0842  157.2138 H   0  0  0  0  0  0  0  0  0  0  0  0  # atno 8009 bound_to 7997
  154.4027  140.1522  156.2903 H   0  0  0  0  0  0  0  0  0  0  0  0  # atno 8010 bound_to 7997
  140.0353  143.5207  152.2156 H   0  0  0  0  0  0  0  0  0  0  0  0  # atno 10167 bound_to 10162
  157.3078  131.0882  151.1340 H   0  0  0  0  0  0  0  0  0  0  0  0  # atno 10718 bound_to 10713
  152.9874  135.5602  154.5574 H   0  0  0  0  0  0  0  0  0  0  0  0  # atno 10763 bound_to 10752
  154.4999  135.2797  155.1431 H   0  0  0  0  0  0  0  0  0  0  0  0  # atno 10764 bound_to 10752
  154.2865  135.6334  153.5421 H   0  0  0  0  0  0  0  0  0  0  0  0  # atno 10765 bound_to 10752
  139.8877  134.9478  156.6245 H   0  0  0  0  0  0  0  0  0  0  0  0  # atno 11005 bound_to 11000
  146.3027  139.7479  142.9079 LP  0  0  0  0  0  0  0  0  0  0  0  0  # atno 17320 bound_to 7965
  145.3860  141.0365  143.3150 LP  0  0  0  0  0  0  0  0  0  0  0  0  # atno 17321 bound_to 7965
  139.6049  144.7593  151.3085 LP  0  0  0  0  0  0  0  0  0  0  0  0  # atno 17342 bound_to 10162
  140.7284  143.6936  150.7902 LP  0  0  0  0  0  0  0  0  0  0  0  0  # atno 17343 bound_to 10162
  157.2674  130.6688  149.6003 LP  0  0  0  0  0  0  0  0  0  0  0  0  # atno 17370 bound_to 10713
  155.9675  130.4490  150.5640 LP  0  0  0  0  0  0  0  0  0  0  0  0  # atno 17371 bound_to 10713
  140.7713  133.8736  155.8494 LP  0  0  0  0  0  0  0  0  0  0  0  0  # atno 17394 bound_to 11000
  140.9839  134.1369  157.4470 LP  0  0  0  0  0  0  0  0  0  0  0  0  # atno 17395 bound_to 11000

$$$$
