AV-unprocessed.smi:2091|AV-procd|sdf|8540|dock9
  -GOLD-   2272011263D 1   1.00000     0.00000
 Structure written by MMmdl.
 35 36  0  0  0  0  0  0  0  0  2 V2000
  155.0929  140.4836  159.1933 O   0  0  0  0  0  0  0  0  0  0  0  0
  154.3874  140.3146  160.1889 C   0  0  0  0  0  0  0  0  0  0  0  0
  154.6541  139.1492  161.1510 C   0  0  0  0  0  0  0  0  0  0  0  0
  154.6741  137.8404  160.4781 N   0  0  0  0  0  0  0  0  0  0  0  0
  155.8300  137.0518  160.6155 C   0  0  0  0  0  0  0  0  0  0  0  0
  155.9381  135.8420  160.0335 C   0  0  0  0  0  0  0  0  0  0  0  0
  154.8149  135.3532  159.2431 C   0  0  0  0  0  0  0  0  0  0  0  0
  154.8986  134.2535  158.6997 O   0  0  0  0  0  0  0  0  0  0  0  0
  153.7125  136.1527  159.1449 N   0  5  0  0  0  0  0  0  0  0  0  0
  153.6157  137.3800  159.7448 C   0  0  0  0  0  0  0  0  0  0  0  0
  152.6104  138.0848  159.6453 O   0  0  0  0  0  0  0  0  0  0  0  0
  153.3384  141.0975  160.4880 N   0  0  0  0  0  0  0  0  0  0  0  0
  152.8870  142.2496  159.7043 C   0  0  2  0  0  0  0  0  0  0  0  0
  152.2432  143.2576  160.6839 C   0  0  0  0  0  0  0  0  0  0  0  0
  152.2088  144.7021  160.1544 C   0  0  0  0  0  0  0  0  0  0  0  0
  151.3289  144.9192  158.9136 C   0  0  0  0  0  0  0  0  0  0  0  0
  151.7918  144.1265  157.6791 C   0  0  0  0  0  0  0  0  0  0  0  0
  151.4104  142.7225  157.7558 N   0  0  0  0  0  0  0  0  0  0  0  0
  151.8355  141.8209  158.6539 C   0  0  0  0  0  0  0  0  0  0  0  0
  151.3885  140.6738  158.6419 O   0  0  0  0  0  0  0  0  0  0  0  0
  155.5956  139.3126  161.6789 H   0  0  0  0  0  0  0  0  0  0  0  0
  153.8857  139.1683  161.9247 H   0  0  0  0  0  0  0  0  0  0  0  0
  156.6123  137.4838  161.2222 H   0  0  0  0  0  0  0  0  0  0  0  0
  156.8319  135.2474  160.1510 H   0  0  0  0  0  0  0  0  0  0  0  0
  152.8080  140.8771  161.3181 H   0  0  0  0  0  0  0  0  0  0  0  0
  153.7483  142.7035  159.2110 H   0  0  0  0  0  0  0  0  0  0  0  0
  151.2407  142.9370  160.9736 H   0  0  0  0  0  0  0  0  0  0  0  0
  152.8220  143.2721  161.6088 H   0  0  0  0  0  0  0  0  0  0  0  0
  151.8488  145.3542  160.9508 H   0  0  0  0  0  0  0  0  0  0  0  0
  153.2259  145.0323  159.9395 H   0  0  0  0  0  0  0  0  0  0  0  0
  150.2885  144.6847  159.1431 H   0  0  0  0  0  0  0  0  0  0  0  0
  151.3485  145.9815  158.6677 H   0  0  0  0  0  0  0  0  0  0  0  0
  151.3163  144.5394  156.7892 H   0  0  0  0  0  0  0  0  0  0  0  0
  152.8676  144.2247  157.5252 H   0  0  0  0  0  0  0  0  0  0  0  0
  150.7316  142.4079  157.0777 H   0  0  0  0  0  0  0  0  0  0  0  0
  1  2  2  0  0  0  0
  2  3  1  0  0  0  0
  2 12  1  0  0  0  0
  3  4  1  0  0  0  0
  3 21  1  0  0  0  0
  3 22  1  0  0  0  0
  4 10  1  0  0  0  0
  4  5  1  0  0  0  0
  5  6  2  0  0  0  0
  5 23  1  0  0  0  0
  6  7  1  0  0  0  0
  6 24  1  0  0  0  0
  7  8  2  0  0  0  0
  7  9  1  0  0  0  0
  9 10  1  0  0  0  0
 10 11  2  0  0  0  0
 12 13  1  0  0  0  0
 12 25  1  0  0  0  0
 13 19  1  0  0  0  0
 13 14  1  0  0  0  0
 13 26  1  0  0  0  0
 14 15  1  0  0  0  0
 14 27  1  0  0  0  0
 14 28  1  0  0  0  0
 15 16  1  0  0  0  0
 15 29  1  0  0  0  0
 15 30  1  0  0  0  0
 16 17  1  0  0  0  0
 16 31  1  0  0  0  0
 16 32  1  0  0  0  0
 17 18  1  0  0  0  0
 17 33  1  0  0  0  0
 17 34  1  0  0  0  0
 18 19  1  0  0  0  0
 18 35  1  0  0  0  0
 19 20  2  0  0  0  0
M  CHG  1   9  -1
M  END
> <s_m_source_file>
AV-unprocessed.smi

> <i_m_source_file_index>
2091

> <i_lp_mmshare_version>
43012

> <i_f3d_flags>
0

> <s_epik_input>
Tz1jMVtuSF1jKD1PKVtjSF1bY0hdbjFbQ0gyXUMoPU8pW05IXVtDQEBIXTJbQ0gyXVtDSDJdW0NIMl1bQ0gyXVtOSF1DMj1P

> <s_epik_cmdline>
J2VwaWtfcHl0aG9uJywgJy1waCcsICc3LjAnLCAnLXRuJywgJzgnLCAnLW1hJywgJzIwMCcsICctbWV0YWxfYmluZGluZycsICctaW1hZScsICc8aW5maWxlLm1hZT4nLCAnLW9tYWUnLCAnPG91dGZpbGUubWFlPic=

> <r_lp_tautomer_probability>
0.999537

> <r_epik_Ionization_Penalty>
3.03155

> <r_epik_Ionization_Penalty_Charging>
2.38195e-08

> <r_epik_Ionization_Penalty_Neutral>
3.03155

> <r_epik_State_Penalty>
3.03052

> <r_epik_Charging_Adjusted_Penalty>
3.03052

> <i_epik_Tot_Q>
-1

> <i_epik_Tot_abs_Q>
1

> <r_epik_Metal_State_Penalty>
0.455936

> <b_epik_Metal_Only>
1

> <s_lp_Force_Field>
OPLS_2005

> <r_lp_Energy>
21.0708

> <b_lp_Chiralities_Consistent>
1

> <s_lp_Variant>
AV-unprocessed.smi:2091-3

> <Gold.Version>
5.8.1

> <Gold.Id.Protein>
6NUR|6NUR_protein|mol2

> <Gold.PLP.Fitness>
39.5554

> <Gold.PLP.PLP>
-32.8891

> <Gold.PLP.part.hbond>
-2.0693

> <Gold.PLP.part.metal>
0.0000

> <Gold.PLP.part.buried>
-4.7925

> <Gold.PLP.part.nonpolar>
-25.9547

> <Gold.PLP.part.repulsive>
0.1115

> <Gold.PLP.ligand.clash>
0.0000

> <Gold.PLP.ligand.torsion>
0.4048

> <Gold.PLP.Chemscore.Hbond>
2.4914

> <Gold.PLP.Chemscore.CHOScore>
0.0000

> <Gold.PLP.Chemscore.Metal>
0.0000

> <Gold.Chemscore.Hbonds>
donor molecule, donor type, donor heavy atom, donor atom, acceptor molecule, acceptor atom, score
      P1  H  6896  6908       L1     9  1.41
      P1  H  7997  8010       L1     1  0.64

> <Gold.PLP.Chemscore.Internal.Correction>
0.0018

> <Gold.Rescore>
     Score         DG    S(hbond)    S(metal)    S(lipo)     H(rot)  DE(clash)    DE(int)     intcor
     12.69     -14.87       1.86        0.00      67.64       1.85       0.52       1.66       ----

> <Gold.Chemscore.Fitness>
12.6912

> <Gold.Chemscore.DG>
-14.8704

> <Gold.Chemscore.ZeroCoef>
-5.4800

> <Gold.Chemscore.Hbond>
1.8614

> <Gold.Chemscore.Metal>
0.0000

> <Gold.Chemscore.Lipo>
67.6433

> <Gold.Chemscore.Internal_Hbond>
0.0000

> <Gold.Chemscore.DEClash>
0.5195

> <Gold.Chemscore.DEInternal>
1.6596

> <Gold.Chemscore.Rot>
1.8519

> <Gold.Chemscore.Internal.Correction>
   9.000000E+99

> <Gold.Chemscore.Hbonds>
donor molecule, donor type, donor heavy atom, donor atom, acceptor molecule, acceptor atom, score
      P1  H  6896  6908       L1     9  0.13
      P1  H  7997  8010       L1     1  0.63

> <Gold.Chemscore.Hbond.Weighted>
-6.2169

> <Gold.Chemscore.Metal.Weighted>
-0.0000

> <Gold.Chemscore.Lipo.Weighted>
-7.9143

> <Gold.Chemscore.Internal_Hbond.Weighted>
0.0000

> <Gold.Chemscore.DEClash.Weighted>
0.5195

> <Gold.Chemscore.DEInternal.Weighted>
1.6596

> <Gold.Chemscore.Rot.Weighted>
4.7408

> <Gold.Chemscore.Internal.Correction.Weighted>
   9.000000E+99

> <Gold.Protein.RotatedTorsions>
[ 6907 6896 6895 6894 ] final  -82.32 input  -60.11 | X-H torsion
[ 7974 7965 7964 7962 ] final -156.27 input  175.53 | X-H torsion
[ 8008 7997 7996 7995 ] final  -26.14 input   59.86 | X-H torsion
[ 10167 10162 10161 10158 ] final  136.99 input  -65.29 | X-H torsion
[ 10718 10713 10712 10709 ] final  -58.11 input   66.30 | X-H torsion
[ 10763 10752 10751 10750 ] final -170.81 input  -60.55 | X-H torsion
[ 11005 11000 10999 10996 ] final -131.20 input  -57.11 | X-H torsion

> <Gold.Protein.ActiveResidues>
 VAL166  LYS551  ARG553  GLY616  TRP617  ASP618  TYR619  PRO620  LYS621  CYS622 
 ASP623  PHE694  ASN695  SER759  ASP760  ASP761  ALA762  ILE779  LEU786  VAL792 
 PHE793  MET794  SER795  GLU796  ALA797  LYS798  CYS799  TRP800  GLU811  SER814 

> <Gold.Protein.RotatedAtoms>
  150.6899  134.3683  159.4980 H   0  0  0  0  0  0  0  0  0  0  0  0  # atno 6907 bound_to 6896
  152.1502  134.8991  160.0557 H   0  0  0  0  0  0  0  0  0  0  0  0  # atno 6908 bound_to 6896
  152.0092  133.3820  159.4250 H   0  0  0  0  0  0  0  0  0  0  0  0  # atno 6909 bound_to 6896
  144.7601  140.4133  143.5983 H   0  0  0  0  0  0  0  0  0  0  0  0  # atno 7974 bound_to 7965
  154.4440  140.1907  156.0729 H   0  0  0  0  0  0  0  0  0  0  0  0  # atno 8008 bound_to 7997
  156.0497  140.3310  155.7311 H   0  0  0  0  0  0  0  0  0  0  0  0  # atno 8009 bound_to 7997
  155.5575  140.0600  157.2827 H   0  0  0  0  0  0  0  0  0  0  0  0  # atno 8010 bound_to 7997
  139.5160  144.6435  151.5505 H   0  0  0  0  0  0  0  0  0  0  0  0  # atno 10167 bound_to 10162
  156.1159  130.4170  150.0533 H   0  0  0  0  0  0  0  0  0  0  0  0  # atno 10718 bound_to 10713
  154.6374  135.2894  155.0144 H   0  0  0  0  0  0  0  0  0  0  0  0  # atno 10763 bound_to 10752
  154.1283  135.6537  153.4920 H   0  0  0  0  0  0  0  0  0  0  0  0  # atno 10764 bound_to 10752
  153.0309  135.5304  154.7227 H   0  0  0  0  0  0  0  0  0  0  0  0  # atno 10765 bound_to 10752
  140.9279  134.1358  157.4260 H   0  0  0  0  0  0  0  0  0  0  0  0  # atno 11005 bound_to 11000
  145.6649  139.1588  143.2787 LP  0  0  0  0  0  0  0  0  0  0  0  0  # atno 17320 bound_to 7965
  146.1654  140.6726  142.9258 LP  0  0  0  0  0  0  0  0  0  0  0  0  # atno 17321 bound_to 7965
  140.6210  143.9258  150.6526 LP  0  0  0  0  0  0  0  0  0  0  0  0  # atno 17342 bound_to 10162
  140.2531  143.3578  152.1388 LP  0  0  0  0  0  0  0  0  0  0  0  0  # atno 17343 bound_to 10162
  156.8484  130.9450  151.3627 LP  0  0  0  0  0  0  0  0  0  0  0  0  # atno 17370 bound_to 10713
  157.6343  130.8754  149.9330 LP  0  0  0  0  0  0  0  0  0  0  0  0  # atno 17371 bound_to 10713
  139.8789  134.9995  156.5956 LP  0  0  0  0  0  0  0  0  0  0  0  0  # atno 17394 bound_to 11000
  140.7902  133.8589  155.8639 LP  0  0  0  0  0  0  0  0  0  0  0  0  # atno 17395 bound_to 11000

$$$$
