AV-unprocessed.smi:2329|AV-procd|sdf|9308|dock3
  -GOLD-   2272012523D 1   1.00000     0.00000
 Structure written by MMmdl.
 45 48  0  0  0  0  0  0  0  0  1 V2000
  141.8906  134.9383  153.2017 C   0  0  0  0  0  0  0  0  0  0  0  0
  143.2493  134.6676  152.5910 C   0  0  0  0  0  0  0  0  0  0  0  0
  143.4287  133.6368  151.6476 C   0  0  0  0  0  0  0  0  0  0  0  0
  144.7165  133.4400  151.1179 C   0  0  0  0  0  0  0  0  0  0  0  0
  145.7644  134.2753  151.5504 C   0  0  0  0  0  0  0  0  0  0  0  0
  145.4994  135.2862  152.5014 C   0  0  0  0  0  0  0  0  0  0  0  0
  146.6223  136.0719  152.8704 N   0  0  0  0  0  0  0  0  0  0  0  0
  146.7547  136.9010  153.9250 C   0  0  0  0  0  0  0  0  0  0  0  0
  145.8773  137.1285  154.7560 O   0  0  0  0  0  0  0  0  0  0  0  0
  147.9664  137.4762  154.0158 N   0  0  0  0  0  0  0  0  0  0  0  0
  148.4304  138.4238  155.0421 C   0  0  2  0  0  0  0  0  0  0  0  0
  147.9133  139.8555  154.8584 C   0  0  2  0  0  0  0  0  0  0  0  0
  146.7757  140.4922  154.1437 C   0  0  0  0  0  0  0  0  0  0  0  0
  147.5561  141.7042  153.5706 C   0  0  0  0  0  0  0  0  0  0  0  0
  148.9572  141.4343  153.8290 O   0  0  0  0  0  0  0  0  0  0  0  0
  149.0392  140.0221  153.8598 C   0  0  1  0  0  0  0  0  0  0  0  0
  149.8482  139.0519  154.7533 C   0  0  0  0  0  0  0  0  0  0  0  0
  150.6204  139.6744  155.9352 C   0  0  0  0  0  0  0  0  0  0  0  0
  152.0398  139.1038  155.9401 C   0  0  0  0  0  0  0  0  0  0  0  0
  152.2702  138.6431  154.5085 C   0  0  0  0  0  0  0  0  0  0  0  0
  150.8919  138.1702  154.0570 C   0  0  0  0  0  0  0  0  0  0  0  0
  144.2540  135.4686  153.0064 N   0  0  0  0  0  0  0  0  0  0  0  0
  141.1453  134.2300  152.8388 H   0  0  0  0  0  0  0  0  0  0  0  0
  141.5559  135.9448  152.9486 H   0  0  0  0  0  0  0  0  0  0  0  0
  141.9387  134.8547  154.2878 H   0  0  0  0  0  0  0  0  0  0  0  0
  142.6040  133.0126  151.3360 H   0  0  0  0  0  0  0  0  0  0  0  0
  144.8987  132.6616  150.3918 H   0  0  0  0  0  0  0  0  0  0  0  0
  146.7601  134.1377  151.1538 H   0  0  0  0  0  0  0  0  0  0  0  0
  147.4310  135.9807  152.2736 H   0  0  0  0  0  0  0  0  0  0  0  0
  148.6458  137.2155  153.3155 H   0  0  0  0  0  0  0  0  0  0  0  0
  148.3323  138.0486  156.0620 H   0  0  0  0  0  0  0  0  0  0  0  0
  148.0999  140.4043  155.7873 H   0  0  0  0  0  0  0  0  0  0  0  0
  146.3743  139.8568  153.3532 H   0  0  0  0  0  0  0  0  0  0  0  0
  145.9667  140.7883  154.8117 H   0  0  0  0  0  0  0  0  0  0  0  0
  147.3799  141.8071  152.4992 H   0  0  0  0  0  0  0  0  0  0  0  0
  147.2691  142.6390  154.0530 H   0  0  0  0  0  0  0  0  0  0  0  0
  148.8283  139.6065  152.8691 H   0  0  0  0  0  0  0  0  0  0  0  0
  150.6743  140.7578  155.8209 H   0  0  0  0  0  0  0  0  0  0  0  0
  150.1315  139.4877  156.8920 H   0  0  0  0  0  0  0  0  0  0  0  0
  152.7841  139.8268  156.2752 H   0  0  0  0  0  0  0  0  0  0  0  0
  152.0856  138.2444  156.6101 H   0  0  0  0  0  0  0  0  0  0  0  0
  152.5884  139.4882  153.8966 H   0  0  0  0  0  0  0  0  0  0  0  0
  153.0308  137.8658  154.4306 H   0  0  0  0  0  0  0  0  0  0  0  0
  150.7593  137.1296  154.3566 H   0  0  0  0  0  0  0  0  0  0  0  0
  150.8044  138.1980  152.9705 H   0  0  0  0  0  0  0  0  0  0  0  0
  1  2  1  0  0  0  0
  1 23  1  0  0  0  0
  1 24  1  0  0  0  0
  1 25  1  0  0  0  0
  2 22  1  0  0  0  0
  2  3  2  0  0  0  0
  3  4  1  0  0  0  0
  3 26  1  0  0  0  0
  4  5  2  0  0  0  0
  4 27  1  0  0  0  0
  5  6  1  0  0  0  0
  5 28  1  0  0  0  0
  6  7  1  0  0  0  0
  6 22  2  0  0  0  0
  7  8  1  0  0  0  0
  7 29  1  0  0  0  0
  8  9  2  0  0  0  0
  8 10  1  0  0  0  0
 10 11  1  0  0  0  0
 10 30  1  0  0  0  0
 11 17  1  0  0  0  0
 11 12  1  0  0  0  0
 11 31  1  0  0  0  0
 12 16  1  0  0  0  0
 12 13  1  0  0  0  0
 12 32  1  0  0  0  0
 13 14  1  0  0  0  0
 13 33  1  0  0  0  0
 13 34  1  0  0  0  0
 14 15  1  0  0  0  0
 14 35  1  0  0  0  0
 14 36  1  0  0  0  0
 15 16  1  0  0  0  0
 16 17  1  0  0  0  0
 16 37  1  0  0  0  0
 17 21  1  0  0  0  0
 17 18  1  0  0  0  0
 18 19  1  0  0  0  0
 18 38  1  0  0  0  0
 18 39  1  0  0  0  0
 19 20  1  0  0  0  0
 19 40  1  0  0  0  0
 19 41  1  0  0  0  0
 20 21  1  0  0  0  0
 20 42  1  0  0  0  0
 20 43  1  0  0  0  0
 21 44  1  0  0  0  0
 21 45  1  0  0  0  0
M  END
> <s_m_source_file>
AV-unprocessed.smi

> <i_m_source_file_index>
2329

> <i_lp_mmshare_version>
43012

> <i_f3d_flags>
0

> <s_epik_input>
W0NIM11jMVtjSF1bY0hdW2NIXWMobjEpW05IXUMoPU8pW05IXVtDQEBIXTJbQ0BASF0oW0NIMl1bQ0gyXU8zKVtDQEhdM0MyNFtDSDJdW0NIMl1bQ0gyXVtDSDJdNA==

> <s_epik_cmdline>
J2VwaWtfcHl0aG9uJywgJy1waCcsICc3LjAnLCAnLXRuJywgJzgnLCAnLW1hJywgJzIwMCcsICctbWV0YWxfYmluZGluZycsICctaW1hZScsICc8aW5maWxlLm1hZT4nLCAnLW9tYWUnLCAnPG91dGZpbGUubWFlPic=

> <r_lp_tautomer_probability>
1

> <r_epik_Ionization_Penalty>
8.97002e-05

> <r_epik_Ionization_Penalty_Charging>
0

> <r_epik_Ionization_Penalty_Neutral>
8.97002e-05

> <r_epik_State_Penalty>
-0

> <r_epik_Charging_Adjusted_Penalty>
0

> <i_epik_Tot_Q>
0

> <i_epik_Tot_abs_Q>
0

> <r_epik_Metal_State_Penalty>
-0

> <b_epik_Metal_Only>
0

> <s_lp_Force_Field>
OPLS_2005

> <r_lp_Energy>
90.3412

> <b_lp_Chiralities_Consistent>
1

> <s_lp_Variant>
AV-unprocessed.smi:2329-7

> <Gold.Version>
5.8.1

> <Gold.Id.Protein>
6NUR|6NUR_protein|mol2

> <Gold.PLP.Fitness>
42.6807

> <Gold.PLP.PLP>
-34.6122

> <Gold.PLP.part.hbond>
-3.4559

> <Gold.PLP.part.metal>
0.0000

> <Gold.PLP.part.buried>
-3.1204

> <Gold.PLP.part.nonpolar>
-28.5194

> <Gold.PLP.part.repulsive>
0.8740

> <Gold.PLP.ligand.clash>
0.0000

> <Gold.PLP.ligand.torsion>
0.1924

> <Gold.PLP.Chemscore.Hbond>
2.7280

> <Gold.PLP.Chemscore.CHOScore>
0.0000

> <Gold.PLP.Chemscore.Metal>
0.0000

> <Gold.Chemscore.Hbonds>
donor molecule, donor type, donor heavy atom, donor atom, acceptor molecule, acceptor atom, score
      L1  H     7    29       P1  7948  1.00
      L1  H    10    30       P1  7948  0.93
      P1  H  8011  8017       L1    15  0.75

> <Gold.PLP.Chemscore.Internal.Correction>
0.2694

> <Gold.Rescore>
     Score         DG    S(hbond)    S(metal)    S(lipo)     H(rot)  DE(clash)    DE(int)     intcor
     17.68     -19.27       1.93        0.00      84.72       1.00       0.13       1.46       ----

> <Gold.Chemscore.Fitness>
17.6795

> <Gold.Chemscore.DG>
-19.2729

> <Gold.Chemscore.ZeroCoef>
-5.4800

> <Gold.Chemscore.Hbond>
1.9282

> <Gold.Chemscore.Metal>
0.0000

> <Gold.Chemscore.Lipo>
84.7226

> <Gold.Chemscore.Internal_Hbond>
0.0000

> <Gold.Chemscore.DEClash>
0.1296

> <Gold.Chemscore.DEInternal>
1.4639

> <Gold.Chemscore.Rot>
1.0000

> <Gold.Chemscore.Internal.Correction>
   9.000000E+99

> <Gold.Chemscore.Hbonds>
donor molecule, donor type, donor heavy atom, donor atom, acceptor molecule, acceptor atom, score
      L1  H     7    29       P1  7948  0.96
      L1  H    10    30       P1  7948  0.91
      P1  H  8011  8017       L1    15  0.19

> <Gold.Chemscore.Hbond.Weighted>
-6.4403

> <Gold.Chemscore.Metal.Weighted>
-0.0000

> <Gold.Chemscore.Lipo.Weighted>
-9.9125

> <Gold.Chemscore.Internal_Hbond.Weighted>
0.0000

> <Gold.Chemscore.DEClash.Weighted>
0.1296

> <Gold.Chemscore.DEInternal.Weighted>
1.4639

> <Gold.Chemscore.Rot.Weighted>
2.5600

> <Gold.Chemscore.Internal.Correction.Weighted>
   9.000000E+99

> <Gold.Protein.RotatedTorsions>
[ 6907 6896 6895 6894 ] final   19.69 input  -60.11 | X-H torsion
[ 7974 7965 7964 7962 ] final  -67.34 input  175.53 | X-H torsion
[ 8008 7997 7996 7995 ] final   67.85 input   59.86 | X-H torsion
[ 10167 10162 10161 10158 ] final   59.83 input  -65.29 | X-H torsion
[ 10718 10713 10712 10709 ] final  -76.57 input   66.30 | X-H torsion
[ 10763 10752 10751 10750 ] final  -64.92 input  -60.55 | X-H torsion
[ 11005 11000 10999 10996 ] final -148.23 input  -57.11 | X-H torsion

> <Gold.Protein.ActiveResidues>
 VAL166  LYS551  ARG553  GLY616  TRP617  ASP618  TYR619  PRO620  LYS621  CYS622 
 ASP623  PHE694  ASN695  SER759  ASP760  ASP761  ALA762  ILE779  LEU786  VAL792 
 PHE793  MET794  SER795  GLU796  ALA797  LYS798  CYS799  TRP800  GLU811  SER814 

> <Gold.Protein.RotatedAtoms>
  151.8849  135.0439  160.0492 H   0  0  0  0  0  0  0  0  0  0  0  0  # atno 6907 bound_to 6896
  152.2483  133.5189  159.5319 H   0  0  0  0  0  0  0  0  0  0  0  0  # atno 6908 bound_to 6896
  150.7075  134.0911  159.3974 H   0  0  0  0  0  0  0  0  0  0  0  0  # atno 6909 bound_to 6896
  145.7303  140.8999  143.0583 H   0  0  0  0  0  0  0  0  0  0  0  0  # atno 7974 bound_to 7965
  155.6992  140.3495  155.4926 H   0  0  0  0  0  0  0  0  0  0  0  0  # atno 8008 bound_to 7997
  155.9456  140.1109  157.1042 H   0  0  0  0  0  0  0  0  0  0  0  0  # atno 8009 bound_to 7997
  154.4111  140.1204  156.4970 H   0  0  0  0  0  0  0  0  0  0  0  0  # atno 8010 bound_to 7997
  140.1722  144.4265  150.6656 H   0  0  0  0  0  0  0  0  0  0  0  0  # atno 10167 bound_to 10162
  156.0171  130.4469  150.3213 H   0  0  0  0  0  0  0  0  0  0  0  0  # atno 10718 bound_to 10713
  154.3372  135.6164  153.5579 H   0  0  0  0  0  0  0  0  0  0  0  0  # atno 10763 bound_to 10752
  152.9807  135.5761  154.4894 H   0  0  0  0  0  0  0  0  0  0  0  0  # atno 10764 bound_to 10752
  154.4591  135.2855  155.1703 H   0  0  0  0  0  0  0  0  0  0  0  0  # atno 10765 bound_to 10752
  140.7634  134.3272  157.5095 H   0  0  0  0  0  0  0  0  0  0  0  0  # atno 11005 bound_to 11000
  144.6894  139.9322  143.7472 LP  0  0  0  0  0  0  0  0  0  0  0  0  # atno 17320 bound_to 7965
  146.0543  139.3541  143.0620 LP  0  0  0  0  0  0  0  0  0  0  0  0  # atno 17321 bound_to 7965
  140.6574  143.2242  151.5935 LP  0  0  0  0  0  0  0  0  0  0  0  0  # atno 17342 bound_to 10162
  139.5333  144.2854  152.1196 LP  0  0  0  0  0  0  0  0  0  0  0  0  # atno 17343 bound_to 10162
  157.1314  131.0272  151.2968 LP  0  0  0  0  0  0  0  0  0  0  0  0  # atno 17370 bound_to 10713
  157.4548  130.7619  149.7183 LP  0  0  0  0  0  0  0  0  0  0  0  0  # atno 17371 bound_to 10713
  139.8767  134.9216  156.3279 LP  0  0  0  0  0  0  0  0  0  0  0  0  # atno 17394 bound_to 11000
  140.9642  133.7369  156.0443 LP  0  0  0  0  0  0  0  0  0  0  0  0  # atno 17395 bound_to 11000

$$$$
