AV-unprocessed.smi:162|AV-procd|sdf|1379|dock6
  -GOLD-   2262019103D 1   1.00000     0.00000
 Structure written by MMmdl.
 54 57  0  0  0  0  0  0  0  0  1 V2000
  153.7426  137.7007  159.8050 C   0  0  0  0  0  0  0  0  0  0  0  0
  152.3560  137.9773  159.7189 O   0  0  0  0  0  0  0  0  0  0  0  0
  152.0551  138.9436  158.7262 C   0  0  0  0  0  0  0  0  0  0  0  0
  151.9956  140.3333  159.3830 C   0  0  1  0  0  0  0  0  0  0  0  0
  153.2772  140.7224  160.1178 C   0  0  0  0  0  0  0  0  0  0  0  0
  153.2126  142.2524  160.1846 C   0  0  2  0  0  0  0  0  0  0  0  0
  152.7639  142.6460  161.4743 O   0  0  0  0  0  0  0  0  0  0  0  0
  152.2669  143.9739  161.5212 C   0  0  0  0  0  0  0  0  0  0  0  0
  152.1862  142.6437  159.1033 C   0  0  0  0  0  0  0  0  0  0  0  0
  151.8134  141.4119  158.4221 N   0  0  0  0  0  0  0  0  0  0  0  0
  150.6219  141.4588  157.7871 C   0  0  0  0  0  0  0  0  0  0  0  0
  149.5757  141.9559  158.4907 N   0  0  0  0  0  0  0  0  0  0  0  0
  148.3689  142.0421  157.9231 C   0  0  0  0  0  0  0  0  0  0  0  0
  147.9998  141.6946  156.6884 N   0  0  0  0  0  0  0  0  0  0  0  0
  149.0510  141.1912  155.9795 C   0  0  0  0  0  0  0  0  0  0  0  0
  150.3860  141.0361  156.4476 C   0  0  0  0  0  0  0  0  0  0  0  0
  151.1771  140.4855  155.4462 N   0  0  0  0  0  0  0  0  0  0  0  0
  150.3585  140.3316  154.4415 C   0  0  0  0  0  0  0  0  0  0  0  0
  149.0633  140.7366  154.6726 N   0  0  0  0  0  0  0  0  0  0  0  0
  147.9534  140.6860  153.7334 C   0  0  0  0  0  0  0  0  0  0  0  0
  146.7818  139.7860  154.1982 C   0  0  0  0  0  0  0  0  0  0  0  0
  145.9993  139.4777  153.0571 O   0  0  0  0  0  0  0  0  0  0  0  0
  147.3174  138.4672  154.7909 C   0  0  0  0  0  0  0  0  0  0  0  0
  146.1982  137.6152  155.4160 C   0  0  0  0  0  0  0  0  0  0  0  0
  145.4973  138.3739  156.3938 O   0  0  0  0  0  0  0  0  0  0  0  0
  144.8418  139.5101  155.8434 C   0  0  0  0  0  0  0  0  0  0  0  0
  145.8752  140.4780  155.2401 C   0  0  0  0  0  0  0  0  0  0  0  0
  151.1725  140.3511  160.0978 H   0  0  0  0  0  0  0  0  0  0  0  0
  154.1995  142.6700  159.9772 H   0  0  0  0  0  0  0  0  0  0  0  0
  153.9177  136.9478  160.5732 H   0  0  0  0  0  0  0  0  0  0  0  0
  154.3062  138.5945  160.0755 H   0  0  0  0  0  0  0  0  0  0  0  0
  154.1286  137.3148  158.8607 H   0  0  0  0  0  0  0  0  0  0  0  0
  152.8094  138.9275  157.9377 H   0  0  0  0  0  0  0  0  0  0  0  0
  151.0960  138.6992  158.2668 H   0  0  0  0  0  0  0  0  0  0  0  0
  153.3640  140.2512  161.0975 H   0  0  0  0  0  0  0  0  0  0  0  0
  154.1462  140.4238  159.5296 H   0  0  0  0  0  0  0  0  0  0  0  0
  151.9487  144.2073  162.5371 H   0  0  0  0  0  0  0  0  0  0  0  0
  151.4075  144.1073  160.8634 H   0  0  0  0  0  0  0  0  0  0  0  0
  153.0374  144.6923  161.2388 H   0  0  0  0  0  0  0  0  0  0  0  0
  151.3148  143.1272  159.5466 H   0  0  0  0  0  0  0  0  0  0  0  0
  152.6230  143.3425  158.3891 H   0  0  0  0  0  0  0  0  0  0  0  0
  147.5874  142.4503  158.5469 H   0  0  0  0  0  0  0  0  0  0  0  0
  150.6801  139.9218  153.4950 H   0  0  0  0  0  0  0  0  0  0  0  0
  147.6049  141.7054  153.5610 H   0  0  0  0  0  0  0  0  0  0  0  0
  148.3378  140.3327  152.7754 H   0  0  0  0  0  0  0  0  0  0  0  0
  145.3182  140.1278  152.9756 H   0  0  0  0  0  0  0  0  0  0  0  0
  147.8460  137.8917  154.0299 H   0  0  0  0  0  0  0  0  0  0  0  0
  148.0509  138.6922  155.5664 H   0  0  0  0  0  0  0  0  0  0  0  0
  145.5064  137.2525  154.6544 H   0  0  0  0  0  0  0  0  0  0  0  0
  146.6259  136.7353  155.8967 H   0  0  0  0  0  0  0  0  0  0  0  0
  144.1128  139.1963  155.0948 H   0  0  0  0  0  0  0  0  0  0  0  0
  144.2836  140.0098  156.6353 H   0  0  0  0  0  0  0  0  0  0  0  0
  146.4933  140.8713  156.0483 H   0  0  0  0  0  0  0  0  0  0  0  0
  145.3611  141.3347  154.8026 H   0  0  0  0  0  0  0  0  0  0  0  0
  1  2  1  0  0  0  0
  1 30  1  0  0  0  0
  1 31  1  0  0  0  0
  1 32  1  0  0  0  0
  2  3  1  0  0  0  0
  3  4  1  0  0  0  0
  3 33  1  0  0  0  0
  3 34  1  0  0  0  0
  4 28  1  0  0  0  0
  4 10  1  0  0  0  0
  4  5  1  0  0  0  0
  5  6  1  0  0  0  0
  5 35  1  0  0  0  0
  5 36  1  0  0  0  0
  6 29  1  0  0  0  0
  6  7  1  0  0  0  0
  6  9  1  0  0  0  0
  7  8  1  0  0  0  0
  8 37  1  0  0  0  0
  8 38  1  0  0  0  0
  8 39  1  0  0  0  0
  9 10  1  0  0  0  0
  9 40  1  0  0  0  0
  9 41  1  0  0  0  0
 10 11  1  0  0  0  0
 11 16  1  0  0  0  0
 11 12  2  0  0  0  0
 12 13  1  0  0  0  0
 13 14  2  0  0  0  0
 13 42  1  0  0  0  0
 14 15  1  0  0  0  0
 15 19  1  0  0  0  0
 15 16  2  0  0  0  0
 16 17  1  0  0  0  0
 17 18  2  0  0  0  0
 18 19  1  0  0  0  0
 18 43  1  0  0  0  0
 19 20  1  0  0  0  0
 20 21  1  0  0  0  0
 20 44  1  0  0  0  0
 20 45  1  0  0  0  0
 21 27  1  0  0  0  0
 21 22  1  0  0  0  0
 21 23  1  0  0  0  0
 22 46  1  0  0  0  0
 23 24  1  0  0  0  0
 23 47  1  0  0  0  0
 23 48  1  0  0  0  0
 24 25  1  0  0  0  0
 24 49  1  0  0  0  0
 24 50  1  0  0  0  0
 25 26  1  0  0  0  0
 26 27  1  0  0  0  0
 26 51  1  0  0  0  0
 26 52  1  0  0  0  0
 27 53  1  0  0  0  0
 27 54  1  0  0  0  0
M  END
> <s_m_source_file>
AV-unprocessed.smi

> <i_m_source_file_index>
162

> <i_lp_mmshare_version>
43012

> <i_f3d_flags>
0

> <s_epik_input>
W0NIM11PW0NIMl1bQ0BASF0xW0NIMl1bQ0BASF0oT1tDSDNdKVtDSDJdTjFjKG5bY0hdbjIpYyhjMjMpbltjSF1uM1tDSDJdQzQoW09IXSlbQ0gyXVtDSDJdT1tDSDJdW0NIMl00

> <s_epik_cmdline>
J2VwaWtfcHl0aG9uJywgJy1waCcsICc3LjAnLCAnLXRuJywgJzgnLCAnLW1hJywgJzIwMCcsICctbWV0YWxfYmluZGluZycsICctaW1hZScsICc8aW5maWxlLm1hZT4nLCAnLW9tYWUnLCAnPG91dGZpbGUubWFlPic=

> <r_lp_tautomer_probability>
1

> <r_epik_Ionization_Penalty>
0.00660334

> <r_epik_Ionization_Penalty_Charging>
0

> <r_epik_Ionization_Penalty_Neutral>
0.00660334

> <r_epik_State_Penalty>
0.00469459

> <r_epik_Charging_Adjusted_Penalty>
0.00469459

> <i_epik_Tot_Q>
0

> <i_epik_Tot_abs_Q>
0

> <r_epik_Metal_State_Penalty>
-0

> <b_epik_Metal_Only>
0

> <s_lp_Force_Field>
OPLS_2005

> <r_lp_Energy>
43.1058

> <b_lp_Chiralities_Consistent>
1

> <s_lp_Variant>
AV-unprocessed.smi:162-4

> <Gold.Version>
5.8.1

> <Gold.Id.Protein>
6NUR|6NUR_protein|mol2

> <Gold.PLP.Fitness>
40.9398

> <Gold.PLP.PLP>
-36.6267

> <Gold.PLP.part.hbond>
-2.2092

> <Gold.PLP.part.metal>
0.0000

> <Gold.PLP.part.buried>
-3.4325

> <Gold.PLP.part.nonpolar>
-31.8066

> <Gold.PLP.part.repulsive>
0.2809

> <Gold.PLP.ligand.clash>
0.0000

> <Gold.PLP.ligand.torsion>
0.9598

> <Gold.PLP.Chemscore.Hbond>
1.0000

> <Gold.PLP.Chemscore.CHOScore>
1.0000

> <Gold.PLP.Chemscore.Metal>
0.0000

> <Gold.Chemscore.Hbonds>
donor molecule, donor type, donor heavy atom, donor atom, acceptor molecule, acceptor atom, score
      L1  H    22    46       P1 10175  0.94
      L1  C    18    43       P1  7957  0.93

> <Gold.PLP.Chemscore.Internal.Correction>
0.2327

> <Gold.Rescore>
     Score         DG    S(hbond)    S(metal)    S(lipo)     H(rot)  DE(clash)    DE(int)     intcor
      7.51     -10.88       0.99        0.00      80.39       2.86       1.37       1.99       ----

> <Gold.Chemscore.Fitness>
7.5143

> <Gold.Chemscore.DG>
-10.8754

> <Gold.Chemscore.ZeroCoef>
-5.4800

> <Gold.Chemscore.Hbond>
0.9948

> <Gold.Chemscore.Metal>
0.0000

> <Gold.Chemscore.Lipo>
80.3865

> <Gold.Chemscore.Internal_Hbond>
0.0000

> <Gold.Chemscore.DEClash>
1.3690

> <Gold.Chemscore.DEInternal>
1.9921

> <Gold.Chemscore.Rot>
2.8642

> <Gold.Chemscore.Internal.Correction>
   9.000000E+99

> <Gold.Chemscore.Hbonds>
donor molecule, donor type, donor heavy atom, donor atom, acceptor molecule, acceptor atom, score
      L1  H    22    46       P1 10175  0.91

> <Gold.Chemscore.Hbond.Weighted>
-3.3226

> <Gold.Chemscore.Metal.Weighted>
-0.0000

> <Gold.Chemscore.Lipo.Weighted>
-9.4052

> <Gold.Chemscore.Internal_Hbond.Weighted>
0.0000

> <Gold.Chemscore.DEClash.Weighted>
1.3690

> <Gold.Chemscore.DEInternal.Weighted>
1.9921

> <Gold.Chemscore.Rot.Weighted>
7.3324

> <Gold.Chemscore.Internal.Correction.Weighted>
   9.000000E+99

> <Gold.Protein.RotatedTorsions>
[ 6907 6896 6895 6894 ] final  -58.78 input  -60.11 | X-H torsion
[ 7974 7965 7964 7962 ] final   90.05 input  175.53 | X-H torsion
[ 8008 7997 7996 7995 ] final   -3.51 input   59.86 | X-H torsion
[ 10167 10162 10161 10158 ] final   51.86 input  -65.29 | X-H torsion
[ 10718 10713 10712 10709 ] final  125.84 input   66.30 | X-H torsion
[ 10763 10752 10751 10750 ] final  -45.46 input  -60.55 | X-H torsion
[ 11005 11000 10999 10996 ] final  -86.76 input  -57.11 | X-H torsion

> <Gold.Protein.ActiveResidues>
 VAL166  LYS551  ARG553  GLY616  TRP617  ASP618  TYR619  PRO620  LYS621  CYS622 
 ASP623  PHE694  ASN695  SER759  ASP760  ASP761  ALA762  ILE779  LEU786  VAL792 
 PHE793  MET794  SER795  GLU796  ALA797  LYS798  CYS799  TRP800  GLU811  SER814 

> <Gold.Protein.RotatedAtoms>
  150.7980  134.7054  159.6573 H   0  0  0  0  0  0  0  0  0  0  0  0  # atno 6907 bound_to 6896
  152.4095  134.6146  160.0044 H   0  0  0  0  0  0  0  0  0  0  0  0  # atno 6908 bound_to 6896
  151.6394  133.3290  159.3163 H   0  0  0  0  0  0  0  0  0  0  0  0  # atno 6909 bound_to 6896
  145.5242  139.2280  143.2655 H   0  0  0  0  0  0  0  0  0  0  0  0  # atno 7974 bound_to 7965
  154.6242  140.2507  155.7512 H   0  0  0  0  0  0  0  0  0  0  0  0  # atno 8008 bound_to 7997
  156.2444  140.2920  156.0483 H   0  0  0  0  0  0  0  0  0  0  0  0  # atno 8009 bound_to 7997
  155.1849  140.0390  157.2879 H   0  0  0  0  0  0  0  0  0  0  0  0  # atno 8010 bound_to 7997
  140.2574  144.3411  150.6328 H   0  0  0  0  0  0  0  0  0  0  0  0  # atno 10167 bound_to 10162
  157.5469  131.1095  150.8766 H   0  0  0  0  0  0  0  0  0  0  0  0  # atno 10718 bound_to 10713
  154.0290  135.6659  153.4779 H   0  0  0  0  0  0  0  0  0  0  0  0  # atno 10763 bound_to 10752
  153.0548  135.5062  154.7951 H   0  0  0  0  0  0  0  0  0  0  0  0  # atno 10764 bound_to 10752
  154.6890  135.3058  154.9471 H   0  0  0  0  0  0  0  0  0  0  0  0  # atno 10765 bound_to 10752
  141.1626  133.7472  156.9207 H   0  0  0  0  0  0  0  0  0  0  0  0  # atno 11005 bound_to 11000
  146.2086  140.6055  142.9069 LP  0  0  0  0  0  0  0  0  0  0  0  0  # atno 17320 bound_to 7965
  144.7660  140.5531  143.6703 LP  0  0  0  0  0  0  0  0  0  0  0  0  # atno 17321 bound_to 7965
  140.5992  143.2167  151.7104 LP  0  0  0  0  0  0  0  0  0  0  0  0  # atno 17342 bound_to 10162
  139.5027  144.3819  152.0368 LP  0  0  0  0  0  0  0  0  0  0  0  0  # atno 17343 bound_to 10162
  156.9302  130.5347  149.5279 LP  0  0  0  0  0  0  0  0  0  0  0  0  # atno 17370 bound_to 10713
  156.0544  130.5608  150.9059 LP  0  0  0  0  0  0  0  0  0  0  0  0  # atno 17371 bound_to 10713
  140.1453  134.9266  157.2521 LP  0  0  0  0  0  0  0  0  0  0  0  0  # atno 17394 bound_to 11000
  140.2787  134.3375  155.7350 LP  0  0  0  0  0  0  0  0  0  0  0  0  # atno 17395 bound_to 11000

$$$$
