AV-unprocessed.smi:1677|AV-procd|sdf|6724|dock4
  -GOLD-   22720 7463D 1   1.00000     0.00000
 Structure written by MMmdl.
 36 37  0  0  0  0  0  0  0  0  1 V2000
  150.1061  139.9870  154.7453 C   0  0  0  0  0  0  0  0  0  0  0  0
  149.0945  141.0131  155.2735 C   0  0  2  0  0  0  0  0  0  0  0  0
  148.3098  141.6744  154.1211 C   0  0  0  0  0  0  0  0  0  0  0  0
  147.0732  142.2897  154.5679 N   0  0  0  0  0  0  0  0  0  0  0  0
  146.1918  143.0469  153.8078 C   0  0  0  0  0  0  0  0  0  0  0  0
  145.1595  143.4056  154.6447 C   0  0  0  0  0  0  0  0  0  0  0  0
  145.3859  142.8880  155.9179 N   0  0  0  0  0  0  0  0  0  0  0  0
  146.5385  142.2426  155.7960 C   0  0  0  0  0  0  0  0  0  0  0  0
  149.8044  142.0203  156.0613 N   0  0  0  0  0  0  0  0  0  0  0  0
  150.6795  141.7692  157.0486 C   0  0  0  0  0  0  0  0  0  0  0  0
  151.0164  140.6327  157.3822 O   0  0  0  0  0  0  0  0  0  0  0  0
  151.2421  142.9884  157.7895 C   0  0  2  0  0  0  0  0  0  0  0  0
  152.4068  142.5906  158.7251 C   0  0  0  0  0  0  0  0  0  0  0  0
  152.8046  143.7220  159.6565 C   0  0  0  0  0  0  0  0  0  0  0  0
  152.0322  144.7981  159.8845 C   0  0  0  0  0  0  0  0  0  0  0  0
  150.6727  145.0032  159.2397 C   0  0  0  0  0  0  0  0  0  0  0  0
  150.1383  143.7163  158.5832 C   0  0  0  0  0  0  0  0  0  0  0  0
  149.6070  139.2002  154.1790 H   0  0  0  0  0  0  0  0  0  0  0  0
  150.6449  139.5096  155.5647 H   0  0  0  0  0  0  0  0  0  0  0  0
  150.8414  140.4537  154.0888 H   0  0  0  0  0  0  0  0  0  0  0  0
  148.3908  140.4716  155.9084 H   0  0  0  0  0  0  0  0  0  0  0  0
  148.9204  142.4298  153.6238 H   0  0  0  0  0  0  0  0  0  0  0  0
  148.0569  140.9302  153.3648 H   0  0  0  0  0  0  0  0  0  0  0  0
  146.3640  143.2552  152.7623 H   0  0  0  0  0  0  0  0  0  0  0  0
  144.2780  143.9913  154.4298 H   0  0  0  0  0  0  0  0  0  0  0  0
  146.9995  141.7135  156.6173 H   0  0  0  0  0  0  0  0  0  0  0  0
  149.5914  142.9861  155.8586 H   0  0  0  0  0  0  0  0  0  0  0  0
  151.6301  143.6891  157.0474 H   0  0  0  0  0  0  0  0  0  0  0  0
  152.1458  141.7282  159.3400 H   0  0  0  0  0  0  0  0  0  0  0  0
  153.2764  142.3063  158.1317 H   0  0  0  0  0  0  0  0  0  0  0  0
  153.7554  143.6269  160.1600 H   0  0  0  0  0  0  0  0  0  0  0  0
  152.3780  145.5757  160.5497 H   0  0  0  0  0  0  0  0  0  0  0  0
  149.9668  145.3570  159.9915 H   0  0  0  0  0  0  0  0  0  0  0  0
  150.7679  145.7944  158.4953 H   0  0  0  0  0  0  0  0  0  0  0  0
  149.2904  143.9567  157.9397 H   0  0  0  0  0  0  0  0  0  0  0  0
  149.7535  143.0539  159.3606 H   0  0  0  0  0  0  0  0  0  0  0  0
  1  2  1  0  0  0  0
  1 18  1  0  0  0  0
  1 19  1  0  0  0  0
  1 20  1  0  0  0  0
  2  3  1  0  0  0  0
  2  9  1  0  0  0  0
  2 21  1  0  0  0  0
  3  4  1  0  0  0  0
  3 22  1  0  0  0  0
  3 23  1  0  0  0  0
  4  8  1  0  0  0  0
  4  5  1  0  0  0  0
  5  6  2  0  0  0  0
  5 24  1  0  0  0  0
  6  7  1  0  0  0  0
  6 25  1  0  0  0  0
  7  8  2  0  0  0  0
  8 26  1  0  0  0  0
  9 10  1  0  0  0  0
  9 27  1  0  0  0  0
 10 11  2  0  0  0  0
 10 12  1  0  0  0  0
 12 17  1  0  0  0  0
 12 13  1  0  0  0  0
 12 28  1  0  0  0  0
 13 14  1  0  0  0  0
 13 29  1  0  0  0  0
 13 30  1  0  0  0  0
 14 15  2  0  0  0  0
 14 31  1  0  0  0  0
 15 16  1  0  0  0  0
 15 32  1  0  0  0  0
 16 17  1  0  0  0  0
 16 33  1  0  0  0  0
 16 34  1  0  0  0  0
 17 35  1  0  0  0  0
 17 36  1  0  0  0  0
M  END
> <s_m_source_file>
AV-unprocessed.smi

> <i_m_source_file_index>
1677

> <i_lp_mmshare_version>
43012

> <i_f3d_flags>
0

> <s_epik_input>
W2NIXTFuW2NIXVtjSF1uMVtDSDJdW0NAQEhdKFtDSDNdKVtOSF1DKD1PKVtDQEBIXTJbQ0gyXVtDSF09W0NIXVtDSDJdW0NIMl0y

> <s_epik_cmdline>
J2VwaWtfcHl0aG9uJywgJy1waCcsICc3LjAnLCAnLXRuJywgJzgnLCAnLW1hJywgJzIwMCcsICctbWV0YWxfYmluZGluZycsICctaW1hZScsICc8aW5maWxlLm1hZT4nLCAnLW9tYWUnLCAnPG91dGZpbGUubWFlPic=

> <r_lp_tautomer_probability>
1

> <r_epik_Ionization_Penalty>
0.640435

> <r_epik_Ionization_Penalty_Charging>
0.640435

> <r_epik_Ionization_Penalty_Neutral>
2.11108e-08

> <r_epik_State_Penalty>
0.658069

> <r_epik_Charging_Adjusted_Penalty>
1.2985

> <i_epik_Tot_Q>
0

> <i_epik_Tot_abs_Q>
0

> <r_epik_Metal_State_Penalty>
0.311689

> <b_epik_Metal_Only>
0

> <s_lp_Force_Field>
OPLS_2005

> <r_lp_Energy>
9.8402

> <b_lp_Chiralities_Consistent>
1

> <s_lp_Variant>
AV-unprocessed.smi:1677-5

> <Gold.Version>
5.8.1

> <Gold.Id.Protein>
6NUR|6NUR_protein|mol2

> <Gold.PLP.Fitness>
43.0895

> <Gold.PLP.PLP>
-40.8795

> <Gold.PLP.part.hbond>
-1.0000

> <Gold.PLP.part.metal>
0.0000

> <Gold.PLP.part.buried>
-3.8013

> <Gold.PLP.part.nonpolar>
-36.0193

> <Gold.PLP.part.repulsive>
0.2435

> <Gold.PLP.ligand.clash>
0.0000

> <Gold.PLP.ligand.torsion>
0.4074

> <Gold.PLP.Chemscore.Hbond>
1.0000

> <Gold.PLP.Chemscore.CHOScore>
0.0000

> <Gold.PLP.Chemscore.Metal>
0.0000

> <Gold.Chemscore.Hbonds>
donor molecule, donor type, donor heavy atom, donor atom, acceptor molecule, acceptor atom, score
      L1  H     9    27       P1  8028  1.00

> <Gold.PLP.Chemscore.Internal.Correction>
0.0248

> <Gold.Rescore>
     Score         DG    S(hbond)    S(metal)    S(lipo)     H(rot)  DE(clash)    DE(int)     intcor
     14.33     -16.00       1.00        0.00      99.63       1.75       0.13       1.55       ----

> <Gold.Chemscore.Fitness>
14.3259

> <Gold.Chemscore.DG>
-16.0020

> <Gold.Chemscore.ZeroCoef>
-5.4800

> <Gold.Chemscore.Hbond>
0.9995

> <Gold.Chemscore.Metal>
0.0000

> <Gold.Chemscore.Lipo>
99.6326

> <Gold.Chemscore.Internal_Hbond>
0.0000

> <Gold.Chemscore.DEClash>
0.1256

> <Gold.Chemscore.DEInternal>
1.5504

> <Gold.Chemscore.Rot>
1.7475

> <Gold.Chemscore.Internal.Correction>
   9.000000E+99

> <Gold.Chemscore.Hbonds>
donor molecule, donor type, donor heavy atom, donor atom, acceptor molecule, acceptor atom, score
      L1  H     9    27       P1  8028  1.00

> <Gold.Chemscore.Hbond.Weighted>
-3.3385

> <Gold.Chemscore.Metal.Weighted>
-0.0000

> <Gold.Chemscore.Lipo.Weighted>
-11.6570

> <Gold.Chemscore.Internal_Hbond.Weighted>
0.0000

> <Gold.Chemscore.DEClash.Weighted>
0.1256

> <Gold.Chemscore.DEInternal.Weighted>
1.5504

> <Gold.Chemscore.Rot.Weighted>
4.4735

> <Gold.Chemscore.Internal.Correction.Weighted>
   9.000000E+99

> <Gold.Protein.RotatedTorsions>
[ 6907 6896 6895 6894 ] final   18.78 input  -60.11 | X-H torsion
[ 7974 7965 7964 7962 ] final  167.34 input  175.53 | X-H torsion
[ 8008 7997 7996 7995 ] final  178.63 input   59.86 | X-H torsion
[ 10167 10162 10161 10158 ] final  147.74 input  -65.29 | X-H torsion
[ 10718 10713 10712 10709 ] final   -9.11 input   66.30 | X-H torsion
[ 10763 10752 10751 10750 ] final  149.84 input  -60.55 | X-H torsion
[ 11005 11000 10999 10996 ] final  -66.04 input  -57.11 | X-H torsion

> <Gold.Protein.ActiveResidues>
 VAL166  LYS551  ARG553  GLY616  TRP617  ASP618  TYR619  PRO620  LYS621  CYS622 
 ASP623  PHE694  ASN695  SER759  ASP760  ASP761  ALA762  ILE779  LEU786  VAL792 
 PHE793  MET794  SER795  GLU796  ALA797  LYS798  CYS799  TRP800  GLU811  SER814 

> <Gold.Protein.RotatedAtoms>
  151.8706  135.0490  160.0478 H   0  0  0  0  0  0  0  0  0  0  0  0  # atno 6907 bound_to 6896
  152.2591  133.5277  159.5379 H   0  0  0  0  0  0  0  0  0  0  0  0  # atno 6908 bound_to 6896
  150.7110  134.0771  159.3927 H   0  0  0  0  0  0  0  0  0  0  0  0  # atno 6909 bound_to 6896
  144.7428  139.8747  143.6391 H   0  0  0  0  0  0  0  0  0  0  0  0  # atno 7974 bound_to 7965
  156.0524  140.1328  157.0034 H   0  0  0  0  0  0  0  0  0  0  0  0  # atno 8008 bound_to 7997
  154.4441  140.1008  156.6467 H   0  0  0  0  0  0  0  0  0  0  0  0  # atno 8009 bound_to 7997
  155.5502  140.3463  155.4469 H   0  0  0  0  0  0  0  0  0  0  0  0  # atno 8010 bound_to 7997
  139.4885  144.5733  151.7014 H   0  0  0  0  0  0  0  0  0  0  0  0  # atno 10167 bound_to 10162
  156.6927  130.5070  149.5939 H   0  0  0  0  0  0  0  0  0  0  0  0  # atno 10718 bound_to 10713
  154.0777  135.2862  155.3296 H   0  0  0  0  0  0  0  0  0  0  0  0  # atno 10763 bound_to 10752
  154.6705  135.5301  153.8135 H   0  0  0  0  0  0  0  0  0  0  0  0  # atno 10764 bound_to 10752
  153.0461  135.6556  154.0954 H   0  0  0  0  0  0  0  0  0  0  0  0  # atno 10765 bound_to 10752
  141.1471  133.6692  156.6079 H   0  0  0  0  0  0  0  0  0  0  0  0  # atno 11005 bound_to 11000
  146.1255  139.4280  143.0201 LP  0  0  0  0  0  0  0  0  0  0  0  0  # atno 17320 bound_to 7965
  145.7241  141.0065  143.1386 LP  0  0  0  0  0  0  0  0  0  0  0  0  # atno 17321 bound_to 7965
  140.5324  144.0709  150.6058 LP  0  0  0  0  0  0  0  0  0  0  0  0  # atno 17342 bound_to 10162
  140.3704  143.2858  152.0285 LP  0  0  0  0  0  0  0  0  0  0  0  0  # atno 17343 bound_to 10162
  156.1785  130.6484  151.0924 LP  0  0  0  0  0  0  0  0  0  0  0  0  # atno 17370 bound_to 10713
  157.7003  131.0778  150.6842 LP  0  0  0  0  0  0  0  0  0  0  0  0  # atno 17371 bound_to 10713
  140.3637  134.7665  157.4552 LP  0  0  0  0  0  0  0  0  0  0  0  0  # atno 17394 bound_to 11000
  140.0764  134.5791  155.8586 LP  0  0  0  0  0  0  0  0  0  0  0  0  # atno 17395 bound_to 11000

$$$$
