AV-unprocessed.smi:2718|AV-procd|sdf|10493|dock2
  -GOLD-   2272014543D 1   1.00000     0.00000
 Structure written by MMmdl.
 47 48  0  0  0  0  0  0  0  0  1 V2000
  152.0108  144.7312  158.8479 C   0  0  0  0  0  0  0  0  0  0  0  0
  152.1152  143.2288  158.6760 C   0  0  0  0  0  0  0  0  0  0  0  0
  153.0286  142.5373  159.6731 C   0  0  0  0  0  0  0  0  0  0  0  0
  151.4432  142.5799  157.7061 C   0  0  0  0  0  0  0  0  0  0  0  0
  151.4675  141.1184  157.4350 C   0  0  1  0  0  0  0  0  0  0  0  0
  150.2228  140.2732  157.6378 C   0  0  2  0  0  0  0  0  0  0  0  0
  150.3647  138.9034  158.2237 C   0  0  0  0  0  0  0  0  0  0  0  0
  151.4461  138.3326  158.3687 O   0  0  0  0  0  0  0  0  0  0  0  0
  149.1949  138.3534  158.5809 N   0  0  0  0  0  0  0  0  0  0  0  0
  149.0174  137.0344  159.1835 C   0  0  0  0  0  0  0  0  0  0  0  0
  147.6504  136.8459  159.8828 C   0  0  1  0  0  0  0  0  0  0  0  0
  146.4903  136.8684  158.8775 C   0  0  0  0  0  0  0  0  0  0  0  0
  147.5982  135.6231  160.7598 C   0  0  0  0  0  0  0  0  0  0  0  0
  147.6722  134.3706  160.2895 N   0  0  0  0  0  0  0  0  0  0  0  0
  147.5847  133.5498  161.3955 N   0  0  0  0  0  0  0  0  0  0  0  0
  147.4493  134.3863  162.4231 C   0  0  0  0  0  0  0  0  0  0  0  0
  147.4405  135.6877  162.0990 N   0  0  0  0  0  0  0  0  0  0  0  0
  147.2913  136.8321  162.9760 C   0  0  0  0  0  0  0  0  0  0  0  0
  150.7505  140.5303  156.2312 C   0  0  0  0  0  0  0  0  0  0  0  0
  149.9021  141.3965  155.3125 C   0  0  0  0  0  0  0  0  0  0  0  0
  151.4659  139.4710  155.4028 C   0  0  0  0  0  0  0  0  0  0  0  0
  151.6281  144.9728  159.8399 H   0  0  0  0  0  0  0  0  0  0  0  0
  151.3417  145.1746  158.1096 H   0  0  0  0  0  0  0  0  0  0  0  0
  152.9920  145.1925  158.7357 H   0  0  0  0  0  0  0  0  0  0  0  0
  154.0459  142.9162  159.5736 H   0  0  0  0  0  0  0  0  0  0  0  0
  153.0585  141.4571  159.5338 H   0  0  0  0  0  0  0  0  0  0  0  0
  152.6897  142.7332  160.6905 H   0  0  0  0  0  0  0  0  0  0  0  0
  150.8120  143.1558  157.0450 H   0  0  0  0  0  0  0  0  0  0  0  0
  152.4235  140.6771  157.7121 H   0  0  0  0  0  0  0  0  0  0  0  0
  149.3051  140.7974  157.9018 H   0  0  0  0  0  0  0  0  0  0  0  0
  148.3553  138.8913  158.4205 H   0  0  0  0  0  0  0  0  0  0  0  0
  149.1748  136.2581  158.4332 H   0  0  0  0  0  0  0  0  0  0  0  0
  149.8165  136.9180  159.9163 H   0  0  0  0  0  0  0  0  0  0  0  0
  147.5115  137.7185  160.5197 H   0  0  0  0  0  0  0  0  0  0  0  0
  145.5286  136.8276  159.3896 H   0  0  0  0  0  0  0  0  0  0  0  0
  146.5401  136.0198  158.1946 H   0  0  0  0  0  0  0  0  0  0  0  0
  146.5071  137.7793  158.2789 H   0  0  0  0  0  0  0  0  0  0  0  0
  147.3470  134.0385  163.4405 H   0  0  0  0  0  0  0  0  0  0  0  0
  147.2623  136.5071  164.0163 H   0  0  0  0  0  0  0  0  0  0  0  0
  146.3642  137.3552  162.7409 H   0  0  0  0  0  0  0  0  0  0  0  0
  148.1308  137.5142  162.8443 H   0  0  0  0  0  0  0  0  0  0  0  0
  149.1853  140.7810  154.7682 H   0  0  0  0  0  0  0  0  0  0  0  0
  150.5323  141.9176  154.5912 H   0  0  0  0  0  0  0  0  0  0  0  0
  149.3447  142.1428  155.8791 H   0  0  0  0  0  0  0  0  0  0  0  0
  150.7473  138.7527  155.0082 H   0  0  0  0  0  0  0  0  0  0  0  0
  152.2094  138.9352  155.9918 H   0  0  0  0  0  0  0  0  0  0  0  0
  151.9866  139.9341  154.5643 H   0  0  0  0  0  0  0  0  0  0  0  0
  1  2  1  0  0  0  0
  1 22  1  0  0  0  0
  1 23  1  0  0  0  0
  1 24  1  0  0  0  0
  2  3  1  0  0  0  0
  2  4  2  0  0  0  0
  3 25  1  0  0  0  0
  3 26  1  0  0  0  0
  3 27  1  0  0  0  0
  4  5  1  0  0  0  0
  4 28  1  0  0  0  0
  5 19  1  0  0  0  0
  5  6  1  0  0  0  0
  5 29  1  0  0  0  0
  6  7  1  0  0  0  0
  6 19  1  0  0  0  0
  6 30  1  0  0  0  0
  7  8  2  0  0  0  0
  7  9  1  0  0  0  0
  9 10  1  0  0  0  0
  9 31  1  0  0  0  0
 10 11  1  0  0  0  0
 10 32  1  0  0  0  0
 10 33  1  0  0  0  0
 11 12  1  0  0  0  0
 11 13  1  0  0  0  0
 11 34  1  0  0  0  0
 12 35  1  0  0  0  0
 12 36  1  0  0  0  0
 12 37  1  0  0  0  0
 13 17  1  0  0  0  0
 13 14  2  0  0  0  0
 14 15  1  0  0  0  0
 15 16  2  0  0  0  0
 16 17  1  0  0  0  0
 16 38  1  0  0  0  0
 17 18  1  0  0  0  0
 18 39  1  0  0  0  0
 18 40  1  0  0  0  0
 18 41  1  0  0  0  0
 19 20  1  0  0  0  0
 19 21  1  0  0  0  0
 20 42  1  0  0  0  0
 20 43  1  0  0  0  0
 20 44  1  0  0  0  0
 21 45  1  0  0  0  0
 21 46  1  0  0  0  0
 21 47  1  0  0  0  0
M  END
> <s_m_source_file>
AV-unprocessed.smi

> <i_m_source_file_index>
2718

> <i_lp_mmshare_version>
43012

> <i_f3d_flags>
0

> <s_epik_input>
W0NIM11DKFtDSDNdKT1bQ0hdW0NAQEhdKEMxKFtDSDNdKVtDSDNdKVtDQEhdMUMoPU8pW05IXVtDSDJdW0NASF0oW0NIM10pYzJubltjSF1uMltDSDNd

> <s_epik_cmdline>
J2VwaWtfcHl0aG9uJywgJy1waCcsICc3LjAnLCAnLXRuJywgJzgnLCAnLW1hJywgJzIwMCcsICctbWV0YWxfYmluZGluZycsICctaW1hZScsICc8aW5maWxlLm1hZT4nLCAnLW9tYWUnLCAnPG91dGZpbGUubWFlPic=

> <r_lp_tautomer_probability>
1

> <r_epik_Ionization_Penalty>
0.000449586

> <r_epik_Ionization_Penalty_Charging>
0

> <r_epik_Ionization_Penalty_Neutral>
0.000449586

> <r_epik_State_Penalty>
0.000243372

> <r_epik_Charging_Adjusted_Penalty>
0.000243372

> <i_epik_Tot_Q>
0

> <i_epik_Tot_abs_Q>
0

> <r_epik_Metal_State_Penalty>
-0

> <b_epik_Metal_Only>
0

> <s_lp_Force_Field>
OPLS_2005

> <r_lp_Energy>
15.3902

> <b_lp_Chiralities_Consistent>
1

> <s_lp_Variant>
AV-unprocessed.smi:2718-8

> <Gold.Version>
5.8.1

> <Gold.Id.Protein>
6NUR|6NUR_protein|mol2

> <Gold.PLP.Fitness>
44.7900

> <Gold.PLP.PLP>
-45.2407

> <Gold.PLP.part.hbond>
0.0000

> <Gold.PLP.part.metal>
0.0000

> <Gold.PLP.part.buried>
-5.5148

> <Gold.PLP.part.nonpolar>
-39.9979

> <Gold.PLP.part.repulsive>
0.1960

> <Gold.PLP.ligand.clash>
0.0000

> <Gold.PLP.ligand.torsion>
0.3647

> <Gold.PLP.Chemscore.Hbond>
0.0000

> <Gold.PLP.Chemscore.CHOScore>
0.0000

> <Gold.PLP.Chemscore.Metal>
0.0000

> <Gold.PLP.Chemscore.Internal.Correction>
0.2788

> <Gold.Rescore>
     Score         DG    S(hbond)    S(metal)    S(lipo)     H(rot)  DE(clash)    DE(int)     intcor
     11.80     -12.10       0.00        0.00      99.34       1.95       0.00       0.30       ----

> <Gold.Chemscore.Fitness>
11.7969

> <Gold.Chemscore.DG>
-12.1025

> <Gold.Chemscore.ZeroCoef>
-5.4800

> <Gold.Chemscore.Hbond>
0.0000

> <Gold.Chemscore.Metal>
0.0000

> <Gold.Chemscore.Lipo>
99.3426

> <Gold.Chemscore.Internal_Hbond>
0.0000

> <Gold.Chemscore.DEClash>
0.0015

> <Gold.Chemscore.DEInternal>
0.3041

> <Gold.Chemscore.Rot>
1.9533

> <Gold.Chemscore.Internal.Correction>
   9.000000E+99

> <Gold.Chemscore.Hbond.Weighted>
-0.0000

> <Gold.Chemscore.Metal.Weighted>
-0.0000

> <Gold.Chemscore.Lipo.Weighted>
-11.6231

> <Gold.Chemscore.Internal_Hbond.Weighted>
0.0000

> <Gold.Chemscore.DEClash.Weighted>
0.0015

> <Gold.Chemscore.DEInternal.Weighted>
0.3041

> <Gold.Chemscore.Rot.Weighted>
5.0005

> <Gold.Chemscore.Internal.Correction.Weighted>
   9.000000E+99

> <Gold.Protein.RotatedTorsions>
[ 6907 6896 6895 6894 ] final -131.51 input  -60.11 | X-H torsion
[ 7974 7965 7964 7962 ] final   81.72 input  175.53 | X-H torsion
[ 8008 7997 7996 7995 ] final  -34.42 input   59.86 | X-H torsion
[ 10167 10162 10161 10158 ] final   84.60 input  -65.29 | X-H torsion
[ 10718 10713 10712 10709 ] final   92.11 input   66.30 | X-H torsion
[ 10763 10752 10751 10750 ] final  138.52 input  -60.55 | X-H torsion
[ 11005 11000 10999 10996 ] final   -4.15 input  -57.11 | X-H torsion

> <Gold.Protein.ActiveResidues>
 VAL166  LYS551  ARG553  GLY616  TRP617  ASP618  TYR619  PRO620  LYS621  CYS622 
 ASP623  PHE694  ASN695  SER759  ASP760  ASP761  ALA762  ILE779  LEU786  VAL792 
 PHE793  MET794  SER795  GLU796  ALA797  LYS798  CYS799  TRP800  GLU811  SER814 

> <Gold.Protein.RotatedAtoms>
  150.9518  133.6541  159.2770 H   0  0  0  0  0  0  0  0  0  0  0  0  # atno 6907 bound_to 6896
  151.3894  135.0952  159.9531 H   0  0  0  0  0  0  0  0  0  0  0  0  # atno 6908 bound_to 6896
  152.5113  133.9036  159.7508 H   0  0  0  0  0  0  0  0  0  0  0  0  # atno 6909 bound_to 6896
  145.6345  139.2412  143.2066 H   0  0  0  0  0  0  0  0  0  0  0  0  # atno 7974 bound_to 7965
  154.4121  140.1684  156.2047 H   0  0  0  0  0  0  0  0  0  0  0  0  # atno 8008 bound_to 7997
  155.9494  140.3402  155.6372 H   0  0  0  0  0  0  0  0  0  0  0  0  # atno 8009 bound_to 7997
  155.6888  140.0731  157.2447 H   0  0  0  0  0  0  0  0  0  0  0  0  # atno 8010 bound_to 7997
  139.9063  144.6299  150.8584 H   0  0  0  0  0  0  0  0  0  0  0  0  # atno 10167 bound_to 10162
  157.6959  131.0431  150.3832 H   0  0  0  0  0  0  0  0  0  0  0  0  # atno 10718 bound_to 10713
  153.8909  135.3033  155.3447 H   0  0  0  0  0  0  0  0  0  0  0  0  # atno 10763 bound_to 10752
  154.7717  135.4882  153.9665 H   0  0  0  0  0  0  0  0  0  0  0  0  # atno 10764 bound_to 10752
  153.1298  135.6801  153.9295 H   0  0  0  0  0  0  0  0  0  0  0  0  # atno 10765 bound_to 10752
  140.6771  133.9186  155.8531 H   0  0  0  0  0  0  0  0  0  0  0  0  # atno 11005 bound_to 11000
  146.1330  140.7160  142.9403 LP  0  0  0  0  0  0  0  0  0  0  0  0  # atno 17320 bound_to 7965
  144.7181  140.4279  143.7029 LP  0  0  0  0  0  0  0  0  0  0  0  0  # atno 17321 bound_to 7965
  140.7695  143.3399  151.2231 LP  0  0  0  0  0  0  0  0  0  0  0  0  # atno 17342 bound_to 10162
  139.6981  143.9579  152.2892 LP  0  0  0  0  0  0  0  0  0  0  0  0  # atno 17343 bound_to 10162
  156.4243  130.3959  149.6803 LP  0  0  0  0  0  0  0  0  0  0  0  0  # atno 17370 bound_to 10713
  156.4043  130.7690  151.2700 LP  0  0  0  0  0  0  0  0  0  0  0  0  # atno 17371 bound_to 10713
  141.0347  134.0707  157.3973 LP  0  0  0  0  0  0  0  0  0  0  0  0  # atno 17394 bound_to 11000
  139.8963  135.0145  156.7046 LP  0  0  0  0  0  0  0  0  0  0  0  0  # atno 17395 bound_to 11000

$$$$
