AV-unprocessed.smi:40|AV-procd|sdf|370|dock6
  -GOLD-   2262016213D 1   1.00000     0.00000
 Structure written by MMmdl.
 47 48  0  0  0  0  0  0  0  0  1 V2000
  151.0274  144.6987  158.2616 C   0  0  0  0  0  0  0  0  0  0  0  0
  151.8984  145.0483  159.4752 C   0  0  0  0  0  0  0  0  0  0  0  0
  152.3997  143.8202  160.2524 C   0  0  0  0  0  0  0  0  0  0  0  0
  153.2927  142.8796  159.4225 C   0  0  0  0  0  0  0  0  0  0  0  0
  153.4866  141.5056  160.0786 C   0  0  0  0  0  0  0  0  0  0  0  0
  152.3285  140.7215  159.8535 O   0  0  0  0  0  0  0  0  0  0  0  0
  152.3284  139.7413  158.9305 C   0  0  0  0  0  0  0  0  0  0  0  0
  153.0387  139.7315  157.9256 O   0  0  0  0  0  0  0  0  0  0  0  0
  151.3500  138.7270  159.2680 N   0  0  0  0  0  0  0  0  0  0  0  0
  151.0965  137.6107  158.5516 C   0  0  0  0  0  0  0  0  0  0  0  0
  152.1282  136.9071  158.1232 N   0  0  0  0  0  0  0  0  0  0  0  0
  152.0090  135.7786  157.3563 C   0  0  0  0  0  0  0  0  0  0  0  0
  153.0077  135.1827  156.9554 O   0  0  0  0  0  0  0  0  0  0  0  0
  150.7009  135.3460  157.0325 N   0  0  0  0  0  0  0  0  0  0  0  0
  150.5181  134.1262  156.1570 C   0  0  1  0  0  0  0  0  0  0  0  0
  149.6813  133.2240  156.8179 O   0  0  0  0  0  0  0  0  0  0  0  0
  148.7197  132.7089  155.9046 C   0  0  1  0  0  0  0  0  0  0  0  0
  147.4820  132.1728  156.6396 C   0  0  0  0  0  0  0  0  0  0  0  0
  148.4833  133.8499  154.9068 C   0  0  1  0  0  0  0  0  0  0  0  0
  147.5203  134.7658  155.4011 O   0  0  0  0  0  0  0  0  0  0  0  0
  149.8771  134.4610  154.7913 C   0  0  1  0  0  0  0  0  0  0  0  0
  149.8625  135.8335  154.4321 O   0  0  0  0  0  0  0  0  0  0  0  0
  149.6056  136.0607  157.4936 C   0  0  0  0  0  0  0  0  0  0  0  0
  149.7470  137.1752  158.2407 C   0  0  0  0  0  0  0  0  0  0  0  0
  148.6663  137.8455  158.6772 F   0  0  0  0  0  0  0  0  0  0  0  0
  151.5010  133.6639  156.0572 H   0  0  0  0  0  0  0  0  0  0  0  0
  149.1959  131.8833  155.3726 H   0  0  0  0  0  0  0  0  0  0  0  0
  148.1288  133.4765  153.9455 H   0  0  0  0  0  0  0  0  0  0  0  0
  150.4411  133.9145  154.0343 H   0  0  0  0  0  0  0  0  0  0  0  0
  150.6466  145.6035  157.7872 H   0  0  0  0  0  0  0  0  0  0  0  0
  150.1701  144.0918  158.5538 H   0  0  0  0  0  0  0  0  0  0  0  0
  151.5900  144.1471  157.5088 H   0  0  0  0  0  0  0  0  0  0  0  0
  152.7453  145.6585  159.1595 H   0  0  0  0  0  0  0  0  0  0  0  0
  151.3136  145.6729  160.1512 H   0  0  0  0  0  0  0  0  0  0  0  0
  152.9633  144.1755  161.1161 H   0  0  0  0  0  0  0  0  0  0  0  0
  151.5503  143.2665  160.6542 H   0  0  0  0  0  0  0  0  0  0  0  0
  152.8529  142.7320  158.4365 H   0  0  0  0  0  0  0  0  0  0  0  0
  154.2664  143.3426  159.2585 H   0  0  0  0  0  0  0  0  0  0  0  0
  154.3645  141.0058  159.6671 H   0  0  0  0  0  0  0  0  0  0  0  0
  153.6460  141.6237  161.1512 H   0  0  0  0  0  0  0  0  0  0  0  0
  150.8964  138.8459  160.1617 H   0  0  0  0  0  0  0  0  0  0  0  0
  146.7315  131.8160  155.9341 H   0  0  0  0  0  0  0  0  0  0  0  0
  147.0215  132.9378  157.2650 H   0  0  0  0  0  0  0  0  0  0  0  0
  147.7506  131.3395  157.2890 H   0  0  0  0  0  0  0  0  0  0  0  0
  147.2802  135.3551  154.7028 H   0  0  0  0  0  0  0  0  0  0  0  0
  149.0967  135.9952  153.9021 H   0  0  0  0  0  0  0  0  0  0  0  0
  148.6047  135.7336  157.2546 H   0  0  0  0  0  0  0  0  0  0  0  0
  1  2  1  0  0  0  0
  1 30  1  0  0  0  0
  1 31  1  0  0  0  0
  1 32  1  0  0  0  0
  2  3  1  0  0  0  0
  2 33  1  0  0  0  0
  2 34  1  0  0  0  0
  3  4  1  0  0  0  0
  3 35  1  0  0  0  0
  3 36  1  0  0  0  0
  4  5  1  0  0  0  0
  4 37  1  0  0  0  0
  4 38  1  0  0  0  0
  5  6  1  0  0  0  0
  5 39  1  0  0  0  0
  5 40  1  0  0  0  0
  6  7  1  0  0  0  0
  7  8  2  0  0  0  0
  7  9  1  0  0  0  0
  9 10  1  0  0  0  0
  9 41  1  0  0  0  0
 10 24  1  0  0  0  0
 10 11  2  0  0  0  0
 11 12  1  0  0  0  0
 12 13  2  0  0  0  0
 12 14  1  0  0  0  0
 14 15  1  0  0  0  0
 14 23  1  0  0  0  0
 15 26  1  0  0  0  0
 15 21  1  0  0  0  0
 15 16  1  0  0  0  0
 16 17  1  0  0  0  0
 17 27  1  0  0  0  0
 17 18  1  0  0  0  0
 17 19  1  0  0  0  0
 18 42  1  0  0  0  0
 18 43  1  0  0  0  0
 18 44  1  0  0  0  0
 19 28  1  0  0  0  0
 19 20  1  0  0  0  0
 19 21  1  0  0  0  0
 20 45  1  0  0  0  0
 21 29  1  0  0  0  0
 21 22  1  0  0  0  0
 22 46  1  0  0  0  0
 23 24  2  0  0  0  0
 23 47  1  0  0  0  0
 24 25  1  0  0  0  0
M  END
> <s_m_source_file>
AV-unprocessed.smi

> <i_m_source_file_index>
40

> <i_lp_mmshare_version>
43012

> <i_f3d_flags>
0

> <s_epik_input>
W0NIM11bQ0gyXVtDSDJdW0NIMl1bQ0gyXU9DKD1PKVtOSF1jMW5jKD1PKW4oW2NIXWMxRilbQ0BASF0yT1tDQEhdKFtDSDNdKVtDQEBIXShbT0hdKVtDQEhdMltPSF0=

> <s_epik_cmdline>
J2VwaWtfcHl0aG9uJywgJy1waCcsICc3LjAnLCAnLXRuJywgJzgnLCAnLW1hJywgJzIwMCcsICctbWV0YWxfYmluZGluZycsICctaW1hZScsICc8aW5maWxlLm1hZT4nLCAnLW9tYWUnLCAnPG91dGZpbGUubWFlPic=

> <r_lp_tautomer_probability>
1

> <r_epik_Ionization_Penalty>
2.29506e-06

> <r_epik_Ionization_Penalty_Charging>
8.26867e-09

> <r_epik_Ionization_Penalty_Neutral>
2.2868e-06

> <r_epik_State_Penalty>
-0

> <r_epik_Charging_Adjusted_Penalty>
8.26867e-09

> <i_epik_Tot_Q>
0

> <i_epik_Tot_abs_Q>
0

> <r_epik_Metal_State_Penalty>
-0

> <b_epik_Metal_Only>
0

> <s_epik_Chemistry_Notes>
This compound has an ester and may undergo hydrolysis at high or low pH. This compound contains an acetal/aminal-like group ( X-CH(R)-Y where X, Y are N, S, or O) that may be acid/base labile, releasing an aldehyde.

> <s_lp_Force_Field>
OPLS_2005

> <r_lp_Energy>
45.3247

> <b_lp_Chiralities_Consistent>
1

> <s_lp_Variant>
AV-unprocessed.smi:40-4

> <Gold.Version>
5.8.1

> <Gold.Id.Protein>
6NUR|6NUR_protein|mol2

> <Gold.PLP.Fitness>
42.0975

> <Gold.PLP.PLP>
-35.5009

> <Gold.PLP.part.hbond>
-4.3343

> <Gold.PLP.part.metal>
0.0000

> <Gold.PLP.part.buried>
-2.2128

> <Gold.PLP.part.nonpolar>
-28.6284

> <Gold.PLP.part.repulsive>
0.1660

> <Gold.PLP.ligand.clash>
0.0000

> <Gold.PLP.ligand.torsion>
1.2513

> <Gold.PLP.Chemscore.Hbond>
3.0000

> <Gold.PLP.Chemscore.CHOScore>
0.0000

> <Gold.PLP.Chemscore.Metal>
0.0000

> <Gold.Chemscore.Hbonds>
donor molecule, donor type, donor heavy atom, donor atom, acceptor molecule, acceptor atom, score
      L1  H    22    46       P1  7948  0.55
      P1  H  7997  8010       L1     8  1.00
      P1  H 10752 10764       L1    13  1.00

> <Gold.PLP.Chemscore.Internal.Correction>
0.0992

> <Gold.Rescore>
     Score         DG    S(hbond)    S(metal)    S(lipo)     H(rot)  DE(clash)    DE(int)     intcor
      9.82     -13.70       2.46        0.00      80.99       3.70       1.00       2.88       ----

> <Gold.Chemscore.Fitness>
9.8228

> <Gold.Chemscore.DG>
-13.6958

> <Gold.Chemscore.ZeroCoef>
-5.4800

> <Gold.Chemscore.Hbond>
2.4553

> <Gold.Chemscore.Metal>
0.0000

> <Gold.Chemscore.Lipo>
80.9904

> <Gold.Chemscore.Internal_Hbond>
0.0000

> <Gold.Chemscore.DEClash>
0.9972

> <Gold.Chemscore.DEInternal>
2.8758

> <Gold.Chemscore.Rot>
3.6957

> <Gold.Chemscore.Internal.Correction>
   9.000000E+99

> <Gold.Chemscore.Hbonds>
donor molecule, donor type, donor heavy atom, donor atom, acceptor molecule, acceptor atom, score
      L1  H    22    46       P1  7948  0.48
      P1  H  7997  8010       L1     8  0.99
      P1  H 10752 10764       L1    13  0.99

> <Gold.Chemscore.Hbond.Weighted>
-8.2008

> <Gold.Chemscore.Metal.Weighted>
-0.0000

> <Gold.Chemscore.Lipo.Weighted>
-9.4759

> <Gold.Chemscore.Internal_Hbond.Weighted>
0.0000

> <Gold.Chemscore.DEClash.Weighted>
0.9972

> <Gold.Chemscore.DEInternal.Weighted>
2.8758

> <Gold.Chemscore.Rot.Weighted>
9.4610

> <Gold.Chemscore.Internal.Correction.Weighted>
   9.000000E+99

> <Gold.Protein.RotatedTorsions>
[ 6907 6896 6895 6894 ] final  158.52 input  -60.11 | X-H torsion
[ 7974 7965 7964 7962 ] final  -69.12 input  175.53 | X-H torsion
[ 8008 7997 7996 7995 ] final   30.81 input   59.86 | X-H torsion
[ 10167 10162 10161 10158 ] final -172.13 input  -65.29 | X-H torsion
[ 10718 10713 10712 10709 ] final -110.01 input   66.30 | X-H torsion
[ 10763 10752 10751 10750 ] final    0.47 input  -60.55 | X-H torsion
[ 11005 11000 10999 10996 ] final  -96.97 input  -57.11 | X-H torsion

> <Gold.Protein.ActiveResidues>
 VAL166  LYS551  ARG553  GLY616  TRP617  ASP618  TYR619  PRO620  LYS621  CYS622 
 ASP623  PHE694  ASN695  SER759  ASP760  ASP761  ALA762  ILE779  LEU786  VAL792 
 PHE793  MET794  SER795  GLU796  ALA797  LYS798  CYS799  TRP800  GLU811  SER814 

> <Gold.Protein.RotatedAtoms>
  151.9992  133.3819  159.4174 H   0  0  0  0  0  0  0  0  0  0  0  0  # atno 6907 bound_to 6896
  150.6912  134.3853  159.5061 H   0  0  0  0  0  0  0  0  0  0  0  0  # atno 6908 bound_to 6896
  152.1597  134.8921  160.0593 H   0  0  0  0  0  0  0  0  0  0  0  0  # atno 6909 bound_to 6896
  145.7078  140.9090  143.0696 H   0  0  0  0  0  0  0  0  0  0  0  0  # atno 7974 bound_to 7965
  155.0964  140.3225  155.4559 H   0  0  0  0  0  0  0  0  0  0  0  0  # atno 8008 bound_to 7997
  156.2729  140.2069  156.6037 H   0  0  0  0  0  0  0  0  0  0  0  0  # atno 8009 bound_to 7997
  154.6863  140.0521  157.0305 H   0  0  0  0  0  0  0  0  0  0  0  0  # atno 8010 bound_to 7997
  139.5762  144.1527  152.1453 H   0  0  0  0  0  0  0  0  0  0  0  0  # atno 10167 bound_to 10162
  156.0568  130.5793  150.8179 H   0  0  0  0  0  0  0  0  0  0  0  0  # atno 10718 bound_to 10713
  153.3203  135.6968  153.7036 H   0  0  0  0  0  0  0  0  0  0  0  0  # atno 10763 bound_to 10752
  153.5879  135.3485  155.2900 H   0  0  0  0  0  0  0  0  0  0  0  0  # atno 10764 bound_to 10752
  154.8596  135.4310  154.2365 H   0  0  0  0  0  0  0  0  0  0  0  0  # atno 10765 bound_to 10752
  141.1394  133.8136  157.0643 H   0  0  0  0  0  0  0  0  0  0  0  0  # atno 11005 bound_to 11000
  144.6950  139.9034  143.7460 LP  0  0  0  0  0  0  0  0  0  0  0  0  # atno 17320 bound_to 7965
  146.0740  139.3728  143.0505 LP  0  0  0  0  0  0  0  0  0  0  0  0  # atno 17321 bound_to 7965
  140.1070  144.5490  150.6950 LP  0  0  0  0  0  0  0  0  0  0  0  0  # atno 17342 bound_to 10162
  140.7044  143.2457  151.4769 LP  0  0  0  0  0  0  0  0  0  0  0  0  # atno 17343 bound_to 10162
  157.5544  131.0944  150.9650 LP  0  0  0  0  0  0  0  0  0  0  0  0  # atno 17370 bound_to 10713
  156.9902  130.5560  149.5302 LP  0  0  0  0  0  0  0  0  0  0  0  0  # atno 17371 bound_to 10713
  140.0551  134.9784  157.1207 LP  0  0  0  0  0  0  0  0  0  0  0  0  # atno 17394 bound_to 11000
  140.3931  134.2163  155.7165 LP  0  0  0  0  0  0  0  0  0  0  0  0  # atno 17395 bound_to 11000

$$$$
