AV-unprocessed.smi:157|AV-procd|sdf|1292|dock5
  -GOLD-   2262018573D 1   1.00000     0.00000
 Structure written by MMmdl.
 35 37  0  0  0  0  0  0  0  0  1 V2000
  151.1074  145.0605  160.3304 O   0  0  0  0  0  0  0  0  0  0  0  0
  152.1344  144.9439  159.3688 C   0  0  0  0  0  0  0  0  0  0  0  0
  152.2376  143.4935  158.8654 C   0  0  2  0  0  0  0  0  0  0  0  0
  151.0104  143.0702  158.2792 O   0  0  0  0  0  0  0  0  0  0  0  0
  150.8379  141.6938  158.4518 C   0  0  1  0  0  0  0  0  0  0  0  0
  150.7647  141.0470  157.1029 N   0  0  0  0  0  0  0  0  0  0  0  0
  150.5080  141.6614  155.9404 C   0  0  0  0  0  0  0  0  0  0  0  0
  150.5090  140.8646  154.8853 N   0  0  0  0  0  0  0  0  0  0  0  0
  150.7937  139.6071  155.4146 C   0  0  0  0  0  0  0  0  0  0  0  0
  150.9590  139.6987  156.7894 C   0  0  0  0  0  0  0  0  0  0  0  0
  151.2620  138.8237  157.8149 N   0  0  0  0  0  0  0  0  0  0  0  0
  151.0792  137.5580  157.6063 C   0  0  0  0  0  0  0  0  0  0  0  0
  150.7044  136.8875  156.4508 N   0  0  0  0  0  0  0  0  0  0  0  0
  151.3354  137.1132  155.1616 C   0  0  0  0  0  0  0  0  0  0  0  0
  150.9124  138.4273  154.4928 C   0  0  1  0  0  0  0  0  0  0  0  0
  149.6504  138.2527  153.8813 O   0  0  0  0  0  0  0  0  0  0  0  0
  152.0498  141.1651  159.2260 C   0  0  0  0  0  0  0  0  0  0  0  0
  152.5611  142.4160  159.9101 C   0  0  2  0  0  0  0  0  0  0  0  0
  151.8859  142.6313  161.1352 O   0  0  0  0  0  0  0  0  0  0  0  0
  152.9895  143.4437  158.0758 H   0  0  0  0  0  0  0  0  0  0  0  0
  149.8814  141.5018  158.9386 H   0  0  0  0  0  0  0  0  0  0  0  0
  151.6205  138.6512  153.6945 H   0  0  0  0  0  0  0  0  0  0  0  0
  153.6311  142.3586  160.1128 H   0  0  0  0  0  0  0  0  0  0  0  0
  151.3183  145.7782  160.9080 H   0  0  0  0  0  0  0  0  0  0  0  0
  151.9551  145.6414  158.5504 H   0  0  0  0  0  0  0  0  0  0  0  0
  153.0738  145.2403  159.8361 H   0  0  0  0  0  0  0  0  0  0  0  0
  150.3202  142.7222  155.8635 H   0  0  0  0  0  0  0  0  0  0  0  0
  151.2385  136.8677  158.4359 H   0  0  0  0  0  0  0  0  0  0  0  0
  150.3690  135.9387  156.5328 H   0  0  0  0  0  0  0  0  0  0  0  0
  152.4130  137.1368  155.3299 H   0  0  0  0  0  0  0  0  0  0  0  0
  151.1498  136.2644  154.5026 H   0  0  0  0  0  0  0  0  0  0  0  0
  149.6692  137.4435  153.3933 H   0  0  0  0  0  0  0  0  0  0  0  0
  151.7697  140.3589  159.9052 H   0  0  0  0  0  0  0  0  0  0  0  0
  152.8001  140.7912  158.5272 H   0  0  0  0  0  0  0  0  0  0  0  0
  151.6889  143.5527  161.2087 H   0  0  0  0  0  0  0  0  0  0  0  0
  1  2  1  0  0  0  0
  1 24  1  0  0  0  0
  2  3  1  0  0  0  0
  2 25  1  0  0  0  0
  2 26  1  0  0  0  0
  3 20  1  0  0  0  0
  3 18  1  0  0  0  0
  3  4  1  0  0  0  0
  4  5  1  0  0  0  0
  5 21  1  0  0  0  0
  5  6  1  0  0  0  0
  5 17  1  0  0  0  0
  6 10  1  0  0  0  0
  6  7  1  0  0  0  0
  7  8  2  0  0  0  0
  7 27  1  0  0  0  0
  8  9  1  0  0  0  0
  9 15  1  0  0  0  0
  9 10  2  0  0  0  0
 10 11  1  0  0  0  0
 11 12  2  0  0  0  0
 12 13  1  0  0  0  0
 12 28  1  0  0  0  0
 13 14  1  0  0  0  0
 13 29  1  0  0  0  0
 14 15  1  0  0  0  0
 14 30  1  0  0  0  0
 14 31  1  0  0  0  0
 15 22  1  0  0  0  0
 15 16  1  0  0  0  0
 16 32  1  0  0  0  0
 17 18  1  0  0  0  0
 17 33  1  0  0  0  0
 17 34  1  0  0  0  0
 18 23  1  0  0  0  0
 18 19  1  0  0  0  0
 19 35  1  0  0  0  0
M  END
> <s_m_source_file>
AV-unprocessed.smi

> <i_m_source_file_index>
157

> <i_lp_mmshare_version>
43012

> <i_f3d_flags>
0

> <s_epik_input>
W09IXVtDSDJdW0NASF0xT1tDQEhdKFtDSDJdW0NAQEhdMVtPSF0pbihbY0hdbjIpYyhjMjMpTj1bQ0hdW05IXVtDSDJdW0NASF0zW09IXQ==

> <s_epik_cmdline>
J2VwaWtfcHl0aG9uJywgJy1waCcsICc3LjAnLCAnLXRuJywgJzgnLCAnLW1hJywgJzIwMCcsICctbWV0YWxfYmluZGluZycsICctaW1hZScsICc8aW5maWxlLm1hZT4nLCAnLW9tYWUnLCAnPG91dGZpbGUubWFlPic=

> <r_lp_tautomer_probability>
1

> <r_epik_Ionization_Penalty>
0.0357149

> <r_epik_Ionization_Penalty_Charging>
0.0355056

> <r_epik_Ionization_Penalty_Neutral>
0.000209255

> <r_epik_State_Penalty>
0.0296046

> <r_epik_Charging_Adjusted_Penalty>
0.0651102

> <i_epik_Tot_Q>
0

> <i_epik_Tot_abs_Q>
0

> <r_epik_Metal_State_Penalty>
3.03559e-05

> <b_epik_Metal_Only>
0

> <s_epik_Chemistry_Notes>
This compound has an imine and may undergo hydrolysis. This compound contains an acetal/aminal-like group ( X-CH(R)-Y where X, Y are N, S, or O) that may be acid/base labile, releasing an aldehyde.

> <s_lp_Force_Field>
OPLS_2005

> <r_lp_Energy>
45.9661

> <b_lp_Chiralities_Consistent>
1

> <s_lp_Variant>
AV-unprocessed.smi:157-2

> <Gold.Version>
5.8.1

> <Gold.Id.Protein>
6NUR|6NUR_protein|mol2

> <Gold.PLP.Fitness>
43.2153

> <Gold.PLP.PLP>
-35.2602

> <Gold.PLP.part.hbond>
-3.6835

> <Gold.PLP.part.metal>
0.0000

> <Gold.PLP.part.buried>
-5.3617

> <Gold.PLP.part.nonpolar>
-26.7120

> <Gold.PLP.part.repulsive>
0.2688

> <Gold.PLP.ligand.clash>
0.0000

> <Gold.PLP.ligand.torsion>
0.4712

> <Gold.PLP.Chemscore.Hbond>
1.9640

> <Gold.PLP.Chemscore.CHOScore>
1.0000

> <Gold.PLP.Chemscore.Metal>
0.0000

> <Gold.Chemscore.Hbonds>
donor molecule, donor type, donor heavy atom, donor atom, acceptor molecule, acceptor atom, score
      L1  H    16    32       P1  7948  0.96
      P1  H  6933  6945       L1    19  0.14
      P1  H  7989  7998       L1     8  0.80
      L1  C     7    27       P1  8028  1.00

> <Gold.PLP.Chemscore.Internal.Correction>
0.0055

> <Gold.Rescore>
     Score         DG    S(hbond)    S(metal)    S(lipo)     H(rot)  DE(clash)    DE(int)     intcor
     10.21     -10.30       2.20        0.00      57.78       3.64       0.05       0.04       ----

> <Gold.Chemscore.Fitness>
10.2071

> <Gold.Chemscore.DG>
-10.2959

> <Gold.Chemscore.ZeroCoef>
-5.4800

> <Gold.Chemscore.Hbond>
2.2047

> <Gold.Chemscore.Metal>
0.0000

> <Gold.Chemscore.Lipo>
57.7845

> <Gold.Chemscore.Internal_Hbond>
0.0000

> <Gold.Chemscore.DEClash>
0.0456

> <Gold.Chemscore.DEInternal>
0.0433

> <Gold.Chemscore.Rot>
3.6362

> <Gold.Chemscore.Internal.Correction>
   9.000000E+99

> <Gold.Chemscore.Hbonds>
donor molecule, donor type, donor heavy atom, donor atom, acceptor molecule, acceptor atom, score
      L1  H    16    32       P1  7948  0.68
      P1  H  6933  6945       L1    19  0.03
      P1  H  7989  7998       L1     8  0.24

> <Gold.Chemscore.Hbond.Weighted>
-7.3639

> <Gold.Chemscore.Metal.Weighted>
-0.0000

> <Gold.Chemscore.Lipo.Weighted>
-6.7608

> <Gold.Chemscore.Internal_Hbond.Weighted>
0.0000

> <Gold.Chemscore.DEClash.Weighted>
0.0456

> <Gold.Chemscore.DEInternal.Weighted>
0.0433

> <Gold.Chemscore.Rot.Weighted>
9.3087

> <Gold.Chemscore.Internal.Correction.Weighted>
   9.000000E+99

> <Gold.Protein.RotatedTorsions>
[ 6907 6896 6895 6894 ] final   41.06 input  -60.11 | X-H torsion
[ 7974 7965 7964 7962 ] final   72.87 input  175.53 | X-H torsion
[ 8008 7997 7996 7995 ] final  -31.98 input   59.86 | X-H torsion
[ 10167 10162 10161 10158 ] final   71.80 input  -65.29 | X-H torsion
[ 10718 10713 10712 10709 ] final  159.91 input   66.30 | X-H torsion
[ 10763 10752 10751 10750 ] final   49.70 input  -60.55 | X-H torsion
[ 11005 11000 10999 10996 ] final  171.25 input  -57.11 | X-H torsion

> <Gold.Protein.ActiveResidues>
 VAL166  LYS551  ARG553  GLY616  TRP617  ASP618  TYR619  PRO620  LYS621  CYS622 
 ASP623  PHE694  ASN695  SER759  ASP760  ASP761  ALA762  ILE779  LEU786  VAL792 
 PHE793  MET794  SER795  GLU796  ALA797  LYS798  CYS799  TRP800  GLU811  SER814 

> <Gold.Protein.RotatedAtoms>
  152.1905  134.8676  160.0517 H   0  0  0  0  0  0  0  0  0  0  0  0  # atno 6907 bound_to 6896
  151.9567  133.3677  159.4028 H   0  0  0  0  0  0  0  0  0  0  0  0  # atno 6908 bound_to 6896
  150.6934  134.4207  159.5247 H   0  0  0  0  0  0  0  0  0  0  0  0  # atno 6909 bound_to 6896
  145.7480  139.2748  143.1448 H   0  0  0  0  0  0  0  0  0  0  0  0  # atno 7974 bound_to 7965
  154.4195  140.1749  156.1654 H   0  0  0  0  0  0  0  0  0  0  0  0  # atno 8008 bound_to 7997
  155.9804  140.3378  155.6633 H   0  0  0  0  0  0  0  0  0  0  0  0  # atno 8009 bound_to 7997
  155.6508  140.0690  157.2578 H   0  0  0  0  0  0  0  0  0  0  0  0  # atno 8010 bound_to 7997
  140.0422  144.5380  150.7426 H   0  0  0  0  0  0  0  0  0  0  0  0  # atno 10167 bound_to 10162
  157.1577  131.0579  151.2248 H   0  0  0  0  0  0  0  0  0  0  0  0  # atno 10718 bound_to 10713
  152.9786  135.5903  154.4132 H   0  0  0  0  0  0  0  0  0  0  0  0  # atno 10763 bound_to 10752
  154.3765  135.2767  155.2238 H   0  0  0  0  0  0  0  0  0  0  0  0  # atno 10764 bound_to 10752
  154.4171  135.6068  153.6042 H   0  0  0  0  0  0  0  0  0  0  0  0  # atno 10765 bound_to 10752
  140.3170  134.7469  157.4035 H   0  0  0  0  0  0  0  0  0  0  0  0  # atno 11005 bound_to 11000
  146.0384  140.8189  142.9841 LP  0  0  0  0  0  0  0  0  0  0  0  0  # atno 17320 bound_to 7965
  144.6856  140.2874  143.7283 LP  0  0  0  0  0  0  0  0  0  0  0  0  # atno 17321 bound_to 7965
  140.7255  143.2632  151.4135 LP  0  0  0  0  0  0  0  0  0  0  0  0  # atno 17342 bound_to 10162
  139.6007  144.1302  152.2194 LP  0  0  0  0  0  0  0  0  0  0  0  0  # atno 17343 bound_to 10162
  157.4162  130.7412  149.6877 LP  0  0  0  0  0  0  0  0  0  0  0  0  # atno 17370 bound_to 10713
  155.9759  130.4082  150.3815 LP  0  0  0  0  0  0  0  0  0  0  0  0  # atno 17371 bound_to 10713
  140.0975  134.5518  155.8385 LP  0  0  0  0  0  0  0  0  0  0  0  0  # atno 17394 bound_to 11000
  141.2095  133.6685  156.6445 LP  0  0  0  0  0  0  0  0  0  0  0  0  # atno 17395 bound_to 11000

$$$$
