AV-unprocessed.smi:509|AV-procd|sdf|2761|dock1
  -GOLD-   2262023223D 1   1.00000     0.00000
 Structure written by MMmdl.
 45 47  0  0  0  0  0  0  0  0  1 V2000
  152.8123  136.3173  157.4029 C   0  0  0  0  0  0  0  0  0  0  0  0
  152.5821  136.8126  156.0966 O   0  0  0  0  0  0  0  0  0  0  0  0
  152.4454  138.2239  156.0632 C   0  0  0  0  0  0  0  0  0  0  0  0
  151.0901  138.6210  156.6640 C   0  0  0  0  0  0  0  0  0  0  0  0
  150.9976  140.0621  156.8946 N   0  0  0  0  0  0  0  0  0  0  0  0
  150.3495  141.0079  156.1589 C   0  0  0  0  0  0  0  0  0  0  0  0
  149.5979  140.6951  155.0258 N   0  0  0  0  0  0  0  0  0  0  0  0
  148.5871  141.5291  154.3791 C   0  0  0  0  0  0  0  0  0  0  0  0
  147.3106  140.7171  154.0834 C   0  0  0  0  0  0  0  0  0  0  0  0
  147.6325  139.6243  153.1722 N   0  0  0  0  0  0  0  0  0  0  0  0
  148.6365  138.7726  153.8013 C   0  0  0  0  0  0  0  0  0  0  0  0
  149.9021  139.5966  154.1133 C   0  0  0  0  0  0  0  0  0  0  0  0
  150.5299  142.2601  156.5855 N   0  0  0  0  0  0  0  0  0  0  0  0
  151.3355  142.0996  157.7013 C   0  0  0  0  0  0  0  0  0  0  0  0
  151.6315  140.7945  157.9025 C   0  0  0  0  0  0  0  0  0  0  0  0
  152.4990  140.3387  158.9973 C   0  0  0  0  0  0  0  0  0  0  0  0
  152.7795  139.1480  159.1396 O   0  0  0  0  0  0  0  0  0  0  0  0
  152.9464  141.3462  159.8112 N   0  0  0  0  0  0  0  0  0  0  0  0
  153.8099  140.9927  160.9535 C   0  0  0  0  0  0  0  0  0  0  0  0
  152.6564  142.6896  159.6497 C   0  0  0  0  0  0  0  0  0  0  0  0
  153.0916  143.5360  160.4360 O   0  0  0  0  0  0  0  0  0  0  0  0
  151.8705  143.0664  158.5905 N   0  0  0  0  0  0  0  0  0  0  0  0
  151.5523  144.4814  158.3784 C   0  0  0  0  0  0  0  0  0  0  0  0
  152.9074  135.2320  157.3703 H   0  0  0  0  0  0  0  0  0  0  0  0
  151.9848  136.5637  158.0694 H   0  0  0  0  0  0  0  0  0  0  0  0
  153.7338  136.7238  157.8216 H   0  0  0  0  0  0  0  0  0  0  0  0
  153.2514  138.6900  156.6316 H   0  0  0  0  0  0  0  0  0  0  0  0
  152.5213  138.5822  155.0356 H   0  0  0  0  0  0  0  0  0  0  0  0
  150.2961  138.2879  156.0043 H   0  0  0  0  0  0  0  0  0  0  0  0
  150.9154  138.0947  157.6011 H   0  0  0  0  0  0  0  0  0  0  0  0
  148.3593  142.3981  154.9948 H   0  0  0  0  0  0  0  0  0  0  0  0
  148.9972  141.9292  153.4507 H   0  0  0  0  0  0  0  0  0  0  0  0
  146.8759  140.3214  155.0024 H   0  0  0  0  0  0  0  0  0  0  0  0
  146.5583  141.3543  153.6188 H   0  0  0  0  0  0  0  0  0  0  0  0
  146.8007  139.0839  152.9821 H   0  0  0  0  0  0  0  0  0  0  0  0
  148.2300  138.3282  154.7107 H   0  0  0  0  0  0  0  0  0  0  0  0
  148.8792  137.9534  153.1246 H   0  0  0  0  0  0  0  0  0  0  0  0
  150.3419  139.9909  153.1961 H   0  0  0  0  0  0  0  0  0  0  0  0
  150.6531  138.9481  154.5659 H   0  0  0  0  0  0  0  0  0  0  0  0
  153.3543  141.3184  161.8900 H   0  0  0  0  0  0  0  0  0  0  0  0
  154.7794  141.4851  160.8633 H   0  0  0  0  0  0  0  0  0  0  0  0
  154.0121  139.9270  161.0649 H   0  0  0  0  0  0  0  0  0  0  0  0
  150.8827  144.8388  159.1614 H   0  0  0  0  0  0  0  0  0  0  0  0
  151.0660  144.6632  157.4203 H   0  0  0  0  0  0  0  0  0  0  0  0
  152.4553  145.0931  158.3964 H   0  0  0  0  0  0  0  0  0  0  0  0
  1  2  1  0  0  0  0
  1 24  1  0  0  0  0
  1 25  1  0  0  0  0
  1 26  1  0  0  0  0
  2  3  1  0  0  0  0
  3  4  1  0  0  0  0
  3 27  1  0  0  0  0
  3 28  1  0  0  0  0
  4  5  1  0  0  0  0
  4 29  1  0  0  0  0
  4 30  1  0  0  0  0
  5 15  1  0  0  0  0
  5  6  1  0  0  0  0
  6  7  1  0  0  0  0
  6 13  2  0  0  0  0
  7 12  1  0  0  0  0
  7  8  1  0  0  0  0
  8  9  1  0  0  0  0
  8 31  1  0  0  0  0
  8 32  1  0  0  0  0
  9 10  1  0  0  0  0
  9 33  1  0  0  0  0
  9 34  1  0  0  0  0
 10 11  1  0  0  0  0
 10 35  1  0  0  0  0
 11 12  1  0  0  0  0
 11 36  1  0  0  0  0
 11 37  1  0  0  0  0
 12 38  1  0  0  0  0
 12 39  1  0  0  0  0
 13 14  1  0  0  0  0
 14 22  1  0  0  0  0
 14 15  2  0  0  0  0
 15 16  1  0  0  0  0
 16 17  2  0  0  0  0
 16 18  1  0  0  0  0
 18 19  1  0  0  0  0
 18 20  1  0  0  0  0
 19 40  1  0  0  0  0
 19 41  1  0  0  0  0
 19 42  1  0  0  0  0
 20 21  2  0  0  0  0
 20 22  1  0  0  0  0
 22 23  1  0  0  0  0
 23 43  1  0  0  0  0
 23 44  1  0  0  0  0
 23 45  1  0  0  0  0
M  END
> <s_m_source_file>
AV-unprocessed.smi

> <i_m_source_file_index>
509

> <i_lp_mmshare_version>
43012

> <i_f3d_flags>
0

> <s_epik_input>
W0NIM11uMWMoPU8pbihbQ0gzXSljKD1PKWMoYzEyKW4oW0NIMl1bQ0gyXU9bQ0gzXSljKG4yKU4zW0NIMl1bQ0gyXVtOSF1bQ0gyXVtDSDJdMw==

> <s_epik_cmdline>
J2VwaWtfcHl0aG9uJywgJy1waCcsICc3LjAnLCAnLXRuJywgJzgnLCAnLW1hJywgJzIwMCcsICctbWV0YWxfYmluZGluZycsICctaW1hZScsICc8aW5maWxlLm1hZT4nLCAnLW9tYWUnLCAnPG91dGZpbGUubWFlPic=

> <r_epik_Ionization_Penalty>
2.51424

> <r_epik_Ionization_Penalty_Charging>
1.27827e-08

> <r_epik_Ionization_Penalty_Neutral>
2.51424

> <r_epik_State_Penalty>
2.67993

> <r_epik_Charging_Adjusted_Penalty>
2.67993

> <i_epik_Tot_Q>
0

> <i_epik_Tot_abs_Q>
0

> <r_epik_Metal_State_Penalty>
2.67967

> <b_epik_Metal_Only>
0

> <s_lp_Force_Field>
OPLS_2005

> <r_lp_Energy>
54.3442

> <b_lp_Chiralities_Consistent>
1

> <s_lp_Variant>
AV-unprocessed.smi:509-2

> <Gold.Version>
5.8.1

> <Gold.Id.Protein>
6NUR|6NUR_protein|mol2

> <Gold.PLP.Fitness>
42.7038

> <Gold.PLP.PLP>
-41.3472

> <Gold.PLP.part.hbond>
-2.0000

> <Gold.PLP.part.metal>
0.0000

> <Gold.PLP.part.buried>
-0.2457

> <Gold.PLP.part.nonpolar>
-39.0905

> <Gold.PLP.part.repulsive>
0.3631

> <Gold.PLP.ligand.clash>
0.7279

> <Gold.PLP.ligand.torsion>
0.5795

> <Gold.PLP.Chemscore.Hbond>
0.9280

> <Gold.PLP.Chemscore.CHOScore>
0.0000

> <Gold.PLP.Chemscore.Metal>
0.0000

> <Gold.Chemscore.Hbonds>
donor molecule, donor type, donor heavy atom, donor atom, acceptor molecule, acceptor atom, score
      P1  H 10752 10764       L1     2  0.91

> <Gold.PLP.Chemscore.Internal.Correction>
0.4595

> <Gold.Rescore>
     Score         DG    S(hbond)    S(metal)    S(lipo)     H(rot)  DE(clash)    DE(int)     intcor
     11.10     -13.07       0.93        0.00      70.86       1.49       0.34       1.63       ----

> <Gold.Chemscore.Fitness>
11.0959

> <Gold.Chemscore.DG>
-13.0689

> <Gold.Chemscore.ZeroCoef>
-5.4800

> <Gold.Chemscore.Hbond>
0.9333

> <Gold.Chemscore.Metal>
0.0000

> <Gold.Chemscore.Lipo>
70.8553

> <Gold.Chemscore.Internal_Hbond>
0.0000

> <Gold.Chemscore.DEClash>
0.3393

> <Gold.Chemscore.DEInternal>
1.6337

> <Gold.Chemscore.Rot>
1.4915

> <Gold.Chemscore.Internal.Correction>
   9.000000E+99

> <Gold.Chemscore.Hbonds>
donor molecule, donor type, donor heavy atom, donor atom, acceptor molecule, acceptor atom, score
      P1  H 10752 10764       L1     2  0.31

> <Gold.Chemscore.Hbond.Weighted>
-3.1171

> <Gold.Chemscore.Metal.Weighted>
-0.0000

> <Gold.Chemscore.Lipo.Weighted>
-8.2901

> <Gold.Chemscore.Internal_Hbond.Weighted>
0.0000

> <Gold.Chemscore.DEClash.Weighted>
0.3393

> <Gold.Chemscore.DEInternal.Weighted>
1.6337

> <Gold.Chemscore.Rot.Weighted>
3.8183

> <Gold.Chemscore.Internal.Correction.Weighted>
   9.000000E+99

> <Gold.Protein.RotatedTorsions>
[ 6907 6896 6895 6894 ] final -130.52 input  -60.11 | X-H torsion
[ 7974 7965 7964 7962 ] final  -69.59 input  175.53 | X-H torsion
[ 8008 7997 7996 7995 ] final   67.07 input   59.86 | X-H torsion
[ 10167 10162 10161 10158 ] final  173.65 input  -65.29 | X-H torsion
[ 10718 10713 10712 10709 ] final  -37.70 input   66.30 | X-H torsion
[ 10763 10752 10751 10750 ] final  -26.39 input  -60.55 | X-H torsion
[ 11005 11000 10999 10996 ] final   61.20 input  -57.11 | X-H torsion

> <Gold.Protein.ActiveResidues>
 VAL166  LYS551  ARG553  GLY616  TRP617  ASP618  TYR619  PRO620  LYS621  CYS622 
 ASP623  PHE694  ASN695  SER759  ASP760  ASP761  ALA762  ILE779  LEU786  VAL792 
 PHE793  MET794  SER795  GLU796  ALA797  LYS798  CYS799  TRP800  GLU811  SER814 

> <Gold.Protein.RotatedAtoms>
  150.9407  133.6660  159.2791 H   0  0  0  0  0  0  0  0  0  0  0  0  # atno 6907 bound_to 6896
  151.4050  135.0975  159.9577 H   0  0  0  0  0  0  0  0  0  0  0  0  # atno 6908 bound_to 6896
  152.5068  133.8892  159.7440 H   0  0  0  0  0  0  0  0  0  0  0  0  # atno 6909 bound_to 6896
  145.7018  140.9113  143.0727 H   0  0  0  0  0  0  0  0  0  0  0  0  # atno 7974 bound_to 7965
  155.6872  140.3496  155.4879 H   0  0  0  0  0  0  0  0  0  0  0  0  # atno 8008 bound_to 7997
  155.9556  140.1127  157.0962 H   0  0  0  0  0  0  0  0  0  0  0  0  # atno 8009 bound_to 7997
  154.4131  140.1186  156.5096 H   0  0  0  0  0  0  0  0  0  0  0  0  # atno 8010 bound_to 7997
  139.5115  144.3237  152.0178 H   0  0  0  0  0  0  0  0  0  0  0  0  # atno 10167 bound_to 10162
  156.3122  130.4254  149.8040 H   0  0  0  0  0  0  0  0  0  0  0  0  # atno 10718 bound_to 10713
  153.7151  135.6948  153.5027 H   0  0  0  0  0  0  0  0  0  0  0  0  # atno 10763 bound_to 10752
  153.2244  135.4359  155.0524 H   0  0  0  0  0  0  0  0  0  0  0  0  # atno 10764 bound_to 10752
  154.8302  135.3468  154.6687 H   0  0  0  0  0  0  0  0  0  0  0  0  # atno 10765 bound_to 10752
  140.0178  134.6199  155.9684 H   0  0  0  0  0  0  0  0  0  0  0  0  # atno 11005 bound_to 11000
  144.6966  139.8958  143.7456 LP  0  0  0  0  0  0  0  0  0  0  0  0  # atno 17320 bound_to 7965
  146.0791  139.3779  143.0475 LP  0  0  0  0  0  0  0  0  0  0  0  0  # atno 17321 bound_to 7965
  140.2678  144.3997  150.6162 LP  0  0  0  0  0  0  0  0  0  0  0  0  # atno 17342 bound_to 10162
  140.6111  143.2169  151.6885 LP  0  0  0  0  0  0  0  0  0  0  0  0  # atno 17343 bound_to 10162
  156.5379  130.8287  151.3259 LP  0  0  0  0  0  0  0  0  0  0  0  0  # atno 17370 bound_to 10713
  157.7393  130.9830  150.2307 LP  0  0  0  0  0  0  0  0  0  0  0  0  # atno 17371 bound_to 10713
  141.1754  133.6540  156.4809 LP  0  0  0  0  0  0  0  0  0  0  0  0  # atno 17394 bound_to 11000
  140.4440  134.6989  157.5006 LP  0  0  0  0  0  0  0  0  0  0  0  0  # atno 17395 bound_to 11000

$$$$
