AV-unprocessed.smi:1189|AV-procd|sdf|4978|dock1
  -GOLD-   22720 3573D 1   1.00000     0.00000
 Structure written by MMmdl.
 33 34  0  0  0  0  0  0  0  0  1 V2000
  153.0480  137.9391  160.3304 O   0  0  0  0  0  0  0  0  0  0  0  0
  154.0286  138.5736  160.7230 C   0  0  0  0  0  0  0  0  0  0  0  0
  155.2135  137.8718  161.3987 C   0  0  0  0  0  0  0  0  0  0  0  0
  154.8260  137.0938  162.5643 N   0  0  0  0  0  0  0  0  0  0  0  0
  154.2242  137.5307  163.7251 C   0  0  0  0  0  0  0  0  0  0  0  0
  154.0581  136.4414  164.5306 C   0  0  0  0  0  0  0  0  0  0  0  0
  154.5969  135.3623  163.7709 C   0  0  0  0  0  0  0  0  0  0  0  0
  154.6894  133.9076  164.1505 C   0  0  0  0  0  0  0  0  0  0  0  0
  154.1185  133.1484  163.2152 F   0  0  0  0  0  0  0  0  0  0  0  0
  155.9677  133.5498  164.2724 F   0  0  0  0  0  0  0  0  0  0  0  0
  154.0666  133.6986  165.3105 F   0  0  0  0  0  0  0  0  0  0  0  0
  155.0542  135.7630  162.5918 N   0  0  0  0  0  0  0  0  0  0  0  0
  154.1363  139.9053  160.6002 N   0  0  0  0  0  0  0  0  0  0  0  0
  153.1357  140.7775  159.9947 C   0  0  0  0  0  0  0  0  0  0  0  0
  153.2792  142.2372  160.4659 C   0  0  2  0  0  0  0  0  0  0  0  0
  153.0911  142.4464  161.9558 C   0  0  0  0  0  0  0  0  0  0  0  0
  152.8061  143.9425  162.0228 C   0  0  0  0  0  0  0  0  0  0  0  0
  152.0884  144.2469  160.8312 O   0  0  0  0  0  0  0  0  0  0  0  0
  152.2195  143.1806  159.8942 C   0  0  0  0  0  0  0  0  0  0  0  0
  155.7106  137.2168  160.6812 H   0  0  0  0  0  0  0  0  0  0  0  0
  155.9431  138.6202  161.7099 H   0  0  0  0  0  0  0  0  0  0  0  0
  153.9664  138.5684  163.8781 H   0  0  0  0  0  0  0  0  0  0  0  0
  153.6173  136.4178  165.5161 H   0  0  0  0  0  0  0  0  0  0  0  0
  154.9742  140.3473  160.9502 H   0  0  0  0  0  0  0  0  0  0  0  0
  153.2032  140.7240  158.9069 H   0  0  0  0  0  0  0  0  0  0  0  0
  152.1504  140.3928  160.2600 H   0  0  0  0  0  0  0  0  0  0  0  0
  154.2634  142.6171  160.1850 H   0  0  0  0  0  0  0  0  0  0  0  0
  152.2284  141.8836  162.3157 H   0  0  0  0  0  0  0  0  0  0  0  0
  153.9616  142.1550  162.5443 H   0  0  0  0  0  0  0  0  0  0  0  0
  152.2423  144.2229  162.9128 H   0  0  0  0  0  0  0  0  0  0  0  0
  153.7395  144.5066  162.0194 H   0  0  0  0  0  0  0  0  0  0  0  0
  152.4873  143.5531  158.9052 H   0  0  0  0  0  0  0  0  0  0  0  0
  151.2542  142.6788  159.8141 H   0  0  0  0  0  0  0  0  0  0  0  0
  1  2  2  0  0  0  0
  2  3  1  0  0  0  0
  2 13  1  0  0  0  0
  3  4  1  0  0  0  0
  3 20  1  0  0  0  0
  3 21  1  0  0  0  0
  4 12  1  0  0  0  0
  4  5  1  0  0  0  0
  5  6  2  0  0  0  0
  5 22  1  0  0  0  0
  6  7  1  0  0  0  0
  6 23  1  0  0  0  0
  7  8  1  0  0  0  0
  7 12  2  0  0  0  0
  8  9  1  0  0  0  0
  8 10  1  0  0  0  0
  8 11  1  0  0  0  0
 13 14  1  0  0  0  0
 13 24  1  0  0  0  0
 14 15  1  0  0  0  0
 14 25  1  0  0  0  0
 14 26  1  0  0  0  0
 15 19  1  0  0  0  0
 15 16  1  0  0  0  0
 15 27  1  0  0  0  0
 16 17  1  0  0  0  0
 16 28  1  0  0  0  0
 16 29  1  0  0  0  0
 17 18  1  0  0  0  0
 17 30  1  0  0  0  0
 17 31  1  0  0  0  0
 18 19  1  0  0  0  0
 19 32  1  0  0  0  0
 19 33  1  0  0  0  0
M  END
> <s_m_source_file>
AV-unprocessed.smi

> <i_m_source_file_index>
1189

> <i_lp_mmshare_version>
43012

> <i_f3d_flags>
0

> <s_epik_input>
W0NIMl0xT1tDSDJdW0NIMl1bQ0BIXTFbQ0gyXVtOSF1DKD1PKVtDSDJdbjJbY0hdW2NIXWMobjIpQyhGKShGKUY=

> <s_epik_cmdline>
J2VwaWtfcHl0aG9uJywgJy1waCcsICc3LjAnLCAnLXRuJywgJzgnLCAnLW1hJywgJzIwMCcsICctbWV0YWxfYmluZGluZycsICctaW1hZScsICc8aW5maWxlLm1hZT4nLCAnLW9tYWUnLCAnPG91dGZpbGUubWFlPic=

> <r_lp_tautomer_probability>
1

> <r_epik_Ionization_Penalty>
1.26564e-07

> <r_epik_Ionization_Penalty_Charging>
0

> <r_epik_Ionization_Penalty_Neutral>
1.26564e-07

> <r_epik_State_Penalty>
-0

> <r_epik_Charging_Adjusted_Penalty>
0

> <i_epik_Tot_Q>
0

> <i_epik_Tot_abs_Q>
0

> <r_epik_Metal_State_Penalty>
-0

> <b_epik_Metal_Only>
0

> <s_lp_Force_Field>
OPLS_2005

> <r_lp_Energy>
21.601

> <b_lp_Chiralities_Consistent>
1

> <s_lp_Variant>
AV-unprocessed.smi:1189-1

> <Gold.Version>
5.8.1

> <Gold.Id.Protein>
6NUR|6NUR_protein|mol2

> <Gold.PLP.Fitness>
41.3410

> <Gold.PLP.PLP>
-41.8059

> <Gold.PLP.part.hbond>
0.0000

> <Gold.PLP.part.metal>
0.0000

> <Gold.PLP.part.buried>
-4.6902

> <Gold.PLP.part.nonpolar>
-36.4886

> <Gold.PLP.part.repulsive>
0.1208

> <Gold.PLP.ligand.clash>
0.0000

> <Gold.PLP.ligand.torsion>
0.2631

> <Gold.PLP.Chemscore.Hbond>
0.0000

> <Gold.PLP.Chemscore.CHOScore>
0.0000

> <Gold.PLP.Chemscore.Metal>
0.0000

> <Gold.PLP.Chemscore.Internal.Correction>
0.0613

> <Gold.Rescore>
     Score         DG    S(hbond)    S(metal)    S(lipo)     H(rot)  DE(clash)    DE(int)     intcor
     11.25     -11.52       0.00        0.00      93.03       1.89       0.01       0.26       ----

> <Gold.Chemscore.Fitness>
11.2453

> <Gold.Chemscore.DG>
-11.5189

> <Gold.Chemscore.ZeroCoef>
-5.4800

> <Gold.Chemscore.Hbond>
0.0000

> <Gold.Chemscore.Metal>
0.0000

> <Gold.Chemscore.Lipo>
93.0288

> <Gold.Chemscore.Internal_Hbond>
0.0000

> <Gold.Chemscore.DEClash>
0.0126

> <Gold.Chemscore.DEInternal>
0.2610

> <Gold.Chemscore.Rot>
1.8928

> <Gold.Chemscore.Internal.Correction>
   9.000000E+99

> <Gold.Chemscore.Hbond.Weighted>
-0.0000

> <Gold.Chemscore.Metal.Weighted>
-0.0000

> <Gold.Chemscore.Lipo.Weighted>
-10.8844

> <Gold.Chemscore.Internal_Hbond.Weighted>
0.0000

> <Gold.Chemscore.DEClash.Weighted>
0.0126

> <Gold.Chemscore.DEInternal.Weighted>
0.2610

> <Gold.Chemscore.Rot.Weighted>
4.8455

> <Gold.Chemscore.Internal.Correction.Weighted>
   9.000000E+99

> <Gold.Protein.RotatedTorsions>
[ 6907 6896 6895 6894 ] final  146.48 input  -60.11 | X-H torsion
[ 7974 7965 7964 7962 ] final  -84.88 input  175.53 | X-H torsion
[ 8008 7997 7996 7995 ] final   30.07 input   59.86 | X-H torsion
[ 10167 10162 10161 10158 ] final  154.54 input  -65.29 | X-H torsion
[ 10718 10713 10712 10709 ] final  -26.79 input   66.30 | X-H torsion
[ 10763 10752 10751 10750 ] final   61.09 input  -60.55 | X-H torsion
[ 11005 11000 10999 10996 ] final  -17.88 input  -57.11 | X-H torsion

> <Gold.Protein.ActiveResidues>
 VAL166  LYS551  ARG553  GLY616  TRP617  ASP618  TYR619  PRO620  LYS621  CYS622 
 ASP623  PHE694  ASN695  SER759  ASP760  ASP761  ALA762  ILE779  LEU786  VAL792 
 PHE793  MET794  SER795  GLU796  ALA797  LYS798  CYS799  TRP800  GLU811  SER814 

> <Gold.Protein.RotatedAtoms>
  152.1674  133.4621  159.4891 H   0  0  0  0  0  0  0  0  0  0  0  0  # atno 6907 bound_to 6896
  150.6915  134.1996  159.4326 H   0  0  0  0  0  0  0  0  0  0  0  0  # atno 6908 bound_to 6896
  151.9901  134.9983  160.0612 H   0  0  0  0  0  0  0  0  0  0  0  0  # atno 6909 bound_to 6896
  145.5007  140.9547  143.1761 H   0  0  0  0  0  0  0  0  0  0  0  0  # atno 7974 bound_to 7965
  155.0845  140.3213  155.4592 H   0  0  0  0  0  0  0  0  0  0  0  0  # atno 8008 bound_to 7997
  156.2758  140.2089  156.5918 H   0  0  0  0  0  0  0  0  0  0  0  0  # atno 8009 bound_to 7997
  154.6952  140.0512  157.0391 H   0  0  0  0  0  0  0  0  0  0  0  0  # atno 8010 bound_to 7997
  139.4823  144.5178  151.7924 H   0  0  0  0  0  0  0  0  0  0  0  0  # atno 10167 bound_to 10162
  156.4466  130.4475  149.7017 H   0  0  0  0  0  0  0  0  0  0  0  0  # atno 10718 bound_to 10713
  152.9940  135.5513  154.5978 H   0  0  0  0  0  0  0  0  0  0  0  0  # atno 10763 bound_to 10752
  154.5326  135.2814  155.1169 H   0  0  0  0  0  0  0  0  0  0  0  0  # atno 10764 bound_to 10752
  154.2478  135.6404  153.5282 H   0  0  0  0  0  0  0  0  0  0  0  0  # atno 10765 bound_to 10752
  140.8212  133.8067  155.9662 H   0  0  0  0  0  0  0  0  0  0  0  0  # atno 11005 bound_to 11000
  144.7782  139.6584  143.7166 LP  0  0  0  0  0  0  0  0  0  0  0  0  # atno 17320 bound_to 7965
  146.2228  139.5667  142.9607 LP  0  0  0  0  0  0  0  0  0  0  0  0  # atno 17321 bound_to 7965
  140.4688  144.1616  150.5915 LP  0  0  0  0  0  0  0  0  0  0  0  0  # atno 17342 bound_to 10162
  140.4404  143.2529  151.9480 LP  0  0  0  0  0  0  0  0  0  0  0  0  # atno 17343 bound_to 10162
  156.3861  130.7603  151.2600 LP  0  0  0  0  0  0  0  0  0  0  0  0  # atno 17370 bound_to 10713
  157.7504  131.0281  150.4036 LP  0  0  0  0  0  0  0  0  0  0  0  0  # atno 17371 bound_to 10713
  140.9097  134.2276  157.4993 LP  0  0  0  0  0  0  0  0  0  0  0  0  # atno 17394 bound_to 11000
  139.8708  134.9744  156.4845 LP  0  0  0  0  0  0  0  0  0  0  0  0  # atno 17395 bound_to 11000

$$$$
