AV-unprocessed.smi:1988|AV-procd|sdf|8059|dock5
  -GOLD-   2272010263D 1   1.00000     0.00000
 Structure written by MMmdl.
 37 38  0  0  0  0  0  0  0  0  1 V2000
  145.3633  137.3608  162.4877 C   0  0  0  0  0  0  0  0  0  0  0  0
  145.8731  135.9483  162.4634 C   0  0  0  0  0  0  0  0  0  0  0  0
  145.0848  134.9635  162.8600 N   0  0  0  0  0  0  0  0  0  0  0  0
  145.8344  133.7919  162.7178 O   0  0  0  0  0  0  0  0  0  0  0  0
  147.0593  134.1211  162.2350 C   0  0  0  0  0  0  0  0  0  0  0  0
  148.0118  132.9950  162.0142 C   0  0  0  0  0  0  0  0  0  0  0  0
  147.1518  135.4738  162.0509 C   0  0  0  0  0  0  0  0  0  0  0  0
  148.3172  136.2798  161.5354 C   0  0  0  0  0  0  0  0  0  0  0  0
  148.0201  136.7862  160.1234 C   0  0  0  0  0  0  0  0  0  0  0  0
  147.0316  137.4895  159.9177 O   0  0  0  0  0  0  0  0  0  0  0  0
  148.8788  136.4149  159.1606 N   0  0  0  0  0  0  0  0  0  0  0  0
  148.7949  136.7929  157.7536 C   0  0  0  0  0  0  0  0  0  0  0  0
  150.0590  137.5325  157.2735 C   0  0  1  0  0  0  0  0  0  0  0  0
  150.5276  137.1233  155.8604 C   0  0  0  0  0  0  0  0  0  0  0  0
  151.5911  138.1186  155.3861 C   0  0  0  0  0  0  0  0  0  0  0  0
  151.1193  139.7310  156.1130 S   0  0  0  0  0  0  0  0  0  0  0  0
  152.2604  140.2657  156.8716 O   0  0  0  0  0  0  0  0  0  0  0  0
  150.4353  140.5470  155.0983 O   0  0  0  0  0  0  0  0  0  0  0  0
  149.8720  139.0580  157.2750 C   0  0  0  0  0  0  0  0  0  0  0  0
  146.1339  138.0501  162.8324 H   0  0  0  0  0  0  0  0  0  0  0  0
  144.5055  137.4686  163.1526 H   0  0  0  0  0  0  0  0  0  0  0  0
  145.0545  137.6789  161.4920 H   0  0  0  0  0  0  0  0  0  0  0  0
  149.0419  133.3508  161.9940 H   0  0  0  0  0  0  0  0  0  0  0  0
  147.8068  132.4983  161.0659 H   0  0  0  0  0  0  0  0  0  0  0  0
  147.9283  132.2542  162.8096 H   0  0  0  0  0  0  0  0  0  0  0  0
  148.5305  137.1338  162.1792 H   0  0  0  0  0  0  0  0  0  0  0  0
  149.2301  135.6832  161.5161 H   0  0  0  0  0  0  0  0  0  0  0  0
  149.6625  135.8371  159.4281 H   0  0  0  0  0  0  0  0  0  0  0  0
  148.5976  135.9226  157.1255 H   0  0  0  0  0  0  0  0  0  0  0  0
  147.9291  137.4465  157.6440 H   0  0  0  0  0  0  0  0  0  0  0  0
  150.8734  137.3066  157.9635 H   0  0  0  0  0  0  0  0  0  0  0  0
  150.9101  136.1027  155.8357 H   0  0  0  0  0  0  0  0  0  0  0  0
  149.6782  137.1615  155.1770 H   0  0  0  0  0  0  0  0  0  0  0  0
  152.5741  137.8489  155.7728 H   0  0  0  0  0  0  0  0  0  0  0  0
  151.6508  138.1952  154.3002 H   0  0  0  0  0  0  0  0  0  0  0  0
  148.8868  139.3331  156.8973 H   0  0  0  0  0  0  0  0  0  0  0  0
  149.9996  139.5017  158.2625 H   0  0  0  0  0  0  0  0  0  0  0  0
  1  2  1  0  0  0  0
  1 20  1  0  0  0  0
  1 21  1  0  0  0  0
  1 22  1  0  0  0  0
  2  7  1  0  0  0  0
  2  3  2  0  0  0  0
  3  4  1  0  0  0  0
  4  5  1  0  0  0  0
  5  6  1  0  0  0  0
  5  7  2  0  0  0  0
  6 23  1  0  0  0  0
  6 24  1  0  0  0  0
  6 25  1  0  0  0  0
  7  8  1  0  0  0  0
  8  9  1  0  0  0  0
  8 26  1  0  0  0  0
  8 27  1  0  0  0  0
  9 10  2  0  0  0  0
  9 11  1  0  0  0  0
 11 12  1  0  0  0  0
 11 28  1  0  0  0  0
 12 13  1  0  0  0  0
 12 29  1  0  0  0  0
 12 30  1  0  0  0  0
 13 19  1  0  0  0  0
 13 14  1  0  0  0  0
 13 31  1  0  0  0  0
 14 15  1  0  0  0  0
 14 32  1  0  0  0  0
 14 33  1  0  0  0  0
 15 16  1  0  0  0  0
 15 34  1  0  0  0  0
 15 35  1  0  0  0  0
 16 17  2  0  0  0  0
 16 18  2  0  0  0  0
 16 19  1  0  0  0  0
 19 36  1  0  0  0  0
 19 37  1  0  0  0  0
M  END
> <s_m_source_file>
AV-unprocessed.smi

> <i_m_source_file_index>
1988

> <i_lp_mmshare_version>
43012

> <i_f3d_flags>
0

> <s_epik_input>
W0NIM11jMW5vYyhbQ0gzXSljMVtDSDJdQyg9TylbTkhdW0NIMl1bQ0BASF0oW0NIMl0yKVtDSDJdW0NIMl1TMig9Tyk9Tw==

> <s_epik_cmdline>
J2VwaWtfcHl0aG9uJywgJy1waCcsICc3LjAnLCAnLXRuJywgJzgnLCAnLW1hJywgJzIwMCcsICctbWV0YWxfYmluZGluZycsICctaW1hZScsICc8aW5maWxlLm1hZT4nLCAnLW9tYWUnLCAnPG91dGZpbGUubWFlPic=

> <r_lp_tautomer_probability>
1

> <r_epik_Ionization_Penalty>
2.7503e-08

> <r_epik_Ionization_Penalty_Charging>
0

> <r_epik_Ionization_Penalty_Neutral>
2.7503e-08

> <r_epik_State_Penalty>
-0

> <r_epik_Charging_Adjusted_Penalty>
0

> <i_epik_Tot_Q>
0

> <i_epik_Tot_abs_Q>
0

> <r_epik_Metal_State_Penalty>
-0

> <b_epik_Metal_Only>
0

> <s_lp_Force_Field>
OPLS_2005

> <r_lp_Energy>
-1.59396

> <b_lp_Chiralities_Consistent>
1

> <s_lp_Variant>
AV-unprocessed.smi:1988-2

> <Gold.Version>
5.8.1

> <Gold.Id.Protein>
6NUR|6NUR_protein|mol2

> <Gold.PLP.Fitness>
36.9820

> <Gold.PLP.PLP>
-29.3649

> <Gold.PLP.part.hbond>
-3.0071

> <Gold.PLP.part.metal>
0.0000

> <Gold.PLP.part.buried>
-6.2976

> <Gold.PLP.part.nonpolar>
-20.7625

> <Gold.PLP.part.repulsive>
0.2747

> <Gold.PLP.ligand.clash>
0.0000

> <Gold.PLP.ligand.torsion>
0.6859

> <Gold.PLP.Chemscore.Hbond>
2.9920

> <Gold.PLP.Chemscore.CHOScore>
0.0000

> <Gold.PLP.Chemscore.Metal>
0.0000

> <Gold.Chemscore.Hbonds>
donor molecule, donor type, donor heavy atom, donor atom, acceptor molecule, acceptor atom, score
      P1  H  6934  6947       L1    10  1.00
      P1  H  7989  7998       L1    18  0.98
      P1  H  7997  8009       L1    17  0.74

> <Gold.PLP.Chemscore.Internal.Correction>
0.0128

> <Gold.Rescore>
     Score         DG    S(hbond)    S(metal)    S(lipo)     H(rot)  DE(clash)    DE(int)     intcor
     17.36     -18.48       2.86        0.00      66.55       1.70       0.41       0.71       ----

> <Gold.Chemscore.Fitness>
17.3641

> <Gold.Chemscore.DG>
-18.4845

> <Gold.Chemscore.ZeroCoef>
-5.4800

> <Gold.Chemscore.Hbond>
2.8620

> <Gold.Chemscore.Metal>
0.0000

> <Gold.Chemscore.Lipo>
66.5525

> <Gold.Chemscore.Internal_Hbond>
0.0000

> <Gold.Chemscore.DEClash>
0.4096

> <Gold.Chemscore.DEInternal>
0.7108

> <Gold.Chemscore.Rot>
1.6958

> <Gold.Chemscore.Internal.Correction>
   9.000000E+99

> <Gold.Chemscore.Hbonds>
donor molecule, donor type, donor heavy atom, donor atom, acceptor molecule, acceptor atom, score
      P1  H  6934  6947       L1    10  0.67
      P1  H  7989  7998       L1    18  0.72
      P1  H  7997  8009       L1    17  0.68

> <Gold.Chemscore.Hbond.Weighted>
-9.5591

> <Gold.Chemscore.Metal.Weighted>
-0.0000

> <Gold.Chemscore.Lipo.Weighted>
-7.7866

> <Gold.Chemscore.Internal_Hbond.Weighted>
0.0000

> <Gold.Chemscore.DEClash.Weighted>
0.4096

> <Gold.Chemscore.DEInternal.Weighted>
0.7108

> <Gold.Chemscore.Rot.Weighted>
4.3413

> <Gold.Chemscore.Internal.Correction.Weighted>
   9.000000E+99

> <Gold.Protein.RotatedTorsions>
[ 6907 6896 6895 6894 ] final  147.69 input  -60.11 | X-H torsion
[ 7974 7965 7964 7962 ] final -166.01 input  175.53 | X-H torsion
[ 8008 7997 7996 7995 ] final  178.08 input   59.86 | X-H torsion
[ 10167 10162 10161 10158 ] final  148.95 input  -65.29 | X-H torsion
[ 10718 10713 10712 10709 ] final  -35.23 input   66.30 | X-H torsion
[ 10763 10752 10751 10750 ] final  -99.08 input  -60.55 | X-H torsion
[ 11005 11000 10999 10996 ] final  -26.11 input  -57.11 | X-H torsion

> <Gold.Protein.ActiveResidues>
 VAL166  LYS551  ARG553  GLY616  TRP617  ASP618  TYR619  PRO620  LYS621  CYS622 
 ASP623  PHE694  ASN695  SER759  ASP760  ASP761  ALA762  ILE779  LEU786  VAL792 
 PHE793  MET794  SER795  GLU796  ALA797  LYS798  CYS799  TRP800  GLU811  SER814 

> <Gold.Protein.RotatedAtoms>
  152.1514  133.4524  159.4815 H   0  0  0  0  0  0  0  0  0  0  0  0  # atno 6907 bound_to 6896
  150.6896  134.2184  159.4396 H   0  0  0  0  0  0  0  0  0  0  0  0  # atno 6908 bound_to 6896
  152.0081  134.9891  160.0618 H   0  0  0  0  0  0  0  0  0  0  0  0  # atno 6909 bound_to 6896
  144.7256  140.2730  143.6247 H   0  0  0  0  0  0  0  0  0  0  0  0  # atno 7974 bound_to 7965
  156.0586  140.1342  156.9967 H   0  0  0  0  0  0  0  0  0  0  0  0  # atno 8008 bound_to 7997
  154.4470  140.0996  156.6554 H   0  0  0  0  0  0  0  0  0  0  0  0  # atno 8009 bound_to 7997
  155.5413  140.3461  155.4449 H   0  0  0  0  0  0  0  0  0  0  0  0  # atno 8010 bound_to 7997
  139.4868  144.5640  151.7179 H   0  0  0  0  0  0  0  0  0  0  0  0  # atno 10167 bound_to 10162
  156.3410  130.4293  149.7787 H   0  0  0  0  0  0  0  0  0  0  0  0  # atno 10718 bound_to 10713
  154.7468  135.4985  153.9218 H   0  0  0  0  0  0  0  0  0  0  0  0  # atno 10763 bound_to 10752
  153.1100  135.6707  153.9525 H   0  0  0  0  0  0  0  0  0  0  0  0  # atno 10764 bound_to 10752
  153.9287  135.3080  155.3425 H   0  0  0  0  0  0  0  0  0  0  0  0  # atno 10765 bound_to 10752
  140.8999  133.7531  156.0530 H   0  0  0  0  0  0  0  0  0  0  0  0  # atno 11005 bound_to 11000
  145.8024  139.1969  143.2040 LP  0  0  0  0  0  0  0  0  0  0  0  0  # atno 17320 bound_to 7965
  146.0665  140.7915  142.9709 LP  0  0  0  0  0  0  0  0  0  0  0  0  # atno 17321 bound_to 7965
  140.5214  144.0872  150.6024 LP  0  0  0  0  0  0  0  0  0  0  0  0  # atno 17342 bound_to 10162
  140.3832  143.2792  152.0147 LP  0  0  0  0  0  0  0  0  0  0  0  0  # atno 17343 bound_to 10162
  156.5023  130.8134  151.3137 LP  0  0  0  0  0  0  0  0  0  0  0  0  # atno 17370 bound_to 10713
  157.7447  130.9940  150.2694 LP  0  0  0  0  0  0  0  0  0  0  0  0  # atno 17371 bound_to 10713
  140.8243  134.3253  157.5371 LP  0  0  0  0  0  0  0  0  0  0  0  0  # atno 17394 bound_to 11000
  139.8741  134.9327  156.3561 LP  0  0  0  0  0  0  0  0  0  0  0  0  # atno 17395 bound_to 11000

$$$$
