AV-unprocessed.smi:1809|AV-procd|sdf|7328|dock6
  -GOLD-   22720 8583D 1   1.00000     0.00000
 Structure written by MMmdl.
 39 41  0  0  0  0  0  0  0  0  3 V2000
  152.0348  138.7535  159.5655 C   0  0  0  0  0  0  0  0  0  0  0  0
  151.5085  137.8041  158.5445 C   0  0  0  0  0  0  0  0  0  0  0  0
  150.6901  136.7946  158.8512 N   0  0  0  0  0  0  0  0  0  0  0  0
  150.3344  136.0522  157.7341 N   0  0  0  0  0  0  0  0  0  0  0  0
  150.8773  136.5163  156.5997 C   0  0  0  0  0  0  0  0  0  0  0  0
  150.6570  135.9400  155.4062 N   0  5  0  0  0  0  0  0  0  0  0  0
  150.0162  134.7513  155.3397 C   0  0  0  0  0  0  0  0  0  0  0  0
  150.1561  133.7990  156.1106 O   0  0  0  0  0  0  0  0  0  0  0  0
  149.1569  134.6590  154.3173 N   0  0  0  0  0  0  0  0  0  0  0  0
  148.3369  133.4931  154.0173 C   0  0  0  0  0  0  0  0  0  0  0  0
  147.5677  133.6924  152.7047 C   0  0  1  0  0  0  0  0  0  0  0  0
  146.9566  132.3665  152.1931 C   0  0  0  0  0  0  0  0  0  0  0  0
  146.1354  132.6624  151.0053 N   0  3  1  0  0  0  0  0  0  0  0  0
  145.4607  131.5437  150.3246 C   0  0  0  0  0  0  0  0  0  0  0  0
  144.2629  132.1879  149.5974 C   0  0  0  0  0  0  0  0  0  0  0  0
  144.2498  133.6628  150.0394 C   0  0  0  0  0  0  0  0  0  0  0  0
  145.0924  133.6443  151.3104 C   0  0  2  0  0  0  0  0  0  0  0  0
  145.7546  134.9509  151.7650 C   0  0  0  0  0  0  0  0  0  0  0  0
  146.5295  134.6547  152.9279 O   0  0  0  0  0  0  0  0  0  0  0  0
  151.9109  137.9248  156.8399 S   0  0  0  0  0  0  0  0  0  0  0  0
  151.2482  139.4419  159.8744 H   0  0  0  0  0  0  0  0  0  0  0  0
  152.8639  139.3301  159.1550 H   0  0  0  0  0  0  0  0  0  0  0  0
  152.3892  138.2079  160.4402 H   0  0  0  0  0  0  0  0  0  0  0  0
  149.0659  135.4594  153.7091 H   0  0  0  0  0  0  0  0  0  0  0  0
  148.9863  132.6197  153.9411 H   0  0  0  0  0  0  0  0  0  0  0  0
  147.6407  133.3075  154.8369 H   0  0  0  0  0  0  0  0  0  0  0  0
  148.2516  134.0841  151.9492 H   0  0  0  0  0  0  0  0  0  0  0  0
  147.7422  131.6574  151.9294 H   0  0  0  0  0  0  0  0  0  0  0  0
  146.3411  131.9012  152.9648 H   0  0  0  0  0  0  0  0  0  0  0  0
  146.1418  131.0359  149.6412 H   0  0  0  0  0  0  0  0  0  0  0  0
  145.1084  130.8165  151.0580 H   0  0  0  0  0  0  0  0  0  0  0  0
  144.3540  132.1054  148.5138 H   0  0  0  0  0  0  0  0  0  0  0  0
  143.3373  131.6892  149.8879 H   0  0  0  0  0  0  0  0  0  0  0  0
  144.7278  134.2821  149.2791 H   0  0  0  0  0  0  0  0  0  0  0  0
  143.2430  134.0477  150.2046 H   0  0  0  0  0  0  0  0  0  0  0  0
  144.4751  133.2580  152.1249 H   0  0  0  0  0  0  0  0  0  0  0  0
  146.3871  135.3749  150.9835 H   0  0  0  0  0  0  0  0  0  0  0  0
  145.0002  135.6966  152.0164 H   0  0  0  0  0  0  0  0  0  0  0  0
  146.7405  133.0923  150.3201 H   0  0  0  0  0  0  0  0  0  0  0  0
  1  2  1  0  0  0  0
  1 21  1  0  0  0  0
  1 22  1  0  0  0  0
  1 23  1  0  0  0  0
  2 20  1  0  0  0  0
  2  3  2  0  0  0  0
  3  4  1  0  0  0  0
  4  5  2  0  0  0  0
  5  6  1  0  0  0  0
  5 20  1  0  0  0  0
  6  7  1  0  0  0  0
  7  8  2  0  0  0  0
  7  9  1  0  0  0  0
  9 10  1  0  0  0  0
  9 24  1  0  0  0  0
 10 11  1  0  0  0  0
 10 25  1  0  0  0  0
 10 26  1  0  0  0  0
 11 19  1  0  0  0  0
 11 12  1  0  0  0  0
 11 27  1  0  0  0  0
 12 13  1  0  0  0  0
 12 28  1  0  0  0  0
 12 29  1  0  0  0  0
 13 17  1  0  0  0  0
 13 14  1  0  0  0  0
 13 39  1  0  0  0  0
 14 15  1  0  0  0  0
 14 30  1  0  0  0  0
 14 31  1  0  0  0  0
 15 16  1  0  0  0  0
 15 32  1  0  0  0  0
 15 33  1  0  0  0  0
 16 17  1  0  0  0  0
 16 34  1  0  0  0  0
 16 35  1  0  0  0  0
 17 18  1  0  0  0  0
 17 36  1  0  0  0  0
 18 19  1  0  0  0  0
 18 37  1  0  0  0  0
 18 38  1  0  0  0  0
M  CHG  1   6  -1
M  CHG  1  13   1
M  END
> <s_m_source_file>
AV-unprocessed.smi

> <i_m_source_file_index>
1809

> <i_lp_mmshare_version>
43012

> <i_f3d_flags>
0

> <s_epik_input>
W0NIM11jMW5uYyhzMSlbTkhdQyg9TylbTkhdW0NIMl1bQ0BIXShbQ0gyXTIpT1tDSDJdW0NAQEhdKE4yMylbQ0gyXVtDSDJdW0NIMl0z

> <s_epik_cmdline>
J2VwaWtfcHl0aG9uJywgJy1waCcsICc3LjAnLCAnLXRuJywgJzgnLCAnLW1hJywgJzIwMCcsICctbWV0YWxfYmluZGluZycsICctaW1hZScsICc8aW5maWxlLm1hZT4nLCAnLW9tYWUnLCAnPG91dGZpbGUubWFlPic=

> <r_lp_tautomer_probability>
1

> <r_epik_Ionization_Penalty>
3.2601

> <r_epik_Ionization_Penalty_Charging>
3.1406

> <r_epik_Ionization_Penalty_Neutral>
0.119497

> <r_epik_State_Penalty>
3.08894

> <r_epik_Charging_Adjusted_Penalty>
6.22954

> <i_epik_Tot_Q>
0

> <i_epik_Tot_abs_Q>
2

> <r_epik_Metal_State_Penalty>
0.510807

> <b_epik_Metal_Only>
1

> <s_lp_Force_Field>
OPLS_2005

> <r_lp_Energy>
29.8237

> <b_lp_Chiralities_Consistent>
1

> <s_lp_Variant>
AV-unprocessed.smi:1809-20

> <Gold.Version>
5.8.1

> <Gold.Id.Protein>
6NUR|6NUR_protein|mol2

> <Gold.PLP.Fitness>
39.1646

> <Gold.PLP.PLP>
-28.8686

> <Gold.PLP.part.hbond>
-4.0000

> <Gold.PLP.part.metal>
0.0000

> <Gold.PLP.part.buried>
-3.3026

> <Gold.PLP.part.nonpolar>
-22.0357

> <Gold.PLP.part.repulsive>
1.6469

> <Gold.PLP.ligand.clash>
0.0000

> <Gold.PLP.ligand.torsion>
0.4133

> <Gold.PLP.Chemscore.Hbond>
3.6969

> <Gold.PLP.Chemscore.CHOScore>
0.0000

> <Gold.PLP.Chemscore.Metal>
0.0000

> <Gold.Chemscore.Hbonds>
donor molecule, donor type, donor heavy atom, donor atom, acceptor molecule, acceptor atom, score
      L1  H     9    24       P1  7948  0.98
      P1  H  6896  6907       L1     3  0.50

> <Gold.PLP.Chemscore.Internal.Correction>
0.0321

> <Gold.Rescore>
     Score         DG    S(hbond)    S(metal)    S(lipo)     H(rot)  DE(clash)    DE(int)     intcor
     10.63     -12.55       0.76        0.00      67.81       1.32       0.15       1.78       ----

> <Gold.Chemscore.Fitness>
10.6253

> <Gold.Chemscore.DG>
-12.5513

> <Gold.Chemscore.ZeroCoef>
-5.4800

> <Gold.Chemscore.Hbond>
0.7569

> <Gold.Chemscore.Metal>
0.0000

> <Gold.Chemscore.Lipo>
67.8142

> <Gold.Chemscore.Internal_Hbond>
0.0000

> <Gold.Chemscore.DEClash>
0.1470

> <Gold.Chemscore.DEInternal>
1.7790

> <Gold.Chemscore.Rot>
1.3246

> <Gold.Chemscore.Internal.Correction>
   9.000000E+99

> <Gold.Chemscore.Hbonds>
donor molecule, donor type, donor heavy atom, donor atom, acceptor molecule, acceptor atom, score
      L1  H     9    24       P1  7948  0.64
      P1  H  6896  6907       L1     3  0.07
      P1  H 10752 10765       L1     6  0.01

> <Gold.Chemscore.Hbond.Weighted>
-2.5280

> <Gold.Chemscore.Metal.Weighted>
-0.0000

> <Gold.Chemscore.Lipo.Weighted>
-7.9343

> <Gold.Chemscore.Internal_Hbond.Weighted>
0.0000

> <Gold.Chemscore.DEClash.Weighted>
0.1470

> <Gold.Chemscore.DEInternal.Weighted>
1.7790

> <Gold.Chemscore.Rot.Weighted>
3.3910

> <Gold.Chemscore.Internal.Correction.Weighted>
   9.000000E+99

> <Gold.Protein.RotatedTorsions>
[ 6907 6896 6895 6894 ] final   -3.76 input  -60.11 | X-H torsion
[ 7974 7965 7964 7962 ] final   21.48 input  175.53 | X-H torsion
[ 8008 7997 7996 7995 ] final  123.71 input   59.86 | X-H torsion
[ 10167 10162 10161 10158 ] final  106.85 input  -65.29 | X-H torsion
[ 10718 10713 10712 10709 ] final -145.68 input   66.30 | X-H torsion
[ 10763 10752 10751 10750 ] final  173.18 input  -60.55 | X-H torsion
[ 11005 11000 10999 10996 ] final  147.38 input  -57.11 | X-H torsion

> <Gold.Protein.ActiveResidues>
 VAL166  LYS551  ARG553  GLY616  TRP617  ASP618  TYR619  PRO620  LYS621  CYS622 
 ASP623  PHE694  ASN695  SER759  ASP760  ASP761  ALA762  ILE779  LEU786  VAL792 
 PHE793  MET794  SER795  GLU796  ALA797  LYS798  CYS799  TRP800  GLU811  SER814 

> <Gold.Protein.RotatedAtoms>
  151.5086  135.1064  159.9847 H   0  0  0  0  0  0  0  0  0  0  0  0  # atno 6907 bound_to 6896
  152.4671  133.7943  159.6929 H   0  0  0  0  0  0  0  0  0  0  0  0  # atno 6908 bound_to 6896
  150.8661  133.7509  159.3002 H   0  0  0  0  0  0  0  0  0  0  0  0  # atno 6909 bound_to 6896
  146.2069  139.8021  142.8719 H   0  0  0  0  0  0  0  0  0  0  0  0  # atno 7974 bound_to 7965
  156.2776  140.2756  156.1671 H   0  0  0  0  0  0  0  0  0  0  0  0  # atno 8008 bound_to 7997
  155.0693  140.0387  157.2621 H   0  0  0  0  0  0  0  0  0  0  0  0  # atno 8009 bound_to 7997
  154.7053  140.2657  155.6686 H   0  0  0  0  0  0  0  0  0  0  0  0  # atno 8010 bound_to 7997
  139.6975  144.7099  151.1242 H   0  0  0  0  0  0  0  0  0  0  0  0  # atno 10167 bound_to 10162
  156.3854  130.7859  151.2055 H   0  0  0  0  0  0  0  0  0  0  0  0  # atno 10718 bound_to 10713
  154.4364  135.2761  155.1877 H   0  0  0  0  0  0  0  0  0  0  0  0  # atno 10763 bound_to 10752
  154.3762  135.6098  153.5769 H   0  0  0  0  0  0  0  0  0  0  0  0  # atno 10764 bound_to 10752
  152.9838  135.5869  154.4684 H   0  0  0  0  0  0  0  0  0  0  0  0  # atno 10765 bound_to 10752
  140.0871  134.9063  157.1592 H   0  0  0  0  0  0  0  0  0  0  0  0  # atno 11005 bound_to 11000
  145.3286  141.0261  143.3459 LP  0  0  0  0  0  0  0  0  0  0  0  0  # atno 17320 bound_to 7965
  144.8815  139.4897  143.6720 LP  0  0  0  0  0  0  0  0  0  0  0  0  # atno 17321 bound_to 7965
  140.7700  143.5471  150.9246 LP  0  0  0  0  0  0  0  0  0  0  0  0  # atno 17342 bound_to 10162
  139.9151  143.6673  152.3108 LP  0  0  0  0  0  0  0  0  0  0  0  0  # atno 17343 bound_to 10162
  157.7495  131.0331  150.4258 LP  0  0  0  0  0  0  0  0  0  0  0  0  # atno 17370 bound_to 10713
  156.4510  130.4011  149.6636 LP  0  0  0  0  0  0  0  0  0  0  0  0  # atno 17371 bound_to 10713
  140.3405  134.2709  155.7213 LP  0  0  0  0  0  0  0  0  0  0  0  0  # atno 17394 bound_to 11000
  141.2066  133.7829  157.0168 LP  0  0  0  0  0  0  0  0  0  0  0  0  # atno 17395 bound_to 11000

$$$$
