AV-unprocessed.smi:213|AV-procd|sdf|1645|dock7
  -GOLD-   2262020 23D 1   1.00000     0.00000
 Structure written by MMmdl.
 58 61  0  0  0  0  0  0  0  0  1 V2000
  148.3855  142.1446  157.6751 C   0  0  0  0  0  0  0  0  0  0  0  0
  149.4936  141.0772  157.6709 C   0  0  2  0  0  0  0  0  0  0  0  0
  150.7587  141.5454  156.9173 C   0  0  0  0  0  0  0  0  0  0  0  0
  151.7010  142.3429  157.7029 N   0  0  0  0  0  0  0  0  0  0  0  0
  151.1754  143.6637  158.0439 C   0  0  0  0  0  0  0  0  0  0  0  0
  152.1686  144.4749  158.8948 C   0  0  0  0  0  0  0  0  0  0  0  0
  152.5085  143.7425  160.0677 O   0  0  0  0  0  0  0  0  0  0  0  0
  153.0680  142.4666  159.7739 C   0  0  0  0  0  0  0  0  0  0  0  0
  152.0719  141.6506  158.9323 C   0  0  0  0  0  0  0  0  0  0  0  0
  148.9988  139.8098  157.1244 N   0  0  0  0  0  0  0  0  0  0  0  0
  148.8121  138.6493  157.9934 C   0  0  0  0  0  0  0  0  0  0  0  0
  148.3066  139.8431  155.9561 C   0  0  0  0  0  0  0  0  0  0  0  0
  148.3984  140.9436  155.1624 N   0  0  0  0  0  0  0  0  0  0  0  0
  147.7229  141.0065  154.0110 C   0  0  0  0  0  0  0  0  0  0  0  0
  146.9030  140.1014  153.4742 N   0  0  0  0  0  0  0  0  0  0  0  0
  146.7966  138.9996  154.2703 C   0  0  0  0  0  0  0  0  0  0  0  0
  147.4583  138.7872  155.5131 C   0  0  0  0  0  0  0  0  0  0  0  0
  147.0877  137.5529  156.0368 N   0  0  0  0  0  0  0  0  0  0  0  0
  146.2632  137.0622  155.1523 C   0  0  0  0  0  0  0  0  0  0  0  0
  146.0247  137.8708  154.0648 N   0  0  0  0  0  0  0  0  0  0  0  0
  145.1400  137.5919  152.9474 C   0  0  0  0  0  0  0  0  0  0  0  0
  145.7411  136.5616  151.9705 C   0  0  2  0  0  0  0  0  0  0  0  0
  146.4534  137.2454  150.9566 O   0  0  0  0  0  0  0  0  0  0  0  0
  144.6654  135.6759  151.3152 C   0  0  1  0  0  0  0  0  0  0  0  0
  145.2219  134.4805  150.5384 C   0  0  0  0  0  0  0  0  0  0  0  0
  144.0516  133.5255  150.5641 C   0  0  0  0  0  0  0  0  0  0  0  0
  143.5060  133.7457  151.9712 C   0  0  0  0  0  0  0  0  0  0  0  0
  143.8248  135.0932  152.3101 O   0  0  0  0  0  0  0  0  0  0  0  0
  148.7202  143.0546  158.1735 H   0  0  0  0  0  0  0  0  0  0  0  0
  147.5044  141.7879  158.2093 H   0  0  0  0  0  0  0  0  0  0  0  0
  148.0778  142.4197  156.6665 H   0  0  0  0  0  0  0  0  0  0  0  0
  149.7776  140.9128  158.7072 H   0  0  0  0  0  0  0  0  0  0  0  0
  151.2783  140.6764  156.5103 H   0  0  0  0  0  0  0  0  0  0  0  0
  150.4385  142.1299  156.0537 H   0  0  0  0  0  0  0  0  0  0  0  0
  150.9523  144.2311  157.1414 H   0  0  0  0  0  0  0  0  0  0  0  0
  150.2354  143.5588  158.5883 H   0  0  0  0  0  0  0  0  0  0  0  0
  153.0710  144.6995  158.3242 H   0  0  0  0  0  0  0  0  0  0  0  0
  151.7280  145.4286  159.1859 H   0  0  0  0  0  0  0  0  0  0  0  0
  154.0133  142.5890  159.2428 H   0  0  0  0  0  0  0  0  0  0  0  0
  153.2892  141.9498  160.7079 H   0  0  0  0  0  0  0  0  0  0  0  0
  151.1796  141.4474  159.5265 H   0  0  0  0  0  0  0  0  0  0  0  0
  152.5137  140.6825  158.6934 H   0  0  0  0  0  0  0  0  0  0  0  0
  148.8769  137.7238  157.4200 H   0  0  0  0  0  0  0  0  0  0  0  0
  147.8369  138.6856  158.4802 H   0  0  0  0  0  0  0  0  0  0  0  0
  149.5742  138.6090  158.7705 H   0  0  0  0  0  0  0  0  0  0  0  0
  147.8563  141.9134  153.4399 H   0  0  0  0  0  0  0  0  0  0  0  0
  145.7933  136.0972  155.2764 H   0  0  0  0  0  0  0  0  0  0  0  0
  144.1927  137.2295  153.3481 H   0  0  0  0  0  0  0  0  0  0  0  0
  144.9229  138.5276  152.4304 H   0  0  0  0  0  0  0  0  0  0  0  0
  146.4482  135.9270  152.5064 H   0  0  0  0  0  0  0  0  0  0  0  0
  147.3234  136.8801  150.9055 H   0  0  0  0  0  0  0  0  0  0  0  0
  144.0332  136.2708  150.6536 H   0  0  0  0  0  0  0  0  0  0  0  0
  145.5391  134.7400  149.5279 H   0  0  0  0  0  0  0  0  0  0  0  0
  146.0724  134.0409  151.0616 H   0  0  0  0  0  0  0  0  0  0  0  0
  143.3101  133.8218  149.8207 H   0  0  0  0  0  0  0  0  0  0  0  0
  144.3363  132.4906  150.3723 H   0  0  0  0  0  0  0  0  0  0  0  0
  142.4333  133.5618  152.0336 H   0  0  0  0  0  0  0  0  0  0  0  0
  144.0049  133.0852  152.6816 H   0  0  0  0  0  0  0  0  0  0  0  0
  1  2  1  0  0  0  0
  1 29  1  0  0  0  0
  1 30  1  0  0  0  0
  1 31  1  0  0  0  0
  2  3  1  0  0  0  0
  2 10  1  0  0  0  0
  2 32  1  0  0  0  0
  3  4  1  0  0  0  0
  3 33  1  0  0  0  0
  3 34  1  0  0  0  0
  4  9  1  0  0  0  0
  4  5  1  0  0  0  0
  5  6  1  0  0  0  0
  5 35  1  0  0  0  0
  5 36  1  0  0  0  0
  6  7  1  0  0  0  0
  6 37  1  0  0  0  0
  6 38  1  0  0  0  0
  7  8  1  0  0  0  0
  8  9  1  0  0  0  0
  8 39  1  0  0  0  0
  8 40  1  0  0  0  0
  9 41  1  0  0  0  0
  9 42  1  0  0  0  0
 10 11  1  0  0  0  0
 10 12  1  0  0  0  0
 11 43  1  0  0  0  0
 11 44  1  0  0  0  0
 11 45  1  0  0  0  0
 12 17  1  0  0  0  0
 12 13  2  0  0  0  0
 13 14  1  0  0  0  0
 14 15  2  0  0  0  0
 14 46  1  0  0  0  0
 15 16  1  0  0  0  0
 16 20  1  0  0  0  0
 16 17  2  0  0  0  0
 17 18  1  0  0  0  0
 18 19  2  0  0  0  0
 19 20  1  0  0  0  0
 19 47  1  0  0  0  0
 20 21  1  0  0  0  0
 21 22  1  0  0  0  0
 21 48  1  0  0  0  0
 21 49  1  0  0  0  0
 22 23  1  0  0  0  0
 22 24  1  0  0  0  0
 22 50  1  0  0  0  0
 23 51  1  0  0  0  0
 24 28  1  0  0  0  0
 24 25  1  0  0  0  0
 24 52  1  0  0  0  0
 25 26  1  0  0  0  0
 25 53  1  0  0  0  0
 25 54  1  0  0  0  0
 26 27  1  0  0  0  0
 26 55  1  0  0  0  0
 26 56  1  0  0  0  0
 27 28  1  0  0  0  0
 27 57  1  0  0  0  0
 27 58  1  0  0  0  0
M  END
> <s_m_source_file>
AV-unprocessed.smi

> <i_m_source_file_index>
213

> <i_lp_mmshare_version>
43012

> <i_f3d_flags>
0

> <s_epik_input>
W0NIMl0xW0NIMl1PW0NIMl1bQ0gyXU4xW0NIMl1bQ0BASF0oW0NIM10pTihbQ0gzXSljKG5bY0hdbjIpYyhjMjMpbltjSF1uM1tDSDJdW0NASF0oW09IXSlbQ0BASF00W0NIMl1bQ0gyXVtDSDJdTzQ=

> <s_epik_cmdline>
J2VwaWtfcHl0aG9uJywgJy1waCcsICc3LjAnLCAnLXRuJywgJzgnLCAnLW1hJywgJzIwMCcsICctbWV0YWxfYmluZGluZycsICctaW1hZScsICc8aW5maWxlLm1hZT4nLCAnLW9tYWUnLCAnPG91dGZpbGUubWFlPic=

> <r_lp_tautomer_probability>
1

> <r_epik_Ionization_Penalty>
0.423322

> <r_epik_Ionization_Penalty_Charging>
0

> <r_epik_Ionization_Penalty_Neutral>
0.423322

> <r_epik_State_Penalty>
0.569486

> <r_epik_Charging_Adjusted_Penalty>
0.569486

> <i_epik_Tot_Q>
0

> <i_epik_Tot_abs_Q>
0

> <r_epik_Metal_State_Penalty>
0.568671

> <b_epik_Metal_Only>
0

> <s_lp_Force_Field>
OPLS_2005

> <r_lp_Energy>
51.3499

> <b_lp_Chiralities_Consistent>
1

> <s_lp_Variant>
AV-unprocessed.smi:213-13

> <Gold.Version>
5.8.1

> <Gold.Id.Protein>
6NUR|6NUR_protein|mol2

> <Gold.PLP.Fitness>
40.8804

> <Gold.PLP.PLP>
-39.6889

> <Gold.PLP.part.hbond>
-2.8301

> <Gold.PLP.part.metal>
0.0000

> <Gold.PLP.part.buried>
-5.6866

> <Gold.PLP.part.nonpolar>
-32.3803

> <Gold.PLP.part.repulsive>
0.4849

> <Gold.PLP.ligand.clash>
0.0000

> <Gold.PLP.ligand.torsion>
1.3467

> <Gold.PLP.Chemscore.Hbond>
1.0000

> <Gold.PLP.Chemscore.CHOScore>
0.0000

> <Gold.PLP.Chemscore.Metal>
0.0000

> <Gold.Chemscore.Hbonds>
donor molecule, donor type, donor heavy atom, donor atom, acceptor molecule, acceptor atom, score
      L1  H    23    51       P1  7948  1.00

> <Gold.PLP.Chemscore.Internal.Correction>
0.8850

> <Gold.Rescore>
     Score         DG    S(hbond)    S(metal)    S(lipo)     H(rot)  DE(clash)    DE(int)     intcor
      7.87     -12.96       0.99        0.00      95.63       2.74       0.14       4.95       ----

> <Gold.Chemscore.Fitness>
7.8708

> <Gold.Chemscore.DG>
-12.9628

> <Gold.Chemscore.ZeroCoef>
-5.4800

> <Gold.Chemscore.Hbond>
0.9889

> <Gold.Chemscore.Metal>
0.0000

> <Gold.Chemscore.Lipo>
95.6273

> <Gold.Chemscore.Internal_Hbond>
0.0000

> <Gold.Chemscore.DEClash>
0.1380

> <Gold.Chemscore.DEInternal>
4.9540

> <Gold.Chemscore.Rot>
2.7378

> <Gold.Chemscore.Internal.Correction>
   9.000000E+99

> <Gold.Chemscore.Hbonds>
donor molecule, donor type, donor heavy atom, donor atom, acceptor molecule, acceptor atom, score
      L1  H    23    51       P1  7948  0.93

> <Gold.Chemscore.Hbond.Weighted>
-3.3031

> <Gold.Chemscore.Metal.Weighted>
-0.0000

> <Gold.Chemscore.Lipo.Weighted>
-11.1884

> <Gold.Chemscore.Internal_Hbond.Weighted>
0.0000

> <Gold.Chemscore.DEClash.Weighted>
0.1380

> <Gold.Chemscore.DEInternal.Weighted>
4.9540

> <Gold.Chemscore.Rot.Weighted>
7.0087

> <Gold.Chemscore.Internal.Correction.Weighted>
   9.000000E+99

> <Gold.Protein.RotatedTorsions>
[ 6907 6896 6895 6894 ] final  -81.42 input  -60.11 | X-H torsion
[ 7974 7965 7964 7962 ] final -146.19 input  175.53 | X-H torsion
[ 8008 7997 7996 7995 ] final -124.36 input   59.86 | X-H torsion
[ 10167 10162 10161 10158 ] final  -46.76 input  -65.29 | X-H torsion
[ 10718 10713 10712 10709 ] final  115.13 input   66.30 | X-H torsion
[ 10763 10752 10751 10750 ] final    0.70 input  -60.55 | X-H torsion
[ 11005 11000 10999 10996 ] final  179.31 input  -57.11 | X-H torsion

> <Gold.Protein.ActiveResidues>
 VAL166  LYS551  ARG553  GLY616  TRP617  ASP618  TYR619  PRO620  LYS621  CYS622 
 ASP623  PHE694  ASN695  SER759  ASP760  ASP761  ALA762  ILE779  LEU786  VAL792 
 PHE793  MET794  SER795  GLU796  ALA797  LYS798  CYS799  TRP800  GLU811  SER814 

> <Gold.Protein.RotatedAtoms>
  150.6912  134.3820  159.5037 H   0  0  0  0  0  0  0  0  0  0  0  0  # atno 6907 bound_to 6896
  152.1621  134.8901  160.0550 H   0  0  0  0  0  0  0  0  0  0  0  0  # atno 6908 bound_to 6896
  151.9959  133.3773  159.4199 H   0  0  0  0  0  0  0  0  0  0  0  0  # atno 6909 bound_to 6896
  144.8176  140.5488  143.5600 H   0  0  0  0  0  0  0  0  0  0  0  0  # atno 7974 bound_to 7965
  155.1956  140.0414  157.2908 H   0  0  0  0  0  0  0  0  0  0  0  0  # atno 8008 bound_to 7997
  154.6109  140.2476  155.7642 H   0  0  0  0  0  0  0  0  0  0  0  0  # atno 8009 bound_to 7997
  156.2378  140.2915  156.0371 H   0  0  0  0  0  0  0  0  0  0  0  0  # atno 8010 bound_to 7997
  140.6804  143.2815  151.3830 H   0  0  0  0  0  0  0  0  0  0  0  0  # atno 10167 bound_to 10162
  157.6240  131.1008  150.7285 H   0  0  0  0  0  0  0  0  0  0  0  0  # atno 10718 bound_to 10713
  153.3174  135.6967  153.7061 H   0  0  0  0  0  0  0  0  0  0  0  0  # atno 10763 bound_to 10752
  153.5915  135.3479  155.2913 H   0  0  0  0  0  0  0  0  0  0  0  0  # atno 10764 bound_to 10752
  154.8589  135.4319  154.2328 H   0  0  0  0  0  0  0  0  0  0  0  0  # atno 10765 bound_to 10752
  140.4047  134.6746  157.4581 H   0  0  0  0  0  0  0  0  0  0  0  0  # atno 11005 bound_to 11000
  145.5178  139.1477  143.3569 LP  0  0  0  0  0  0  0  0  0  0  0  0  # atno 17320 bound_to 7965
  146.2480  140.5319  142.8905 LP  0  0  0  0  0  0  0  0  0  0  0  0  # atno 17321 bound_to 7965
  139.6122  144.1075  152.2310 LP  0  0  0  0  0  0  0  0  0  0  0  0  # atno 17342 bound_to 10162
  140.0492  144.5946  150.7349 LP  0  0  0  0  0  0  0  0  0  0  0  0  # atno 17343 bound_to 10162
  156.7637  130.4806  149.5432 LP  0  0  0  0  0  0  0  0  0  0  0  0  # atno 17370 bound_to 10713
  156.1402  130.6239  151.0456 LP  0  0  0  0  0  0  0  0  0  0  0  0  # atno 17371 bound_to 10713
  140.0311  134.6405  155.9106 LP  0  0  0  0  0  0  0  0  0  0  0  0  # atno 17394 bound_to 11000
  141.1844  133.6552  156.5154 LP  0  0  0  0  0  0  0  0  0  0  0  0  # atno 17395 bound_to 11000

$$$$
