AV-unprocessed.smi:911|AV-procd|sdf|4138|dock9
  -GOLD-   22720 2 43D 1   1.00000     0.00000
 Structure written by MMmdl.
 47 49  0  0  0  0  0  0  0  0  3 V2000
  145.4347  134.2095  159.9820 C   0  0  0  0  0  0  0  0  0  0  0  0
  145.8566  135.0229  161.2387 C   0  0  0  0  0  0  0  0  0  0  0  0
  144.5950  135.0465  162.1471 C   0  0  0  0  0  0  0  0  0  0  0  0
  147.1298  134.5015  161.9349 C   0  0  2  0  0  0  0  0  0  0  0  0
  147.3772  135.5343  163.0583 C   0  0  0  0  0  0  0  0  0  0  0  0
  146.9293  136.8570  162.4016 C   0  0  0  0  0  0  0  0  0  0  0  0
  146.5128  136.4083  160.9768 C   0  0  2  0  0  0  0  0  0  0  0  0
  145.6238  137.4494  160.2681 C   0  0  0  0  0  0  0  0  0  0  0  0
  147.8569  136.0750  160.2553 C   0  0  2  0  0  0  0  0  0  0  0  0
  147.7249  135.9977  158.8033 N   0  0  0  0  0  0  0  0  0  0  0  0
  148.7136  135.9102  157.8983 C   0  0  0  0  0  0  0  0  0  0  0  0
  149.9013  135.8187  158.2050 O   0  0  0  0  0  0  0  0  0  0  0  0
  148.3217  135.9628  156.4110 C   0  0  0  0  0  0  0  0  0  0  0  0
  148.8809  137.1150  155.6790 N   0  0  0  0  0  0  0  0  0  0  0  0
  150.2825  137.2577  155.7043 C   0  0  0  0  0  0  0  0  0  0  0  0
  150.9076  138.2981  155.1204 C   0  0  0  0  0  0  0  0  0  0  0  0
  152.3444  138.4455  155.1888 N   0  3  0  0  0  0  0  0  0  0  0  0
  153.0215  137.4704  155.4982 O   0  0  0  0  0  0  0  0  0  0  0  0
  152.8434  139.5370  154.9315 O   0  5  0  0  0  0  0  0  0  0  0  0
  150.0875  139.2802  154.4385 C   0  0  0  0  0  0  0  0  0  0  0  0
  148.7462  139.1523  154.4143 C   0  0  0  0  0  0  0  0  0  0  0  0
  148.0666  138.0289  155.0679 C   0  0  0  0  0  0  0  0  0  0  0  0
  146.8404  137.9239  155.0761 O   0  0  0  0  0  0  0  0  0  0  0  0
  148.2411  134.7161  160.8818 C   0  0  0  0  0  0  0  0  0  0  0  0
  145.0419  133.2342  160.2705 H   0  0  0  0  0  0  0  0  0  0  0  0
  146.2284  134.0068  159.2688 H   0  0  0  0  0  0  0  0  0  0  0  0
  144.6427  134.7218  159.4350 H   0  0  0  0  0  0  0  0  0  0  0  0
  144.7075  135.5874  163.0839 H   0  0  0  0  0  0  0  0  0  0  0  0
  144.2953  134.0325  162.4138 H   0  0  0  0  0  0  0  0  0  0  0  0
  143.7522  135.5020  161.6262 H   0  0  0  0  0  0  0  0  0  0  0  0
  147.0697  133.4745  162.2965 H   0  0  0  0  0  0  0  0  0  0  0  0
  146.7854  135.3128  163.9467 H   0  0  0  0  0  0  0  0  0  0  0  0
  148.4220  135.5643  163.3697 H   0  0  0  0  0  0  0  0  0  0  0  0
  146.0980  137.3038  162.9473 H   0  0  0  0  0  0  0  0  0  0  0  0
  147.7262  137.6015  162.3933 H   0  0  0  0  0  0  0  0  0  0  0  0
  146.1687  138.3796  160.1061 H   0  0  0  0  0  0  0  0  0  0  0  0
  144.7406  137.6852  160.8614 H   0  0  0  0  0  0  0  0  0  0  0  0
  145.2776  137.0951  159.2971 H   0  0  0  0  0  0  0  0  0  0  0  0
  148.6202  136.8156  160.5009 H   0  0  0  0  0  0  0  0  0  0  0  0
  146.7828  136.0633  158.4465 H   0  0  0  0  0  0  0  0  0  0  0  0
  148.6547  135.0372  155.9393 H   0  0  0  0  0  0  0  0  0  0  0  0
  147.2331  135.9389  156.3394 H   0  0  0  0  0  0  0  0  0  0  0  0
  150.7995  136.4799  156.2481 H   0  0  0  0  0  0  0  0  0  0  0  0
  150.5424  140.1252  153.9428 H   0  0  0  0  0  0  0  0  0  0  0  0
  148.1543  139.8967  153.9018 H   0  0  0  0  0  0  0  0  0  0  0  0
  149.2343  134.7422  161.3316 H   0  0  0  0  0  0  0  0  0  0  0  0
  148.2543  133.9101  160.1474 H   0  0  0  0  0  0  0  0  0  0  0  0
  1  2  1  0  0  0  0
  1 25  1  0  0  0  0
  1 26  1  0  0  0  0
  1 27  1  0  0  0  0
  2  7  1  0  0  0  0
  2  3  1  0  0  0  0
  2  4  1  0  0  0  0
  3 28  1  0  0  0  0
  3 29  1  0  0  0  0
  3 30  1  0  0  0  0
  4 24  1  0  0  0  0
  4  5  1  0  0  0  0
  4 31  1  0  0  0  0
  5  6  1  0  0  0  0
  5 32  1  0  0  0  0
  5 33  1  0  0  0  0
  6  7  1  0  0  0  0
  6 34  1  0  0  0  0
  6 35  1  0  0  0  0
  7  8  1  0  0  0  0
  7  9  1  0  0  0  0
  8 36  1  0  0  0  0
  8 37  1  0  0  0  0
  8 38  1  0  0  0  0
  9 10  1  0  0  0  0
  9 24  1  0  0  0  0
  9 39  1  0  0  0  0
 10 11  1  0  0  0  0
 10 40  1  0  0  0  0
 11 12  2  0  0  0  0
 11 13  1  0  0  0  0
 13 14  1  0  0  0  0
 13 41  1  0  0  0  0
 13 42  1  0  0  0  0
 14 22  1  0  0  0  0
 14 15  1  0  0  0  0
 15 16  2  0  0  0  0
 15 43  1  0  0  0  0
 16 17  1  0  0  0  0
 16 20  1  0  0  0  0
 17 18  2  0  0  0  0
 17 19  1  0  0  0  0
 20 21  2  0  0  0  0
 20 44  1  0  0  0  0
 21 22  1  0  0  0  0
 21 45  1  0  0  0  0
 22 23  2  0  0  0  0
 24 46  1  0  0  0  0
 24 47  1  0  0  0  0
M  CHG  1  17   1
M  CHG  1  19  -1
M  END
> <s_m_source_file>
AV-unprocessed.smi

> <i_m_source_file_index>
911

> <i_lp_mmshare_version>
43012

> <i_f3d_flags>
0

> <s_epik_input>
W0NIM11bQ0BdMTJDKFtDSDNdKShbQ0gzXSlbQ0BIXShbQ0gyXVtDSDJdMSlbQ0gyXVtDQEBIXTJbTkhdQyg9TylbQ0gyXW4zW2NIXWMoW04rXSg9TylbTy1dKVtjSF1bY0hdYzM9Tw==

> <s_epik_cmdline>
J2VwaWtfcHl0aG9uJywgJy1waCcsICc3LjAnLCAnLXRuJywgJzgnLCAnLW1hJywgJzIwMCcsICctbWV0YWxfYmluZGluZycsICctaW1hZScsICc8aW5maWxlLm1hZT4nLCAnLW9tYWUnLCAnPG91dGZpbGUubWFlPic=

> <r_lp_tautomer_probability>
1

> <r_epik_Ionization_Penalty>
2.04092e-08

> <r_epik_Ionization_Penalty_Charging>
8.54191e-11

> <r_epik_Ionization_Penalty_Neutral>
2.03238e-08

> <r_epik_State_Penalty>
-0

> <r_epik_Charging_Adjusted_Penalty>
8.54191e-11

> <i_epik_Tot_Q>
0

> <i_epik_Tot_abs_Q>
2

> <r_epik_Metal_State_Penalty>
-0

> <b_epik_Metal_Only>
0

> <s_lp_Force_Field>
OPLS_2005

> <r_lp_Energy>
66.6033

> <b_lp_Chiralities_Consistent>
1

> <s_lp_Variant>
AV-unprocessed.smi:911-3

> <Gold.Version>
5.8.1

> <Gold.Id.Protein>
6NUR|6NUR_protein|mol2

> <Gold.PLP.Fitness>
40.7141

> <Gold.PLP.PLP>
-33.0930

> <Gold.PLP.part.hbond>
-4.0000

> <Gold.PLP.part.metal>
0.0000

> <Gold.PLP.part.buried>
-5.6859

> <Gold.PLP.part.nonpolar>
-23.9446

> <Gold.PLP.part.repulsive>
0.1434

> <Gold.PLP.ligand.clash>
0.0000

> <Gold.PLP.ligand.torsion>
0.2671

> <Gold.PLP.Chemscore.Hbond>
2.7080

> <Gold.PLP.Chemscore.CHOScore>
0.0000

> <Gold.PLP.Chemscore.Metal>
0.0000

> <Gold.Chemscore.Hbonds>
donor molecule, donor type, donor heavy atom, donor atom, acceptor molecule, acceptor atom, score
      P1  H  6896  6908       L1    12  1.00
      P1  H  7989  7998       L1    19  0.21
      P1  H  7997  8010       L1    19  1.00
      P1  H 10752 10765       L1    18  0.40

> <Gold.PLP.Chemscore.Internal.Correction>
0.0314

> <Gold.Rescore>
     Score         DG    S(hbond)    S(metal)    S(lipo)     H(rot)  DE(clash)    DE(int)     intcor
     18.27     -19.80       2.52        0.00      84.01       1.53       0.04       1.49       ----

> <Gold.Chemscore.Fitness>
18.2713

> <Gold.Chemscore.DG>
-19.8030

> <Gold.Chemscore.ZeroCoef>
-5.4800

> <Gold.Chemscore.Hbond>
2.5163

> <Gold.Chemscore.Metal>
0.0000

> <Gold.Chemscore.Lipo>
84.0146

> <Gold.Chemscore.Internal_Hbond>
0.0000

> <Gold.Chemscore.DEClash>
0.0402

> <Gold.Chemscore.DEInternal>
1.4914

> <Gold.Chemscore.Rot>
1.5277

> <Gold.Chemscore.Internal.Correction>
   9.000000E+99

> <Gold.Chemscore.Hbonds>
donor molecule, donor type, donor heavy atom, donor atom, acceptor molecule, acceptor atom, score
      P1  H  6896  6908       L1    12  0.94
      P1  H  7989  7998       L1    19  0.20
      P1  H  7997  8010       L1    19  0.96
      P1  H 10752 10765       L1    18  0.38

> <Gold.Chemscore.Hbond.Weighted>
-8.4043

> <Gold.Chemscore.Metal.Weighted>
-0.0000

> <Gold.Chemscore.Lipo.Weighted>
-9.8297

> <Gold.Chemscore.Internal_Hbond.Weighted>
0.0000

> <Gold.Chemscore.DEClash.Weighted>
0.0402

> <Gold.Chemscore.DEInternal.Weighted>
1.4914

> <Gold.Chemscore.Rot.Weighted>
3.9110

> <Gold.Chemscore.Internal.Correction.Weighted>
   9.000000E+99

> <Gold.Protein.RotatedTorsions>
[ 6907 6896 6895 6894 ] final  178.41 input  -60.11 | X-H torsion
[ 7974 7965 7964 7962 ] final -176.63 input  175.53 | X-H torsion
[ 8008 7997 7996 7995 ] final  110.51 input   59.86 | X-H torsion
[ 10167 10162 10161 10158 ] final  -38.37 input  -65.29 | X-H torsion
[ 10718 10713 10712 10709 ] final   35.10 input   66.30 | X-H torsion
[ 10763 10752 10751 10750 ] final -160.52 input  -60.55 | X-H torsion
[ 11005 11000 10999 10996 ] final   33.49 input  -57.11 | X-H torsion

> <Gold.Protein.ActiveResidues>
 VAL166  LYS551  ARG553  GLY616  TRP617  ASP618  TYR619  PRO620  LYS621  CYS622 
 ASP623  PHE694  ASN695  SER759  ASP760  ASP761  ALA762  ILE779  LEU786  VAL792 
 PHE793  MET794  SER795  GLU796  ALA797  LYS798  CYS799  TRP800  GLU811  SER814 

> <Gold.Protein.RotatedAtoms>
  151.6883  133.3311  159.3236 H   0  0  0  0  0  0  0  0  0  0  0  0  # atno 6907 bound_to 6896
  150.7791  134.6721  159.6406 H   0  0  0  0  0  0  0  0  0  0  0  0  # atno 6908 bound_to 6896
  152.3842  134.6546  160.0183 H   0  0  0  0  0  0  0  0  0  0  0  0  # atno 6909 bound_to 6896
  144.7127  140.1140  143.6409 H   0  0  0  0  0  0  0  0  0  0  0  0  # atno 7974 bound_to 7965
  156.2058  140.3037  155.9624 H   0  0  0  0  0  0  0  0  0  0  0  0  # atno 8008 bound_to 7997
  155.2845  140.0439  157.3035 H   0  0  0  0  0  0  0  0  0  0  0  0  # atno 8009 bound_to 7997
  154.5631  140.2326  155.8313 H   0  0  0  0  0  0  0  0  0  0  0  0  # atno 8010 bound_to 7997
  140.7094  143.3281  151.2632 H   0  0  0  0  0  0  0  0  0  0  0  0  # atno 10167 bound_to 10162
  157.3185  130.7436  149.6770 H   0  0  0  0  0  0  0  0  0  0  0  0  # atno 10718 bound_to 10713
  154.7383  135.3062  154.8773 H   0  0  0  0  0  0  0  0  0  0  0  0  # atno 10763 bound_to 10752
  153.9595  135.6754  153.4749 H   0  0  0  0  0  0  0  0  0  0  0  0  # atno 10764 bound_to 10752
  153.0984  135.4924  154.8745 H   0  0  0  0  0  0  0  0  0  0  0  0  # atno 10765 bound_to 10752
  140.2626  134.3174  155.7853 H   0  0  0  0  0  0  0  0  0  0  0  0  # atno 11005 bound_to 11000
  145.9429  139.2681  143.1258 LP  0  0  0  0  0  0  0  0  0  0  0  0  # atno 17320 bound_to 7965
  145.9404  140.8983  143.0310 LP  0  0  0  0  0  0  0  0  0  0  0  0  # atno 17321 bound_to 7965
  139.6755  143.9945  152.2778 LP  0  0  0  0  0  0  0  0  0  0  0  0  # atno 17342 bound_to 10162
  139.9557  144.6591  150.8128 LP  0  0  0  0  0  0  0  0  0  0  0  0  # atno 17343 bound_to 10162
  155.9684  130.4230  150.4542 LP  0  0  0  0  0  0  0  0  0  0  0  0  # atno 17370 bound_to 10713
  157.2553  131.0555  151.2354 LP  0  0  0  0  0  0  0  0  0  0  0  0  # atno 17371 bound_to 10713
  141.2188  133.7418  156.9210 LP  0  0  0  0  0  0  0  0  0  0  0  0  # atno 17394 bound_to 11000
  140.1450  134.9268  157.2517 LP  0  0  0  0  0  0  0  0  0  0  0  0  # atno 17395 bound_to 11000

$$$$
