AV-unprocessed.smi:2863|AV-procd|sdf|11012|dock1
  -GOLD-   2272015473D 1   1.00000     0.00000
 Structure written by MMmdl.
 42 43  0  0  0  0  0  0  0  0  1 V2000
  152.4584  138.8007  154.7692 C   0  0  0  0  0  0  0  0  0  0  0  0
  150.9933  139.0390  154.6449 C   0  0  0  0  0  0  0  0  0  0  0  0
  150.0086  138.1906  154.9330 N   0  0  0  0  0  0  0  0  0  0  0  0
  148.8442  138.8894  154.6461 C   0  0  0  0  0  0  0  0  0  0  0  0
  147.4855  138.2908  154.8451 C   0  0  0  0  0  0  0  0  0  0  0  0
  147.5563  136.7787  155.1121 C   0  0  0  0  0  0  0  0  0  0  0  0
  147.4761  136.0077  153.8771 N   0  0  0  0  0  0  0  0  0  0  0  0
  146.5724  135.0497  153.6283 C   0  0  0  0  0  0  0  0  0  0  0  0
  145.6904  134.7118  154.4181 O   0  0  0  0  0  0  0  0  0  0  0  0
  146.7453  134.5064  152.4152 N   0  0  0  0  0  0  0  0  0  0  0  0
  145.9312  133.4358  151.8475 C   0  0  0  0  0  0  0  0  0  0  0  0
  146.5603  132.9549  150.5261 C   0  0  0  0  0  0  0  0  0  0  0  0
  145.7045  131.8661  149.8585 C   0  0  0  0  0  0  0  0  0  0  0  0
  144.2635  132.3504  149.6340 C   0  0  0  0  0  0  0  0  0  0  0  0
  143.6281  132.8273  150.9496 C   0  0  0  0  0  0  0  0  0  0  0  0
  144.4820  133.9149  151.6213 C   0  0  0  0  0  0  0  0  0  0  0  0
  149.1942  140.1385  154.2006 C   0  0  0  0  0  0  0  0  0  0  0  0
  148.4007  141.3208  153.7582 C   0  0  0  0  0  0  0  0  0  0  0  0
  150.5588  140.2458  154.1919 O   0  0  0  0  0  0  0  0  0  0  0  0
  152.6491  137.8008  155.1598 H   0  0  0  0  0  0  0  0  0  0  0  0
  152.8985  139.5321  155.4470 H   0  0  0  0  0  0  0  0  0  0  0  0
  152.9350  138.8931  153.7933 H   0  0  0  0  0  0  0  0  0  0  0  0
  146.9820  138.7894  155.6742 H   0  0  0  0  0  0  0  0  0  0  0  0
  146.8675  138.4769  153.9659 H   0  0  0  0  0  0  0  0  0  0  0  0
  148.4978  136.5314  155.6034 H   0  0  0  0  0  0  0  0  0  0  0  0
  146.7607  136.4742  155.7946 H   0  0  0  0  0  0  0  0  0  0  0  0
  148.1608  136.2155  153.1648 H   0  0  0  0  0  0  0  0  0  0  0  0
  147.4990  134.8555  151.8416 H   0  0  0  0  0  0  0  0  0  0  0  0
  145.9194  132.5932  152.5420 H   0  0  0  0  0  0  0  0  0  0  0  0
  146.6709  133.7965  149.8406 H   0  0  0  0  0  0  0  0  0  0  0  0
  147.5646  132.5704  150.7080 H   0  0  0  0  0  0  0  0  0  0  0  0
  146.1511  131.5735  148.9076 H   0  0  0  0  0  0  0  0  0  0  0  0
  145.6968  130.9729  150.4841 H   0  0  0  0  0  0  0  0  0  0  0  0
  144.2601  133.1655  148.9093 H   0  0  0  0  0  0  0  0  0  0  0  0
  143.6649  131.5485  149.2008 H   0  0  0  0  0  0  0  0  0  0  0  0
  142.6235  133.2071  150.7612 H   0  0  0  0  0  0  0  0  0  0  0  0
  143.5160  131.9810  151.6285 H   0  0  0  0  0  0  0  0  0  0  0  0
  144.0263  134.2002  152.5703 H   0  0  0  0  0  0  0  0  0  0  0  0
  144.4820  134.8104  150.9982 H   0  0  0  0  0  0  0  0  0  0  0  0
  147.4307  141.3455  154.2553 H   0  0  0  0  0  0  0  0  0  0  0  0
  148.2290  141.2888  152.6822 H   0  0  0  0  0  0  0  0  0  0  0  0
  148.9217  142.2495  153.9919 H   0  0  0  0  0  0  0  0  0  0  0  0
  1  2  1  0  0  0  0
  1 20  1  0  0  0  0
  1 21  1  0  0  0  0
  1 22  1  0  0  0  0
  2 19  1  0  0  0  0
  2  3  2  0  0  0  0
  3  4  1  0  0  0  0
  4  5  1  0  0  0  0
  4 17  2  0  0  0  0
  5  6  1  0  0  0  0
  5 23  1  0  0  0  0
  5 24  1  0  0  0  0
  6  7  1  0  0  0  0
  6 25  1  0  0  0  0
  6 26  1  0  0  0  0
  7  8  1  0  0  0  0
  7 27  1  0  0  0  0
  8  9  2  0  0  0  0
  8 10  1  0  0  0  0
 10 11  1  0  0  0  0
 10 28  1  0  0  0  0
 11 16  1  0  0  0  0
 11 12  1  0  0  0  0
 11 29  1  0  0  0  0
 12 13  1  0  0  0  0
 12 30  1  0  0  0  0
 12 31  1  0  0  0  0
 13 14  1  0  0  0  0
 13 32  1  0  0  0  0
 13 33  1  0  0  0  0
 14 15  1  0  0  0  0
 14 34  1  0  0  0  0
 14 35  1  0  0  0  0
 15 16  1  0  0  0  0
 15 36  1  0  0  0  0
 15 37  1  0  0  0  0
 16 38  1  0  0  0  0
 16 39  1  0  0  0  0
 17 18  1  0  0  0  0
 17 19  1  0  0  0  0
 18 40  1  0  0  0  0
 18 41  1  0  0  0  0
 18 42  1  0  0  0  0
M  END
> <s_m_source_file>
AV-unprocessed.smi

> <i_m_source_file_index>
2863

> <i_lp_mmshare_version>
43012

> <i_f3d_flags>
0

> <s_epik_input>
W0NIM11jMW5jKGMobzEpW0NIM10pW0NIMl1bQ0gyXVtOSF1DKD1PKVtOSF1bQ0hdMltDSDJdW0NIMl1bQ0gyXVtDSDJdW0NIMl0y

> <s_epik_cmdline>
J2VwaWtfcHl0aG9uJywgJy1waCcsICc3LjAnLCAnLXRuJywgJzgnLCAnLW1hJywgJzIwMCcsICctbWV0YWxfYmluZGluZycsICctaW1hZScsICc8aW5maWxlLm1hZT4nLCAnLW9tYWUnLCAnPG91dGZpbGUubWFlPic=

> <r_lp_tautomer_probability>
1

> <r_epik_Ionization_Penalty>
0.000108106

> <r_epik_Ionization_Penalty_Charging>
0

> <r_epik_Ionization_Penalty_Neutral>
0.000108106

> <r_epik_State_Penalty>
-0

> <r_epik_Charging_Adjusted_Penalty>
0

> <i_epik_Tot_Q>
0

> <i_epik_Tot_abs_Q>
0

> <r_epik_Metal_State_Penalty>
-0

> <b_epik_Metal_Only>
0

> <s_lp_Force_Field>
OPLS_2005

> <r_lp_Energy>
1.15326

> <b_lp_Chiralities_Consistent>
1

> <s_lp_Variant>
AV-unprocessed.smi:2863-1

> <Gold.Version>
5.8.1

> <Gold.Id.Protein>
6NUR|6NUR_protein|mol2

> <Gold.PLP.Fitness>
44.1646

> <Gold.PLP.PLP>
-36.2527

> <Gold.PLP.part.hbond>
-2.9508

> <Gold.PLP.part.metal>
0.0000

> <Gold.PLP.part.buried>
-6.1290

> <Gold.PLP.part.nonpolar>
-28.5831

> <Gold.PLP.part.repulsive>
0.3241

> <Gold.PLP.ligand.clash>
0.0000

> <Gold.PLP.ligand.torsion>
0.3574

> <Gold.PLP.Chemscore.Hbond>
2.8640

> <Gold.PLP.Chemscore.CHOScore>
0.0000

> <Gold.PLP.Chemscore.Metal>
0.0000

> <Gold.Chemscore.Hbonds>
donor molecule, donor type, donor heavy atom, donor atom, acceptor molecule, acceptor atom, score
      L1  H     7    27       P1  7948  0.98
      L1  H    10    28       P1  7948  0.85
      P1  H  7989  7998       L1    19  0.71

> <Gold.PLP.Chemscore.Internal.Correction>
0.0347

> <Gold.Rescore>
     Score         DG    S(hbond)    S(metal)    S(lipo)     H(rot)  DE(clash)    DE(int)     intcor
     19.14     -19.56       2.74        0.00      77.54       1.61       0.00       0.42       ----

> <Gold.Chemscore.Fitness>
19.1388

> <Gold.Chemscore.DG>
-19.5623

> <Gold.Chemscore.ZeroCoef>
-5.4800

> <Gold.Chemscore.Hbond>
2.7364

> <Gold.Chemscore.Metal>
0.0000

> <Gold.Chemscore.Lipo>
77.5381

> <Gold.Chemscore.Internal_Hbond>
0.0000

> <Gold.Chemscore.DEClash>
0.0029

> <Gold.Chemscore.DEInternal>
0.4205

> <Gold.Chemscore.Rot>
1.6130

> <Gold.Chemscore.Internal.Correction>
   9.000000E+99

> <Gold.Chemscore.Hbonds>
donor molecule, donor type, donor heavy atom, donor atom, acceptor molecule, acceptor atom, score
      L1  H     7    27       P1  7948  0.92
      L1  H    10    28       P1  7948  0.62
      P1  H  7989  7998       L1    19  0.49

> <Gold.Chemscore.Hbond.Weighted>
-9.1396

> <Gold.Chemscore.Metal.Weighted>
-0.0000

> <Gold.Chemscore.Lipo.Weighted>
-9.0720

> <Gold.Chemscore.Internal_Hbond.Weighted>
0.0000

> <Gold.Chemscore.DEClash.Weighted>
0.0029

> <Gold.Chemscore.DEInternal.Weighted>
0.4205

> <Gold.Chemscore.Rot.Weighted>
4.1293

> <Gold.Chemscore.Internal.Correction.Weighted>
   9.000000E+99

> <Gold.Protein.RotatedTorsions>
[ 6907 6896 6895 6894 ] final -158.76 input  -60.11 | X-H torsion
[ 7974 7965 7964 7962 ] final   45.93 input  175.53 | X-H torsion
[ 8008 7997 7996 7995 ] final   90.41 input   59.86 | X-H torsion
[ 10167 10162 10161 10158 ] final  175.99 input  -65.29 | X-H torsion
[ 10718 10713 10712 10709 ] final  -23.71 input   66.30 | X-H torsion
[ 10763 10752 10751 10750 ] final  -75.11 input  -60.55 | X-H torsion
[ 11005 11000 10999 10996 ] final   -7.49 input  -57.11 | X-H torsion

> <Gold.Protein.ActiveResidues>
 VAL166  LYS551  ARG553  GLY616  TRP617  ASP618  TYR619  PRO620  LYS621  CYS622 
 ASP623  PHE694  ASN695  SER759  ASP760  ASP761  ALA762  ILE779  LEU786  VAL792 
 PHE793  MET794  SER795  GLU796  ALA797  LYS798  CYS799  TRP800  GLU811  SER814 

> <Gold.Protein.RotatedAtoms>
  151.3231  133.4031  159.2655 H   0  0  0  0  0  0  0  0  0  0  0  0  # atno 6907 bound_to 6896
  151.0017  134.9328  159.7968 H   0  0  0  0  0  0  0  0  0  0  0  0  # atno 6908 bound_to 6896
  152.5277  134.3196  159.9196 H   0  0  0  0  0  0  0  0  0  0  0  0  # atno 6909 bound_to 6896
  146.0436  139.4911  142.9763 H   0  0  0  0  0  0  0  0  0  0  0  0  # atno 7974 bound_to 7965
  156.0117  140.3349  155.6947 H   0  0  0  0  0  0  0  0  0  0  0  0  # atno 8008 bound_to 7997
  155.6148  140.0669  157.2713 H   0  0  0  0  0  0  0  0  0  0  0  0  # atno 8009 bound_to 7997
  154.4284  140.1787  156.1298 H   0  0  0  0  0  0  0  0  0  0  0  0  # atno 8010 bound_to 7997
  139.5197  144.2968  152.0415 H   0  0  0  0  0  0  0  0  0  0  0  0  # atno 10167 bound_to 10162
  156.4874  130.4559  149.6775 H   0  0  0  0  0  0  0  0  0  0  0  0  # atno 10718 bound_to 10713
  154.4822  135.5842  153.6397 H   0  0  0  0  0  0  0  0  0  0  0  0  # atno 10763 bound_to 10752
  152.9849  135.6092  154.3232 H   0  0  0  0  0  0  0  0  0  0  0  0  # atno 10764 bound_to 10752
  154.3124  135.2845  155.2538 H   0  0  0  0  0  0  0  0  0  0  0  0  # atno 10765 bound_to 10752
  140.7133  133.8890  155.8767 H   0  0  0  0  0  0  0  0  0  0  0  0  # atno 11005 bound_to 11000
  145.6844  141.0182  143.1589 LP  0  0  0  0  0  0  0  0  0  0  0  0  # atno 17320 bound_to 7965
  144.7086  139.8458  143.7422 LP  0  0  0  0  0  0  0  0  0  0  0  0  # atno 17321 bound_to 7965
  140.2417  144.4262  150.6257 LP  0  0  0  0  0  0  0  0  0  0  0  0  # atno 17342 bound_to 10162
  140.6286  143.2184  151.6544 LP  0  0  0  0  0  0  0  0  0  0  0  0  # atno 17343 bound_to 10162
  156.3461  130.7407  151.2360 LP  0  0  0  0  0  0  0  0  0  0  0  0  # atno 17370 bound_to 10713
  157.7477  131.0390  150.4530 LP  0  0  0  0  0  0  0  0  0  0  0  0  # atno 17371 bound_to 10713
  141.0065  134.1078  157.4264 LP  0  0  0  0  0  0  0  0  0  0  0  0  # atno 17394 bound_to 11000
  139.8866  135.0083  156.6508 LP  0  0  0  0  0  0  0  0  0  0  0  0  # atno 17395 bound_to 11000

$$$$
