AV-unprocessed.smi:113|AV-procd|sdf|1098|dock9
  -GOLD-   2262018203D 1   1.00000     0.00000
 Structure written by MMmdl.
 52 55  0  0  0  0  0  0  0  0  1 V2000
  152.7131  138.2465  158.7133 C   0  0  0  0  0  0  0  0  0  0  0  0
  152.2916  139.6914  158.5453 C   0  0  0  0  0  0  0  0  0  0  0  0
  151.5410  140.0954  157.4269 C   0  0  0  0  0  0  0  0  0  0  0  0
  151.1672  141.4534  157.3064 C   0  0  0  0  0  0  0  0  0  0  0  0
  150.3428  141.9453  156.1116 C   0  0  0  0  0  0  0  0  0  0  0  0
  149.0753  141.2729  155.8631 N   0  0  0  0  0  0  0  0  0  0  0  0
  148.7504  140.9532  154.5225 C   0  0  0  0  0  0  0  0  0  0  0  0
  149.5085  141.2329  153.5912 O   0  0  0  0  0  0  0  0  0  0  0  0
  147.4562  140.2932  154.3361 C   0  0  0  0  0  0  0  0  0  0  0  0
  147.0399  139.9194  152.9221 C   0  0  0  0  0  0  0  0  0  0  0  0
  146.6694  140.0383  155.4090 C   0  0  0  0  0  0  0  0  0  0  0  0
  147.0081  140.3700  156.7115 N   0  0  0  0  0  0  0  0  0  0  0  0
  146.0876  140.0776  157.8808 C   0  0  1  0  0  0  0  0  0  0  0  0
  144.7343  139.5671  157.3854 C   0  0  0  0  0  0  0  0  0  0  0  0
  144.9651  138.0707  157.3590 C   0  0  2  0  0  0  0  0  0  0  0  0
  143.7467  137.3566  157.4197 O   0  0  0  0  0  0  0  0  0  0  0  0
  145.9099  137.8492  158.5545 C   0  0  2  0  0  0  0  0  0  0  0  0
  145.2263  137.5927  159.9129 C   0  0  0  0  0  0  0  0  0  0  0  0
  146.1844  137.2981  160.9080 O   0  0  0  0  0  0  0  0  0  0  0  0
  146.6408  139.0725  158.6804 O   0  0  0  0  0  0  0  0  0  0  0  0
  148.2327  141.0208  156.9688 C   0  0  0  0  0  0  0  0  0  0  0  0
  148.5376  141.3665  158.1130 O   0  0  0  0  0  0  0  0  0  0  0  0
  151.5791  142.3504  158.3291 C   0  0  0  0  0  0  0  0  0  0  0  0
  151.2500  143.7270  158.2820 C   0  0  0  0  0  0  0  0  0  0  0  0
  151.6660  144.5980  159.3048 C   0  0  0  0  0  0  0  0  0  0  0  0
  152.4155  144.1031  160.3846 C   0  0  0  0  0  0  0  0  0  0  0  0
  152.7476  142.7374  160.4384 C   0  0  0  0  0  0  0  0  0  0  0  0
  152.3407  141.8446  159.4238 C   0  0  0  0  0  0  0  0  0  0  0  0
  152.6821  140.5405  159.5161 N   0  0  0  0  0  0  0  0  0  0  0  0
  152.0628  137.5817  158.1443 H   0  0  0  0  0  0  0  0  0  0  0  0
  152.6671  137.9468  159.7610 H   0  0  0  0  0  0  0  0  0  0  0  0
  153.7356  138.1102  158.3607 H   0  0  0  0  0  0  0  0  0  0  0  0
  151.2629  139.3636  156.6833 H   0  0  0  0  0  0  0  0  0  0  0  0
  150.1248  143.0092  156.2169 H   0  0  0  0  0  0  0  0  0  0  0  0
  150.9341  141.8812  155.1969 H   0  0  0  0  0  0  0  0  0  0  0  0
  146.0667  139.4280  152.9002 H   0  0  0  0  0  0  0  0  0  0  0  0
  147.7667  139.2380  152.4781 H   0  0  0  0  0  0  0  0  0  0  0  0
  146.9773  140.8102  152.2958 H   0  0  0  0  0  0  0  0  0  0  0  0
  145.7224  139.5555  155.2223 H   0  0  0  0  0  0  0  0  0  0  0  0
  146.0288  141.0032  158.4554 H   0  0  0  0  0  0  0  0  0  0  0  0
  143.9763  139.8349  158.1230 H   0  0  0  0  0  0  0  0  0  0  0  0
  144.4542  139.9933  156.4212 H   0  0  0  0  0  0  0  0  0  0  0  0
  145.4806  137.8025  156.4358 H   0  0  0  0  0  0  0  0  0  0  0  0
  143.9322  136.4681  157.6843 H   0  0  0  0  0  0  0  0  0  0  0  0
  146.6144  137.0428  158.3453 H   0  0  0  0  0  0  0  0  0  0  0  0
  144.6930  138.4883  160.2330 H   0  0  0  0  0  0  0  0  0  0  0  0
  144.4909  136.7903  159.8475 H   0  0  0  0  0  0  0  0  0  0  0  0
  146.0957  136.3887  161.1498 H   0  0  0  0  0  0  0  0  0  0  0  0
  150.6765  144.1398  157.4665 H   0  0  0  0  0  0  0  0  0  0  0  0
  151.4097  145.6463  159.2600 H   0  0  0  0  0  0  0  0  0  0  0  0
  152.7362  144.7696  161.1717 H   0  0  0  0  0  0  0  0  0  0  0  0
  153.3251  142.3691  161.2739 H   0  0  0  0  0  0  0  0  0  0  0  0
  1  2  1  0  0  0  0
  1 30  1  0  0  0  0
  1 31  1  0  0  0  0
  1 32  1  0  0  0  0
  2 29  1  0  0  0  0
  2  3  2  0  0  0  0
  3  4  1  0  0  0  0
  3 33  1  0  0  0  0
  4  5  1  0  0  0  0
  4 23  2  0  0  0  0
  5  6  1  0  0  0  0
  5 34  1  0  0  0  0
  5 35  1  0  0  0  0
  6 21  1  0  0  0  0
  6  7  1  0  0  0  0
  7  8  2  0  0  0  0
  7  9  1  0  0  0  0
  9 10  1  0  0  0  0
  9 11  2  0  0  0  0
 10 36  1  0  0  0  0
 10 37  1  0  0  0  0
 10 38  1  0  0  0  0
 11 12  1  0  0  0  0
 11 39  1  0  0  0  0
 12 13  1  0  0  0  0
 12 21  1  0  0  0  0
 13 20  1  0  0  0  0
 13 14  1  0  0  0  0
 13 40  1  0  0  0  0
 14 15  1  0  0  0  0
 14 41  1  0  0  0  0
 14 42  1  0  0  0  0
 15 16  1  0  0  0  0
 15 17  1  0  0  0  0
 15 43  1  0  0  0  0
 16 44  1  0  0  0  0
 17 18  1  0  0  0  0
 17 20  1  0  0  0  0
 17 45  1  0  0  0  0
 18 19  1  0  0  0  0
 18 46  1  0  0  0  0
 18 47  1  0  0  0  0
 19 48  1  0  0  0  0
 21 22  2  0  0  0  0
 23 28  1  0  0  0  0
 23 24  1  0  0  0  0
 24 25  2  0  0  0  0
 24 49  1  0  0  0  0
 25 26  1  0  0  0  0
 25 50  1  0  0  0  0
 26 27  2  0  0  0  0
 26 51  1  0  0  0  0
 27 28  1  0  0  0  0
 27 52  1  0  0  0  0
 28 29  2  0  0  0  0
M  END
> <s_m_source_file>
AV-unprocessed.smi

> <i_m_source_file_index>
113

> <i_lp_mmshare_version>
43012

> <i_f3d_flags>
0

> <s_epik_input>
W2NIXTFbY0hdW2NIXVtjSF1jKGMxMiluYyhbQ0gzXSlbY0hdYzJbQ0gyXW4zYyg9TyljKFtDSDNdKVtjSF1uKGMzPU8pW0NAQEhdNFtDSDJdW0NAQEhdKFtPSF0pW0NASF0oTzQpW0NIMl1bT0hd

> <s_epik_cmdline>
J2VwaWtfcHl0aG9uJywgJy1waCcsICc3LjAnLCAnLXRuJywgJzgnLCAnLW1hJywgJzIwMCcsICctbWV0YWxfYmluZGluZycsICctaW1hZScsICc8aW5maWxlLm1hZT4nLCAnLW9tYWUnLCAnPG91dGZpbGUubWFlPic=

> <r_lp_tautomer_probability>
1

> <r_epik_Ionization_Penalty>
0.214728

> <r_epik_Ionization_Penalty_Charging>
3.04883e-08

> <r_epik_Ionization_Penalty_Neutral>
0.214728

> <r_epik_State_Penalty>
0.204913

> <r_epik_Charging_Adjusted_Penalty>
0.204913

> <i_epik_Tot_Q>
0

> <i_epik_Tot_abs_Q>
0

> <r_epik_Metal_State_Penalty>
0.000244761

> <b_epik_Metal_Only>
0

> <s_epik_Chemistry_Notes>
This compound contains an acetal/aminal-like group ( X-CH(R)-Y where X, Y are N, S, or O) that may be acid/base labile, releasing an aldehyde.

> <s_lp_Force_Field>
OPLS_2005

> <r_lp_Energy>
41.6677

> <b_lp_Chiralities_Consistent>
1

> <s_lp_Variant>
AV-unprocessed.smi:113-8

> <Gold.Version>
5.8.1

> <Gold.Id.Protein>
6NUR|6NUR_protein|mol2

> <Gold.PLP.Fitness>
47.5765

> <Gold.PLP.PLP>
-41.5565

> <Gold.PLP.part.hbond>
-4.0000

> <Gold.PLP.part.metal>
0.0000

> <Gold.PLP.part.buried>
-5.0731

> <Gold.PLP.part.nonpolar>
-35.1860

> <Gold.PLP.part.repulsive>
3.3279

> <Gold.PLP.ligand.clash>
0.0000

> <Gold.PLP.ligand.torsion>
0.4059

> <Gold.PLP.Chemscore.Hbond>
2.2720

> <Gold.PLP.Chemscore.CHOScore>
0.0000

> <Gold.PLP.Chemscore.Metal>
0.0000

> <Gold.Chemscore.Hbonds>
donor molecule, donor type, donor heavy atom, donor atom, acceptor molecule, acceptor atom, score
      P1  H  6934  6947       L1    19  0.95
      P1  H  7989  7998       L1     8  0.16
      P1  H  8011  8017       L1     8  0.94

> <Gold.PLP.Chemscore.Internal.Correction>
0.0158

> <Gold.Rescore>
     Score         DG    S(hbond)    S(metal)    S(lipo)     H(rot)  DE(clash)    DE(int)     intcor
     13.64     -18.31       2.06        0.00     115.38       2.95       2.01       2.66       ----

> <Gold.Chemscore.Fitness>
13.6438

> <Gold.Chemscore.DG>
-18.3138

> <Gold.Chemscore.ZeroCoef>
-5.4800

> <Gold.Chemscore.Hbond>
2.0594

> <Gold.Chemscore.Metal>
0.0000

> <Gold.Chemscore.Lipo>
115.3805

> <Gold.Chemscore.Internal_Hbond>
0.0000

> <Gold.Chemscore.DEClash>
2.0124

> <Gold.Chemscore.DEInternal>
2.6576

> <Gold.Chemscore.Rot>
2.9469

> <Gold.Chemscore.Internal.Correction>
   9.000000E+99

> <Gold.Chemscore.Hbonds>
donor molecule, donor type, donor heavy atom, donor atom, acceptor molecule, acceptor atom, score
      P1  H  6934  6947       L1    19  0.21
      P1  H  7989  7998       L1     8  0.16
      P1  H  8011  8017       L1     8  0.91

> <Gold.Chemscore.Hbond.Weighted>
-6.8782

> <Gold.Chemscore.Metal.Weighted>
-0.0000

> <Gold.Chemscore.Lipo.Weighted>
-13.4995

> <Gold.Chemscore.Internal_Hbond.Weighted>
0.0000

> <Gold.Chemscore.DEClash.Weighted>
2.0124

> <Gold.Chemscore.DEInternal.Weighted>
2.6576

> <Gold.Chemscore.Rot.Weighted>
7.5439

> <Gold.Chemscore.Internal.Correction.Weighted>
   9.000000E+99

> <Gold.Protein.RotatedTorsions>
[ 6907 6896 6895 6894 ] final  -41.87 input  -60.11 | X-H torsion
[ 7974 7965 7964 7962 ] final   70.77 input  175.53 | X-H torsion
[ 8008 7997 7996 7995 ] final  -97.06 input   59.86 | X-H torsion
[ 10167 10162 10161 10158 ] final  -56.27 input  -65.29 | X-H torsion
[ 10718 10713 10712 10709 ] final  122.84 input   66.30 | X-H torsion
[ 10763 10752 10751 10750 ] final   61.23 input  -60.55 | X-H torsion
[ 11005 11000 10999 10996 ] final -105.93 input  -57.11 | X-H torsion

> <Gold.Protein.ActiveResidues>
 VAL166  LYS551  ARG553  GLY616  TRP617  ASP618  TYR619  PRO620  LYS621  CYS622 
 ASP623  PHE694  ASN695  SER759  ASP760  ASP761  ALA762  ILE779  LEU786  VAL792 
 PHE793  MET794  SER795  GLU796  ALA797  LYS798  CYS799  TRP800  GLU811  SER814 

> <Gold.Protein.RotatedAtoms>
  150.9617  134.9004  159.7734 H   0  0  0  0  0  0  0  0  0  0  0  0  # atno 6907 bound_to 6896
  152.5158  134.3663  159.9312 H   0  0  0  0  0  0  0  0  0  0  0  0  # atno 6908 bound_to 6896
  151.3675  133.3826  159.2731 H   0  0  0  0  0  0  0  0  0  0  0  0  # atno 6909 bound_to 6896
  145.7741  139.2857  143.1304 H   0  0  0  0  0  0  0  0  0  0  0  0  # atno 7974 bound_to 7965
  154.7827  140.0466  157.1140 H   0  0  0  0  0  0  0  0  0  0  0  0  # atno 8008 bound_to 7997
  154.9685  140.3086  155.4979 H   0  0  0  0  0  0  0  0  0  0  0  0  # atno 8009 bound_to 7997
  156.2939  140.2257  156.4776 H   0  0  0  0  0  0  0  0  0  0  0  0  # atno 8010 bound_to 7997
  140.6327  143.2467  151.5199 H   0  0  0  0  0  0  0  0  0  0  0  0  # atno 10167 bound_to 10162
  157.5711  131.1083  150.8364 H   0  0  0  0  0  0  0  0  0  0  0  0  # atno 10718 bound_to 10713
  152.9944  135.5508  154.6001 H   0  0  0  0  0  0  0  0  0  0  0  0  # atno 10763 bound_to 10752
  154.5344  135.2815  155.1153 H   0  0  0  0  0  0  0  0  0  0  0  0  # atno 10764 bound_to 10752
  154.2456  135.6408  153.5275 H   0  0  0  0  0  0  0  0  0  0  0  0  # atno 10765 bound_to 10752
  141.1029  133.8850  157.1794 H   0  0  0  0  0  0  0  0  0  0  0  0  # atno 11005 bound_to 11000
  146.0140  140.8409  142.9956 LP  0  0  0  0  0  0  0  0  0  0  0  0  # atno 17320 bound_to 7965
  144.6807  140.2532  143.7329 LP  0  0  0  0  0  0  0  0  0  0  0  0  # atno 17321 bound_to 7965
  139.5539  144.2324  152.1579 LP  0  0  0  0  0  0  0  0  0  0  0  0  # atno 17342 bound_to 10162
  140.1572  144.5060  150.6653 LP  0  0  0  0  0  0  0  0  0  0  0  0  # atno 17343 bound_to 10162
  156.8836  130.5188  149.5289 LP  0  0  0  0  0  0  0  0  0  0  0  0  # atno 17370 bound_to 10713
  156.0757  130.5779  150.9468 LP  0  0  0  0  0  0  0  0  0  0  0  0  # atno 17371 bound_to 10713
  139.9888  135.0072  156.9926 LP  0  0  0  0  0  0  0  0  0  0  0  0  # atno 17394 bound_to 11000
  140.4975  134.1131  155.7244 LP  0  0  0  0  0  0  0  0  0  0  0  0  # atno 17395 bound_to 11000

$$$$
