AV-unprocessed.smi:2493|AV-procd|sdf|9820|dock3
  -GOLD-   2272013453D 1   1.00000     0.00000
 Structure written by MMmdl.
 41 42  0  0  0  0  0  0  0  0  1 V2000
  149.4647  141.3339  158.2331 C   0  0  0  0  0  0  0  0  0  0  0  0
  150.7640  141.9890  157.7090 C   0  0  0  0  0  0  0  0  0  0  0  0
  150.9225  141.6797  156.1928 C   0  0  0  0  0  0  0  0  0  0  0  0
  149.6660  141.7355  155.4466 N   0  0  0  0  0  0  0  0  0  0  0  0
  149.1984  140.7846  154.6222 C   0  0  0  0  0  0  0  0  0  0  0  0
  149.7963  139.7354  154.3832 O   0  0  0  0  0  0  0  0  0  0  0  0
  147.8496  141.0634  153.9585 C   0  0  0  0  0  0  0  0  0  0  0  0
  147.3001  139.8011  153.3503 C   0  0  0  0  0  0  0  0  0  0  0  0
  146.8539  139.5948  152.0108 C   0  0  0  0  0  0  0  0  0  0  0  0
  146.4592  138.2877  151.9880 C   0  0  0  0  0  0  0  0  0  0  0  0
  146.6719  137.7925  153.2526 N   0  0  0  0  0  0  0  0  0  0  0  0
  147.1836  138.7091  154.0954 N   0  0  0  0  0  0  0  0  0  0  0  0
  150.6147  143.5258  157.8833 C   0  0  0  0  0  0  0  0  0  0  0  0
  151.9171  144.3484  157.8803 C   0  0  0  0  0  0  0  0  0  0  0  0
  152.5279  144.5003  159.2840 C   0  0  0  0  0  0  0  0  0  0  0  0
  153.1773  143.2253  159.8403 C   0  0  0  0  0  0  0  0  0  0  0  0
  152.2502  141.9982  159.8819 C   0  0  0  0  0  0  0  0  0  0  0  0
  151.9778  141.4054  158.4866 C   0  0  0  0  0  0  0  0  0  0  0  0
  146.4748  136.8476  153.5508 H   0  0  0  0  0  0  0  0  0  0  0  0
  148.5948  141.6789  157.6728 H   0  0  0  0  0  0  0  0  0  0  0  0
  149.2900  141.5706  159.2827 H   0  0  0  0  0  0  0  0  0  0  0  0
  149.4920  140.2471  158.1557 H   0  0  0  0  0  0  0  0  0  0  0  0
  151.6599  142.3465  155.7424 H   0  0  0  0  0  0  0  0  0  0  0  0
  151.3219  140.6742  156.0598 H   0  0  0  0  0  0  0  0  0  0  0  0
  149.0993  142.5610  155.5780 H   0  0  0  0  0  0  0  0  0  0  0  0
  147.1578  141.4792  154.6928 H   0  0  0  0  0  0  0  0  0  0  0  0
  147.9792  141.8271  153.1908 H   0  0  0  0  0  0  0  0  0  0  0  0
  146.8313  140.3003  151.1936 H   0  0  0  0  0  0  0  0  0  0  0  0
  146.0518  137.6807  151.1929 H   0  0  0  0  0  0  0  0  0  0  0  0
  149.9650  143.9046  157.0932 H   0  0  0  0  0  0  0  0  0  0  0  0
  150.0730  143.7481  158.8037 H   0  0  0  0  0  0  0  0  0  0  0  0
  152.6457  143.9450  157.1767 H   0  0  0  0  0  0  0  0  0  0  0  0
  151.6799  145.3491  157.5174 H   0  0  0  0  0  0  0  0  0  0  0  0
  153.2866  145.2831  159.2523 H   0  0  0  0  0  0  0  0  0  0  0  0
  151.7673  144.8576  159.9795 H   0  0  0  0  0  0  0  0  0  0  0  0
  154.0736  142.9899  159.2653 H   0  0  0  0  0  0  0  0  0  0  0  0
  153.5249  143.4345  160.8524 H   0  0  0  0  0  0  0  0  0  0  0  0
  152.7490  141.2332  160.4777 H   0  0  0  0  0  0  0  0  0  0  0  0
  151.3232  142.2236  160.4091 H   0  0  0  0  0  0  0  0  0  0  0  0
  151.8378  140.3290  158.5956 H   0  0  0  0  0  0  0  0  0  0  0  0
  152.8842  141.5027  157.8873 H   0  0  0  0  0  0  0  0  0  0  0  0
  1  2  1  0  0  0  0
  1 20  1  0  0  0  0
  1 21  1  0  0  0  0
  1 22  1  0  0  0  0
  2 18  1  0  0  0  0
  2  3  1  0  0  0  0
  2 13  1  0  0  0  0
  3  4  1  0  0  0  0
  3 23  1  0  0  0  0
  3 24  1  0  0  0  0
  4  5  1  0  0  0  0
  4 25  1  0  0  0  0
  5  6  2  0  0  0  0
  5  7  1  0  0  0  0
  7 26  1  0  0  0  0
  7 27  1  0  0  0  0
  7  8  1  0  0  0  0
  8 12  2  0  0  0  0
  8  9  1  0  0  0  0
  9 10  2  0  0  0  0
  9 28  1  0  0  0  0
 10 11  1  0  0  0  0
 10 29  1  0  0  0  0
 11 12  1  0  0  0  0
 11 19  1  0  0  0  0
 13 14  1  0  0  0  0
 13 30  1  0  0  0  0
 13 31  1  0  0  0  0
 14 15  1  0  0  0  0
 14 32  1  0  0  0  0
 14 33  1  0  0  0  0
 15 16  1  0  0  0  0
 15 34  1  0  0  0  0
 15 35  1  0  0  0  0
 16 17  1  0  0  0  0
 16 36  1  0  0  0  0
 16 37  1  0  0  0  0
 17 18  1  0  0  0  0
 17 38  1  0  0  0  0
 17 39  1  0  0  0  0
 18 40  1  0  0  0  0
 18 41  1  0  0  0  0
M  END
> <s_m_source_file>
AV-unprocessed.smi

> <i_m_source_file_index>
2493

> <i_lp_mmshare_version>
43012

> <i_f3d_flags>
0

> <s_epik_input>
W0NIMl0xW0NIMl1bQ0gyXVtDSDJdW0NIMl1bQ0gyXUMxKFtDSDNdKVtDSDJdW05IXUMoPU8pW0NIMl1jMltjSF1bY0hdbltuSF0y

> <s_epik_cmdline>
J2VwaWtfcHl0aG9uJywgJy1waCcsICc3LjAnLCAnLXRuJywgJzgnLCAnLW1hJywgJzIwMCcsICctbWV0YWxfYmluZGluZycsICctaW1hZScsICc8aW5maWxlLm1hZT4nLCAnLW9tYWUnLCAnPG91dGZpbGUubWFlPic=

> <r_lp_tautomer_probability>
0.5

> <r_epik_Ionization_Penalty>
1.58956e-05

> <r_epik_Ionization_Penalty_Charging>
0

> <r_epik_Ionization_Penalty_Neutral>
1.58956e-05

> <r_epik_State_Penalty>
0.41068

> <r_epik_Charging_Adjusted_Penalty>
0.41068

> <i_epik_Tot_Q>
0

> <i_epik_Tot_abs_Q>
0

> <r_epik_Metal_State_Penalty>
0.410685

> <b_epik_Metal_Only>
0

> <s_lp_Force_Field>
OPLS_2005

> <r_lp_Energy>
20.7964

> <b_lp_Chiralities_Consistent>
1

> <s_lp_Variant>
AV-unprocessed.smi:2493-2

> <Gold.Version>
5.8.1

> <Gold.Id.Protein>
6NUR|6NUR_protein|mol2

> <Gold.PLP.Fitness>
48.5357

> <Gold.PLP.PLP>
-41.3502

> <Gold.PLP.part.hbond>
-3.0000

> <Gold.PLP.part.metal>
0.0000

> <Gold.PLP.part.buried>
0.0449

> <Gold.PLP.part.nonpolar>
-39.6805

> <Gold.PLP.part.repulsive>
1.3390

> <Gold.PLP.ligand.clash>
0.0000

> <Gold.PLP.ligand.torsion>
0.5273

> <Gold.PLP.Chemscore.Hbond>
1.8400

> <Gold.PLP.Chemscore.CHOScore>
0.8977

> <Gold.PLP.Chemscore.Metal>
0.0000

> <Gold.Chemscore.Hbonds>
donor molecule, donor type, donor heavy atom, donor atom, acceptor molecule, acceptor atom, score
      L1  H     4    25       P1  8028  0.67
      P1  H  7989  7998       L1     6  0.16
      L1  C    10    29       P1 10171  0.39

> <Gold.PLP.Chemscore.Internal.Correction>
0.0271

> <Gold.Rescore>
     Score         DG    S(hbond)    S(metal)    S(lipo)     H(rot)  DE(clash)    DE(int)     intcor
     15.67     -18.67       1.00        0.00     120.45       1.66       1.25       1.75       ----

> <Gold.Chemscore.Fitness>
15.6676

> <Gold.Chemscore.DG>
-18.6736

> <Gold.Chemscore.ZeroCoef>
-5.4800

> <Gold.Chemscore.Hbond>
1.0024

> <Gold.Chemscore.Metal>
0.0000

> <Gold.Chemscore.Lipo>
120.4535

> <Gold.Chemscore.Internal_Hbond>
0.0000

> <Gold.Chemscore.DEClash>
1.2528

> <Gold.Chemscore.DEInternal>
1.7533

> <Gold.Chemscore.Rot>
1.6592

> <Gold.Chemscore.Internal.Correction>
   9.000000E+99

> <Gold.Chemscore.Hbonds>
donor molecule, donor type, donor heavy atom, donor atom, acceptor molecule, acceptor atom, score
      L1  H     4    25       P1  8028  0.64
      P1  H  7989  7998       L1     6  0.01

> <Gold.Chemscore.Hbond.Weighted>
-3.3481

> <Gold.Chemscore.Metal.Weighted>
-0.0000

> <Gold.Chemscore.Lipo.Weighted>
-14.0931

> <Gold.Chemscore.Internal_Hbond.Weighted>
0.0000

> <Gold.Chemscore.DEClash.Weighted>
1.2528

> <Gold.Chemscore.DEInternal.Weighted>
1.7533

> <Gold.Chemscore.Rot.Weighted>
4.2475

> <Gold.Chemscore.Internal.Correction.Weighted>
   9.000000E+99

> <Gold.Protein.RotatedTorsions>
[ 6907 6896 6895 6894 ] final   17.66 input  -60.11 | X-H torsion
[ 7974 7965 7964 7962 ] final -175.95 input  175.53 | X-H torsion
[ 8008 7997 7996 7995 ] final  -20.33 input   59.86 | X-H torsion
[ 10167 10162 10161 10158 ] final   -8.97 input  -65.29 | X-H torsion
[ 10718 10713 10712 10709 ] final   67.03 input   66.30 | X-H torsion
[ 10763 10752 10751 10750 ] final -154.37 input  -60.55 | X-H torsion
[ 11005 11000 10999 10996 ] final -165.11 input  -57.11 | X-H torsion

> <Gold.Protein.ActiveResidues>
 VAL166  LYS551  ARG553  GLY616  TRP617  ASP618  TYR619  PRO620  LYS621  CYS622 
 ASP623  PHE694  ASN695  SER759  ASP760  ASP761  ALA762  ILE779  LEU786  VAL792 
 PHE793  MET794  SER795  GLU796  ALA797  LYS798  CYS799  TRP800  GLU811  SER814 

> <Gold.Protein.RotatedAtoms>
  151.8530  135.0551  160.0460 H   0  0  0  0  0  0  0  0  0  0  0  0  # atno 6907 bound_to 6896
  152.2721  133.5388  159.5454 H   0  0  0  0  0  0  0  0  0  0  0  0  # atno 6908 bound_to 6896
  150.7156  134.0598  159.3870 H   0  0  0  0  0  0  0  0  0  0  0  0  # atno 6909 bound_to 6896
  144.7127  140.1243  143.6403 H   0  0  0  0  0  0  0  0  0  0  0  0  # atno 7974 bound_to 7965
  154.4777  140.2065  155.9838 H   0  0  0  0  0  0  0  0  0  0  0  0  # atno 8008 bound_to 7997
  156.1115  140.3228  155.8050 H   0  0  0  0  0  0  0  0  0  0  0  0  # atno 8009 bound_to 7997
  155.4626  140.0525  157.2980 H   0  0  0  0  0  0  0  0  0  0  0  0  # atno 8010 bound_to 7997
  140.7074  143.5909  150.8894 H   0  0  0  0  0  0  0  0  0  0  0  0  # atno 10167 bound_to 10162
  157.6205  130.9299  150.0187 H   0  0  0  0  0  0  0  0  0  0  0  0  # atno 10718 bound_to 10713
  154.7863  135.3191  154.7878 H   0  0  0  0  0  0  0  0  0  0  0  0  # atno 10763 bound_to 10752
  153.8577  135.6856  153.4790 H   0  0  0  0  0  0  0  0  0  0  0  0  # atno 10764 bound_to 10752
  153.1516  135.4697  154.9584 H   0  0  0  0  0  0  0  0  0  0  0  0  # atno 10765 bound_to 10752
  140.5794  134.5157  157.5176 H   0  0  0  0  0  0  0  0  0  0  0  0  # atno 11005 bound_to 11000
  145.9343  139.2627  143.1306 LP  0  0  0  0  0  0  0  0  0  0  0  0  # atno 17320 bound_to 7965
  145.9490  140.8923  143.0269 LP  0  0  0  0  0  0  0  0  0  0  0  0  # atno 17321 bound_to 7965
  139.9635  143.6137  152.2995 LP  0  0  0  0  0  0  0  0  0  0  0  0  # atno 17342 bound_to 10162
  139.6698  144.7661  151.1804 LP  0  0  0  0  0  0  0  0  0  0  0  0  # atno 17343 bound_to 10162
  156.1348  130.3643  149.9674 LP  0  0  0  0  0  0  0  0  0  0  0  0  # atno 17370 bound_to 10713
  156.7727  130.9192  151.3644 LP  0  0  0  0  0  0  0  0  0  0  0  0  # atno 17371 bound_to 10713
  139.9324  134.7938  156.0894 LP  0  0  0  0  0  0  0  0  0  0  0  0  # atno 17394 bound_to 11000
  141.1006  133.6679  156.2745 LP  0  0  0  0  0  0  0  0  0  0  0  0  # atno 17395 bound_to 11000

$$$$
