AV-unprocessed.smi:33|AV-procd|sdf|210|dock3
  -GOLD-   2262015503D 1   1.00000     0.00000
 Structure written by MMmdl.
 67 72  0  0  0  0  0  0  0  0  1 V2000
  150.8376  139.7159  157.3016 O   0  0  0  0  0  0  0  0  0  0  0  0
  150.8141  140.8999  156.9597 C   0  0  0  0  0  0  0  0  0  0  0  0
  150.2463  141.3353  155.8194 O   0  0  0  0  0  0  0  0  0  0  0  0
  150.2028  140.4942  154.6789 C   0  0  0  0  0  0  0  0  0  0  0  0
  148.8840  139.7134  154.6928 C   0  0  1  0  0  0  0  0  0  0  0  0
  148.4022  139.5527  156.0267 O   0  0  0  0  0  0  0  0  0  0  0  0
  147.0056  139.4738  156.0282 C   0  0  2  0  0  0  0  0  0  0  0  0
  146.6069  138.1290  156.5510 N   0  0  0  0  0  0  0  0  0  0  0  0
  147.0376  137.5354  157.7173 C   0  0  0  0  0  0  0  0  0  0  0  0
  146.5456  136.3512  157.9614 N   0  0  0  0  0  0  0  0  0  0  0  0
  145.7222  136.1010  156.8724 C   0  0  0  0  0  0  0  0  0  0  0  0
  144.8887  135.0135  156.4959 C   0  0  0  0  0  0  0  0  0  0  0  0
  144.7508  133.8986  157.2511 N   0  0  0  0  0  0  0  0  0  0  0  0
  145.9095  132.9983  157.3299 C   0  0  0  0  0  0  0  0  0  0  0  0
  146.0493  132.2708  158.3149 O   0  0  0  0  0  0  0  0  0  0  0  0
  146.9434  132.9940  156.2398 C   0  0  0  0  0  0  0  0  0  0  0  0
  148.3078  132.8194  156.5584 C   0  0  0  0  0  0  0  0  0  0  0  0
  149.2780  132.7984  155.5376 C   0  0  0  0  0  0  0  0  0  0  0  0
  148.8883  132.9321  154.1913 C   0  0  0  0  0  0  0  0  0  0  0  0
  147.5268  133.0786  153.8648 C   0  0  0  0  0  0  0  0  0  0  0  0
  146.5562  133.1012  154.8848 C   0  0  0  0  0  0  0  0  0  0  0  0
  143.4600  133.6939  157.9253 C   0  0  0  0  0  0  0  0  0  0  0  0
  142.7446  134.6660  158.1751 O   0  0  0  0  0  0  0  0  0  0  0  0
  143.0359  132.3197  158.3613 C   0  0  0  0  0  0  0  0  0  0  0  0
  142.0553  132.1690  159.3665 C   0  0  0  0  0  0  0  0  0  0  0  0
  141.6432  130.8842  159.7697 C   0  0  0  0  0  0  0  0  0  0  0  0
  142.1949  129.7424  159.1583 C   0  0  0  0  0  0  0  0  0  0  0  0
  143.1521  129.8857  158.1359 C   0  0  0  0  0  0  0  0  0  0  0  0
  143.5651  131.1700  157.7323 C   0  0  0  0  0  0  0  0  0  0  0  0
  144.2030  135.1093  155.3279 N   0  0  0  0  0  0  0  0  0  0  0  0
  144.3272  136.2060  154.5753 C   0  0  0  0  0  0  0  0  0  0  0  0
  145.0622  137.2963  154.8046 N   0  0  0  0  0  0  0  0  0  0  0  0
  145.7543  137.2055  155.9769 C   0  0  0  0  0  0  0  0  0  0  0  0
  146.5317  139.6795  154.5825 C   0  0  1  0  0  0  0  0  0  0  0  0
  145.3599  140.4623  154.4734 O   0  0  0  0  0  0  0  0  0  0  0  0
  147.7239  140.4085  153.9839 C   0  0  1  0  0  0  0  0  0  0  0  0
  147.7165  141.6999  154.3289 F   0  0  0  0  0  0  0  0  0  0  0  0
  151.4125  142.0026  157.7663 C   0  0  0  0  0  0  0  0  0  0  0  0
  151.3431  143.3305  157.2840 C   0  0  0  0  0  0  0  0  0  0  0  0
  151.8975  144.3924  158.0248 C   0  0  0  0  0  0  0  0  0  0  0  0
  152.5275  144.1393  159.2572 C   0  0  0  0  0  0  0  0  0  0  0  0
  152.6032  142.8227  159.7480 C   0  0  0  0  0  0  0  0  0  0  0  0
  152.0497  141.7593  159.0086 C   0  0  0  0  0  0  0  0  0  0  0  0
  150.2953  141.0815  153.7641 H   0  0  0  0  0  0  0  0  0  0  0  0
  151.0447  139.8015  154.7158 H   0  0  0  0  0  0  0  0  0  0  0  0
  149.0367  138.7367  154.2350 H   0  0  0  0  0  0  0  0  0  0  0  0
  146.5965  140.1967  156.7356 H   0  0  0  0  0  0  0  0  0  0  0  0
  147.7305  138.0156  158.3926 H   0  0  0  0  0  0  0  0  0  0  0  0
  148.6184  132.7154  157.5882 H   0  0  0  0  0  0  0  0  0  0  0  0
  150.3216  132.6780  155.7879 H   0  0  0  0  0  0  0  0  0  0  0  0
  149.6326  132.9152  153.4090 H   0  0  0  0  0  0  0  0  0  0  0  0
  147.2258  133.1718  152.8317 H   0  0  0  0  0  0  0  0  0  0  0  0
  145.5135  133.2079  154.6222 H   0  0  0  0  0  0  0  0  0  0  0  0
  141.6250  133.0378  159.8433 H   0  0  0  0  0  0  0  0  0  0  0  0
  140.9026  130.7748  160.5482 H   0  0  0  0  0  0  0  0  0  0  0  0
  141.8789  128.7573  159.4687 H   0  0  0  0  0  0  0  0  0  0  0  0
  143.5691  129.0106  157.6599 H   0  0  0  0  0  0  0  0  0  0  0  0
  144.2966  131.2674  156.9430 H   0  0  0  0  0  0  0  0  0  0  0  0
  143.7537  136.2123  153.6603 H   0  0  0  0  0  0  0  0  0  0  0  0
  146.3926  138.7181  154.0865 H   0  0  0  0  0  0  0  0  0  0  0  0
  144.9547  140.2803  153.6390 H   0  0  0  0  0  0  0  0  0  0  0  0
  147.7745  140.3468  152.8964 H   0  0  0  0  0  0  0  0  0  0  0  0
  150.8639  143.5494  156.3405 H   0  0  0  0  0  0  0  0  0  0  0  0
  151.8381  145.4023  157.6465 H   0  0  0  0  0  0  0  0  0  0  0  0
  152.9521  144.9537  159.8257 H   0  0  0  0  0  0  0  0  0  0  0  0
  153.0861  142.6272  160.6942 H   0  0  0  0  0  0  0  0  0  0  0  0
  152.1242  140.7612  159.4151 H   0  0  0  0  0  0  0  0  0  0  0  0
  1  2  2  0  0  0  0
  2  3  1  0  0  0  0
  2 38  1  0  0  0  0
  3  4  1  0  0  0  0
  4  5  1  0  0  0  0
  4 44  1  0  0  0  0
  4 45  1  0  0  0  0
  5 36  1  0  0  0  0
  5  6  1  0  0  0  0
  5 46  1  0  0  0  0
  6  7  1  0  0  0  0
  7  8  1  0  0  0  0
  7 34  1  0  0  0  0
  7 47  1  0  0  0  0
  8 33  1  0  0  0  0
  8  9  1  0  0  0  0
  9 10  2  0  0  0  0
  9 48  1  0  0  0  0
 10 11  1  0  0  0  0
 11 33  2  0  0  0  0
 11 12  1  0  0  0  0
 12 13  1  0  0  0  0
 12 30  2  0  0  0  0
 13 14  1  0  0  0  0
 13 22  1  0  0  0  0
 14 15  2  0  0  0  0
 14 16  1  0  0  0  0
 16 21  1  0  0  0  0
 16 17  2  0  0  0  0
 17 18  1  0  0  0  0
 17 49  1  0  0  0  0
 18 19  2  0  0  0  0
 18 50  1  0  0  0  0
 19 20  1  0  0  0  0
 19 51  1  0  0  0  0
 20 21  2  0  0  0  0
 20 52  1  0  0  0  0
 21 53  1  0  0  0  0
 22 23  2  0  0  0  0
 22 24  1  0  0  0  0
 24 29  1  0  0  0  0
 24 25  2  0  0  0  0
 25 26  1  0  0  0  0
 25 54  1  0  0  0  0
 26 27  2  0  0  0  0
 26 55  1  0  0  0  0
 27 28  1  0  0  0  0
 27 56  1  0  0  0  0
 28 29  2  0  0  0  0
 28 57  1  0  0  0  0
 29 58  1  0  0  0  0
 30 31  1  0  0  0  0
 31 32  2  0  0  0  0
 31 59  1  0  0  0  0
 32 33  1  0  0  0  0
 34 35  1  0  0  0  0
 34 36  1  0  0  0  0
 34 60  1  0  0  0  0
 35 61  1  0  0  0  0
 36 37  1  0  0  0  0
 36 62  1  0  0  0  0
 38 43  1  0  0  0  0
 38 39  2  0  0  0  0
 39 40  1  0  0  0  0
 39 63  1  0  0  0  0
 40 41  2  0  0  0  0
 40 64  1  0  0  0  0
 41 42  1  0  0  0  0
 41 65  1  0  0  0  0
 42 43  2  0  0  0  0
 42 66  1  0  0  0  0
 43 67  1  0  0  0  0
M  END
> <s_m_source_file>
AV-unprocessed.smi

> <i_m_source_file_index>
33

> <i_lp_mmshare_version>
43012

> <i_f3d_flags>
0

> <s_epik_input>
W2NIXTFbY0hdW2NIXVtjSF1bY0hdYzFDKD1PKU9bQ0gyXVtDQEBIXTJPW0NASF0oW0NAQEhdKFtPSF0pW0NAQEhdMkYpbihbY0hdbjMpYyhjMzQpbltjSF1uYzROKEMoPU8pYzVbY0hdW2NIXVtjSF1bY0hdW2NIXTUpQyg9TyljNltjSF1bY0hdW2NIXVtjSF1bY0hdNg==

> <s_epik_cmdline>
J2VwaWtfcHl0aG9uJywgJy1waCcsICc3LjAnLCAnLXRuJywgJzgnLCAnLW1hJywgJzIwMCcsICctbWV0YWxfYmluZGluZycsICctaW1hZScsICc8aW5maWxlLm1hZT4nLCAnLW9tYWUnLCAnPG91dGZpbGUubWFlPic=

> <r_lp_tautomer_probability>
1

> <r_epik_Ionization_Penalty>
0.00067664

> <r_epik_Ionization_Penalty_Charging>
0

> <r_epik_Ionization_Penalty_Neutral>
0.00067664

> <r_epik_State_Penalty>
0.000428095

> <r_epik_Charging_Adjusted_Penalty>
0.000428095

> <i_epik_Tot_Q>
0

> <i_epik_Tot_abs_Q>
0

> <r_epik_Metal_State_Penalty>
-0

> <b_epik_Metal_Only>
0

> <s_epik_Chemistry_Notes>
This compound has an ester and may undergo hydrolysis at high or low pH. This compound contains an acetal/aminal-like group ( X-CH(R)-Y where X, Y are N, S, or O) that may be acid/base labile, releasing an aldehyde.

> <s_lp_Force_Field>
OPLS_2005

> <r_lp_Energy>
69.9903

> <b_lp_Chiralities_Consistent>
1

> <s_lp_Variant>
AV-unprocessed.smi:33-12

> <Gold.Version>
5.8.1

> <Gold.Id.Protein>
6NUR|6NUR_protein|mol2

> <Gold.PLP.Fitness>
54.2860

> <Gold.PLP.PLP>
-50.8776

> <Gold.PLP.part.hbond>
-2.0000

> <Gold.PLP.part.metal>
0.0000

> <Gold.PLP.part.buried>
-4.5796

> <Gold.PLP.part.nonpolar>
-45.0925

> <Gold.PLP.part.repulsive>
0.2115

> <Gold.PLP.ligand.clash>
0.0000

> <Gold.PLP.ligand.torsion>
3.7297

> <Gold.PLP.Chemscore.Hbond>
2.0000

> <Gold.PLP.Chemscore.CHOScore>
0.0000

> <Gold.PLP.Chemscore.Metal>
0.0000

> <Gold.Chemscore.Hbonds>
donor molecule, donor type, donor heavy atom, donor atom, acceptor molecule, acceptor atom, score
      L1  H    35    61       P1 10175  1.00
      P1  H 11000 11005       L1    23  0.99

> <Gold.PLP.Chemscore.Internal.Correction>
4.8678

> <Gold.Rescore>
     Score         DG    S(hbond)    S(metal)    S(lipo)     H(rot)  DE(clash)    DE(int)     intcor
      6.86     -20.18       1.91        0.00     126.26       2.52       0.15      13.17       ----

> <Gold.Chemscore.Fitness>
6.8640

> <Gold.Chemscore.DG>
-20.1770

> <Gold.Chemscore.ZeroCoef>
-5.4800

> <Gold.Chemscore.Hbond>
1.9125

> <Gold.Chemscore.Metal>
0.0000

> <Gold.Chemscore.Lipo>
126.2615

> <Gold.Chemscore.Internal_Hbond>
0.0000

> <Gold.Chemscore.DEClash>
0.1461

> <Gold.Chemscore.DEInternal>
13.1669

> <Gold.Chemscore.Rot>
2.5247

> <Gold.Chemscore.Internal.Correction>
   9.000000E+99

> <Gold.Chemscore.Hbonds>
donor molecule, donor type, donor heavy atom, donor atom, acceptor molecule, acceptor atom, score
      L1  H    35    61       P1 10175  0.95
      P1  H 11000 11005       L1    23  0.42

> <Gold.Chemscore.Hbond.Weighted>
-6.3877

> <Gold.Chemscore.Metal.Weighted>
-0.0000

> <Gold.Chemscore.Lipo.Weighted>
-14.7726

> <Gold.Chemscore.Internal_Hbond.Weighted>
0.0000

> <Gold.Chemscore.DEClash.Weighted>
0.1461

> <Gold.Chemscore.DEInternal.Weighted>
13.1669

> <Gold.Chemscore.Rot.Weighted>
6.4633

> <Gold.Chemscore.Internal.Correction.Weighted>
   9.000000E+99

> <Gold.Protein.RotatedTorsions>
[ 6907 6896 6895 6894 ] final   64.44 input  -60.11 | X-H torsion
[ 7974 7965 7964 7962 ] final  169.76 input  175.53 | X-H torsion
[ 8008 7997 7996 7995 ] final  -46.43 input   59.86 | X-H torsion
[ 10167 10162 10161 10158 ] final  -43.70 input  -65.29 | X-H torsion
[ 10718 10713 10712 10709 ] final  -94.46 input   66.30 | X-H torsion
[ 10763 10752 10751 10750 ] final  -39.88 input  -60.55 | X-H torsion
[ 11005 11000 10999 10996 ] final -132.07 input  -57.11 | X-H torsion

> <Gold.Protein.ActiveResidues>
 VAL166  LYS551  ARG553  GLY616  TRP617  ASP618  TYR619  PRO620  LYS621  CYS622 
 ASP623  PHE694  ASN695  SER759  ASP760  ASP761  ALA762  ILE779  LEU786  VAL792 
 PHE793  MET794  SER795  GLU796  ALA797  LYS798  CYS799  TRP800  GLU811  SER814 

> <Gold.Protein.RotatedAtoms>
  152.4331  134.5738  159.9928 H   0  0  0  0  0  0  0  0  0  0  0  0  # atno 6907 bound_to 6896
  151.5856  133.3367  159.3025 H   0  0  0  0  0  0  0  0  0  0  0  0  # atno 6908 bound_to 6896
  150.8227  134.7477  159.6850 H   0  0  0  0  0  0  0  0  0  0  0  0  # atno 6909 bound_to 6896
  144.7345  139.9102  143.6414 H   0  0  0  0  0  0  0  0  0  0  0  0  # atno 7974 bound_to 7965
  154.4007  140.1372  156.4010 H   0  0  0  0  0  0  0  0  0  0  0  0  # atno 8008 bound_to 7997
  155.7824  140.3481  155.5284 H   0  0  0  0  0  0  0  0  0  0  0  0  # atno 8009 bound_to 7997
  155.8660  140.0964  157.1572 H   0  0  0  0  0  0  0  0  0  0  0  0  # atno 8010 bound_to 7997
  140.6924  143.2969  151.3390 H   0  0  0  0  0  0  0  0  0  0  0  0  # atno 10167 bound_to 10162
  156.0027  130.5069  150.5931 H   0  0  0  0  0  0  0  0  0  0  0  0  # atno 10718 bound_to 10713
  153.9367  135.6766  153.4745 H   0  0  0  0  0  0  0  0  0  0  0  0  # atno 10763 bound_to 10752
  153.0952  135.4855  154.8762 H   0  0  0  0  0  0  0  0  0  0  0  0  # atno 10764 bound_to 10752
  154.7399  135.3158  154.8704 H   0  0  0  0  0  0  0  0  0  0  0  0  # atno 10765 bound_to 10752
  140.9203  134.1453  157.4319 H   0  0  0  0  0  0  0  0  0  0  0  0  # atno 11005 bound_to 11000
  146.1007  139.4002  143.0349 LP  0  0  0  0  0  0  0  0  0  0  0  0  # atno 17320 bound_to 7965
  145.7583  140.9945  143.1213 LP  0  0  0  0  0  0  0  0  0  0  0  0  # atno 17321 bound_to 7965
  139.6341  144.0664  152.2501 LP  0  0  0  0  0  0  0  0  0  0  0  0  # atno 17342 bound_to 10162
  140.0148  144.6197  150.7616 LP  0  0  0  0  0  0  0  0  0  0  0  0  # atno 17343 bound_to 10162
  157.3792  131.0778  151.1491 LP  0  0  0  0  0  0  0  0  0  0  0  0  # atno 17370 bound_to 10713
  157.2219  130.6485  149.5815 LP  0  0  0  0  0  0  0  0  0  0  0  0  # atno 17371 bound_to 10713
  139.8774  134.9969  156.5817 LP  0  0  0  0  0  0  0  0  0  0  0  0  # atno 17394 bound_to 11000
  140.7996  133.8516  155.8715 LP  0  0  0  0  0  0  0  0  0  0  0  0  # atno 17395 bound_to 11000

$$$$
