AV-unprocessed.smi:1940|AV-procd|sdf|7840|dock3
  -GOLD-   22720 9583D 1   1.00000     0.00000
 Structure written by MMmdl.
 49 51  0  0  0  0  0  0  0  0  1 V2000
  149.4098  132.5723  154.8969 C   0  0  0  0  0  0  0  0  0  0  0  0
  148.2453  133.4299  154.3687 C   0  0  1  0  0  0  0  0  0  0  0  0
  148.6977  134.8022  154.1531 N   0  0  0  0  0  0  0  0  0  0  0  0
  149.1189  135.6434  155.1079 C   0  0  0  0  0  0  0  0  0  0  0  0
  149.1956  135.3360  156.2970 O   0  0  0  0  0  0  0  0  0  0  0  0
  149.4526  136.8359  154.5854 N   0  0  0  0  0  0  0  0  0  0  0  0
  149.9555  137.9915  155.2431 C   0  0  0  0  0  0  0  0  0  0  0  0
  150.1116  137.9346  156.6415 C   0  0  0  0  0  0  0  0  0  0  0  0
  150.6193  139.0549  157.3253 C   0  0  0  0  0  0  0  0  0  0  0  0
  150.9684  140.2110  156.5896 C   0  0  0  0  0  0  0  0  0  0  0  0
  151.4805  141.3450  157.2557 N   0  0  0  0  0  0  0  0  0  0  0  0
  151.9044  141.1808  158.6484 C   0  0  0  0  0  0  0  0  0  0  0  0
  152.7708  142.3654  159.1089 C   0  0  0  0  0  0  0  0  0  0  0  0
  152.0530  143.7009  158.8649 C   0  0  0  0  0  0  0  0  0  0  0  0
  151.6403  143.8140  157.3899 C   0  0  0  0  0  0  0  0  0  0  0  0
  150.7952  142.6039  156.9564 C   0  0  0  0  0  0  0  0  0  0  0  0
  150.8251  140.2644  155.2428 N   0  0  0  0  0  0  0  0  0  0  0  0
  150.3387  139.1874  154.5903 C   0  0  0  0  0  0  0  0  0  0  0  0
  147.6682  132.8794  153.0499 C   0  0  1  0  0  0  0  0  0  0  0  0
  147.0187  131.4990  153.1609 C   0  0  0  0  0  0  0  0  0  0  0  0
  146.0731  131.5102  151.9824 C   0  0  0  0  0  0  0  0  0  0  0  0
  145.5713  132.9500  152.0023 C   0  0  0  0  0  0  0  0  0  0  0  0
  146.6251  133.7258  152.5679 O   0  0  0  0  0  0  0  0  0  0  0  0
  149.0891  131.5516  155.1053 H   0  0  0  0  0  0  0  0  0  0  0  0
  149.8120  132.9770  155.8261 H   0  0  0  0  0  0  0  0  0  0  0  0
  150.2257  132.5243  154.1751 H   0  0  0  0  0  0  0  0  0  0  0  0
  147.4481  133.4355  155.1146 H   0  0  0  0  0  0  0  0  0  0  0  0
  148.6671  135.1415  153.2028 H   0  0  0  0  0  0  0  0  0  0  0  0
  149.3851  136.9092  153.5810 H   0  0  0  0  0  0  0  0  0  0  0  0
  149.8400  137.0443  157.1897 H   0  0  0  0  0  0  0  0  0  0  0  0
  150.7223  139.0214  158.3996 H   0  0  0  0  0  0  0  0  0  0  0  0
  151.0218  141.0957  159.2840 H   0  0  0  0  0  0  0  0  0  0  0  0
  152.4741  140.2574  158.7608 H   0  0  0  0  0  0  0  0  0  0  0  0
  153.0164  142.2589  160.1656 H   0  0  0  0  0  0  0  0  0  0  0  0
  153.7179  142.3563  158.5677 H   0  0  0  0  0  0  0  0  0  0  0  0
  151.1693  143.7654  159.5011 H   0  0  0  0  0  0  0  0  0  0  0  0
  152.7001  144.5338  159.1410 H   0  0  0  0  0  0  0  0  0  0  0  0
  151.0811  144.7357  157.2274 H   0  0  0  0  0  0  0  0  0  0  0  0
  152.5320  143.8779  156.7649 H   0  0  0  0  0  0  0  0  0  0  0  0
  150.5658  142.6952  155.8956 H   0  0  0  0  0  0  0  0  0  0  0  0
  149.8401  142.6115  157.4833 H   0  0  0  0  0  0  0  0  0  0  0  0
  150.2807  139.3040  153.5202 H   0  0  0  0  0  0  0  0  0  0  0  0
  148.4447  132.8450  152.2834 H   0  0  0  0  0  0  0  0  0  0  0  0
  147.7406  130.6830  153.1178 H   0  0  0  0  0  0  0  0  0  0  0  0
  146.4547  131.4101  154.0905 H   0  0  0  0  0  0  0  0  0  0  0  0
  146.6229  131.3155  151.0607 H   0  0  0  0  0  0  0  0  0  0  0  0
  145.2712  130.7763  152.0656 H   0  0  0  0  0  0  0  0  0  0  0  0
  145.3011  133.3087  151.0088 H   0  0  0  0  0  0  0  0  0  0  0  0
  144.6947  133.0395  152.6449 H   0  0  0  0  0  0  0  0  0  0  0  0
  1  2  1  0  0  0  0
  1 24  1  0  0  0  0
  1 25  1  0  0  0  0
  1 26  1  0  0  0  0
  2  3  1  0  0  0  0
  2 19  1  0  0  0  0
  2 27  1  0  0  0  0
  3  4  1  0  0  0  0
  3 28  1  0  0  0  0
  4  5  2  0  0  0  0
  4  6  1  0  0  0  0
  6  7  1  0  0  0  0
  6 29  1  0  0  0  0
  7 18  1  0  0  0  0
  7  8  2  0  0  0  0
  8  9  1  0  0  0  0
  8 30  1  0  0  0  0
  9 10  2  0  0  0  0
  9 31  1  0  0  0  0
 10 11  1  0  0  0  0
 10 17  1  0  0  0  0
 11 16  1  0  0  0  0
 11 12  1  0  0  0  0
 12 13  1  0  0  0  0
 12 32  1  0  0  0  0
 12 33  1  0  0  0  0
 13 14  1  0  0  0  0
 13 34  1  0  0  0  0
 13 35  1  0  0  0  0
 14 15  1  0  0  0  0
 14 36  1  0  0  0  0
 14 37  1  0  0  0  0
 15 16  1  0  0  0  0
 15 38  1  0  0  0  0
 15 39  1  0  0  0  0
 16 40  1  0  0  0  0
 16 41  1  0  0  0  0
 17 18  2  0  0  0  0
 18 42  1  0  0  0  0
 19 23  1  0  0  0  0
 19 20  1  0  0  0  0
 19 43  1  0  0  0  0
 20 21  1  0  0  0  0
 20 44  1  0  0  0  0
 20 45  1  0  0  0  0
 21 22  1  0  0  0  0
 21 46  1  0  0  0  0
 21 47  1  0  0  0  0
 22 23  1  0  0  0  0
 22 48  1  0  0  0  0
 22 49  1  0  0  0  0
M  END
> <s_m_source_file>
AV-unprocessed.smi

> <i_m_source_file_index>
1940

> <i_lp_mmshare_version>
43012

> <i_f3d_flags>
0

> <s_epik_input>
TzFbQ0gyXVtDSDJdW0NIMl1bQ0BIXTFbQ0BIXShbQ0gzXSlbTkhdQyg9TylbTkhdYzJbY0hdW2NIXWMobltjSF0yKU4zW0NIMl1bQ0gyXVtDSDJdW0NIMl1bQ0gyXTM=

> <s_epik_cmdline>
J2VwaWtfcHl0aG9uJywgJy1waCcsICc3LjAnLCAnLXRuJywgJzgnLCAnLW1hJywgJzIwMCcsICctbWV0YWxfYmluZGluZycsICctaW1hZScsICc8aW5maWxlLm1hZT4nLCAnLW9tYWUnLCAnPG91dGZpbGUubWFlPic=

> <r_lp_tautomer_probability>
1

> <r_epik_Ionization_Penalty>
0.105688

> <r_epik_Ionization_Penalty_Charging>
0

> <r_epik_Ionization_Penalty_Neutral>
0.105688

> <r_epik_State_Penalty>
0.0895745

> <r_epik_Charging_Adjusted_Penalty>
0.0895745

> <i_epik_Tot_Q>
0

> <i_epik_Tot_abs_Q>
0

> <r_epik_Metal_State_Penalty>
0.0765749

> <b_epik_Metal_Only>
0

> <s_lp_Force_Field>
OPLS_2005

> <r_lp_Energy>
33.4739

> <b_lp_Chiralities_Consistent>
1

> <s_lp_Variant>
AV-unprocessed.smi:1940-4

> <Gold.Version>
5.8.1

> <Gold.Id.Protein>
6NUR|6NUR_protein|mol2

> <Gold.PLP.Fitness>
48.1693

> <Gold.PLP.PLP>
-38.0820

> <Gold.PLP.part.hbond>
-3.0000

> <Gold.PLP.part.metal>
0.0000

> <Gold.PLP.part.buried>
-3.8152

> <Gold.PLP.part.nonpolar>
-32.5215

> <Gold.PLP.part.repulsive>
0.2283

> <Gold.PLP.ligand.clash>
0.0000

> <Gold.PLP.ligand.torsion>
0.2680

> <Gold.PLP.Chemscore.Hbond>
2.4000

> <Gold.PLP.Chemscore.CHOScore>
1.0000

> <Gold.PLP.Chemscore.Metal>
0.0000

> <Gold.Chemscore.Hbonds>
donor molecule, donor type, donor heavy atom, donor atom, acceptor molecule, acceptor atom, score
      L1  H     3    28       P1  7948  1.00
      L1  H     6    29       P1  7948  1.00
      P1  H  7989  7998       L1    17  0.40
      L1  C    18    42       P1  7957  0.95

> <Gold.PLP.Chemscore.Internal.Correction>
0.4233

> <Gold.Rescore>
     Score         DG    S(hbond)    S(metal)    S(lipo)     H(rot)  DE(clash)    DE(int)     intcor
     18.32     -20.16       1.82        0.00     102.85       1.34       0.10       1.74       ----

> <Gold.Chemscore.Fitness>
18.3195

> <Gold.Chemscore.DG>
-20.1625

> <Gold.Chemscore.ZeroCoef>
-5.4800

> <Gold.Chemscore.Hbond>
1.8172

> <Gold.Chemscore.Metal>
0.0000

> <Gold.Chemscore.Lipo>
102.8466

> <Gold.Chemscore.Internal_Hbond>
0.0000

> <Gold.Chemscore.DEClash>
0.0999

> <Gold.Chemscore.DEInternal>
1.7432

> <Gold.Chemscore.Rot>
1.3359

> <Gold.Chemscore.Internal.Correction>
   9.000000E+99

> <Gold.Chemscore.Hbonds>
donor molecule, donor type, donor heavy atom, donor atom, acceptor molecule, acceptor atom, score
      L1  H     3    28       P1  7948  0.69
      L1  H     6    29       P1  7948  0.92
      P1  H  7989  7998       L1    17  0.01

> <Gold.Chemscore.Hbond.Weighted>
-6.0694

> <Gold.Chemscore.Metal.Weighted>
-0.0000

> <Gold.Chemscore.Lipo.Weighted>
-12.0331

> <Gold.Chemscore.Internal_Hbond.Weighted>
0.0000

> <Gold.Chemscore.DEClash.Weighted>
0.0999

> <Gold.Chemscore.DEInternal.Weighted>
1.7432

> <Gold.Chemscore.Rot.Weighted>
3.4199

> <Gold.Chemscore.Internal.Correction.Weighted>
   9.000000E+99

> <Gold.Protein.RotatedTorsions>
[ 6907 6896 6895 6894 ] final -114.00 input  -60.11 | X-H torsion
[ 7974 7965 7964 7962 ] final  -51.02 input  175.53 | X-H torsion
[ 8008 7997 7996 7995 ] final  156.02 input   59.86 | X-H torsion
[ 10167 10162 10161 10158 ] final  143.72 input  -65.29 | X-H torsion
[ 10718 10713 10712 10709 ] final  -74.01 input   66.30 | X-H torsion
[ 10763 10752 10751 10750 ] final -178.46 input  -60.55 | X-H torsion
[ 11005 11000 10999 10996 ] final  179.48 input  -57.11 | X-H torsion

> <Gold.Protein.ActiveResidues>
 VAL166  LYS551  ARG553  GLY616  TRP617  ASP618  TYR619  PRO620  LYS621  CYS622 
 ASP623  PHE694  ASN695  SER759  ASP760  ASP761  ALA762  ILE779  LEU786  VAL792 
 PHE793  MET794  SER795  GLU796  ALA797  LYS798  CYS799  TRP800  GLU811  SER814 

> <Gold.Protein.RotatedAtoms>
  150.7870  133.8864  159.3300 H   0  0  0  0  0  0  0  0  0  0  0  0  # atno 6907 bound_to 6896
  151.6712  135.0974  160.0208 H   0  0  0  0  0  0  0  0  0  0  0  0  # atno 6908 bound_to 6896
  152.3936  133.6675  159.6293 H   0  0  0  0  0  0  0  0  0  0  0  0  # atno 6909 bound_to 6896
  145.9236  140.7812  142.9635 H   0  0  0  0  0  0  0  0  0  0  0  0  # atno 7974 bound_to 7965
  156.2446  140.1923  156.6891 H   0  0  0  0  0  0  0  0  0  0  0  0  # atno 8008 bound_to 7997
  154.6265  140.0601  156.9705 H   0  0  0  0  0  0  0  0  0  0  0  0  # atno 8009 bound_to 7997
  155.1779  140.3274  155.4383 H   0  0  0  0  0  0  0  0  0  0  0  0  # atno 8010 bound_to 7997
  139.4963  144.6021  151.6458 H   0  0  0  0  0  0  0  0  0  0  0  0  # atno 10167 bound_to 10162
  156.0258  130.4407  150.2828 H   0  0  0  0  0  0  0  0  0  0  0  0  # atno 10718 bound_to 10713
  154.5474  135.2810  155.1040 H   0  0  0  0  0  0  0  0  0  0  0  0  # atno 10763 bound_to 10752
  154.2499  135.6341  153.5240 H   0  0  0  0  0  0  0  0  0  0  0  0  # atno 10764 bound_to 10752
  152.9994  135.5580  154.6030 H   0  0  0  0  0  0  0  0  0  0  0  0  # atno 10765 bound_to 10752
  140.4067  134.6729  157.4591 H   0  0  0  0  0  0  0  0  0  0  0  0  # atno 11005 bound_to 11000
  144.6756  140.2014  143.7386 LP  0  0  0  0  0  0  0  0  0  0  0  0  # atno 17320 bound_to 7965
  145.8518  139.2179  143.1767 LP  0  0  0  0  0  0  0  0  0  0  0  0  # atno 17321 bound_to 7965
  140.5674  144.0167  150.6199 LP  0  0  0  0  0  0  0  0  0  0  0  0  # atno 17342 bound_to 10162
  140.3273  143.3099  152.0723 LP  0  0  0  0  0  0  0  0  0  0  0  0  # atno 17343 bound_to 10162
  157.0931  131.0175  151.3114 LP  0  0  0  0  0  0  0  0  0  0  0  0  # atno 17370 bound_to 10713
  157.4838  130.7781  149.7440 LP  0  0  0  0  0  0  0  0  0  0  0  0  # atno 17371 bound_to 10713
  140.0297  134.6424  155.9123 LP  0  0  0  0  0  0  0  0  0  0  0  0  # atno 17394 bound_to 11000
  141.1837  133.6551  156.5125 LP  0  0  0  0  0  0  0  0  0  0  0  0  # atno 17395 bound_to 11000

$$$$
