AV-unprocessed.smi:26|AV-procd|sdf|185|dock3
  -GOLD-   2262015453D 1   1.00000     0.00000
 Structure written by MMmdl.
 58 61  0  0  0  0  0  0  0  0  1 V2000
  147.3148  136.2924  155.8173 C   0  0  0  0  0  0  0  0  0  0  0  0
  148.8090  136.2112  155.8479 C   0  0  0  0  0  0  0  0  0  0  0  0
  149.7046  137.2342  155.7555 C   0  0  0  0  0  0  0  0  0  0  0  0
  151.0190  136.7018  155.8395 C   0  0  0  0  0  0  0  0  0  0  0  0
  152.3067  137.4377  155.7542 C   0  0  0  0  0  0  0  0  0  0  0  0
  153.3545  137.0298  156.2568 O   0  0  0  0  0  0  0  0  0  0  0  0
  152.2679  138.7628  154.9697 C   0  0  0  0  0  0  0  0  0  0  0  0
  151.4230  139.7728  155.5955 N   0  0  0  0  0  0  0  0  0  0  0  0
  150.1930  140.0867  154.9653 C   0  0  0  0  0  0  0  0  0  0  0  0
  149.8298  139.5335  153.9258 O   0  0  0  0  0  0  0  0  0  0  0  0
  149.4013  141.1006  155.6532 C   0  0  0  0  0  0  0  0  0  0  0  0
  148.2218  141.4852  155.1367 F   0  0  0  0  0  0  0  0  0  0  0  0
  149.8334  141.6635  156.8025 C   0  0  0  0  0  0  0  0  0  0  0  0
  151.0340  141.3245  157.4055 N   0  0  0  0  0  0  0  0  0  0  0  0
  151.4941  141.9654  158.6975 C   0  0  2  0  0  0  0  0  0  0  0  0
  150.4759  143.0181  159.1734 C   0  0  0  0  0  0  0  0  0  0  0  0
  151.3478  144.2300  159.4341 C   0  0  0  0  0  0  0  0  0  0  0  0
  152.4719  144.0305  158.4289 C   0  0  0  0  0  0  0  0  0  0  0  0
  152.7086  142.6301  158.4933 O   0  0  0  0  0  0  0  0  0  0  0  0
  151.8680  140.3553  156.8066 C   0  0  0  0  0  0  0  0  0  0  0  0
  152.9344  140.0294  157.3340 O   0  0  0  0  0  0  0  0  0  0  0  0
  150.8973  135.3408  156.0080 C   0  0  0  0  0  0  0  0  0  0  0  0
  151.9386  134.2731  156.2081 C   0  0  0  0  0  0  0  0  0  0  0  0
  149.5340  135.0237  155.9678 N   0  0  0  0  0  0  0  0  0  0  0  0
  148.9788  133.6651  156.0799 C   0  0  1  0  0  0  0  0  0  0  0  0
  148.1784  133.5021  157.3864 C   0  0  0  0  0  0  0  0  0  0  0  0
  148.2677  133.2134  154.8018 C   0  0  0  0  0  0  0  0  0  0  0  0
  146.9268  132.7766  154.8878 C   0  0  0  0  0  0  0  0  0  0  0  0
  146.2352  132.3518  153.7376 C   0  0  0  0  0  0  0  0  0  0  0  0
  146.8773  132.3648  152.4856 C   0  0  0  0  0  0  0  0  0  0  0  0
  148.2105  132.8040  152.3866 C   0  0  0  0  0  0  0  0  0  0  0  0
  148.9030  133.2282  153.5372 C   0  0  0  0  0  0  0  0  0  0  0  0
  146.9829  137.3182  155.9779 H   0  0  0  0  0  0  0  0  0  0  0  0
  146.8596  135.6807  156.5941 H   0  0  0  0  0  0  0  0  0  0  0  0
  146.9254  135.9726  154.8509 H   0  0  0  0  0  0  0  0  0  0  0  0
  149.4345  138.2729  155.6329 H   0  0  0  0  0  0  0  0  0  0  0  0
  153.2703  139.1783  154.8573 H   0  0  0  0  0  0  0  0  0  0  0  0
  151.9048  138.6058  153.9526 H   0  0  0  0  0  0  0  0  0  0  0  0
  149.1976  142.4087  157.2549 H   0  0  0  0  0  0  0  0  0  0  0  0
  151.6484  141.1435  159.3989 H   0  0  0  0  0  0  0  0  0  0  0  0
  149.7552  143.2313  158.3822 H   0  0  0  0  0  0  0  0  0  0  0  0
  149.9399  142.6740  160.0582 H   0  0  0  0  0  0  0  0  0  0  0  0
  150.8190  145.1740  159.3023 H   0  0  0  0  0  0  0  0  0  0  0  0
  151.7444  144.1963  160.4496 H   0  0  0  0  0  0  0  0  0  0  0  0
  152.1495  144.3130  157.4259 H   0  0  0  0  0  0  0  0  0  0  0  0
  153.3671  144.6010  158.6773 H   0  0  0  0  0  0  0  0  0  0  0  0
  152.8716  134.6759  156.5972 H   0  0  0  0  0  0  0  0  0  0  0  0
  152.1556  133.7623  155.2701 H   0  0  0  0  0  0  0  0  0  0  0  0
  151.6164  133.5302  156.9370 H   0  0  0  0  0  0  0  0  0  0  0  0
  149.8100  132.9652  156.1462 H   0  0  0  0  0  0  0  0  0  0  0  0
  147.8660  132.4676  157.5296 H   0  0  0  0  0  0  0  0  0  0  0  0
  147.2875  134.1281  157.4076 H   0  0  0  0  0  0  0  0  0  0  0  0
  148.7867  133.7770  158.2485 H   0  0  0  0  0  0  0  0  0  0  0  0
  146.4251  132.7621  155.8444 H   0  0  0  0  0  0  0  0  0  0  0  0
  145.2118  132.0160  153.8164 H   0  0  0  0  0  0  0  0  0  0  0  0
  146.3477  132.0396  151.6023 H   0  0  0  0  0  0  0  0  0  0  0  0
  148.7038  132.8154  151.4259 H   0  0  0  0  0  0  0  0  0  0  0  0
  149.9255  133.5556  153.4292 H   0  0  0  0  0  0  0  0  0  0  0  0
  1  2  1  0  0  0  0
  1 33  1  0  0  0  0
  1 34  1  0  0  0  0
  1 35  1  0  0  0  0
  2 24  1  0  0  0  0
  2  3  2  0  0  0  0
  3  4  1  0  0  0  0
  3 36  1  0  0  0  0
  4  5  1  0  0  0  0
  4 22  2  0  0  0  0
  5  6  2  0  0  0  0
  5  7  1  0  0  0  0
  7  8  1  0  0  0  0
  7 37  1  0  0  0  0
  7 38  1  0  0  0  0
  8 20  1  0  0  0  0
  8  9  1  0  0  0  0
  9 10  2  0  0  0  0
  9 11  1  0  0  0  0
 11 12  1  0  0  0  0
 11 13  2  0  0  0  0
 13 14  1  0  0  0  0
 13 39  1  0  0  0  0
 14 15  1  0  0  0  0
 14 20  1  0  0  0  0
 15 19  1  0  0  0  0
 15 16  1  0  0  0  0
 15 40  1  0  0  0  0
 16 17  1  0  0  0  0
 16 41  1  0  0  0  0
 16 42  1  0  0  0  0
 17 18  1  0  0  0  0
 17 43  1  0  0  0  0
 17 44  1  0  0  0  0
 18 19  1  0  0  0  0
 18 45  1  0  0  0  0
 18 46  1  0  0  0  0
 20 21  2  0  0  0  0
 22 23  1  0  0  0  0
 22 24  1  0  0  0  0
 23 47  1  0  0  0  0
 23 48  1  0  0  0  0
 23 49  1  0  0  0  0
 24 25  1  0  0  0  0
 25 26  1  0  0  0  0
 25 27  1  0  0  0  0
 25 50  1  0  0  0  0
 26 51  1  0  0  0  0
 26 52  1  0  0  0  0
 26 53  1  0  0  0  0
 27 32  1  0  0  0  0
 27 28  2  0  0  0  0
 28 29  1  0  0  0  0
 28 54  1  0  0  0  0
 29 30  2  0  0  0  0
 29 55  1  0  0  0  0
 30 31  1  0  0  0  0
 30 56  1  0  0  0  0
 31 32  2  0  0  0  0
 31 57  1  0  0  0  0
 32 58  1  0  0  0  0
M  END
> <s_m_source_file>
AV-unprocessed.smi

> <i_m_source_file_index>
26

> <i_lp_mmshare_version>
43012

> <i_f3d_flags>
0

> <s_epik_input>
W2NIXTFbY0hdW2NIXVtjSF1bY0hdYzFbQ0BASF0oW0NIM10pbjJjKFtDSDNdKWMoW2NIXWMyW0NIM10pQyg9TylbQ0gyXW4zYyg9TyljKEYpW2NIXW4oYzM9TylbQ0BASF00W0NIMl1bQ0gyXVtDSDJdTzQ=

> <s_epik_cmdline>
J2VwaWtfcHl0aG9uJywgJy1waCcsICc3LjAnLCAnLXRuJywgJzgnLCAnLW1hJywgJzIwMCcsICctbWV0YWxfYmluZGluZycsICctaW1hZScsICc8aW5maWxlLm1hZT4nLCAnLW9tYWUnLCAnPG91dGZpbGUubWFlPic=

> <r_lp_tautomer_probability>
1

> <r_epik_Ionization_Penalty>
5.02402e-09

> <r_epik_Ionization_Penalty_Charging>
5.01743e-09

> <r_epik_Ionization_Penalty_Neutral>
6.58831e-12

> <r_epik_State_Penalty>
-0

> <r_epik_Charging_Adjusted_Penalty>
5.01743e-09

> <i_epik_Tot_Q>
0

> <i_epik_Tot_abs_Q>
0

> <r_epik_Metal_State_Penalty>
-0

> <b_epik_Metal_Only>
0

> <s_epik_Chemistry_Notes>
This compound contains an acetal/aminal-like group ( X-CH(R)-Y where X, Y are N, S, or O) that may be acid/base labile, releasing an aldehyde.

> <s_lp_Force_Field>
OPLS_2005

> <r_lp_Energy>
50.3932

> <b_lp_Chiralities_Consistent>
1

> <s_lp_Variant>
AV-unprocessed.smi:26-3

> <Gold.Version>
5.8.1

> <Gold.Id.Protein>
6NUR|6NUR_protein|mol2

> <Gold.PLP.Fitness>
52.6385

> <Gold.PLP.PLP>
-44.9954

> <Gold.PLP.part.hbond>
-3.0000

> <Gold.PLP.part.metal>
0.0000

> <Gold.PLP.part.buried>
-0.0311

> <Gold.PLP.part.nonpolar>
-44.2900

> <Gold.PLP.part.repulsive>
2.9538

> <Gold.PLP.ligand.clash>
0.0013

> <Gold.PLP.ligand.torsion>
0.5226

> <Gold.PLP.Chemscore.Hbond>
1.8664

> <Gold.PLP.Chemscore.CHOScore>
0.9394

> <Gold.PLP.Chemscore.Metal>
0.0000

> <Gold.Chemscore.Hbonds>
donor molecule, donor type, donor heavy atom, donor atom, acceptor molecule, acceptor atom, score
      P1  H  7997  8009       L1    21  0.96
      P1  H 10752 10764       L1     6  0.62
      L1  C    13    39       P1  8028  0.19

> <Gold.PLP.Chemscore.Internal.Correction>
0.2724

> <Gold.Rescore>
     Score         DG    S(hbond)    S(metal)    S(lipo)     H(rot)  DE(clash)    DE(int)     intcor
     10.60     -17.66       1.44        0.00     103.15       1.84       2.57       4.50       ----

> <Gold.Chemscore.Fitness>
10.5982

> <Gold.Chemscore.DG>
-17.6650

> <Gold.Chemscore.ZeroCoef>
-5.4800

> <Gold.Chemscore.Hbond>
1.4421

> <Gold.Chemscore.Metal>
0.0000

> <Gold.Chemscore.Lipo>
103.1493

> <Gold.Chemscore.Internal_Hbond>
0.0000

> <Gold.Chemscore.DEClash>
2.5705

> <Gold.Chemscore.DEInternal>
4.4963

> <Gold.Chemscore.Rot>
1.8359

> <Gold.Chemscore.Internal.Correction>
   9.000000E+99

> <Gold.Chemscore.Hbonds>
donor molecule, donor type, donor heavy atom, donor atom, acceptor molecule, acceptor atom, score
      P1  H  7997  8009       L1    21  0.92
      P1  H 10752 10764       L1     6  0.16

> <Gold.Chemscore.Hbond.Weighted>
-4.8165

> <Gold.Chemscore.Metal.Weighted>
-0.0000

> <Gold.Chemscore.Lipo.Weighted>
-12.0685

> <Gold.Chemscore.Internal_Hbond.Weighted>
0.0000

> <Gold.Chemscore.DEClash.Weighted>
2.5705

> <Gold.Chemscore.DEInternal.Weighted>
4.4963

> <Gold.Chemscore.Rot.Weighted>
4.7000

> <Gold.Chemscore.Internal.Correction.Weighted>
   9.000000E+99

> <Gold.Protein.RotatedTorsions>
[ 6907 6896 6895 6894 ] final   -0.18 input  -60.11 | X-H torsion
[ 7974 7965 7964 7962 ] final   74.04 input  175.53 | X-H torsion
[ 8008 7997 7996 7995 ] final  160.03 input   59.86 | X-H torsion
[ 10167 10162 10161 10158 ] final  -26.59 input  -65.29 | X-H torsion
[ 10718 10713 10712 10709 ] final -123.74 input   66.30 | X-H torsion
[ 10763 10752 10751 10750 ] final    0.13 input  -60.55 | X-H torsion
[ 11005 11000 10999 10996 ] final   92.76 input  -57.11 | X-H torsion

> <Gold.Protein.ActiveResidues>
 VAL166  LYS551  ARG553  GLY616  TRP617  ASP618  TYR619  PRO620  LYS621  CYS622 
 ASP623  PHE694  ASN695  SER759  ASP760  ASP761  ALA762  ILE779  LEU786  VAL792 
 PHE793  MET794  SER795  GLU796  ALA797  LYS798  CYS799  TRP800  GLU811  SER814 

> <Gold.Protein.RotatedAtoms>
  151.5664  135.1064  159.9984 H   0  0  0  0  0  0  0  0  0  0  0  0  # atno 6907 bound_to 6896
  152.4422  133.7464  159.6680 H   0  0  0  0  0  0  0  0  0  0  0  0  # atno 6908 bound_to 6896
  150.8329  133.7992  159.3115 H   0  0  0  0  0  0  0  0  0  0  0  0  # atno 6909 bound_to 6896
  145.7333  139.2692  143.1529 H   0  0  0  0  0  0  0  0  0  0  0  0  # atno 7974 bound_to 7965
  156.2200  140.1815  156.7500 H   0  0  0  0  0  0  0  0  0  0  0  0  # atno 8008 bound_to 7997
  154.5850  140.0660  156.9187 H   0  0  0  0  0  0  0  0  0  0  0  0  # atno 8009 bound_to 7997
  155.2436  140.3324  155.4292 H   0  0  0  0  0  0  0  0  0  0  0  0  # atno 8010 bound_to 7997
  140.7282  143.4165  151.1020 H   0  0  0  0  0  0  0  0  0  0  0  0  # atno 10167 bound_to 10162
  156.1528  130.6546  150.9938 H   0  0  0  0  0  0  0  0  0  0  0  0  # atno 10718 bound_to 10713
  153.3246  135.6971  153.7001 H   0  0  0  0  0  0  0  0  0  0  0  0  # atno 10763 bound_to 10752
  153.5827  135.3495  155.2882 H   0  0  0  0  0  0  0  0  0  0  0  0  # atno 10764 bound_to 10752
  154.8605  135.4299  154.2419 H   0  0  0  0  0  0  0  0  0  0  0  0  # atno 10765 bound_to 10752
  139.8819  134.8751  156.3619 H   0  0  0  0  0  0  0  0  0  0  0  0  # atno 11005 bound_to 11000
  146.0517  140.8062  142.9778 LP  0  0  0  0  0  0  0  0  0  0  0  0  # atno 17320 bound_to 7965
  144.6888  140.3063  143.7255 LP  0  0  0  0  0  0  0  0  0  0  0  0  # atno 17321 bound_to 7965
  139.7806  143.8361  152.3137 LP  0  0  0  0  0  0  0  0  0  0  0  0  # atno 17342 bound_to 10162
  139.8311  144.7253  150.9449 LP  0  0  0  0  0  0  0  0  0  0  0  0  # atno 17343 bound_to 10162
  157.6670  131.0869  150.7703 LP  0  0  0  0  0  0  0  0  0  0  0  0  # atno 17370 bound_to 10713
  156.7770  130.4847  149.5408 LP  0  0  0  0  0  0  0  0  0  0  0  0  # atno 17371 bound_to 10713
  140.9523  133.7442  156.0289 LP  0  0  0  0  0  0  0  0  0  0  0  0  # atno 17394 bound_to 11000
  140.8090  134.3421  157.5417 LP  0  0  0  0  0  0  0  0  0  0  0  0  # atno 17395 bound_to 11000

$$$$
