AV-unprocessed.smi:1000|AV-procd|sdf|4356|dock2
  -GOLD-   22720 2253D 1   1.00000     0.00000
 Structure written by MMmdl.
 40 41  0  0  0  0  0  0  0  0  1 V2000
  154.1135  133.9450  161.1461 C   0  0  0  0  0  0  0  0  0  0  0  0
  153.9263  135.7559  160.7901 S   0  0  1  0  0  0  0  0  0  0  0  0
  152.4928  135.9718  160.3003 O   0  0  0  0  0  0  0  0  0  0  0  0
  153.8873  136.2550  162.5479 C   0  0  0  0  0  0  0  0  0  0  0  0
  153.0613  135.7248  163.4547 N   0  0  0  0  0  0  0  0  0  0  0  0
  153.3618  136.3779  164.6352 N   0  0  0  0  0  0  0  0  0  0  0  0
  154.3366  137.2303  164.3127 C   0  0  0  0  0  0  0  0  0  0  0  0
  154.7152  137.2036  163.0250 N   0  0  0  0  0  0  0  0  0  0  0  0
  155.7341  137.9951  162.3591 C   0  0  0  0  0  0  0  0  0  0  0  0
  155.1231  138.8566  161.2544 C   0  0  0  0  0  0  0  0  0  0  0  0
  155.4217  138.6467  160.0795 O   0  0  0  0  0  0  0  0  0  0  0  0
  154.2734  139.8189  161.6469 N   0  0  0  0  0  0  0  0  0  0  0  0
  153.5841  140.7579  160.7660 C   0  0  0  0  0  0  0  0  0  0  0  0
  153.0602  141.9882  161.5312 C   0  0  0  0  0  0  0  0  0  0  0  0
  152.6573  143.1432  160.6277 C   0  0  0  0  0  0  0  0  0  0  0  0
  152.3339  144.3546  161.1212 C   0  0  0  0  0  0  0  0  0  0  0  0
  151.9668  145.5531  160.2650 C   0  0  0  0  0  0  0  0  0  0  0  0
  152.3428  145.3504  158.7878 C   0  0  0  0  0  0  0  0  0  0  0  0
  151.9524  143.9472  158.3075 C   0  0  0  0  0  0  0  0  0  0  0  0
  152.6603  142.8558  159.1300 C   0  0  0  0  0  0  0  0  0  0  0  0
  154.5933  133.7791  162.1108 H   0  0  0  0  0  0  0  0  0  0  0  0
  154.7247  133.4757  160.3754 H   0  0  0  0  0  0  0  0  0  0  0  0
  153.1372  133.4603  161.1561 H   0  0  0  0  0  0  0  0  0  0  0  0
  154.7862  137.8933  165.0373 H   0  0  0  0  0  0  0  0  0  0  0  0
  156.2337  138.6256  163.0959 H   0  0  0  0  0  0  0  0  0  0  0  0
  156.4922  137.3304  161.9432 H   0  0  0  0  0  0  0  0  0  0  0  0
  154.0914  139.9118  162.6357 H   0  0  0  0  0  0  0  0  0  0  0  0
  154.2189  141.0554  159.9301 H   0  0  0  0  0  0  0  0  0  0  0  0
  152.7397  140.2280  160.3249 H   0  0  0  0  0  0  0  0  0  0  0  0
  152.1940  141.7060  162.1303 H   0  0  0  0  0  0  0  0  0  0  0  0
  153.8185  142.3238  162.2401 H   0  0  0  0  0  0  0  0  0  0  0  0
  152.3308  144.5159  162.1893 H   0  0  0  0  0  0  0  0  0  0  0  0
  150.8944  145.7238  160.3630 H   0  0  0  0  0  0  0  0  0  0  0  0
  152.4673  146.4396  160.6552 H   0  0  0  0  0  0  0  0  0  0  0  0
  151.8627  146.1115  158.1720 H   0  0  0  0  0  0  0  0  0  0  0  0
  153.4184  145.4840  158.6634 H   0  0  0  0  0  0  0  0  0  0  0  0
  150.8719  143.8271  158.3968 H   0  0  0  0  0  0  0  0  0  0  0  0
  152.1893  143.8279  157.2499 H   0  0  0  0  0  0  0  0  0  0  0  0
  153.6948  142.7628  158.8000 H   0  0  0  0  0  0  0  0  0  0  0  0
  152.1834  141.8935  158.9417 H   0  0  0  0  0  0  0  0  0  0  0  0
  1  2  1  0  0  0  0
  1 21  1  0  0  0  0
  1 22  1  0  0  0  0
  1 23  1  0  0  0  0
  2  3  2  0  0  0  0
  2  4  1  0  0  0  0
  4  8  1  0  0  0  0
  4  5  2  0  0  0  0
  5  6  1  0  0  0  0
  6  7  2  0  0  0  0
  7  8  1  0  0  0  0
  7 24  1  0  0  0  0
  8  9  1  0  0  0  0
  9 10  1  0  0  0  0
  9 25  1  0  0  0  0
  9 26  1  0  0  0  0
 10 11  2  0  0  0  0
 10 12  1  0  0  0  0
 12 13  1  0  0  0  0
 12 27  1  0  0  0  0
 13 14  1  0  0  0  0
 13 28  1  0  0  0  0
 13 29  1  0  0  0  0
 14 15  1  0  0  0  0
 14 30  1  0  0  0  0
 14 31  1  0  0  0  0
 15 20  1  0  0  0  0
 15 16  2  0  0  0  0
 16 17  1  0  0  0  0
 16 32  1  0  0  0  0
 17 18  1  0  0  0  0
 17 33  1  0  0  0  0
 17 34  1  0  0  0  0
 18 19  1  0  0  0  0
 18 35  1  0  0  0  0
 18 36  1  0  0  0  0
 19 20  1  0  0  0  0
 19 37  1  0  0  0  0
 19 38  1  0  0  0  0
 20 39  1  0  0  0  0
 20 40  1  0  0  0  0
M  END
> <s_m_source_file>
AV-unprocessed.smi

> <i_m_source_file_index>
1000

> <i_lp_mmshare_version>
43012

> <i_f3d_flags>
0

> <s_epik_input>
W0NIM11bU0BdKD1PKWMxbm5bY0hdbjFbQ0gyXUMoPU8pW05IXVtDSDJdW0NIMl1DMj1bQ0hdW0NIMl1bQ0gyXVtDSDJdW0NIMl0y

> <s_epik_cmdline>
J2VwaWtfcHl0aG9uJywgJy1waCcsICc3LjAnLCAnLXRuJywgJzgnLCAnLW1hJywgJzIwMCcsICctbWV0YWxfYmluZGluZycsICctaW1hZScsICc8aW5maWxlLm1hZT4nLCAnLW9tYWUnLCAnPG91dGZpbGUubWFlPic=

> <r_lp_tautomer_probability>
1

> <r_epik_Ionization_Penalty>
9.22166e-08

> <r_epik_Ionization_Penalty_Charging>
0

> <r_epik_Ionization_Penalty_Neutral>
9.22166e-08

> <r_epik_State_Penalty>
-0

> <r_epik_Charging_Adjusted_Penalty>
0

> <i_epik_Tot_Q>
0

> <i_epik_Tot_abs_Q>
0

> <r_epik_Metal_State_Penalty>
-0

> <b_epik_Metal_Only>
0

> <s_lp_Force_Field>
OPLS_2005

> <r_lp_Energy>
7.40605

> <b_lp_Chiralities_Consistent>
1

> <s_lp_Variant>
AV-unprocessed.smi:1000-2

> <Gold.Version>
5.8.1

> <Gold.Id.Protein>
6NUR|6NUR_protein|mol2

> <Gold.PLP.Fitness>
45.6948

> <Gold.PLP.PLP>
-44.1138

> <Gold.PLP.part.hbond>
-1.0000

> <Gold.PLP.part.metal>
0.0000

> <Gold.PLP.part.buried>
-6.8711

> <Gold.PLP.part.nonpolar>
-36.2475

> <Gold.PLP.part.repulsive>
0.1302

> <Gold.PLP.ligand.clash>
0.0000

> <Gold.PLP.ligand.torsion>
1.2665

> <Gold.PLP.Chemscore.Hbond>
1.0000

> <Gold.PLP.Chemscore.CHOScore>
0.0000

> <Gold.PLP.Chemscore.Metal>
0.0000

> <Gold.Chemscore.Hbonds>
donor molecule, donor type, donor heavy atom, donor atom, acceptor molecule, acceptor atom, score
      P1  H  6896  6908       L1     3  0.09

> <Gold.PLP.Chemscore.Internal.Correction>
1.1140

> <Gold.Rescore>
     Score         DG    S(hbond)    S(metal)    S(lipo)     H(rot)  DE(clash)    DE(int)     intcor
     13.31     -14.91       1.00        0.00     101.66       2.26       0.02       1.58       ----

> <Gold.Chemscore.Fitness>
13.3135

> <Gold.Chemscore.DG>
-14.9139

> <Gold.Chemscore.ZeroCoef>
-5.4800

> <Gold.Chemscore.Hbond>
0.9986

> <Gold.Chemscore.Metal>
0.0000

> <Gold.Chemscore.Lipo>
101.6617

> <Gold.Chemscore.Internal_Hbond>
0.0000

> <Gold.Chemscore.DEClash>
0.0224

> <Gold.Chemscore.DEInternal>
1.5780

> <Gold.Chemscore.Rot>
2.2640

> <Gold.Chemscore.Internal.Correction>
   9.000000E+99

> <Gold.Chemscore.Hbond.Weighted>
-3.3352

> <Gold.Chemscore.Metal.Weighted>
-0.0000

> <Gold.Chemscore.Lipo.Weighted>
-11.8944

> <Gold.Chemscore.Internal_Hbond.Weighted>
0.0000

> <Gold.Chemscore.DEClash.Weighted>
0.0224

> <Gold.Chemscore.DEInternal.Weighted>
1.5780

> <Gold.Chemscore.Rot.Weighted>
5.7957

> <Gold.Chemscore.Internal.Correction.Weighted>
   9.000000E+99

> <Gold.Protein.RotatedTorsions>
[ 6907 6896 6895 6894 ] final  -54.90 input  -60.11 | X-H torsion
[ 7974 7965 7964 7962 ] final   -8.51 input  175.53 | X-H torsion
[ 8008 7997 7996 7995 ] final -150.19 input   59.86 | X-H torsion
[ 10167 10162 10161 10158 ] final  167.57 input  -65.29 | X-H torsion
[ 10718 10713 10712 10709 ] final   12.67 input   66.30 | X-H torsion
[ 10763 10752 10751 10750 ] final  179.47 input  -60.55 | X-H torsion
[ 11005 11000 10999 10996 ] final   85.48 input  -57.11 | X-H torsion

> <Gold.Protein.ActiveResidues>
 VAL166  LYS551  ARG553  GLY616  TRP617  ASP618  TYR619  PRO620  LYS621  CYS622 
 ASP623  PHE694  ASN695  SER759  ASP760  ASP761  ALA762  ILE779  LEU786  VAL792 
 PHE793  MET794  SER795  GLU796  ALA797  LYS798  CYS799  TRP800  GLU811  SER814 

> <Gold.Protein.RotatedAtoms>
  150.8298  134.7545  159.6843 H   0  0  0  0  0  0  0  0  0  0  0  0  # atno 6907 bound_to 6896
  152.4404  134.5599  159.9901 H   0  0  0  0  0  0  0  0  0  0  0  0  # atno 6908 bound_to 6896
  151.5763  133.3346  159.3035 H   0  0  0  0  0  0  0  0  0  0  0  0  # atno 6909 bound_to 6896
  146.2278  140.2479  142.8346 H   0  0  0  0  0  0  0  0  0  0  0  0  # atno 7974 bound_to 7965
  155.6196  140.0680  157.2682 H   0  0  0  0  0  0  0  0  0  0  0  0  # atno 8008 bound_to 7997
  154.4232  140.1787  156.1407 H   0  0  0  0  0  0  0  0  0  0  0  0  # atno 8009 bound_to 7997
  156.0020  140.3335  155.6858 H   0  0  0  0  0  0  0  0  0  0  0  0  # atno 8010 bound_to 7997
  139.4948  144.3907  151.9520 H   0  0  0  0  0  0  0  0  0  0  0  0  # atno 10167 bound_to 10162
  157.0135  130.6126  149.5711 H   0  0  0  0  0  0  0  0  0  0  0  0  # atno 10718 bound_to 10713
  154.5211  135.2794  155.1261 H   0  0  0  0  0  0  0  0  0  0  0  0  # atno 10763 bound_to 10752
  154.2818  135.6284  153.5354 H   0  0  0  0  0  0  0  0  0  0  0  0  # atno 10764 bound_to 10752
  152.9937  135.5653  154.5701 H   0  0  0  0  0  0  0  0  0  0  0  0  # atno 10765 bound_to 10752
  139.8970  134.8289  156.2588 H   0  0  0  0  0  0  0  0  0  0  0  0  # atno 11005 bound_to 11000
  144.9434  140.8102  143.5616 LP  0  0  0  0  0  0  0  0  0  0  0  0  # atno 17320 bound_to 7965
  145.2433  139.2063  143.4981 LP  0  0  0  0  0  0  0  0  0  0  0  0  # atno 17321 bound_to 7965
  140.3345  144.3277  150.5980 LP  0  0  0  0  0  0  0  0  0  0  0  0  # atno 17342 bound_to 10162
  140.5618  143.2191  151.7753 LP  0  0  0  0  0  0  0  0  0  0  0  0  # atno 17343 bound_to 10162
  156.0127  130.5220  150.8040 LP  0  0  0  0  0  0  0  0  0  0  0  0  # atno 17370 bound_to 10713
  157.5303  131.0936  150.9964 LP  0  0  0  0  0  0  0  0  0  0  0  0  # atno 17371 bound_to 10713
  141.0176  133.7059  156.1215 LP  0  0  0  0  0  0  0  0  0  0  0  0  # atno 17394 bound_to 11000
  140.7279  134.4287  157.5569 LP  0  0  0  0  0  0  0  0  0  0  0  0  # atno 17395 bound_to 11000

$$$$
