AV-unprocessed.smi:544|AV-procd|sdf|2879|dock1
  -GOLD-   2262023373D 1   1.00000     0.00000
 Structure written by MMmdl.
 48 50  0  0  0  0  0  0  0  0  2 V2000
  148.0767  140.9061  155.3855 C   0  0  0  0  0  0  0  0  0  0  0  0
  148.6464  140.2427  154.1297 C   0  0  0  0  0  0  0  0  0  0  0  0
  150.0602  140.2154  154.2260 O   0  0  0  0  0  0  0  0  0  0  0  0
  150.5169  139.5365  155.3837 C   0  0  0  0  0  0  0  0  0  0  0  0
  151.8177  140.2016  155.8639 C   0  0  0  0  0  0  0  0  0  0  0  0
  152.2550  139.6991  157.1638 N   0  0  0  0  0  0  0  0  0  0  0  0
  152.2673  140.3341  158.3727 C   0  0  0  0  0  0  0  0  0  0  0  0
  151.8113  141.6458  158.5697 N   0  0  0  0  0  0  0  0  0  0  0  0
  151.1408  142.5165  157.6003 C   0  0  0  0  0  0  0  0  0  0  0  0
  151.7854  143.9126  157.5338 C   0  0  0  0  0  0  0  0  0  0  0  0
  151.7689  144.5781  158.9149 C   0  0  0  0  0  0  0  0  0  0  0  0
  152.3849  143.6355  159.9615 C   0  0  1  0  0  0  0  0  0  0  0  0
  152.3090  144.2345  161.3721 C   0  0  0  0  0  0  0  0  0  0  0  0
  151.6975  142.2563  159.8967 C   0  0  0  0  0  0  0  0  0  0  0  0
  152.7891  139.6071  159.3644 N   0  0  0  0  0  0  0  0  0  0  0  0
  153.1224  138.4128  158.7490 C   0  0  0  0  0  0  0  0  0  0  0  0
  152.8225  138.4454  157.4240 C   0  0  0  0  0  0  0  0  0  0  0  0
  153.0987  137.3261  156.4941 C   0  0  0  0  0  0  0  0  0  0  0  0
  152.8346  137.4129  155.2968 O   0  0  0  0  0  0  0  0  0  0  0  0
  153.6612  136.2502  157.1305 N   0  5  0  0  0  0  0  0  0  0  0  0
  153.9717  136.1731  158.4709 C   0  0  0  0  0  0  0  0  0  0  0  0
  154.4773  135.1640  158.9643 O   0  0  0  0  0  0  0  0  0  0  0  0
  153.7169  137.2406  159.2906 N   0  0  0  0  0  0  0  0  0  0  0  0
  154.0409  137.1893  160.7191 C   0  0  0  0  0  0  0  0  0  0  0  0
  146.9883  140.9456  155.3446 H   0  0  0  0  0  0  0  0  0  0  0  0
  148.4453  141.9268  155.4903 H   0  0  0  0  0  0  0  0  0  0  0  0
  148.3588  140.3534  156.2820 H   0  0  0  0  0  0  0  0  0  0  0  0
  148.2554  139.2286  154.0354 H   0  0  0  0  0  0  0  0  0  0  0  0
  148.3400  140.7994  153.2430 H   0  0  0  0  0  0  0  0  0  0  0  0
  149.7521  139.5708  156.1592 H   0  0  0  0  0  0  0  0  0  0  0  0
  150.6841  138.4843  155.1547 H   0  0  0  0  0  0  0  0  0  0  0  0
  152.6142  140.0394  155.1382 H   0  0  0  0  0  0  0  0  0  0  0  0
  151.7037  141.2814  155.9093 H   0  0  0  0  0  0  0  0  0  0  0  0
  151.1278  142.0639  156.6139 H   0  0  0  0  0  0  0  0  0  0  0  0
  150.0929  142.6118  157.8876 H   0  0  0  0  0  0  0  0  0  0  0  0
  152.8127  143.8362  157.1771 H   0  0  0  0  0  0  0  0  0  0  0  0
  151.2535  144.5350  156.8137 H   0  0  0  0  0  0  0  0  0  0  0  0
  152.3118  145.5233  158.8835 H   0  0  0  0  0  0  0  0  0  0  0  0
  150.7405  144.8158  159.1909 H   0  0  0  0  0  0  0  0  0  0  0  0
  153.4396  143.4976  159.7172 H   0  0  0  0  0  0  0  0  0  0  0  0
  151.2750  144.3911  161.6810 H   0  0  0  0  0  0  0  0  0  0  0  0
  152.8204  145.1964  161.4179 H   0  0  0  0  0  0  0  0  0  0  0  0
  152.7791  143.5766  162.1036 H   0  0  0  0  0  0  0  0  0  0  0  0
  150.6432  142.3426  160.1632 H   0  0  0  0  0  0  0  0  0  0  0  0
  152.1490  141.6008  160.6420 H   0  0  0  0  0  0  0  0  0  0  0  0
  153.4915  136.3824  161.2057 H   0  0  0  0  0  0  0  0  0  0  0  0
  153.7932  138.1130  161.2409 H   0  0  0  0  0  0  0  0  0  0  0  0
  155.1075  137.0112  160.8630 H   0  0  0  0  0  0  0  0  0  0  0  0
  1  2  1  0  0  0  0
  1 25  1  0  0  0  0
  1 26  1  0  0  0  0
  1 27  1  0  0  0  0
  2  3  1  0  0  0  0
  2 28  1  0  0  0  0
  2 29  1  0  0  0  0
  3  4  1  0  0  0  0
  4  5  1  0  0  0  0
  4 30  1  0  0  0  0
  4 31  1  0  0  0  0
  5  6  1  0  0  0  0
  5 32  1  0  0  0  0
  5 33  1  0  0  0  0
  6 17  1  0  0  0  0
  6  7  1  0  0  0  0
  7  8  1  0  0  0  0
  7 15  2  0  0  0  0
  8 14  1  0  0  0  0
  8  9  1  0  0  0  0
  9 10  1  0  0  0  0
  9 34  1  0  0  0  0
  9 35  1  0  0  0  0
 10 11  1  0  0  0  0
 10 36  1  0  0  0  0
 10 37  1  0  0  0  0
 11 12  1  0  0  0  0
 11 38  1  0  0  0  0
 11 39  1  0  0  0  0
 12 13  1  0  0  0  0
 12 14  1  0  0  0  0
 12 40  1  0  0  0  0
 13 41  1  0  0  0  0
 13 42  1  0  0  0  0
 13 43  1  0  0  0  0
 14 44  1  0  0  0  0
 14 45  1  0  0  0  0
 15 16  1  0  0  0  0
 16 23  1  0  0  0  0
 16 17  2  0  0  0  0
 17 18  1  0  0  0  0
 18 19  2  0  0  0  0
 18 20  1  0  0  0  0
 20 21  1  0  0  0  0
 21 22  2  0  0  0  0
 21 23  1  0  0  0  0
 23 24  1  0  0  0  0
 24 46  1  0  0  0  0
 24 47  1  0  0  0  0
 24 48  1  0  0  0  0
M  CHG  1  20  -1
M  END
> <s_m_source_file>
AV-unprocessed.smi

> <i_m_source_file_index>
544

> <i_lp_mmshare_version>
43012

> <i_f3d_flags>
0

> <s_epik_input>
W0NIM11uMWMoPU8pW25IXWMoPU8pYyhjMTIpbihbQ0gyXVtDSDJdT1tDSDJdW0NIM10pYyhuMilOM1tDSDJdW0NIMl1bQ0gyXVtDQEBIXShbQ0gzXSlbQ0gyXTM=

> <s_epik_cmdline>
J2VwaWtfcHl0aG9uJywgJy1waCcsICc3LjAnLCAnLXRuJywgJzgnLCAnLW1hJywgJzIwMCcsICctbWV0YWxfYmluZGluZycsICctaW1hZScsICc8aW5maWxlLm1hZT4nLCAnLW9tYWUnLCAnPG91dGZpbGUubWFlPic=

> <r_lp_tautomer_probability>
1

> <r_epik_Ionization_Penalty>
5.1213

> <r_epik_Ionization_Penalty_Charging>
0.0741877

> <r_epik_Ionization_Penalty_Neutral>
5.04711

> <r_epik_State_Penalty>
5.04142

> <r_epik_Charging_Adjusted_Penalty>
5.11561

> <i_epik_Tot_Q>
-1

> <i_epik_Tot_abs_Q>
1

> <r_epik_Metal_State_Penalty>
1.14934

> <b_epik_Metal_Only>
1

> <s_lp_Force_Field>
OPLS_2005

> <r_lp_Energy>
41.9091

> <b_lp_Chiralities_Consistent>
1

> <s_lp_Variant>
AV-unprocessed.smi:544-3

> <Gold.Version>
5.8.1

> <Gold.Id.Protein>
6NUR|6NUR_protein|mol2

> <Gold.PLP.Fitness>
53.7764

> <Gold.PLP.PLP>
-43.8919

> <Gold.PLP.part.hbond>
-4.0000

> <Gold.PLP.part.metal>
0.0000

> <Gold.PLP.part.buried>
-2.8295

> <Gold.PLP.part.nonpolar>
-37.3875

> <Gold.PLP.part.repulsive>
0.1744

> <Gold.PLP.ligand.clash>
0.9318

> <Gold.PLP.ligand.torsion>
0.3839

> <Gold.PLP.Chemscore.Hbond>
3.7470

> <Gold.PLP.Chemscore.CHOScore>
0.0000

> <Gold.PLP.Chemscore.Metal>
0.0000

> <Gold.Chemscore.Hbonds>
donor molecule, donor type, donor heavy atom, donor atom, acceptor molecule, acceptor atom, score
      P1  H  6896  6908       L1    22  0.32
      P1  H  7989  7998       L1     3  0.94
      P1  H 10752 10763       L1    19  0.07
      P1  H 10752 10764       L1    20  1.10

> <Gold.PLP.Chemscore.Internal.Correction>
0.3432

> <Gold.Rescore>
     Score         DG    S(hbond)    S(metal)    S(lipo)     H(rot)  DE(clash)    DE(int)     intcor
     15.10     -17.95       1.12        0.00     108.49       1.55       1.54       1.31       ----

> <Gold.Chemscore.Fitness>
15.0979

> <Gold.Chemscore.DG>
-17.9451

> <Gold.Chemscore.ZeroCoef>
-5.4800

> <Gold.Chemscore.Hbond>
1.1223

> <Gold.Chemscore.Metal>
0.0000

> <Gold.Chemscore.Lipo>
108.4920

> <Gold.Chemscore.Internal_Hbond>
0.0000

> <Gold.Chemscore.DEClash>
1.5384

> <Gold.Chemscore.DEInternal>
1.3088

> <Gold.Chemscore.Rot>
1.5534

> <Gold.Chemscore.Internal.Correction>
   9.000000E+99

> <Gold.Chemscore.Hbonds>
donor molecule, donor type, donor heavy atom, donor atom, acceptor molecule, acceptor atom, score
      P1  H  6896  6908       L1    22  0.04
      P1  H  7989  7998       L1     3  0.41
      P1  H 10752 10763       L1    19  0.08
      P1  H 10752 10764       L1    20  0.03

> <Gold.Chemscore.Hbond.Weighted>
-3.7484

> <Gold.Chemscore.Metal.Weighted>
-0.0000

> <Gold.Chemscore.Lipo.Weighted>
-12.6936

> <Gold.Chemscore.Internal_Hbond.Weighted>
0.0000

> <Gold.Chemscore.DEClash.Weighted>
1.5384

> <Gold.Chemscore.DEInternal.Weighted>
1.3088

> <Gold.Chemscore.Rot.Weighted>
3.9768

> <Gold.Chemscore.Internal.Correction.Weighted>
   9.000000E+99

> <Gold.Protein.RotatedTorsions>
[ 6907 6896 6895 6894 ] final  -43.85 input  -60.11 | X-H torsion
[ 7974 7965 7964 7962 ] final  178.87 input  175.53 | X-H torsion
[ 8008 7997 7996 7995 ] final  172.93 input   59.86 | X-H torsion
[ 10167 10162 10161 10158 ] final  120.26 input  -65.29 | X-H torsion
[ 10718 10713 10712 10709 ] final -149.59 input   66.30 | X-H torsion
[ 10763 10752 10751 10750 ] final   20.85 input  -60.55 | X-H torsion
[ 11005 11000 10999 10996 ] final -147.32 input  -57.11 | X-H torsion

> <Gold.Protein.ActiveResidues>
 VAL166  LYS551  ARG553  GLY616  TRP617  ASP618  TYR619  PRO620  LYS621  CYS622 
 ASP623  PHE694  ASN695  SER759  ASP760  ASP761  ALA762  ILE779  LEU786  VAL792 
 PHE793  MET794  SER795  GLU796  ALA797  LYS798  CYS799  TRP800  GLU811  SER814 

> <Gold.Protein.RotatedAtoms>
  150.9394  134.8804  159.7602 H   0  0  0  0  0  0  0  0  0  0  0  0  # atno 6907 bound_to 6896
  152.5073  134.3964  159.9411 H   0  0  0  0  0  0  0  0  0  0  0  0  # atno 6908 bound_to 6896
  151.3986  133.3725  159.2764 H   0  0  0  0  0  0  0  0  0  0  0  0  # atno 6909 bound_to 6896
  144.7151  140.0463  143.6436 H   0  0  0  0  0  0  0  0  0  0  0  0  # atno 7974 bound_to 7965
  156.1126  140.1473  156.9317 H   0  0  0  0  0  0  0  0  0  0  0  0  # atno 8008 bound_to 7997
  154.4777  140.0889  156.7346 H   0  0  0  0  0  0  0  0  0  0  0  0  # atno 8009 bound_to 7997
  155.4570  140.3437  155.4310 H   0  0  0  0  0  0  0  0  0  0  0  0  # atno 8010 bound_to 7997
  139.5993  144.7052  151.3100 H   0  0  0  0  0  0  0  0  0  0  0  0  # atno 10167 bound_to 10162
  156.4352  130.8095  151.2323 H   0  0  0  0  0  0  0  0  0  0  0  0  # atno 10718 bound_to 10713
  153.1043  135.6680  153.9615 H   0  0  0  0  0  0  0  0  0  0  0  0  # atno 10763 bound_to 10752
  153.9176  135.3018  155.3449 H   0  0  0  0  0  0  0  0  0  0  0  0  # atno 10764 bound_to 10752
  154.7464  135.5055  153.9288 H   0  0  0  0  0  0  0  0  0  0  0  0  # atno 10765 bound_to 10752
  140.7729  134.3169  157.5069 H   0  0  0  0  0  0  0  0  0  0  0  0  # atno 11005 bound_to 11000
  145.9982  139.3069  143.0944 LP  0  0  0  0  0  0  0  0  0  0  0  0  # atno 17320 bound_to 7965
  145.8825  140.9354  143.0594 LP  0  0  0  0  0  0  0  0  0  0  0  0  # atno 17321 bound_to 7965
  140.7237  143.7064  150.7804 LP  0  0  0  0  0  0  0  0  0  0  0  0  # atno 17342 bound_to 10162
  140.0637  143.5129  152.2615 LP  0  0  0  0  0  0  0  0  0  0  0  0  # atno 17343 bound_to 10162
  157.7507  131.0186  150.3632 LP  0  0  0  0  0  0  0  0  0  0  0  0  # atno 17370 bound_to 10713
  156.3977  130.3910  149.6982 LP  0  0  0  0  0  0  0  0  0  0  0  0  # atno 17371 bound_to 10713
  139.8753  134.9271  156.3418 LP  0  0  0  0  0  0  0  0  0  0  0  0  # atno 17394 bound_to 11000
  140.9557  133.7421  156.0332 LP  0  0  0  0  0  0  0  0  0  0  0  0  # atno 17395 bound_to 11000

$$$$
