AV-unprocessed.smi:876|AV-procd|sdf|4021|dock2
  -GOLD-   22720 1503D 1   1.00000     0.00000
 Structure written by MMmdl.
 41 42  0  0  0  0  0  0  0  0  2 V2000
  152.1539  142.5130  158.5763 C   0  0  0  0  0  0  0  0  0  0  0  0
  151.5284  142.9094  157.3213 N   0  0  0  0  0  0  0  0  0  0  0  0
  151.5434  144.3061  156.9015 C   0  0  0  0  0  0  0  0  0  0  0  0
  150.9938  141.9247  156.4624 C   0  0  0  0  0  0  0  0  0  0  0  0
  151.5330  140.6196  156.3473 C   0  0  0  0  0  0  0  0  0  0  0  0
  150.9436  139.6883  155.4676 C   0  0  0  0  0  0  0  0  0  0  0  0
  149.8071  140.0643  154.7105 C   0  0  0  0  0  0  0  0  0  0  0  0
  149.1463  139.2121  153.7849 N   0  0  0  0  0  0  0  0  0  0  0  0
  147.8602  139.2362  153.3943 C   0  0  0  0  0  0  0  0  0  0  0  0
  147.0150  140.0451  153.7769 O   0  0  0  0  0  0  0  0  0  0  0  0
  147.6054  138.2670  152.5044 N   0  0  0  0  0  0  0  0  0  0  0  0
  146.3116  138.0345  151.8724 C   0  0  2  0  0  0  0  0  0  0  0  0
  145.2822  137.6549  152.9011 C   0  0  0  0  0  0  0  0  0  0  0  0
  144.7295  136.4680  152.6620 C   0  0  0  0  0  0  0  0  0  0  0  0
  145.2919  135.7957  151.4355 C   0  0  1  0  0  0  0  0  0  0  0  0
  144.2088  135.4354  150.4039 C   0  0  0  0  0  0  0  0  0  0  0  0
  143.4442  134.3341  150.8486 O   0  0  0  0  0  0  0  0  0  0  0  0
  146.3240  136.8229  150.9031 C   0  0  0  0  0  0  0  0  0  0  0  0
  149.3188  141.3786  154.8511 C   0  0  0  0  0  0  0  0  0  0  0  0
  149.9140  142.2383  155.7054 N   0  3  0  0  0  0  0  0  0  0  0  0
  145.9721  138.9375  151.3616 H   0  0  0  0  0  0  0  0  0  0  0  0
  145.8115  134.8908  151.7541 H   0  0  0  0  0  0  0  0  0  0  0  0
  152.9861  141.8326  158.3926 H   0  0  0  0  0  0  0  0  0  0  0  0
  151.4315  142.0147  159.2238 H   0  0  0  0  0  0  0  0  0  0  0  0
  152.5431  143.3768  159.1157 H   0  0  0  0  0  0  0  0  0  0  0  0
  150.5340  144.6509  156.6745 H   0  0  0  0  0  0  0  0  0  0  0  0
  152.1620  144.4317  156.0122 H   0  0  0  0  0  0  0  0  0  0  0  0
  151.9455  144.9511  157.6831 H   0  0  0  0  0  0  0  0  0  0  0  0
  152.3970  140.3147  156.9188 H   0  0  0  0  0  0  0  0  0  0  0  0
  151.3859  138.7078  155.3839 H   0  0  0  0  0  0  0  0  0  0  0  0
  149.7361  138.5373  153.3200 H   0  0  0  0  0  0  0  0  0  0  0  0
  148.3584  137.6491  152.2385 H   0  0  0  0  0  0  0  0  0  0  0  0
  145.0288  138.3017  153.7283 H   0  0  0  0  0  0  0  0  0  0  0  0
  143.9685  136.0044  153.2726 H   0  0  0  0  0  0  0  0  0  0  0  0
  143.5467  136.2829  150.2222 H   0  0  0  0  0  0  0  0  0  0  0  0
  144.6678  135.1734  149.4501 H   0  0  0  0  0  0  0  0  0  0  0  0
  142.6803  134.2568  150.2975 H   0  0  0  0  0  0  0  0  0  0  0  0
  146.0704  137.1531  149.8946 H   0  0  0  0  0  0  0  0  0  0  0  0
  147.3115  136.3633  150.8389 H   0  0  0  0  0  0  0  0  0  0  0  0
  148.4669  141.7685  154.3126 H   0  0  0  0  0  0  0  0  0  0  0  0
  149.5278  143.1791  155.7850 H   0  0  0  0  0  0  0  0  0  0  0  0
  1  2  1  0  0  0  0
  1 23  1  0  0  0  0
  1 24  1  0  0  0  0
  1 25  1  0  0  0  0
  2  3  1  0  0  0  0
  2  4  1  0  0  0  0
  3 26  1  0  0  0  0
  3 27  1  0  0  0  0
  3 28  1  0  0  0  0
  4 20  1  0  0  0  0
  4  5  2  0  0  0  0
  5  6  1  0  0  0  0
  5 29  1  0  0  0  0
  6  7  2  0  0  0  0
  6 30  1  0  0  0  0
  7  8  1  0  0  0  0
  7 19  1  0  0  0  0
  8  9  1  0  0  0  0
  8 31  1  0  0  0  0
  9 10  2  0  0  0  0
  9 11  1  0  0  0  0
 11 12  1  0  0  0  0
 11 32  1  0  0  0  0
 12 21  1  0  0  0  0
 12 18  1  0  0  0  0
 12 13  1  0  0  0  0
 13 14  2  0  0  0  0
 13 33  1  0  0  0  0
 14 15  1  0  0  0  0
 14 34  1  0  0  0  0
 15 22  1  0  0  0  0
 15 16  1  0  0  0  0
 15 18  1  0  0  0  0
 16 17  1  0  0  0  0
 16 35  1  0  0  0  0
 16 36  1  0  0  0  0
 17 37  1  0  0  0  0
 18 38  1  0  0  0  0
 18 39  1  0  0  0  0
 19 20  2  0  0  0  0
 19 40  1  0  0  0  0
 20 41  1  0  0  0  0
M  CHG  1  20   1
M  END
> <s_m_source_file>
AV-unprocessed.smi

> <i_m_source_file_index>
876

> <i_lp_mmshare_version>
43012

> <i_f3d_flags>
0

> <s_epik_input>
W0NIM11OKFtDSDNdKWMxW2NIXVtjSF1jKFtjSF1uMSlbTkhdQyg9TylbTkhdW0NAQEhdMltDSF09W0NIXVtDQEBIXShbQ0gyXTIpW0NIMl1bT0hd

> <s_epik_cmdline>
J2VwaWtfcHl0aG9uJywgJy1waCcsICc3LjAnLCAnLXRuJywgJzgnLCAnLW1hJywgJzIwMCcsICctbWV0YWxfYmluZGluZycsICctaW1hZScsICc8aW5maWxlLm1hZT4nLCAnLW9tYWUnLCAnPG91dGZpbGUubWFlPic=

> <r_lp_tautomer_probability>
0.999994

> <r_epik_Ionization_Penalty>
0.257994

> <r_epik_Ionization_Penalty_Charging>
0.257974

> <r_epik_Ionization_Penalty_Neutral>
1.95938e-05

> <r_epik_State_Penalty>
0.249586

> <r_epik_Charging_Adjusted_Penalty>
0.50756

> <i_epik_Tot_Q>
1

> <i_epik_Tot_abs_Q>
1

> <r_epik_Metal_State_Penalty>
0.538508

> <b_epik_Metal_Only>
0

> <s_lp_Force_Field>
OPLS_2005

> <r_lp_Energy>
26.2592

> <b_lp_Chiralities_Consistent>
1

> <s_lp_Variant>
AV-unprocessed.smi:876-3

> <Gold.Version>
5.8.1

> <Gold.Id.Protein>
6NUR|6NUR_protein|mol2

> <Gold.PLP.Fitness>
48.0683

> <Gold.PLP.PLP>
-37.4723

> <Gold.PLP.part.hbond>
-4.9645

> <Gold.PLP.part.metal>
0.0000

> <Gold.PLP.part.buried>
1.2762

> <Gold.PLP.part.nonpolar>
-35.3344

> <Gold.PLP.part.repulsive>
0.4240

> <Gold.PLP.ligand.clash>
0.0000

> <Gold.PLP.ligand.torsion>
0.7134

> <Gold.PLP.Chemscore.Hbond>
4.0000

> <Gold.PLP.Chemscore.CHOScore>
0.0000

> <Gold.PLP.Chemscore.Metal>
0.0000

> <Gold.Chemscore.Hbonds>
donor molecule, donor type, donor heavy atom, donor atom, acceptor molecule, acceptor atom, score
      L1  H    11    32       P1  7948  1.00
      L1  H    17    37       P1 10186  1.00
      L1  H    20    41       P1  8028  2.00

> <Gold.PLP.Chemscore.Internal.Correction>
0.0228

> <Gold.Rescore>
     Score         DG    S(hbond)    S(metal)    S(lipo)     H(rot)  DE(clash)    DE(int)     intcor
     17.35     -20.57       2.92        0.00      85.50       1.82       1.28       1.93       ----

> <Gold.Chemscore.Fitness>
17.3544

> <Gold.Chemscore.DG>
-20.5712

> <Gold.Chemscore.ZeroCoef>
-5.4800

> <Gold.Chemscore.Hbond>
2.9180

> <Gold.Chemscore.Metal>
0.0000

> <Gold.Chemscore.Lipo>
85.5003

> <Gold.Chemscore.Internal_Hbond>
0.0000

> <Gold.Chemscore.DEClash>
1.2820

> <Gold.Chemscore.DEInternal>
1.9348

> <Gold.Chemscore.Rot>
1.8197

> <Gold.Chemscore.Internal.Correction>
   9.000000E+99

> <Gold.Chemscore.Hbonds>
donor molecule, donor type, donor heavy atom, donor atom, acceptor molecule, acceptor atom, score
      L1  H    11    32       P1  7948  0.94
      L1  H    17    37       P1 10186  0.82
      L1  H    20    41       P1  8028  1.00

> <Gold.Chemscore.Hbond.Weighted>
-9.7462

> <Gold.Chemscore.Metal.Weighted>
-0.0000

> <Gold.Chemscore.Lipo.Weighted>
-10.0035

> <Gold.Chemscore.Internal_Hbond.Weighted>
0.0000

> <Gold.Chemscore.DEClash.Weighted>
1.2820

> <Gold.Chemscore.DEInternal.Weighted>
1.9348

> <Gold.Chemscore.Rot.Weighted>
4.6585

> <Gold.Chemscore.Internal.Correction.Weighted>
   9.000000E+99

> <Gold.Protein.RotatedTorsions>
[ 6907 6896 6895 6894 ] final -151.60 input  -60.11 | X-H torsion
[ 7974 7965 7964 7962 ] final  -42.41 input  175.53 | X-H torsion
[ 8008 7997 7996 7995 ] final -140.65 input   59.86 | X-H torsion
[ 10167 10162 10161 10158 ] final -154.17 input  -65.29 | X-H torsion
[ 10718 10713 10712 10709 ] final  122.12 input   66.30 | X-H torsion
[ 10763 10752 10751 10750 ] final   36.30 input  -60.55 | X-H torsion
[ 11005 11000 10999 10996 ] final  -34.74 input  -57.11 | X-H torsion

> <Gold.Protein.ActiveResidues>
 VAL166  LYS551  ARG553  GLY616  TRP617  ASP618  TYR619  PRO620  LYS621  CYS622 
 ASP623  PHE694  ASN695  SER759  ASP760  ASP761  ALA762  ILE779  LEU786  VAL792 
 PHE793  MET794  SER795  GLU796  ALA797  LYS798  CYS799  TRP800  GLU811  SER814 

> <Gold.Protein.RotatedAtoms>
  151.2155  133.4532  159.2599 H   0  0  0  0  0  0  0  0  0  0  0  0  # atno 6907 bound_to 6896
  151.0935  134.9930  159.8424 H   0  0  0  0  0  0  0  0  0  0  0  0  # atno 6908 bound_to 6896
  152.5437  134.2087  159.8794 H   0  0  0  0  0  0  0  0  0  0  0  0  # atno 6909 bound_to 6896
  146.0118  140.6954  142.9220 H   0  0  0  0  0  0  0  0  0  0  0  0  # atno 7974 bound_to 7965
  155.4648  140.0548  157.2986 H   0  0  0  0  0  0  0  0  0  0  0  0  # atno 8008 bound_to 7997
  154.4722  140.2045  155.9920 H   0  0  0  0  0  0  0  0  0  0  0  0  # atno 8009 bound_to 7997
  156.1075  140.3209  155.8031 H   0  0  0  0  0  0  0  0  0  0  0  0  # atno 8010 bound_to 7997
  139.7036  143.9223  152.2439 H   0  0  0  0  0  0  0  0  0  0  0  0  # atno 10167 bound_to 10162
  157.5766  131.1079  150.8267 H   0  0  0  0  0  0  0  0  0  0  0  0  # atno 10718 bound_to 10713
  153.0082  135.6309  154.1964 H   0  0  0  0  0  0  0  0  0  0  0  0  # atno 10763 bound_to 10752
  154.1707  135.2818  155.3083 H   0  0  0  0  0  0  0  0  0  0  0  0  # atno 10764 bound_to 10752
  154.5911  135.5617  153.7339 H   0  0  0  0  0  0  0  0  0  0  0  0  # atno 10765 bound_to 10752
  140.9740  133.7093  156.1572 H   0  0  0  0  0  0  0  0  0  0  0  0  # atno 11005 bound_to 11000
  144.6956  140.3412  143.7199 LP  0  0  0  0  0  0  0  0  0  0  0  0  # atno 17320 bound_to 7965
  145.7330  139.1741  143.2420 LP  0  0  0  0  0  0  0  0  0  0  0  0  # atno 17321 bound_to 7965
  139.9072  144.6877  150.8601 LP  0  0  0  0  0  0  0  0  0  0  0  0  # atno 17342 bound_to 10162
  140.7716  143.3470  151.2092 LP  0  0  0  0  0  0  0  0  0  0  0  0  # atno 17343 bound_to 10162
  156.8724  130.5151  149.5296 LP  0  0  0  0  0  0  0  0  0  0  0  0  # atno 17370 bound_to 10713
  156.0811  130.5821  150.9564 LP  0  0  0  0  0  0  0  0  0  0  0  0  # atno 17371 bound_to 10713
  140.7286  134.4280  157.5568 LP  0  0  0  0  0  0  0  0  0  0  0  0  # atno 17394 bound_to 11000
  139.8923  134.8757  156.2276 LP  0  0  0  0  0  0  0  0  0  0  0  0  # atno 17395 bound_to 11000

$$$$
