AV-unprocessed.smi:2295|AV-procd|sdf|9219|dock1
  -GOLD-   2272012433D 1   1.00000     0.00000
 Structure written by MMmdl.
 37 38  0  0  0  0  0  0  0  0  1 V2000
  150.6765  140.2602  155.5382 C   0  0  0  0  0  0  0  0  0  0  0  0
  149.3597  140.3067  154.7919 C   0  0  0  0  0  0  0  0  0  0  0  0
  148.5452  141.4545  154.8319 C   0  0  0  0  0  0  0  0  0  0  0  0
  147.3327  141.4345  154.1147 C   0  0  0  0  0  0  0  0  0  0  0  0
  146.4078  142.6335  154.1142 C   0  0  0  0  0  0  0  0  0  0  0  0
  146.9193  140.3689  153.3958 N   0  0  0  0  0  0  0  0  0  0  0  0
  147.6959  139.2579  153.3497 C   0  0  0  0  0  0  0  0  0  0  0  0
  147.3548  138.0868  152.6221 N   0  0  0  0  0  0  0  0  0  0  0  0
  146.1307  137.5913  152.3690 C   0  0  0  0  0  0  0  0  0  0  0  0
  145.0694  138.0811  152.7561 O   0  0  0  0  0  0  0  0  0  0  0  0
  146.2054  136.4746  151.6301 N   0  0  0  0  0  0  0  0  0  0  0  0
  145.0679  135.6873  151.1637 C   0  0  0  0  0  0  0  0  0  0  0  0
  145.1474  134.2231  151.6327 C   0  0  1  0  0  0  0  0  0  0  0  0
  143.9053  133.3820  151.3013 C   0  0  0  0  0  0  0  0  0  0  0  0
  144.3416  131.9169  151.3320 C   0  0  0  0  0  0  0  0  0  0  0  0
  145.6576  131.8439  150.5569 C   0  0  0  0  0  0  0  0  0  0  0  0
  146.5730  133.3672  150.9052 S   0  0  0  0  0  0  0  0  0  0  0  0
  148.9266  139.1951  154.0413 C   0  0  0  0  0  0  0  0  0  0  0  0
  150.8939  141.2141  156.0194 H   0  0  0  0  0  0  0  0  0  0  0  0
  151.4920  140.0315  154.8518 H   0  0  0  0  0  0  0  0  0  0  0  0
  150.6474  139.4883  156.3075 H   0  0  0  0  0  0  0  0  0  0  0  0
  148.8414  142.3264  155.3971 H   0  0  0  0  0  0  0  0  0  0  0  0
  146.8543  143.4781  154.6396 H   0  0  0  0  0  0  0  0  0  0  0  0
  145.4667  142.3850  154.6053 H   0  0  0  0  0  0  0  0  0  0  0  0
  146.1910  142.9461  153.0924 H   0  0  0  0  0  0  0  0  0  0  0  0
  148.1341  137.5730  152.2386 H   0  0  0  0  0  0  0  0  0  0  0  0
  147.1209  136.1466  151.3603 H   0  0  0  0  0  0  0  0  0  0  0  0
  144.1233  136.1385  151.4725 H   0  0  0  0  0  0  0  0  0  0  0  0
  145.0762  135.7201  150.0739 H   0  0  0  0  0  0  0  0  0  0  0  0
  145.2993  134.1999  152.7126 H   0  0  0  0  0  0  0  0  0  0  0  0
  143.0878  133.5739  151.9969 H   0  0  0  0  0  0  0  0  0  0  0  0
  143.5439  133.6273  150.3016 H   0  0  0  0  0  0  0  0  0  0  0  0
  144.5055  131.6071  152.3648 H   0  0  0  0  0  0  0  0  0  0  0  0
  143.5849  131.2557  150.9093 H   0  0  0  0  0  0  0  0  0  0  0  0
  146.2436  130.9629  150.8203 H   0  0  0  0  0  0  0  0  0  0  0  0
  145.4592  131.8042  149.4855 H   0  0  0  0  0  0  0  0  0  0  0  0
  149.5364  138.3043  153.9969 H   0  0  0  0  0  0  0  0  0  0  0  0
  1  2  1  0  0  0  0
  1 19  1  0  0  0  0
  1 20  1  0  0  0  0
  1 21  1  0  0  0  0
  2 18  1  0  0  0  0
  2  3  2  0  0  0  0
  3  4  1  0  0  0  0
  3 22  1  0  0  0  0
  4  5  1  0  0  0  0
  4  6  2  0  0  0  0
  5 23  1  0  0  0  0
  5 24  1  0  0  0  0
  5 25  1  0  0  0  0
  6  7  1  0  0  0  0
  7  8  1  0  0  0  0
  7 18  2  0  0  0  0
  8  9  1  0  0  0  0
  8 26  1  0  0  0  0
  9 10  2  0  0  0  0
  9 11  1  0  0  0  0
 11 12  1  0  0  0  0
 11 27  1  0  0  0  0
 12 13  1  0  0  0  0
 12 28  1  0  0  0  0
 12 29  1  0  0  0  0
 13 17  1  0  0  0  0
 13 14  1  0  0  0  0
 13 30  1  0  0  0  0
 14 15  1  0  0  0  0
 14 31  1  0  0  0  0
 14 32  1  0  0  0  0
 15 16  1  0  0  0  0
 15 33  1  0  0  0  0
 15 34  1  0  0  0  0
 16 17  1  0  0  0  0
 16 35  1  0  0  0  0
 16 36  1  0  0  0  0
 18 37  1  0  0  0  0
M  END
> <s_m_source_file>
AV-unprocessed.smi

> <i_m_source_file_index>
2295

> <i_lp_mmshare_version>
43012

> <i_f3d_flags>
0

> <s_epik_input>
W0NIM11jMVtjSF1jKFtDSDNdKW5jKFtjSF0xKVtOSF1DKD1PKVtOSF1bQ0gyXVtDQEBIXTJbQ0gyXVtDSDJdW0NIMl1TMg==

> <s_epik_cmdline>
J2VwaWtfcHl0aG9uJywgJy1waCcsICc3LjAnLCAnLXRuJywgJzgnLCAnLW1hJywgJzIwMCcsICctbWV0YWxfYmluZGluZycsICctaW1hZScsICc8aW5maWxlLm1hZT4nLCAnLW9tYWUnLCAnPG91dGZpbGUubWFlPic=

> <r_lp_tautomer_probability>
1

> <r_epik_Ionization_Penalty>
0.000247769

> <r_epik_Ionization_Penalty_Charging>
0

> <r_epik_Ionization_Penalty_Neutral>
0.000247769

> <r_epik_State_Penalty>
-0

> <r_epik_Charging_Adjusted_Penalty>
0

> <i_epik_Tot_Q>
0

> <i_epik_Tot_abs_Q>
0

> <r_epik_Metal_State_Penalty>
-0

> <b_epik_Metal_Only>
0

> <s_lp_Force_Field>
OPLS_2005

> <r_lp_Energy>
14.3156

> <b_lp_Chiralities_Consistent>
1

> <s_lp_Variant>
AV-unprocessed.smi:2295-2

> <Gold.Version>
5.8.1

> <Gold.Id.Protein>
6NUR|6NUR_protein|mol2

> <Gold.PLP.Fitness>
41.4247

> <Gold.PLP.PLP>
-36.2784

> <Gold.PLP.part.hbond>
-2.2428

> <Gold.PLP.part.metal>
0.0000

> <Gold.PLP.part.buried>
-3.5953

> <Gold.PLP.part.nonpolar>
-33.9142

> <Gold.PLP.part.repulsive>
2.8755

> <Gold.PLP.ligand.clash>
0.0000

> <Gold.PLP.ligand.torsion>
0.2247

> <Gold.PLP.Chemscore.Hbond>
1.8640

> <Gold.PLP.Chemscore.CHOScore>
0.0000

> <Gold.PLP.Chemscore.Metal>
0.0000

> <Gold.Chemscore.Hbonds>
donor molecule, donor type, donor heavy atom, donor atom, acceptor molecule, acceptor atom, score
      L1  H     8    26       P1  7948  1.00
      L1  H    11    27       P1  7948  0.88

> <Gold.PLP.Chemscore.Internal.Correction>
0.0038

> <Gold.Rescore>
     Score         DG    S(hbond)    S(metal)    S(lipo)     H(rot)  DE(clash)    DE(int)     intcor
     15.38     -17.88       1.89        0.00      77.75       1.17       1.25       1.25       ----

> <Gold.Chemscore.Fitness>
15.3783

> <Gold.Chemscore.DG>
-17.8797

> <Gold.Chemscore.ZeroCoef>
-5.4800

> <Gold.Chemscore.Hbond>
1.8865

> <Gold.Chemscore.Metal>
0.0000

> <Gold.Chemscore.Lipo>
77.7453

> <Gold.Chemscore.Internal_Hbond>
0.0000

> <Gold.Chemscore.DEClash>
1.2516

> <Gold.Chemscore.DEInternal>
1.2498

> <Gold.Chemscore.Rot>
1.1709

> <Gold.Chemscore.Internal.Correction>
   9.000000E+99

> <Gold.Chemscore.Hbonds>
donor molecule, donor type, donor heavy atom, donor atom, acceptor molecule, acceptor atom, score
      L1  H     8    26       P1  7948  0.97
      L1  H    11    27       P1  7948  0.86

> <Gold.Chemscore.Hbond.Weighted>
-6.3010

> <Gold.Chemscore.Metal.Weighted>
-0.0000

> <Gold.Chemscore.Lipo.Weighted>
-9.0962

> <Gold.Chemscore.Internal_Hbond.Weighted>
0.0000

> <Gold.Chemscore.DEClash.Weighted>
1.2516

> <Gold.Chemscore.DEInternal.Weighted>
1.2498

> <Gold.Chemscore.Rot.Weighted>
2.9975

> <Gold.Chemscore.Internal.Correction.Weighted>
   9.000000E+99

> <Gold.Protein.RotatedTorsions>
[ 6907 6896 6895 6894 ] final  -20.35 input  -60.11 | X-H torsion
[ 7974 7965 7964 7962 ] final   48.10 input  175.53 | X-H torsion
[ 8008 7997 7996 7995 ] final  128.53 input   59.86 | X-H torsion
[ 10167 10162 10161 10158 ] final -107.93 input  -65.29 | X-H torsion
[ 10718 10713 10712 10709 ] final -137.46 input   66.30 | X-H torsion
[ 10763 10752 10751 10750 ] final  179.66 input  -60.55 | X-H torsion
[ 11005 11000 10999 10996 ] final  142.77 input  -57.11 | X-H torsion

> <Gold.Protein.ActiveResidues>
 VAL166  LYS551  ARG553  GLY616  TRP617  ASP618  TYR619  PRO620  LYS621  CYS622 
 ASP623  PHE694  ASN695  SER759  ASP760  ASP761  ALA762  ILE779  LEU786  VAL792 
 PHE793  MET794  SER795  GLU796  ALA797  LYS798  CYS799  TRP800  GLU811  SER814 

> <Gold.Protein.RotatedAtoms>
  151.2495  135.0617  159.9056 H   0  0  0  0  0  0  0  0  0  0  0  0  # atno 6907 bound_to 6896
  152.5382  134.0347  159.8051 H   0  0  0  0  0  0  0  0  0  0  0  0  # atno 6908 bound_to 6896
  151.0553  133.5540  159.2670 H   0  0  0  0  0  0  0  0  0  0  0  0  # atno 6909 bound_to 6896
  146.0236  139.4680  142.9882 H   0  0  0  0  0  0  0  0  0  0  0  0  # atno 7974 bound_to 7965
  156.2917  140.2642  156.2450 H   0  0  0  0  0  0  0  0  0  0  0  0  # atno 8008 bound_to 7997
  154.9939  140.0388  157.2350 H   0  0  0  0  0  0  0  0  0  0  0  0  # atno 8009 bound_to 7997
  154.7661  140.2769  155.6179 H   0  0  0  0  0  0  0  0  0  0  0  0  # atno 8010 bound_to 7997
  140.1717  143.4038  152.1349 H   0  0  0  0  0  0  0  0  0  0  0  0  # atno 10167 bound_to 10162
  156.2884  130.7361  151.1379 H   0  0  0  0  0  0  0  0  0  0  0  0  # atno 10718 bound_to 10713
  154.5235  135.2795  155.1242 H   0  0  0  0  0  0  0  0  0  0  0  0  # atno 10763 bound_to 10752
  154.2790  135.6289  153.5343 H   0  0  0  0  0  0  0  0  0  0  0  0  # atno 10764 bound_to 10752
  152.9942  135.5646  154.5730 H   0  0  0  0  0  0  0  0  0  0  0  0  # atno 10765 bound_to 10752
  140.0502  134.9259  157.1003 H   0  0  0  0  0  0  0  0  0  0  0  0  # atno 11005 bound_to 11000
  145.7154  141.0092  143.1431 LP  0  0  0  0  0  0  0  0  0  0  0  0  # atno 17320 bound_to 7965
  144.7000  139.8807  143.7447 LP  0  0  0  0  0  0  0  0  0  0  0  0  # atno 17321 bound_to 7965
  139.5335  144.7185  151.4973 LP  0  0  0  0  0  0  0  0  0  0  0  0  # atno 17342 bound_to 10162
  140.6578  143.8563  150.6854 LP  0  0  0  0  0  0  0  0  0  0  0  0  # atno 17343 bound_to 10162
  157.7335  131.0590  150.5572 LP  0  0  0  0  0  0  0  0  0  0  0  0  # atno 17370 bound_to 10713
  156.5686  130.4274  149.6030 LP  0  0  0  0  0  0  0  0  0  0  0  0  # atno 17371 bound_to 10713
  140.3929  134.2165  155.7165 LP  0  0  0  0  0  0  0  0  0  0  0  0  # atno 17394 bound_to 11000
  141.1927  133.8168  157.0830 LP  0  0  0  0  0  0  0  0  0  0  0  0  # atno 17395 bound_to 11000

$$$$
