AV-unprocessed.smi:2445|AV-procd|sdf|9637|dock6
  -GOLD-   2272013273D 1   1.00000     0.00000
 Structure written by MMmdl.
 40 41  0  0  0  0  0  0  0  0  1 V2000
  147.8370  135.8002  161.6753 C   0  0  0  0  0  0  0  0  0  0  0  0
  147.8237  136.5167  160.3680 C   0  0  0  0  0  0  0  0  0  0  0  0
  146.7312  136.8917  159.6262 C   0  0  0  0  0  0  0  0  0  0  0  0
  147.0546  137.5500  158.4376 N   0  0  0  0  0  0  0  0  0  0  0  0
  148.3725  137.6800  158.2653 C   0  0  0  0  0  0  0  0  0  0  0  0
  148.9863  138.3446  157.0719 C   0  0  2  0  0  0  0  0  0  0  0  0
  148.7736  137.5108  155.7966 C   0  0  0  0  0  0  0  0  0  0  0  0
  150.4637  138.7108  157.3326 C   0  0  0  0  0  0  0  0  0  0  0  0
  150.6189  139.7866  158.3069 N   0  0  0  0  0  0  0  0  0  0  0  0
  151.7733  140.4029  158.5950 C   0  0  0  0  0  0  0  0  0  0  0  0
  152.8520  140.1291  158.0688 O   0  0  0  0  0  0  0  0  0  0  0  0
  151.6081  141.3576  159.5212 N   0  0  0  0  0  0  0  0  0  0  0  0
  152.6698  142.2115  160.0553 C   0  0  2  0  0  0  0  0  0  0  0  0
  152.7639  142.0628  161.5737 C   0  0  0  0  0  0  0  0  0  0  0  0
  152.7516  143.4971  162.0924 C   0  0  0  0  0  0  0  0  0  0  0  0
  151.9892  144.1890  161.1200 O   0  0  0  0  0  0  0  0  0  0  0  0
  152.4158  143.7233  159.8483 C   0  0  2  0  0  0  0  0  0  0  0  0
  151.4035  144.1373  158.7678 C   0  0  0  0  0  0  0  0  0  0  0  0
  149.3103  136.9880  159.5873 S   0  0  0  0  0  0  0  0  0  0  0  0
  146.8285  135.5177  161.9786 H   0  0  0  0  0  0  0  0  0  0  0  0
  148.2598  136.4308  162.4575 H   0  0  0  0  0  0  0  0  0  0  0  0
  148.4361  134.8916  161.6121 H   0  0  0  0  0  0  0  0  0  0  0  0
  145.6909  136.7293  159.8670 H   0  0  0  0  0  0  0  0  0  0  0  0
  148.4428  139.2795  156.9256 H   0  0  0  0  0  0  0  0  0  0  0  0
  147.7146  137.3035  155.6392 H   0  0  0  0  0  0  0  0  0  0  0  0
  149.2943  136.5547  155.8551 H   0  0  0  0  0  0  0  0  0  0  0  0
  149.1358  138.0325  154.9106 H   0  0  0  0  0  0  0  0  0  0  0  0
  151.0158  137.8324  157.6719 H   0  0  0  0  0  0  0  0  0  0  0  0
  150.9390  139.0314  156.4052 H   0  0  0  0  0  0  0  0  0  0  0  0
  149.7854  140.0857  158.7917 H   0  0  0  0  0  0  0  0  0  0  0  0
  150.6792  141.5104  159.8855 H   0  0  0  0  0  0  0  0  0  0  0  0
  153.6274  141.9430  159.6050 H   0  0  0  0  0  0  0  0  0  0  0  0
  151.8976  141.5306  161.9696 H   0  0  0  0  0  0  0  0  0  0  0  0
  153.6555  141.5205  161.8891 H   0  0  0  0  0  0  0  0  0  0  0  0
  152.3130  143.5829  163.0867 H   0  0  0  0  0  0  0  0  0  0  0  0
  153.7618  143.9085  162.1252 H   0  0  0  0  0  0  0  0  0  0  0  0
  153.3704  144.2058  159.6308 H   0  0  0  0  0  0  0  0  0  0  0  0
  151.7122  143.7830  157.7840 H   0  0  0  0  0  0  0  0  0  0  0  0
  151.3198  145.2227  158.7151 H   0  0  0  0  0  0  0  0  0  0  0  0
  150.4085  143.7426  158.9744 H   0  0  0  0  0  0  0  0  0  0  0  0
  1  2  1  0  0  0  0
  1 20  1  0  0  0  0
  1 21  1  0  0  0  0
  1 22  1  0  0  0  0
  2 19  1  0  0  0  0
  2  3  2  0  0  0  0
  3  4  1  0  0  0  0
  3 23  1  0  0  0  0
  4  5  2  0  0  0  0
  5  6  1  0  0  0  0
  5 19  1  0  0  0  0
  6  7  1  0  0  0  0
  6  8  1  0  0  0  0
  6 24  1  0  0  0  0
  7 25  1  0  0  0  0
  7 26  1  0  0  0  0
  7 27  1  0  0  0  0
  8  9  1  0  0  0  0
  8 28  1  0  0  0  0
  8 29  1  0  0  0  0
  9 10  1  0  0  0  0
  9 30  1  0  0  0  0
 10 11  2  0  0  0  0
 10 12  1  0  0  0  0
 12 13  1  0  0  0  0
 12 31  1  0  0  0  0
 13 17  1  0  0  0  0
 13 14  1  0  0  0  0
 13 32  1  0  0  0  0
 14 15  1  0  0  0  0
 14 33  1  0  0  0  0
 14 34  1  0  0  0  0
 15 16  1  0  0  0  0
 15 35  1  0  0  0  0
 15 36  1  0  0  0  0
 16 17  1  0  0  0  0
 17 18  1  0  0  0  0
 17 37  1  0  0  0  0
 18 38  1  0  0  0  0
 18 39  1  0  0  0  0
 18 40  1  0  0  0  0
M  END
> <s_m_source_file>
AV-unprocessed.smi

> <i_m_source_file_index>
2445

> <i_lp_mmshare_version>
43012

> <i_f3d_flags>
0

> <s_epik_input>
W0NIM11jMVtjSF1uYyhzMSlbQ0BIXShbQ0gzXSlbQ0gyXVtOSF1DKD1PKVtOSF1bQ0BASF0yW0NIMl1bQ0gyXU9bQ0BIXTJbQ0gzXQ==

> <s_epik_cmdline>
J2VwaWtfcHl0aG9uJywgJy1waCcsICc3LjAnLCAnLXRuJywgJzgnLCAnLW1hJywgJzIwMCcsICctbWV0YWxfYmluZGluZycsICctaW1hZScsICc8aW5maWxlLm1hZT4nLCAnLW9tYWUnLCAnPG91dGZpbGUubWFlPic=

> <r_epik_Ionization_Penalty>
0.000649483

> <r_epik_Ionization_Penalty_Charging>
0

> <r_epik_Ionization_Penalty_Neutral>
0.000649483

> <r_epik_State_Penalty>
0.000379895

> <r_epik_Charging_Adjusted_Penalty>
0.000379895

> <i_epik_Tot_Q>
0

> <i_epik_Tot_abs_Q>
0

> <r_epik_Metal_State_Penalty>
-0

> <b_epik_Metal_Only>
0

> <s_lp_Force_Field>
OPLS_2005

> <r_lp_Energy>
6.28074

> <b_lp_Chiralities_Consistent>
1

> <s_lp_Variant>
AV-unprocessed.smi:2445-5

> <Gold.Version>
5.8.1

> <Gold.Id.Protein>
6NUR|6NUR_protein|mol2

> <Gold.PLP.Fitness>
33.6836

> <Gold.PLP.PLP>
-31.4162

> <Gold.PLP.part.hbond>
-1.0000

> <Gold.PLP.part.metal>
0.0000

> <Gold.PLP.part.buried>
-4.9590

> <Gold.PLP.part.nonpolar>
-25.8924

> <Gold.PLP.part.repulsive>
0.4609

> <Gold.PLP.ligand.clash>
0.0000

> <Gold.PLP.ligand.torsion>
0.4098

> <Gold.PLP.Chemscore.Hbond>
1.0000

> <Gold.PLP.Chemscore.CHOScore>
0.0000

> <Gold.PLP.Chemscore.Metal>
0.0000

> <Gold.Chemscore.Hbonds>
donor molecule, donor type, donor heavy atom, donor atom, acceptor molecule, acceptor atom, score
      P1  H  7997  8010       L1    11  1.00

> <Gold.PLP.Chemscore.Internal.Correction>
0.0869

> <Gold.Rescore>
     Score         DG    S(hbond)    S(metal)    S(lipo)     H(rot)  DE(clash)    DE(int)     intcor
     13.91     -14.82       0.92        0.00      87.21       1.53       0.32       0.59       ----

> <Gold.Chemscore.Fitness>
13.9089

> <Gold.Chemscore.DG>
-14.8228

> <Gold.Chemscore.ZeroCoef>
-5.4800

> <Gold.Chemscore.Hbond>
0.9169

> <Gold.Chemscore.Metal>
0.0000

> <Gold.Chemscore.Lipo>
87.2114

> <Gold.Chemscore.Internal_Hbond>
0.0000

> <Gold.Chemscore.DEClash>
0.3197

> <Gold.Chemscore.DEInternal>
0.5941

> <Gold.Chemscore.Rot>
1.5325

> <Gold.Chemscore.Internal.Correction>
   9.000000E+99

> <Gold.Chemscore.Hbonds>
donor molecule, donor type, donor heavy atom, donor atom, acceptor molecule, acceptor atom, score
      P1  H  7997  8010       L1    11  0.91

> <Gold.Chemscore.Hbond.Weighted>
-3.0624

> <Gold.Chemscore.Metal.Weighted>
-0.0000

> <Gold.Chemscore.Lipo.Weighted>
-10.2037

> <Gold.Chemscore.Internal_Hbond.Weighted>
0.0000

> <Gold.Chemscore.DEClash.Weighted>
0.3197

> <Gold.Chemscore.DEInternal.Weighted>
0.5941

> <Gold.Chemscore.Rot.Weighted>
3.9233

> <Gold.Chemscore.Internal.Correction.Weighted>
   9.000000E+99

> <Gold.Protein.RotatedTorsions>
[ 6907 6896 6895 6894 ] final -100.69 input  -60.11 | X-H torsion
[ 7974 7965 7964 7962 ] final  -64.32 input  175.53 | X-H torsion
[ 8008 7997 7996 7995 ] final   43.04 input   59.86 | X-H torsion
[ 10167 10162 10161 10158 ] final  -98.27 input  -65.29 | X-H torsion
[ 10718 10713 10712 10709 ] final -145.16 input   66.30 | X-H torsion
[ 10763 10752 10751 10750 ] final   -9.47 input  -60.55 | X-H torsion
[ 11005 11000 10999 10996 ] final  171.21 input  -57.11 | X-H torsion

> <Gold.Protein.ActiveResidues>
 VAL166  LYS551  ARG553  GLY616  TRP617  ASP618  TYR619  PRO620  LYS621  CYS622 
 ASP623  PHE694  ASN695  SER759  ASP760  ASP761  ALA762  ILE779  LEU786  VAL792 
 PHE793  MET794  SER795  GLU796  ALA797  LYS798  CYS799  TRP800  GLU811  SER814 

> <Gold.Protein.RotatedAtoms>
  150.7125  134.0848  159.3910 H   0  0  0  0  0  0  0  0  0  0  0  0  # atno 6907 bound_to 6896
  151.8833  135.0443  160.0500 H   0  0  0  0  0  0  0  0  0  0  0  0  # atno 6908 bound_to 6896
  152.2550  133.5212  159.5385 H   0  0  0  0  0  0  0  0  0  0  0  0  # atno 6909 bound_to 6896
  145.7682  140.8826  143.0394 H   0  0  0  0  0  0  0  0  0  0  0  0  # atno 7974 bound_to 7965
  155.2962  140.3382  155.4250 H   0  0  0  0  0  0  0  0  0  0  0  0  # atno 8008 bound_to 7997
  156.2023  140.1737  156.7913 H   0  0  0  0  0  0  0  0  0  0  0  0  # atno 8009 bound_to 7997
  154.5575  140.0693  156.8750 H   0  0  0  0  0  0  0  0  0  0  0  0  # atno 8010 bound_to 7997
  140.2747  143.3321  152.0500 H   0  0  0  0  0  0  0  0  0  0  0  0  # atno 10167 bound_to 10162
  156.3790  130.7827  151.2017 H   0  0  0  0  0  0  0  0  0  0  0  0  # atno 10718 bound_to 10713
  153.4552  135.7015  153.6084 H   0  0  0  0  0  0  0  0  0  0  0  0  # atno 10763 bound_to 10752
  153.4402  135.3782  155.2224 H   0  0  0  0  0  0  0  0  0  0  0  0  # atno 10764 bound_to 10752
  154.8728  135.3972  154.3970 H   0  0  0  0  0  0  0  0  0  0  0  0  # atno 10765 bound_to 10752
  140.3165  134.7473  157.4031 H   0  0  0  0  0  0  0  0  0  0  0  0  # atno 11005 bound_to 11000
  144.6817  139.9818  143.7483 LP  0  0  0  0  0  0  0  0  0  0  0  0  # atno 17320 bound_to 7965
  146.0196  139.3240  143.0820 LP  0  0  0  0  0  0  0  0  0  0  0  0  # atno 17321 bound_to 7965
  139.4979  144.6632  151.6416 LP  0  0  0  0  0  0  0  0  0  0  0  0  # atno 17342 bound_to 10162
  140.5861  143.9862  150.6296 LP  0  0  0  0  0  0  0  0  0  0  0  0  # atno 17343 bound_to 10162
  157.7491  131.0349  150.4341 LP  0  0  0  0  0  0  0  0  0  0  0  0  # atno 17370 bound_to 10713
  156.4582  130.4026  149.6593 LP  0  0  0  0  0  0  0  0  0  0  0  0  # atno 17371 bound_to 10713
  140.0979  134.5513  155.8381 LP  0  0  0  0  0  0  0  0  0  0  0  0  # atno 17394 bound_to 11000
  141.2096  133.6686  156.6453 LP  0  0  0  0  0  0  0  0  0  0  0  0  # atno 17395 bound_to 11000

$$$$
