AV-unprocessed.smi:1605|AV-procd|sdf|6454|dock3
  -GOLD-   22720 7103D 1   1.00000     0.00000
 Structure written by MMmdl.
 51 53  0  0  0  0  0  0  0  0  2 V2000
  143.2471  136.3229  152.5277 C   0  0  0  0  0  0  0  0  0  0  0  0
  144.3929  136.6495  153.2990 O   0  0  0  0  0  0  0  0  0  0  0  0
  145.6186  136.1639  152.7635 C   0  0  2  0  0  0  0  0  0  0  0  0
  146.6600  136.1568  153.8926 C   0  0  0  0  0  0  0  0  0  0  0  0
  147.0277  137.5834  154.3362 C   0  0  0  0  0  0  0  0  0  0  0  0
  147.5059  138.3948  153.1878 N   0  3  2  0  0  0  0  0  0  0  0  0
  148.0294  139.7201  153.6076 C   0  0  0  0  0  0  0  0  0  0  0  0
  149.3265  139.6447  154.4501 C   0  0  1  0  0  0  0  0  0  0  0  0
  150.3649  139.2361  153.5853 O   0  0  0  0  0  0  0  0  0  0  0  0
  149.7644  140.9764  155.0996 C   0  0  0  0  0  0  0  0  0  0  0  0
  150.7640  140.7973  156.1369 N   0  0  0  0  0  0  0  0  0  0  0  0
  151.6478  139.7864  156.2422 C   0  0  0  0  0  0  0  0  0  0  0  0
  152.4588  139.7955  157.2955 N   0  0  0  0  0  0  0  0  0  0  0  0
  152.0672  140.9551  157.9411 C   0  0  0  0  0  0  0  0  0  0  0  0
  152.5290  141.5371  159.1415 C   0  0  0  0  0  0  0  0  0  0  0  0
  151.9628  142.7359  159.6299 C   0  0  0  0  0  0  0  0  0  0  0  0
  152.4852  143.3232  160.9291 C   0  0  0  0  0  0  0  0  0  0  0  0
  150.9206  143.3743  158.9107 C   0  0  0  0  0  0  0  0  0  0  0  0
  150.2935  144.6605  159.4187 C   0  0  0  0  0  0  0  0  0  0  0  0
  150.4496  142.8081  157.7082 C   0  0  0  0  0  0  0  0  0  0  0  0
  151.0161  141.6111  157.2365 C   0  0  0  0  0  0  0  0  0  0  0  0
  146.4911  138.4622  152.1041 C   0  0  0  0  0  0  0  0  0  0  0  0
  146.1213  137.0531  151.6105 C   0  0  0  0  0  0  0  0  0  0  0  0
  142.3569  136.7131  153.0207 H   0  0  0  0  0  0  0  0  0  0  0  0
  143.1294  135.2424  152.4347 H   0  0  0  0  0  0  0  0  0  0  0  0
  143.2890  136.7578  151.5294 H   0  0  0  0  0  0  0  0  0  0  0  0
  145.4842  135.1390  152.4135 H   0  0  0  0  0  0  0  0  0  0  0  0
  146.2877  135.5841  154.7424 H   0  0  0  0  0  0  0  0  0  0  0  0
  147.5588  135.6439  153.5494 H   0  0  0  0  0  0  0  0  0  0  0  0
  146.1692  138.0730  154.7986 H   0  0  0  0  0  0  0  0  0  0  0  0
  147.8069  137.5258  155.0970 H   0  0  0  0  0  0  0  0  0  0  0  0
  148.1886  140.3271  152.7147 H   0  0  0  0  0  0  0  0  0  0  0  0
  147.2722  140.2402  154.1965 H   0  0  0  0  0  0  0  0  0  0  0  0
  149.2464  138.8740  155.2156 H   0  0  0  0  0  0  0  0  0  0  0  0
  150.0383  139.2342  152.6982 H   0  0  0  0  0  0  0  0  0  0  0  0
  150.1875  141.6404  154.3443 H   0  0  0  0  0  0  0  0  0  0  0  0
  148.9051  141.4986  155.5225 H   0  0  0  0  0  0  0  0  0  0  0  0
  151.6861  138.9901  155.5130 H   0  0  0  0  0  0  0  0  0  0  0  0
  153.3233  141.0512  159.6891 H   0  0  0  0  0  0  0  0  0  0  0  0
  152.9463  144.2945  160.7491 H   0  0  0  0  0  0  0  0  0  0  0  0
  153.2339  142.6761  161.3864 H   0  0  0  0  0  0  0  0  0  0  0  0
  151.6739  143.4516  161.6459 H   0  0  0  0  0  0  0  0  0  0  0  0
  149.5477  145.0422  158.7208 H   0  0  0  0  0  0  0  0  0  0  0  0
  151.0527  145.4316  159.5505 H   0  0  0  0  0  0  0  0  0  0  0  0
  149.8009  144.4912  160.3763 H   0  0  0  0  0  0  0  0  0  0  0  0
  149.6516  143.2817  157.1556 H   0  0  0  0  0  0  0  0  0  0  0  0
  145.6028  138.9832  152.4641 H   0  0  0  0  0  0  0  0  0  0  0  0
  146.8714  139.0354  151.2600 H   0  0  0  0  0  0  0  0  0  0  0  0
  147.0010  136.5909  151.1609 H   0  0  0  0  0  0  0  0  0  0  0  0
  145.3811  137.1182  150.8138 H   0  0  0  0  0  0  0  0  0  0  0  0
  148.2979  137.8938  152.8105 H   0  0  0  0  0  0  0  0  0  0  0  0
  1  2  1  0  0  0  0
  1 24  1  0  0  0  0
  1 25  1  0  0  0  0
  1 26  1  0  0  0  0
  2  3  1  0  0  0  0
  3 23  1  0  0  0  0
  3  4  1  0  0  0  0
  3 27  1  0  0  0  0
  4  5  1  0  0  0  0
  4 28  1  0  0  0  0
  4 29  1  0  0  0  0
  5  6  1  0  0  0  0
  5 30  1  0  0  0  0
  5 31  1  0  0  0  0
  6  7  1  0  0  0  0
  6 22  1  0  0  0  0
  6 51  1  0  0  0  0
  7  8  1  0  0  0  0
  7 32  1  0  0  0  0
  7 33  1  0  0  0  0
  8  9  1  0  0  0  0
  8 10  1  0  0  0  0
  8 34  1  0  0  0  0
  9 35  1  0  0  0  0
 10 11  1  0  0  0  0
 10 36  1  0  0  0  0
 10 37  1  0  0  0  0
 11 21  1  0  0  0  0
 11 12  1  0  0  0  0
 12 13  2  0  0  0  0
 12 38  1  0  0  0  0
 13 14  1  0  0  0  0
 14 21  2  0  0  0  0
 14 15  1  0  0  0  0
 15 16  2  0  0  0  0
 15 39  1  0  0  0  0
 16 17  1  0  0  0  0
 16 18  1  0  0  0  0
 17 40  1  0  0  0  0
 17 41  1  0  0  0  0
 17 42  1  0  0  0  0
 18 19  1  0  0  0  0
 18 20  2  0  0  0  0
 19 43  1  0  0  0  0
 19 44  1  0  0  0  0
 19 45  1  0  0  0  0
 20 21  1  0  0  0  0
 20 46  1  0  0  0  0
 22 23  1  0  0  0  0
 22 47  1  0  0  0  0
 22 48  1  0  0  0  0
 23 49  1  0  0  0  0
 23 50  1  0  0  0  0
M  CHG  1   6   1
M  END
> <s_m_source_file>
AV-unprocessed.smi

> <i_m_source_file_index>
1605

> <i_lp_mmshare_version>
43012

> <i_f3d_flags>
0

> <s_epik_input>
W0NIM11PW0NIXTFbQ0gyXVtDSDJdTihbQ0gyXVtDSDJdMSlbQ0gyXVtDQEhdKFtPSF0pW0NIMl1uKFtjSF1uMiljKGMyMylbY0hdYyhbQ0gzXSljKFtjSF0zKVtDSDNd

> <s_epik_cmdline>
J2VwaWtfcHl0aG9uJywgJy1waCcsICc3LjAnLCAnLXRuJywgJzgnLCAnLW1hJywgJzIwMCcsICctbWV0YWxfYmluZGluZycsICctaW1hZScsICc8aW5maWxlLm1hZT4nLCAnLW9tYWUnLCAnPG91dGZpbGUubWFlPic=

> <r_epik_Ionization_Penalty>
0.110943

> <r_epik_Ionization_Penalty_Charging>
0.0229283

> <r_epik_Ionization_Penalty_Neutral>
0.0880146

> <r_epik_State_Penalty>
0.0947554

> <r_epik_Charging_Adjusted_Penalty>
0.117684

> <i_epik_Tot_Q>
1

> <i_epik_Tot_abs_Q>
1

> <r_epik_Metal_State_Penalty>
0.0192456

> <b_epik_Metal_Only>
0

> <s_lp_Force_Field>
OPLS_2005

> <r_lp_Energy>
21.431

> <b_lp_Chiralities_Consistent>
1

> <s_lp_Variant>
AV-unprocessed.smi:1605-4

> <Gold.Version>
5.8.1

> <Gold.Id.Protein>
6NUR|6NUR_protein|mol2

> <Gold.PLP.Fitness>
54.0161

> <Gold.PLP.PLP>
-40.9176

> <Gold.PLP.part.hbond>
-4.1276

> <Gold.PLP.part.metal>
0.0000

> <Gold.PLP.part.buried>
4.5234

> <Gold.PLP.part.nonpolar>
-40.1159

> <Gold.PLP.part.repulsive>
0.1543

> <Gold.PLP.ligand.clash>
0.0000

> <Gold.PLP.ligand.torsion>
0.7674

> <Gold.PLP.Chemscore.Hbond>
4.8404

> <Gold.PLP.Chemscore.CHOScore>
0.0000

> <Gold.PLP.Chemscore.Metal>
0.0000

> <Gold.Chemscore.Hbonds>
donor molecule, donor type, donor heavy atom, donor atom, acceptor molecule, acceptor atom, score
      L1  H     6    51       P1  7948  1.92
      L1  H     9    35       P1  7957  1.00
      P1  H  7989  7998       L1     9  0.80
      P1  H  7997  8009       L1    13  0.94

> <Gold.PLP.Chemscore.Internal.Correction>
0.1120

> <Gold.Rescore>
     Score         DG    S(hbond)    S(metal)    S(lipo)     H(rot)  DE(clash)    DE(int)     intcor
     17.93     -21.48       2.38        0.00     117.31       2.22       1.64       1.91       ----

> <Gold.Chemscore.Fitness>
17.9302

> <Gold.Chemscore.DG>
-21.4759

> <Gold.Chemscore.ZeroCoef>
-5.4800

> <Gold.Chemscore.Hbond>
2.3791

> <Gold.Chemscore.Metal>
0.0000

> <Gold.Chemscore.Lipo>
117.3075

> <Gold.Chemscore.Internal_Hbond>
0.0000

> <Gold.Chemscore.DEClash>
1.6376

> <Gold.Chemscore.DEInternal>
1.9080

> <Gold.Chemscore.Rot>
2.2169

> <Gold.Chemscore.Internal.Correction>
   9.000000E+99

> <Gold.Chemscore.Hbonds>
donor molecule, donor type, donor heavy atom, donor atom, acceptor molecule, acceptor atom, score
      L1  H     6    51       P1  7948  0.89
      L1  H     9    35       P1  7957  0.83
      P1  H  7989  7998       L1     9  0.08
      P1  H  7997  8009       L1    13  0.32

> <Gold.Chemscore.Hbond.Weighted>
-7.9462

> <Gold.Chemscore.Metal.Weighted>
-0.0000

> <Gold.Chemscore.Lipo.Weighted>
-13.7250

> <Gold.Chemscore.Internal_Hbond.Weighted>
0.0000

> <Gold.Chemscore.DEClash.Weighted>
1.6376

> <Gold.Chemscore.DEInternal.Weighted>
1.9080

> <Gold.Chemscore.Rot.Weighted>
5.6753

> <Gold.Chemscore.Internal.Correction.Weighted>
   9.000000E+99

> <Gold.Protein.RotatedTorsions>
[ 6907 6896 6895 6894 ] final  176.17 input  -60.11 | X-H torsion
[ 7974 7965 7964 7962 ] final   12.91 input  175.53 | X-H torsion
[ 8008 7997 7996 7995 ] final -173.94 input   59.86 | X-H torsion
[ 10167 10162 10161 10158 ] final   27.44 input  -65.29 | X-H torsion
[ 10718 10713 10712 10709 ] final  145.18 input   66.30 | X-H torsion
[ 10763 10752 10751 10750 ] final   35.16 input  -60.55 | X-H torsion
[ 11005 11000 10999 10996 ] final  -38.38 input  -57.11 | X-H torsion

> <Gold.Protein.ActiveResidues>
 VAL166  LYS551  ARG553  GLY616  TRP617  ASP618  TYR619  PRO620  LYS621  CYS622 
 ASP623  PHE694  ASN695  SER759  ASP760  ASP761  ALA762  ILE779  LEU786  VAL792 
 PHE793  MET794  SER795  GLU796  ALA797  LYS798  CYS799  TRP800  GLU811  SER814 

> <Gold.Protein.RotatedAtoms>
  151.7244  133.3315  159.3323 H   0  0  0  0  0  0  0  0  0  0  0  0  # atno 6907 bound_to 6896
  150.7639  134.6419  159.6251 H   0  0  0  0  0  0  0  0  0  0  0  0  # atno 6908 bound_to 6896
  152.3631  134.6845  160.0252 H   0  0  0  0  0  0  0  0  0  0  0  0  # atno 6909 bound_to 6896
  146.2341  139.9267  142.8502 H   0  0  0  0  0  0  0  0  0  0  0  0  # atno 7974 bound_to 7965
  155.9639  140.1149  157.0872 H   0  0  0  0  0  0  0  0  0  0  0  0  # atno 8008 bound_to 7997
  154.4139  140.1176  156.5282 H   0  0  0  0  0  0  0  0  0  0  0  0  # atno 8009 bound_to 7997
  155.6685  140.3473  155.4811 H   0  0  0  0  0  0  0  0  0  0  0  0  # atno 8010 bound_to 7997
  140.4938  144.0424  150.6307 H   0  0  0  0  0  0  0  0  0  0  0  0  # atno 10167 bound_to 10162
  157.3484  131.0947  151.1022 H   0  0  0  0  0  0  0  0  0  0  0  0  # atno 10718 bound_to 10713
  153.0131  135.6341  154.1782 H   0  0  0  0  0  0  0  0  0  0  0  0  # atno 10763 bound_to 10752
  154.1523  135.2828  155.3133 H   0  0  0  0  0  0  0  0  0  0  0  0  # atno 10764 bound_to 10752
  154.6044  135.5577  153.7468 H   0  0  0  0  0  0  0  0  0  0  0  0  # atno 10765 bound_to 10752
  141.0023  133.6949  156.2046 H   0  0  0  0  0  0  0  0  0  0  0  0  # atno 11005 bound_to 11000
  145.2084  140.9885  143.4115 LP  0  0  0  0  0  0  0  0  0  0  0  0  # atno 17320 bound_to 7965
  144.9712  139.3878  143.6308 LP  0  0  0  0  0  0  0  0  0  0  0  0  # atno 17321 bound_to 7965
  140.3701  143.2859  152.0288 LP  0  0  0  0  0  0  0  0  0  0  0  0  # atno 17342 bound_to 10162
  139.4857  144.6237  151.7206 LP  0  0  0  0  0  0  0  0  0  0  0  0  # atno 17343 bound_to 10162
  157.2207  130.6480  149.5810 LP  0  0  0  0  0  0  0  0  0  0  0  0  # atno 17370 bound_to 10713
  155.9718  130.4630  150.6166 LP  0  0  0  0  0  0  0  0  0  0  0  0  # atno 17371 bound_to 10713
  140.6869  134.4708  157.5589 LP  0  0  0  0  0  0  0  0  0  0  0  0  # atno 17394 bound_to 11000
  139.9045  134.8480  156.1760 LP  0  0  0  0  0  0  0  0  0  0  0  0  # atno 17395 bound_to 11000

$$$$
