AV-unprocessed.smi:3282|AV-procd|sdf|12564|dock1
  -GOLD-   2272018483D 1   1.00000     0.00000
 Structure written by MMmdl.
 34 35  0  0  0  0  0  0  0  0  1 V2000
  152.2248  145.4944  159.0647 C   0  0  0  0  0  0  0  0  0  0  0  0
  151.4778  144.6939  160.1437 C   0  0  0  0  0  0  0  0  0  0  0  0
  151.7362  143.1790  160.0819 C   0  0  0  0  0  0  0  0  0  0  0  0
  152.1864  142.5927  161.0675 O   0  0  0  0  0  0  0  0  0  0  0  0
  151.4554  142.5317  158.9316 N   0  0  0  0  0  0  0  0  0  0  0  0
  151.6396  141.0943  158.7499 C   0  0  0  0  0  0  0  0  0  0  0  0
  150.9806  140.7510  157.4141 C   0  0  0  0  0  0  0  0  0  0  0  0
  150.9929  142.0602  156.6296 C   0  0  1  0  0  0  0  0  0  0  0  0
  149.8687  142.1426  155.7024 N   0  0  0  0  0  0  0  0  0  0  0  0
  149.6132  141.2683  154.7178 C   0  0  0  0  0  0  0  0  0  0  0  0
  150.3305  140.2826  154.5185 O   0  0  0  0  0  0  0  0  0  0  0  0
  148.4557  141.6197  154.0439 N   0  0  0  0  0  0  0  0  0  0  0  0
  147.7640  140.6776  153.4823 C   0  0  0  0  0  0  0  0  0  0  0  0
  146.5971  140.8034  152.7456 N   0  0  0  0  0  0  0  0  0  0  0  0
  146.2038  139.5528  152.3561 C   0  0  0  0  0  0  0  0  0  0  0  0
  147.0850  138.6754  152.8280 C   0  0  0  0  0  0  0  0  0  0  0  0
  148.0541  139.3327  153.5241 O   0  0  0  0  0  0  0  0  0  0  0  0
  150.9359  143.1472  157.7120 C   0  0  0  0  0  0  0  0  0  0  0  0
  152.0158  146.5596  159.1632 H   0  0  0  0  0  0  0  0  0  0  0  0
  151.9217  145.1922  158.0615 H   0  0  0  0  0  0  0  0  0  0  0  0
  153.3045  145.3627  159.1466 H   0  0  0  0  0  0  0  0  0  0  0  0
  151.7727  145.0646  161.1259 H   0  0  0  0  0  0  0  0  0  0  0  0
  150.4068  144.8723  160.0438 H   0  0  0  0  0  0  0  0  0  0  0  0
  152.7081  140.8768  158.7154 H   0  0  0  0  0  0  0  0  0  0  0  0
  151.2027  140.5176  159.5668 H   0  0  0  0  0  0  0  0  0  0  0  0
  151.4895  139.9412  156.8904 H   0  0  0  0  0  0  0  0  0  0  0  0
  149.9533  140.4316  157.5973 H   0  0  0  0  0  0  0  0  0  0  0  0
  151.9386  142.1344  156.0895 H   0  0  0  0  0  0  0  0  0  0  0  0
  149.2349  142.9199  155.8205 H   0  0  0  0  0  0  0  0  0  0  0  0
  146.0902  141.6460  152.5155 H   0  0  0  0  0  0  0  0  0  0  0  0
  145.3088  139.4207  151.7664 H   0  0  0  0  0  0  0  0  0  0  0  0
  147.1590  137.6000  152.7593 H   0  0  0  0  0  0  0  0  0  0  0  0
  149.9087  143.4675  157.8943 H   0  0  0  0  0  0  0  0  0  0  0  0
  151.5152  144.0216  157.4125 H   0  0  0  0  0  0  0  0  0  0  0  0
  1  2  1  0  0  0  0
  1 19  1  0  0  0  0
  1 20  1  0  0  0  0
  1 21  1  0  0  0  0
  2  3  1  0  0  0  0
  2 22  1  0  0  0  0
  2 23  1  0  0  0  0
  3  4  2  0  0  0  0
  3  5  1  0  0  0  0
  5 18  1  0  0  0  0
  5  6  1  0  0  0  0
  6  7  1  0  0  0  0
  6 24  1  0  0  0  0
  6 25  1  0  0  0  0
  7  8  1  0  0  0  0
  7 26  1  0  0  0  0
  7 27  1  0  0  0  0
  8  9  1  0  0  0  0
  8 18  1  0  0  0  0
  8 28  1  0  0  0  0
  9 29  1  0  0  0  0
  9 10  1  0  0  0  0
 10 12  1  0  0  0  0
 10 11  2  0  0  0  0
 12 13  2  0  0  0  0
 13 17  1  0  0  0  0
 13 14  1  0  0  0  0
 14 30  1  0  0  0  0
 14 15  1  0  0  0  0
 15 31  1  0  0  0  0
 15 16  2  0  0  0  0
 16 32  1  0  0  0  0
 16 17  1  0  0  0  0
 18 33  1  0  0  0  0
 18 34  1  0  0  0  0
M  END
> <s_m_source_file>
AV-unprocessed.smi

> <i_m_source_file_index>
3282

> <i_lp_mmshare_version>
43012

> <i_f3d_flags>
0

> <s_epik_input>
W0NIM11bQ0gyXUMoPU8pTjFbQ0gyXVtDSDJdW0NASF0oW0NIMl0xKVtOSF1DKD1PKVtOSF1jMm5bY0hdW2NIXW8y

> <s_epik_cmdline>
J2VwaWtfcHl0aG9uJywgJy1waCcsICc3LjAnLCAnLXRuJywgJzgnLCAnLW1hJywgJzIwMCcsICctbWV0YWxfYmluZGluZycsICctaW1hZScsICc8aW5maWxlLm1hZT4nLCAnLW9tYWUnLCAnPG91dGZpbGUubWFlPic=

> <r_lp_tautomer_probability>
0.107061

> <r_epik_Ionization_Penalty>
0.434703

> <r_epik_Ionization_Penalty_Charging>
0.434345

> <r_epik_Ionization_Penalty_Neutral>
0.000358141

> <r_epik_State_Penalty>
2.49584

> <r_epik_Charging_Adjusted_Penalty>
2.93019

> <i_epik_Tot_Q>
0

> <i_epik_Tot_abs_Q>
0

> <r_epik_Metal_State_Penalty>
4.06361

> <b_epik_Metal_Only>
0

> <s_lp_Force_Field>
OPLS_2005

> <r_lp_Energy>
49.1525

> <b_lp_Chiralities_Consistent>
1

> <s_lp_Variant>
AV-unprocessed.smi:3282-5

> <Gold.Version>
5.8.1

> <Gold.Id.Protein>
6NUR|6NUR_protein|mol2

> <Gold.PLP.Fitness>
46.8820

> <Gold.PLP.PLP>
-32.9467

> <Gold.PLP.part.hbond>
-4.2688

> <Gold.PLP.part.metal>
0.0000

> <Gold.PLP.part.buried>
0.7167

> <Gold.PLP.part.nonpolar>
-29.8752

> <Gold.PLP.part.repulsive>
2.1542

> <Gold.PLP.ligand.clash>
0.0000

> <Gold.PLP.ligand.torsion>
0.1777

> <Gold.PLP.Chemscore.Hbond>
2.0909

> <Gold.PLP.Chemscore.CHOScore>
2.6693

> <Gold.PLP.Chemscore.Metal>
0.0000

> <Gold.Chemscore.Hbonds>
donor molecule, donor type, donor heavy atom, donor atom, acceptor molecule, acceptor atom, score
      L1  H     9    29       P1  8028  0.99
      P1  H  7989  7998       L1    11  1.00
      P1  H  8011  8017       L1    12  0.07
      L1  C    15    31       P1 10171  0.97
      L1  C    15    31       P1 10175  0.70
      L1  C    16    32       P1  7948  0.98

> <Gold.PLP.Chemscore.Internal.Correction>
0.0101

> <Gold.Rescore>
     Score         DG    S(hbond)    S(metal)    S(lipo)     H(rot)  DE(clash)    DE(int)     intcor
     11.16     -15.19       1.48        0.00      69.53       1.32       1.39       2.64       ----

> <Gold.Chemscore.Fitness>
11.1611

> <Gold.Chemscore.DG>
-15.1916

> <Gold.Chemscore.ZeroCoef>
-5.4800

> <Gold.Chemscore.Hbond>
1.4838

> <Gold.Chemscore.Metal>
0.0000

> <Gold.Chemscore.Lipo>
69.5279

> <Gold.Chemscore.Internal_Hbond>
0.0000

> <Gold.Chemscore.DEClash>
1.3947

> <Gold.Chemscore.DEInternal>
2.6358

> <Gold.Chemscore.Rot>
1.3199

> <Gold.Chemscore.Internal.Correction>
   9.000000E+99

> <Gold.Chemscore.Hbonds>
donor molecule, donor type, donor heavy atom, donor atom, acceptor molecule, acceptor atom, score
      L1  H     9    29       P1  8028  0.94
      P1  H  7989  7998       L1    11  0.44

> <Gold.Chemscore.Hbond.Weighted>
-4.9557

> <Gold.Chemscore.Metal.Weighted>
-0.0000

> <Gold.Chemscore.Lipo.Weighted>
-8.1348

> <Gold.Chemscore.Internal_Hbond.Weighted>
0.0000

> <Gold.Chemscore.DEClash.Weighted>
1.3947

> <Gold.Chemscore.DEInternal.Weighted>
2.6358

> <Gold.Chemscore.Rot.Weighted>
3.3789

> <Gold.Chemscore.Internal.Correction.Weighted>
   9.000000E+99

> <Gold.Protein.RotatedTorsions>
[ 6907 6896 6895 6894 ] final  112.41 input  -60.11 | X-H torsion
[ 7974 7965 7964 7962 ] final  -44.36 input  175.53 | X-H torsion
[ 8008 7997 7996 7995 ] final -154.15 input   59.86 | X-H torsion
[ 10167 10162 10161 10158 ] final -126.87 input  -65.29 | X-H torsion
[ 10718 10713 10712 10709 ] final   61.39 input   66.30 | X-H torsion
[ 10763 10752 10751 10750 ] final -125.84 input  -60.55 | X-H torsion
[ 11005 11000 10999 10996 ] final   60.55 input  -57.11 | X-H torsion

> <Gold.Protein.ActiveResidues>
 VAL166  LYS551  ARG553  GLY616  TRP617  ASP618  TYR619  PRO620  LYS621  CYS622 
 ASP623  PHE694  ASN695  SER759  ASP760  ASP761  ALA762  ILE779  LEU786  VAL792 
 PHE793  MET794  SER795  GLU796  ALA797  LYS798  CYS799  TRP800  GLU811  SER814 

> <Gold.Protein.RotatedAtoms>
  152.4918  133.8520  159.7206 H   0  0  0  0  0  0  0  0  0  0  0  0  # atno 6907 bound_to 6896
  150.9055  133.7055  159.2874 H   0  0  0  0  0  0  0  0  0  0  0  0  # atno 6908 bound_to 6896
  151.4482  135.1031  159.9742 H   0  0  0  0  0  0  0  0  0  0  0  0  # atno 6909 bound_to 6896
  145.9928  140.7161  142.9308 H   0  0  0  0  0  0  0  0  0  0  0  0  # atno 7974 bound_to 7965
  155.6818  140.0745  157.2481 H   0  0  0  0  0  0  0  0  0  0  0  0  # atno 8008 bound_to 7997
  154.4104  140.1680  156.2043 H   0  0  0  0  0  0  0  0  0  0  0  0  # atno 8009 bound_to 7997
  155.9528  140.3376  155.6425 H   0  0  0  0  0  0  0  0  0  0  0  0  # atno 8010 bound_to 7997
  139.9668  143.5889  152.2426 H   0  0  0  0  0  0  0  0  0  0  0  0  # atno 10167 bound_to 10162
  157.5824  130.8992  149.9455 H   0  0  0  0  0  0  0  0  0  0  0  0  # atno 10718 bound_to 10713
  154.8740  135.4016  154.3333 H   0  0  0  0  0  0  0  0  0  0  0  0  # atno 10763 bound_to 10752
  153.4143  135.7021  153.6343 H   0  0  0  0  0  0  0  0  0  0  0  0  # atno 10764 bound_to 10752
  153.5032  135.3723  155.2520 H   0  0  0  0  0  0  0  0  0  0  0  0  # atno 10765 bound_to 10752
  140.0224  134.6133  155.9621 H   0  0  0  0  0  0  0  0  0  0  0  0  # atno 11005 bound_to 11000
  144.6894  140.3100  143.7249 LP  0  0  0  0  0  0  0  0  0  0  0  0  # atno 17320 bound_to 7965
  145.7604  139.1823  143.2270 LP  0  0  0  0  0  0  0  0  0  0  0  0  # atno 17321 bound_to 7965
  139.6511  144.7660  151.2146 LP  0  0  0  0  0  0  0  0  0  0  0  0  # atno 17342 bound_to 10162
  140.7535  143.6159  150.8560 LP  0  0  0  0  0  0  0  0  0  0  0  0  # atno 17343 bound_to 10162
  156.0871  130.3667  150.0466 LP  0  0  0  0  0  0  0  0  0  0  0  0  # atno 17370 bound_to 10713
  156.8603  130.9489  151.3618 LP  0  0  0  0  0  0  0  0  0  0  0  0  # atno 17371 bound_to 10713
  141.1782  133.6543  156.4912 LP  0  0  0  0  0  0  0  0  0  0  0  0  # atno 17394 bound_to 11000
  140.4365  134.7055  157.4969 LP  0  0  0  0  0  0  0  0  0  0  0  0  # atno 17395 bound_to 11000

$$$$
