AV-unprocessed.smi:3218|AV-procd|sdf|12293|dock3
  -GOLD-   2272018133D 1   1.00000     0.00000
 Structure written by MMmdl.
 38 39  0  0  0  0  0  0  0  0  2 V2000
  143.7930  133.4021  151.1521 C   0  0  0  0  0  0  0  0  0  0  0  0
  144.4672  134.6699  151.5923 C   0  0  0  0  0  0  0  0  0  0  0  0
  144.6311  135.1564  152.9203 C   0  0  0  0  0  0  0  0  0  0  0  0
  145.2762  136.3109  152.9692 N   0  0  0  0  0  0  0  0  0  0  0  0
  145.5439  136.6023  151.6785 N   0  0  0  0  0  0  0  0  0  0  0  0
  146.2602  137.8203  151.3457 C   0  0  0  0  0  0  0  0  0  0  0  0
  146.6020  138.6545  152.5906 C   0  0  0  0  0  0  0  0  0  0  0  0
  148.0583  138.7051  152.8321 N   0  3  0  0  0  0  0  0  0  0  0  0
  148.4332  139.2851  154.1354 C   0  0  0  0  0  0  0  0  0  0  0  0
  149.9577  139.2653  154.3278 C   0  0  0  0  0  0  0  0  0  0  0  0
  150.3739  140.1369  155.4233 N   0  0  0  0  0  0  0  0  0  0  0  0
  149.4233  141.0259  156.0701 C   0  0  0  0  0  0  0  0  0  0  0  0
  150.2678  141.8927  157.0151 C   0  0  0  0  0  0  0  0  0  0  0  0
  151.6327  141.2017  157.1083 C   0  0  0  0  0  0  0  0  0  0  0  0
  151.5916  140.1895  155.9761 C   0  0  0  0  0  0  0  0  0  0  0  0
  152.5689  139.5235  155.6384 O   0  0  0  0  0  0  0  0  0  0  0  0
  145.0677  135.6286  150.8264 C   0  0  0  0  0  0  0  0  0  0  0  0
  143.0415  133.0732  151.8702 H   0  0  0  0  0  0  0  0  0  0  0  0
  144.5073  132.5866  151.0383 H   0  0  0  0  0  0  0  0  0  0  0  0
  143.2879  133.5244  150.1938 H   0  0  0  0  0  0  0  0  0  0  0  0
  144.3027  134.7060  153.8456 H   0  0  0  0  0  0  0  0  0  0  0  0
  147.1780  137.5407  150.8271 H   0  0  0  0  0  0  0  0  0  0  0  0
  145.6682  138.4025  150.6378 H   0  0  0  0  0  0  0  0  0  0  0  0
  146.2117  139.6674  152.4809 H   0  0  0  0  0  0  0  0  0  0  0  0
  146.1169  138.2187  153.4647 H   0  0  0  0  0  0  0  0  0  0  0  0
  148.4270  137.7665  152.7766 H   0  0  0  0  0  0  0  0  0  0  0  0
  148.0560  140.3072  154.1889 H   0  0  0  0  0  0  0  0  0  0  0  0
  147.9491  138.7197  154.9327 H   0  0  0  0  0  0  0  0  0  0  0  0
  150.2947  138.2474  154.5292 H   0  0  0  0  0  0  0  0  0  0  0  0
  150.4584  139.5790  153.4104 H   0  0  0  0  0  0  0  0  0  0  0  0
  148.8834  141.6312  155.3410 H   0  0  0  0  0  0  0  0  0  0  0  0
  148.6971  140.4335  156.6282 H   0  0  0  0  0  0  0  0  0  0  0  0
  150.3884  142.8936  156.5985 H   0  0  0  0  0  0  0  0  0  0  0  0
  149.7968  141.9997  157.9927 H   0  0  0  0  0  0  0  0  0  0  0  0
  152.4592  141.9027  156.9870 H   0  0  0  0  0  0  0  0  0  0  0  0
  151.7512  140.6796  158.0583 H   0  0  0  0  0  0  0  0  0  0  0  0
  145.1946  135.6970  149.7558 H   0  0  0  0  0  0  0  0  0  0  0  0
  148.4807  139.2592  152.1000 H   0  0  0  0  0  0  0  0  0  0  0  0
  1  2  1  0  0  0  0
  1 18  1  0  0  0  0
  1 19  1  0  0  0  0
  1 20  1  0  0  0  0
  2 17  2  0  0  0  0
  2  3  1  0  0  0  0
  3  4  2  0  0  0  0
  3 21  1  0  0  0  0
  4  5  1  0  0  0  0
  5  6  1  0  0  0  0
  5 17  1  0  0  0  0
  6  7  1  0  0  0  0
  6 22  1  0  0  0  0
  6 23  1  0  0  0  0
  7  8  1  0  0  0  0
  7 24  1  0  0  0  0
  7 25  1  0  0  0  0
  8  9  1  0  0  0  0
  8 26  1  0  0  0  0
  8 38  1  0  0  0  0
  9 10  1  0  0  0  0
  9 27  1  0  0  0  0
  9 28  1  0  0  0  0
 10 11  1  0  0  0  0
 10 29  1  0  0  0  0
 10 30  1  0  0  0  0
 11 15  1  0  0  0  0
 11 12  1  0  0  0  0
 12 13  1  0  0  0  0
 12 31  1  0  0  0  0
 12 32  1  0  0  0  0
 13 14  1  0  0  0  0
 13 33  1  0  0  0  0
 13 34  1  0  0  0  0
 14 15  1  0  0  0  0
 14 35  1  0  0  0  0
 14 36  1  0  0  0  0
 15 16  2  0  0  0  0
 17 37  1  0  0  0  0
M  CHG  1   8   1
M  END
> <s_m_source_file>
AV-unprocessed.smi

> <i_m_source_file_index>
3218

> <i_lp_mmshare_version>
43012

> <i_f3d_flags>
0

> <s_epik_input>
W0NIM11jMVtjSF1ubihbY0hdMSlbQ0gyXVtDSDJdW05IXVtDSDJdW0NIMl1OMltDSDJdW0NIMl1bQ0gyXUMyPU8=

> <s_epik_cmdline>
J2VwaWtfcHl0aG9uJywgJy1waCcsICc3LjAnLCAnLXRuJywgJzgnLCAnLW1hJywgJzIwMCcsICctbWV0YWxfYmluZGluZycsICctaW1hZScsICc8aW5maWxlLm1hZT4nLCAnLW9tYWUnLCAnPG91dGZpbGUubWFlPic=

> <r_lp_tautomer_probability>
1

> <r_epik_Ionization_Penalty>
0.00826456

> <r_epik_Ionization_Penalty_Charging>
0.00825899

> <r_epik_Ionization_Penalty_Neutral>
5.57245e-06

> <r_epik_State_Penalty>
0.00621436

> <r_epik_Charging_Adjusted_Penalty>
0.0144734

> <i_epik_Tot_Q>
1

> <i_epik_Tot_abs_Q>
1

> <r_epik_Metal_State_Penalty>
0.00623755

> <b_epik_Metal_Only>
0

> <s_lp_Force_Field>
OPLS_2005

> <r_lp_Energy>
17.5309

> <b_lp_Chiralities_Consistent>
1

> <s_lp_Variant>
AV-unprocessed.smi:3218-1

> <Gold.Version>
5.8.1

> <Gold.Id.Protein>
6NUR|6NUR_protein|mol2

> <Gold.PLP.Fitness>
47.6989

> <Gold.PLP.PLP>
-33.7170

> <Gold.PLP.part.hbond>
-3.0000

> <Gold.PLP.part.metal>
0.0000

> <Gold.PLP.part.buried>
-1.5073

> <Gold.PLP.part.nonpolar>
-30.2518

> <Gold.PLP.part.repulsive>
0.1957

> <Gold.PLP.ligand.clash>
0.0000

> <Gold.PLP.ligand.torsion>
0.5345

> <Gold.PLP.Chemscore.Hbond>
4.0000

> <Gold.PLP.Chemscore.CHOScore>
1.0000

> <Gold.PLP.Chemscore.Metal>
0.0000

> <Gold.Chemscore.Hbonds>
donor molecule, donor type, donor heavy atom, donor atom, acceptor molecule, acceptor atom, score
      L1  H     8    26       P1  7948  2.00
      L1  H     8    38       P1  7957  1.00
      P1  H  7997  8010       L1    16  1.00
      L1  C    17    37       P1  7921  1.00

> <Gold.PLP.Chemscore.Internal.Correction>
0.0509

> <Gold.Rescore>
     Score         DG    S(hbond)    S(metal)    S(lipo)     H(rot)  DE(clash)    DE(int)     intcor
     17.28     -18.48       2.96        0.00      70.94       2.03       0.65       0.55       ----

> <Gold.Chemscore.Fitness>
17.2804

> <Gold.Chemscore.DG>
-18.4815

> <Gold.Chemscore.ZeroCoef>
-5.4800

> <Gold.Chemscore.Hbond>
2.9649

> <Gold.Chemscore.Metal>
0.0000

> <Gold.Chemscore.Lipo>
70.9432

> <Gold.Chemscore.Internal_Hbond>
0.0000

> <Gold.Chemscore.DEClash>
0.6485

> <Gold.Chemscore.DEInternal>
0.5527

> <Gold.Chemscore.Rot>
2.0319

> <Gold.Chemscore.Internal.Correction>
   9.000000E+99

> <Gold.Chemscore.Hbonds>
donor molecule, donor type, donor heavy atom, donor atom, acceptor molecule, acceptor atom, score
      L1  H     8    26       P1  7948  0.97
      L1  H     8    38       P1  7957  0.99
      P1  H  7997  8010       L1    16  0.94

> <Gold.Chemscore.Hbond.Weighted>
-9.9029

> <Gold.Chemscore.Metal.Weighted>
-0.0000

> <Gold.Chemscore.Lipo.Weighted>
-8.3004

> <Gold.Chemscore.Internal_Hbond.Weighted>
0.0000

> <Gold.Chemscore.DEClash.Weighted>
0.6485

> <Gold.Chemscore.DEInternal.Weighted>
0.5527

> <Gold.Chemscore.Rot.Weighted>
5.2017

> <Gold.Chemscore.Internal.Correction.Weighted>
   9.000000E+99

> <Gold.Protein.RotatedTorsions>
[ 6907 6896 6895 6894 ] final  -96.77 input  -60.11 | X-H torsion
[ 7974 7965 7964 7962 ] final   59.56 input  175.53 | X-H torsion
[ 8008 7997 7996 7995 ] final   81.84 input   59.86 | X-H torsion
[ 10167 10162 10161 10158 ] final  -77.90 input  -65.29 | X-H torsion
[ 10718 10713 10712 10709 ] final -125.65 input   66.30 | X-H torsion
[ 10763 10752 10751 10750 ] final   76.35 input  -60.55 | X-H torsion
[ 11005 11000 10999 10996 ] final   92.88 input  -57.11 | X-H torsion

> <Gold.Protein.ActiveResidues>
 VAL166  LYS551  ARG553  GLY616  TRP617  ASP618  TYR619  PRO620  LYS621  CYS622 
 ASP623  PHE694  ASN695  SER759  ASP760  ASP761  ALA762  ILE779  LEU786  VAL792 
 PHE793  MET794  SER795  GLU796  ALA797  LYS798  CYS799  TRP800  GLU811  SER814 

> <Gold.Protein.RotatedAtoms>
  150.6997  134.1452  159.4119 H   0  0  0  0  0  0  0  0  0  0  0  0  # atno 6907 bound_to 6896
  151.9436  135.0199  160.0547 H   0  0  0  0  0  0  0  0  0  0  0  0  # atno 6908 bound_to 6896
  152.2072  133.4849  159.5127 H   0  0  0  0  0  0  0  0  0  0  0  0  # atno 6909 bound_to 6896
  145.9058  139.3616  143.0565 H   0  0  0  0  0  0  0  0  0  0  0  0  # atno 7974 bound_to 7965
  155.9026  140.3432  155.6038 H   0  0  0  0  0  0  0  0  0  0  0  0  # atno 8008 bound_to 7997
  155.7482  140.0816  157.2233 H   0  0  0  0  0  0  0  0  0  0  0  0  # atno 8009 bound_to 7997
  154.4045  140.1558  156.2681 H   0  0  0  0  0  0  0  0  0  0  0  0  # atno 8010 bound_to 7997
  140.4729  143.2422  151.8177 H   0  0  0  0  0  0  0  0  0  0  0  0  # atno 10167 bound_to 10162
  156.1694  130.6657  151.0159 H   0  0  0  0  0  0  0  0  0  0  0  0  # atno 10718 bound_to 10713
  153.0719  135.4954  154.8324 H   0  0  0  0  0  0  0  0  0  0  0  0  # atno 10763 bound_to 10752
  154.7035  135.3006  154.9308 H   0  0  0  0  0  0  0  0  0  0  0  0  # atno 10764 bound_to 10752
  154.0024  135.6764  153.4813 H   0  0  0  0  0  0  0  0  0  0  0  0  # atno 10765 bound_to 10752
  139.8817  134.8758  156.3636 H   0  0  0  0  0  0  0  0  0  0  0  0  # atno 11005 bound_to 11000
  145.8734  140.9406  143.0639 LP  0  0  0  0  0  0  0  0  0  0  0  0  # atno 17320 bound_to 7965
  144.6739  140.0684  143.7474 LP  0  0  0  0  0  0  0  0  0  0  0  0  # atno 17321 bound_to 7965
  139.4821  144.4869  151.9235 LP  0  0  0  0  0  0  0  0  0  0  0  0  # atno 17342 bound_to 10162
  140.3954  144.2562  150.5896 LP  0  0  0  0  0  0  0  0  0  0  0  0  # atno 17343 bound_to 10162
  157.6792  131.0842  150.7415 LP  0  0  0  0  0  0  0  0  0  0  0  0  # atno 17370 bound_to 10713
  156.7475  130.4758  149.5464 LP  0  0  0  0  0  0  0  0  0  0  0  0  # atno 17371 bound_to 10713
  140.9512  133.7449  156.0275 LP  0  0  0  0  0  0  0  0  0  0  0  0  # atno 17394 bound_to 11000
  140.8103  134.3407  157.5414 LP  0  0  0  0  0  0  0  0  0  0  0  0  # atno 17395 bound_to 11000

$$$$
