AV-unprocessed.smi:1748|AV-procd|sdf|7042|dock1
  -GOLD-   22720 8263D 1   1.00000     0.00000
 Structure written by MMmdl.
 39 40  0  0  0  0  0  0  0  0  3 V2000
  146.2826  133.4537  151.6263 C   0  0  0  0  0  0  0  0  0  0  0  0
  146.2844  134.9167  151.8399 N   0  3  1  0  0  0  0  0  0  0  0  0
  145.5827  135.6505  150.7567 C   0  0  0  0  0  0  0  0  0  0  0  0
  145.7169  137.1725  150.9401 C   0  0  0  0  0  0  0  0  0  0  0  0
  145.2438  137.6141  152.3361 C   0  0  0  0  0  0  0  0  0  0  0  0
  145.9516  136.8076  153.4405 C   0  0  2  0  0  0  0  0  0  0  0  0
  147.3651  137.1801  153.4993 N   0  0  0  0  0  0  0  0  0  0  0  0
  147.9241  137.9645  154.4318 C   0  0  0  0  0  0  0  0  0  0  0  0
  147.2868  138.4699  155.3554 O   0  0  0  0  0  0  0  0  0  0  0  0
  149.2480  138.0807  154.2266 N   0  0  0  0  0  0  0  0  0  0  0  0
  150.2018  138.7985  154.9671 C   0  0  0  0  0  0  0  0  0  0  0  0
  149.9178  139.8436  155.7927 C   0  0  0  0  0  0  0  0  0  0  0  0
  150.9529  140.5616  156.5256 C   0  0  0  0  0  0  0  0  0  0  0  0
  150.6636  141.6652  157.5277 C   0  0  0  0  0  0  0  0  0  0  0  0
  149.3535  141.8906  157.6288 F   0  0  0  0  0  0  0  0  0  0  0  0
  151.1193  141.3166  158.7304 F   0  0  0  0  0  0  0  0  0  0  0  0
  151.2600  142.8028  157.1708 F   0  0  0  0  0  0  0  0  0  0  0  0
  152.2145  140.0524  156.2859 C   0  0  0  0  0  0  0  0  0  0  0  0
  152.5826  139.0425  155.4670 N   0  5  0  0  0  0  0  0  0  0  0  0
  151.6068  138.3790  154.7854 C   0  0  0  0  0  0  0  0  0  0  0  0
  151.8704  137.4440  154.0282 O   0  0  0  0  0  0  0  0  0  0  0  0
  145.7716  135.2950  153.1805 C   0  0  0  0  0  0  0  0  0  0  0  0
  145.2677  133.0551  151.6503 H   0  0  0  0  0  0  0  0  0  0  0  0
  146.8665  132.9519  152.3987 H   0  0  0  0  0  0  0  0  0  0  0  0
  146.7266  133.2053  150.6618 H   0  0  0  0  0  0  0  0  0  0  0  0
  145.9991  135.3628  149.7905 H   0  0  0  0  0  0  0  0  0  0  0  0
  144.5295  135.3654  150.7461 H   0  0  0  0  0  0  0  0  0  0  0  0
  146.7569  137.4666  150.7926 H   0  0  0  0  0  0  0  0  0  0  0  0
  145.1419  137.6911  150.1724 H   0  0  0  0  0  0  0  0  0  0  0  0
  145.4139  138.6829  152.4730 H   0  0  0  0  0  0  0  0  0  0  0  0
  144.1663  137.4638  152.4143 H   0  0  0  0  0  0  0  0  0  0  0  0
  145.4937  137.0615  154.3982 H   0  0  0  0  0  0  0  0  0  0  0  0
  147.9631  136.8137  152.7728 H   0  0  0  0  0  0  0  0  0  0  0  0
  149.6359  137.5456  153.4634 H   0  0  0  0  0  0  0  0  0  0  0  0
  148.9055  140.1924  155.9142 H   0  0  0  0  0  0  0  0  0  0  0  0
  153.0540  140.5243  156.8395 H   0  0  0  0  0  0  0  0  0  0  0  0
  144.7163  135.0270  153.2530 H   0  0  0  0  0  0  0  0  0  0  0  0
  146.2878  134.7160  153.9473 H   0  0  0  0  0  0  0  0  0  0  0  0
  147.2511  135.2086  151.8104 H   0  0  0  0  0  0  0  0  0  0  0  0
  1  2  1  0  0  0  0
  1 23  1  0  0  0  0
  1 24  1  0  0  0  0
  1 25  1  0  0  0  0
  2 22  1  0  0  0  0
  2  3  1  0  0  0  0
  2 39  1  0  0  0  0
  3  4  1  0  0  0  0
  3 26  1  0  0  0  0
  3 27  1  0  0  0  0
  4  5  1  0  0  0  0
  4 28  1  0  0  0  0
  4 29  1  0  0  0  0
  5  6  1  0  0  0  0
  5 30  1  0  0  0  0
  5 31  1  0  0  0  0
  6  7  1  0  0  0  0
  6 22  1  0  0  0  0
  6 32  1  0  0  0  0
  7  8  1  0  0  0  0
  7 33  1  0  0  0  0
  8  9  2  0  0  0  0
  8 10  1  0  0  0  0
 10 11  1  0  0  0  0
 10 34  1  0  0  0  0
 11 20  1  0  0  0  0
 11 12  2  0  0  0  0
 12 13  1  0  0  0  0
 12 35  1  0  0  0  0
 13 14  1  0  0  0  0
 13 18  2  0  0  0  0
 14 15  1  0  0  0  0
 14 16  1  0  0  0  0
 14 17  1  0  0  0  0
 18 19  1  0  0  0  0
 18 36  1  0  0  0  0
 19 20  1  0  0  0  0
 20 21  2  0  0  0  0
 22 37  1  0  0  0  0
 22 38  1  0  0  0  0
M  CHG  1   2   1
M  CHG  1  19  -1
M  END
> <s_m_source_file>
AV-unprocessed.smi

> <i_m_source_file_index>
1748

> <i_lp_mmshare_version>
43012

> <i_f3d_flags>
0

> <s_epik_input>
W0NIM11OMVtDSDJdW0NIMl1bQ0gyXVtDQEhdKFtDSDJdMSlbTkhdQyg9TylbTkhdYzJbY0hdYyhDKEYpKEYpRilbY0hdW25IXWMyPU8=

> <s_epik_cmdline>
J2VwaWtfcHl0aG9uJywgJy1waCcsICc3LjAnLCAnLXRuJywgJzgnLCAnLW1hJywgJzIwMCcsICctbWV0YWxfYmluZGluZycsICctaW1hZScsICc8aW5maWxlLm1hZT4nLCAnLW9tYWUnLCAnPG91dGZpbGUubWFlPic=

> <r_lp_tautomer_probability>
1

> <r_epik_Ionization_Penalty>
3.00907

> <r_epik_Ionization_Penalty_Charging>
0.148702

> <r_epik_Ionization_Penalty_Neutral>
2.86036

> <r_epik_State_Penalty>
2.85557

> <r_epik_Charging_Adjusted_Penalty>
3.00428

> <i_epik_Tot_Q>
0

> <i_epik_Tot_abs_Q>
2

> <r_epik_Metal_State_Penalty>
0.443779

> <b_epik_Metal_Only>
1

> <s_lp_Force_Field>
OPLS_2005

> <r_lp_Energy>
33.4181

> <b_lp_Chiralities_Consistent>
1

> <s_lp_Variant>
AV-unprocessed.smi:1748-7

> <Gold.Version>
5.8.1

> <Gold.Id.Protein>
6NUR|6NUR_protein|mol2

> <Gold.PLP.Fitness>
42.9972

> <Gold.PLP.PLP>
-30.3824

> <Gold.PLP.part.hbond>
-4.2050

> <Gold.PLP.part.metal>
0.0000

> <Gold.PLP.part.buried>
-0.0911

> <Gold.PLP.part.nonpolar>
-27.2016

> <Gold.PLP.part.repulsive>
0.8556

> <Gold.PLP.ligand.clash>
0.0000

> <Gold.PLP.ligand.torsion>
0.3090

> <Gold.PLP.Chemscore.Hbond>
4.3943

> <Gold.PLP.Chemscore.CHOScore>
0.0000

> <Gold.PLP.Chemscore.Metal>
0.0000

> <Gold.Chemscore.Hbonds>
donor molecule, donor type, donor heavy atom, donor atom, acceptor molecule, acceptor atom, score
      L1  H     2    39       P1  7948  2.00
      L1  H     7    33       P1  7948  0.83
      L1  H    10    34       P1  7948  0.58
      P1  H 10752 10765       L1    21  0.89

> <Gold.PLP.Chemscore.Internal.Correction>
0.0501

> <Gold.Rescore>
     Score         DG    S(hbond)    S(metal)    S(lipo)     H(rot)  DE(clash)    DE(int)     intcor
     17.45     -20.92       3.17        0.00      63.48       1.00       2.01       1.46       ----

> <Gold.Chemscore.Fitness>
17.4453

> <Gold.Chemscore.DG>
-20.9215

> <Gold.Chemscore.ZeroCoef>
-5.4800

> <Gold.Chemscore.Hbond>
3.1661

> <Gold.Chemscore.Metal>
0.0000

> <Gold.Chemscore.Lipo>
63.4778

> <Gold.Chemscore.Internal_Hbond>
0.0000

> <Gold.Chemscore.DEClash>
2.0114

> <Gold.Chemscore.DEInternal>
1.4648

> <Gold.Chemscore.Rot>
1.0000

> <Gold.Chemscore.Internal.Correction>
   9.000000E+99

> <Gold.Chemscore.Hbonds>
donor molecule, donor type, donor heavy atom, donor atom, acceptor molecule, acceptor atom, score
      L1  H     2    39       P1  7948  0.96
      L1  H     7    33       P1  7948  0.82
      L1  H    10    34       P1  7948  0.46
      P1  H 10752 10765       L1    21  0.82

> <Gold.Chemscore.Hbond.Weighted>
-10.5746

> <Gold.Chemscore.Metal.Weighted>
-0.0000

> <Gold.Chemscore.Lipo.Weighted>
-7.4269

> <Gold.Chemscore.Internal_Hbond.Weighted>
0.0000

> <Gold.Chemscore.DEClash.Weighted>
2.0114

> <Gold.Chemscore.DEInternal.Weighted>
1.4648

> <Gold.Chemscore.Rot.Weighted>
2.5600

> <Gold.Chemscore.Internal.Correction.Weighted>
   9.000000E+99

> <Gold.Protein.RotatedTorsions>
[ 6907 6896 6895 6894 ] final  168.58 input  -60.11 | X-H torsion
[ 7974 7965 7964 7962 ] final  146.54 input  175.53 | X-H torsion
[ 8008 7997 7996 7995 ] final -164.77 input   59.86 | X-H torsion
[ 10167 10162 10161 10158 ] final  102.57 input  -65.29 | X-H torsion
[ 10718 10713 10712 10709 ] final   94.76 input   66.30 | X-H torsion
[ 10763 10752 10751 10750 ] final  147.45 input  -60.55 | X-H torsion
[ 11005 11000 10999 10996 ] final -104.58 input  -57.11 | X-H torsion

> <Gold.Protein.ActiveResidues>
 VAL166  LYS551  ARG553  GLY616  TRP617  ASP618  TYR619  PRO620  LYS621  CYS622 
 ASP623  PHE694  ASN695  SER759  ASP760  ASP761  ALA762  ILE779  LEU786  VAL792 
 PHE793  MET794  SER795  GLU796  ALA797  LYS798  CYS799  TRP800  GLU811  SER814 

> <Gold.Protein.RotatedAtoms>
  151.8455  133.3431  159.3656 H   0  0  0  0  0  0  0  0  0  0  0  0  # atno 6907 bound_to 6896
  150.7222  134.5350  159.5728 H   0  0  0  0  0  0  0  0  0  0  0  0  # atno 6908 bound_to 6896
  152.2833  134.7805  160.0443 H   0  0  0  0  0  0  0  0  0  0  0  0  # atno 6909 bound_to 6896
  144.8663  139.5918  143.5907 H   0  0  0  0  0  0  0  0  0  0  0  0  # atno 7974 bound_to 7965
  155.8403  140.0947  157.1739 H   0  0  0  0  0  0  0  0  0  0  0  0  # atno 8008 bound_to 7997
  154.3982  140.1402  156.3781 H   0  0  0  0  0  0  0  0  0  0  0  0  # atno 8009 bound_to 7997
  155.8072  140.3451  155.5439 H   0  0  0  0  0  0  0  0  0  0  0  0  # atno 8010 bound_to 7997
  139.7338  144.7029  151.0681 H   0  0  0  0  0  0  0  0  0  0  0  0  # atno 10167 bound_to 10162
  157.6945  131.0523  150.4236 H   0  0  0  0  0  0  0  0  0  0  0  0  # atno 10718 bound_to 10713
  154.0385  135.2891  155.3358 H   0  0  0  0  0  0  0  0  0  0  0  0  # atno 10763 bound_to 10752
  154.6944  135.5213  153.8441 H   0  0  0  0  0  0  0  0  0  0  0  0  # atno 10764 bound_to 10752
  153.0610  135.6613  154.0591 H   0  0  0  0  0  0  0  0  0  0  0  0  # atno 10765 bound_to 10752
  141.1094  133.8735  157.1628 H   0  0  0  0  0  0  0  0  0  0  0  0  # atno 11005 bound_to 11000
  146.2898  139.7106  142.9169 LP  0  0  0  0  0  0  0  0  0  0  0  0  # atno 17320 bound_to 7965
  145.4216  141.0407  143.2961 LP  0  0  0  0  0  0  0  0  0  0  0  0  # atno 17321 bound_to 7965
  140.7775  143.5010  150.9772 LP  0  0  0  0  0  0  0  0  0  0  0  0  # atno 17342 bound_to 10162
  139.8698  143.7207  152.3167 LP  0  0  0  0  0  0  0  0  0  0  0  0  # atno 17343 bound_to 10162
  156.4609  130.4031  149.6577 LP  0  0  0  0  0  0  0  0  0  0  0  0  # atno 17370 bound_to 10713
  156.3692  130.7522  151.2503 LP  0  0  0  0  0  0  0  0  0  0  0  0  # atno 17371 bound_to 10713
  139.9980  135.0039  157.0126 LP  0  0  0  0  0  0  0  0  0  0  0  0  # atno 17394 bound_to 11000
  140.4816  134.1284  155.7218 LP  0  0  0  0  0  0  0  0  0  0  0  0  # atno 17395 bound_to 11000

$$$$
