AV-unprocessed.smi:2532|AV-procd|sdf|9971|dock8
  -GOLD-   2272014 13D 1   1.00000     0.00000
 Structure written by MMmdl.
 37 39  0  0  0  0  0  0  0  0  2 V2000
  152.9426  139.6625  154.6498 O   0  0  0  0  0  0  0  0  0  0  0  0
  151.7998  139.2507  155.3735 C   0  0  1  0  0  0  0  0  0  0  0  0
  151.6873  137.7221  155.2673 C   0  0  0  0  0  0  0  0  0  0  0  0
  150.4868  137.3094  155.8978 O   0  0  0  0  0  0  0  0  0  0  0  0
  149.7358  136.3981  155.1124 C   0  0  0  0  0  0  0  0  0  0  0  0
  150.2874  135.0310  155.3604 C   0  0  0  0  0  0  0  0  0  0  0  0
  151.1963  134.6662  156.3210 C   0  0  0  0  0  0  0  0  0  0  0  0
  151.5050  133.2742  156.3055 C   0  0  0  0  0  0  0  0  0  0  0  0
  150.8189  132.5889  155.3386 C   0  0  0  0  0  0  0  0  0  0  0  0
  149.7776  133.6447  154.4244 S   0  0  0  0  0  0  0  0  0  0  0  0
  151.9255  139.7208  156.8361 C   0  0  0  0  0  0  0  0  0  0  0  0
  151.4332  141.0916  157.0378 N   0  0  0  0  0  0  0  0  0  0  0  0
  150.5794  141.8266  156.2749 C   0  0  0  0  0  0  0  0  0  0  0  0
  150.4313  143.0402  156.8746 N   0  3  0  0  0  0  0  0  0  0  0  0
  151.2024  143.0826  158.0380 C   0  0  0  0  0  0  0  0  0  0  0  0
  151.3776  144.0943  158.9772 C   0  0  0  0  0  0  0  0  0  0  0  0
  152.2429  143.8142  160.0551 C   0  0  0  0  0  0  0  0  0  0  0  0
  152.8952  142.5693  160.1689 C   0  0  0  0  0  0  0  0  0  0  0  0
  152.7098  141.5510  159.2110 C   0  0  0  0  0  0  0  0  0  0  0  0
  151.8509  141.8342  158.1491 C   0  0  0  0  0  0  0  0  0  0  0  0
  152.6578  140.2022  153.9277 H   0  0  0  0  0  0  0  0  0  0  0  0
  150.9169  139.7136  154.9302 H   0  0  0  0  0  0  0  0  0  0  0  0
  151.7285  137.3935  154.2270 H   0  0  0  0  0  0  0  0  0  0  0  0
  152.5238  137.2530  155.7880 H   0  0  0  0  0  0  0  0  0  0  0  0
  148.6808  136.4392  155.3884 H   0  0  0  0  0  0  0  0  0  0  0  0
  149.8169  136.6459  154.0532 H   0  0  0  0  0  0  0  0  0  0  0  0
  151.6490  135.3460  157.0278 H   0  0  0  0  0  0  0  0  0  0  0  0
  152.2070  132.8303  156.9958 H   0  0  0  0  0  0  0  0  0  0  0  0
  150.8583  131.5340  155.1104 H   0  0  0  0  0  0  0  0  0  0  0  0
  151.3338  139.0736  157.4846 H   0  0  0  0  0  0  0  0  0  0  0  0
  152.9537  139.6480  157.1909 H   0  0  0  0  0  0  0  0  0  0  0  0
  150.1057  141.5053  155.3584 H   0  0  0  0  0  0  0  0  0  0  0  0
  150.8803  145.0494  158.8917 H   0  0  0  0  0  0  0  0  0  0  0  0
  152.4107  144.5699  160.8086 H   0  0  0  0  0  0  0  0  0  0  0  0
  153.5525  142.3912  161.0076 H   0  0  0  0  0  0  0  0  0  0  0  0
  153.2200  140.6041  159.3053 H   0  0  0  0  0  0  0  0  0  0  0  0
  149.8475  143.7838  156.5134 H   0  0  0  0  0  0  0  0  0  0  0  0
  1  2  1  0  0  0  0
  1 21  1  0  0  0  0
  2  3  1  0  0  0  0
  2 11  1  0  0  0  0
  2 22  1  0  0  0  0
  3  4  1  0  0  0  0
  3 23  1  0  0  0  0
  3 24  1  0  0  0  0
  4  5  1  0  0  0  0
  5  6  1  0  0  0  0
  5 25  1  0  0  0  0
  5 26  1  0  0  0  0
  6 10  1  0  0  0  0
  6  7  2  0  0  0  0
  7  8  1  0  0  0  0
  7 27  1  0  0  0  0
  8  9  2  0  0  0  0
  8 28  1  0  0  0  0
  9 10  1  0  0  0  0
  9 29  1  0  0  0  0
 11 12  1  0  0  0  0
 11 30  1  0  0  0  0
 11 31  1  0  0  0  0
 12 20  1  0  0  0  0
 12 13  1  0  0  0  0
 13 14  2  0  0  0  0
 13 32  1  0  0  0  0
 14 15  1  0  0  0  0
 14 37  1  0  0  0  0
 15 20  2  0  0  0  0
 15 16  1  0  0  0  0
 16 17  2  0  0  0  0
 16 33  1  0  0  0  0
 17 18  1  0  0  0  0
 17 34  1  0  0  0  0
 18 19  2  0  0  0  0
 18 35  1  0  0  0  0
 19 20  1  0  0  0  0
 19 36  1  0  0  0  0
M  CHG  1  14   1
M  END
> <s_m_source_file>
AV-unprocessed.smi

> <i_m_source_file_index>
2532

> <i_lp_mmshare_version>
43012

> <i_f3d_flags>
0

> <s_epik_input>
W2NIXTFbY0hdW2NIXVtjSF1jKGMxMiluKFtjSF1uMilbQ0gyXVtDQEhdKFtPSF0pW0NIMl1PW0NIMl1jM1tjSF1bY0hdW2NIXXMz

> <s_epik_cmdline>
J2VwaWtfcHl0aG9uJywgJy1waCcsICc3LjAnLCAnLXRuJywgJzgnLCAnLW1hJywgJzIwMCcsICctbWV0YWxfYmluZGluZycsICctaW1hZScsICc8aW5maWxlLm1hZT4nLCAnLW9tYWUnLCAnPG91dGZpbGUubWFlPic=

> <r_epik_Ionization_Penalty>
1.31758

> <r_epik_Ionization_Penalty_Charging>
1.31758

> <r_epik_Ionization_Penalty_Neutral>
1.26231e-06

> <r_epik_State_Penalty>
1.39289

> <r_epik_Charging_Adjusted_Penalty>
2.71047

> <i_epik_Tot_Q>
1

> <i_epik_Tot_abs_Q>
1

> <r_epik_Metal_State_Penalty>
5.42637

> <b_epik_Metal_Only>
0

> <s_lp_Force_Field>
OPLS_2005

> <r_lp_Energy>
15.1458

> <b_lp_Chiralities_Consistent>
1

> <s_lp_Variant>
AV-unprocessed.smi:2532-4

> <Gold.Version>
5.8.1

> <Gold.Id.Protein>
6NUR|6NUR_protein|mol2

> <Gold.PLP.Fitness>
51.6051

> <Gold.PLP.PLP>
-44.7880

> <Gold.PLP.part.hbond>
-3.0000

> <Gold.PLP.part.metal>
0.0000

> <Gold.PLP.part.buried>
-5.8926

> <Gold.PLP.part.nonpolar>
-35.0268

> <Gold.PLP.part.repulsive>
0.0843

> <Gold.PLP.ligand.clash>
0.0000

> <Gold.PLP.ligand.torsion>
1.1452

> <Gold.PLP.Chemscore.Hbond>
3.0000

> <Gold.PLP.Chemscore.CHOScore>
0.0000

> <Gold.PLP.Chemscore.Metal>
0.0000

> <Gold.Chemscore.Hbonds>
donor molecule, donor type, donor heavy atom, donor atom, acceptor molecule, acceptor atom, score
      L1  H    14    37       P1  8028  2.00
      P1  H  7997  8008       L1     1  1.00

> <Gold.PLP.Chemscore.Internal.Correction>
0.1075

> <Gold.Rescore>
     Score         DG    S(hbond)    S(metal)    S(lipo)     H(rot)  DE(clash)    DE(int)     intcor
     18.17     -19.29       1.94        0.00     116.43       2.46       0.01       1.11       ----

> <Gold.Chemscore.Fitness>
18.1691

> <Gold.Chemscore.DG>
-19.2903

> <Gold.Chemscore.ZeroCoef>
-5.4800

> <Gold.Chemscore.Hbond>
1.9425

> <Gold.Chemscore.Metal>
0.0000

> <Gold.Chemscore.Lipo>
116.4266

> <Gold.Chemscore.Internal_Hbond>
0.0000

> <Gold.Chemscore.DEClash>
0.0139

> <Gold.Chemscore.DEInternal>
1.1073

> <Gold.Chemscore.Rot>
2.4608

> <Gold.Chemscore.Internal.Correction>
   9.000000E+99

> <Gold.Chemscore.Hbonds>
donor molecule, donor type, donor heavy atom, donor atom, acceptor molecule, acceptor atom, score
      L1  H    14    37       P1  8028  0.98
      P1  H  7997  8008       L1     1  0.86

> <Gold.Chemscore.Hbond.Weighted>
-6.4881

> <Gold.Chemscore.Metal.Weighted>
-0.0000

> <Gold.Chemscore.Lipo.Weighted>
-13.6219

> <Gold.Chemscore.Internal_Hbond.Weighted>
0.0000

> <Gold.Chemscore.DEClash.Weighted>
0.0139

> <Gold.Chemscore.DEInternal.Weighted>
1.1073

> <Gold.Chemscore.Rot.Weighted>
6.2996

> <Gold.Chemscore.Internal.Correction.Weighted>
   9.000000E+99

> <Gold.Protein.RotatedTorsions>
[ 6907 6896 6895 6894 ] final  -39.88 input  -60.11 | X-H torsion
[ 7974 7965 7964 7962 ] final -114.59 input  175.53 | X-H torsion
[ 8008 7997 7996 7995 ] final   -1.73 input   59.86 | X-H torsion
[ 10167 10162 10161 10158 ] final  156.82 input  -65.29 | X-H torsion
[ 10718 10713 10712 10709 ] final -122.25 input   66.30 | X-H torsion
[ 10763 10752 10751 10750 ] final  161.27 input  -60.55 | X-H torsion
[ 11005 11000 10999 10996 ] final   77.13 input  -57.11 | X-H torsion

> <Gold.Protein.ActiveResidues>
 VAL166  LYS551  ARG553  GLY616  TRP617  ASP618  TYR619  PRO620  LYS621  CYS622 
 ASP623  PHE694  ASN695  SER759  ASP760  ASP761  ALA762  ILE779  LEU786  VAL792 
 PHE793  MET794  SER795  GLU796  ALA797  LYS798  CYS799  TRP800  GLU811  SER814 

> <Gold.Protein.RotatedAtoms>
  150.9850  134.9197  159.7866 H   0  0  0  0  0  0  0  0  0  0  0  0  # atno 6907 bound_to 6896
  152.5234  134.3359  159.9209 H   0  0  0  0  0  0  0  0  0  0  0  0  # atno 6908 bound_to 6896
  151.3365  133.3938  159.2702 H   0  0  0  0  0  0  0  0  0  0  0  0  # atno 6909 bound_to 6896
  145.1184  140.8654  143.3828 H   0  0  0  0  0  0  0  0  0  0  0  0  # atno 7974 bound_to 7965
  154.6435  140.2552  155.7295 H   0  0  0  0  0  0  0  0  0  0  0  0  # atno 8008 bound_to 7997
  156.2540  140.2882  156.0759 H   0  0  0  0  0  0  0  0  0  0  0  0  # atno 8009 bound_to 7997
  155.1560  140.0383  157.2822 H   0  0  0  0  0  0  0  0  0  0  0  0  # atno 8010 bound_to 7997
  139.4822  144.4974  151.8219 H   0  0  0  0  0  0  0  0  0  0  0  0  # atno 10167 bound_to 10162
  156.1403  130.6461  150.9761 H   0  0  0  0  0  0  0  0  0  0  0  0  # atno 10718 bound_to 10713
  154.2604  135.2768  155.2780 H   0  0  0  0  0  0  0  0  0  0  0  0  # atno 10763 bound_to 10752
  154.5389  135.5708  153.6825 H   0  0  0  0  0  0  0  0  0  0  0  0  # atno 10764 bound_to 10752
  152.9963  135.6246  154.2754 H   0  0  0  0  0  0  0  0  0  0  0  0  # atno 10765 bound_to 10752
  139.9268  134.7658  156.1483 H   0  0  0  0  0  0  0  0  0  0  0  0  # atno 11005 bound_to 11000
  145.0768  139.2990  143.5804 LP  0  0  0  0  0  0  0  0  0  0  0  0  # atno 17320 bound_to 7965
  146.3522  140.0261  142.8654 LP  0  0  0  0  0  0  0  0  0  0  0  0  # atno 17321 bound_to 7965
  140.4464  144.1916  150.5894 LP  0  0  0  0  0  0  0  0  0  0  0  0  # atno 17342 bound_to 10162
  140.4630  143.2441  151.9193 LP  0  0  0  0  0  0  0  0  0  0  0  0  # atno 17343 bound_to 10162
  157.6570  131.0887  150.7925 LP  0  0  0  0  0  0  0  0  0  0  0  0  # atno 17370 bound_to 10713
  156.8001  130.4918  149.5371 LP  0  0  0  0  0  0  0  0  0  0  0  0  # atno 17371 bound_to 10713
  141.0830  133.6746  156.2377 LP  0  0  0  0  0  0  0  0  0  0  0  0  # atno 17394 bound_to 11000
  140.6314  134.5260  157.5560 LP  0  0  0  0  0  0  0  0  0  0  0  0  # atno 17395 bound_to 11000

$$$$
