AV-unprocessed.smi:651|AV-procd|sdf|3185|dock8
  -GOLD-   22720 0113D 1   1.00000     0.00000
 Structure written by MMmdl.
 38 39  0  0  0  0  0  0  0  0  1 V2000
  153.1335  143.0225  162.4578 C   0  0  0  0  0  0  0  0  0  0  0  0
  152.6115  143.0140  161.0365 C   0  0  0  0  0  0  0  0  0  0  0  0
  152.2656  144.2168  160.3851 C   0  0  0  0  0  0  0  0  0  0  0  0
  151.7865  144.1497  159.0626 C   0  0  0  0  0  0  0  0  0  0  0  0
  151.6719  142.8873  158.4440 C   0  0  0  0  0  0  0  0  0  0  0  0
  151.1712  142.7604  157.0147 C   0  0  0  0  0  0  0  0  0  0  0  0
  149.9240  141.8756  156.9361 C   0  0  0  0  0  0  0  0  0  0  0  0
  150.0097  140.6718  157.1768 O   0  0  0  0  0  0  0  0  0  0  0  0
  148.7775  142.4754  156.5782 N   0  0  0  0  0  0  0  0  0  0  0  0
  147.4830  141.8094  156.4309 C   0  0  1  0  0  0  0  0  0  0  0  0
  146.3734  142.8241  156.0955 C   0  0  0  0  0  0  0  0  0  0  0  0
  145.5090  142.1932  154.9969 C   0  0  0  0  0  0  0  0  0  0  0  0
  145.9597  140.7336  154.8970 C   0  0  0  0  0  0  0  0  0  0  0  0
  147.4351  140.7214  155.3250 C   0  0  1  0  0  0  0  0  0  0  0  0
  148.3630  140.9732  154.1163 C   0  0  0  0  0  0  0  0  0  0  0  0
  148.4066  140.0227  153.1793 N   0  0  0  0  0  0  0  0  0  0  0  0
  149.0341  142.0003  154.0306 O   0  0  0  0  0  0  0  0  0  0  0  0
  152.0396  141.7446  159.1864 C   0  0  0  0  0  0  0  0  0  0  0  0
  152.5012  141.8000  160.4537 N   0  0  0  0  0  0  0  0  0  0  0  0
  153.4163  144.0291  162.7675 H   0  0  0  0  0  0  0  0  0  0  0  0
  154.0111  142.3817  162.5480 H   0  0  0  0  0  0  0  0  0  0  0  0
  152.3681  142.6558  163.1421 H   0  0  0  0  0  0  0  0  0  0  0  0
  152.3653  145.1697  160.8840 H   0  0  0  0  0  0  0  0  0  0  0  0
  151.5169  145.0513  158.5325 H   0  0  0  0  0  0  0  0  0  0  0  0
  150.9357  143.7460  156.6110 H   0  0  0  0  0  0  0  0  0  0  0  0
  151.9622  142.3431  156.3898 H   0  0  0  0  0  0  0  0  0  0  0  0
  148.8022  143.4677  156.3918 H   0  0  0  0  0  0  0  0  0  0  0  0
  147.2208  141.3375  157.3800 H   0  0  0  0  0  0  0  0  0  0  0  0
  145.7796  143.0417  156.9840 H   0  0  0  0  0  0  0  0  0  0  0  0
  146.7811  143.7731  155.7434 H   0  0  0  0  0  0  0  0  0  0  0  0
  144.4432  142.2772  155.2104 H   0  0  0  0  0  0  0  0  0  0  0  0
  145.6897  142.7024  154.0495 H   0  0  0  0  0  0  0  0  0  0  0  0
  145.3795  140.1247  155.5916 H   0  0  0  0  0  0  0  0  0  0  0  0
  145.7953  140.3235  153.8993 H   0  0  0  0  0  0  0  0  0  0  0  0
  147.6890  139.7502  155.7534 H   0  0  0  0  0  0  0  0  0  0  0  0
  148.9949  140.1412  152.3672 H   0  0  0  0  0  0  0  0  0  0  0  0
  147.8467  139.1892  153.2853 H   0  0  0  0  0  0  0  0  0  0  0  0
  151.9697  140.7591  158.7498 H   0  0  0  0  0  0  0  0  0  0  0  0
  1  2  1  0  0  0  0
  1 20  1  0  0  0  0
  1 21  1  0  0  0  0
  1 22  1  0  0  0  0
  2 19  1  0  0  0  0
  2  3  2  0  0  0  0
  3  4  1  0  0  0  0
  3 23  1  0  0  0  0
  4  5  2  0  0  0  0
  4 24  1  0  0  0  0
  5  6  1  0  0  0  0
  5 18  1  0  0  0  0
  6  7  1  0  0  0  0
  6 25  1  0  0  0  0
  6 26  1  0  0  0  0
  7  8  2  0  0  0  0
  7  9  1  0  0  0  0
  9 10  1  0  0  0  0
  9 27  1  0  0  0  0
 10 14  1  0  0  0  0
 10 11  1  0  0  0  0
 10 28  1  0  0  0  0
 11 12  1  0  0  0  0
 11 29  1  0  0  0  0
 11 30  1  0  0  0  0
 12 13  1  0  0  0  0
 12 31  1  0  0  0  0
 12 32  1  0  0  0  0
 13 14  1  0  0  0  0
 13 33  1  0  0  0  0
 13 34  1  0  0  0  0
 14 15  1  0  0  0  0
 14 35  1  0  0  0  0
 15 16  1  0  0  0  0
 15 17  2  0  0  0  0
 16 36  1  0  0  0  0
 16 37  1  0  0  0  0
 18 19  2  0  0  0  0
 18 38  1  0  0  0  0
M  END
> <s_m_source_file>
AV-unprocessed.smi

> <i_m_source_file_index>
651

> <i_lp_mmshare_version>
43012

> <i_f3d_flags>
0

> <s_epik_input>
W0NIM11jMVtjSF1bY0hdYyhbY0hdbjEpW0NIMl1DKD1PKVtOSF1bQ0BASF0yW0NIMl1bQ0gyXVtDSDJdW0NASF0yQyg9TylbTkgyXQ==

> <s_epik_cmdline>
J2VwaWtfcHl0aG9uJywgJy1waCcsICc3LjAnLCAnLXRuJywgJzgnLCAnLW1hJywgJzIwMCcsICctbWV0YWxfYmluZGluZycsICctaW1hZScsICc8aW5maWxlLm1hZT4nLCAnLW9tYWUnLCAnPG91dGZpbGUubWFlPic=

> <r_epik_Ionization_Penalty>
0.0159502

> <r_epik_Ionization_Penalty_Charging>
0

> <r_epik_Ionization_Penalty_Neutral>
0.0159502

> <r_epik_State_Penalty>
0.012563

> <r_epik_Charging_Adjusted_Penalty>
0.012563

> <i_epik_Tot_Q>
0

> <i_epik_Tot_abs_Q>
0

> <r_epik_Metal_State_Penalty>
0.0122326

> <b_epik_Metal_Only>
0

> <s_lp_Force_Field>
OPLS_2005

> <r_lp_Energy>
12.2285

> <b_lp_Chiralities_Consistent>
1

> <s_lp_Variant>
AV-unprocessed.smi:651-2

> <Gold.Version>
5.8.1

> <Gold.Id.Protein>
6NUR|6NUR_protein|mol2

> <Gold.PLP.Fitness>
44.0921

> <Gold.PLP.PLP>
-36.5412

> <Gold.PLP.part.hbond>
-3.6304

> <Gold.PLP.part.metal>
0.0000

> <Gold.PLP.part.buried>
-6.7911

> <Gold.PLP.part.nonpolar>
-26.7498

> <Gold.PLP.part.repulsive>
0.3496

> <Gold.PLP.ligand.clash>
0.0000

> <Gold.PLP.ligand.torsion>
0.1254

> <Gold.PLP.Chemscore.Hbond>
2.5920

> <Gold.PLP.Chemscore.CHOScore>
0.0000

> <Gold.PLP.Chemscore.Metal>
0.0000

> <Gold.Chemscore.Hbonds>
donor molecule, donor type, donor heavy atom, donor atom, acceptor molecule, acceptor atom, score
      L1  H     9    27       P1  8028  0.80
      L1  H    16    36       P1  7957  0.57
      P1  H  8011  8017       L1    17  0.42

> <Gold.PLP.Chemscore.Internal.Correction>
0.0257

> <Gold.Rescore>
     Score         DG    S(hbond)    S(metal)    S(lipo)     H(rot)  DE(clash)    DE(int)     intcor
     17.92     -19.82       2.60        0.00      91.50       1.97       0.03       1.88       ----

> <Gold.Chemscore.Fitness>
17.9208

> <Gold.Chemscore.DG>
-19.8222

> <Gold.Chemscore.ZeroCoef>
-5.4800

> <Gold.Chemscore.Hbond>
2.5990

> <Gold.Chemscore.Metal>
0.0000

> <Gold.Chemscore.Lipo>
91.5020

> <Gold.Chemscore.Internal_Hbond>
0.0000

> <Gold.Chemscore.DEClash>
0.0252

> <Gold.Chemscore.DEInternal>
1.8762

> <Gold.Chemscore.Rot>
1.9704

> <Gold.Chemscore.Internal.Correction>
   9.000000E+99

> <Gold.Chemscore.Hbonds>
donor molecule, donor type, donor heavy atom, donor atom, acceptor molecule, acceptor atom, score
      L1  H     9    27       P1  8028  0.71
      L1  H    16    36       P1  7957  0.56
      P1  H  8011  8017       L1    17  0.40

> <Gold.Chemscore.Hbond.Weighted>
-8.6808

> <Gold.Chemscore.Metal.Weighted>
-0.0000

> <Gold.Chemscore.Lipo.Weighted>
-10.7057

> <Gold.Chemscore.Internal_Hbond.Weighted>
0.0000

> <Gold.Chemscore.DEClash.Weighted>
0.0252

> <Gold.Chemscore.DEInternal.Weighted>
1.8762

> <Gold.Chemscore.Rot.Weighted>
5.0443

> <Gold.Chemscore.Internal.Correction.Weighted>
   9.000000E+99

> <Gold.Protein.RotatedTorsions>
[ 6907 6896 6895 6894 ] final -113.76 input  -60.11 | X-H torsion
[ 7974 7965 7964 7962 ] final -144.73 input  175.53 | X-H torsion
[ 8008 7997 7996 7995 ] final  123.03 input   59.86 | X-H torsion
[ 10167 10162 10161 10158 ] final -156.91 input  -65.29 | X-H torsion
[ 10718 10713 10712 10709 ] final   80.14 input   66.30 | X-H torsion
[ 10763 10752 10751 10750 ] final -143.07 input  -60.55 | X-H torsion
[ 11005 11000 10999 10996 ] final  139.26 input  -57.11 | X-H torsion

> <Gold.Protein.ActiveResidues>
 VAL166  LYS551  ARG553  GLY616  TRP617  ASP618  TYR619  PRO620  LYS621  CYS622 
 ASP623  PHE694  ASN695  SER759  ASP760  ASP761  ALA762  ILE779  LEU786  VAL792 
 PHE793  MET794  SER795  GLU796  ALA797  LYS798  CYS799  TRP800  GLU811  SER814 

> <Gold.Protein.RotatedAtoms>
  150.7852  133.8898  159.3309 H   0  0  0  0  0  0  0  0  0  0  0  0  # atno 6907 bound_to 6896
  151.6750  135.0968  160.0215 H   0  0  0  0  0  0  0  0  0  0  0  0  # atno 6908 bound_to 6896
  152.3914  133.6646  159.6276 H   0  0  0  0  0  0  0  0  0  0  0  0  # atno 6909 bound_to 6896
  144.8277  140.5673  143.5536 H   0  0  0  0  0  0  0  0  0  0  0  0  # atno 7974 bound_to 7965
  156.2750  140.2772  156.1562 H   0  0  0  0  0  0  0  0  0  0  0  0  # atno 8008 bound_to 7997
  155.0801  140.0387  157.2654 H   0  0  0  0  0  0  0  0  0  0  0  0  # atno 8009 bound_to 7997
  154.6971  140.2641  155.6761 H   0  0  0  0  0  0  0  0  0  0  0  0  # atno 8010 bound_to 7997
  139.6812  143.9578  152.2338 H   0  0  0  0  0  0  0  0  0  0  0  0  # atno 10167 bound_to 10162
  157.6797  130.9946  150.2036 H   0  0  0  0  0  0  0  0  0  0  0  0  # atno 10718 bound_to 10713
  154.8484  135.3478  154.6129 H   0  0  0  0  0  0  0  0  0  0  0  0  # atno 10763 bound_to 10752
  153.6737  135.6983  153.5143 H   0  0  0  0  0  0  0  0  0  0  0  0  # atno 10764 bound_to 10752
  153.2722  135.4289  155.0955 H   0  0  0  0  0  0  0  0  0  0  0  0  # atno 10765 bound_to 10752
  140.0242  134.9382  157.0535 H   0  0  0  0  0  0  0  0  0  0  0  0  # atno 11005 bound_to 11000
  145.4964  139.1485  143.3681 LP  0  0  0  0  0  0  0  0  0  0  0  0  # atno 17320 bound_to 7965
  146.2582  140.5103  142.8865 LP  0  0  0  0  0  0  0  0  0  0  0  0  # atno 17321 bound_to 7965
  139.9368  144.6707  150.8306 LP  0  0  0  0  0  0  0  0  0  0  0  0  # atno 17342 bound_to 10162
  140.7653  143.3271  151.2492 LP  0  0  0  0  0  0  0  0  0  0  0  0  # atno 17343 bound_to 10162
  156.2721  130.3723  149.8020 LP  0  0  0  0  0  0  0  0  0  0  0  0  # atno 17370 bound_to 10713
  156.5734  130.8434  151.3363 LP  0  0  0  0  0  0  0  0  0  0  0  0  # atno 17371 bound_to 10713
  140.4335  134.1756  155.7169 LP  0  0  0  0  0  0  0  0  0  0  0  0  # atno 17394 bound_to 11000
  141.1792  133.8449  157.1315 LP  0  0  0  0  0  0  0  0  0  0  0  0  # atno 17395 bound_to 11000

$$$$
