AV-unprocessed.smi:1163|AV-procd|sdf|4921|dock4
  -GOLD-   22720 3503D 1   1.00000     0.00000
 Structure written by MMmdl.
 39 40  0  0  0  0  0  0  0  0  1 V2000
  144.4724  131.7965  150.6981 C   0  0  0  0  0  0  0  0  0  0  0  0
  144.9438  132.4542  151.8693 O   0  0  0  0  0  0  0  0  0  0  0  0
  145.1653  133.8152  151.8117 C   0  0  0  0  0  0  0  0  0  0  0  0
  145.5809  134.4809  152.9818 C   0  0  0  0  0  0  0  0  0  0  0  0
  145.8117  135.8684  152.9265 C   0  0  0  0  0  0  0  0  0  0  0  0
  145.6294  136.5487  151.7058 C   0  0  0  0  0  0  0  0  0  0  0  0
  145.8555  137.9514  151.6860 N   0  0  0  0  0  0  0  0  0  0  0  0
  146.5624  138.6996  152.5503 C   0  0  0  0  0  0  0  0  0  0  0  0
  147.1351  138.2772  153.5545 O   0  0  0  0  0  0  0  0  0  0  0  0
  146.5500  139.9903  152.1895 N   0  0  0  0  0  0  0  0  0  0  0  0
  147.1965  141.0846  152.9083 C   0  0  1  0  0  0  0  0  0  0  0  0
  146.4449  141.4665  154.1809 C   0  0  0  0  0  0  0  0  0  0  0  0
  147.5642  141.7047  155.1878 C   0  0  0  0  0  0  0  0  0  0  0  0
  148.5241  140.6665  154.8464 N   0  0  0  0  0  0  0  0  0  0  0  0
  149.8117  140.8870  155.5016 C   0  0  0  0  0  0  0  0  0  0  0  0
  150.6067  139.5855  155.7245 C   0  0  0  0  0  0  0  0  0  0  0  0
  151.8021  139.8976  156.2231 F   0  0  0  0  0  0  0  0  0  0  0  0
  149.9767  138.7976  156.5966 F   0  0  0  0  0  0  0  0  0  0  0  0
  150.7928  138.9216  154.5836 F   0  0  0  0  0  0  0  0  0  0  0  0
  148.5977  140.6749  153.3873 C   0  0  0  0  0  0  0  0  0  0  0  0
  145.1967  135.7926  150.5890 C   0  0  0  0  0  0  0  0  0  0  0  0
  144.9723  134.4622  150.6359 N   0  0  0  0  0  0  0  0  0  0  0  0
  144.3600  130.7319  150.9024 H   0  0  0  0  0  0  0  0  0  0  0  0
  145.1753  131.9011  149.8701 H   0  0  0  0  0  0  0  0  0  0  0  0
  143.4978  132.1795  150.3919 H   0  0  0  0  0  0  0  0  0  0  0  0
  145.7197  133.9369  153.9043 H   0  0  0  0  0  0  0  0  0  0  0  0
  146.1291  136.4003  153.8117 H   0  0  0  0  0  0  0  0  0  0  0  0
  145.3775  138.4551  150.9534 H   0  0  0  0  0  0  0  0  0  0  0  0
  146.0478  140.2407  151.3504 H   0  0  0  0  0  0  0  0  0  0  0  0
  147.2986  141.9678  152.2752 H   0  0  0  0  0  0  0  0  0  0  0  0
  145.8101  142.3428  154.0466 H   0  0  0  0  0  0  0  0  0  0  0  0
  145.8132  140.6457  154.5249 H   0  0  0  0  0  0  0  0  0  0  0  0
  148.0045  142.6921  155.0383 H   0  0  0  0  0  0  0  0  0  0  0  0
  147.2252  141.6270  156.2212 H   0  0  0  0  0  0  0  0  0  0  0  0
  150.4063  141.6072  154.9374 H   0  0  0  0  0  0  0  0  0  0  0  0
  149.6180  141.3393  156.4753 H   0  0  0  0  0  0  0  0  0  0  0  0
  148.9112  139.7031  153.0043 H   0  0  0  0  0  0  0  0  0  0  0  0
  149.3237  141.4175  153.0519 H   0  0  0  0  0  0  0  0  0  0  0  0
  144.9997  136.2462  149.6304 H   0  0  0  0  0  0  0  0  0  0  0  0
  1  2  1  0  0  0  0
  1 23  1  0  0  0  0
  1 24  1  0  0  0  0
  1 25  1  0  0  0  0
  2  3  1  0  0  0  0
  3 22  1  0  0  0  0
  3  4  2  0  0  0  0
  4  5  1  0  0  0  0
  4 26  1  0  0  0  0
  5  6  2  0  0  0  0
  5 27  1  0  0  0  0
  6  7  1  0  0  0  0
  6 21  1  0  0  0  0
  7  8  1  0  0  0  0
  7 28  1  0  0  0  0
  8  9  2  0  0  0  0
  8 10  1  0  0  0  0
 10 11  1  0  0  0  0
 10 29  1  0  0  0  0
 11 20  1  0  0  0  0
 11 12  1  0  0  0  0
 11 30  1  0  0  0  0
 12 13  1  0  0  0  0
 12 31  1  0  0  0  0
 12 32  1  0  0  0  0
 13 14  1  0  0  0  0
 13 33  1  0  0  0  0
 13 34  1  0  0  0  0
 14 15  1  0  0  0  0
 14 20  1  0  0  0  0
 15 16  1  0  0  0  0
 15 35  1  0  0  0  0
 15 36  1  0  0  0  0
 16 17  1  0  0  0  0
 16 18  1  0  0  0  0
 16 19  1  0  0  0  0
 20 37  1  0  0  0  0
 20 38  1  0  0  0  0
 21 22  2  0  0  0  0
 21 39  1  0  0  0  0
M  END
> <s_m_source_file>
AV-unprocessed.smi

> <i_m_source_file_index>
1163

> <i_lp_mmshare_version>
43012

> <i_f3d_flags>
0

> <s_epik_input>
W0NIM11PYzFbY0hdW2NIXWMoW2NIXW4xKVtOSF1DKD1PKVtOSF1bQ0BASF0yW0NIMl1bQ0gyXU4oW0NIMl0yKVtDSDJdQyhGKShGKUY=

> <s_epik_cmdline>
J2VwaWtfcHl0aG9uJywgJy1waCcsICc3LjAnLCAnLXRuJywgJzgnLCAnLW1hJywgJzIwMCcsICctbWV0YWxfYmluZGluZycsICctaW1hZScsICc8aW5maWxlLm1hZT4nLCAnLW9tYWUnLCAnPG91dGZpbGUubWFlPic=

> <r_lp_tautomer_probability>
1

> <r_epik_Ionization_Penalty>
0.0970123

> <r_epik_Ionization_Penalty_Charging>
0

> <r_epik_Ionization_Penalty_Neutral>
0.0970123

> <r_epik_State_Penalty>
0.0870533

> <r_epik_Charging_Adjusted_Penalty>
0.0870533

> <i_epik_Tot_Q>
0

> <i_epik_Tot_abs_Q>
0

> <r_epik_Metal_State_Penalty>
0.0870519

> <b_epik_Metal_Only>
0

> <s_lp_Force_Field>
OPLS_2005

> <r_lp_Energy>
29.6524

> <b_lp_Chiralities_Consistent>
1

> <s_lp_Variant>
AV-unprocessed.smi:1163-2

> <Gold.Version>
5.8.1

> <Gold.Id.Protein>
6NUR|6NUR_protein|mol2

> <Gold.PLP.Fitness>
39.3571

> <Gold.PLP.PLP>
-34.1290

> <Gold.PLP.part.hbond>
-2.2585

> <Gold.PLP.part.metal>
0.0000

> <Gold.PLP.part.buried>
0.0370

> <Gold.PLP.part.nonpolar>
-32.1254

> <Gold.PLP.part.repulsive>
0.7063

> <Gold.PLP.ligand.clash>
0.0000

> <Gold.PLP.ligand.torsion>
0.6341

> <Gold.PLP.Chemscore.Hbond>
1.0000

> <Gold.PLP.Chemscore.CHOScore>
0.9979

> <Gold.PLP.Chemscore.Metal>
0.0000

> <Gold.Chemscore.Hbonds>
donor molecule, donor type, donor heavy atom, donor atom, acceptor molecule, acceptor atom, score
      L1  H     7    28       P1 10171  0.98
      L1  C    21    39       P1  7921  0.38
      L1  C    21    39       P1 10171  0.60

> <Gold.PLP.Chemscore.Internal.Correction>
0.5026

> <Gold.Rescore>
     Score         DG    S(hbond)    S(metal)    S(lipo)     H(rot)  DE(clash)    DE(int)     intcor
      6.85     -12.51       1.00        0.00      67.71       1.65       1.49       4.17       ----

> <Gold.Chemscore.Fitness>
6.8521

> <Gold.Chemscore.DG>
-12.5131

> <Gold.Chemscore.ZeroCoef>
-5.4800

> <Gold.Chemscore.Hbond>
0.9999

> <Gold.Chemscore.Metal>
0.0000

> <Gold.Chemscore.Lipo>
67.7051

> <Gold.Chemscore.Internal_Hbond>
0.0000

> <Gold.Chemscore.DEClash>
1.4874

> <Gold.Chemscore.DEInternal>
4.1736

> <Gold.Chemscore.Rot>
1.6515

> <Gold.Chemscore.Internal.Correction>
   9.000000E+99

> <Gold.Chemscore.Hbonds>
donor molecule, donor type, donor heavy atom, donor atom, acceptor molecule, acceptor atom, score
      L1  H     7    28       P1 10171  0.93

> <Gold.Chemscore.Hbond.Weighted>
-3.3395

> <Gold.Chemscore.Metal.Weighted>
-0.0000

> <Gold.Chemscore.Lipo.Weighted>
-7.9215

> <Gold.Chemscore.Internal_Hbond.Weighted>
0.0000

> <Gold.Chemscore.DEClash.Weighted>
1.4874

> <Gold.Chemscore.DEInternal.Weighted>
4.1736

> <Gold.Chemscore.Rot.Weighted>
4.2279

> <Gold.Chemscore.Internal.Correction.Weighted>
   9.000000E+99

> <Gold.Protein.RotatedTorsions>
[ 6907 6896 6895 6894 ] final -146.77 input  -60.11 | X-H torsion
[ 7974 7965 7964 7962 ] final -108.76 input  175.53 | X-H torsion
[ 8008 7997 7996 7995 ] final  118.06 input   59.86 | X-H torsion
[ 10167 10162 10161 10158 ] final -100.70 input  -65.29 | X-H torsion
[ 10718 10713 10712 10709 ] final  114.26 input   66.30 | X-H torsion
[ 10763 10752 10751 10750 ] final   68.73 input  -60.55 | X-H torsion
[ 11005 11000 10999 10996 ] final -152.58 input  -57.11 | X-H torsion

> <Gold.Protein.ActiveResidues>
 VAL166  LYS551  ARG553  GLY616  TRP617  ASP618  TYR619  PRO620  LYS621  CYS622 
 ASP623  PHE694  ASN695  SER759  ASP760  ASP761  ALA762  ILE779  LEU786  VAL792 
 PHE793  MET794  SER795  GLU796  ALA797  LYS798  CYS799  TRP800  GLU811  SER814 

> <Gold.Protein.RotatedAtoms>
  151.1463  133.4937  159.2595 H   0  0  0  0  0  0  0  0  0  0  0  0  # atno 6907 bound_to 6896
  151.1601  135.0269  159.8716 H   0  0  0  0  0  0  0  0  0  0  0  0  # atno 6908 bound_to 6896
  152.5463  134.1338  159.8503 H   0  0  0  0  0  0  0  0  0  0  0  0  # atno 6909 bound_to 6896
  145.1888  140.9005  143.3436 H   0  0  0  0  0  0  0  0  0  0  0  0  # atno 7974 bound_to 7965
  156.2527  140.2883  156.0776 H   0  0  0  0  0  0  0  0  0  0  0  0  # atno 8008 bound_to 7997
  155.1602  140.0399  157.2858 H   0  0  0  0  0  0  0  0  0  0  0  0  # atno 8009 bound_to 7997
  154.6398  140.2519  155.7342 H   0  0  0  0  0  0  0  0  0  0  0  0  # atno 8010 bound_to 7997
  140.2492  143.3484  152.0731 H   0  0  0  0  0  0  0  0  0  0  0  0  # atno 10167 bound_to 10162
  157.6291  131.0996  150.7160 H   0  0  0  0  0  0  0  0  0  0  0  0  # atno 10718 bound_to 10713
  153.0250  135.5236  154.7180 H   0  0  0  0  0  0  0  0  0  0  0  0  # atno 10763 bound_to 10752
  154.6243  135.2892  155.0292 H   0  0  0  0  0  0  0  0  0  0  0  0  # atno 10764 bound_to 10752
  154.1267  135.6599  153.4966 H   0  0  0  0  0  0  0  0  0  0  0  0  # atno 10765 bound_to 10752
  140.7174  134.3766  157.5189 H   0  0  0  0  0  0  0  0  0  0  0  0  # atno 11005 bound_to 11000
  145.0061  139.3552  143.6143 LP  0  0  0  0  0  0  0  0  0  0  0  0  # atno 17320 bound_to 7965
  146.3440  139.9305  142.8754 LP  0  0  0  0  0  0  0  0  0  0  0  0  # atno 17321 bound_to 7965
  139.5052  144.6790  151.6057 LP  0  0  0  0  0  0  0  0  0  0  0  0  # atno 17342 bound_to 10162
  140.6054  143.9534  150.6415 LP  0  0  0  0  0  0  0  0  0  0  0  0  # atno 17343 bound_to 10162
  156.7502  130.4766  149.5458 LP  0  0  0  0  0  0  0  0  0  0  0  0  # atno 17370 bound_to 10713
  156.1483  130.6292  151.0561 LP  0  0  0  0  0  0  0  0  0  0  0  0  # atno 17371 bound_to 10713
  139.8856  134.8931  156.2631 LP  0  0  0  0  0  0  0  0  0  0  0  0  # atno 17394 bound_to 11000
  141.0033  133.7138  156.0995 LP  0  0  0  0  0  0  0  0  0  0  0  0  # atno 17395 bound_to 11000

$$$$
