AV-unprocessed.smi:1786|AV-procd|sdf|7204|dock5
  -GOLD-   22720 8443D 1   1.00000     0.00000
 Structure written by MMmdl.
 44 45  0  0  0  0  0  0  0  0  2 V2000
  146.2448  136.2893  156.2315 C   0  0  0  0  0  0  0  0  0  0  0  0
  146.8345  136.3389  154.8049 C   0  0  2  0  0  0  0  0  0  0  0  0
  145.9818  135.5495  153.7891 C   0  0  0  0  0  0  0  0  0  0  0  0
  146.1263  134.0311  153.9700 C   0  0  0  0  0  0  0  0  0  0  0  0
  147.6068  133.6342  153.9234 C   0  0  0  0  0  0  0  0  0  0  0  0
  148.4303  134.4365  154.9441 C   0  0  0  0  0  0  0  0  0  0  0  0
  148.2610  135.9010  154.7363 N   0  3  2  0  0  0  0  0  0  0  0  0
  149.1798  136.7260  155.5614 C   0  0  0  0  0  0  0  0  0  0  0  0
  149.6021  138.0208  154.8425 C   0  0  0  0  0  0  0  0  0  0  0  0
  149.3969  139.1894  155.6886 N   0  0  0  0  0  0  0  0  0  0  0  0
  150.3633  140.0384  156.0790 C   0  0  0  0  0  0  0  0  0  0  0  0
  151.5405  139.8963  155.7501 O   0  0  0  0  0  0  0  0  0  0  0  0
  149.9788  141.2264  156.9784 C   0  0  0  0  0  0  0  0  0  0  0  0
  151.0215  141.6547  157.9283 N   0  0  0  0  0  0  0  0  0  0  0  0
  151.5381  142.9554  157.7639 C   0  0  0  0  0  0  0  0  0  0  0  0
  152.4897  143.4491  158.5718 C   0  0  0  0  0  0  0  0  0  0  0  0
  152.9841  142.6087  159.6364 C   0  0  0  0  0  0  0  0  0  0  0  0
  152.4998  141.3615  159.8003 C   0  0  0  0  0  0  0  0  0  0  0  0
  151.4651  140.8150  158.9145 C   0  0  0  0  0  0  0  0  0  0  0  0
  151.0299  139.6709  159.0449 O   0  0  0  0  0  0  0  0  0  0  0  0
  145.2125  136.6402  156.2321 H   0  0  0  0  0  0  0  0  0  0  0  0
  146.7960  136.9291  156.9204 H   0  0  0  0  0  0  0  0  0  0  0  0
  146.2427  135.2819  156.6465 H   0  0  0  0  0  0  0  0  0  0  0  0
  146.8076  137.3824  154.4878 H   0  0  0  0  0  0  0  0  0  0  0  0
  144.9331  135.8383  153.8681 H   0  0  0  0  0  0  0  0  0  0  0  0
  146.2926  135.8161  152.7779 H   0  0  0  0  0  0  0  0  0  0  0  0
  145.6885  133.7214  154.9194 H   0  0  0  0  0  0  0  0  0  0  0  0
  145.5732  133.5064  153.1904 H   0  0  0  0  0  0  0  0  0  0  0  0
  147.7124  132.5661  154.1158 H   0  0  0  0  0  0  0  0  0  0  0  0
  148.0000  133.8075  152.9208 H   0  0  0  0  0  0  0  0  0  0  0  0
  148.1440  134.1651  155.9606 H   0  0  0  0  0  0  0  0  0  0  0  0
  149.4790  134.1606  154.8389 H   0  0  0  0  0  0  0  0  0  0  0  0
  148.6815  137.0061  156.4908 H   0  0  0  0  0  0  0  0  0  0  0  0
  150.0503  136.1322  155.8444 H   0  0  0  0  0  0  0  0  0  0  0  0
  150.6454  137.9840  154.5275 H   0  0  0  0  0  0  0  0  0  0  0  0
  149.0101  138.1521  153.9364 H   0  0  0  0  0  0  0  0  0  0  0  0
  148.4524  139.3725  155.9964 H   0  0  0  0  0  0  0  0  0  0  0  0
  149.7019  142.0602  156.3318 H   0  0  0  0  0  0  0  0  0  0  0  0
  149.0607  140.9721  157.5110 H   0  0  0  0  0  0  0  0  0  0  0  0
  151.1174  143.5169  156.9422 H   0  0  0  0  0  0  0  0  0  0  0  0
  152.8756  144.4478  158.4287 H   0  0  0  0  0  0  0  0  0  0  0  0
  153.7451  142.9824  160.3057 H   0  0  0  0  0  0  0  0  0  0  0  0
  152.8811  140.7477  160.6031 H   0  0  0  0  0  0  0  0  0  0  0  0
  148.5363  136.0741  153.7801 H   0  0  0  0  0  0  0  0  0  0  0  0
  1  2  1  0  0  0  0
  1 21  1  0  0  0  0
  1 22  1  0  0  0  0
  1 23  1  0  0  0  0
  2  7  1  0  0  0  0
  2  3  1  0  0  0  0
  2 24  1  0  0  0  0
  3  4  1  0  0  0  0
  3 25  1  0  0  0  0
  3 26  1  0  0  0  0
  4  5  1  0  0  0  0
  4 27  1  0  0  0  0
  4 28  1  0  0  0  0
  5  6  1  0  0  0  0
  5 29  1  0  0  0  0
  5 30  1  0  0  0  0
  6  7  1  0  0  0  0
  6 31  1  0  0  0  0
  6 32  1  0  0  0  0
  7  8  1  0  0  0  0
  7 44  1  0  0  0  0
  8  9  1  0  0  0  0
  8 33  1  0  0  0  0
  8 34  1  0  0  0  0
  9 10  1  0  0  0  0
  9 35  1  0  0  0  0
  9 36  1  0  0  0  0
 10 11  1  0  0  0  0
 10 37  1  0  0  0  0
 11 12  2  0  0  0  0
 11 13  1  0  0  0  0
 13 14  1  0  0  0  0
 13 38  1  0  0  0  0
 13 39  1  0  0  0  0
 14 19  1  0  0  0  0
 14 15  1  0  0  0  0
 15 16  2  0  0  0  0
 15 40  1  0  0  0  0
 16 17  1  0  0  0  0
 16 41  1  0  0  0  0
 17 18  2  0  0  0  0
 17 42  1  0  0  0  0
 18 19  1  0  0  0  0
 18 43  1  0  0  0  0
 19 20  2  0  0  0  0
M  CHG  1   7   1
M  END
> <s_m_source_file>
AV-unprocessed.smi

> <i_m_source_file_index>
1786

> <i_lp_mmshare_version>
43012

> <i_f3d_flags>
0

> <s_epik_input>
W0NIM11bQ0BASF0xW0NIMl1bQ0gyXVtDSDJdW0NIMl1OMVtDSDJdW0NIMl1bTkhdQyg9TylbQ0gyXW4yW2NIXVtjSF1bY0hdW2NIXWMyPU8=

> <s_epik_cmdline>
J2VwaWtfcHl0aG9uJywgJy1waCcsICc3LjAnLCAnLXRuJywgJzgnLCAnLW1hJywgJzIwMCcsICctbWV0YWxfYmluZGluZycsICctaW1hZScsICc8aW5maWxlLm1hZT4nLCAnLW9tYWUnLCAnPG91dGZpbGUubWFlPic=

> <r_lp_tautomer_probability>
1

> <r_epik_Ionization_Penalty>
0.00237247

> <r_epik_Ionization_Penalty_Charging>
0.00237238

> <r_epik_Ionization_Penalty_Neutral>
8.2065e-08

> <r_epik_State_Penalty>
0.00163922

> <r_epik_Charging_Adjusted_Penalty>
0.0040116

> <i_epik_Tot_Q>
1

> <i_epik_Tot_abs_Q>
1

> <r_epik_Metal_State_Penalty>
-0

> <b_epik_Metal_Only>
0

> <s_lp_Force_Field>
OPLS_2005

> <r_lp_Energy>
28.5406

> <b_lp_Chiralities_Consistent>
1

> <s_lp_Variant>
AV-unprocessed.smi:1786-3

> <Gold.Version>
5.8.1

> <Gold.Id.Protein>
6NUR|6NUR_protein|mol2

> <Gold.PLP.Fitness>
45.9475

> <Gold.PLP.PLP>
-36.6575

> <Gold.PLP.part.hbond>
-2.0000

> <Gold.PLP.part.metal>
0.0000

> <Gold.PLP.part.buried>
-2.6677

> <Gold.PLP.part.nonpolar>
-31.4653

> <Gold.PLP.part.repulsive>
0.0917

> <Gold.PLP.ligand.clash>
0.0000

> <Gold.PLP.ligand.torsion>
1.0678

> <Gold.PLP.Chemscore.Hbond>
2.7840

> <Gold.PLP.Chemscore.CHOScore>
1.0000

> <Gold.PLP.Chemscore.Metal>
0.0000

> <Gold.Chemscore.Hbonds>
donor molecule, donor type, donor heavy atom, donor atom, acceptor molecule, acceptor atom, score
      L1  H     7    44       P1  7948  2.00
      L1  C    15    40       P1  8028  0.26

> <Gold.PLP.Chemscore.Internal.Correction>
0.0737

> <Gold.Rescore>
     Score         DG    S(hbond)    S(metal)    S(lipo)     H(rot)  DE(clash)    DE(int)     intcor
     15.13     -16.03       1.84        0.00      78.28       1.86       0.12       0.79       ----

> <Gold.Chemscore.Fitness>
15.1294

> <Gold.Chemscore.DG>
-16.0321

> <Gold.Chemscore.ZeroCoef>
-5.4800

> <Gold.Chemscore.Hbond>
1.8417

> <Gold.Chemscore.Metal>
0.0000

> <Gold.Chemscore.Lipo>
78.2804

> <Gold.Chemscore.Internal_Hbond>
0.0000

> <Gold.Chemscore.DEClash>
0.1176

> <Gold.Chemscore.DEInternal>
0.7851

> <Gold.Chemscore.Rot>
1.8586

> <Gold.Chemscore.Internal.Correction>
   9.000000E+99

> <Gold.Chemscore.Hbonds>
donor molecule, donor type, donor heavy atom, donor atom, acceptor molecule, acceptor atom, score
      L1  H     7    44       P1  7948  0.99
      P1  H  7989  7998       L1    12  0.02

> <Gold.Chemscore.Hbond.Weighted>
-6.1514

> <Gold.Chemscore.Metal.Weighted>
-0.0000

> <Gold.Chemscore.Lipo.Weighted>
-9.1588

> <Gold.Chemscore.Internal_Hbond.Weighted>
0.0000

> <Gold.Chemscore.DEClash.Weighted>
0.1176

> <Gold.Chemscore.DEInternal.Weighted>
0.7851

> <Gold.Chemscore.Rot.Weighted>
4.7581

> <Gold.Chemscore.Internal.Correction.Weighted>
   9.000000E+99

> <Gold.Protein.RotatedTorsions>
[ 6907 6896 6895 6894 ] final   59.18 input  -60.11 | X-H torsion
[ 7974 7965 7964 7962 ] final  -57.73 input  175.53 | X-H torsion
[ 8008 7997 7996 7995 ] final  -55.65 input   59.86 | X-H torsion
[ 10167 10162 10161 10158 ] final -127.72 input  -65.29 | X-H torsion
[ 10718 10713 10712 10709 ] final  122.79 input   66.30 | X-H torsion
[ 10763 10752 10751 10750 ] final -142.51 input  -60.55 | X-H torsion
[ 11005 11000 10999 10996 ] final  117.26 input  -57.11 | X-H torsion

> <Gold.Protein.ActiveResidues>
 VAL166  LYS551  ARG553  GLY616  TRP617  ASP618  TYR619  PRO620  LYS621  CYS622 
 ASP623  PHE694  ASN695  SER759  ASP760  ASP761  ALA762  ILE779  LEU786  VAL792 
 PHE793  MET794  SER795  GLU796  ALA797  LYS798  CYS799  TRP800  GLU811  SER814 

> <Gold.Protein.RotatedAtoms>
  152.3891  134.6469  160.0113 H   0  0  0  0  0  0  0  0  0  0  0  0  # atno 6907 bound_to 6896
  151.6709  133.3308  159.3204 H   0  0  0  0  0  0  0  0  0  0  0  0  # atno 6908 bound_to 6896
  150.7811  134.6800  159.6483 H   0  0  0  0  0  0  0  0  0  0  0  0  # atno 6909 bound_to 6896
  145.8477  140.8374  143.0002 H   0  0  0  0  0  0  0  0  0  0  0  0  # atno 7974 bound_to 7965
  154.4202  140.1148  156.5511 H   0  0  0  0  0  0  0  0  0  0  0  0  # atno 8008 bound_to 7997
  155.6409  140.3496  155.4695 H   0  0  0  0  0  0  0  0  0  0  0  0  # atno 8009 bound_to 7997
  155.9871  140.1172  157.0662 H   0  0  0  0  0  0  0  0  0  0  0  0  # atno 8010 bound_to 7997
  139.9579  143.5983  152.2455 H   0  0  0  0  0  0  0  0  0  0  0  0  # atno 10167 bound_to 10162
  157.5715  131.1083  150.8358 H   0  0  0  0  0  0  0  0  0  0  0  0  # atno 10718 bound_to 10713
  154.8506  135.3494  154.6040 H   0  0  0  0  0  0  0  0  0  0  0  0  # atno 10763 bound_to 10752
  153.6648  135.6988  153.5170 H   0  0  0  0  0  0  0  0  0  0  0  0  # atno 10764 bound_to 10752
  153.2789  135.4270  155.1016 H   0  0  0  0  0  0  0  0  0  0  0  0  # atno 10765 bound_to 10752
  139.9068  134.9608  156.7323 H   0  0  0  0  0  0  0  0  0  0  0  0  # atno 11005 bound_to 11000
  144.6730  140.0906  143.7465 LP  0  0  0  0  0  0  0  0  0  0  0  0  # atno 17320 bound_to 7965
  145.9393  139.2658  143.1278 LP  0  0  0  0  0  0  0  0  0  0  0  0  # atno 17321 bound_to 7965
  139.6577  144.7662  151.2023 LP  0  0  0  0  0  0  0  0  0  0  0  0  # atno 17342 bound_to 10162
  140.7562  143.6059  150.8653 LP  0  0  0  0  0  0  0  0  0  0  0  0  # atno 17343 bound_to 10162
  156.8829  130.5185  149.5290 LP  0  0  0  0  0  0  0  0  0  0  0  0  # atno 17370 bound_to 10713
  156.0760  130.5782  150.9474 LP  0  0  0  0  0  0  0  0  0  0  0  0  # atno 17371 bound_to 10713
  140.6915  133.9386  155.7969 LP  0  0  0  0  0  0  0  0  0  0  0  0  # atno 17394 bound_to 11000
  141.0438  134.0583  157.3869 LP  0  0  0  0  0  0  0  0  0  0  0  0  # atno 17395 bound_to 11000

$$$$
