AV-unprocessed.smi:156|AV-procd|sdf|1290|dock9
  -GOLD-   2262018573D 1   1.00000     0.00000
 Structure written by MMmdl.
 51 53  0  0  0  0  0  0  0  0  1 V2000
  147.3715  139.2209  157.1579 C   0  0  0  0  0  0  0  0  0  0  0  0
  147.8798  138.6146  155.8360 C   0  0  1  0  0  0  0  0  0  0  0  0
  149.4279  138.5988  155.6731 C   0  0  1  0  0  0  0  0  0  0  0  0
  149.8564  137.6122  154.5687 C   0  0  0  0  0  0  0  0  0  0  0  0
  150.0933  140.2978  155.3006 S   0  0  0  0  0  0  0  0  0  0  0  0
  149.7447  141.2516  156.8378 C   0  0  0  0  0  0  0  0  0  0  0  0
  151.5527  140.2050  155.1427 O   0  0  0  0  0  0  0  0  0  0  0  0
  149.2839  140.8928  154.2261 O   0  0  0  0  0  0  0  0  0  0  0  0
  147.2948  137.2786  155.6491 N   0  0  0  0  0  0  0  0  0  0  0  0
  146.8556  136.4946  156.7997 C   0  0  0  0  0  0  0  0  0  0  0  0
  146.8097  136.9524  154.4219 C   0  0  0  0  0  0  0  0  0  0  0  0
  146.2577  137.9426  153.6722 N   0  0  0  0  0  0  0  0  0  0  0  0
  145.7735  137.6842  152.4547 C   0  0  0  0  0  0  0  0  0  0  0  0
  145.7366  136.5221  151.8022 N   0  0  0  0  0  0  0  0  0  0  0  0
  146.2829  135.5192  152.5476 C   0  0  0  0  0  0  0  0  0  0  0  0
  146.8452  135.6448  153.8508 C   0  0  0  0  0  0  0  0  0  0  0  0
  147.3038  134.4036  154.2794 N   0  0  0  0  0  0  0  0  0  0  0  0
  147.0344  133.5980  153.2897 C   0  0  0  0  0  0  0  0  0  0  0  0
  146.4014  134.1800  152.2151 N   0  0  0  0  0  0  0  0  0  0  0  0
  145.9789  133.5244  150.9848 C   0  0  0  0  0  0  0  0  0  0  0  0
  144.4563  133.5584  150.7130 C   0  0  0  0  0  0  0  0  0  0  0  0
  144.2167  132.6137  149.5221 C   0  0  0  0  0  0  0  0  0  0  0  0
  142.8839  132.1484  149.4475 O   0  0  0  0  0  0  0  0  0  0  0  0
  143.5481  133.3850  151.9432 C   0  0  0  0  0  0  0  0  0  0  0  0
  143.2780  134.8027  152.0066 O   0  0  0  0  0  0  0  0  0  0  0  0
  143.7854  134.9437  150.6614 C   0  0  0  0  0  0  0  0  0  0  0  0
  147.5740  140.2893  157.2189 H   0  0  0  0  0  0  0  0  0  0  0  0
  147.8269  138.7380  158.0229 H   0  0  0  0  0  0  0  0  0  0  0  0
  146.2902  139.1081  157.2456 H   0  0  0  0  0  0  0  0  0  0  0  0
  147.5039  139.2798  155.0587 H   0  0  0  0  0  0  0  0  0  0  0  0
  149.8940  138.2967  156.6101 H   0  0  0  0  0  0  0  0  0  0  0  0
  149.4645  136.6112  154.7486 H   0  0  0  0  0  0  0  0  0  0  0  0
  150.9387  137.5078  154.5153 H   0  0  0  0  0  0  0  0  0  0  0  0
  149.4985  137.9349  153.5907 H   0  0  0  0  0  0  0  0  0  0  0  0
  149.9643  142.3044  156.6611 H   0  0  0  0  0  0  0  0  0  0  0  0
  150.3754  140.8950  157.6511 H   0  0  0  0  0  0  0  0  0  0  0  0
  148.6943  141.1440  157.1071 H   0  0  0  0  0  0  0  0  0  0  0  0
  146.7614  135.4397  156.5398 H   0  0  0  0  0  0  0  0  0  0  0  0
  145.8911  136.8511  157.1615 H   0  0  0  0  0  0  0  0  0  0  0  0
  147.5673  136.5632  157.6210 H   0  0  0  0  0  0  0  0  0  0  0  0
  145.3542  138.5296  151.9299 H   0  0  0  0  0  0  0  0  0  0  0  0
  147.2894  132.5491  153.3212 H   0  0  0  0  0  0  0  0  0  0  0  0
  146.5246  133.9882  150.1619 H   0  0  0  0  0  0  0  0  0  0  0  0
  146.3303  132.4925  151.0252 H   0  0  0  0  0  0  0  0  0  0  0  0
  144.4481  133.1129  148.5804 H   0  0  0  0  0  0  0  0  0  0  0  0
  144.8695  131.7423  149.5832 H   0  0  0  0  0  0  0  0  0  0  0  0
  142.3009  132.8879  149.5290 H   0  0  0  0  0  0  0  0  0  0  0  0
  142.6379  132.8127  151.7596 H   0  0  0  0  0  0  0  0  0  0  0  0
  144.0537  133.0088  152.8312 H   0  0  0  0  0  0  0  0  0  0  0  0
  144.4685  135.7841  150.5526 H   0  0  0  0  0  0  0  0  0  0  0  0
  142.9748  135.0258  149.9363 H   0  0  0  0  0  0  0  0  0  0  0  0
  1  2  1  0  0  0  0
  1 27  1  0  0  0  0
  1 28  1  0  0  0  0
  1 29  1  0  0  0  0
  2  3  1  0  0  0  0
  2  9  1  0  0  0  0
  2 30  1  0  0  0  0
  3  4  1  0  0  0  0
  3  5  1  0  0  0  0
  3 31  1  0  0  0  0
  4 32  1  0  0  0  0
  4 33  1  0  0  0  0
  4 34  1  0  0  0  0
  5  6  1  0  0  0  0
  5  7  2  0  0  0  0
  5  8  2  0  0  0  0
  6 35  1  0  0  0  0
  6 36  1  0  0  0  0
  6 37  1  0  0  0  0
  9 10  1  0  0  0  0
  9 11  1  0  0  0  0
 10 38  1  0  0  0  0
 10 39  1  0  0  0  0
 10 40  1  0  0  0  0
 11 16  1  0  0  0  0
 11 12  2  0  0  0  0
 12 13  1  0  0  0  0
 13 14  2  0  0  0  0
 13 41  1  0  0  0  0
 14 15  1  0  0  0  0
 15 19  1  0  0  0  0
 15 16  2  0  0  0  0
 16 17  1  0  0  0  0
 17 18  2  0  0  0  0
 18 19  1  0  0  0  0
 18 42  1  0  0  0  0
 19 20  1  0  0  0  0
 20 21  1  0  0  0  0
 20 43  1  0  0  0  0
 20 44  1  0  0  0  0
 21 26  1  0  0  0  0
 21 22  1  0  0  0  0
 21 24  1  0  0  0  0
 22 23  1  0  0  0  0
 22 45  1  0  0  0  0
 22 46  1  0  0  0  0
 23 47  1  0  0  0  0
 24 25  1  0  0  0  0
 24 48  1  0  0  0  0
 24 49  1  0  0  0  0
 25 26  1  0  0  0  0
 26 50  1  0  0  0  0
 26 51  1  0  0  0  0
M  END
> <s_m_source_file>
AV-unprocessed.smi

> <i_m_source_file_index>
156

> <i_lp_mmshare_version>
43012

> <i_f3d_flags>
0

> <s_epik_input>
W0NIM11TKD1PKSg9TylbQ0BASF0oW0NIM10pW0NAQEhdKFtDSDNdKU4oW0NIM10pYyhuW2NIXW4xKWMoYzEyKW5bY0hdbjJbQ0gyXUMzKFtDSDJdW09IXSlbQ0gyXU9bQ0gyXTM=

> <s_epik_cmdline>
J2VwaWtfcHl0aG9uJywgJy1waCcsICc3LjAnLCAnLXRuJywgJzgnLCAnLW1hJywgJzIwMCcsICctbWV0YWxfYmluZGluZycsICctaW1hZScsICc8aW5maWxlLm1hZT4nLCAnLW9tYWUnLCAnPG91dGZpbGUubWFlPic=

> <r_lp_tautomer_probability>
1

> <r_epik_Ionization_Penalty>
0.00107697

> <r_epik_Ionization_Penalty_Charging>
0

> <r_epik_Ionization_Penalty_Neutral>
0.00107697

> <r_epik_State_Penalty>
0.000614712

> <r_epik_Charging_Adjusted_Penalty>
0.000614712

> <i_epik_Tot_Q>
0

> <i_epik_Tot_abs_Q>
0

> <r_epik_Metal_State_Penalty>
-0

> <b_epik_Metal_Only>
0

> <s_lp_Force_Field>
OPLS_2005

> <r_lp_Energy>
27.5373

> <b_lp_Chiralities_Consistent>
1

> <s_lp_Variant>
AV-unprocessed.smi:156-4

> <Gold.Version>
5.8.1

> <Gold.Id.Protein>
6NUR|6NUR_protein|mol2

> <Gold.PLP.Fitness>
36.9577

> <Gold.PLP.PLP>
-26.0328

> <Gold.PLP.part.hbond>
-4.8720

> <Gold.PLP.part.metal>
0.0000

> <Gold.PLP.part.buried>
-0.2004

> <Gold.PLP.part.nonpolar>
-23.1523

> <Gold.PLP.part.repulsive>
0.9041

> <Gold.PLP.ligand.clash>
0.0000

> <Gold.PLP.ligand.torsion>
2.3133

> <Gold.PLP.Chemscore.Hbond>
2.9234

> <Gold.PLP.Chemscore.CHOScore>
1.8585

> <Gold.PLP.Chemscore.Metal>
0.0000

> <Gold.Chemscore.Hbonds>
donor molecule, donor type, donor heavy atom, donor atom, acceptor molecule, acceptor atom, score
      L1  H    23    47       P1 10186  1.00
      P1  H  7989  7998       L1     7  0.88
      P1  H 10785 10796       L1    23  0.70
      L1  C    13    41       P1 10171  0.88
      L1  C    13    41       P1 10175  0.82

> <Gold.PLP.Chemscore.Internal.Correction>
1.2059

> <Gold.Rescore>
     Score         DG    S(hbond)    S(metal)    S(lipo)     H(rot)  DE(clash)    DE(int)     intcor
      5.24     -10.63       2.27        0.00      49.63       3.21       1.42       3.97       ----

> <Gold.Chemscore.Fitness>
5.2442

> <Gold.Chemscore.DG>
-10.6317

> <Gold.Chemscore.ZeroCoef>
-5.4800

> <Gold.Chemscore.Hbond>
2.2655

> <Gold.Chemscore.Metal>
0.0000

> <Gold.Chemscore.Lipo>
49.6266

> <Gold.Chemscore.Internal_Hbond>
0.0000

> <Gold.Chemscore.DEClash>
1.4199

> <Gold.Chemscore.DEInternal>
3.9676

> <Gold.Chemscore.Rot>
3.2115

> <Gold.Chemscore.Internal.Correction>
   9.000000E+99

> <Gold.Chemscore.Hbonds>
donor molecule, donor type, donor heavy atom, donor atom, acceptor molecule, acceptor atom, score
      L1  H    23    47       P1 10186  0.96
      P1  H  7989  7998       L1     7  0.17
      P1  H  8011  8017       L1     8  0.02
      P1  H 10785 10796       L1    23  0.21

> <Gold.Chemscore.Hbond.Weighted>
-7.5669

> <Gold.Chemscore.Metal.Weighted>
-0.0000

> <Gold.Chemscore.Lipo.Weighted>
-5.8063

> <Gold.Chemscore.Internal_Hbond.Weighted>
0.0000

> <Gold.Chemscore.DEClash.Weighted>
1.4199

> <Gold.Chemscore.DEInternal.Weighted>
3.9676

> <Gold.Chemscore.Rot.Weighted>
8.2215

> <Gold.Chemscore.Internal.Correction.Weighted>
   9.000000E+99

> <Gold.Protein.RotatedTorsions>
[ 6907 6896 6895 6894 ] final  -74.46 input  -60.11 | X-H torsion
[ 7974 7965 7964 7962 ] final  -90.09 input  175.53 | X-H torsion
[ 8008 7997 7996 7995 ] final  -95.63 input   59.86 | X-H torsion
[ 10167 10162 10161 10158 ] final   53.43 input  -65.29 | X-H torsion
[ 10718 10713 10712 10709 ] final   31.13 input   66.30 | X-H torsion
[ 10763 10752 10751 10750 ] final  170.05 input  -60.55 | X-H torsion
[ 11005 11000 10999 10996 ] final   86.12 input  -57.11 | X-H torsion

> <Gold.Protein.ActiveResidues>
 VAL166  LYS551  ARG553  GLY616  TRP617  ASP618  TYR619  PRO620  LYS621  CYS622 
 ASP623  PHE694  ASN695  SER759  ASP760  ASP761  ALA762  ILE779  LEU786  VAL792 
 PHE793  MET794  SER795  GLU796  ALA797  LYS798  CYS799  TRP800  GLU811  SER814 

> <Gold.Protein.RotatedAtoms>
  150.7092  134.4866  159.5495 H   0  0  0  0  0  0  0  0  0  0  0  0  # atno 6907 bound_to 6896
  152.2492  134.8147  160.0457 H   0  0  0  0  0  0  0  0  0  0  0  0  # atno 6908 bound_to 6896
  151.8901  133.3479  159.3832 H   0  0  0  0  0  0  0  0  0  0  0  0  # atno 6909 bound_to 6896
  145.4311  140.9556  143.2127 H   0  0  0  0  0  0  0  0  0  0  0  0  # atno 7974 bound_to 7965
  154.7638  140.0478  157.0995 H   0  0  0  0  0  0  0  0  0  0  0  0  # atno 8008 bound_to 7997
  154.9904  140.3112  155.4889 H   0  0  0  0  0  0  0  0  0  0  0  0  # atno 8009 bound_to 7997
  156.2909  140.2219  156.5009 H   0  0  0  0  0  0  0  0  0  0  0  0  # atno 8010 bound_to 7997
  140.2408  144.3585  150.6381 H   0  0  0  0  0  0  0  0  0  0  0  0  # atno 10167 bound_to 10162
  157.2685  130.7196  149.6491 H   0  0  0  0  0  0  0  0  0  0  0  0  # atno 10718 bound_to 10713
  154.3920  135.2754  155.2149 H   0  0  0  0  0  0  0  0  0  0  0  0  # atno 10763 bound_to 10752
  154.4211  135.6000  153.6014 H   0  0  0  0  0  0  0  0  0  0  0  0  # atno 10764 bound_to 10752
  152.9832  135.5973  154.4176 H   0  0  0  0  0  0  0  0  0  0  0  0  # atno 10765 bound_to 10752
  139.8953  134.8334  156.2677 H   0  0  0  0  0  0  0  0  0  0  0  0  # atno 11005 bound_to 11000
  144.8182  139.5838  143.6999 LP  0  0  0  0  0  0  0  0  0  0  0  0  # atno 17320 bound_to 7965
  146.2606  139.6403  142.9364 LP  0  0  0  0  0  0  0  0  0  0  0  0  # atno 17321 bound_to 7965
  140.6115  143.2170  151.6877 LP  0  0  0  0  0  0  0  0  0  0  0  0  # atno 17342 bound_to 10162
  139.5078  144.3634  152.0540 LP  0  0  0  0  0  0  0  0  0  0  0  0  # atno 17343 bound_to 10162
  155.9663  130.4375  150.5178 LP  0  0  0  0  0  0  0  0  0  0  0  0  # atno 17370 bound_to 10713
  157.3098  131.0661  151.2009 LP  0  0  0  0  0  0  0  0  0  0  0  0  # atno 17371 bound_to 10713
  141.0121  133.7089  156.1129 LP  0  0  0  0  0  0  0  0  0  0  0  0  # atno 17394 bound_to 11000
  140.7353  134.4210  157.5561 LP  0  0  0  0  0  0  0  0  0  0  0  0  # atno 17395 bound_to 11000

$$$$
