AV-unprocessed.smi:2752|AV-procd|sdf|10608|dock1
  -GOLD-   2272015 63D 1   1.00000     0.00000
 Structure written by MMmdl.
 34 35  0  0  0  0  0  0  0  0  1 V2000
  153.6150  141.7279  159.8920 C   0  0  0  0  0  0  0  0  0  0  0  0
  152.2173  141.7233  159.6494 O   0  0  0  0  0  0  0  0  0  0  0  0
  151.7072  142.9773  159.2169 C   0  0  1  0  0  0  0  0  0  0  0  0
  152.1135  144.1202  160.1577 C   0  0  0  0  0  0  0  0  0  0  0  0
  152.2200  145.3405  159.2508 C   0  0  0  0  0  0  0  0  0  0  0  0
  152.8223  144.7860  157.9612 C   0  0  0  0  0  0  0  0  0  0  0  0
  152.2943  143.3427  157.8361 C   0  0  2  0  0  0  0  0  0  0  0  0
  151.2698  143.2426  156.7994 N   0  0  0  0  0  0  0  0  0  0  0  0
  150.5858  142.1305  156.4955 C   0  0  0  0  0  0  0  0  0  0  0  0
  150.7579  141.0515  157.0634 O   0  0  0  0  0  0  0  0  0  0  0  0
  149.7063  142.3575  155.5040 N   0  0  0  0  0  0  0  0  0  0  0  0
  148.8171  141.4355  154.8904 C   0  0  0  0  0  0  0  0  0  0  0  0
  149.2442  140.0882  154.9114 C   0  0  0  0  0  0  0  0  0  0  0  0
  148.4322  139.0945  154.3305 C   0  0  0  0  0  0  0  0  0  0  0  0
  147.2125  139.4761  153.7444 C   0  0  0  0  0  0  0  0  0  0  0  0
  146.3987  138.5563  153.1738 F   0  0  0  0  0  0  0  0  0  0  0  0
  146.8600  140.8380  153.7658 C   0  0  0  0  0  0  0  0  0  0  0  0
  147.6378  141.7915  154.3215 N   0  0  0  0  0  0  0  0  0  0  0  0
  153.9282  140.7410  160.2318 H   0  0  0  0  0  0  0  0  0  0  0  0
  153.8775  142.4476  160.6682 H   0  0  0  0  0  0  0  0  0  0  0  0
  154.1801  141.9641  158.9897 H   0  0  0  0  0  0  0  0  0  0  0  0
  150.6174  142.9377  159.1540 H   0  0  0  0  0  0  0  0  0  0  0  0
  151.4061  144.2652  160.9746 H   0  0  0  0  0  0  0  0  0  0  0  0
  153.0908  143.9119  160.5960 H   0  0  0  0  0  0  0  0  0  0  0  0
  151.2250  145.7406  159.0519 H   0  0  0  0  0  0  0  0  0  0  0  0
  152.8219  146.1383  159.6865 H   0  0  0  0  0  0  0  0  0  0  0  0
  152.5928  145.4133  157.0989 H   0  0  0  0  0  0  0  0  0  0  0  0
  153.9087  144.7611  158.0564 H   0  0  0  0  0  0  0  0  0  0  0  0
  153.1237  142.6753  157.5932 H   0  0  0  0  0  0  0  0  0  0  0  0
  151.0644  144.0850  156.2830 H   0  0  0  0  0  0  0  0  0  0  0  0
  149.6728  143.2990  155.1425 H   0  0  0  0  0  0  0  0  0  0  0  0
  150.1846  139.8138  155.3669 H   0  0  0  0  0  0  0  0  0  0  0  0
  148.7404  138.0595  154.3357 H   0  0  0  0  0  0  0  0  0  0  0  0
  145.9314  141.1718  153.3269 H   0  0  0  0  0  0  0  0  0  0  0  0
  1  2  1  0  0  0  0
  1 19  1  0  0  0  0
  1 20  1  0  0  0  0
  1 21  1  0  0  0  0
  2  3  1  0  0  0  0
  3  7  1  0  0  0  0
  3  4  1  0  0  0  0
  3 22  1  0  0  0  0
  4  5  1  0  0  0  0
  4 23  1  0  0  0  0
  4 24  1  0  0  0  0
  5  6  1  0  0  0  0
  5 25  1  0  0  0  0
  5 26  1  0  0  0  0
  6  7  1  0  0  0  0
  6 27  1  0  0  0  0
  6 28  1  0  0  0  0
  7  8  1  0  0  0  0
  7 29  1  0  0  0  0
  8  9  1  0  0  0  0
  8 30  1  0  0  0  0
  9 10  2  0  0  0  0
  9 11  1  0  0  0  0
 11 12  1  0  0  0  0
 11 31  1  0  0  0  0
 12 18  1  0  0  0  0
 12 13  2  0  0  0  0
 13 14  1  0  0  0  0
 13 32  1  0  0  0  0
 14 15  2  0  0  0  0
 14 33  1  0  0  0  0
 15 16  1  0  0  0  0
 15 17  1  0  0  0  0
 17 18  2  0  0  0  0
 17 34  1  0  0  0  0
M  END
> <s_m_source_file>
AV-unprocessed.smi

> <i_m_source_file_index>
2752

> <i_lp_mmshare_version>
43012

> <i_f3d_flags>
0

> <s_epik_input>
W0NIM11PW0NAQEhdMVtDSDJdW0NIMl1bQ0gyXVtDQEhdMVtOSF1DKD1PKVtOSF1jMltjSF1bY0hdYyhGKVtjSF1uMg==

> <s_epik_cmdline>
J2VwaWtfcHl0aG9uJywgJy1waCcsICc3LjAnLCAnLXRuJywgJzgnLCAnLW1hJywgJzIwMCcsICctbWV0YWxfYmluZGluZycsICctaW1hZScsICc8aW5maWxlLm1hZT4nLCAnLW9tYWUnLCAnPG91dGZpbGUubWFlPic=

> <r_lp_tautomer_probability>
1

> <r_epik_Ionization_Penalty>
3.49853e-05

> <r_epik_Ionization_Penalty_Charging>
0

> <r_epik_Ionization_Penalty_Neutral>
3.49853e-05

> <r_epik_State_Penalty>
-0

> <r_epik_Charging_Adjusted_Penalty>
0

> <i_epik_Tot_Q>
0

> <i_epik_Tot_abs_Q>
0

> <r_epik_Metal_State_Penalty>
-0

> <b_epik_Metal_Only>
0

> <s_lp_Force_Field>
OPLS_2005

> <r_lp_Energy>
21.736

> <b_lp_Chiralities_Consistent>
1

> <s_lp_Variant>
AV-unprocessed.smi:2752-4

> <Gold.Version>
5.8.1

> <Gold.Id.Protein>
6NUR|6NUR_protein|mol2

> <Gold.PLP.Fitness>
47.0540

> <Gold.PLP.PLP>
-39.9073

> <Gold.PLP.part.hbond>
-1.8225

> <Gold.PLP.part.metal>
0.0000

> <Gold.PLP.part.buried>
-5.1083

> <Gold.PLP.part.nonpolar>
-34.7299

> <Gold.PLP.part.repulsive>
0.3704

> <Gold.PLP.ligand.clash>
0.0000

> <Gold.PLP.ligand.torsion>
0.1887

> <Gold.PLP.Chemscore.Hbond>
1.5031

> <Gold.PLP.Chemscore.CHOScore>
1.0000

> <Gold.PLP.Chemscore.Metal>
0.0000

> <Gold.Chemscore.Hbonds>
donor molecule, donor type, donor heavy atom, donor atom, acceptor molecule, acceptor atom, score
      L1  H     8    30       P1  8028  0.13
      L1  H    11    31       P1  8028  0.69
      L1  C    17    34       P1 10175  1.00

> <Gold.PLP.Chemscore.Internal.Correction>
0.0149

> <Gold.Rescore>
     Score         DG    S(hbond)    S(metal)    S(lipo)     H(rot)  DE(clash)    DE(int)     intcor
     14.32     -18.38       1.71        0.00      89.49       1.28       0.05       4.01       ----

> <Gold.Chemscore.Fitness>
14.3242

> <Gold.Chemscore.DG>
-18.3835

> <Gold.Chemscore.ZeroCoef>
-5.4800

> <Gold.Chemscore.Hbond>
1.7113

> <Gold.Chemscore.Metal>
0.0000

> <Gold.Chemscore.Lipo>
89.4868

> <Gold.Chemscore.Internal_Hbond>
0.0000

> <Gold.Chemscore.DEClash>
0.0471

> <Gold.Chemscore.DEInternal>
4.0121

> <Gold.Chemscore.Rot>
1.2821

> <Gold.Chemscore.Internal.Correction>
   9.000000E+99

> <Gold.Chemscore.Hbonds>
donor molecule, donor type, donor heavy atom, donor atom, acceptor molecule, acceptor atom, score
      L1  H     8    30       P1  8028  0.13
      L1  H    11    31       P1  8028  0.68

> <Gold.Chemscore.Hbond.Weighted>
-5.7157

> <Gold.Chemscore.Metal.Weighted>
-0.0000

> <Gold.Chemscore.Lipo.Weighted>
-10.4700

> <Gold.Chemscore.Internal_Hbond.Weighted>
0.0000

> <Gold.Chemscore.DEClash.Weighted>
0.0471

> <Gold.Chemscore.DEInternal.Weighted>
4.0121

> <Gold.Chemscore.Rot.Weighted>
3.2822

> <Gold.Chemscore.Internal.Correction.Weighted>
   9.000000E+99

> <Gold.Protein.RotatedTorsions>
[ 6907 6896 6895 6894 ] final   60.75 input  -60.11 | X-H torsion
[ 7974 7965 7964 7962 ] final   85.67 input  175.53 | X-H torsion
[ 8008 7997 7996 7995 ] final   28.61 input   59.86 | X-H torsion
[ 10167 10162 10161 10158 ] final -127.46 input  -65.29 | X-H torsion
[ 10718 10713 10712 10709 ] final  119.23 input   66.30 | X-H torsion
[ 10763 10752 10751 10750 ] final  -62.40 input  -60.55 | X-H torsion
[ 11005 11000 10999 10996 ] final  163.66 input  -57.11 | X-H torsion

> <Gold.Protein.ActiveResidues>
 VAL166  LYS551  ARG553  GLY616  TRP617  ASP618  TYR619  PRO620  LYS621  CYS622 
 ASP623  PHE694  ASN695  SER759  ASP760  ASP761  ALA762  ILE779  LEU786  VAL792 
 PHE793  MET794  SER795  GLU796  ALA797  LYS798  CYS799  TRP800  GLU811  SER814 

> <Gold.Protein.RotatedAtoms>
  152.4030  134.6254  160.0061 H   0  0  0  0  0  0  0  0  0  0  0  0  # atno 6907 bound_to 6896
  151.6454  133.3318  159.3147 H   0  0  0  0  0  0  0  0  0  0  0  0  # atno 6908 bound_to 6896
  150.7928  134.7007  159.6593 H   0  0  0  0  0  0  0  0  0  0  0  0  # atno 6909 bound_to 6896
  145.5824  139.2327  143.2345 H   0  0  0  0  0  0  0  0  0  0  0  0  # atno 7974 bound_to 7965
  155.0614  140.3190  155.4659 H   0  0  0  0  0  0  0  0  0  0  0  0  # atno 8008 bound_to 7997
  156.2812  140.2128  156.5686 H   0  0  0  0  0  0  0  0  0  0  0  0  # atno 8009 bound_to 7997
  154.7129  140.0496  157.0554 H   0  0  0  0  0  0  0  0  0  0  0  0  # atno 8010 bound_to 7997
  139.9607  143.5954  152.2446 H   0  0  0  0  0  0  0  0  0  0  0  0  # atno 10167 bound_to 10162
  157.5976  131.1056  150.7868 H   0  0  0  0  0  0  0  0  0  0  0  0  # atno 10718 bound_to 10713
  154.2993  135.6238  153.5418 H   0  0  0  0  0  0  0  0  0  0  0  0  # atno 10763 bound_to 10752
  152.9842  135.5674  154.5301 H   0  0  0  0  0  0  0  0  0  0  0  0  # atno 10764 bound_to 10752
  154.4929  135.2868  155.1459 H   0  0  0  0  0  0  0  0  0  0  0  0  # atno 10765 bound_to 10752
  140.2380  134.8073  157.3383 H   0  0  0  0  0  0  0  0  0  0  0  0  # atno 11005 bound_to 11000
  146.1706  140.6651  142.9235 LP  0  0  0  0  0  0  0  0  0  0  0  0  # atno 17320 bound_to 7965
  144.7388  140.4883  143.6884 LP  0  0  0  0  0  0  0  0  0  0  0  0  # atno 17321 bound_to 7965
  139.6557  144.7662  151.2061 LP  0  0  0  0  0  0  0  0  0  0  0  0  # atno 17342 bound_to 10162
  140.7554  143.6090  150.8624 LP  0  0  0  0  0  0  0  0  0  0  0  0  # atno 17343 bound_to 10162
  156.8274  130.5004  149.5335 LP  0  0  0  0  0  0  0  0  0  0  0  0  # atno 17370 bound_to 10713
  156.1041  130.5991  150.9943 LP  0  0  0  0  0  0  0  0  0  0  0  0  # atno 17371 bound_to 10713
  140.1682  134.4642  155.7849 LP  0  0  0  0  0  0  0  0  0  0  0  0  # atno 17394 bound_to 11000
  141.2213  133.6930  156.7662 LP  0  0  0  0  0  0  0  0  0  0  0  0  # atno 17395 bound_to 11000

$$$$
