AV-unprocessed.smi:1401|AV-procd|sdf|5693|dock10
  -GOLD-   22720 5323D 1   1.00000     0.00000
 Structure written by MMmdl.
 48 50  0  0  0  0  0  0  0  0  1 V2000
  147.2379  138.9524  154.9645 C   0  0  0  0  0  0  0  0  0  0  0  0
  148.5659  138.2867  155.2056 C   0  0  0  0  0  0  0  0  0  0  0  0
  148.5362  137.0450  155.5636 N   0  0  0  0  0  0  0  0  0  0  0  0
  149.6979  136.3417  155.8156 N   0  0  0  0  0  0  0  0  0  0  0  0
  149.4811  134.9576  156.2594 C   0  0  0  0  0  0  0  0  0  0  0  0
  148.4698  134.8786  157.4098 C   0  0  0  0  0  0  0  0  0  0  0  0
  147.8258  135.8760  157.7359 O   0  0  0  0  0  0  0  0  0  0  0  0
  148.3501  133.6863  158.0151 N   0  0  0  0  0  0  0  0  0  0  0  0
  147.5016  133.3919  159.1684 C   0  0  1  0  0  0  0  0  0  0  0  0
  147.6074  131.8879  159.4697 C   0  0  0  0  0  0  0  0  0  0  0  0
  147.9138  134.2622  160.3850 C   0  0  2  0  0  0  0  0  0  0  0  0
  147.5422  133.6243  161.7465 C   0  0  0  0  0  0  0  0  0  0  0  0
  146.7336  134.7285  162.4504 C   0  0  1  0  0  0  0  0  0  0  0  0
  147.6708  135.8868  162.8366 C   0  0  0  0  0  0  0  0  0  0  0  0
  147.9837  136.5337  161.4751 C   0  0  0  0  0  0  0  0  0  0  0  0
  147.2080  135.6412  160.4876 C   0  0  2  0  0  0  0  0  0  0  0  0
  145.9503  135.3236  161.2880 C   0  0  0  0  0  0  0  0  0  0  0  0
  150.9575  136.8530  155.6946 C   0  0  0  0  0  0  0  0  0  0  0  0
  151.9687  136.1830  155.9119 O   0  0  0  0  0  0  0  0  0  0  0  0
  150.9833  138.2604  155.2920 C   0  0  0  0  0  0  0  0  0  0  0  0
  152.2825  138.8383  155.1680 C   0  0  0  0  0  0  0  0  0  0  0  0
  153.3442  139.2895  155.0710 N   0  0  0  0  0  0  0  0  0  0  0  0
  149.8490  138.9665  155.0573 C   0  0  0  0  0  0  0  0  0  0  0  0
  149.8229  140.4302  154.6390 C   0  0  0  0  0  0  0  0  0  0  0  0
  147.1912  139.3726  153.9597 H   0  0  0  0  0  0  0  0  0  0  0  0
  147.0763  139.7605  155.6782 H   0  0  0  0  0  0  0  0  0  0  0  0
  146.4073  138.2520  155.0667 H   0  0  0  0  0  0  0  0  0  0  0  0
  149.1063  134.3466  155.4365 H   0  0  0  0  0  0  0  0  0  0  0  0
  150.4301  134.5042  156.5529 H   0  0  0  0  0  0  0  0  0  0  0  0
  148.9228  132.9284  157.6726 H   0  0  0  0  0  0  0  0  0  0  0  0
  146.4599  133.6027  158.9212 H   0  0  0  0  0  0  0  0  0  0  0  0
  146.9522  131.5940  160.2896 H   0  0  0  0  0  0  0  0  0  0  0  0
  148.6253  131.6086  159.7437 H   0  0  0  0  0  0  0  0  0  0  0  0
  147.3223  131.2936  158.6009 H   0  0  0  0  0  0  0  0  0  0  0  0
  148.9928  134.4181  160.3342 H   0  0  0  0  0  0  0  0  0  0  0  0
  146.9172  132.7398  161.6180 H   0  0  0  0  0  0  0  0  0  0  0  0
  148.4217  133.3251  162.3178 H   0  0  0  0  0  0  0  0  0  0  0  0
  146.1240  134.3638  163.2775 H   0  0  0  0  0  0  0  0  0  0  0  0
  147.1641  136.5972  163.4911 H   0  0  0  0  0  0  0  0  0  0  0  0
  148.5682  135.5390  163.3495 H   0  0  0  0  0  0  0  0  0  0  0  0
  147.6096  137.5579  161.4442 H   0  0  0  0  0  0  0  0  0  0  0  0
  149.0526  136.5643  161.2613 H   0  0  0  0  0  0  0  0  0  0  0  0
  147.0275  136.1408  159.5375 H   0  0  0  0  0  0  0  0  0  0  0  0
  145.2894  134.6085  160.7957 H   0  0  0  0  0  0  0  0  0  0  0  0
  145.3760  136.2106  161.5616 H   0  0  0  0  0  0  0  0  0  0  0  0
  150.8153  140.8795  154.6488 H   0  0  0  0  0  0  0  0  0  0  0  0
  149.1971  141.0140  155.3147 H   0  0  0  0  0  0  0  0  0  0  0  0
  149.4251  140.5301  153.6288 H   0  0  0  0  0  0  0  0  0  0  0  0
  1  2  1  0  0  0  0
  1 25  1  0  0  0  0
  1 26  1  0  0  0  0
  1 27  1  0  0  0  0
  2 23  1  0  0  0  0
  2  3  2  0  0  0  0
  3  4  1  0  0  0  0
  4  5  1  0  0  0  0
  4 18  1  0  0  0  0
  5  6  1  0  0  0  0
  5 28  1  0  0  0  0
  5 29  1  0  0  0  0
  6  7  2  0  0  0  0
  6  8  1  0  0  0  0
  8  9  1  0  0  0  0
  8 30  1  0  0  0  0
  9 10  1  0  0  0  0
  9 11  1  0  0  0  0
  9 31  1  0  0  0  0
 10 32  1  0  0  0  0
 10 33  1  0  0  0  0
 10 34  1  0  0  0  0
 11 16  1  0  0  0  0
 11 12  1  0  0  0  0
 11 35  1  0  0  0  0
 12 13  1  0  0  0  0
 12 36  1  0  0  0  0
 12 37  1  0  0  0  0
 13 17  1  0  0  0  0
 13 14  1  0  0  0  0
 13 38  1  0  0  0  0
 14 15  1  0  0  0  0
 14 39  1  0  0  0  0
 14 40  1  0  0  0  0
 15 16  1  0  0  0  0
 15 41  1  0  0  0  0
 15 42  1  0  0  0  0
 16 17  1  0  0  0  0
 16 43  1  0  0  0  0
 17 44  1  0  0  0  0
 17 45  1  0  0  0  0
 18 19  2  0  0  0  0
 18 20  1  0  0  0  0
 20 21  1  0  0  0  0
 20 23  2  0  0  0  0
 21 22  3  0  0  0  0
 23 24  1  0  0  0  0
 24 46  1  0  0  0  0
 24 47  1  0  0  0  0
 24 48  1  0  0  0  0
M  END
> <s_m_source_file>
AV-unprocessed.smi

> <i_m_source_file_index>
1401

> <i_lp_mmshare_version>
43012

> <i_f3d_flags>
0

> <s_epik_input>
TiNDYyhjMVtDSDNdKWMoPU8pbihuYzFbQ0gzXSlbQ0gyXUMoPU8pW05IXVtDQEhdKFtDSDNdKVtDQEhdKFtDSDJdW0NASF0yMylbQ0BIXShbQ0gyXTMpW0NIMl1bQ0gyXTI=

> <s_epik_cmdline>
J2VwaWtfcHl0aG9uJywgJy1waCcsICc3LjAnLCAnLXRuJywgJzgnLCAnLW1hJywgJzIwMCcsICctbWV0YWxfYmluZGluZycsICctaW1hZScsICc8aW5maWxlLm1hZT4nLCAnLW9tYWUnLCAnPG91dGZpbGUubWFlPic=

> <r_lp_tautomer_probability>
1

> <r_epik_Ionization_Penalty>
2.16501e-08

> <r_epik_Ionization_Penalty_Charging>
2.29436e-11

> <r_epik_Ionization_Penalty_Neutral>
2.16271e-08

> <r_epik_State_Penalty>
-0

> <r_epik_Charging_Adjusted_Penalty>
2.29436e-11

> <i_epik_Tot_Q>
0

> <i_epik_Tot_abs_Q>
0

> <r_epik_Metal_State_Penalty>
-0

> <b_epik_Metal_Only>
0

> <s_lp_Force_Field>
OPLS_2005

> <r_lp_Energy>
65.2014

> <b_lp_Chiralities_Consistent>
1

> <s_lp_Variant>
AV-unprocessed.smi:1401-6

> <Gold.Version>
5.8.1

> <Gold.Id.Protein>
6NUR|6NUR_protein|mol2

> <Gold.PLP.Fitness>
41.0597

> <Gold.PLP.PLP>
-36.7048

> <Gold.PLP.part.hbond>
-3.0000

> <Gold.PLP.part.metal>
0.0000

> <Gold.PLP.part.buried>
-3.7017

> <Gold.PLP.part.nonpolar>
-29.9623

> <Gold.PLP.part.repulsive>
0.1914

> <Gold.PLP.ligand.clash>
0.0000

> <Gold.PLP.ligand.torsion>
0.8335

> <Gold.PLP.Chemscore.Hbond>
2.0000

> <Gold.PLP.Chemscore.CHOScore>
0.0000

> <Gold.PLP.Chemscore.Metal>
0.0000

> <Gold.Chemscore.Hbonds>
donor molecule, donor type, donor heavy atom, donor atom, acceptor molecule, acceptor atom, score
      P1  H  7997  8009       L1    22  1.00
      P1  H 10752 10764       L1    19  1.00

> <Gold.PLP.Chemscore.Internal.Correction>
0.0219

> <Gold.Rescore>
     Score         DG    S(hbond)    S(metal)    S(lipo)     H(rot)  DE(clash)    DE(int)     intcor
     13.30     -17.80       2.00        0.00      83.81       1.63       0.05       4.44       ----

> <Gold.Chemscore.Fitness>
13.3010

> <Gold.Chemscore.DG>
-17.7972

> <Gold.Chemscore.ZeroCoef>
-5.4800

> <Gold.Chemscore.Hbond>
1.9998

> <Gold.Chemscore.Metal>
0.0000

> <Gold.Chemscore.Lipo>
83.8090

> <Gold.Chemscore.Internal_Hbond>
0.0000

> <Gold.Chemscore.DEClash>
0.0545

> <Gold.Chemscore.DEInternal>
4.4417

> <Gold.Chemscore.Rot>
1.6281

> <Gold.Chemscore.Internal.Correction>
   9.000000E+99

> <Gold.Chemscore.Hbonds>
donor molecule, donor type, donor heavy atom, donor atom, acceptor molecule, acceptor atom, score
      P1  H  7997  8009       L1    22  1.00
      P1  H 10752 10764       L1    19  0.99

> <Gold.Chemscore.Hbond.Weighted>
-6.6794

> <Gold.Chemscore.Metal.Weighted>
-0.0000

> <Gold.Chemscore.Lipo.Weighted>
-9.8057

> <Gold.Chemscore.Internal_Hbond.Weighted>
0.0000

> <Gold.Chemscore.DEClash.Weighted>
0.0545

> <Gold.Chemscore.DEInternal.Weighted>
4.4417

> <Gold.Chemscore.Rot.Weighted>
4.1678

> <Gold.Chemscore.Internal.Correction.Weighted>
   9.000000E+99

> <Gold.Protein.RotatedTorsions>
[ 6907 6896 6895 6894 ] final -161.73 input  -60.11 | X-H torsion
[ 7974 7965 7964 7962 ] final   45.05 input  175.53 | X-H torsion
[ 8008 7997 7996 7995 ] final -131.42 input   59.86 | X-H torsion
[ 10167 10162 10161 10158 ] final -143.15 input  -65.29 | X-H torsion
[ 10718 10713 10712 10709 ] final  -87.94 input   66.30 | X-H torsion
[ 10763 10752 10751 10750 ] final  -42.53 input  -60.55 | X-H torsion
[ 11005 11000 10999 10996 ] final   14.43 input  -57.11 | X-H torsion

> <Gold.Protein.ActiveResidues>
 VAL166  LYS551  ARG553  GLY616  TRP617  ASP618  TYR619  PRO620  LYS621  CYS622 
 ASP623  PHE694  ASN695  SER759  ASP760  ASP761  ALA762  ILE779  LEU786  VAL792 
 PHE793  MET794  SER795  GLU796  ALA797  LYS798  CYS799  TRP800  GLU811  SER814 

> <Gold.Protein.RotatedAtoms>
  151.3693  133.3861  159.2697 H   0  0  0  0  0  0  0  0  0  0  0  0  # atno 6907 bound_to 6896
  150.9664  134.9045  159.7772 H   0  0  0  0  0  0  0  0  0  0  0  0  # atno 6908 bound_to 6896
  152.5168  134.3653  159.9351 H   0  0  0  0  0  0  0  0  0  0  0  0  # atno 6909 bound_to 6896
  146.0514  139.5007  142.9716 H   0  0  0  0  0  0  0  0  0  0  0  0  # atno 7974 bound_to 7965
  155.3120  140.0458  157.3035 H   0  0  0  0  0  0  0  0  0  0  0  0  # atno 8008 bound_to 7997
  154.5428  140.2293  155.8580 H   0  0  0  0  0  0  0  0  0  0  0  0  # atno 8009 bound_to 7997
  156.1896  140.3054  155.9313 H   0  0  0  0  0  0  0  0  0  0  0  0  # atno 8010 bound_to 7997
  139.8021  143.7819  152.2659 H   0  0  0  0  0  0  0  0  0  0  0  0  # atno 10167 bound_to 10162
  155.9984  130.4818  150.4943 H   0  0  0  0  0  0  0  0  0  0  0  0  # atno 10718 bound_to 10713
  153.9806  135.6717  153.4750 H   0  0  0  0  0  0  0  0  0  0  0  0  # atno 10763 bound_to 10752
  153.0750  135.4953  154.8382 H   0  0  0  0  0  0  0  0  0  0  0  0  # atno 10764 bound_to 10752
  154.7167  135.3108  154.9075 H   0  0  0  0  0  0  0  0  0  0  0  0  # atno 10765 bound_to 10752
  140.4696  134.1044  155.7730 H   0  0  0  0  0  0  0  0  0  0  0  0  # atno 11005 bound_to 11000
  145.6717  141.0214  143.1654 LP  0  0  0  0  0  0  0  0  0  0  0  0  # atno 17320 bound_to 7965
  144.7125  139.8319  143.7410 LP  0  0  0  0  0  0  0  0  0  0  0  0  # atno 17321 bound_to 7965
  139.7942  144.7399  150.9913 LP  0  0  0  0  0  0  0  0  0  0  0  0  # atno 17342 bound_to 10162
  140.7820  143.4410  151.0551 LP  0  0  0  0  0  0  0  0  0  0  0  0  # atno 17343 bound_to 10162
  157.2934  131.0631  151.2118 LP  0  0  0  0  0  0  0  0  0  0  0  0  # atno 17370 bound_to 10713
  157.3122  130.6895  149.6222 LP  0  0  0  0  0  0  0  0  0  0  0  0  # atno 17371 bound_to 10713
  141.1583  133.8841  157.1918 LP  0  0  0  0  0  0  0  0  0  0  0  0  # atno 17394 bound_to 11000
  139.9893  135.0070  156.9937 LP  0  0  0  0  0  0  0  0  0  0  0  0  # atno 17395 bound_to 11000

$$$$
