AV-unprocessed.smi:901|AV-procd|sdf|4090|dock2
  -GOLD-   22720 1573D 1   1.00000     0.00000
 Structure written by MMmdl.
 43 44  0  0  0  0  0  0  0  0  1 V2000
  153.1018  143.7982  158.6225 C   0  0  0  0  0  0  0  0  0  0  0  0
  152.8101  142.4983  159.3457 C   0  0  0  0  0  0  0  0  0  0  0  0
  152.9223  142.5789  160.8583 C   0  0  0  0  0  0  0  0  0  0  0  0
  152.4818  141.3767  158.6758 C   0  0  0  0  0  0  0  0  0  0  0  0
  152.1884  140.0389  159.2557 C   0  0  2  0  0  0  0  0  0  0  0  0
  153.1210  138.8583  159.0451 C   0  0  1  0  0  0  0  0  0  0  0  0
  153.3559  137.9190  160.1882 C   0  0  0  0  0  0  0  0  0  0  0  0
  153.0875  136.7188  160.1319 O   0  0  0  0  0  0  0  0  0  0  0  0
  153.8703  138.5300  161.2706 N   0  0  0  0  0  0  0  0  0  0  0  0
  154.2179  137.9679  162.5263 C   0  0  0  0  0  0  0  0  0  0  0  0
  153.6189  136.8225  163.1320 C   0  0  0  0  0  0  0  0  0  0  0  0
  154.2980  136.7004  164.3103 C   0  0  0  0  0  0  0  0  0  0  0  0
  155.2277  137.7196  164.3629 N   0  0  0  0  0  0  0  0  0  0  0  0
  156.1888  138.0093  165.4121 C   0  0  0  0  0  0  0  0  0  0  0  0
  155.9129  139.3703  166.0532 C   0  0  0  0  0  0  0  0  0  0  0  0
  155.8665  140.4295  165.2408 N   0  0  0  0  0  0  0  0  0  0  0  0
  155.7433  139.4653  167.2667 O   0  0  0  0  0  0  0  0  0  0  0  0
  155.1765  138.5031  163.2628 N   0  0  0  0  0  0  0  0  0  0  0  0
  151.7554  138.8860  158.3660 C   0  0  0  0  0  0  0  0  0  0  0  0
  150.5874  138.0131  158.8112 C   0  0  0  0  0  0  0  0  0  0  0  0
  151.7283  139.0256  156.8511 C   0  0  0  0  0  0  0  0  0  0  0  0
  152.4034  144.5729  158.9404 H   0  0  0  0  0  0  0  0  0  0  0  0
  153.0140  143.6858  157.5412 H   0  0  0  0  0  0  0  0  0  0  0  0
  154.1140  144.1356  158.8470 H   0  0  0  0  0  0  0  0  0  0  0  0
  153.9517  142.7908  161.1477 H   0  0  0  0  0  0  0  0  0  0  0  0
  152.6139  141.6585  161.3521 H   0  0  0  0  0  0  0  0  0  0  0  0
  152.2898  143.3819  161.2373 H   0  0  0  0  0  0  0  0  0  0  0  0
  152.4130  141.4277  157.5990 H   0  0  0  0  0  0  0  0  0  0  0  0
  151.6727  140.1279  160.2104 H   0  0  0  0  0  0  0  0  0  0  0  0
  153.9777  139.0186  158.3914 H   0  0  0  0  0  0  0  0  0  0  0  0
  154.0387  139.5216  161.1822 H   0  0  0  0  0  0  0  0  0  0  0  0
  152.8239  136.1844  162.7779 H   0  0  0  0  0  0  0  0  0  0  0  0
  154.2000  135.9783  165.1074 H   0  0  0  0  0  0  0  0  0  0  0  0
  156.1460  137.2269  166.1717 H   0  0  0  0  0  0  0  0  0  0  0  0
  157.1925  137.9864  164.9857 H   0  0  0  0  0  0  0  0  0  0  0  0
  155.6898  141.3492  165.6174 H   0  0  0  0  0  0  0  0  0  0  0  0
  156.0116  140.3051  164.2491 H   0  0  0  0  0  0  0  0  0  0  0  0
  150.7599  136.9756  158.5238 H   0  0  0  0  0  0  0  0  0  0  0  0
  149.6616  138.3511  158.3452 H   0  0  0  0  0  0  0  0  0  0  0  0
  150.4404  138.0546  159.8897 H   0  0  0  0  0  0  0  0  0  0  0  0
  151.7624  138.0429  156.3799 H   0  0  0  0  0  0  0  0  0  0  0  0
  152.5827  139.6011  156.4935 H   0  0  0  0  0  0  0  0  0  0  0  0
  150.8177  139.5334  156.5320 H   0  0  0  0  0  0  0  0  0  0  0  0
  1  2  1  0  0  0  0
  1 22  1  0  0  0  0
  1 23  1  0  0  0  0
  1 24  1  0  0  0  0
  2  3  1  0  0  0  0
  2  4  2  0  0  0  0
  3 25  1  0  0  0  0
  3 26  1  0  0  0  0
  3 27  1  0  0  0  0
  4  5  1  0  0  0  0
  4 28  1  0  0  0  0
  5 19  1  0  0  0  0
  5  6  1  0  0  0  0
  5 29  1  0  0  0  0
  6  7  1  0  0  0  0
  6 19  1  0  0  0  0
  6 30  1  0  0  0  0
  7  8  2  0  0  0  0
  7  9  1  0  0  0  0
  9 10  1  0  0  0  0
  9 31  1  0  0  0  0
 10 18  2  0  0  0  0
 10 11  1  0  0  0  0
 11 12  2  0  0  0  0
 11 32  1  0  0  0  0
 12 13  1  0  0  0  0
 12 33  1  0  0  0  0
 13 14  1  0  0  0  0
 13 18  1  0  0  0  0
 14 15  1  0  0  0  0
 14 34  1  0  0  0  0
 14 35  1  0  0  0  0
 15 16  1  0  0  0  0
 15 17  2  0  0  0  0
 16 36  1  0  0  0  0
 16 37  1  0  0  0  0
 19 20  1  0  0  0  0
 19 21  1  0  0  0  0
 20 38  1  0  0  0  0
 20 39  1  0  0  0  0
 20 40  1  0  0  0  0
 21 41  1  0  0  0  0
 21 42  1  0  0  0  0
 21 43  1  0  0  0  0
M  END
> <s_m_source_file>
AV-unprocessed.smi

> <i_m_source_file_index>
901

> <i_lp_mmshare_version>
43012

> <i_f3d_flags>
0

> <s_epik_input>
W0NIM11DKFtDSDNdKT1bQ0hdW0NAQEhdKEMxKFtDSDNdKVtDSDNdKVtDQEhdMUMoPU8pW05IXWMyW2NIXVtjSF1uKG4yKVtDSDJdQyg9TylbTkgyXQ==

> <s_epik_cmdline>
J2VwaWtfcHl0aG9uJywgJy1waCcsICc3LjAnLCAnLXRuJywgJzgnLCAnLW1hJywgJzIwMCcsICctbWV0YWxfYmluZGluZycsICctaW1hZScsICc8aW5maWxlLm1hZT4nLCAnLW9tYWUnLCAnPG91dGZpbGUubWFlPic=

> <r_lp_tautomer_probability>
1

> <r_epik_Ionization_Penalty>
1.01454e-05

> <r_epik_Ionization_Penalty_Charging>
0

> <r_epik_Ionization_Penalty_Neutral>
1.01454e-05

> <r_epik_State_Penalty>
-0

> <r_epik_Charging_Adjusted_Penalty>
0

> <i_epik_Tot_Q>
0

> <i_epik_Tot_abs_Q>
0

> <r_epik_Metal_State_Penalty>
-0

> <b_epik_Metal_Only>
0

> <s_lp_Force_Field>
OPLS_2005

> <r_lp_Energy>
20.5353

> <b_lp_Chiralities_Consistent>
1

> <s_lp_Variant>
AV-unprocessed.smi:901-1

> <Gold.Version>
5.8.1

> <Gold.Id.Protein>
6NUR|6NUR_protein|mol2

> <Gold.PLP.Fitness>
43.9398

> <Gold.PLP.PLP>
-41.4180

> <Gold.PLP.part.hbond>
-2.0000

> <Gold.PLP.part.metal>
0.0000

> <Gold.PLP.part.buried>
-6.4632

> <Gold.PLP.part.nonpolar>
-33.1220

> <Gold.PLP.part.repulsive>
0.1697

> <Gold.PLP.ligand.clash>
0.0000

> <Gold.PLP.ligand.torsion>
0.3213

> <Gold.PLP.Chemscore.Hbond>
0.9913

> <Gold.PLP.Chemscore.CHOScore>
0.0000

> <Gold.PLP.Chemscore.Metal>
0.0000

> <Gold.Chemscore.Hbonds>
donor molecule, donor type, donor heavy atom, donor atom, acceptor molecule, acceptor atom, score
      P1  H  6896  6907       L1     8  1.00

> <Gold.PLP.Chemscore.Internal.Correction>
0.1905

> <Gold.Rescore>
     Score         DG    S(hbond)    S(metal)    S(lipo)     H(rot)  DE(clash)    DE(int)     intcor
     11.69     -14.13       0.97        0.00      92.92       2.13       0.06       2.38       ----

> <Gold.Chemscore.Fitness>
11.6881

> <Gold.Chemscore.DG>
-14.1280

> <Gold.Chemscore.ZeroCoef>
-5.4800

> <Gold.Chemscore.Hbond>
0.9674

> <Gold.Chemscore.Metal>
0.0000

> <Gold.Chemscore.Lipo>
92.9223

> <Gold.Chemscore.Internal_Hbond>
0.0000

> <Gold.Chemscore.DEClash>
0.0584

> <Gold.Chemscore.DEInternal>
2.3815

> <Gold.Chemscore.Rot>
2.1309

> <Gold.Chemscore.Internal.Correction>
   9.000000E+99

> <Gold.Chemscore.Hbonds>
donor molecule, donor type, donor heavy atom, donor atom, acceptor molecule, acceptor atom, score
      P1  H  6896  6907       L1     8  0.97

> <Gold.Chemscore.Hbond.Weighted>
-3.2313

> <Gold.Chemscore.Metal.Weighted>
-0.0000

> <Gold.Chemscore.Lipo.Weighted>
-10.8719

> <Gold.Chemscore.Internal_Hbond.Weighted>
0.0000

> <Gold.Chemscore.DEClash.Weighted>
0.0584

> <Gold.Chemscore.DEInternal.Weighted>
2.3815

> <Gold.Chemscore.Rot.Weighted>
5.4552

> <Gold.Chemscore.Internal.Correction.Weighted>
   9.000000E+99

> <Gold.Protein.RotatedTorsions>
[ 6907 6896 6895 6894 ] final   21.23 input  -60.11 | X-H torsion
[ 7974 7965 7964 7962 ] final  -95.74 input  175.53 | X-H torsion
[ 8008 7997 7996 7995 ] final   97.06 input   59.86 | X-H torsion
[ 10167 10162 10161 10158 ] final -123.89 input  -65.29 | X-H torsion
[ 10718 10713 10712 10709 ] final   43.58 input   66.30 | X-H torsion
[ 10763 10752 10751 10750 ] final -179.87 input  -60.55 | X-H torsion
[ 11005 11000 10999 10996 ] final -174.63 input  -57.11 | X-H torsion

> <Gold.Protein.ActiveResidues>
 VAL166  LYS551  ARG553  GLY616  TRP617  ASP618  TYR619  PRO620  LYS621  CYS622 
 ASP623  PHE694  ASN695  SER759  ASP760  ASP761  ALA762  ILE779  LEU786  VAL792 
 PHE793  MET794  SER795  GLU796  ALA797  LYS798  CYS799  TRP800  GLU811  SER814 

> <Gold.Protein.RotatedAtoms>
  151.9085  135.0348  160.0512 H   0  0  0  0  0  0  0  0  0  0  0  0  # atno 6907 bound_to 6896
  152.2299  133.5045  159.5218 H   0  0  0  0  0  0  0  0  0  0  0  0  # atno 6908 bound_to 6896
  150.7022  134.1147  159.4055 H   0  0  0  0  0  0  0  0  0  0  0  0  # atno 6909 bound_to 6896
  145.3560  140.9484  143.2527 H   0  0  0  0  0  0  0  0  0  0  0  0  # atno 7974 bound_to 7965
  156.0862  140.3264  155.7757 H   0  0  0  0  0  0  0  0  0  0  0  0  # atno 8008 bound_to 7997
  155.5072  140.0574  157.2947 H   0  0  0  0  0  0  0  0  0  0  0  0  # atno 8009 bound_to 7997
  154.4610  140.1967  156.0260 H   0  0  0  0  0  0  0  0  0  0  0  0  # atno 8010 bound_to 7997
  139.9987  143.5564  152.2312 H   0  0  0  0  0  0  0  0  0  0  0  0  # atno 10167 bound_to 10162
  157.4175  130.7949  149.7485 H   0  0  0  0  0  0  0  0  0  0  0  0  # atno 10718 bound_to 10713
  154.5296  135.2799  155.1192 H   0  0  0  0  0  0  0  0  0  0  0  0  # atno 10763 bound_to 10752
  154.2717  135.6302  153.5316 H   0  0  0  0  0  0  0  0  0  0  0  0  # atno 10764 bound_to 10752
  152.9954  135.5630  154.5806 H   0  0  0  0  0  0  0  0  0  0  0  0  # atno 10765 bound_to 10752
  140.4724  134.6153  157.4887 H   0  0  0  0  0  0  0  0  0  0  0  0  # atno 11005 bound_to 11000
  144.8682  139.5077  143.6780 LP  0  0  0  0  0  0  0  0  0  0  0  0  # atno 17320 bound_to 7965
  146.2948  139.7244  142.9135 LP  0  0  0  0  0  0  0  0  0  0  0  0  # atno 17321 bound_to 7965
  139.6287  144.7641  151.2582 LP  0  0  0  0  0  0  0  0  0  0  0  0  # atno 17342 bound_to 10162
  140.7427  143.6517  150.8242 LP  0  0  0  0  0  0  0  0  0  0  0  0  # atno 17343 bound_to 10162
  155.9870  130.3970  150.3187 LP  0  0  0  0  0  0  0  0  0  0  0  0  # atno 17370 bound_to 10713
  157.1332  131.0277  151.2960 LP  0  0  0  0  0  0  0  0  0  0  0  0  # atno 17371 bound_to 10713
  139.9877  134.7035  155.9745 LP  0  0  0  0  0  0  0  0  0  0  0  0  # atno 17394 bound_to 11000
  141.1571  133.6542  156.4195 LP  0  0  0  0  0  0  0  0  0  0  0  0  # atno 17395 bound_to 11000

$$$$
