AV-unprocessed.smi:3145|AV-procd|sdf|11979|dock5
  -GOLD-   2272017383D 1   1.00000     0.00000
 Structure written by MMmdl.
 35 35  0  0  0  0  0  0  0  0  2 V2000
  145.9207  135.5093  153.1244 C   0  0  0  0  0  0  0  0  0  0  0  0
  145.4655  136.4352  151.9837 C   0  0  2  0  0  0  0  0  0  0  0  0
  145.0747  135.6605  150.7035 C   0  0  0  0  0  0  0  0  0  0  0  0
  145.1490  134.2202  150.8717 N   0  0  0  0  0  0  0  0  0  0  0  0
  144.1298  133.2951  150.7856 C   0  0  0  0  0  0  0  0  0  0  0  0
  144.6766  132.0659  151.0181 C   0  0  0  0  0  0  0  0  0  0  0  0
  146.0550  132.3444  151.2350 C   0  0  0  0  0  0  0  0  0  0  0  0
  146.3347  133.6350  151.1459 N   0  0  0  0  0  0  0  0  0  0  0  0
  146.5359  137.4266  151.7111 N   0  3  0  0  0  0  0  0  0  0  0  0
  146.5308  138.6561  152.5390 C   0  0  0  0  0  0  0  0  0  0  0  0
  147.5912  138.6373  153.6426 C   0  0  0  0  0  0  0  0  0  0  0  0
  147.4042  137.9863  154.6706 O   0  0  0  0  0  0  0  0  0  0  0  0
  148.6990  139.3574  153.4148 N   0  0  0  0  0  0  0  0  0  0  0  0
  149.8026  139.5200  154.3547 C   0  0  0  0  0  0  0  0  0  0  0  0
  150.8635  138.4184  154.1958 C   0  0  0  0  0  0  0  0  0  0  0  0
  152.1726  138.7883  154.7566 C   0  0  0  0  0  0  0  0  0  0  0  0
  153.2013  139.0829  155.1963 N   0  0  0  0  0  0  0  0  0  0  0  0
  145.1238  134.8346  153.4381 H   0  0  0  0  0  0  0  0  0  0  0  0
  146.2149  136.0849  154.0026 H   0  0  0  0  0  0  0  0  0  0  0  0
  146.7741  134.9002  152.8242 H   0  0  0  0  0  0  0  0  0  0  0  0
  144.5849  136.9676  152.3445 H   0  0  0  0  0  0  0  0  0  0  0  0
  144.0550  135.8975  150.4006 H   0  0  0  0  0  0  0  0  0  0  0  0
  145.7206  135.9525  149.8735 H   0  0  0  0  0  0  0  0  0  0  0  0
  143.1119  133.5848  150.5706 H   0  0  0  0  0  0  0  0  0  0  0  0
  144.1700  131.1121  151.0301 H   0  0  0  0  0  0  0  0  0  0  0  0
  146.8549  131.6518  151.4525 H   0  0  0  0  0  0  0  0  0  0  0  0
  147.4248  136.9709  151.8624 H   0  0  0  0  0  0  0  0  0  0  0  0
  146.7512  139.4990  151.8836 H   0  0  0  0  0  0  0  0  0  0  0  0
  145.5399  138.8422  152.9533 H   0  0  0  0  0  0  0  0  0  0  0  0
  148.7753  139.8508  152.5366 H   0  0  0  0  0  0  0  0  0  0  0  0
  150.2568  140.5034  154.2244 H   0  0  0  0  0  0  0  0  0  0  0  0
  149.3959  139.4968  155.3660 H   0  0  0  0  0  0  0  0  0  0  0  0
  150.5421  137.4952  154.6782 H   0  0  0  0  0  0  0  0  0  0  0  0
  151.0080  138.1895  153.1397 H   0  0  0  0  0  0  0  0  0  0  0  0
  146.4769  137.6922  150.7385 H   0  0  0  0  0  0  0  0  0  0  0  0
  1  2  1  0  0  0  0
  1 18  1  0  0  0  0
  1 19  1  0  0  0  0
  1 20  1  0  0  0  0
  2  3  1  0  0  0  0
  2  9  1  0  0  0  0
  2 21  1  0  0  0  0
  3  4  1  0  0  0  0
  3 22  1  0  0  0  0
  3 23  1  0  0  0  0
  4  8  1  0  0  0  0
  4  5  1  0  0  0  0
  5  6  2  0  0  0  0
  5 24  1  0  0  0  0
  6  7  1  0  0  0  0
  6 25  1  0  0  0  0
  7  8  2  0  0  0  0
  7 26  1  0  0  0  0
  9 10  1  0  0  0  0
  9 27  1  0  0  0  0
  9 35  1  0  0  0  0
 10 11  1  0  0  0  0
 10 28  1  0  0  0  0
 10 29  1  0  0  0  0
 11 12  2  0  0  0  0
 11 13  1  0  0  0  0
 13 14  1  0  0  0  0
 13 30  1  0  0  0  0
 14 15  1  0  0  0  0
 14 31  1  0  0  0  0
 14 32  1  0  0  0  0
 15 16  1  0  0  0  0
 15 33  1  0  0  0  0
 15 34  1  0  0  0  0
 16 17  3  0  0  0  0
M  CHG  1   9   1
M  END
> <s_m_source_file>
AV-unprocessed.smi

> <i_m_source_file_index>
3145

> <i_lp_mmshare_version>
43012

> <i_f3d_flags>
0

> <s_epik_input>
bjFbY0hdW2NIXVtjSF1uMVtDSDJdW0NAQEhdKFtDSDNdKVtOSF1bQ0gyXUMoPU8pW05IXVtDSDJdW0NIMl1DI04=

> <s_epik_cmdline>
J2VwaWtfcHl0aG9uJywgJy1waCcsICc3LjAnLCAnLXRuJywgJzgnLCAnLW1hJywgJzIwMCcsICctbWV0YWxfYmluZGluZycsICctaW1hZScsICc8aW5maWxlLm1hZT4nLCAnLW9tYWUnLCAnPG91dGZpbGUubWFlPic=

> <r_lp_tautomer_probability>
1

> <r_epik_Ionization_Penalty>
0.190162

> <r_epik_Ionization_Penalty_Charging>
0.190142

> <r_epik_Ionization_Penalty_Neutral>
2.0165e-05

> <r_epik_State_Penalty>
0.179787

> <r_epik_Charging_Adjusted_Penalty>
0.369929

> <i_epik_Tot_Q>
1

> <i_epik_Tot_abs_Q>
1

> <r_epik_Metal_State_Penalty>
0.191786

> <b_epik_Metal_Only>
0

> <s_lp_Force_Field>
OPLS_2005

> <r_lp_Energy>
3.88931

> <b_lp_Chiralities_Consistent>
1

> <s_lp_Variant>
AV-unprocessed.smi:3145-1

> <Gold.Version>
5.8.1

> <Gold.Id.Protein>
6NUR|6NUR_protein|mol2

> <Gold.PLP.Fitness>
48.8936

> <Gold.PLP.PLP>
-34.7807

> <Gold.PLP.part.hbond>
-3.0000

> <Gold.PLP.part.metal>
0.0000

> <Gold.PLP.part.buried>
-6.6609

> <Gold.PLP.part.nonpolar>
-26.9006

> <Gold.PLP.part.repulsive>
0.4631

> <Gold.PLP.ligand.clash>
0.0000

> <Gold.PLP.ligand.torsion>
1.9209

> <Gold.PLP.Chemscore.Hbond>
3.9600

> <Gold.PLP.Chemscore.CHOScore>
2.0000

> <Gold.PLP.Chemscore.Metal>
0.0000

> <Gold.Chemscore.Hbonds>
donor molecule, donor type, donor heavy atom, donor atom, acceptor molecule, acceptor atom, score
      L1  H     9    27       P1  7948  2.00
      L1  H    13    30       P1  7957  0.94
      P1  H  7997  8008       L1    17  1.00
      L1  C     5    24       P1 10186  1.00
      L1  C     7    26       P1 10747  0.94

> <Gold.PLP.Chemscore.Internal.Correction>
0.0746

> <Gold.Rescore>
     Score         DG    S(hbond)    S(metal)    S(lipo)     H(rot)  DE(clash)    DE(int)     intcor
     13.22     -15.38       2.93        0.00      64.07       2.89       0.01       2.14       ----

> <Gold.Chemscore.Fitness>
13.2249

> <Gold.Chemscore.DG>
-15.3777

> <Gold.Chemscore.ZeroCoef>
-5.4800

> <Gold.Chemscore.Hbond>
2.9335

> <Gold.Chemscore.Metal>
0.0000

> <Gold.Chemscore.Lipo>
64.0739

> <Gold.Chemscore.Internal_Hbond>
0.0000

> <Gold.Chemscore.DEClash>
0.0117

> <Gold.Chemscore.DEInternal>
2.1412

> <Gold.Chemscore.Rot>
2.8894

> <Gold.Chemscore.Internal.Correction>
   9.000000E+99

> <Gold.Chemscore.Hbonds>
donor molecule, donor type, donor heavy atom, donor atom, acceptor molecule, acceptor atom, score
      L1  H     9    27       P1  7948  1.00
      L1  H    13    30       P1  7957  0.90
      P1  H  7997  8008       L1    17  1.00

> <Gold.Chemscore.Hbond.Weighted>
-9.7979

> <Gold.Chemscore.Metal.Weighted>
-0.0000

> <Gold.Chemscore.Lipo.Weighted>
-7.4966

> <Gold.Chemscore.Internal_Hbond.Weighted>
0.0000

> <Gold.Chemscore.DEClash.Weighted>
0.0117

> <Gold.Chemscore.DEInternal.Weighted>
2.1412

> <Gold.Chemscore.Rot.Weighted>
7.3968

> <Gold.Chemscore.Internal.Correction.Weighted>
   9.000000E+99

> <Gold.Protein.RotatedTorsions>
[ 6907 6896 6895 6894 ] final  145.04 input  -60.11 | X-H torsion
[ 7974 7965 7964 7962 ] final  126.58 input  175.53 | X-H torsion
[ 8008 7997 7996 7995 ] final  -17.21 input   59.86 | X-H torsion
[ 10167 10162 10161 10158 ] final   88.68 input  -65.29 | X-H torsion
[ 10718 10713 10712 10709 ] final  -26.56 input   66.30 | X-H torsion
[ 10763 10752 10751 10750 ] final  142.02 input  -60.55 | X-H torsion
[ 11005 11000 10999 10996 ] final   40.48 input  -57.11 | X-H torsion

> <Gold.Protein.ActiveResidues>
 VAL166  LYS551  ARG553  GLY616  TRP617  ASP618  TYR619  PRO620  LYS621  CYS622 
 ASP623  PHE694  ASN695  SER759  ASP760  ASP761  ALA762  ILE779  LEU786  VAL792 
 PHE793  MET794  SER795  GLU796  ALA797  LYS798  CYS799  TRP800  GLU811  SER814 

> <Gold.Protein.RotatedAtoms>
  152.1859  133.4739  159.4982 H   0  0  0  0  0  0  0  0  0  0  0  0  # atno 6907 bound_to 6896
  150.6942  134.1774  159.4244 H   0  0  0  0  0  0  0  0  0  0  0  0  # atno 6908 bound_to 6896
  151.9687  135.0087  160.0602 H   0  0  0  0  0  0  0  0  0  0  0  0  # atno 6909 bound_to 6896
  145.0602  139.3812  143.5010 H   0  0  0  0  0  0  0  0  0  0  0  0  # atno 7974 bound_to 7965
  154.4995  140.2149  155.9376 H   0  0  0  0  0  0  0  0  0  0  0  0  # atno 8008 bound_to 7997
  156.1415  140.3178  155.8471 H   0  0  0  0  0  0  0  0  0  0  0  0  # atno 8009 bound_to 7997
  155.4110  140.0490  157.3022 H   0  0  0  0  0  0  0  0  0  0  0  0  # atno 8010 bound_to 7997
  139.8649  144.6524  150.9016 H   0  0  0  0  0  0  0  0  0  0  0  0  # atno 10167 bound_to 10162
  156.4496  130.4481  149.6998 H   0  0  0  0  0  0  0  0  0  0  0  0  # atno 10718 bound_to 10713
  153.9489  135.2972  155.3439 H   0  0  0  0  0  0  0  0  0  0  0  0  # atno 10763 bound_to 10752
  154.7437  135.5013  153.9170 H   0  0  0  0  0  0  0  0  0  0  0  0  # atno 10764 bound_to 10752
  153.1004  135.6733  153.9791 H   0  0  0  0  0  0  0  0  0  0  0  0  # atno 10765 bound_to 10752
  140.1927  134.3967  155.8138 H   0  0  0  0  0  0  0  0  0  0  0  0  # atno 11005 bound_to 11000
  146.3524  140.0296  142.8651 LP  0  0  0  0  0  0  0  0  0  0  0  0  # atno 17320 bound_to 7965
  145.1419  140.9576  143.4484 LP  0  0  0  0  0  0  0  0  0  0  0  0  # atno 17321 bound_to 7965
  140.7769  143.3713  151.1644 LP  0  0  0  0  0  0  0  0  0  0  0  0  # atno 17342 bound_to 10162
  139.7339  143.9030  152.3028 LP  0  0  0  0  0  0  0  0  0  0  0  0  # atno 17343 bound_to 10162
  156.3830  130.7589  151.2583 LP  0  0  0  0  0  0  0  0  0  0  0  0  # atno 17370 bound_to 10713
  157.7503  131.0290  150.4073 LP  0  0  0  0  0  0  0  0  0  0  0  0  # atno 17371 bound_to 10713
  141.2226  133.7054  156.8123 LP  0  0  0  0  0  0  0  0  0  0  0  0  # atno 17394 bound_to 11000
  140.2142  134.8805  157.3307 LP  0  0  0  0  0  0  0  0  0  0  0  0  # atno 17395 bound_to 11000

$$$$
