AV-unprocessed.smi:1191|AV-procd|sdf|4986|dock7
  -GOLD-   22720 3583D 1   1.00000     0.00000
 Structure written by MMmdl.
 47 48  0  0  0  0  0  0  0  0  2 V2000
  153.9355  141.5152  160.7297 C   0  0  0  0  0  0  0  0  0  0  0  0
  152.9252  141.9373  159.7040 C   0  0  0  0  0  0  0  0  0  0  0  0
  152.5230  141.2478  158.5261 C   0  0  0  0  0  0  0  0  0  0  0  0
  151.5857  142.0649  157.9594 C   0  0  0  0  0  0  0  0  0  0  0  0
  150.7892  141.8945  156.7075 C   0  0  0  0  0  0  0  0  0  0  0  0
  151.4672  143.1707  158.7828 N   0  0  0  0  0  0  0  0  0  0  0  0
  150.6033  144.3326  158.6415 C   0  0  0  0  0  0  0  0  0  0  0  0
  149.7728  144.5605  159.9052 C   0  0  0  0  0  0  0  0  0  0  0  0
  150.1763  144.1469  160.9920 O   0  0  0  0  0  0  0  0  0  0  0  0
  148.6167  145.2244  159.7509 N   0  0  0  0  0  0  0  0  0  0  0  0
  147.6969  145.5652  160.8283 C   0  0  0  0  0  0  0  0  0  0  0  0
  146.4353  146.2660  160.2892 C   0  0  0  0  0  0  0  0  0  0  0  0
  145.7899  145.4953  159.1975 N   0  3  1  0  0  0  0  0  0  0  0  0
  145.8619  144.0286  159.4219 C   0  0  0  0  0  0  0  0  0  0  0  0
  145.3344  143.2565  158.2022 C   0  0  0  0  0  0  0  0  0  0  0  0
  143.9052  143.6917  157.8487 C   0  0  0  0  0  0  0  0  0  0  0  0
  143.8104  145.2198  157.6801 C   0  0  2  0  0  0  0  0  0  0  0  0
  144.4390  145.7163  156.3663 C   0  0  0  0  0  0  0  0  0  0  0  0
  144.3975  145.9372  158.9131 C   0  0  0  0  0  0  0  0  0  0  0  0
  152.2880  143.0869  159.8531 N   0  0  0  0  0  0  0  0  0  0  0  0
  154.4313  140.5894  160.4374 H   0  0  0  0  0  0  0  0  0  0  0  0
  153.4639  141.3471  161.6981 H   0  0  0  0  0  0  0  0  0  0  0  0
  154.7054  142.2760  160.8602 H   0  0  0  0  0  0  0  0  0  0  0  0
  152.8706  140.2958  158.1530 H   0  0  0  0  0  0  0  0  0  0  0  0
  151.0336  140.9526  156.2159 H   0  0  0  0  0  0  0  0  0  0  0  0
  150.9931  142.7016  156.0036 H   0  0  0  0  0  0  0  0  0  0  0  0
  149.7206  141.8920  156.9228 H   0  0  0  0  0  0  0  0  0  0  0  0
  151.2105  145.2149  158.4323 H   0  0  0  0  0  0  0  0  0  0  0  0
  149.9485  144.1889  157.7814 H   0  0  0  0  0  0  0  0  0  0  0  0
  148.3671  145.5269  158.8198 H   0  0  0  0  0  0  0  0  0  0  0  0
  147.4402  144.6381  161.3393 H   0  0  0  0  0  0  0  0  0  0  0  0
  148.2010  146.1957  161.5630 H   0  0  0  0  0  0  0  0  0  0  0  0
  145.7281  146.3772  161.1123 H   0  0  0  0  0  0  0  0  0  0  0  0
  146.6660  147.2759  159.9464 H   0  0  0  0  0  0  0  0  0  0  0  0
  146.8950  143.7316  159.6078 H   0  0  0  0  0  0  0  0  0  0  0  0
  145.2900  143.7661  160.3133 H   0  0  0  0  0  0  0  0  0  0  0  0
  145.9955  143.4185  157.3503 H   0  0  0  0  0  0  0  0  0  0  0  0
  145.3553  142.1853  158.4045 H   0  0  0  0  0  0  0  0  0  0  0  0
  143.5665  143.1839  156.9450 H   0  0  0  0  0  0  0  0  0  0  0  0
  143.2310  143.3767  158.6464 H   0  0  0  0  0  0  0  0  0  0  0  0
  142.7510  145.4744  157.6282 H   0  0  0  0  0  0  0  0  0  0  0  0
  145.5123  145.5298  156.3309 H   0  0  0  0  0  0  0  0  0  0  0  0
  144.2883  146.7891  156.2425 H   0  0  0  0  0  0  0  0  0  0  0  0
  143.9878  145.2223  155.5052 H   0  0  0  0  0  0  0  0  0  0  0  0
  143.7759  145.7343  159.7869 H   0  0  0  0  0  0  0  0  0  0  0  0
  144.3602  147.0143  158.7534 H   0  0  0  0  0  0  0  0  0  0  0  0
  146.3326  145.6762  158.3650 H   0  0  0  0  0  0  0  0  0  0  0  0
  1  2  1  0  0  0  0
  1 21  1  0  0  0  0
  1 22  1  0  0  0  0
  1 23  1  0  0  0  0
  2 20  2  0  0  0  0
  2  3  1  0  0  0  0
  3  4  2  0  0  0  0
  3 24  1  0  0  0  0
  4  5  1  0  0  0  0
  4  6  1  0  0  0  0
  5 25  1  0  0  0  0
  5 26  1  0  0  0  0
  5 27  1  0  0  0  0
  6  7  1  0  0  0  0
  6 20  1  0  0  0  0
  7  8  1  0  0  0  0
  7 28  1  0  0  0  0
  7 29  1  0  0  0  0
  8  9  2  0  0  0  0
  8 10  1  0  0  0  0
 10 11  1  0  0  0  0
 10 30  1  0  0  0  0
 11 12  1  0  0  0  0
 11 31  1  0  0  0  0
 11 32  1  0  0  0  0
 12 13  1  0  0  0  0
 12 33  1  0  0  0  0
 12 34  1  0  0  0  0
 13 19  1  0  0  0  0
 13 14  1  0  0  0  0
 13 47  1  0  0  0  0
 14 15  1  0  0  0  0
 14 35  1  0  0  0  0
 14 36  1  0  0  0  0
 15 16  1  0  0  0  0
 15 37  1  0  0  0  0
 15 38  1  0  0  0  0
 16 17  1  0  0  0  0
 16 39  1  0  0  0  0
 16 40  1  0  0  0  0
 17 18  1  0  0  0  0
 17 19  1  0  0  0  0
 17 41  1  0  0  0  0
 18 42  1  0  0  0  0
 18 43  1  0  0  0  0
 18 44  1  0  0  0  0
 19 45  1  0  0  0  0
 19 46  1  0  0  0  0
M  CHG  1  13   1
M  END
> <s_m_source_file>
AV-unprocessed.smi

> <i_m_source_file_index>
1191

> <i_lp_mmshare_version>
43012

> <i_f3d_flags>
0

> <s_epik_input>
W0NIM11jMVtjSF1jKFtDSDNdKW4objEpW0NIMl1DKD1PKVtOSF1bQ0gyXVtDSDJdTjJbQ0gyXVtDSDJdW0NIMl1bQ0BASF0oW0NIM10pW0NIMl0y

> <s_epik_cmdline>
J2VwaWtfcHl0aG9uJywgJy1waCcsICc3LjAnLCAnLXRuJywgJzgnLCAnLW1hJywgJzIwMCcsICctbWV0YWxfYmluZGluZycsICctaW1hZScsICc8aW5maWxlLm1hZT4nLCAnLW9tYWUnLCAnPG91dGZpbGUubWFlPic=

> <r_lp_tautomer_probability>
1

> <r_epik_Ionization_Penalty>
0.00249932

> <r_epik_Ionization_Penalty_Charging>
0.00230623

> <r_epik_Ionization_Penalty_Neutral>
0.000193092

> <r_epik_State_Penalty>
-0

> <r_epik_Charging_Adjusted_Penalty>
0.00230623

> <i_epik_Tot_Q>
1

> <i_epik_Tot_abs_Q>
1

> <r_epik_Metal_State_Penalty>
-0

> <b_epik_Metal_Only>
0

> <s_lp_Force_Field>
OPLS_2005

> <r_lp_Energy>
16.3649

> <b_lp_Chiralities_Consistent>
1

> <s_lp_Variant>
AV-unprocessed.smi:1191-3

> <Gold.Version>
5.8.1

> <Gold.Id.Protein>
6NUR|6NUR_protein|mol2

> <Gold.PLP.Fitness>
44.2652

> <Gold.PLP.PLP>
-36.4359

> <Gold.PLP.part.hbond>
-3.0000

> <Gold.PLP.part.metal>
0.0000

> <Gold.PLP.part.buried>
-7.7535

> <Gold.PLP.part.nonpolar>
-26.5032

> <Gold.PLP.part.repulsive>
0.4622

> <Gold.PLP.ligand.clash>
0.0000

> <Gold.PLP.ligand.torsion>
0.5996

> <Gold.PLP.Chemscore.Hbond>
3.0000

> <Gold.PLP.Chemscore.CHOScore>
0.0000

> <Gold.PLP.Chemscore.Metal>
0.0000

> <Gold.Chemscore.Hbonds>
donor molecule, donor type, donor heavy atom, donor atom, acceptor molecule, acceptor atom, score
      L1  H    10    30       P1  8029  1.00
      L1  H    13    47       P1  8029  2.00

> <Gold.PLP.Chemscore.Internal.Correction>
0.0285

> <Gold.Rescore>
     Score         DG    S(hbond)    S(metal)    S(lipo)     H(rot)  DE(clash)    DE(int)     intcor
     15.34     -17.36       1.96        0.00      82.03       1.67       0.02       2.01       ----

> <Gold.Chemscore.Fitness>
15.3354

> <Gold.Chemscore.DG>
-17.3603

> <Gold.Chemscore.ZeroCoef>
-5.4800

> <Gold.Chemscore.Hbond>
1.9600

> <Gold.Chemscore.Metal>
0.0000

> <Gold.Chemscore.Lipo>
82.0330

> <Gold.Chemscore.Internal_Hbond>
0.0000

> <Gold.Chemscore.DEClash>
0.0174

> <Gold.Chemscore.DEInternal>
2.0075

> <Gold.Chemscore.Rot>
1.6657

> <Gold.Chemscore.Internal.Correction>
   9.000000E+99

> <Gold.Chemscore.Hbonds>
donor molecule, donor type, donor heavy atom, donor atom, acceptor molecule, acceptor atom, score
      L1  H    10    30       P1  8029  1.00
      L1  H    13    47       P1  8029  1.00

> <Gold.Chemscore.Hbond.Weighted>
-6.5465

> <Gold.Chemscore.Metal.Weighted>
-0.0000

> <Gold.Chemscore.Lipo.Weighted>
-9.5979

> <Gold.Chemscore.Internal_Hbond.Weighted>
0.0000

> <Gold.Chemscore.DEClash.Weighted>
0.0174

> <Gold.Chemscore.DEInternal.Weighted>
2.0075

> <Gold.Chemscore.Rot.Weighted>
4.2641

> <Gold.Chemscore.Internal.Correction.Weighted>
   9.000000E+99

> <Gold.Protein.RotatedTorsions>
[ 6907 6896 6895 6894 ] final -120.37 input  -60.11 | X-H torsion
[ 7974 7965 7964 7962 ] final  169.41 input  175.53 | X-H torsion
[ 8008 7997 7996 7995 ] final   32.53 input   59.86 | X-H torsion
[ 10167 10162 10161 10158 ] final -144.00 input  -65.29 | X-H torsion
[ 10718 10713 10712 10709 ] final   -0.29 input   66.30 | X-H torsion
[ 10763 10752 10751 10750 ] final  -38.76 input  -60.55 | X-H torsion
[ 11005 11000 10999 10996 ] final   97.67 input  -57.11 | X-H torsion

> <Gold.Protein.ActiveResidues>
 VAL166  LYS551  ARG553  GLY616  TRP617  ASP618  TYR619  PRO620  LYS621  CYS622 
 ASP623  PHE694  ASN695  SER759  ASP760  ASP761  ALA762  ILE779  LEU786  VAL792 
 PHE793  MET794  SER795  GLU796  ALA797  LYS798  CYS799  TRP800  GLU811  SER814 

> <Gold.Protein.RotatedAtoms>
  150.8387  133.7971  159.3069 H   0  0  0  0  0  0  0  0  0  0  0  0  # atno 6907 bound_to 6896
  151.5679  135.1062  159.9998 H   0  0  0  0  0  0  0  0  0  0  0  0  # atno 6908 bound_to 6896
  152.4455  133.7486  159.6737 H   0  0  0  0  0  0  0  0  0  0  0  0  # atno 6909 bound_to 6896
  144.7356  139.9051  143.6411 H   0  0  0  0  0  0  0  0  0  0  0  0  # atno 7974 bound_to 7965
  155.1240  140.3251  155.4490 H   0  0  0  0  0  0  0  0  0  0  0  0  # atno 8008 bound_to 7997
  156.2654  140.2022  156.6310 H   0  0  0  0  0  0  0  0  0  0  0  0  # atno 8009 bound_to 7997
  154.6662  140.0541  157.0103 H   0  0  0  0  0  0  0  0  0  0  0  0  # atno 8010 bound_to 7997
  139.7940  143.7926  152.2652 H   0  0  0  0  0  0  0  0  0  0  0  0  # atno 10167 bound_to 10162
  156.8226  130.5461  149.5695 H   0  0  0  0  0  0  0  0  0  0  0  0  # atno 10718 bound_to 10713
  153.9182  135.6785  153.4748 H   0  0  0  0  0  0  0  0  0  0  0  0  # atno 10763 bound_to 10752
  153.1042  135.4813  154.8919 H   0  0  0  0  0  0  0  0  0  0  0  0  # atno 10764 bound_to 10752
  154.7492  135.3180  154.8546 H   0  0  0  0  0  0  0  0  0  0  0  0  # atno 10765 bound_to 10752
  139.8775  134.9012  156.4342 H   0  0  0  0  0  0  0  0  0  0  0  0  # atno 11005 bound_to 11000
  146.1043  139.4041  143.0327 LP  0  0  0  0  0  0  0  0  0  0  0  0  # atno 17320 bound_to 7965
  145.7534  140.9963  143.1238 LP  0  0  0  0  0  0  0  0  0  0  0  0  # atno 17321 bound_to 7965
  139.8026  144.7368  150.9804 LP  0  0  0  0  0  0  0  0  0  0  0  0  # atno 17342 bound_to 10162
  140.7820  143.4330  151.0666 LP  0  0  0  0  0  0  0  0  0  0  0  0  # atno 17343 bound_to 10162
  156.0980  130.5947  150.9846 LP  0  0  0  0  0  0  0  0  0  0  0  0  # atno 17370 bound_to 10713
  157.6449  131.0905  150.8174 LP  0  0  0  0  0  0  0  0  0  0  0  0  # atno 17371 bound_to 10713
  140.9045  133.7755  155.9719 LP  0  0  0  0  0  0  0  0  0  0  0  0  # atno 17394 bound_to 11000
  140.8614  134.2836  157.5232 LP  0  0  0  0  0  0  0  0  0  0  0  0  # atno 17395 bound_to 11000

$$$$
