AV-unprocessed.smi:2356|AV-procd|sdf|9399|dock6
  -GOLD-   2272013 33D 1   1.00000     0.00000
 Structure written by MMmdl.
 54 57  0  0  0  0  0  0  0  0  2 V2000
  151.2262  137.9183  154.4450 C   0  0  0  0  0  0  0  0  0  0  0  0
  150.5281  139.1896  154.8933 C   0  0  0  0  0  0  0  0  0  0  0  0
  151.1972  140.0016  155.7420 N   0  3  0  0  0  0  0  0  0  0  0  0
  150.7017  141.1663  156.2232 C   0  0  0  0  0  0  0  0  0  0  0  0
  151.4941  141.9265  157.1042 N   0  0  0  0  0  0  0  0  0  0  0  0
  151.2233  143.3351  157.3446 C   0  0  0  0  0  0  0  0  0  0  0  0
  152.1717  143.7216  158.4782 C   0  0  0  0  0  0  0  0  0  0  0  0
  152.2721  142.4355  159.2988 C   0  0  0  0  0  0  0  0  0  0  0  0
  152.1322  141.3148  158.2616 C   0  0  0  0  0  0  0  0  0  0  0  0
  149.4011  141.5582  155.8315 C   0  0  0  0  0  0  0  0  0  0  0  0
  148.6622  140.7465  154.9478 C   0  0  0  0  0  0  0  0  0  0  0  0
  149.2318  139.5472  154.4537 C   0  0  0  0  0  0  0  0  0  0  0  0
  148.5453  138.6650  153.5752 N   0  0  0  0  0  0  0  0  0  0  0  0
  147.2177  138.4972  153.4198 C   0  0  0  0  0  0  0  0  0  0  0  0
  146.3584  139.1205  154.0391 O   0  0  0  0  0  0  0  0  0  0  0  0
  146.8827  137.5886  152.4858 N   0  0  0  0  0  0  0  0  0  0  0  0
  145.5445  137.1656  152.0670 C   0  0  2  0  0  0  0  0  0  0  0  0
  144.5836  137.1026  153.2668 C   0  0  0  0  0  0  0  0  0  0  0  0
  143.2328  136.5040  152.8459 C   0  0  0  0  0  0  0  0  0  0  0  0
  143.4299  135.2189  152.2674 O   0  0  0  0  0  0  0  0  0  0  0  0
  144.2164  135.2469  151.0772 C   0  0  2  0  0  0  0  0  0  0  0  0
  144.2780  133.8645  150.4472 C   0  0  0  0  0  0  0  0  0  0  0  0
  143.4890  132.7045  151.0165 C   0  0  0  0  0  0  0  0  0  0  0  0
  144.9914  132.7191  151.1336 C   0  0  0  0  0  0  0  0  0  0  0  0
  145.6230  135.7792  151.4107 C   0  0  0  0  0  0  0  0  0  0  0  0
  150.6370  137.0430  154.7199 H   0  0  0  0  0  0  0  0  0  0  0  0
  152.2107  137.8215  154.9040 H   0  0  0  0  0  0  0  0  0  0  0  0
  151.3568  137.9198  153.3628 H   0  0  0  0  0  0  0  0  0  0  0  0
  151.3957  143.9375  156.4519 H   0  0  0  0  0  0  0  0  0  0  0  0
  150.1843  143.4602  157.6528 H   0  0  0  0  0  0  0  0  0  0  0  0
  153.1513  143.9763  158.0713 H   0  0  0  0  0  0  0  0  0  0  0  0
  151.8155  144.5728  159.0595 H   0  0  0  0  0  0  0  0  0  0  0  0
  153.1970  142.3678  159.8722 H   0  0  0  0  0  0  0  0  0  0  0  0
  151.4394  142.3887  160.0018 H   0  0  0  0  0  0  0  0  0  0  0  0
  151.5510  140.4844  158.6643 H   0  0  0  0  0  0  0  0  0  0  0  0
  153.1110  140.9367  157.9653 H   0  0  0  0  0  0  0  0  0  0  0  0
  148.9546  142.4672  156.2068 H   0  0  0  0  0  0  0  0  0  0  0  0
  147.6633  141.0532  154.6785 H   0  0  0  0  0  0  0  0  0  0  0  0
  149.1303  138.1508  152.9330 H   0  0  0  0  0  0  0  0  0  0  0  0
  147.6496  137.1521  151.9940 H   0  0  0  0  0  0  0  0  0  0  0  0
  145.1505  137.8625  151.3250 H   0  0  0  0  0  0  0  0  0  0  0  0
  145.0166  136.4878  154.0571 H   0  0  0  0  0  0  0  0  0  0  0  0
  144.4312  138.0945  153.6922 H   0  0  0  0  0  0  0  0  0  0  0  0
  142.5816  136.4024  153.7142 H   0  0  0  0  0  0  0  0  0  0  0  0
  142.7202  137.1587  152.1394 H   0  0  0  0  0  0  0  0  0  0  0  0
  143.7367  135.9104  150.3556 H   0  0  0  0  0  0  0  0  0  0  0  0
  144.3587  133.8879  149.3621 H   0  0  0  0  0  0  0  0  0  0  0  0
  142.9130  132.8710  151.9245 H   0  0  0  0  0  0  0  0  0  0  0  0
  143.0476  132.0048  150.3097 H   0  0  0  0  0  0  0  0  0  0  0  0
  145.5512  132.0300  150.5048 H   0  0  0  0  0  0  0  0  0  0  0  0
  145.4169  132.8981  152.1189 H   0  0  0  0  0  0  0  0  0  0  0  0
  146.2288  135.8288  150.5050 H   0  0  0  0  0  0  0  0  0  0  0  0
  146.1231  135.0794  152.0824 H   0  0  0  0  0  0  0  0  0  0  0  0
  152.1322  139.7198  156.0362 H   0  0  0  0  0  0  0  0  0  0  0  0
  1  2  1  0  0  0  0
  1 26  1  0  0  0  0
  1 27  1  0  0  0  0
  1 28  1  0  0  0  0
  2 12  1  0  0  0  0
  2  3  2  0  0  0  0
  3  4  1  0  0  0  0
  3 54  1  0  0  0  0
  4  5  1  0  0  0  0
  4 10  2  0  0  0  0
  5  9  1  0  0  0  0
  5  6  1  0  0  0  0
  6  7  1  0  0  0  0
  6 29  1  0  0  0  0
  6 30  1  0  0  0  0
  7  8  1  0  0  0  0
  7 31  1  0  0  0  0
  7 32  1  0  0  0  0
  8  9  1  0  0  0  0
  8 33  1  0  0  0  0
  8 34  1  0  0  0  0
  9 35  1  0  0  0  0
  9 36  1  0  0  0  0
 10 11  1  0  0  0  0
 10 37  1  0  0  0  0
 11 12  2  0  0  0  0
 11 38  1  0  0  0  0
 12 13  1  0  0  0  0
 13 14  1  0  0  0  0
 13 39  1  0  0  0  0
 14 15  2  0  0  0  0
 14 16  1  0  0  0  0
 16 17  1  0  0  0  0
 16 40  1  0  0  0  0
 17 25  1  0  0  0  0
 17 18  1  0  0  0  0
 17 41  1  0  0  0  0
 18 19  1  0  0  0  0
 18 42  1  0  0  0  0
 18 43  1  0  0  0  0
 19 20  1  0  0  0  0
 19 44  1  0  0  0  0
 19 45  1  0  0  0  0
 20 21  1  0  0  0  0
 21 22  1  0  0  0  0
 21 25  1  0  0  0  0
 21 46  1  0  0  0  0
 22 24  1  0  0  0  0
 22 23  1  0  0  0  0
 22 47  1  0  0  0  0
 23 24  1  0  0  0  0
 23 48  1  0  0  0  0
 23 49  1  0  0  0  0
 24 50  1  0  0  0  0
 24 51  1  0  0  0  0
 25 52  1  0  0  0  0
 25 53  1  0  0  0  0
M  CHG  1   3   1
M  END
> <s_m_source_file>
AV-unprocessed.smi

> <i_m_source_file_index>
2356

> <i_lp_mmshare_version>
43012

> <i_f3d_flags>
0

> <s_epik_input>
W0NIMl0xW0NIMl1bQ0gyXVtDSDJdTjFjKG5jMltDSDNdKVtjSF1bY0hdYzJbTkhdQyg9TylbTkhdW0NAQEhdM1tDSDJdW0NIMl1PW0NASF0oW0NIMl0zKVtDSF00W0NIMl1bQ0gyXTQ=

> <s_epik_cmdline>
J2VwaWtfcHl0aG9uJywgJy1waCcsICc3LjAnLCAnLXRuJywgJzgnLCAnLW1hJywgJzIwMCcsICctbWV0YWxfYmluZGluZycsICctaW1hZScsICc8aW5maWxlLm1hZT4nLCAnLW9tYWUnLCAnPG91dGZpbGUubWFlPic=

> <r_lp_tautomer_probability>
0.999994

> <r_epik_Ionization_Penalty>
0.534681

> <r_epik_Ionization_Penalty_Charging>
0.534661

> <r_epik_Ionization_Penalty_Neutral>
1.99132e-05

> <r_epik_State_Penalty>
0.543738

> <r_epik_Charging_Adjusted_Penalty>
1.0784

> <i_epik_Tot_Q>
1

> <i_epik_Tot_abs_Q>
1

> <r_epik_Metal_State_Penalty>
0.74699

> <b_epik_Metal_Only>
0

> <s_lp_Force_Field>
OPLS_2005

> <r_lp_Energy>
57.2966

> <b_lp_Chiralities_Consistent>
1

> <s_lp_Variant>
AV-unprocessed.smi:2356-7

> <Gold.Version>
5.8.1

> <Gold.Id.Protein>
6NUR|6NUR_protein|mol2

> <Gold.PLP.Fitness>
51.7934

> <Gold.PLP.PLP>
-49.6030

> <Gold.PLP.part.hbond>
-2.8090

> <Gold.PLP.part.metal>
0.0000

> <Gold.PLP.part.buried>
-5.7520

> <Gold.PLP.part.nonpolar>
-43.5280

> <Gold.PLP.part.repulsive>
0.5792

> <Gold.PLP.ligand.clash>
0.0000

> <Gold.PLP.ligand.torsion>
1.7366

> <Gold.PLP.Chemscore.Hbond>
1.4586

> <Gold.PLP.Chemscore.CHOScore>
0.0000

> <Gold.PLP.Chemscore.Metal>
0.0000

> <Gold.Chemscore.Hbonds>
donor molecule, donor type, donor heavy atom, donor atom, acceptor molecule, acceptor atom, score
      L1  H    13    39       P1  7948  0.47
      L1  H    16    40       P1  7948  1.00

> <Gold.PLP.Chemscore.Internal.Correction>
1.2877

> <Gold.Rescore>
     Score         DG    S(hbond)    S(metal)    S(lipo)     H(rot)  DE(clash)    DE(int)     intcor
     17.79     -22.35       1.74        0.00     119.58       1.15       0.32       4.24       ----

> <Gold.Chemscore.Fitness>
17.7915

> <Gold.Chemscore.DG>
-22.3467

> <Gold.Chemscore.ZeroCoef>
-5.4800

> <Gold.Chemscore.Hbond>
1.7421

> <Gold.Chemscore.Metal>
0.0000

> <Gold.Chemscore.Lipo>
119.5758

> <Gold.Chemscore.Internal_Hbond>
0.0000

> <Gold.Chemscore.DEClash>
0.3196

> <Gold.Chemscore.DEInternal>
4.2356

> <Gold.Chemscore.Rot>
1.1493

> <Gold.Chemscore.Internal.Correction>
   9.000000E+99

> <Gold.Chemscore.Hbonds>
donor molecule, donor type, donor heavy atom, donor atom, acceptor molecule, acceptor atom, score
      L1  H    13    39       P1  7948  0.46
      L1  H    16    40       P1  7948  0.97

> <Gold.Chemscore.Hbond.Weighted>
-5.8185

> <Gold.Chemscore.Metal.Weighted>
-0.0000

> <Gold.Chemscore.Lipo.Weighted>
-13.9904

> <Gold.Chemscore.Internal_Hbond.Weighted>
0.0000

> <Gold.Chemscore.DEClash.Weighted>
0.3196

> <Gold.Chemscore.DEInternal.Weighted>
4.2356

> <Gold.Chemscore.Rot.Weighted>
2.9421

> <Gold.Chemscore.Internal.Correction.Weighted>
   9.000000E+99

> <Gold.Protein.RotatedTorsions>
[ 6907 6896 6895 6894 ] final  -78.20 input  -60.11 | X-H torsion
[ 7974 7965 7964 7962 ] final  -35.53 input  175.53 | X-H torsion
[ 8008 7997 7996 7995 ] final  -63.33 input   59.86 | X-H torsion
[ 10167 10162 10161 10158 ] final   -1.94 input  -65.29 | X-H torsion
[ 10718 10713 10712 10709 ] final  -99.77 input   66.30 | X-H torsion
[ 10763 10752 10751 10750 ] final -143.17 input  -60.55 | X-H torsion
[ 11005 11000 10999 10996 ] final  -86.46 input  -57.11 | X-H torsion

> <Gold.Protein.ActiveResidues>
 VAL166  LYS551  ARG553  GLY616  TRP617  ASP618  TYR619  PRO620  LYS621  CYS622 
 ASP623  PHE694  ASN695  SER759  ASP760  ASP761  ALA762  ILE779  LEU786  VAL792 
 PHE793  MET794  SER795  GLU796  ALA797  LYS798  CYS799  TRP800  GLU811  SER814 

> <Gold.Protein.RotatedAtoms>
  150.6979  134.4308  159.5247 H   0  0  0  0  0  0  0  0  0  0  0  0  # atno 6907 bound_to 6896
  152.2035  134.8564  160.0514 H   0  0  0  0  0  0  0  0  0  0  0  0  # atno 6908 bound_to 6896
  151.9475  133.3621  159.4024 H   0  0  0  0  0  0  0  0  0  0  0  0  # atno 6909 bound_to 6896
  146.0738  140.6170  142.8940 H   0  0  0  0  0  0  0  0  0  0  0  0  # atno 7974 bound_to 7965
  154.4548  140.0977  156.6725 H   0  0  0  0  0  0  0  0  0  0  0  0  # atno 8008 bound_to 7997
  155.5172  140.3478  155.4381 H   0  0  0  0  0  0  0  0  0  0  0  0  # atno 8009 bound_to 7997
  156.0755  140.1360  156.9765 H   0  0  0  0  0  0  0  0  0  0  0  0  # atno 8010 bound_to 7997
  140.6831  143.6716  150.8181 H   0  0  0  0  0  0  0  0  0  0  0  0  # atno 10167 bound_to 10162
  156.0143  130.5297  150.6719 H   0  0  0  0  0  0  0  0  0  0  0  0  # atno 10718 bound_to 10713
  154.8480  135.3475  154.6145 H   0  0  0  0  0  0  0  0  0  0  0  0  # atno 10763 bound_to 10752
  153.6753  135.6983  153.5139 H   0  0  0  0  0  0  0  0  0  0  0  0  # atno 10764 bound_to 10752
  153.2710  135.4293  155.0944 H   0  0  0  0  0  0  0  0  0  0  0  0  # atno 10765 bound_to 10752
  141.1629  133.7456  156.9165 H   0  0  0  0  0  0  0  0  0  0  0  0  # atno 11005 bound_to 11000
  144.7249  140.4492  143.6981 LP  0  0  0  0  0  0  0  0  0  0  0  0  # atno 17320 bound_to 7965
  145.6342  139.1540  143.2952 LP  0  0  0  0  0  0  0  0  0  0  0  0  # atno 17321 bound_to 7965
  140.0419  143.5338  152.2714 LP  0  0  0  0  0  0  0  0  0  0  0  0  # atno 17342 bound_to 10162
  139.6168  144.7621  151.2829 LP  0  0  0  0  0  0  0  0  0  0  0  0  # atno 17343 bound_to 10162
  157.4439  131.0864  151.0915 LP  0  0  0  0  0  0  0  0  0  0  0  0  # atno 17370 bound_to 10713
  157.1451  130.6159  149.5566 LP  0  0  0  0  0  0  0  0  0  0  0  0  # atno 17371 bound_to 10713
  140.1481  134.9248  157.2556 LP  0  0  0  0  0  0  0  0  0  0  0  0  # atno 17394 bound_to 11000
  140.2755  134.3410  155.7359 LP  0  0  0  0  0  0  0  0  0  0  0  0  # atno 17395 bound_to 11000

$$$$
