AV-unprocessed.smi:3217|AV-procd|sdf|12289|dock6
  -GOLD-   2272018133D 1   1.00000     0.00000
 Structure written by MMmdl.
 34 35  0  0  0  0  0  0  0  0  1 V2000
  144.0993  135.7078  151.3887 C   0  0  0  0  0  0  0  0  0  0  0  0
  145.0808  135.0952  152.3998 C   0  0  2  0  0  0  0  0  0  0  0  0
  146.2133  136.0042  152.5644 N   0  0  0  0  0  0  0  0  0  0  0  0
  146.1572  137.2522  153.0512 C   0  0  0  0  0  0  0  0  0  0  0  0
  145.1153  137.7990  153.4114 O   0  0  0  0  0  0  0  0  0  0  0  0
  147.3776  137.8152  153.0696 N   0  0  0  0  0  0  0  0  0  0  0  0
  147.7503  139.1156  153.5062 C   0  0  0  0  0  0  0  0  0  0  0  0
  148.9747  139.2542  154.1918 C   0  0  0  0  0  0  0  0  0  0  0  0
  149.3652  140.5265  154.6508 C   0  0  0  0  0  0  0  0  0  0  0  0
  148.5059  141.6164  154.4127 C   0  0  0  0  0  0  0  0  0  0  0  0
  147.3239  141.4999  153.7720 N   0  0  0  0  0  0  0  0  0  0  0  0
  146.9564  140.2768  153.3326 C   0  0  0  0  0  0  0  0  0  0  0  0
  145.5971  133.7131  151.9551 C   0  0  2  0  0  0  0  0  0  0  0  0
  146.1154  133.6544  150.5164 C   0  0  0  0  0  0  0  0  0  0  0  0
  145.8928  132.2065  150.1041 C   0  0  0  0  0  0  0  0  0  0  0  0
  145.0055  131.6339  151.2114 C   0  0  0  0  0  0  0  0  0  0  0  0
  144.5376  132.7685  151.9244 O   0  0  0  0  0  0  0  0  0  0  0  0
  143.2159  135.0817  151.2622 H   0  0  0  0  0  0  0  0  0  0  0  0
  144.5631  135.8316  150.4095 H   0  0  0  0  0  0  0  0  0  0  0  0
  143.7564  136.6882  151.7212 H   0  0  0  0  0  0  0  0  0  0  0  0
  144.5516  134.9739  153.3465 H   0  0  0  0  0  0  0  0  0  0  0  0
  147.1174  135.6464  152.2935 H   0  0  0  0  0  0  0  0  0  0  0  0
  148.1237  137.2632  152.6729 H   0  0  0  0  0  0  0  0  0  0  0  0
  149.6114  138.3982  154.3624 H   0  0  0  0  0  0  0  0  0  0  0  0
  150.3000  140.6637  155.1737 H   0  0  0  0  0  0  0  0  0  0  0  0
  148.7728  142.6067  154.7510 H   0  0  0  0  0  0  0  0  0  0  0  0
  145.9916  140.2456  152.8515 H   0  0  0  0  0  0  0  0  0  0  0  0
  146.3677  133.3540  152.6407 H   0  0  0  0  0  0  0  0  0  0  0  0
  145.5240  134.3080  149.8738 H   0  0  0  0  0  0  0  0  0  0  0  0
  147.1590  133.9600  150.4356 H   0  0  0  0  0  0  0  0  0  0  0  0
  145.3999  132.1561  149.1326 H   0  0  0  0  0  0  0  0  0  0  0  0
  146.8309  131.6548  150.0340 H   0  0  0  0  0  0  0  0  0  0  0  0
  144.1777  131.0405  150.8229 H   0  0  0  0  0  0  0  0  0  0  0  0
  145.5897  131.0049  151.8847 H   0  0  0  0  0  0  0  0  0  0  0  0
  1  2  1  0  0  0  0
  1 18  1  0  0  0  0
  1 19  1  0  0  0  0
  1 20  1  0  0  0  0
  2  3  1  0  0  0  0
  2 13  1  0  0  0  0
  2 21  1  0  0  0  0
  3  4  1  0  0  0  0
  3 22  1  0  0  0  0
  4  5  2  0  0  0  0
  4  6  1  0  0  0  0
  6  7  1  0  0  0  0
  6 23  1  0  0  0  0
  7 12  1  0  0  0  0
  7  8  2  0  0  0  0
  8  9  1  0  0  0  0
  8 24  1  0  0  0  0
  9 10  2  0  0  0  0
  9 25  1  0  0  0  0
 10 11  1  0  0  0  0
 10 26  1  0  0  0  0
 11 12  2  0  0  0  0
 12 27  1  0  0  0  0
 13 17  1  0  0  0  0
 13 14  1  0  0  0  0
 13 28  1  0  0  0  0
 14 15  1  0  0  0  0
 14 29  1  0  0  0  0
 14 30  1  0  0  0  0
 15 16  1  0  0  0  0
 15 31  1  0  0  0  0
 15 32  1  0  0  0  0
 16 17  1  0  0  0  0
 16 33  1  0  0  0  0
 16 34  1  0  0  0  0
M  END
> <s_m_source_file>
AV-unprocessed.smi

> <i_m_source_file_index>
3217

> <i_lp_mmshare_version>
43012

> <i_f3d_flags>
0

> <s_epik_input>
TzFbQ0gyXVtDSDJdW0NIMl1bQ0BIXTFbQ0BIXShbQ0gzXSlbTkhdQyg9TylbTkhdYzJbY0hdW2NIXVtjSF1uW2NIXTI=

> <s_epik_cmdline>
J2VwaWtfcHl0aG9uJywgJy1waCcsICc3LjAnLCAnLXRuJywgJzgnLCAnLW1hJywgJzIwMCcsICctbWV0YWxfYmluZGluZycsICctaW1hZScsICc8aW5maWxlLm1hZT4nLCAnLW9tYWUnLCAnPG91dGZpbGUubWFlPic=

> <r_epik_Ionization_Penalty>
0.00475451

> <r_epik_Ionization_Penalty_Charging>
0

> <r_epik_Ionization_Penalty_Neutral>
0.00475451

> <r_epik_State_Penalty>
0.00341814

> <r_epik_Charging_Adjusted_Penalty>
0.00341814

> <i_epik_Tot_Q>
0

> <i_epik_Tot_abs_Q>
0

> <r_epik_Metal_State_Penalty>
-0

> <b_epik_Metal_Only>
0

> <s_lp_Force_Field>
OPLS_2005

> <r_lp_Energy>
20.3997

> <b_lp_Chiralities_Consistent>
1

> <s_lp_Variant>
AV-unprocessed.smi:3217-1

> <Gold.Version>
5.8.1

> <Gold.Id.Protein>
6NUR|6NUR_protein|mol2

> <Gold.PLP.Fitness>
38.6216

> <Gold.PLP.PLP>
-27.7595

> <Gold.PLP.part.hbond>
-1.9670

> <Gold.PLP.part.metal>
0.0000

> <Gold.PLP.part.buried>
-1.5146

> <Gold.PLP.part.nonpolar>
-23.6280

> <Gold.PLP.part.repulsive>
0.5296

> <Gold.PLP.ligand.clash>
0.0000

> <Gold.PLP.ligand.torsion>
0.3753

> <Gold.PLP.Chemscore.Hbond>
1.8640

> <Gold.PLP.Chemscore.CHOScore>
2.0000

> <Gold.PLP.Chemscore.Metal>
0.0000

> <Gold.Chemscore.Hbonds>
donor molecule, donor type, donor heavy atom, donor atom, acceptor molecule, acceptor atom, score
      L1  H     3    22       P1  7948  0.86
      L1  H     6    23       P1  7948  1.00
      L1  C    10    26       P1  8028  1.00
      L1  C    12    27       P1 10175  1.00

> <Gold.PLP.Chemscore.Internal.Correction>
0.0208

> <Gold.Rescore>
     Score         DG    S(hbond)    S(metal)    S(lipo)     H(rot)  DE(clash)    DE(int)     intcor
     16.89     -17.41       1.91        0.00      74.16       1.22       0.16       0.36       ----

> <Gold.Chemscore.Fitness>
16.8920

> <Gold.Chemscore.DG>
-17.4077

> <Gold.Chemscore.ZeroCoef>
-5.4800

> <Gold.Chemscore.Hbond>
1.9113

> <Gold.Chemscore.Metal>
0.0000

> <Gold.Chemscore.Lipo>
74.1571

> <Gold.Chemscore.Internal_Hbond>
0.0000

> <Gold.Chemscore.DEClash>
0.1565

> <Gold.Chemscore.DEInternal>
0.3593

> <Gold.Chemscore.Rot>
1.2236

> <Gold.Chemscore.Internal.Correction>
   9.000000E+99

> <Gold.Chemscore.Hbonds>
donor molecule, donor type, donor heavy atom, donor atom, acceptor molecule, acceptor atom, score
      L1  H     3    22       P1  7948  0.84
      L1  H     6    23       P1  7948  0.94

> <Gold.Chemscore.Hbond.Weighted>
-6.3839

> <Gold.Chemscore.Metal.Weighted>
-0.0000

> <Gold.Chemscore.Lipo.Weighted>
-8.6764

> <Gold.Chemscore.Internal_Hbond.Weighted>
0.0000

> <Gold.Chemscore.DEClash.Weighted>
0.1565

> <Gold.Chemscore.DEInternal.Weighted>
0.3593

> <Gold.Chemscore.Rot.Weighted>
3.1325

> <Gold.Chemscore.Internal.Correction.Weighted>
   9.000000E+99

> <Gold.Protein.RotatedTorsions>
[ 6907 6896 6895 6894 ] final -142.89 input  -60.11 | X-H torsion
[ 7974 7965 7964 7962 ] final  -88.59 input  175.53 | X-H torsion
[ 8008 7997 7996 7995 ] final   17.74 input   59.86 | X-H torsion
[ 10167 10162 10161 10158 ] final -155.28 input  -65.29 | X-H torsion
[ 10718 10713 10712 10709 ] final -153.24 input   66.30 | X-H torsion
[ 10763 10752 10751 10750 ] final -156.06 input  -60.55 | X-H torsion
[ 11005 11000 10999 10996 ] final -118.50 input  -57.11 | X-H torsion

> <Gold.Protein.ActiveResidues>
 VAL166  LYS551  ARG553  GLY616  TRP617  ASP618  TYR619  PRO620  LYS621  CYS622 
 ASP623  PHE694  ASN695  SER759  ASP760  ASP761  ALA762  ILE779  LEU786  VAL792 
 PHE793  MET794  SER795  GLU796  ALA797  LYS798  CYS799  TRP800  GLU811  SER814 

> <Gold.Protein.RotatedAtoms>
  151.0930  133.5301  159.2613 H   0  0  0  0  0  0  0  0  0  0  0  0  # atno 6907 bound_to 6896
  151.2161  135.0499  159.8940 H   0  0  0  0  0  0  0  0  0  0  0  0  # atno 6908 bound_to 6896
  152.5436  134.0739  159.8260 H   0  0  0  0  0  0  0  0  0  0  0  0  # atno 6909 bound_to 6896
  145.4511  140.9560  143.2022 H   0  0  0  0  0  0  0  0  0  0  0  0  # atno 7974 bound_to 7965
  154.8959  140.2993  155.5345 H   0  0  0  0  0  0  0  0  0  0  0  0  # atno 8008 bound_to 7997
  156.3020  140.2416  156.3915 H   0  0  0  0  0  0  0  0  0  0  0  0  # atno 8009 bound_to 7997
  154.8571  140.0407  157.1630 H   0  0  0  0  0  0  0  0  0  0  0  0  # atno 8010 bound_to 7997
  139.6944  143.9367  152.2400 H   0  0  0  0  0  0  0  0  0  0  0  0  # atno 10167 bound_to 10162
  156.4832  130.8313  151.2539 H   0  0  0  0  0  0  0  0  0  0  0  0  # atno 10718 bound_to 10713
  154.7741  135.3154  154.8128 H   0  0  0  0  0  0  0  0  0  0  0  0  # atno 10763 bound_to 10752
  153.8856  135.6830  153.4768 H   0  0  0  0  0  0  0  0  0  0  0  0  # atno 10764 bound_to 10752
  153.1361  135.4759  154.9360 H   0  0  0  0  0  0  0  0  0  0  0  0  # atno 10765 bound_to 10752
  141.0282  134.0022  157.3183 H   0  0  0  0  0  0  0  0  0  0  0  0  # atno 11005 bound_to 11000
  144.8061  139.6049  143.7050 LP  0  0  0  0  0  0  0  0  0  0  0  0  # atno 17320 bound_to 7965
  146.2504  139.6187  142.9431 LP  0  0  0  0  0  0  0  0  0  0  0  0  # atno 17321 bound_to 7965
  139.9192  144.6810  150.8480 LP  0  0  0  0  0  0  0  0  0  0  0  0  # atno 17342 bound_to 10162
  140.7692  143.3387  151.2253 LP  0  0  0  0  0  0  0  0  0  0  0  0  # atno 17343 bound_to 10162
  157.7481  131.0038  150.3051 LP  0  0  0  0  0  0  0  0  0  0  0  0  # atno 17370 bound_to 10713
  156.3500  130.3829  149.7337 LP  0  0  0  0  0  0  0  0  0  0  0  0  # atno 17371 bound_to 10713
  139.9190  135.0199  156.7991 LP  0  0  0  0  0  0  0  0  0  0  0  0  # atno 17394 bound_to 11000
  140.6454  133.9780  155.7728 LP  0  0  0  0  0  0  0  0  0  0  0  0  # atno 17395 bound_to 11000

$$$$
