AV-unprocessed.smi:862|AV-procd|sdf|3976|dock3
  -GOLD-   22720 1453D 1   1.00000     0.00000
 Structure written by MMmdl.
 44 46  0  0  0  0  0  0  0  0  2 V2000
  143.4749  134.6199  154.2720 N   0  0  0  0  0  0  0  0  0  0  0  0
  144.0144  134.6326  153.0492 C   0  0  0  0  0  0  0  0  0  0  0  0
  144.3067  133.5851  152.4754 O   0  0  0  0  0  0  0  0  0  0  0  0
  144.1625  135.8622  152.4946 N   0  0  0  0  0  0  0  0  0  0  0  0
  144.0263  137.1506  153.1938 C   0  0  0  0  0  0  0  0  0  0  0  0
  145.4314  137.7331  153.4337 C   0  0  0  0  0  0  0  0  0  0  0  0
  146.2049  137.8934  152.1078 C   0  0  0  0  0  0  0  0  0  0  0  0
  147.5925  138.3268  152.3856 N   0  3  0  0  0  0  0  0  0  0  0  0
  147.7756  139.2226  153.5507 C   0  0  2  0  0  0  0  0  0  0  0  0
  147.2023  140.6283  153.3479 C   0  0  0  0  0  0  0  0  0  0  0  0
  147.9656  141.5202  154.3358 C   0  0  0  0  0  0  0  0  0  0  0  0
  149.2560  140.7672  154.6970 C   0  0  0  0  0  0  0  0  0  0  0  0
  149.2574  139.4981  153.8318 C   0  0  1  0  0  0  0  0  0  0  0  0
  149.9464  138.3759  154.4505 N   0  0  0  0  0  0  0  0  0  0  0  0
  149.3888  137.3269  155.1737 C   0  0  0  0  0  0  0  0  0  0  0  0
  150.4294  136.5082  155.5489 C   0  0  0  0  0  0  0  0  0  0  0  0
  151.6288  137.0268  155.0685 N   0  0  0  0  0  0  0  0  0  0  0  0
  151.2645  138.1321  154.4326 C   0  0  0  0  0  0  0  0  0  0  0  0
  146.1765  136.5766  151.2986 C   0  0  0  0  0  0  0  0  0  0  0  0
  144.7394  136.0429  151.1570 C   0  0  0  0  0  0  0  0  0  0  0  0
  143.3250  133.7385  154.7417 H   0  0  0  0  0  0  0  0  0  0  0  0
  143.2097  135.4860  154.7174 H   0  0  0  0  0  0  0  0  0  0  0  0
  143.4395  137.8328  152.5768 H   0  0  0  0  0  0  0  0  0  0  0  0
  143.4897  137.0838  154.1403 H   0  0  0  0  0  0  0  0  0  0  0  0
  145.3505  138.6971  153.9374 H   0  0  0  0  0  0  0  0  0  0  0  0
  145.9820  137.0766  154.1094 H   0  0  0  0  0  0  0  0  0  0  0  0
  145.6988  138.6689  151.5303 H   0  0  0  0  0  0  0  0  0  0  0  0
  148.1226  137.4907  152.5861 H   0  0  0  0  0  0  0  0  0  0  0  0
  147.3164  138.7726  154.4326 H   0  0  0  0  0  0  0  0  0  0  0  0
  147.3992  140.9694  152.3303 H   0  0  0  0  0  0  0  0  0  0  0  0
  146.1249  140.6683  153.5103 H   0  0  0  0  0  0  0  0  0  0  0  0
  148.1753  142.4979  153.9002 H   0  0  0  0  0  0  0  0  0  0  0  0
  147.3710  141.6867  155.2348 H   0  0  0  0  0  0  0  0  0  0  0  0
  150.1456  141.3723  154.5185 H   0  0  0  0  0  0  0  0  0  0  0  0
  149.2413  140.5227  155.7600 H   0  0  0  0  0  0  0  0  0  0  0  0
  149.7571  139.7318  152.8894 H   0  0  0  0  0  0  0  0  0  0  0  0
  148.3276  137.2506  155.3608 H   0  0  0  0  0  0  0  0  0  0  0  0
  150.4073  135.5934  156.1227 H   0  0  0  0  0  0  0  0  0  0  0  0
  151.9757  138.7776  153.9382 H   0  0  0  0  0  0  0  0  0  0  0  0
  146.6039  136.7216  150.3075 H   0  0  0  0  0  0  0  0  0  0  0  0
  146.7927  135.8238  151.7926 H   0  0  0  0  0  0  0  0  0  0  0  0
  144.7380  135.1217  150.5724 H   0  0  0  0  0  0  0  0  0  0  0  0
  144.1294  136.7494  150.5924 H   0  0  0  0  0  0  0  0  0  0  0  0
  147.9819  138.7557  151.5582 H   0  0  0  0  0  0  0  0  0  0  0  0
  1  2  1  0  0  0  0
  1 21  1  0  0  0  0
  1 22  1  0  0  0  0
  2  3  2  0  0  0  0
  2  4  1  0  0  0  0
  4 20  1  0  0  0  0
  4  5  1  0  0  0  0
  5  6  1  0  0  0  0
  5 23  1  0  0  0  0
  5 24  1  0  0  0  0
  6  7  1  0  0  0  0
  6 25  1  0  0  0  0
  6 26  1  0  0  0  0
  7  8  1  0  0  0  0
  7 19  1  0  0  0  0
  7 27  1  0  0  0  0
  8  9  1  0  0  0  0
  8 28  1  0  0  0  0
  8 44  1  0  0  0  0
  9 13  1  0  0  0  0
  9 10  1  0  0  0  0
  9 29  1  0  0  0  0
 10 11  1  0  0  0  0
 10 30  1  0  0  0  0
 10 31  1  0  0  0  0
 11 12  1  0  0  0  0
 11 32  1  0  0  0  0
 11 33  1  0  0  0  0
 12 13  1  0  0  0  0
 12 34  1  0  0  0  0
 12 35  1  0  0  0  0
 13 14  1  0  0  0  0
 13 36  1  0  0  0  0
 14 18  1  0  0  0  0
 14 15  1  0  0  0  0
 15 16  2  0  0  0  0
 15 37  1  0  0  0  0
 16 17  1  0  0  0  0
 16 38  1  0  0  0  0
 17 18  2  0  0  0  0
 18 39  1  0  0  0  0
 19 20  1  0  0  0  0
 19 40  1  0  0  0  0
 19 41  1  0  0  0  0
 20 42  1  0  0  0  0
 20 43  1  0  0  0  0
M  CHG  1   8   1
M  END
> <s_m_source_file>
AV-unprocessed.smi

> <i_m_source_file_index>
862

> <i_lp_mmshare_version>
43012

> <i_f3d_flags>
0

> <s_epik_input>
W05IMl1DKD1PKU4xW0NIMl1bQ0gyXVtDSF0oW0NIMl1bQ0gyXTEpW05IXVtDQEBIXTJbQ0gyXVtDSDJdW0NIMl1bQ0BIXTJuM1tjSF1bY0hdbltjSF0z

> <s_epik_cmdline>
J2VwaWtfcHl0aG9uJywgJy1waCcsICc3LjAnLCAnLXRuJywgJzgnLCAnLW1hJywgJzIwMCcsICctbWV0YWxfYmluZGluZycsICctaW1hZScsICc8aW5maWxlLm1hZT4nLCAnLW9tYWUnLCAnPG91dGZpbGUubWFlPic=

> <r_lp_tautomer_probability>
1

> <r_epik_Ionization_Penalty>
0.0731506

> <r_epik_Ionization_Penalty_Charging>
0.0731

> <r_epik_Ionization_Penalty_Neutral>
5.05966e-05

> <r_epik_State_Penalty>
0.128895

> <r_epik_Charging_Adjusted_Penalty>
0.201995

> <i_epik_Tot_Q>
1

> <i_epik_Tot_abs_Q>
1

> <r_epik_Metal_State_Penalty>
0.113934

> <b_epik_Metal_Only>
0

> <s_lp_Force_Field>
OPLS_2005

> <r_lp_Energy>
56.1174

> <b_lp_Chiralities_Consistent>
1

> <s_lp_Variant>
AV-unprocessed.smi:862-1

> <Gold.Version>
5.8.1

> <Gold.Id.Protein>
6NUR|6NUR_protein|mol2

> <Gold.PLP.Fitness>
45.3445

> <Gold.PLP.PLP>
-33.1738

> <Gold.PLP.part.hbond>
-4.0000

> <Gold.PLP.part.metal>
0.0000

> <Gold.PLP.part.buried>
3.5036

> <Gold.PLP.part.nonpolar>
-33.7902

> <Gold.PLP.part.repulsive>
0.3111

> <Gold.PLP.ligand.clash>
0.0000

> <Gold.PLP.ligand.torsion>
0.9851

> <Gold.PLP.Chemscore.Hbond>
4.6960

> <Gold.PLP.Chemscore.CHOScore>
0.0000

> <Gold.PLP.Chemscore.Metal>
0.0000

> <Gold.Chemscore.Hbonds>
donor molecule, donor type, donor heavy atom, donor atom, acceptor molecule, acceptor atom, score
      L1  H     1    21       P1 10957  0.88
      L1  H     8    28       P1  7948  1.66
      L1  H     8    44       P1  7957  0.67
      P1  H 10752 10763       L1    17  0.89

> <Gold.PLP.Chemscore.Internal.Correction>
0.0530

> <Gold.Rescore>
     Score         DG    S(hbond)    S(metal)    S(lipo)     H(rot)  DE(clash)    DE(int)     intcor
     18.24     -21.66       3.74        0.00      67.39       1.64       2.52       0.90       ----

> <Gold.Chemscore.Fitness>
18.2442

> <Gold.Chemscore.DG>
-21.6644

> <Gold.Chemscore.ZeroCoef>
-5.4800

> <Gold.Chemscore.Hbond>
3.7430

> <Gold.Chemscore.Metal>
0.0000

> <Gold.Chemscore.Lipo>
67.3861

> <Gold.Chemscore.Internal_Hbond>
0.0000

> <Gold.Chemscore.DEClash>
2.5242

> <Gold.Chemscore.DEInternal>
0.8960

> <Gold.Chemscore.Rot>
1.6411

> <Gold.Chemscore.Internal.Correction>
   9.000000E+99

> <Gold.Chemscore.Hbonds>
donor molecule, donor type, donor heavy atom, donor atom, acceptor molecule, acceptor atom, score
      L1  H     1    21       P1 10957  0.82
      L1  H     8    28       P1  7948  0.83
      L1  H     8    44       P1  7957  0.42
      P1  H 10752 10763       L1    17  0.75

> <Gold.Chemscore.Hbond.Weighted>
-12.5016

> <Gold.Chemscore.Metal.Weighted>
-0.0000

> <Gold.Chemscore.Lipo.Weighted>
-7.8842

> <Gold.Chemscore.Internal_Hbond.Weighted>
0.0000

> <Gold.Chemscore.DEClash.Weighted>
2.5242

> <Gold.Chemscore.DEInternal.Weighted>
0.8960

> <Gold.Chemscore.Rot.Weighted>
4.2013

> <Gold.Chemscore.Internal.Correction.Weighted>
   9.000000E+99

> <Gold.Protein.RotatedTorsions>
[ 6907 6896 6895 6894 ] final   13.61 input  -60.11 | X-H torsion
[ 7974 7965 7964 7962 ] final  126.44 input  175.53 | X-H torsion
[ 8008 7997 7996 7995 ] final -119.54 input   59.86 | X-H torsion
[ 10167 10162 10161 10158 ] final -121.36 input  -65.29 | X-H torsion
[ 10718 10713 10712 10709 ] final  -83.80 input   66.30 | X-H torsion
[ 10763 10752 10751 10750 ] final   40.44 input  -60.55 | X-H torsion
[ 11005 11000 10999 10996 ] final   90.68 input  -57.11 | X-H torsion

> <Gold.Protein.ActiveResidues>
 VAL166  LYS551  ARG553  GLY616  TRP617  ASP618  TYR619  PRO620  LYS621  CYS622 
 ASP623  PHE694  ASN695  SER759  ASP760  ASP761  ALA762  ILE779  LEU786  VAL792 
 PHE793  MET794  SER795  GLU796  ALA797  LYS798  CYS799  TRP800  GLU811  SER814 

> <Gold.Protein.RotatedAtoms>
  151.7891  135.0741  160.0384 H   0  0  0  0  0  0  0  0  0  0  0  0  # atno 6907 bound_to 6896
  152.3169  133.5808  159.5727 H   0  0  0  0  0  0  0  0  0  0  0  0  # atno 6908 bound_to 6896
  150.7349  133.9985  159.3672 H   0  0  0  0  0  0  0  0  0  0  0  0  # atno 6909 bound_to 6896
  145.0617  139.3800  143.5002 H   0  0  0  0  0  0  0  0  0  0  0  0  # atno 7974 bound_to 7965
  155.1174  140.0398  157.2741 H   0  0  0  0  0  0  0  0  0  0  0  0  # atno 8008 bound_to 7997
  154.6639  140.2597  155.7053 H   0  0  0  0  0  0  0  0  0  0  0  0  # atno 8009 bound_to 7997
  156.2631  140.2811  156.1122 H   0  0  0  0  0  0  0  0  0  0  0  0  # atno 8010 bound_to 7997
  140.0258  143.5298  152.2199 H   0  0  0  0  0  0  0  0  0  0  0  0  # atno 10167 bound_to 10162
  156.0014  130.4677  150.4313 H   0  0  0  0  0  0  0  0  0  0  0  0  # atno 10718 bound_to 10713
  152.9936  135.6191  154.2626 H   0  0  0  0  0  0  0  0  0  0  0  0  # atno 10763 bound_to 10752
  154.2362  135.2790  155.2873 H   0  0  0  0  0  0  0  0  0  0  0  0  # atno 10764 bound_to 10752
  154.5408  135.5761  153.6896 H   0  0  0  0  0  0  0  0  0  0  0  0  # atno 10765 bound_to 10752
  139.8852  134.8628  156.3320 H   0  0  0  0  0  0  0  0  0  0  0  0  # atno 11005 bound_to 11000
  146.3524  140.0318  142.8650 LP  0  0  0  0  0  0  0  0  0  0  0  0  # atno 17320 bound_to 7965
  145.1401  140.9566  143.4494 LP  0  0  0  0  0  0  0  0  0  0  0  0  # atno 17321 bound_to 7965
  139.6109  144.7608  151.2955 LP  0  0  0  0  0  0  0  0  0  0  0  0  # atno 17342 bound_to 10162
  140.7323  143.6827  150.7987 LP  0  0  0  0  0  0  0  0  0  0  0  0  # atno 17343 bound_to 10162
  157.2362  131.0515  151.2464 LP  0  0  0  0  0  0  0  0  0  0  0  0  # atno 17370 bound_to 10713
  157.3664  130.7158  149.6536 LP  0  0  0  0  0  0  0  0  0  0  0  0  # atno 17371 bound_to 10713
  140.9717  133.7323  156.0543 LP  0  0  0  0  0  0  0  0  0  0  0  0  # atno 17394 bound_to 11000
  140.7863  134.3669  157.5475 LP  0  0  0  0  0  0  0  0  0  0  0  0  # atno 17395 bound_to 11000

$$$$
