AV-unprocessed.smi:652|AV-procd|sdf|3198|dock2
  -GOLD-   22720 0123D 1   1.00000     0.00000
 Structure written by MMmdl.
 49 50  0  0  0  0  0  0  0  0  3 V2000
  139.6265  138.6648  153.1695 C   0  0  0  0  0  0  0  0  0  0  0  0
  141.1517  138.6211  152.9833 C   0  0  0  0  0  0  0  0  0  0  0  0
  141.7491  137.3127  153.5178 C   0  0  0  0  0  0  0  0  0  0  0  0
  141.7835  139.7529  153.6562 N   0  0  0  0  0  0  0  0  0  0  0  0
  141.7423  139.9962  154.9757 C   0  0  0  0  0  0  0  0  0  0  0  0
  141.1557  139.2685  155.7773 O   0  0  0  0  0  0  0  0  0  0  0  0
  142.4786  141.2543  155.4500 C   0  0  0  0  0  0  0  0  0  0  0  0
  143.9561  140.9982  155.8166 C   0  0  0  0  0  0  0  0  0  0  0  0
  144.9001  141.5877  154.8336 N   0  3  1  0  0  0  0  0  0  0  0  0
  144.8216  143.0676  154.8020 C   0  0  0  0  0  0  0  0  0  0  0  0
  145.7780  143.6366  153.7428 C   0  0  0  0  0  0  0  0  0  0  0  0
  147.1017  143.1932  154.0136 O   0  0  0  0  0  0  0  0  0  0  0  0
  147.2246  141.7772  153.9491 C   0  0  1  0  0  0  0  0  0  0  0  0
  148.7113  141.4374  154.1656 C   0  0  0  0  0  0  0  0  0  0  0  0
  149.2975  142.1431  155.2978 N   0  0  0  0  0  0  0  0  0  0  0  0
  150.1230  141.4957  156.2290 C   0  0  0  0  0  0  0  0  0  0  0  0
  150.7172  142.1258  157.3480 C   0  0  0  0  0  0  0  0  0  0  0  0
  151.5213  141.3506  158.2011 C   0  0  0  0  0  0  0  0  0  0  0  0
  151.6836  139.9902  157.8857 C   0  0  0  0  0  0  0  0  0  0  0  0
  151.1085  139.4067  156.8108 N   0  0  0  0  0  0  0  0  0  0  0  0
  150.3440  140.1744  156.0145 N   0  3  0  0  0  0  0  0  0  0  0  0
  146.3064  141.1493  155.0203 C   0  0  0  0  0  0  0  0  0  0  0  0
  139.1475  137.8242  152.6667 H   0  0  0  0  0  0  0  0  0  0  0  0
  139.2008  139.5784  152.7533 H   0  0  0  0  0  0  0  0  0  0  0  0
  139.3532  138.6202  154.2241 H   0  0  0  0  0  0  0  0  0  0  0  0
  141.3733  138.6747  151.9158 H   0  0  0  0  0  0  0  0  0  0  0  0
  141.3178  136.4495  153.0103 H   0  0  0  0  0  0  0  0  0  0  0  0
  141.5631  137.1974  154.5862 H   0  0  0  0  0  0  0  0  0  0  0  0
  142.8278  137.2795  153.3613 H   0  0  0  0  0  0  0  0  0  0  0  0
  142.2878  140.4019  153.0695 H   0  0  0  0  0  0  0  0  0  0  0  0
  142.4059  142.0060  154.6638 H   0  0  0  0  0  0  0  0  0  0  0  0
  141.9457  141.6496  156.3157 H   0  0  0  0  0  0  0  0  0  0  0  0
  144.1571  141.4483  156.7905 H   0  0  0  0  0  0  0  0  0  0  0  0
  144.1508  139.9295  155.9231 H   0  0  0  0  0  0  0  0  0  0  0  0
  143.8013  143.3818  154.5782 H   0  0  0  0  0  0  0  0  0  0  0  0
  145.0724  143.4687  155.7853 H   0  0  0  0  0  0  0  0  0  0  0  0
  145.4752  143.3341  152.7390 H   0  0  0  0  0  0  0  0  0  0  0  0
  145.7589  144.7263  153.7663 H   0  0  0  0  0  0  0  0  0  0  0  0
  146.9168  141.4459  152.9557 H   0  0  0  0  0  0  0  0  0  0  0  0
  148.8407  140.3636  154.3009 H   0  0  0  0  0  0  0  0  0  0  0  0
  149.2807  141.6926  153.2714 H   0  0  0  0  0  0  0  0  0  0  0  0
  149.0848  143.1235  155.4173 H   0  0  0  0  0  0  0  0  0  0  0  0
  150.5714  143.1736  157.5628 H   0  0  0  0  0  0  0  0  0  0  0  0
  151.9967  141.7820  159.0696 H   0  0  0  0  0  0  0  0  0  0  0  0
  152.2910  139.3516  158.5104 H   0  0  0  0  0  0  0  0  0  0  0  0
  146.6452  141.4331  156.0182 H   0  0  0  0  0  0  0  0  0  0  0  0
  146.3710  140.0636  154.9586 H   0  0  0  0  0  0  0  0  0  0  0  0
  144.6046  141.2689  153.9217 H   0  0  0  0  0  0  0  0  0  0  0  0
  149.9040  139.7379  155.2042 H   0  0  0  0  0  0  0  0  0  0  0  0
  1  2  1  0  0  0  0
  1 23  1  0  0  0  0
  1 24  1  0  0  0  0
  1 25  1  0  0  0  0
  2  3  1  0  0  0  0
  2  4  1  0  0  0  0
  2 26  1  0  0  0  0
  3 27  1  0  0  0  0
  3 28  1  0  0  0  0
  3 29  1  0  0  0  0
  4  5  1  0  0  0  0
  4 30  1  0  0  0  0
  5  6  2  0  0  0  0
  5  7  1  0  0  0  0
  7  8  1  0  0  0  0
  7 31  1  0  0  0  0
  7 32  1  0  0  0  0
  8  9  1  0  0  0  0
  8 33  1  0  0  0  0
  8 34  1  0  0  0  0
  9 22  1  0  0  0  0
  9 10  1  0  0  0  0
  9 48  1  0  0  0  0
 10 11  1  0  0  0  0
 10 35  1  0  0  0  0
 10 36  1  0  0  0  0
 11 12  1  0  0  0  0
 11 37  1  0  0  0  0
 11 38  1  0  0  0  0
 12 13  1  0  0  0  0
 13 14  1  0  0  0  0
 13 22  1  0  0  0  0
 13 39  1  0  0  0  0
 14 15  1  0  0  0  0
 14 40  1  0  0  0  0
 14 41  1  0  0  0  0
 15 16  1  0  0  0  0
 15 42  1  0  0  0  0
 16 21  1  0  0  0  0
 16 17  2  0  0  0  0
 17 18  1  0  0  0  0
 17 43  1  0  0  0  0
 18 19  2  0  0  0  0
 18 44  1  0  0  0  0
 19 20  1  0  0  0  0
 19 45  1  0  0  0  0
 20 21  2  0  0  0  0
 21 49  1  0  0  0  0
 22 46  1  0  0  0  0
 22 47  1  0  0  0  0
M  CHG  1   9   1
M  CHG  1  21   1
M  END
> <s_m_source_file>
AV-unprocessed.smi

> <i_m_source_file_index>
652

> <i_lp_mmshare_version>
43012

> <i_f3d_flags>
0

> <s_epik_input>
W0NIM11bQ0hdKFtDSDNdKVtOSF1DKD1PKVtDSDJdW0NIMl1OMVtDSDJdW0NIMl1PW0NASF0oW0NIMl0xKVtDSDJdW05IXWMyW2NIXVtjSF1bY0hdbm4y

> <s_epik_cmdline>
J2VwaWtfcHl0aG9uJywgJy1waCcsICc3LjAnLCAnLXRuJywgJzgnLCAnLW1hJywgJzIwMCcsICctbWV0YWxfYmluZGluZycsICctaW1hZScsICc8aW5maWxlLm1hZT4nLCAnLW9tYWUnLCAnPG91dGZpbGUubWFlPic=

> <r_lp_tautomer_probability>
0.966961

> <r_epik_Ionization_Penalty>
2.79885

> <r_epik_Ionization_Penalty_Charging>
2.79884

> <r_epik_Ionization_Penalty_Neutral>
3.2567e-06

> <r_epik_State_Penalty>
2.43203

> <r_epik_Charging_Adjusted_Penalty>
5.23087

> <i_epik_Tot_Q>
2

> <i_epik_Tot_abs_Q>
2

> <r_epik_Metal_State_Penalty>
2.43963

> <b_epik_Metal_Only>
0

> <s_lp_Force_Field>
OPLS_2005

> <r_lp_Energy>
31.8116

> <b_lp_Chiralities_Consistent>
1

> <s_lp_Variant>
AV-unprocessed.smi:652-7

> <Gold.Version>
5.8.1

> <Gold.Id.Protein>
6NUR|6NUR_protein|mol2

> <Gold.PLP.Fitness>
48.0403

> <Gold.PLP.PLP>
-34.3545

> <Gold.PLP.part.hbond>
-3.7579

> <Gold.PLP.part.metal>
0.0000

> <Gold.PLP.part.buried>
-5.1309

> <Gold.PLP.part.nonpolar>
-27.5776

> <Gold.PLP.part.repulsive>
1.9864

> <Gold.PLP.ligand.clash>
0.0000

> <Gold.PLP.ligand.torsion>
0.9346

> <Gold.PLP.Chemscore.Hbond>
5.1583

> <Gold.PLP.Chemscore.CHOScore>
0.0000

> <Gold.PLP.Chemscore.Metal>
0.0000

> <Gold.Chemscore.Hbonds>
donor molecule, donor type, donor heavy atom, donor atom, acceptor molecule, acceptor atom, score
      L1  H     4    30       P1 10175  0.39
      L1  H     9    48       P1 10175  2.00
      L1  H    15    42       P1  8028  2.00
      P1  H  8022  8030       L1    12  0.30

> <Gold.PLP.Chemscore.Internal.Correction>
0.0799

> <Gold.Rescore>
     Score         DG    S(hbond)    S(metal)    S(lipo)     H(rot)  DE(clash)    DE(int)     intcor
     14.89     -17.58       2.99        0.00      68.97       2.33       0.91       1.78       ----

> <Gold.Chemscore.Fitness>
14.8937

> <Gold.Chemscore.DG>
-17.5795

> <Gold.Chemscore.ZeroCoef>
-5.4800

> <Gold.Chemscore.Hbond>
2.9945

> <Gold.Chemscore.Metal>
0.0000

> <Gold.Chemscore.Lipo>
68.9667

> <Gold.Chemscore.Internal_Hbond>
0.0000

> <Gold.Chemscore.DEClash>
0.9054

> <Gold.Chemscore.DEInternal>
1.7804

> <Gold.Chemscore.Rot>
2.3326

> <Gold.Chemscore.Internal.Correction>
   9.000000E+99

> <Gold.Chemscore.Hbonds>
donor molecule, donor type, donor heavy atom, donor atom, acceptor molecule, acceptor atom, score
      L1  H     4    30       P1 10175  0.05
      L1  H     9    48       P1 10175  0.50
      L1  H    15    42       P1  8028  0.99
      P1  H  8022  8030       L1    12  0.24

> <Gold.Chemscore.Hbond.Weighted>
-10.0017

> <Gold.Chemscore.Metal.Weighted>
-0.0000

> <Gold.Chemscore.Lipo.Weighted>
-8.0691

> <Gold.Chemscore.Internal_Hbond.Weighted>
0.0000

> <Gold.Chemscore.DEClash.Weighted>
0.9054

> <Gold.Chemscore.DEInternal.Weighted>
1.7804

> <Gold.Chemscore.Rot.Weighted>
5.9714

> <Gold.Chemscore.Internal.Correction.Weighted>
   9.000000E+99

> <Gold.Protein.RotatedTorsions>
[ 6907 6896 6895 6894 ] final   49.35 input  -60.11 | X-H torsion
[ 7974 7965 7964 7962 ] final   98.42 input  175.53 | X-H torsion
[ 8008 7997 7996 7995 ] final  -29.47 input   59.86 | X-H torsion
[ 10167 10162 10161 10158 ] final  -68.34 input  -65.29 | X-H torsion
[ 10718 10713 10712 10709 ] final   33.94 input   66.30 | X-H torsion
[ 10763 10752 10751 10750 ] final   38.78 input  -60.55 | X-H torsion
[ 11005 11000 10999 10996 ] final  -72.54 input  -57.11 | X-H torsion

> <Gold.Protein.ActiveResidues>
 VAL166  LYS551  ARG553  GLY616  TRP617  ASP618  TYR619  PRO620  LYS621  CYS622 
 ASP623  PHE694  ASN695  SER759  ASP760  ASP761  ALA762  ILE779  LEU786  VAL792 
 PHE793  MET794  SER795  GLU796  ALA797  LYS798  CYS799  TRP800  GLU811  SER814 

> <Gold.Protein.RotatedAtoms>
  152.2898  134.7734  160.0379 H   0  0  0  0  0  0  0  0  0  0  0  0  # atno 6907 bound_to 6896
  151.8284  133.3399  159.3614 H   0  0  0  0  0  0  0  0  0  0  0  0  # atno 6908 bound_to 6896
  150.7225  134.5435  159.5803 H   0  0  0  0  0  0  0  0  0  0  0  0  # atno 6909 bound_to 6896
  145.4124  139.2332  143.3241 H   0  0  0  0  0  0  0  0  0  0  0  0  # atno 7974 bound_to 7965
  154.4289  140.1817  156.1253 H   0  0  0  0  0  0  0  0  0  0  0  0  # atno 8008 bound_to 7997
  156.0111  140.3350  155.6916 H   0  0  0  0  0  0  0  0  0  0  0  0  # atno 8009 bound_to 7997
  155.6109  140.0650  157.2697 H   0  0  0  0  0  0  0  0  0  0  0  0  # atno 8010 bound_to 7997
  140.5515  143.2312  151.6903 H   0  0  0  0  0  0  0  0  0  0  0  0  # atno 10167 bound_to 10162
  157.3042  130.7366  149.6685 H   0  0  0  0  0  0  0  0  0  0  0  0  # atno 10718 bound_to 10713
  152.9989  135.6239  154.2359 H   0  0  0  0  0  0  0  0  0  0  0  0  # atno 10763 bound_to 10752
  154.2100  135.2800  155.2963 H   0  0  0  0  0  0  0  0  0  0  0  0  # atno 10764 bound_to 10752
  154.5614  135.5704  153.7069 H   0  0  0  0  0  0  0  0  0  0  0  0  # atno 10765 bound_to 10752
  141.1610  133.6850  156.7074 H   0  0  0  0  0  0  0  0  0  0  0  0  # atno 11005 bound_to 11000
  146.2698  140.4837  142.8819 LP  0  0  0  0  0  0  0  0  0  0  0  0  # atno 17320 bound_to 7965
  144.8300  140.6692  143.6297 LP  0  0  0  0  0  0  0  0  0  0  0  0  # atno 17321 bound_to 7965
  139.5029  144.3811  152.0375 LP  0  0  0  0  0  0  0  0  0  0  0  0  # atno 17342 bound_to 10162
  140.2928  144.3734  150.6083 LP  0  0  0  0  0  0  0  0  0  0  0  0  # atno 17343 bound_to 10162
  155.9673  130.4271  150.4727 LP  0  0  0  0  0  0  0  0  0  0  0  0  # atno 17370 bound_to 10713
  157.2714  131.0588  151.2257 LP  0  0  0  0  0  0  0  0  0  0  0  0  # atno 17371 bound_to 10713
  140.2913  134.8238  157.4019 LP  0  0  0  0  0  0  0  0  0  0  0  0  # atno 17394 bound_to 11000
  140.1344  134.5053  155.8080 LP  0  0  0  0  0  0  0  0  0  0  0  0  # atno 17395 bound_to 11000

$$$$
