AV-unprocessed.smi:977|AV-procd|sdf|4305|dock7
  -GOLD-   22720 2213D 1   1.00000     0.00000
 Structure written by MMmdl.
 37 38  0  0  0  0  0  0  0  0  1 V2000
  149.4194  131.1812  154.4856 C   0  0  0  0  0  0  0  0  0  0  0  0
  149.9462  132.4558  155.0845 C   0  0  0  0  0  0  0  0  0  0  0  0
  150.8839  132.3906  156.0184 N   0  0  0  0  0  0  0  0  0  0  0  0
  151.2287  133.7136  156.3363 O   0  0  0  0  0  0  0  0  0  0  0  0
  150.4810  134.5575  155.5782 C   0  0  0  0  0  0  0  0  0  0  0  0
  150.7148  136.0193  155.7587 C   0  0  0  0  0  0  0  0  0  0  0  0
  149.6407  133.8188  154.7990 C   0  0  0  0  0  0  0  0  0  0  0  0
  148.7276  134.3559  153.8577 N   0  0  0  0  0  0  0  0  0  0  0  0
  147.4616  133.9600  153.6580 C   0  0  0  0  0  0  0  0  0  0  0  0
  146.8832  133.0997  154.3218 O   0  0  0  0  0  0  0  0  0  0  0  0
  146.8891  134.6366  152.6517 N   0  0  0  0  0  0  0  0  0  0  0  0
  145.5218  134.4453  152.1722 C   0  0  1  0  0  0  0  0  0  0  0  0
  145.1642  135.6145  151.2413 C   0  0  0  0  0  0  0  0  0  0  0  0
  145.3878  133.0754  151.4710 C   0  0  2  0  0  0  0  0  0  0  0  0
  146.2873  132.9037  150.2426 C   0  0  0  0  0  0  0  0  0  0  0  0
  145.4974  131.9302  149.3994 C   0  0  0  0  0  0  0  0  0  0  0  0
  144.0747  132.4167  149.6401 C   0  0  0  0  0  0  0  0  0  0  0  0
  144.0583  132.8776  150.9862 O   0  0  0  0  0  0  0  0  0  0  0  0
  149.1598  131.3163  153.4355 H   0  0  0  0  0  0  0  0  0  0  0  0
  148.5274  130.8404  155.0115 H   0  0  0  0  0  0  0  0  0  0  0  0
  150.1586  130.3811  154.5358 H   0  0  0  0  0  0  0  0  0  0  0  0
  150.1948  136.5976  154.9949 H   0  0  0  0  0  0  0  0  0  0  0  0
  151.7777  136.2522  155.6922 H   0  0  0  0  0  0  0  0  0  0  0  0
  150.3563  136.3482  156.7340 H   0  0  0  0  0  0  0  0  0  0  0  0
  149.0432  135.1632  153.3405 H   0  0  0  0  0  0  0  0  0  0  0  0
  147.4447  135.3276  152.1693 H   0  0  0  0  0  0  0  0  0  0  0  0
  144.8346  134.4754  153.0198 H   0  0  0  0  0  0  0  0  0  0  0  0
  144.1296  135.5529  150.9035 H   0  0  0  0  0  0  0  0  0  0  0  0
  145.8027  135.6282  150.3573 H   0  0  0  0  0  0  0  0  0  0  0  0
  145.2812  136.5713  151.7512 H   0  0  0  0  0  0  0  0  0  0  0  0
  145.5957  132.2704  152.1779 H   0  0  0  0  0  0  0  0  0  0  0  0
  146.3949  133.8486  149.7075 H   0  0  0  0  0  0  0  0  0  0  0  0
  147.2839  132.5391  150.4930 H   0  0  0  0  0  0  0  0  0  0  0  0
  145.7804  131.9430  148.3465 H   0  0  0  0  0  0  0  0  0  0  0  0
  145.6206  130.9148  149.7788 H   0  0  0  0  0  0  0  0  0  0  0  0
  143.8439  133.2563  148.9836 H   0  0  0  0  0  0  0  0  0  0  0  0
  143.3292  131.6391  149.4734 H   0  0  0  0  0  0  0  0  0  0  0  0
  1  2  1  0  0  0  0
  1 19  1  0  0  0  0
  1 20  1  0  0  0  0
  1 21  1  0  0  0  0
  2  7  1  0  0  0  0
  2  3  2  0  0  0  0
  3  4  1  0  0  0  0
  4  5  1  0  0  0  0
  5  6  1  0  0  0  0
  5  7  2  0  0  0  0
  6 22  1  0  0  0  0
  6 23  1  0  0  0  0
  6 24  1  0  0  0  0
  7  8  1  0  0  0  0
  8  9  1  0  0  0  0
  8 25  1  0  0  0  0
  9 10  2  0  0  0  0
  9 11  1  0  0  0  0
 11 12  1  0  0  0  0
 11 26  1  0  0  0  0
 12 13  1  0  0  0  0
 12 14  1  0  0  0  0
 12 27  1  0  0  0  0
 13 28  1  0  0  0  0
 13 29  1  0  0  0  0
 13 30  1  0  0  0  0
 14 18  1  0  0  0  0
 14 15  1  0  0  0  0
 14 31  1  0  0  0  0
 15 16  1  0  0  0  0
 15 32  1  0  0  0  0
 15 33  1  0  0  0  0
 16 17  1  0  0  0  0
 16 34  1  0  0  0  0
 16 35  1  0  0  0  0
 17 18  1  0  0  0  0
 17 36  1  0  0  0  0
 17 37  1  0  0  0  0
M  END
> <s_m_source_file>
AV-unprocessed.smi

> <i_m_source_file_index>
977

> <i_lp_mmshare_version>
43012

> <i_f3d_flags>
0

> <s_epik_input>
W0NIM11jMW5vYyhbQ0gzXSljMVtOSF1DKD1PKVtOSF1bQ0BIXShbQ0gzXSlbQ0BASF0yW0NIMl1bQ0gyXVtDSDJdTzI=

> <s_epik_cmdline>
J2VwaWtfcHl0aG9uJywgJy1waCcsICc3LjAnLCAnLXRuJywgJzgnLCAnLW1hJywgJzIwMCcsICctbWV0YWxfYmluZGluZycsICctaW1hZScsICc8aW5maWxlLm1hZT4nLCAnLW9tYWUnLCAnPG91dGZpbGUubWFlPic=

> <r_lp_tautomer_probability>
1

> <r_epik_Ionization_Penalty>
3.41601e-05

> <r_epik_Ionization_Penalty_Charging>
0

> <r_epik_Ionization_Penalty_Neutral>
3.41601e-05

> <r_epik_State_Penalty>
-0

> <r_epik_Charging_Adjusted_Penalty>
0

> <i_epik_Tot_Q>
0

> <i_epik_Tot_abs_Q>
0

> <r_epik_Metal_State_Penalty>
-0

> <b_epik_Metal_Only>
0

> <s_lp_Force_Field>
OPLS_2005

> <r_lp_Energy>
19.7508

> <b_lp_Chiralities_Consistent>
1

> <s_lp_Variant>
AV-unprocessed.smi:977-2

> <Gold.Version>
5.8.1

> <Gold.Id.Protein>
6NUR|6NUR_protein|mol2

> <Gold.PLP.Fitness>
36.5583

> <Gold.PLP.PLP>
-31.2915

> <Gold.PLP.part.hbond>
-2.0000

> <Gold.PLP.part.metal>
0.0000

> <Gold.PLP.part.buried>
-4.6657

> <Gold.PLP.part.nonpolar>
-25.0976

> <Gold.PLP.part.repulsive>
0.2255

> <Gold.PLP.ligand.clash>
0.0000

> <Gold.PLP.ligand.torsion>
0.4827

> <Gold.PLP.Chemscore.Hbond>
1.9920

> <Gold.PLP.Chemscore.CHOScore>
0.0000

> <Gold.PLP.Chemscore.Metal>
0.0000

> <Gold.Chemscore.Hbonds>
donor molecule, donor type, donor heavy atom, donor atom, acceptor molecule, acceptor atom, score
      L1  H     8    25       P1  7948  1.00
      L1  H    11    26       P1  7948  1.00

> <Gold.PLP.Chemscore.Internal.Correction>
0.2562

> <Gold.Rescore>
     Score         DG    S(hbond)    S(metal)    S(lipo)     H(rot)  DE(clash)    DE(int)     intcor
     16.07     -16.69       1.74        0.00      72.93       1.22       0.12       0.49       ----

> <Gold.Chemscore.Fitness>
16.0712

> <Gold.Chemscore.DG>
-16.6882

> <Gold.Chemscore.ZeroCoef>
-5.4800

> <Gold.Chemscore.Hbond>
1.7361

> <Gold.Chemscore.Metal>
0.0000

> <Gold.Chemscore.Lipo>
72.9300

> <Gold.Chemscore.Internal_Hbond>
0.0000

> <Gold.Chemscore.DEClash>
0.1229

> <Gold.Chemscore.DEInternal>
0.4941

> <Gold.Chemscore.Rot>
1.2200

> <Gold.Chemscore.Internal.Correction>
   9.000000E+99

> <Gold.Chemscore.Hbonds>
donor molecule, donor type, donor heavy atom, donor atom, acceptor molecule, acceptor atom, score
      L1  H     8    25       P1  7948  0.33
      L1  H    11    26       P1  7948  0.97

> <Gold.Chemscore.Hbond.Weighted>
-5.7986

> <Gold.Chemscore.Metal.Weighted>
-0.0000

> <Gold.Chemscore.Lipo.Weighted>
-8.5328

> <Gold.Chemscore.Internal_Hbond.Weighted>
0.0000

> <Gold.Chemscore.DEClash.Weighted>
0.1229

> <Gold.Chemscore.DEInternal.Weighted>
0.4941

> <Gold.Chemscore.Rot.Weighted>
3.1232

> <Gold.Chemscore.Internal.Correction.Weighted>
   9.000000E+99

> <Gold.Protein.RotatedTorsions>
[ 6907 6896 6895 6894 ] final   64.08 input  -60.11 | X-H torsion
[ 7974 7965 7964 7962 ] final  -38.37 input  175.53 | X-H torsion
[ 8008 7997 7996 7995 ] final   -4.16 input   59.86 | X-H torsion
[ 10167 10162 10161 10158 ] final  -91.13 input  -65.29 | X-H torsion
[ 10718 10713 10712 10709 ] final   15.55 input   66.30 | X-H torsion
[ 10763 10752 10751 10750 ] final   -6.54 input  -60.55 | X-H torsion
[ 11005 11000 10999 10996 ] final  152.62 input  -57.11 | X-H torsion

> <Gold.Protein.ActiveResidues>
 VAL166  LYS551  ARG553  GLY616  TRP617  ASP618  TYR619  PRO620  LYS621  CYS622 
 ASP623  PHE694  ASN695  SER759  ASP760  ASP761  ALA762  ILE779  LEU786  VAL792 
 PHE793  MET794  SER795  GLU796  ALA797  LYS798  CYS799  TRP800  GLU811  SER814 

> <Gold.Protein.RotatedAtoms>
  152.4304  134.5789  159.9941 H   0  0  0  0  0  0  0  0  0  0  0  0  # atno 6907 bound_to 6896
  151.5913  133.3360  159.3036 H   0  0  0  0  0  0  0  0  0  0  0  0  # atno 6908 bound_to 6896
  150.8196  134.7433  159.6826 H   0  0  0  0  0  0  0  0  0  0  0  0  # atno 6909 bound_to 6896
  146.0492  140.6504  142.9050 H   0  0  0  0  0  0  0  0  0  0  0  0  # atno 7974 bound_to 7965
  154.6173  140.2491  155.7594 H   0  0  0  0  0  0  0  0  0  0  0  0  # atno 8008 bound_to 7997
  156.2406  140.2934  156.0383 H   0  0  0  0  0  0  0  0  0  0  0  0  # atno 8009 bound_to 7997
  155.1955  140.0393  157.2898 H   0  0  0  0  0  0  0  0  0  0  0  0  # atno 8010 bound_to 7997
  140.3480  143.2906  151.9759 H   0  0  0  0  0  0  0  0  0  0  0  0  # atno 10167 bound_to 10162
  157.0551  130.6285  149.5775 H   0  0  0  0  0  0  0  0  0  0  0  0  # atno 10718 bound_to 10713
  153.4138  135.7008  153.6341 H   0  0  0  0  0  0  0  0  0  0  0  0  # atno 10763 bound_to 10752
  153.4823  135.3691  155.2449 H   0  0  0  0  0  0  0  0  0  0  0  0  # atno 10764 bound_to 10752
  154.8718  135.4069  154.3495 H   0  0  0  0  0  0  0  0  0  0  0  0  # atno 10765 bound_to 10752
  140.1324  134.8793  157.2222 H   0  0  0  0  0  0  0  0  0  0  0  0  # atno 11005 bound_to 11000
  144.7114  140.4051  143.7078 LP  0  0  0  0  0  0  0  0  0  0  0  0  # atno 17320 bound_to 7965
  145.6753  139.1607  143.2731 LP  0  0  0  0  0  0  0  0  0  0  0  0  # atno 17321 bound_to 7965
  139.4830  144.6100  151.7451 LP  0  0  0  0  0  0  0  0  0  0  0  0  # atno 17342 bound_to 10162
  140.5246  144.0826  150.6033 LP  0  0  0  0  0  0  0  0  0  0  0  0  # atno 17343 bound_to 10162
  155.9996  130.5072  150.7611 LP  0  0  0  0  0  0  0  0  0  0  0  0  # atno 17370 bound_to 10713
  157.4999  131.0918  151.0326 LP  0  0  0  0  0  0  0  0  0  0  0  0  # atno 17371 bound_to 10713
  140.2825  134.3333  155.7339 LP  0  0  0  0  0  0  0  0  0  0  0  0  # atno 17394 bound_to 11000
  141.2172  133.7487  156.9384 LP  0  0  0  0  0  0  0  0  0  0  0  0  # atno 17395 bound_to 11000

$$$$
