AV-unprocessed.smi:2888|AV-procd|sdf|11107|dock2
  -GOLD-   2272015573D 1   1.00000     0.00000
 Structure written by MMmdl.
 34 36  0  0  0  0  0  0  0  0  2 V2000
  153.0671  140.7511  159.6935 C   0  0  0  0  0  0  0  0  0  0  0  0
  152.3056  141.8589  158.9971 C   0  0  0  0  0  0  0  0  0  0  0  0
  152.5448  143.2136  159.2849 C   0  0  0  0  0  0  0  0  0  0  0  0
  151.7785  144.1558  158.5722 C   0  0  0  0  0  0  0  0  0  0  0  0
  151.9334  145.6464  158.7881 C   0  0  0  0  0  0  0  0  0  0  0  0
  150.8637  143.7392  157.6607 N   0  3  0  0  0  0  0  0  0  0  0  0
  150.6849  142.4275  157.4402 C   0  0  0  0  0  0  0  0  0  0  0  0
  149.7328  142.0601  156.5067 N   0  0  0  0  0  0  0  0  0  0  0  0
  149.4197  140.6807  156.1539 C   0  0  1  0  0  0  0  0  0  0  0  0
  148.3358  140.5697  155.0736 C   0  0  0  0  0  0  0  0  0  0  0  0
  149.0497  139.7498  153.9918 C   0  0  2  0  0  0  0  0  0  0  0  0
  149.2874  138.2971  154.4250 C   0  0  0  0  0  0  0  0  0  0  0  0
  150.4090  138.4567  155.4511 C   0  0  0  0  0  0  0  0  0  0  0  0
  150.6054  139.9788  155.4716 C   0  0  1  0  0  0  0  0  0  0  0  0
  150.3598  140.2760  154.1065 O   0  0  0  0  0  0  0  0  0  0  0  0
  151.3850  141.4838  158.0866 N   0  0  0  0  0  0  0  0  0  0  0  0
  153.8349  141.1554  160.3540 H   0  0  0  0  0  0  0  0  0  0  0  0
  153.5543  140.1056  158.9619 H   0  0  0  0  0  0  0  0  0  0  0  0
  152.3886  140.1428  160.2920 H   0  0  0  0  0  0  0  0  0  0  0  0
  153.2796  143.5172  160.0168 H   0  0  0  0  0  0  0  0  0  0  0  0
  152.7688  145.8626  159.4548 H   0  0  0  0  0  0  0  0  0  0  0  0
  151.0273  146.0599  159.2316 H   0  0  0  0  0  0  0  0  0  0  0  0
  152.1160  146.1530  157.8401 H   0  0  0  0  0  0  0  0  0  0  0  0
  149.1296  142.7859  156.1477 H   0  0  0  0  0  0  0  0  0  0  0  0
  149.1374  140.1403  157.0587 H   0  0  0  0  0  0  0  0  0  0  0  0
  147.4306  140.0815  155.4356 H   0  0  0  0  0  0  0  0  0  0  0  0
  148.0565  141.5481  154.6794 H   0  0  0  0  0  0  0  0  0  0  0  0
  148.6102  139.8499  152.9989 H   0  0  0  0  0  0  0  0  0  0  0  0
  148.3908  137.8382  154.8431 H   0  0  0  0  0  0  0  0  0  0  0  0
  149.6223  137.6894  153.5836 H   0  0  0  0  0  0  0  0  0  0  0  0
  150.1484  138.0552  156.4310 H   0  0  0  0  0  0  0  0  0  0  0  0
  151.3147  137.9558  155.1070 H   0  0  0  0  0  0  0  0  0  0  0  0
  151.5865  140.2861  155.8363 H   0  0  0  0  0  0  0  0  0  0  0  0
  150.3144  144.4326  157.1525 H   0  0  0  0  0  0  0  0  0  0  0  0
  1  2  1  0  0  0  0
  1 17  1  0  0  0  0
  1 18  1  0  0  0  0
  1 19  1  0  0  0  0
  2 16  1  0  0  0  0
  2  3  2  0  0  0  0
  3  4  1  0  0  0  0
  3 20  1  0  0  0  0
  4  5  1  0  0  0  0
  4  6  2  0  0  0  0
  5 21  1  0  0  0  0
  5 22  1  0  0  0  0
  5 23  1  0  0  0  0
  6  7  1  0  0  0  0
  6 34  1  0  0  0  0
  7  8  1  0  0  0  0
  7 16  2  0  0  0  0
  8  9  1  0  0  0  0
  8 24  1  0  0  0  0
  9 14  1  0  0  0  0
  9 10  1  0  0  0  0
  9 25  1  0  0  0  0
 10 11  1  0  0  0  0
 10 26  1  0  0  0  0
 10 27  1  0  0  0  0
 11 15  1  0  0  0  0
 11 12  1  0  0  0  0
 11 28  1  0  0  0  0
 12 13  1  0  0  0  0
 12 29  1  0  0  0  0
 12 30  1  0  0  0  0
 13 14  1  0  0  0  0
 13 31  1  0  0  0  0
 13 32  1  0  0  0  0
 14 15  1  0  0  0  0
 14 33  1  0  0  0  0
M  CHG  1   6   1
M  END
> <s_m_source_file>
AV-unprocessed.smi

> <i_m_source_file_index>
2888

> <i_lp_mmshare_version>
43012

> <i_f3d_flags>
0

> <s_epik_input>
W0NIM11jMVtjSF1jKFtDSDNdKW5jKG4xKVtOSF1bQ0BIXShbQ0gyXVtDQEBIXTIzKVtDQEBIXShPMylbQ0gyXVtDSDJdMg==

> <s_epik_cmdline>
J2VwaWtfcHl0aG9uJywgJy1waCcsICc3LjAnLCAnLXRuJywgJzgnLCAnLW1hJywgJzIwMCcsICctbWV0YWxfYmluZGluZycsICctaW1hZScsICc8aW5maWxlLm1hZT4nLCAnLW9tYWUnLCAnPG91dGZpbGUubWFlPic=

> <r_lp_tautomer_probability>
0.505494

> <r_epik_Ionization_Penalty>
2.49163

> <r_epik_Ionization_Penalty_Charging>
2.49163

> <r_epik_Ionization_Penalty_Neutral>
3.7631e-06

> <r_epik_State_Penalty>
2.656

> <r_epik_Charging_Adjusted_Penalty>
5.14762

> <i_epik_Tot_Q>
1

> <i_epik_Tot_abs_Q>
1

> <r_epik_Metal_State_Penalty>
2.66479

> <b_epik_Metal_Only>
0

> <s_lp_Force_Field>
OPLS_2005

> <r_lp_Energy>
35.8908

> <b_lp_Chiralities_Consistent>
1

> <s_lp_Variant>
AV-unprocessed.smi:2888-8

> <Gold.Version>
5.8.1

> <Gold.Id.Protein>
6NUR|6NUR_protein|mol2

> <Gold.PLP.Fitness>
43.1991

> <Gold.PLP.PLP>
-29.1838

> <Gold.PLP.part.hbond>
-2.6790

> <Gold.PLP.part.metal>
0.0000

> <Gold.PLP.part.buried>
-1.2080

> <Gold.PLP.part.nonpolar>
-25.9309

> <Gold.PLP.part.repulsive>
0.5896

> <Gold.PLP.ligand.clash>
0.0000

> <Gold.PLP.ligand.torsion>
0.0149

> <Gold.PLP.Chemscore.Hbond>
4.6753

> <Gold.PLP.Chemscore.CHOScore>
0.0000

> <Gold.PLP.Chemscore.Metal>
0.0000

> <Gold.Chemscore.Hbonds>
donor molecule, donor type, donor heavy atom, donor atom, acceptor molecule, acceptor atom, score
      L1  H     6    34       P1  8028  1.75
      L1  H     8    24       P1  8028  1.95
      P1  H  7989  7998       L1    15  0.95

> <Gold.PLP.Chemscore.Internal.Correction>
0.0193

> <Gold.Rescore>
     Score         DG    S(hbond)    S(metal)    S(lipo)     H(rot)  DE(clash)    DE(int)     intcor
     20.36     -20.72       2.27        0.00      87.26       1.00       0.34       0.01       ----

> <Gold.Chemscore.Fitness>
20.3619

> <Gold.Chemscore.DG>
-20.7183

> <Gold.Chemscore.ZeroCoef>
-5.4800

> <Gold.Chemscore.Hbond>
2.2722

> <Gold.Chemscore.Metal>
0.0000

> <Gold.Chemscore.Lipo>
87.2581

> <Gold.Chemscore.Internal_Hbond>
0.0000

> <Gold.Chemscore.DEClash>
0.3442

> <Gold.Chemscore.DEInternal>
0.0122

> <Gold.Chemscore.Rot>
1.0000

> <Gold.Chemscore.Internal.Correction>
   9.000000E+99

> <Gold.Chemscore.Hbonds>
donor molecule, donor type, donor heavy atom, donor atom, acceptor molecule, acceptor atom, score
      L1  H     6    34       P1  8028  0.61
      L1  H     8    24       P1  8028  0.89
      P1  H  7989  7998       L1    15  0.63

> <Gold.Chemscore.Hbond.Weighted>
-7.5891

> <Gold.Chemscore.Metal.Weighted>
-0.0000

> <Gold.Chemscore.Lipo.Weighted>
-10.2092

> <Gold.Chemscore.Internal_Hbond.Weighted>
0.0000

> <Gold.Chemscore.DEClash.Weighted>
0.3442

> <Gold.Chemscore.DEInternal.Weighted>
0.0122

> <Gold.Chemscore.Rot.Weighted>
2.5600

> <Gold.Chemscore.Internal.Correction.Weighted>
   9.000000E+99

> <Gold.Protein.RotatedTorsions>
[ 6907 6896 6895 6894 ] final   12.93 input  -60.11 | X-H torsion
[ 7974 7965 7964 7962 ] final   88.87 input  175.53 | X-H torsion
[ 8008 7997 7996 7995 ] final   58.42 input   59.86 | X-H torsion
[ 10167 10162 10161 10158 ] final   86.79 input  -65.29 | X-H torsion
[ 10718 10713 10712 10709 ] final  175.17 input   66.30 | X-H torsion
[ 10763 10752 10751 10750 ] final   85.75 input  -60.55 | X-H torsion
[ 11005 11000 10999 10996 ] final  -69.38 input  -57.11 | X-H torsion

> <Gold.Protein.ActiveResidues>
 VAL166  LYS551  ARG553  GLY616  TRP617  ASP618  TYR619  PRO620  LYS621  CYS622 
 ASP623  PHE694  ASN695  SER759  ASP760  ASP761  ALA762  ILE779  LEU786  VAL792 
 PHE793  MET794  SER795  GLU796  ALA797  LYS798  CYS799  TRP800  GLU811  SER814 

> <Gold.Protein.RotatedAtoms>
  151.7781  135.0769  160.0369 H   0  0  0  0  0  0  0  0  0  0  0  0  # atno 6907 bound_to 6896
  152.3242  133.5882  159.5773 H   0  0  0  0  0  0  0  0  0  0  0  0  # atno 6908 bound_to 6896
  150.7386  133.9882  159.3640 H   0  0  0  0  0  0  0  0  0  0  0  0  # atno 6909 bound_to 6896
  145.5399  139.2288  143.2571 H   0  0  0  0  0  0  0  0  0  0  0  0  # atno 7974 bound_to 7965
  155.5497  140.3486  155.4466 H   0  0  0  0  0  0  0  0  0  0  0  0  # atno 8008 bound_to 7997
  156.0592  140.1336  156.9987 H   0  0  0  0  0  0  0  0  0  0  0  0  # atno 8009 bound_to 7997
  154.4471  140.0989  156.6476 H   0  0  0  0  0  0  0  0  0  0  0  0  # atno 8010 bound_to 7997
  139.8839  144.6424  150.8812 H   0  0  0  0  0  0  0  0  0  0  0  0  # atno 10167 bound_to 10162
  156.9388  130.9994  151.2972 H   0  0  0  0  0  0  0  0  0  0  0  0  # atno 10718 bound_to 10713
  153.1505  135.4605  154.9629 H   0  0  0  0  0  0  0  0  0  0  0  0  # atno 10763 bound_to 10752
  154.7820  135.3191  154.7970 H   0  0  0  0  0  0  0  0  0  0  0  0  # atno 10764 bound_to 10752
  153.8477  135.6924  153.4850 H   0  0  0  0  0  0  0  0  0  0  0  0  # atno 10765 bound_to 10752
  141.1553  133.6763  156.6590 H   0  0  0  0  0  0  0  0  0  0  0  0  # atno 11005 bound_to 11000
  146.1988  140.6219  142.9112 LP  0  0  0  0  0  0  0  0  0  0  0  0  # atno 17320 bound_to 7965
  144.7582  140.5359  143.6754 LP  0  0  0  0  0  0  0  0  0  0  0  0  # atno 17321 bound_to 7965
  140.7739  143.3563  151.1914 LP  0  0  0  0  0  0  0  0  0  0  0  0  # atno 17342 bound_to 10162
  139.7170  143.9284  152.2971 LP  0  0  0  0  0  0  0  0  0  0  0  0  # atno 17343 bound_to 10162
  157.5799  130.8369  149.8507 LP  0  0  0  0  0  0  0  0  0  0  0  0  # atno 17370 bound_to 10713
  156.0414  130.3738  150.1427 LP  0  0  0  0  0  0  0  0  0  0  0  0  # atno 17371 bound_to 10713
  140.3262  134.7967  157.4291 LP  0  0  0  0  0  0  0  0  0  0  0  0  # atno 17394 bound_to 11000
  140.1055  134.5415  155.8313 LP  0  0  0  0  0  0  0  0  0  0  0  0  # atno 17395 bound_to 11000

$$$$
