AV-unprocessed.smi:2356|AV-procd|sdf|9397|dock3
  -GOLD-   2272013 33D 1   1.00000     0.00000
 Structure written by MMmdl.
 54 57  0  0  0  0  0  0  0  0  2 V2000
  148.9401  141.2672  154.5814 C   0  0  0  0  0  0  0  0  0  0  0  0
  149.7690  141.0184  155.8291 C   0  0  0  0  0  0  0  0  0  0  0  0
  150.1481  142.0969  156.5500 N   0  3  0  0  0  0  0  0  0  0  0  0
  150.8808  142.0296  157.6874 C   0  0  0  0  0  0  0  0  0  0  0  0
  151.2122  143.2286  158.3510 N   0  0  0  0  0  0  0  0  0  0  0  0
  151.7528  143.1658  159.6988 C   0  0  0  0  0  0  0  0  0  0  0  0
  152.2112  144.5895  160.0255 C   0  0  0  0  0  0  0  0  0  0  0  0
  152.3238  145.3056  158.6727 C   0  0  0  0  0  0  0  0  0  0  0  0
  151.9190  144.2674  157.6223 C   0  0  0  0  0  0  0  0  0  0  0  0
  151.2827  140.7556  158.1523 C   0  0  0  0  0  0  0  0  0  0  0  0
  150.9135  139.5992  157.4363 C   0  0  0  0  0  0  0  0  0  0  0  0
  150.1516  139.7224  156.2482 C   0  0  0  0  0  0  0  0  0  0  0  0
  149.7159  138.6109  155.4758 N   0  0  0  0  0  0  0  0  0  0  0  0
  149.3718  137.3730  155.8803 C   0  0  0  0  0  0  0  0  0  0  0  0
  149.3946  136.9853  157.0462 O   0  0  0  0  0  0  0  0  0  0  0  0
  149.0071  136.5516  154.8789 N   0  0  0  0  0  0  0  0  0  0  0  0
  148.5785  135.1533  154.9647 C   0  0  2  0  0  0  0  0  0  0  0  0
  147.3540  135.0403  155.8822 C   0  0  0  0  0  0  0  0  0  0  0  0
  146.9560  133.5689  156.0744 C   0  0  0  0  0  0  0  0  0  0  0  0
  148.0543  132.8197  156.5902 O   0  0  0  0  0  0  0  0  0  0  0  0
  149.2303  132.8222  155.7789 C   0  0  1  0  0  0  0  0  0  0  0  0
  149.0422  132.0130  154.5026 C   0  0  0  0  0  0  0  0  0  0  0  0
  148.1390  132.5164  153.4016 C   0  0  0  0  0  0  0  0  0  0  0  0
  147.7351  131.3114  154.2173 C   0  0  0  0  0  0  0  0  0  0  0  0
  149.7066  134.2652  155.5218 C   0  0  0  0  0  0  0  0  0  0  0  0
  147.9891  140.7372  154.6432 H   0  0  0  0  0  0  0  0  0  0  0  0
  149.4718  140.9170  153.6964 H   0  0  0  0  0  0  0  0  0  0  0  0
  148.7265  142.3283  154.4493 H   0  0  0  0  0  0  0  0  0  0  0  0
  151.0071  142.8150  160.4132 H   0  0  0  0  0  0  0  0  0  0  0  0
  152.5992  142.4777  159.7209 H   0  0  0  0  0  0  0  0  0  0  0  0
  151.4712  145.0910  160.6503 H   0  0  0  0  0  0  0  0  0  0  0  0
  153.1557  144.5888  160.5707 H   0  0  0  0  0  0  0  0  0  0  0  0
  151.6415  146.1562  158.6465 H   0  0  0  0  0  0  0  0  0  0  0  0
  153.3296  145.6850  158.4904 H   0  0  0  0  0  0  0  0  0  0  0  0
  152.8022  143.8414  157.1437 H   0  0  0  0  0  0  0  0  0  0  0  0
  151.2912  144.7146  156.8511 H   0  0  0  0  0  0  0  0  0  0  0  0
  151.8684  140.6462  159.0528 H   0  0  0  0  0  0  0  0  0  0  0  0
  151.2131  138.6391  157.8258 H   0  0  0  0  0  0  0  0  0  0  0  0
  149.7220  138.7544  154.4765 H   0  0  0  0  0  0  0  0  0  0  0  0
  149.0296  136.9436  153.9483 H   0  0  0  0  0  0  0  0  0  0  0  0
  148.2855  134.8013  153.9743 H   0  0  0  0  0  0  0  0  0  0  0  0
  147.5742  135.4820  156.8553 H   0  0  0  0  0  0  0  0  0  0  0  0
  146.5155  135.6004  155.4668 H   0  0  0  0  0  0  0  0  0  0  0  0
  146.1285  133.4983  156.7803 H   0  0  0  0  0  0  0  0  0  0  0  0
  146.6005  133.1367  155.1389 H   0  0  0  0  0  0  0  0  0  0  0  0
  150.0007  132.3203  156.3656 H   0  0  0  0  0  0  0  0  0  0  0  0
  149.9324  131.4842  154.1699 H   0  0  0  0  0  0  0  0  0  0  0  0
  147.5973  133.4442  153.5742 H   0  0  0  0  0  0  0  0  0  0  0  0
  148.4578  132.3471  152.3751 H   0  0  0  0  0  0  0  0  0  0  0  0
  147.7828  130.3382  153.7330 H   0  0  0  0  0  0  0  0  0  0  0  0
  146.9243  131.4372  154.9320 H   0  0  0  0  0  0  0  0  0  0  0  0
  150.5658  134.2590  154.8504 H   0  0  0  0  0  0  0  0  0  0  0  0
  150.0605  134.6875  156.4633 H   0  0  0  0  0  0  0  0  0  0  0  0
  149.8618  143.0179  156.2184 H   0  0  0  0  0  0  0  0  0  0  0  0
  1  2  1  0  0  0  0
  1 26  1  0  0  0  0
  1 27  1  0  0  0  0
  1 28  1  0  0  0  0
  2 12  1  0  0  0  0
  2  3  2  0  0  0  0
  3  4  1  0  0  0  0
  3 54  1  0  0  0  0
  4  5  1  0  0  0  0
  4 10  2  0  0  0  0
  5  9  1  0  0  0  0
  5  6  1  0  0  0  0
  6  7  1  0  0  0  0
  6 29  1  0  0  0  0
  6 30  1  0  0  0  0
  7  8  1  0  0  0  0
  7 31  1  0  0  0  0
  7 32  1  0  0  0  0
  8  9  1  0  0  0  0
  8 33  1  0  0  0  0
  8 34  1  0  0  0  0
  9 35  1  0  0  0  0
  9 36  1  0  0  0  0
 10 11  1  0  0  0  0
 10 37  1  0  0  0  0
 11 12  2  0  0  0  0
 11 38  1  0  0  0  0
 12 13  1  0  0  0  0
 13 14  1  0  0  0  0
 13 39  1  0  0  0  0
 14 15  2  0  0  0  0
 14 16  1  0  0  0  0
 16 17  1  0  0  0  0
 16 40  1  0  0  0  0
 17 25  1  0  0  0  0
 17 18  1  0  0  0  0
 17 41  1  0  0  0  0
 18 19  1  0  0  0  0
 18 42  1  0  0  0  0
 18 43  1  0  0  0  0
 19 20  1  0  0  0  0
 19 44  1  0  0  0  0
 19 45  1  0  0  0  0
 20 21  1  0  0  0  0
 21 22  1  0  0  0  0
 21 25  1  0  0  0  0
 21 46  1  0  0  0  0
 22 24  1  0  0  0  0
 22 23  1  0  0  0  0
 22 47  1  0  0  0  0
 23 24  1  0  0  0  0
 23 48  1  0  0  0  0
 23 49  1  0  0  0  0
 24 50  1  0  0  0  0
 24 51  1  0  0  0  0
 25 52  1  0  0  0  0
 25 53  1  0  0  0  0
M  CHG  1   3   1
M  END
> <s_m_source_file>
AV-unprocessed.smi

> <i_m_source_file_index>
2356

> <i_lp_mmshare_version>
43012

> <i_f3d_flags>
0

> <s_epik_input>
W0NIMl0xW0NIMl1bQ0gyXVtDSDJdTjFjKG5jMltDSDNdKVtjSF1bY0hdYzJbTkhdQyg9TylbTkhdW0NAQEhdM1tDSDJdW0NIMl1PW0NASF0oW0NIMl0zKVtDSF00W0NIMl1bQ0gyXTQ=

> <s_epik_cmdline>
J2VwaWtfcHl0aG9uJywgJy1waCcsICc3LjAnLCAnLXRuJywgJzgnLCAnLW1hJywgJzIwMCcsICctbWV0YWxfYmluZGluZycsICctaW1hZScsICc8aW5maWxlLm1hZT4nLCAnLW9tYWUnLCAnPG91dGZpbGUubWFlPic=

> <r_lp_tautomer_probability>
0.999994

> <r_epik_Ionization_Penalty>
0.534681

> <r_epik_Ionization_Penalty_Charging>
0.534661

> <r_epik_Ionization_Penalty_Neutral>
1.99132e-05

> <r_epik_State_Penalty>
0.543738

> <r_epik_Charging_Adjusted_Penalty>
1.0784

> <i_epik_Tot_Q>
1

> <i_epik_Tot_abs_Q>
1

> <r_epik_Metal_State_Penalty>
0.74699

> <b_epik_Metal_Only>
0

> <s_lp_Force_Field>
OPLS_2005

> <r_lp_Energy>
60.0457

> <b_lp_Chiralities_Consistent>
1

> <s_lp_Variant>
AV-unprocessed.smi:2356-5

> <Gold.Version>
5.8.1

> <Gold.Id.Protein>
6NUR|6NUR_protein|mol2

> <Gold.PLP.Fitness>
48.7908

> <Gold.PLP.PLP>
-41.7541

> <Gold.PLP.part.hbond>
-2.0000

> <Gold.PLP.part.metal>
0.0000

> <Gold.PLP.part.buried>
-4.3956

> <Gold.PLP.part.nonpolar>
-36.1307

> <Gold.PLP.part.repulsive>
0.2094

> <Gold.PLP.ligand.clash>
0.0000

> <Gold.PLP.ligand.torsion>
1.1608

> <Gold.PLP.Chemscore.Hbond>
2.6720

> <Gold.PLP.Chemscore.CHOScore>
0.0000

> <Gold.PLP.Chemscore.Metal>
0.0000

> <Gold.Chemscore.Hbonds>
donor molecule, donor type, donor heavy atom, donor atom, acceptor molecule, acceptor atom, score
      L1  H     3    54       P1  8028  1.95
      L1  H    16    40       P1  7948  0.46

> <Gold.PLP.Chemscore.Internal.Correction>
1.3423

> <Gold.Rescore>
     Score         DG    S(hbond)    S(metal)    S(lipo)     H(rot)  DE(clash)    DE(int)     intcor
     17.08     -20.81       1.49        0.00     117.17       1.31       0.15       3.57       ----

> <Gold.Chemscore.Fitness>
17.0820

> <Gold.Chemscore.DG>
-20.8089

> <Gold.Chemscore.ZeroCoef>
-5.4800

> <Gold.Chemscore.Hbond>
1.4860

> <Gold.Chemscore.Metal>
0.0000

> <Gold.Chemscore.Lipo>
117.1697

> <Gold.Chemscore.Internal_Hbond>
0.0000

> <Gold.Chemscore.DEClash>
0.1541

> <Gold.Chemscore.DEInternal>
3.5728

> <Gold.Chemscore.Rot>
1.3060

> <Gold.Chemscore.Internal.Correction>
   9.000000E+99

> <Gold.Chemscore.Hbonds>
donor molecule, donor type, donor heavy atom, donor atom, acceptor molecule, acceptor atom, score
      L1  H     3    54       P1  8028  0.92
      L1  H    16    40       P1  7948  0.46

> <Gold.Chemscore.Hbond.Weighted>
-4.9633

> <Gold.Chemscore.Metal.Weighted>
-0.0000

> <Gold.Chemscore.Lipo.Weighted>
-13.7089

> <Gold.Chemscore.Internal_Hbond.Weighted>
0.0000

> <Gold.Chemscore.DEClash.Weighted>
0.1541

> <Gold.Chemscore.DEInternal.Weighted>
3.5728

> <Gold.Chemscore.Rot.Weighted>
3.3433

> <Gold.Chemscore.Internal.Correction.Weighted>
   9.000000E+99

> <Gold.Protein.RotatedTorsions>
[ 6907 6896 6895 6894 ] final -176.48 input  -60.11 | X-H torsion
[ 7974 7965 7964 7962 ] final  175.35 input  175.53 | X-H torsion
[ 8008 7997 7996 7995 ] final  174.32 input   59.86 | X-H torsion
[ 10167 10162 10161 10158 ] final  179.41 input  -65.29 | X-H torsion
[ 10718 10713 10712 10709 ] final   42.56 input   66.30 | X-H torsion
[ 10763 10752 10751 10750 ] final -138.70 input  -60.55 | X-H torsion
[ 11005 11000 10999 10996 ] final  125.13 input  -57.11 | X-H torsion

> <Gold.Protein.ActiveResidues>
 VAL166  LYS551  ARG553  GLY616  TRP617  ASP618  TYR619  PRO620  LYS621  CYS622 
 ASP623  PHE694  ASN695  SER759  ASP760  ASP761  ALA762  ILE779  LEU786  VAL792 
 PHE793  MET794  SER795  GLU796  ALA797  LYS798  CYS799  TRP800  GLU811  SER814 

> <Gold.Protein.RotatedAtoms>
  151.6055  133.3352  159.3056 H   0  0  0  0  0  0  0  0  0  0  0  0  # atno 6907 bound_to 6896
  150.8185  134.7383  159.6762 H   0  0  0  0  0  0  0  0  0  0  0  0  # atno 6908 bound_to 6896
  152.4279  134.5838  160.0007 H   0  0  0  0  0  0  0  0  0  0  0  0  # atno 6909 bound_to 6896
  144.7203  139.9933  143.6440 H   0  0  0  0  0  0  0  0  0  0  0  0  # atno 7974 bound_to 7965
  156.0986  140.1437  156.9497 H   0  0  0  0  0  0  0  0  0  0  0  0  # atno 8008 bound_to 7997
  154.4688  140.0917  156.7136 H   0  0  0  0  0  0  0  0  0  0  0  0  # atno 8009 bound_to 7997
  155.4798  140.3444  155.4340 H   0  0  0  0  0  0  0  0  0  0  0  0  # atno 8010 bound_to 7997
  139.5335  144.2564  152.0742 H   0  0  0  0  0  0  0  0  0  0  0  0  # atno 10167 bound_to 10162
  157.4062  130.7888  149.7391 H   0  0  0  0  0  0  0  0  0  0  0  0  # atno 10718 bound_to 10713
  154.8630  135.3604  154.5428 H   0  0  0  0  0  0  0  0  0  0  0  0  # atno 10763 bound_to 10752
  153.6049  135.7011  153.5374 H   0  0  0  0  0  0  0  0  0  0  0  0  # atno 10764 bound_to 10752
  153.3259  135.4138  155.1416 H   0  0  0  0  0  0  0  0  0  0  0  0  # atno 10765 bound_to 10752
  139.9391  134.9637  156.8512 H   0  0  0  0  0  0  0  0  0  0  0  0  # atno 11005 bound_to 11000
  146.0394  139.3407  143.0707 LP  0  0  0  0  0  0  0  0  0  0  0  0  # atno 17320 bound_to 7965
  145.8354  140.9609  143.0827 LP  0  0  0  0  0  0  0  0  0  0  0  0  # atno 17321 bound_to 7965
  140.2031  144.4637  150.6421 LP  0  0  0  0  0  0  0  0  0  0  0  0  # atno 17342 bound_to 10162
  140.6528  143.2229  151.6038 LP  0  0  0  0  0  0  0  0  0  0  0  0  # atno 17343 bound_to 10162
  155.9837  130.3998  150.3349 LP  0  0  0  0  0  0  0  0  0  0  0  0  # atno 17370 bound_to 10713
  157.1482  131.0314  151.2897 LP  0  0  0  0  0  0  0  0  0  0  0  0  # atno 17371 bound_to 10713
  140.5997  134.0183  155.7532 LP  0  0  0  0  0  0  0  0  0  0  0  0  # atno 17394 bound_to 11000
  141.1018  133.9755  157.3065 LP  0  0  0  0  0  0  0  0  0  0  0  0  # atno 17395 bound_to 11000

$$$$
