AV-unprocessed.smi:2391|AV-procd|sdf|9481|dock7
  -GOLD-   2272013113D 1   1.00000     0.00000
 Structure written by MMmdl.
 35 36  0  0  0  0  0  0  0  0  1 V2000
  146.1105  128.5569  152.9327 O   0  0  0  0  0  0  0  0  0  0  0  0
  147.0327  129.1472  152.3701 C   0  0  0  0  0  0  0  0  0  0  0  0
  148.0846  128.5562  151.7768 N   0  0  0  0  0  0  0  0  0  0  0  0
  148.3614  127.1681  151.6645 C   0  0  0  0  0  0  0  0  0  0  0  0
  149.2201  126.8068  150.6042 C   0  0  0  0  0  0  0  0  0  0  0  0
  149.5349  125.4478  150.4343 C   0  0  0  0  0  0  0  0  0  0  0  0
  148.9668  124.5375  151.3417 C   0  0  0  0  0  0  0  0  0  0  0  0
  148.1494  124.9280  152.3435 N   0  0  0  0  0  0  0  0  0  0  0  0
  147.8539  126.2233  152.4989 N   0  0  0  0  0  0  0  0  0  0  0  0
  147.1112  130.4824  152.2717 N   0  0  0  0  0  0  0  0  0  0  0  0
  146.1528  131.4466  152.8170 C   0  0  2  0  0  0  0  0  0  0  0  0
  145.5705  132.2985  151.6598 C   0  0  0  0  0  0  0  0  0  0  0  0
  144.2605  133.0282  151.9784 C   0  0  0  0  0  0  0  0  0  0  0  0
  143.6615  133.3849  150.6153 C   0  0  0  0  0  0  0  0  0  0  0  0
  144.2094  132.3494  149.6241 C   0  0  0  0  0  0  0  0  0  0  0  0
  145.2046  131.4865  150.4085 C   0  0  0  0  0  0  0  0  0  0  0  0
  146.8542  132.2739  153.9185 C   0  0  0  0  0  0  0  0  0  0  0  0
  147.9105  132.9059  153.4052 F   0  0  0  0  0  0  0  0  0  0  0  0
  146.0192  133.1818  154.4259 F   0  0  0  0  0  0  0  0  0  0  0  0
  147.2912  131.4893  154.9026 F   0  0  0  0  0  0  0  0  0  0  0  0
  148.7663  129.1700  151.3561 H   0  0  0  0  0  0  0  0  0  0  0  0
  149.6289  127.5505  149.9354 H   0  0  0  0  0  0  0  0  0  0  0  0
  150.1863  125.1157  149.6395 H   0  0  0  0  0  0  0  0  0  0  0  0
  149.1696  123.4796  151.2640 H   0  0  0  0  0  0  0  0  0  0  0  0
  147.9088  130.8724  151.7913 H   0  0  0  0  0  0  0  0  0  0  0  0
  145.3250  130.9144  153.2892 H   0  0  0  0  0  0  0  0  0  0  0  0
  146.3079  133.0476  151.3662 H   0  0  0  0  0  0  0  0  0  0  0  0
  143.5818  132.3611  152.5119 H   0  0  0  0  0  0  0  0  0  0  0  0
  144.4103  133.9144  152.5954 H   0  0  0  0  0  0  0  0  0  0  0  0
  142.5714  133.3934  150.6429 H   0  0  0  0  0  0  0  0  0  0  0  0
  143.9875  134.3826  150.3181 H   0  0  0  0  0  0  0  0  0  0  0  0
  143.4128  131.7377  149.1991 H   0  0  0  0  0  0  0  0  0  0  0  0
  144.7089  132.8538  148.7962 H   0  0  0  0  0  0  0  0  0  0  0  0
  146.0779  131.2227  149.8112 H   0  0  0  0  0  0  0  0  0  0  0  0
  144.7178  130.5553  150.7027 H   0  0  0  0  0  0  0  0  0  0  0  0
  1  2  2  0  0  0  0
  2  3  1  0  0  0  0
  2 10  1  0  0  0  0
  3  4  1  0  0  0  0
  3 21  1  0  0  0  0
  4  9  1  0  0  0  0
  4  5  2  0  0  0  0
  5  6  1  0  0  0  0
  5 22  1  0  0  0  0
  6  7  2  0  0  0  0
  6 23  1  0  0  0  0
  7  8  1  0  0  0  0
  7 24  1  0  0  0  0
  8  9  2  0  0  0  0
 10 11  1  0  0  0  0
 10 25  1  0  0  0  0
 11 12  1  0  0  0  0
 11 17  1  0  0  0  0
 11 26  1  0  0  0  0
 12 16  1  0  0  0  0
 12 13  1  0  0  0  0
 12 27  1  0  0  0  0
 13 14  1  0  0  0  0
 13 28  1  0  0  0  0
 13 29  1  0  0  0  0
 14 15  1  0  0  0  0
 14 30  1  0  0  0  0
 14 31  1  0  0  0  0
 15 16  1  0  0  0  0
 15 32  1  0  0  0  0
 15 33  1  0  0  0  0
 16 34  1  0  0  0  0
 16 35  1  0  0  0  0
 17 18  1  0  0  0  0
 17 19  1  0  0  0  0
 17 20  1  0  0  0  0
M  END
> <s_m_source_file>
AV-unprocessed.smi

> <i_m_source_file_index>
2391

> <i_lp_mmshare_version>
43012

> <i_f3d_flags>
0

> <s_epik_input>
W0NIMl0xW0NIMl1bQ0gyXVtDSDJdW0NIXTFbQ0BIXShDKEYpKEYpRilbTkhdQyg9TylbTkhdYzJbY0hdW2NIXVtjSF1ubjI=

> <s_epik_cmdline>
J2VwaWtfcHl0aG9uJywgJy1waCcsICc3LjAnLCAnLXRuJywgJzgnLCAnLW1hJywgJzIwMCcsICctbWV0YWxfYmluZGluZycsICctaW1hZScsICc8aW5maWxlLm1hZT4nLCAnLW9tYWUnLCAnPG91dGZpbGUubWFlPic=

> <r_lp_tautomer_probability>
1

> <r_epik_Ionization_Penalty>
0.00359591

> <r_epik_Ionization_Penalty_Charging>
0

> <r_epik_Ionization_Penalty_Neutral>
0.00359591

> <r_epik_State_Penalty>
0.0123658

> <r_epik_Charging_Adjusted_Penalty>
0.0123658

> <i_epik_Tot_Q>
0

> <i_epik_Tot_abs_Q>
0

> <r_epik_Metal_State_Penalty>
0.0410426

> <b_epik_Metal_Only>
0

> <s_lp_Force_Field>
OPLS_2005

> <r_lp_Energy>
31.4517

> <b_lp_Chiralities_Consistent>
1

> <s_lp_Variant>
AV-unprocessed.smi:2391-1

> <Gold.Version>
5.8.1

> <Gold.Id.Protein>
6NUR|6NUR_protein|mol2

> <Gold.PLP.Fitness>
41.3114

> <Gold.PLP.PLP>
-37.8309

> <Gold.PLP.part.hbond>
-3.8080

> <Gold.PLP.part.metal>
0.0000

> <Gold.PLP.part.buried>
-5.7785

> <Gold.PLP.part.nonpolar>
-29.2361

> <Gold.PLP.part.repulsive>
0.2488

> <Gold.PLP.ligand.clash>
0.0000

> <Gold.PLP.ligand.torsion>
0.4077

> <Gold.PLP.Chemscore.Hbond>
1.3304

> <Gold.PLP.Chemscore.CHOScore>
0.0000

> <Gold.PLP.Chemscore.Metal>
0.0000

> <Gold.Chemscore.Hbonds>
donor molecule, donor type, donor heavy atom, donor atom, acceptor molecule, acceptor atom, score
      L1  H     3    21       P1 10747  0.27
      L1  H    10    25       P1 10747  0.94

> <Gold.PLP.Chemscore.Internal.Correction>
0.3048

> <Gold.Rescore>
     Score         DG    S(hbond)    S(metal)    S(lipo)     H(rot)  DE(clash)    DE(int)     intcor
     11.42     -14.08       0.99        0.00      74.44       1.33       0.91       1.75       ----

> <Gold.Chemscore.Fitness>
11.4193

> <Gold.Chemscore.DG>
-14.0777

> <Gold.Chemscore.ZeroCoef>
-5.4800

> <Gold.Chemscore.Hbond>
0.9861

> <Gold.Chemscore.Metal>
0.0000

> <Gold.Chemscore.Lipo>
74.4443

> <Gold.Chemscore.Internal_Hbond>
0.0000

> <Gold.Chemscore.DEClash>
0.9101

> <Gold.Chemscore.DEInternal>
1.7484

> <Gold.Chemscore.Rot>
1.3304

> <Gold.Chemscore.Internal.Correction>
   9.000000E+99

> <Gold.Chemscore.Hbonds>
donor molecule, donor type, donor heavy atom, donor atom, acceptor molecule, acceptor atom, score
      L1  H    10    25       P1 10747  0.91

> <Gold.Chemscore.Hbond.Weighted>
-3.2935

> <Gold.Chemscore.Metal.Weighted>
-0.0000

> <Gold.Chemscore.Lipo.Weighted>
-8.7100

> <Gold.Chemscore.Internal_Hbond.Weighted>
0.0000

> <Gold.Chemscore.DEClash.Weighted>
0.9101

> <Gold.Chemscore.DEInternal.Weighted>
1.7484

> <Gold.Chemscore.Rot.Weighted>
3.4057

> <Gold.Chemscore.Internal.Correction.Weighted>
   9.000000E+99

> <Gold.Protein.RotatedTorsions>
[ 6907 6896 6895 6894 ] final  -29.20 input  -60.11 | X-H torsion
[ 7974 7965 7964 7962 ] final   77.81 input  175.53 | X-H torsion
[ 8008 7997 7996 7995 ] final   79.41 input   59.86 | X-H torsion
[ 10167 10162 10161 10158 ] final   30.89 input  -65.29 | X-H torsion
[ 10718 10713 10712 10709 ] final    8.09 input   66.30 | X-H torsion
[ 10763 10752 10751 10750 ] final   -2.69 input  -60.55 | X-H torsion
[ 11005 11000 10999 10996 ] final    6.66 input  -57.11 | X-H torsion

> <Gold.Protein.ActiveResidues>
 VAL166  LYS551  ARG553  GLY616  TRP617  ASP618  TYR619  PRO620  LYS621  CYS622 
 ASP623  PHE694  ASN695  SER759  ASP760  ASP761  ALA762  ILE779  LEU786  VAL792 
 PHE793  MET794  SER795  GLU796  ALA797  LYS798  CYS799  TRP800  GLU811  SER814 

> <Gold.Protein.RotatedAtoms>
  151.1225  135.0087  159.8544 H   0  0  0  0  0  0  0  0  0  0  0  0  # atno 6907 bound_to 6896
  152.5448  134.1706  159.8605 H   0  0  0  0  0  0  0  0  0  0  0  0  # atno 6908 bound_to 6896
  151.1765  133.4706  159.2627 H   0  0  0  0  0  0  0  0  0  0  0  0  # atno 6909 bound_to 6896
  145.6852  139.2535  143.1791 H   0  0  0  0  0  0  0  0  0  0  0  0  # atno 7974 bound_to 7965
  155.8692  140.3450  155.5809 H   0  0  0  0  0  0  0  0  0  0  0  0  # atno 8008 bound_to 7997
  155.7846  140.0863  157.2060 H   0  0  0  0  0  0  0  0  0  0  0  0  # atno 8009 bound_to 7997
  154.4016  140.1494  156.3079 H   0  0  0  0  0  0  0  0  0  0  0  0  # atno 8010 bound_to 7997
  140.4637  144.0867  150.6219 H   0  0  0  0  0  0  0  0  0  0  0  0  # atno 10167 bound_to 10162
  156.9466  130.5881  149.5655 H   0  0  0  0  0  0  0  0  0  0  0  0  # atno 10718 bound_to 10713
  153.3614  135.6990  153.6709 H   0  0  0  0  0  0  0  0  0  0  0  0  # atno 10763 bound_to 10752
  153.5396  135.3575  155.2713 H   0  0  0  0  0  0  0  0  0  0  0  0  # atno 10764 bound_to 10752
  154.8668  135.4200  154.2872 H   0  0  0  0  0  0  0  0  0  0  0  0  # atno 10765 bound_to 10752
  140.5570  134.0229  155.7957 H   0  0  0  0  0  0  0  0  0  0  0  0  # atno 11005 bound_to 11000
  146.0929  140.7634  142.9586 LP  0  0  0  0  0  0  0  0  0  0  0  0  # atno 17320 bound_to 7965
  144.7013  140.3666  143.7153 LP  0  0  0  0  0  0  0  0  0  0  0  0  # atno 17321 bound_to 7965
  140.4062  143.2679  151.9888 LP  0  0  0  0  0  0  0  0  0  0  0  0  # atno 17342 bound_to 10162
  139.4809  144.5955  151.7697 LP  0  0  0  0  0  0  0  0  0  0  0  0  # atno 17343 bound_to 10162
  156.0381  130.5466  150.8704 LP  0  0  0  0  0  0  0  0  0  0  0  0  # atno 17370 bound_to 10713
  157.5750  131.0946  150.9360 LP  0  0  0  0  0  0  0  0  0  0  0  0  # atno 17371 bound_to 10713
  141.1138  133.9574  157.2861 LP  0  0  0  0  0  0  0  0  0  0  0  0  # atno 17394 bound_to 11000
  139.9427  135.0189  156.8757 LP  0  0  0  0  0  0  0  0  0  0  0  0  # atno 17395 bound_to 11000

$$$$
