AV-unprocessed.smi:2409|AV-procd|sdf|9523|dock5
  -GOLD-   2272013153D 1   1.00000     0.00000
 Structure written by MMmdl.
 35 36  0  0  0  0  0  0  0  0  1 V2000
  147.8687  141.8978  153.5387 C   0  0  0  0  0  0  0  0  0  0  0  0
  148.1785  141.3730  154.8184 O   0  0  0  0  0  0  0  0  0  0  0  0
  149.3007  140.6226  154.8357 C   0  0  0  0  0  0  0  0  0  0  0  0
  149.6079  139.4210  154.2601 C   0  0  0  0  0  0  0  0  0  0  0  0
  148.8190  138.5740  153.4413 N   0  0  0  0  0  0  0  0  0  0  0  0
  147.4803  138.5831  153.3033 C   0  0  0  0  0  0  0  0  0  0  0  0
  146.7298  139.3702  153.8758 O   0  0  0  0  0  0  0  0  0  0  0  0
  147.0001  137.6469  152.4656 N   0  0  0  0  0  0  0  0  0  0  0  0
  145.6345  137.3975  152.1078 C   0  0  1  0  0  0  0  0  0  0  0  0
  145.3787  136.3254  151.0708 C   0  0  0  0  0  0  0  0  0  0  0  0
  144.9983  136.0785  152.5067 C   0  0  1  0  0  0  0  0  0  0  0  0
  145.7368  135.0454  153.3350 C   0  0  0  0  0  0  0  0  0  0  0  0
  150.9691  139.1869  154.5987 C   0  0  0  0  0  0  0  0  0  0  0  0
  151.8589  138.0392  154.2169 C   0  0  0  0  0  0  0  0  0  0  0  0
  151.4450  140.1576  155.3708 N   0  0  0  0  0  0  0  0  0  0  0  0
  150.4222  141.0340  155.5246 N   0  0  0  0  0  0  0  0  0  0  0  0
  150.6170  142.2332  156.3132 C   0  0  0  0  0  0  0  0  0  0  0  0
  146.9610  142.4978  153.6002 H   0  0  0  0  0  0  0  0  0  0  0  0
  147.6981  141.1056  152.8088 H   0  0  0  0  0  0  0  0  0  0  0  0
  148.6728  142.5391  153.1747 H   0  0  0  0  0  0  0  0  0  0  0  0
  149.3116  137.8216  152.9830 H   0  0  0  0  0  0  0  0  0  0  0  0
  147.6853  137.0665  152.0034 H   0  0  0  0  0  0  0  0  0  0  0  0
  144.9667  138.2555  152.0451 H   0  0  0  0  0  0  0  0  0  0  0  0
  144.5710  136.4956  150.3617 H   0  0  0  0  0  0  0  0  0  0  0  0
  146.2373  135.7868  150.6737 H   0  0  0  0  0  0  0  0  0  0  0  0
  143.9351  136.1277  152.7345 H   0  0  0  0  0  0  0  0  0  0  0  0
  146.7767  134.9564  153.0193 H   0  0  0  0  0  0  0  0  0  0  0  0
  145.2604  134.0711  153.2250 H   0  0  0  0  0  0  0  0  0  0  0  0
  145.7150  135.3264  154.3880 H   0  0  0  0  0  0  0  0  0  0  0  0
  151.2923  137.2338  153.7496 H   0  0  0  0  0  0  0  0  0  0  0  0
  152.3621  137.6234  155.0903 H   0  0  0  0  0  0  0  0  0  0  0  0
  152.6252  138.3582  153.5104 H   0  0  0  0  0  0  0  0  0  0  0  0
  149.6761  142.5296  156.7775 H   0  0  0  0  0  0  0  0  0  0  0  0
  150.9659  143.0406  155.6691 H   0  0  0  0  0  0  0  0  0  0  0  0
  151.3544  142.0555  157.0970 H   0  0  0  0  0  0  0  0  0  0  0  0
  1  2  1  0  0  0  0
  1 18  1  0  0  0  0
  1 19  1  0  0  0  0
  1 20  1  0  0  0  0
  2  3  1  0  0  0  0
  3 16  1  0  0  0  0
  3  4  2  0  0  0  0
  4  5  1  0  0  0  0
  4 13  1  0  0  0  0
  5  6  1  0  0  0  0
  5 21  1  0  0  0  0
  6  7  2  0  0  0  0
  6  8  1  0  0  0  0
  8  9  1  0  0  0  0
  8 22  1  0  0  0  0
  9 11  1  0  0  0  0
  9 10  1  0  0  0  0
  9 23  1  0  0  0  0
 10 11  1  0  0  0  0
 10 24  1  0  0  0  0
 10 25  1  0  0  0  0
 11 12  1  0  0  0  0
 11 26  1  0  0  0  0
 12 27  1  0  0  0  0
 12 28  1  0  0  0  0
 12 29  1  0  0  0  0
 13 14  1  0  0  0  0
 13 15  2  0  0  0  0
 14 30  1  0  0  0  0
 14 31  1  0  0  0  0
 14 32  1  0  0  0  0
 15 16  1  0  0  0  0
 16 17  1  0  0  0  0
 17 33  1  0  0  0  0
 17 34  1  0  0  0  0
 17 35  1  0  0  0  0
M  END
> <s_m_source_file>
AV-unprocessed.smi

> <i_m_source_file_index>
2409

> <i_lp_mmshare_version>
43012

> <i_f3d_flags>
0

> <s_epik_input>
W0NIM11uMW5jKFtDSDNdKWMoYzFPW0NIM10pW05IXUMoPU8pW05IXVtDQEBIXTJbQ0gyXVtDQEhdMltDSDNd

> <s_epik_cmdline>
J2VwaWtfcHl0aG9uJywgJy1waCcsICc3LjAnLCAnLXRuJywgJzgnLCAnLW1hJywgJzIwMCcsICctbWV0YWxfYmluZGluZycsICctaW1hZScsICc8aW5maWxlLm1hZT4nLCAnLW9tYWUnLCAnPG91dGZpbGUubWFlPic=

> <r_lp_tautomer_probability>
1

> <r_epik_Ionization_Penalty>
0.000417804

> <r_epik_Ionization_Penalty_Charging>
0

> <r_epik_Ionization_Penalty_Neutral>
0.000417804

> <r_epik_State_Penalty>
-0

> <r_epik_Charging_Adjusted_Penalty>
0

> <i_epik_Tot_Q>
0

> <i_epik_Tot_abs_Q>
0

> <r_epik_Metal_State_Penalty>
-0

> <b_epik_Metal_Only>
0

> <s_lp_Force_Field>
OPLS_2005

> <r_lp_Energy>
35.5407

> <b_lp_Chiralities_Consistent>
1

> <s_lp_Variant>
AV-unprocessed.smi:2409-2

> <Gold.Version>
5.8.1

> <Gold.Id.Protein>
6NUR|6NUR_protein|mol2

> <Gold.PLP.Fitness>
34.8221

> <Gold.PLP.PLP>
-29.4807

> <Gold.PLP.part.hbond>
-3.9080

> <Gold.PLP.part.metal>
0.0000

> <Gold.PLP.part.buried>
-0.6228

> <Gold.PLP.part.nonpolar>
-23.9591

> <Gold.PLP.part.repulsive>
0.3805

> <Gold.PLP.ligand.clash>
0.0000

> <Gold.PLP.ligand.torsion>
0.1205

> <Gold.PLP.Chemscore.Hbond>
1.8480

> <Gold.PLP.Chemscore.CHOScore>
0.0000

> <Gold.PLP.Chemscore.Metal>
0.0000

> <Gold.Chemscore.Hbonds>
donor molecule, donor type, donor heavy atom, donor atom, acceptor molecule, acceptor atom, score
      L1  H     5    21       P1  7948  0.83
      L1  H     8    22       P1  7948  0.94

> <Gold.PLP.Chemscore.Internal.Correction>
0.0383

> <Gold.Rescore>
     Score         DG    S(hbond)    S(metal)    S(lipo)     H(rot)  DE(clash)    DE(int)     intcor
     12.47     -14.82       1.92        0.00      51.87       1.23       0.00       2.35       ----

> <Gold.Chemscore.Fitness>
12.4651

> <Gold.Chemscore.DG>
-14.8161

> <Gold.Chemscore.ZeroCoef>
-5.4800

> <Gold.Chemscore.Hbond>
1.9203

> <Gold.Chemscore.Metal>
0.0000

> <Gold.Chemscore.Lipo>
51.8718

> <Gold.Chemscore.Internal_Hbond>
0.0000

> <Gold.Chemscore.DEClash>
0.0000

> <Gold.Chemscore.DEInternal>
2.3510

> <Gold.Chemscore.Rot>
1.2292

> <Gold.Chemscore.Internal.Correction>
   9.000000E+99

> <Gold.Chemscore.Hbonds>
donor molecule, donor type, donor heavy atom, donor atom, acceptor molecule, acceptor atom, score
      L1  H     5    21       P1  7948  0.77
      L1  H     8    22       P1  7948  0.89

> <Gold.Chemscore.Hbond.Weighted>
-6.4138

> <Gold.Chemscore.Metal.Weighted>
-0.0000

> <Gold.Chemscore.Lipo.Weighted>
-6.0690

> <Gold.Chemscore.Internal_Hbond.Weighted>
0.0000

> <Gold.Chemscore.DEClash.Weighted>
0.0000

> <Gold.Chemscore.DEInternal.Weighted>
2.3510

> <Gold.Chemscore.Rot.Weighted>
3.1467

> <Gold.Chemscore.Internal.Correction.Weighted>
   9.000000E+99

> <Gold.Protein.RotatedTorsions>
[ 6907 6896 6895 6894 ] final   16.93 input  -60.11 | X-H torsion
[ 7974 7965 7964 7962 ] final  128.27 input  175.53 | X-H torsion
[ 8008 7997 7996 7995 ] final  164.20 input   59.86 | X-H torsion
[ 10167 10162 10161 10158 ] final   59.53 input  -65.29 | X-H torsion
[ 10718 10713 10712 10709 ] final   27.93 input   66.30 | X-H torsion
[ 10763 10752 10751 10750 ] final   42.34 input  -60.55 | X-H torsion
[ 11005 11000 10999 10996 ] final   42.96 input  -57.11 | X-H torsion

> <Gold.Protein.ActiveResidues>
 VAL166  LYS551  ARG553  GLY616  TRP617  ASP618  TYR619  PRO620  LYS621  CYS622 
 ASP623  PHE694  ASN695  SER759  ASP760  ASP761  ALA762  ILE779  LEU786  VAL792 
 PHE793  MET794  SER795  GLU796  ALA797  LYS798  CYS799  TRP800  GLU811  SER814 

> <Gold.Protein.RotatedAtoms>
  151.8416  135.0588  160.0448 H   0  0  0  0  0  0  0  0  0  0  0  0  # atno 6907 bound_to 6896
  152.2804  133.5461  159.5503 H   0  0  0  0  0  0  0  0  0  0  0  0  # atno 6908 bound_to 6896
  150.7187  134.0487  159.3833 H   0  0  0  0  0  0  0  0  0  0  0  0  # atno 6909 bound_to 6896
  145.0414  139.3960  143.5100 H   0  0  0  0  0  0  0  0  0  0  0  0  # atno 7974 bound_to 7965
  156.1898  140.1703  156.8114 H   0  0  0  0  0  0  0  0  0  0  0  0  # atno 8008 bound_to 7997
  154.5458  140.0727  156.8618 H   0  0  0  0  0  0  0  0  0  0  0  0  # atno 8009 bound_to 7997
  155.3125  140.3368  155.4246 H   0  0  0  0  0  0  0  0  0  0  0  0  # atno 8010 bound_to 7997
  140.1754  144.4235  150.6641 H   0  0  0  0  0  0  0  0  0  0  0  0  # atno 10167 bound_to 10162
  157.2268  130.7005  149.6295 H   0  0  0  0  0  0  0  0  0  0  0  0  # atno 10718 bound_to 10713
  152.9885  135.6134  154.2934 H   0  0  0  0  0  0  0  0  0  0  0  0  # atno 10763 bound_to 10752
  154.2658  135.2781  155.2761 H   0  0  0  0  0  0  0  0  0  0  0  0  # atno 10764 bound_to 10752
  154.5166  135.5826  153.6704 H   0  0  0  0  0  0  0  0  0  0  0  0  # atno 10765 bound_to 10752
  140.1690  134.4246  155.8269 H   0  0  0  0  0  0  0  0  0  0  0  0  # atno 11005 bound_to 11000
  146.3509  140.0016  142.8675 LP  0  0  0  0  0  0  0  0  0  0  0  0  # atno 17320 bound_to 7965
  145.1643  140.9689  143.4359 LP  0  0  0  0  0  0  0  0  0  0  0  0  # atno 17321 bound_to 7965
  140.6554  143.2236  151.5980 LP  0  0  0  0  0  0  0  0  0  0  0  0  # atno 17342 bound_to 10162
  139.5319  144.2891  152.1167 LP  0  0  0  0  0  0  0  0  0  0  0  0  # atno 17343 bound_to 10162
  155.9678  130.4502  150.5687 LP  0  0  0  0  0  0  0  0  0  0  0  0  # atno 17370 bound_to 10713
  157.3519  131.0735  151.1706 LP  0  0  0  0  0  0  0  0  0  0  0  0  # atno 17371 bound_to 10713
  141.2216  133.6947  156.7730 LP  0  0  0  0  0  0  0  0  0  0  0  0  # atno 17394 bound_to 11000
  140.2400  134.8621  157.3563 LP  0  0  0  0  0  0  0  0  0  0  0  0  # atno 17395 bound_to 11000

$$$$
