AV-unprocessed.smi:2482|AV-procd|sdf|9780|dock8
  -GOLD-   2272013423D 1   1.00000     0.00000
 Structure written by MMmdl.
 34 35  0  0  0  0  0  0  0  0  1 V2000
  152.8554  144.1682  163.1201 C   0  0  0  0  0  0  0  0  0  0  0  0
  153.1642  142.9725  162.2387 C   0  0  0  0  0  0  0  0  0  0  0  0
  154.0008  142.0547  162.7704 N   0  0  0  0  0  0  0  0  0  0  0  0
  154.3147  140.9751  162.0257 C   0  0  0  0  0  0  0  0  0  0  0  0
  153.8113  140.7550  160.7296 C   0  0  0  0  0  0  0  0  0  0  0  0
  152.9213  141.7062  160.1756 C   0  0  0  0  0  0  0  0  0  0  0  0
  152.3714  141.5945  158.8688 N   0  0  0  0  0  0  0  0  0  0  0  0
  152.5117  140.6005  157.9721 C   0  0  0  0  0  0  0  0  0  0  0  0
  153.1835  139.5858  158.1586 O   0  0  0  0  0  0  0  0  0  0  0  0
  151.7648  140.7954  156.6445 C   0  0  1  0  0  0  0  0  0  0  0  0
  151.5866  139.4784  155.8544 C   0  0  0  0  0  0  0  0  0  0  0  0
  150.8169  139.6787  154.6329 N   0  0  0  0  0  0  0  0  0  0  0  0
  150.6494  138.4362  153.8949 C   0  0  0  0  0  0  0  0  0  0  0  0
  149.5346  140.2892  154.9556 C   0  0  0  0  0  0  0  0  0  0  0  0
  149.7132  141.6001  155.7393 C   0  0  0  0  0  0  0  0  0  0  0  0
  150.4767  141.3512  156.9153 O   0  0  0  0  0  0  0  0  0  0  0  0
  152.6023  142.8490  160.9463 C   0  0  0  0  0  0  0  0  0  0  0  0
  151.5410  144.0687  160.3244 Cl  0  0  0  0  0  0  0  0  0  0  0  0
  151.7848  144.2279  163.3166 H   0  0  0  0  0  0  0  0  0  0  0  0
  153.1694  145.0911  162.6319 H   0  0  0  0  0  0  0  0  0  0  0  0
  153.3703  144.1031  164.0796 H   0  0  0  0  0  0  0  0  0  0  0  0
  154.9954  140.2667  162.4740 H   0  0  0  0  0  0  0  0  0  0  0  0
  154.1258  139.8767  160.1878 H   0  0  0  0  0  0  0  0  0  0  0  0
  151.7216  142.3238  158.6113 H   0  0  0  0  0  0  0  0  0  0  0  0
  152.3377  141.5062  156.0463 H   0  0  0  0  0  0  0  0  0  0  0  0
  152.5647  139.0668  155.6014 H   0  0  0  0  0  0  0  0  0  0  0  0
  151.0903  138.7379  156.4845 H   0  0  0  0  0  0  0  0  0  0  0  0
  150.1034  138.6087  152.9669 H   0  0  0  0  0  0  0  0  0  0  0  0
  150.0983  137.7001  154.4818 H   0  0  0  0  0  0  0  0  0  0  0  0
  151.6178  138.0074  153.6355 H   0  0  0  0  0  0  0  0  0  0  0  0
  148.9768  140.4862  154.0395 H   0  0  0  0  0  0  0  0  0  0  0  0
  148.9328  139.5961  155.5455 H   0  0  0  0  0  0  0  0  0  0  0  0
  150.2112  142.3529  155.1265 H   0  0  0  0  0  0  0  0  0  0  0  0
  148.7430  142.0078  156.0234 H   0  0  0  0  0  0  0  0  0  0  0  0
  1  2  1  0  0  0  0
  1 19  1  0  0  0  0
  1 20  1  0  0  0  0
  1 21  1  0  0  0  0
  2 17  1  0  0  0  0
  2  3  2  0  0  0  0
  3  4  1  0  0  0  0
  4  5  2  0  0  0  0
  4 22  1  0  0  0  0
  5  6  1  0  0  0  0
  5 23  1  0  0  0  0
  6  7  1  0  0  0  0
  6 17  2  0  0  0  0
  7  8  1  0  0  0  0
  7 24  1  0  0  0  0
  8  9  2  0  0  0  0
  8 10  1  0  0  0  0
 10 16  1  0  0  0  0
 10 11  1  0  0  0  0
 10 25  1  0  0  0  0
 11 12  1  0  0  0  0
 11 26  1  0  0  0  0
 11 27  1  0  0  0  0
 12 13  1  0  0  0  0
 12 14  1  0  0  0  0
 13 28  1  0  0  0  0
 13 29  1  0  0  0  0
 13 30  1  0  0  0  0
 14 15  1  0  0  0  0
 14 31  1  0  0  0  0
 14 32  1  0  0  0  0
 15 16  1  0  0  0  0
 15 33  1  0  0  0  0
 15 34  1  0  0  0  0
 17 18  1  0  0  0  0
M  END
> <s_m_source_file>
AV-unprocessed.smi

> <i_m_source_file_index>
2482

> <i_lp_mmshare_version>
43012

> <i_f3d_flags>
0

> <s_epik_input>
W0NIM11jMW5bY0hdW2NIXWMoYzFDbClbTkhdQyg9TylbQ0BASF0yW0NIMl1OKFtDSDNdKVtDSDJdW0NIMl1PMg==

> <s_epik_cmdline>
J2VwaWtfcHl0aG9uJywgJy1waCcsICc3LjAnLCAnLXRuJywgJzgnLCAnLW1hJywgJzIwMCcsICctbWV0YWxfYmluZGluZycsICctaW1hZScsICc8aW5maWxlLm1hZT4nLCAnLW9tYWUnLCAnPG91dGZpbGUubWFlPic=

> <r_epik_Ionization_Penalty>
0.52656

> <r_epik_Ionization_Penalty_Charging>
0

> <r_epik_Ionization_Penalty_Neutral>
0.52656

> <r_epik_State_Penalty>
0.534659

> <r_epik_Charging_Adjusted_Penalty>
0.534659

> <i_epik_Tot_Q>
0

> <i_epik_Tot_abs_Q>
0

> <r_epik_Metal_State_Penalty>
0.54077

> <b_epik_Metal_Only>
0

> <s_lp_Force_Field>
OPLS_2005

> <r_lp_Energy>
25.124

> <b_lp_Chiralities_Consistent>
1

> <s_lp_Variant>
AV-unprocessed.smi:2482-6

> <Gold.Version>
5.8.1

> <Gold.Id.Protein>
6NUR|6NUR_protein|mol2

> <Gold.PLP.Fitness>
42.0559

> <Gold.PLP.PLP>
-37.0899

> <Gold.PLP.part.hbond>
-2.9629

> <Gold.PLP.part.metal>
0.0000

> <Gold.PLP.part.buried>
-2.3568

> <Gold.PLP.part.nonpolar>
-30.4440

> <Gold.PLP.part.repulsive>
0.2768

> <Gold.PLP.ligand.clash>
0.0000

> <Gold.PLP.ligand.torsion>
0.5180

> <Gold.PLP.Chemscore.Hbond>
2.0000

> <Gold.PLP.Chemscore.CHOScore>
0.0000

> <Gold.PLP.Chemscore.Metal>
0.0000

> <Gold.Chemscore.Hbonds>
donor molecule, donor type, donor heavy atom, donor atom, acceptor molecule, acceptor atom, score
      P1  H  7989  7998       L1    12  1.00
      P1  H  7997  8008       L1     9  0.85

> <Gold.PLP.Chemscore.Internal.Correction>
0.0020

> <Gold.Rescore>
     Score         DG    S(hbond)    S(metal)    S(lipo)     H(rot)  DE(clash)    DE(int)     intcor
     14.98     -17.44       0.59        0.00     107.18       1.00       0.76       1.70       ----

> <Gold.Chemscore.Fitness>
14.9800

> <Gold.Chemscore.DG>
-17.4420

> <Gold.Chemscore.ZeroCoef>
-5.4800

> <Gold.Chemscore.Hbond>
0.5935

> <Gold.Chemscore.Metal>
0.0000

> <Gold.Chemscore.Lipo>
107.1766

> <Gold.Chemscore.Internal_Hbond>
0.0000

> <Gold.Chemscore.DEClash>
0.7602

> <Gold.Chemscore.DEInternal>
1.7019

> <Gold.Chemscore.Rot>
1.0000

> <Gold.Chemscore.Internal.Correction>
   9.000000E+99

> <Gold.Chemscore.Hbonds>
donor molecule, donor type, donor heavy atom, donor atom, acceptor molecule, acceptor atom, score
      P1  H  7989  7998       L1    12  0.25
      P1  H  7997  8008       L1     9  0.15

> <Gold.Chemscore.Hbond.Weighted>
-1.9823

> <Gold.Chemscore.Metal.Weighted>
-0.0000

> <Gold.Chemscore.Lipo.Weighted>
-12.5397

> <Gold.Chemscore.Internal_Hbond.Weighted>
0.0000

> <Gold.Chemscore.DEClash.Weighted>
0.7602

> <Gold.Chemscore.DEInternal.Weighted>
1.7019

> <Gold.Chemscore.Rot.Weighted>
2.5600

> <Gold.Chemscore.Internal.Correction.Weighted>
   9.000000E+99

> <Gold.Protein.RotatedTorsions>
[ 6907 6896 6895 6894 ] final  150.24 input  -60.11 | X-H torsion
[ 7974 7965 7964 7962 ] final -163.99 input  175.53 | X-H torsion
[ 8008 7997 7996 7995 ] final  -86.05 input   59.86 | X-H torsion
[ 10167 10162 10161 10158 ] final   -9.21 input  -65.29 | X-H torsion
[ 10718 10713 10712 10709 ] final  151.66 input   66.30 | X-H torsion
[ 10763 10752 10751 10750 ] final   29.00 input  -60.55 | X-H torsion
[ 11005 11000 10999 10996 ] final -179.54 input  -57.11 | X-H torsion

> <Gold.Protein.ActiveResidues>
 VAL166  LYS551  ARG553  GLY616  TRP617  ASP618  TYR619  PRO620  LYS621  CYS622 
 ASP623  PHE694  ASN695  SER759  ASP760  ASP761  ALA762  ILE779  LEU786  VAL792 
 PHE793  MET794  SER795  GLU796  ALA797  LYS798  CYS799  TRP800  GLU811  SER814 

> <Gold.Protein.RotatedAtoms>
  152.1171  133.4332  159.4657 H   0  0  0  0  0  0  0  0  0  0  0  0  # atno 6907 bound_to 6896
  150.6870  134.2579  159.4546 H   0  0  0  0  0  0  0  0  0  0  0  0  # atno 6908 bound_to 6896
  152.0453  134.9686  160.0625 H   0  0  0  0  0  0  0  0  0  0  0  0  # atno 6909 bound_to 6896
  144.7310  140.3026  143.6202 H   0  0  0  0  0  0  0  0  0  0  0  0  # atno 7974 bound_to 7965
  154.6475  140.0583  156.9918 H   0  0  0  0  0  0  0  0  0  0  0  0  # atno 8008 bound_to 7997
  155.1421  140.3266  155.4431 H   0  0  0  0  0  0  0  0  0  0  0  0  # atno 8009 bound_to 7997
  156.2561  140.1962  156.6536 H   0  0  0  0  0  0  0  0  0  0  0  0  # atno 8010 bound_to 7997
  140.7081  143.5883  150.8920 H   0  0  0  0  0  0  0  0  0  0  0  0  # atno 10167 bound_to 10162
  157.2678  131.0811  151.1621 H   0  0  0  0  0  0  0  0  0  0  0  0  # atno 10718 bound_to 10713
  153.0457  135.6499  154.0823 H   0  0  0  0  0  0  0  0  0  0  0  0  # atno 10763 bound_to 10752
  154.0522  135.2894  155.3340 H   0  0  0  0  0  0  0  0  0  0  0  0  # atno 10764 bound_to 10752
  154.6713  135.5355  153.8207 H   0  0  0  0  0  0  0  0  0  0  0  0  # atno 10765 bound_to 10752
  140.4175  134.6636  157.4646 H   0  0  0  0  0  0  0  0  0  0  0  0  # atno 11005 bound_to 11000
  145.7744  139.1869  143.2193 LP  0  0  0  0  0  0  0  0  0  0  0  0  # atno 17320 bound_to 7965
  146.0884  140.7684  142.9607 LP  0  0  0  0  0  0  0  0  0  0  0  0  # atno 17321 bound_to 7965
  139.9609  143.6165  152.3002 LP  0  0  0  0  0  0  0  0  0  0  0  0  # atno 17342 bound_to 10162
  139.6717  144.7660  151.1770 LP  0  0  0  0  0  0  0  0  0  0  0  0  # atno 17343 bound_to 10162
  157.3104  130.6887  149.6213 LP  0  0  0  0  0  0  0  0  0  0  0  0  # atno 17370 bound_to 10713
  155.9663  130.4365  150.5136 LP  0  0  0  0  0  0  0  0  0  0  0  0  # atno 17371 bound_to 10713
  140.0224  134.6527  155.9221 LP  0  0  0  0  0  0  0  0  0  0  0  0  # atno 17394 bound_to 11000
  141.1797  133.6545  156.4971 LP  0  0  0  0  0  0  0  0  0  0  0  0  # atno 17395 bound_to 11000

$$$$
