AV-unprocessed.smi:3336|AV-procd|sdf|12856|dock7
  -GOLD-   2272019253D 1   1.00000     0.00000
 Structure written by MMmdl.
 42 43  0  0  0  0  0  0  0  0  2 V2000
  145.6714  137.2359  152.6756 C   0  0  0  0  0  0  0  0  0  0  0  0
  145.5958  135.7314  152.3490 C   0  0  1  0  0  0  0  0  0  0  0  0
  145.3261  135.4639  150.8539 C   0  0  0  0  0  0  0  0  0  0  0  0
  145.2160  134.0504  150.5401 N   0  0  0  0  0  0  0  0  0  0  0  0
  144.0970  133.3451  150.1500 C   0  0  0  0  0  0  0  0  0  0  0  0
  144.4782  132.0465  149.9691 C   0  0  0  0  0  0  0  0  0  0  0  0
  145.8667  132.0550  150.2800 C   0  0  0  0  0  0  0  0  0  0  0  0
  146.3050  133.2558  150.6229 N   0  0  0  0  0  0  0  0  0  0  0  0
  146.8479  135.0424  152.7405 N   0  3  0  0  0  0  0  0  0  0  0  0
  147.0189  134.7230  154.1805 C   0  0  1  0  0  0  0  0  0  0  0  0
  145.6654  134.3449  154.8154 C   0  0  0  0  0  0  0  0  0  0  0  0
  148.0283  133.5688  154.3562 C   0  0  0  0  0  0  0  0  0  0  0  0
  147.6973  132.4465  153.9687 O   0  0  0  0  0  0  0  0  0  0  0  0
  149.2376  133.7966  154.9294 N   0  0  0  0  0  0  0  0  0  0  0  0
  150.2357  132.7382  155.1224 C   0  0  0  0  0  0  0  0  0  0  0  0
  150.4724  132.5547  156.6313 C   0  0  0  0  0  0  0  0  0  0  0  0
  150.9138  133.7868  157.1935 O   0  0  0  0  0  0  0  0  0  0  0  0
  149.9810  134.8474  157.0083 C   0  0  0  0  0  0  0  0  0  0  0  0
  149.7188  135.0587  155.5052 C   0  0  0  0  0  0  0  0  0  0  0  0
  144.7381  137.7442  152.4328 H   0  0  0  0  0  0  0  0  0  0  0  0
  146.4683  137.7219  152.1122 H   0  0  0  0  0  0  0  0  0  0  0  0
  145.8574  137.4157  153.7337 H   0  0  0  0  0  0  0  0  0  0  0  0
  144.7669  135.3007  152.9103 H   0  0  0  0  0  0  0  0  0  0  0  0
  144.4115  135.9683  150.5366 H   0  0  0  0  0  0  0  0  0  0  0  0
  146.1327  135.8782  150.2475 H   0  0  0  0  0  0  0  0  0  0  0  0
  143.1337  133.8199  150.0341 H   0  0  0  0  0  0  0  0  0  0  0  0
  143.8594  131.2159  149.6630 H   0  0  0  0  0  0  0  0  0  0  0  0
  146.5641  131.2304  150.2671 H   0  0  0  0  0  0  0  0  0  0  0  0
  146.9082  134.1716  152.2325 H   0  0  0  0  0  0  0  0  0  0  0  0
  147.4241  135.6122  154.6586 H   0  0  0  0  0  0  0  0  0  0  0  0
  145.7734  134.0609  155.8620 H   0  0  0  0  0  0  0  0  0  0  0  0
  145.2054  133.5032  154.2959 H   0  0  0  0  0  0  0  0  0  0  0  0
  144.9591  135.1739  154.7885 H   0  0  0  0  0  0  0  0  0  0  0  0
  149.9438  131.7850  154.6801 H   0  0  0  0  0  0  0  0  0  0  0  0
  151.1658  133.0244  154.6294 H   0  0  0  0  0  0  0  0  0  0  0  0
  149.5622  132.2188  157.1308 H   0  0  0  0  0  0  0  0  0  0  0  0
  151.2332  131.7939  156.8057 H   0  0  0  0  0  0  0  0  0  0  0  0
  149.0541  134.6223  157.5380 H   0  0  0  0  0  0  0  0  0  0  0  0
  150.3891  135.7558  157.4517 H   0  0  0  0  0  0  0  0  0  0  0  0
  150.6424  135.3505  155.0029 H   0  0  0  0  0  0  0  0  0  0  0  0
  149.0365  135.8963  155.3831 H   0  0  0  0  0  0  0  0  0  0  0  0
  147.6211  135.6247  152.4508 H   0  0  0  0  0  0  0  0  0  0  0  0
  1  2  1  0  0  0  0
  1 20  1  0  0  0  0
  1 21  1  0  0  0  0
  1 22  1  0  0  0  0
  2  3  1  0  0  0  0
  2  9  1  0  0  0  0
  2 23  1  0  0  0  0
  3  4  1  0  0  0  0
  3 24  1  0  0  0  0
  3 25  1  0  0  0  0
  4  8  1  0  0  0  0
  4  5  1  0  0  0  0
  5  6  2  0  0  0  0
  5 26  1  0  0  0  0
  6  7  1  0  0  0  0
  6 27  1  0  0  0  0
  7  8  2  0  0  0  0
  7 28  1  0  0  0  0
  9 10  1  0  0  0  0
  9 29  1  0  0  0  0
  9 42  1  0  0  0  0
 10 11  1  0  0  0  0
 10 12  1  0  0  0  0
 10 30  1  0  0  0  0
 11 31  1  0  0  0  0
 11 32  1  0  0  0  0
 11 33  1  0  0  0  0
 12 13  2  0  0  0  0
 12 14  1  0  0  0  0
 14 19  1  0  0  0  0
 14 15  1  0  0  0  0
 15 16  1  0  0  0  0
 15 34  1  0  0  0  0
 15 35  1  0  0  0  0
 16 17  1  0  0  0  0
 16 36  1  0  0  0  0
 16 37  1  0  0  0  0
 17 18  1  0  0  0  0
 18 19  1  0  0  0  0
 18 38  1  0  0  0  0
 18 39  1  0  0  0  0
 19 40  1  0  0  0  0
 19 41  1  0  0  0  0
M  CHG  1   9   1
M  END
> <s_m_source_file>
AV-unprocessed.smi

> <i_m_source_file_index>
3336

> <i_lp_mmshare_version>
43012

> <i_f3d_flags>
0

> <s_epik_input>
bjFbY0hdW2NIXVtjSF1uMVtDSDJdW0NAQEhdKFtDSDNdKVtOSF1bQ0BIXShbQ0gzXSlDKD1PKU4yW0NIMl1bQ0gyXU9bQ0gyXVtDSDJdMg==

> <s_epik_cmdline>
J2VwaWtfcHl0aG9uJywgJy1waCcsICc3LjAnLCAnLXRuJywgJzgnLCAnLW1hJywgJzIwMCcsICctbWV0YWxfYmluZGluZycsICctaW1hZScsICc8aW5maWxlLm1hZT4nLCAnLW9tYWUnLCAnPG91dGZpbGUubWFlPic=

> <r_lp_tautomer_probability>
1

> <r_epik_Ionization_Penalty>
0.200288

> <r_epik_Ionization_Penalty_Charging>
0.200285

> <r_epik_Ionization_Penalty_Neutral>
3.37705e-06

> <r_epik_State_Penalty>
0.190126

> <r_epik_Charging_Adjusted_Penalty>
0.39041

> <i_epik_Tot_Q>
1

> <i_epik_Tot_abs_Q>
1

> <r_epik_Metal_State_Penalty>
0.190133

> <b_epik_Metal_Only>
0

> <s_lp_Force_Field>
OPLS_2005

> <r_lp_Energy>
28.672

> <b_lp_Chiralities_Consistent>
1

> <s_lp_Variant>
AV-unprocessed.smi:3336-4

> <Gold.Version>
5.8.1

> <Gold.Id.Protein>
6NUR|6NUR_protein|mol2

> <Gold.PLP.Fitness>
43.1355

> <Gold.PLP.PLP>
-30.4783

> <Gold.PLP.part.hbond>
-1.9941

> <Gold.PLP.part.metal>
0.0000

> <Gold.PLP.part.buried>
-4.8214

> <Gold.PLP.part.nonpolar>
-25.2338

> <Gold.PLP.part.repulsive>
0.2802

> <Gold.PLP.ligand.clash>
0.0000

> <Gold.PLP.ligand.torsion>
0.6325

> <Gold.PLP.Chemscore.Hbond>
2.6115

> <Gold.PLP.Chemscore.CHOScore>
2.0000

> <Gold.PLP.Chemscore.Metal>
0.0000

> <Gold.Chemscore.Hbonds>
donor molecule, donor type, donor heavy atom, donor atom, acceptor molecule, acceptor atom, score
      L1  H     9    42       P1  7948  2.00
      P1  H  6896  6908       L1    17  0.62
      L1  C     5    26       P1 10186  1.00
      L1  C     7    28       P1 10747  1.00

> <Gold.PLP.Chemscore.Internal.Correction>
0.0876

> <Gold.Rescore>
     Score         DG    S(hbond)    S(metal)    S(lipo)     H(rot)  DE(clash)    DE(int)     intcor
     14.01     -14.54       1.83        0.00      65.67       1.85       0.05       0.48       ----

> <Gold.Chemscore.Fitness>
14.0089

> <Gold.Chemscore.DG>
-14.5381

> <Gold.Chemscore.ZeroCoef>
-5.4800

> <Gold.Chemscore.Hbond>
1.8328

> <Gold.Chemscore.Metal>
0.0000

> <Gold.Chemscore.Lipo>
65.6677

> <Gold.Chemscore.Internal_Hbond>
0.0000

> <Gold.Chemscore.DEClash>
0.0505

> <Gold.Chemscore.DEInternal>
0.4787

> <Gold.Chemscore.Rot>
1.8541

> <Gold.Chemscore.Internal.Correction>
   9.000000E+99

> <Gold.Chemscore.Hbonds>
donor molecule, donor type, donor heavy atom, donor atom, acceptor molecule, acceptor atom, score
      L1  H     9    42       P1  7948  0.96
      P1  H  6896  6908       L1    17  0.19

> <Gold.Chemscore.Hbond.Weighted>
-6.1215

> <Gold.Chemscore.Metal.Weighted>
-0.0000

> <Gold.Chemscore.Lipo.Weighted>
-7.6831

> <Gold.Chemscore.Internal_Hbond.Weighted>
0.0000

> <Gold.Chemscore.DEClash.Weighted>
0.0505

> <Gold.Chemscore.DEInternal.Weighted>
0.4787

> <Gold.Chemscore.Rot.Weighted>
4.7465

> <Gold.Chemscore.Internal.Correction.Weighted>
   9.000000E+99

> <Gold.Protein.RotatedTorsions>
[ 6907 6896 6895 6894 ] final   98.48 input  -60.11 | X-H torsion
[ 7974 7965 7964 7962 ] final  122.30 input  175.53 | X-H torsion
[ 8008 7997 7996 7995 ] final  -44.00 input   59.86 | X-H torsion
[ 10167 10162 10161 10158 ] final -108.99 input  -65.29 | X-H torsion
[ 10718 10713 10712 10709 ] final  169.85 input   66.30 | X-H torsion
[ 10763 10752 10751 10750 ] final -113.60 input  -60.55 | X-H torsion
[ 11005 11000 10999 10996 ] final  115.40 input  -57.11 | X-H torsion

> <Gold.Protein.ActiveResidues>
 VAL166  LYS551  ARG553  GLY616  TRP617  ASP618  TYR619  PRO620  LYS621  CYS622 
 ASP623  PHE694  ASN695  SER759  ASP760  ASP761  ALA762  ILE779  LEU786  VAL792 
 PHE793  MET794  SER795  GLU796  ALA797  LYS798  CYS799  TRP800  GLU811  SER814 

> <Gold.Protein.RotatedAtoms>
  152.5408  134.0575  159.8136 H   0  0  0  0  0  0  0  0  0  0  0  0  # atno 6907 bound_to 6896
  151.0707  133.5461  159.2634 H   0  0  0  0  0  0  0  0  0  0  0  0  # atno 6908 bound_to 6896
  151.2325  135.0568  159.9047 H   0  0  0  0  0  0  0  0  0  0  0  0  # atno 6909 bound_to 6896
  145.1092  139.3465  143.4772 H   0  0  0  0  0  0  0  0  0  0  0  0  # atno 7974 bound_to 7965
  154.3997  140.1433  156.3612 H   0  0  0  0  0  0  0  0  0  0  0  0  # atno 8008 bound_to 7997
  155.8179  140.3470  155.5476 H   0  0  0  0  0  0  0  0  0  0  0  0  # atno 8009 bound_to 7997
  155.8318  140.0913  157.1778 H   0  0  0  0  0  0  0  0  0  0  0  0  # atno 8010 bound_to 7997
  140.1602  143.4126  152.1431 H   0  0  0  0  0  0  0  0  0  0  0  0  # atno 10167 bound_to 10162
  157.0166  131.0220  151.2787 H   0  0  0  0  0  0  0  0  0  0  0  0  # atno 10718 bound_to 10713
  154.8403  135.4448  154.1375 H   0  0  0  0  0  0  0  0  0  0  0  0  # atno 10763 bound_to 10752
  153.2569  135.6932  153.7626 H   0  0  0  0  0  0  0  0  0  0  0  0  # atno 10764 bound_to 10752
  153.6917  135.3386  155.3179 H   0  0  0  0  0  0  0  0  0  0  0  0  # atno 10765 bound_to 10752
  139.9009  134.9583  156.7039 H   0  0  0  0  0  0  0  0  0  0  0  0  # atno 11005 bound_to 11000
  146.3527  140.1003  142.8608 LP  0  0  0  0  0  0  0  0  0  0  0  0  # atno 17320 bound_to 7965
  145.0867  140.9257  143.4793 LP  0  0  0  0  0  0  0  0  0  0  0  0  # atno 17321 bound_to 7965
  139.5385  144.7233  151.4813 LP  0  0  0  0  0  0  0  0  0  0  0  0  # atno 17342 bound_to 10162
  140.6648  143.8422  150.6929 LP  0  0  0  0  0  0  0  0  0  0  0  0  # atno 17343 bound_to 10162
  157.5281  130.8040  149.7885 LP  0  0  0  0  0  0  0  0  0  0  0  0  # atno 17370 bound_to 10713
  156.0117  130.3830  150.2243 LP  0  0  0  0  0  0  0  0  0  0  0  0  # atno 17371 bound_to 10713
  140.7129  133.9208  155.8096 LP  0  0  0  0  0  0  0  0  0  0  0  0  # atno 17394 bound_to 11000
  141.0287  134.0787  157.4039 LP  0  0  0  0  0  0  0  0  0  0  0  0  # atno 17395 bound_to 11000

$$$$
