AV-unprocessed.smi:1492|AV-procd|sdf|6043|dock1
  -GOLD-   22720 6153D 1   1.00000     0.00000
 Structure written by MMmdl.
 53 54  0  0  0  0  0  0  0  0  2 V2000
  144.3189  136.4083  150.5552 C   0  0  0  0  0  0  0  0  0  0  0  0
  145.6797  135.9976  151.1429 C   0  0  0  0  0  0  0  0  0  0  0  0
  145.7167  135.8284  152.6960 C   0  0  2  0  0  0  0  0  0  0  0  0
  144.3724  135.1895  153.1295 C   0  0  0  0  0  0  0  0  0  0  0  0
  145.8336  137.2313  153.3748 C   0  0  0  0  0  0  0  0  0  0  0  0
  147.1477  137.8405  153.1947 N   0  0  0  0  0  0  0  0  0  0  0  0
  147.7193  138.7282  154.0213 C   0  0  0  0  0  0  0  0  0  0  0  0
  147.1314  139.2725  154.9549 O   0  0  0  0  0  0  0  0  0  0  0  0
  149.2033  139.0005  153.7812 C   0  0  0  0  0  0  0  0  0  0  0  0
  149.8121  140.0351  154.7273 C   0  0  0  0  0  0  0  0  0  0  0  0
  149.4315  141.3381  154.7347 C   0  0  0  0  0  0  0  0  0  0  0  0
  148.3805  141.9292  153.8113 C   0  0  0  0  0  0  0  0  0  0  0  0
  149.9863  142.2410  155.6240 N   0  0  0  0  0  0  0  0  0  0  0  0
  150.9380  141.7730  156.5144 C   0  0  0  0  0  0  0  0  0  0  0  0
  151.4739  142.8383  157.4456 C   0  0  0  0  0  0  0  0  0  0  0  0
  151.3626  140.5483  156.5889 N   0  0  0  0  0  0  0  0  0  0  0  0
  150.8332  139.5929  155.7068 C   0  0  0  0  0  0  0  0  0  0  0  0
  151.2027  138.4208  155.7661 O   0  0  0  0  0  0  0  0  0  0  0  0
  146.8811  134.9539  153.1008 N   0  3  0  0  0  0  0  0  0  0  0  0
  147.1938  134.9089  154.5587 C   0  0  0  0  0  0  0  0  0  0  0  0
  148.4946  134.1290  154.8166 C   0  0  0  0  0  0  0  0  0  0  0  0
  148.3894  132.8191  154.2794 O   0  0  0  0  0  0  0  0  0  0  0  0
  148.1952  132.8478  152.8736 C   0  0  0  0  0  0  0  0  0  0  0  0
  146.8751  133.5661  152.5529 C   0  0  0  0  0  0  0  0  0  0  0  0
  149.6762  143.2018  155.5936 H   0  0  0  0  0  0  0  0  0  0  0  0
  144.3853  136.4982  149.4709 H   0  0  0  0  0  0  0  0  0  0  0  0
  143.9854  137.3712  150.9421 H   0  0  0  0  0  0  0  0  0  0  0  0
  143.5450  135.6721  150.7697 H   0  0  0  0  0  0  0  0  0  0  0  0
  145.9906  135.0728  150.6572 H   0  0  0  0  0  0  0  0  0  0  0  0
  146.4338  136.7112  150.8142 H   0  0  0  0  0  0  0  0  0  0  0  0
  143.5245  135.8098  152.8370 H   0  0  0  0  0  0  0  0  0  0  0  0
  144.3102  135.0592  154.2096 H   0  0  0  0  0  0  0  0  0  0  0  0
  144.2084  134.2165  152.6680 H   0  0  0  0  0  0  0  0  0  0  0  0
  145.1325  137.9375  152.9312 H   0  0  0  0  0  0  0  0  0  0  0  0
  145.5701  137.1627  154.4314 H   0  0  0  0  0  0  0  0  0  0  0  0
  147.7150  137.4730  152.4443 H   0  0  0  0  0  0  0  0  0  0  0  0
  149.7485  138.0572  153.8301 H   0  0  0  0  0  0  0  0  0  0  0  0
  149.3323  139.3424  152.7541 H   0  0  0  0  0  0  0  0  0  0  0  0
  148.6740  141.8075  152.7685 H   0  0  0  0  0  0  0  0  0  0  0  0
  148.2370  142.9947  153.9956 H   0  0  0  0  0  0  0  0  0  0  0  0
  147.4207  141.4346  153.9613 H   0  0  0  0  0  0  0  0  0  0  0  0
  152.3031  142.4549  158.0416 H   0  0  0  0  0  0  0  0  0  0  0  0
  150.6911  143.1747  158.1261 H   0  0  0  0  0  0  0  0  0  0  0  0
  151.8329  143.6973  156.8776 H   0  0  0  0  0  0  0  0  0  0  0  0
  147.3367  135.9046  154.9727 H   0  0  0  0  0  0  0  0  0  0  0  0
  146.3732  134.4438  155.1056 H   0  0  0  0  0  0  0  0  0  0  0  0
  149.3511  134.6467  154.3817 H   0  0  0  0  0  0  0  0  0  0  0  0
  148.6805  134.0551  155.8882 H   0  0  0  0  0  0  0  0  0  0  0  0
  149.0371  133.3389  152.3826 H   0  0  0  0  0  0  0  0  0  0  0  0
  148.1640  131.8233  152.5018 H   0  0  0  0  0  0  0  0  0  0  0  0
  146.0477  132.9952  152.9747 H   0  0  0  0  0  0  0  0  0  0  0  0
  146.7548  133.5575  151.4720 H   0  0  0  0  0  0  0  0  0  0  0  0
  147.6839  135.3982  152.6784 H   0  0  0  0  0  0  0  0  0  0  0  0
  1  2  1  0  0  0  0
  1 26  1  0  0  0  0
  1 27  1  0  0  0  0
  1 28  1  0  0  0  0
  2  3  1  0  0  0  0
  2 29  1  0  0  0  0
  2 30  1  0  0  0  0
  3  4  1  0  0  0  0
  3  5  1  0  0  0  0
  3 19  1  0  0  0  0
  4 31  1  0  0  0  0
  4 32  1  0  0  0  0
  4 33  1  0  0  0  0
  5  6  1  0  0  0  0
  5 34  1  0  0  0  0
  5 35  1  0  0  0  0
  6  7  1  0  0  0  0
  6 36  1  0  0  0  0
  7  8  2  0  0  0  0
  7  9  1  0  0  0  0
  9 37  1  0  0  0  0
  9 38  1  0  0  0  0
  9 10  1  0  0  0  0
 10 17  1  0  0  0  0
 10 11  2  0  0  0  0
 11 12  1  0  0  0  0
 11 13  1  0  0  0  0
 12 39  1  0  0  0  0
 12 40  1  0  0  0  0
 12 41  1  0  0  0  0
 13 25  1  0  0  0  0
 13 14  1  0  0  0  0
 14 15  1  0  0  0  0
 14 16  2  0  0  0  0
 15 42  1  0  0  0  0
 15 43  1  0  0  0  0
 15 44  1  0  0  0  0
 16 17  1  0  0  0  0
 17 18  2  0  0  0  0
 19 24  1  0  0  0  0
 19 20  1  0  0  0  0
 19 53  1  0  0  0  0
 20 21  1  0  0  0  0
 20 45  1  0  0  0  0
 20 46  1  0  0  0  0
 21 22  1  0  0  0  0
 21 47  1  0  0  0  0
 21 48  1  0  0  0  0
 22 23  1  0  0  0  0
 23 24  1  0  0  0  0
 23 49  1  0  0  0  0
 23 50  1  0  0  0  0
 24 51  1  0  0  0  0
 24 52  1  0  0  0  0
M  CHG  1  19   1
M  END
> <s_m_source_file>
AV-unprocessed.smi

> <i_m_source_file_index>
1492

> <i_lp_mmshare_version>
43012

> <i_f3d_flags>
0

> <s_epik_input>
W0NIMl0xW0NIMl1PW0NIMl1bQ0gyXU4xW0NAQF0oW0NIM10pKFtDSDJdW0NIM10pW0NIMl1bTkhdQyg9TylbQ0gyXWMyYyhbQ0gzXSluYyhbQ0gzXSlbbkhdYzI9Tw==

> <s_epik_cmdline>
J2VwaWtfcHl0aG9uJywgJy1waCcsICc3LjAnLCAnLXRuJywgJzgnLCAnLW1hJywgJzIwMCcsICctbWV0YWxfYmluZGluZycsICctaW1hZScsICc8aW5maWxlLm1hZT4nLCAnLW9tYWUnLCAnPG91dGZpbGUubWFlPic=

> <r_lp_tautomer_probability>
0.156392

> <r_epik_Ionization_Penalty>
0.523233

> <r_epik_Ionization_Penalty_Charging>
0.523147

> <r_epik_Ionization_Penalty_Neutral>
8.52784e-05

> <r_epik_State_Penalty>
1.66677

> <r_epik_Charging_Adjusted_Penalty>
2.18991

> <i_epik_Tot_Q>
1

> <i_epik_Tot_abs_Q>
1

> <r_epik_Metal_State_Penalty>
1.84524

> <b_epik_Metal_Only>
0

> <s_lp_Force_Field>
OPLS_2005

> <r_lp_Energy>
32.5308

> <b_lp_Chiralities_Consistent>
1

> <s_lp_Variant>
AV-unprocessed.smi:1492-8

> <Gold.Version>
5.8.1

> <Gold.Id.Protein>
6NUR|6NUR_protein|mol2

> <Gold.PLP.Fitness>
48.2164

> <Gold.PLP.PLP>
-37.0298

> <Gold.PLP.part.hbond>
-2.9671

> <Gold.PLP.part.metal>
0.0000

> <Gold.PLP.part.buried>
-4.3487

> <Gold.PLP.part.nonpolar>
-30.7441

> <Gold.PLP.part.repulsive>
0.3108

> <Gold.PLP.ligand.clash>
0.0000

> <Gold.PLP.ligand.torsion>
0.7117

> <Gold.PLP.Chemscore.Hbond>
4.0000

> <Gold.PLP.Chemscore.CHOScore>
0.0000

> <Gold.PLP.Chemscore.Metal>
0.0000

> <Gold.Chemscore.Hbonds>
donor molecule, donor type, donor heavy atom, donor atom, acceptor molecule, acceptor atom, score
      L1  H     6    36       P1  7948  1.00
      L1  H    13    25       P1  8028  1.00
      L1  H    19    53       P1  7948  2.00

> <Gold.PLP.Chemscore.Internal.Correction>
0.6100

> <Gold.Rescore>
     Score         DG    S(hbond)    S(metal)    S(lipo)     H(rot)  DE(clash)    DE(int)     intcor
     17.39     -18.27       2.97        0.00      72.64       2.19       0.01       0.88       ----

> <Gold.Chemscore.Fitness>
17.3868

> <Gold.Chemscore.DG>
-18.2729

> <Gold.Chemscore.ZeroCoef>
-5.4800

> <Gold.Chemscore.Hbond>
2.9663

> <Gold.Chemscore.Metal>
0.0000

> <Gold.Chemscore.Lipo>
72.6350

> <Gold.Chemscore.Internal_Hbond>
0.0000

> <Gold.Chemscore.DEClash>
0.0089

> <Gold.Chemscore.DEInternal>
0.8772

> <Gold.Chemscore.Rot>
2.1926

> <Gold.Chemscore.Internal.Correction>
   9.000000E+99

> <Gold.Chemscore.Hbonds>
donor molecule, donor type, donor heavy atom, donor atom, acceptor molecule, acceptor atom, score
      L1  H     6    36       P1  7948  0.94
      L1  H    13    25       P1  8028  1.00
      L1  H    19    53       P1  7948  1.00

> <Gold.Chemscore.Hbond.Weighted>
-9.9075

> <Gold.Chemscore.Metal.Weighted>
-0.0000

> <Gold.Chemscore.Lipo.Weighted>
-8.4983

> <Gold.Chemscore.Internal_Hbond.Weighted>
0.0000

> <Gold.Chemscore.DEClash.Weighted>
0.0089

> <Gold.Chemscore.DEInternal.Weighted>
0.8772

> <Gold.Chemscore.Rot.Weighted>
5.6129

> <Gold.Chemscore.Internal.Correction.Weighted>
   9.000000E+99

> <Gold.Protein.RotatedTorsions>
[ 6907 6896 6895 6894 ] final -117.85 input  -60.11 | X-H torsion
[ 7974 7965 7964 7962 ] final  132.52 input  175.53 | X-H torsion
[ 8008 7997 7996 7995 ] final  -86.43 input   59.86 | X-H torsion
[ 10167 10162 10161 10158 ] final -115.94 input  -65.29 | X-H torsion
[ 10718 10713 10712 10709 ] final  -57.98 input   66.30 | X-H torsion
[ 10763 10752 10751 10750 ] final  132.42 input  -60.55 | X-H torsion
[ 11005 11000 10999 10996 ] final  -42.18 input  -57.11 | X-H torsion

> <Gold.Protein.ActiveResidues>
 VAL166  LYS551  ARG553  GLY616  TRP617  ASP618  TYR619  PRO620  LYS621  CYS622 
 ASP623  PHE694  ASN695  SER759  ASP760  ASP761  ALA762  ILE779  LEU786  VAL792 
 PHE793  MET794  SER795  GLU796  ALA797  LYS798  CYS799  TRP800  GLU811  SER814 

> <Gold.Protein.RotatedAtoms>
  150.8170  133.8319  159.3155 H   0  0  0  0  0  0  0  0  0  0  0  0  # atno 6907 bound_to 6896
  151.6088  135.1040  160.0086 H   0  0  0  0  0  0  0  0  0  0  0  0  # atno 6908 bound_to 6896
  152.4261  133.7157  159.6561 H   0  0  0  0  0  0  0  0  0  0  0  0  # atno 6909 bound_to 6896
  144.9960  139.4359  143.5315 H   0  0  0  0  0  0  0  0  0  0  0  0  # atno 7974 bound_to 7965
  154.6519  140.0578  156.9965 H   0  0  0  0  0  0  0  0  0  0  0  0  # atno 8008 bound_to 7997
  155.1359  140.3261  155.4445 H   0  0  0  0  0  0  0  0  0  0  0  0  # atno 8009 bound_to 7997
  156.2579  140.1972  156.6476 H   0  0  0  0  0  0  0  0  0  0  0  0  # atno 8010 bound_to 7997
  140.0846  143.4756  152.1906 H   0  0  0  0  0  0  0  0  0  0  0  0  # atno 10167 bound_to 10162
  156.1170  130.4169  150.0514 H   0  0  0  0  0  0  0  0  0  0  0  0  # atno 10718 bound_to 10713
  153.7904  135.3156  155.3377 H   0  0  0  0  0  0  0  0  0  0  0  0  # atno 10763 bound_to 10752
  154.8128  135.4656  154.0565 H   0  0  0  0  0  0  0  0  0  0  0  0  # atno 10764 bound_to 10752
  153.1881  135.6904  153.8475 H   0  0  0  0  0  0  0  0  0  0  0  0  # atno 10765 bound_to 10752
  141.0298  133.6825  156.2559 H   0  0  0  0  0  0  0  0  0  0  0  0  # atno 11005 bound_to 11000
  146.3442  139.9321  142.8752 LP  0  0  0  0  0  0  0  0  0  0  0  0  # atno 17320 bound_to 7965
  145.2219  140.9938  143.4041 LP  0  0  0  0  0  0  0  0  0  0  0  0  # atno 17321 bound_to 7965
  139.5760  144.7487  151.3765 LP  0  0  0  0  0  0  0  0  0  0  0  0  # atno 17342 bound_to 10162
  140.7060  143.7512  150.7483 LP  0  0  0  0  0  0  0  0  0  0  0  0  # atno 17343 bound_to 10162
  156.8463  130.9443  151.3628 LP  0  0  0  0  0  0  0  0  0  0  0  0  # atno 17370 bound_to 10713
  157.6353  130.8762  149.9347 LP  0  0  0  0  0  0  0  0  0  0  0  0  # atno 17371 bound_to 10713
  140.6428  134.5148  157.5571 LP  0  0  0  0  0  0  0  0  0  0  0  0  # atno 17394 bound_to 11000
  139.9200  134.8168  156.1242 LP  0  0  0  0  0  0  0  0  0  0  0  0  # atno 17395 bound_to 11000

$$$$
