AV-unprocessed.smi:18|AV-procd|sdf|107|dock6
  -GOLD-   2262015263D 1   1.00000     0.00000
 Structure written by MMmdl.
 47 50  0  0  0  0  0  0  0  0  1 V2000
  150.5076  132.7224  156.5703 O   0  0  0  0  0  0  0  0  0  0  0  0
  149.4264  133.6307  156.5119 C   0  0  0  0  0  0  0  0  0  0  0  0
  149.1932  134.1378  155.0778 C   0  0  0  0  0  0  0  0  0  0  0  0
  150.3219  135.0960  154.6429 C   0  0  0  0  0  0  0  0  0  0  0  0
  150.3199  136.3724  155.3413 N   0  0  0  0  0  0  0  0  0  0  0  0
  149.3907  136.8045  156.2623 C   0  0  0  0  0  0  0  0  0  0  0  0
  149.6081  137.9911  156.7605 N   0  0  0  0  0  0  0  0  0  0  0  0
  150.7661  138.4152  156.1223 C   0  0  0  0  0  0  0  0  0  0  0  0
  151.5535  139.5949  156.1918 C   0  0  0  0  0  0  0  0  0  0  0  0
  151.2241  140.6265  157.0057 N   0  0  0  0  0  0  0  0  0  0  0  0
  150.7665  141.7598  156.2081 C   0  0  0  0  0  0  0  0  0  0  0  0
  150.2236  142.8714  157.1145 C   0  0  0  0  0  0  0  0  0  0  0  0
  151.2372  143.2455  158.0364 O   0  0  0  0  0  0  0  0  0  0  0  0
  151.6011  142.1657  158.8878 C   0  0  0  0  0  0  0  0  0  0  0  0
  152.1760  140.9865  158.0676 C   0  0  1  0  0  0  0  0  0  0  0  0
  152.5015  139.7846  158.9928 C   0  0  0  0  0  0  0  0  0  0  0  0
  153.7752  139.9601  159.8340 C   0  0  0  0  0  0  0  0  0  0  0  0
  153.5731  140.8908  160.7661 F   0  0  0  0  0  0  0  0  0  0  0  0
  154.1059  138.8148  160.4297 F   0  0  0  0  0  0  0  0  0  0  0  0
  152.6447  139.6771  155.3844 N   0  0  0  0  0  0  0  0  0  0  0  0
  152.9552  138.6602  154.5748 C   0  0  0  0  0  0  0  0  0  0  0  0
  152.3218  137.4960  154.4164 N   0  0  0  0  0  0  0  0  0  0  0  0
  151.2221  137.4149  155.2190 C   0  0  0  0  0  0  0  0  0  0  0  0
  148.8195  133.0374  154.0740 C   0  0  0  0  0  0  0  0  0  0  0  0
  147.4170  133.3686  154.1506 O   0  0  0  0  0  0  0  0  0  0  0  0
  147.7633  134.6153  154.7897 C   0  0  0  0  0  0  0  0  0  0  0  0
  151.1915  133.1031  157.0998 H   0  0  0  0  0  0  0  0  0  0  0  0
  148.5354  133.1558  156.9226 H   0  0  0  0  0  0  0  0  0  0  0  0
  149.6559  134.4627  157.1786 H   0  0  0  0  0  0  0  0  0  0  0  0
  151.2970  134.6327  154.7988 H   0  0  0  0  0  0  0  0  0  0  0  0
  150.2641  135.2940  153.5720 H   0  0  0  0  0  0  0  0  0  0  0  0
  148.5457  136.2021  156.5631 H   0  0  0  0  0  0  0  0  0  0  0  0
  151.5953  142.1419  155.6100 H   0  0  0  0  0  0  0  0  0  0  0  0
  149.9874  141.4439  155.5127 H   0  0  0  0  0  0  0  0  0  0  0  0
  149.9450  143.7407  156.5187 H   0  0  0  0  0  0  0  0  0  0  0  0
  149.3274  142.5446  157.6446 H   0  0  0  0  0  0  0  0  0  0  0  0
  152.3412  142.5408  159.5932 H   0  0  0  0  0  0  0  0  0  0  0  0
  150.7358  141.8504  159.4733 H   0  0  0  0  0  0  0  0  0  0  0  0
  153.0974  141.3250  157.5914 H   0  0  0  0  0  0  0  0  0  0  0  0
  151.6549  139.5994  159.6553 H   0  0  0  0  0  0  0  0  0  0  0  0
  152.6244  138.8727  158.4092 H   0  0  0  0  0  0  0  0  0  0  0  0
  154.6291  140.2895  159.2432 H   0  0  0  0  0  0  0  0  0  0  0  0
  153.8374  138.7991  153.9674 H   0  0  0  0  0  0  0  0  0  0  0  0
  149.2098  133.1959  153.0680 H   0  0  0  0  0  0  0  0  0  0  0  0
  149.0345  132.0259  154.4202 H   0  0  0  0  0  0  0  0  0  0  0  0
  147.1682  134.8095  155.6828 H   0  0  0  0  0  0  0  0  0  0  0  0
  147.7081  135.4549  154.0950 H   0  0  0  0  0  0  0  0  0  0  0  0
  1  2  1  0  0  0  0
  1 27  1  0  0  0  0
  2  3  1  0  0  0  0
  2 28  1  0  0  0  0
  2 29  1  0  0  0  0
  3 26  1  0  0  0  0
  3  4  1  0  0  0  0
  3 24  1  0  0  0  0
  4  5  1  0  0  0  0
  4 30  1  0  0  0  0
  4 31  1  0  0  0  0
  5 23  1  0  0  0  0
  5  6  1  0  0  0  0
  6  7  2  0  0  0  0
  6 32  1  0  0  0  0
  7  8  1  0  0  0  0
  8 23  2  0  0  0  0
  8  9  1  0  0  0  0
  9 10  1  0  0  0  0
  9 20  2  0  0  0  0
 10 15  1  0  0  0  0
 10 11  1  0  0  0  0
 11 12  1  0  0  0  0
 11 33  1  0  0  0  0
 11 34  1  0  0  0  0
 12 13  1  0  0  0  0
 12 35  1  0  0  0  0
 12 36  1  0  0  0  0
 13 14  1  0  0  0  0
 14 15  1  0  0  0  0
 14 37  1  0  0  0  0
 14 38  1  0  0  0  0
 15 16  1  0  0  0  0
 15 39  1  0  0  0  0
 16 17  1  0  0  0  0
 16 40  1  0  0  0  0
 16 41  1  0  0  0  0
 17 18  1  0  0  0  0
 17 19  1  0  0  0  0
 17 42  1  0  0  0  0
 20 21  1  0  0  0  0
 21 22  2  0  0  0  0
 21 43  1  0  0  0  0
 22 23  1  0  0  0  0
 24 25  1  0  0  0  0
 24 44  1  0  0  0  0
 24 45  1  0  0  0  0
 25 26  1  0  0  0  0
 26 46  1  0  0  0  0
 26 47  1  0  0  0  0
M  END
> <s_m_source_file>
AV-unprocessed.smi

> <i_m_source_file_index>
18

> <i_lp_mmshare_version>
43012

> <i_f3d_flags>
0

> <s_epik_input>
W0NIMl0xT1tDSDJdQzEoW0NIMl1bT0hdKVtDSDJdbihbY0hdbjIpYyhjMjMpbltjSF1uYzNONFtDSDJdW0NIMl1PW0NIMl1bQ0BIXTRbQ0gyXVtDSF0oRilG

> <s_epik_cmdline>
J2VwaWtfcHl0aG9uJywgJy1waCcsICc3LjAnLCAnLXRuJywgJzgnLCAnLW1hJywgJzIwMCcsICctbWV0YWxfYmluZGluZycsICctaW1hZScsICc8aW5maWxlLm1hZT4nLCAnLW9tYWUnLCAnPG91dGZpbGUubWFlPic=

> <r_lp_tautomer_probability>
1

> <r_epik_Ionization_Penalty>
6.63711e-05

> <r_epik_Ionization_Penalty_Charging>
0

> <r_epik_Ionization_Penalty_Neutral>
6.63711e-05

> <r_epik_State_Penalty>
-0

> <r_epik_Charging_Adjusted_Penalty>
0

> <i_epik_Tot_Q>
0

> <i_epik_Tot_abs_Q>
0

> <r_epik_Metal_State_Penalty>
-0

> <b_epik_Metal_Only>
0

> <s_lp_Force_Field>
OPLS_2005

> <r_lp_Energy>
38.6486

> <b_lp_Chiralities_Consistent>
1

> <s_lp_Variant>
AV-unprocessed.smi:18-1

> <Gold.Version>
5.8.1

> <Gold.Id.Protein>
6NUR|6NUR_protein|mol2

> <Gold.PLP.Fitness>
39.6224

> <Gold.PLP.PLP>
-35.6513

> <Gold.PLP.part.hbond>
-2.6883

> <Gold.PLP.part.metal>
0.0000

> <Gold.PLP.part.buried>
-4.1251

> <Gold.PLP.part.nonpolar>
-29.9768

> <Gold.PLP.part.repulsive>
0.2751

> <Gold.PLP.ligand.clash>
0.0000

> <Gold.PLP.ligand.torsion>
0.5927

> <Gold.PLP.Chemscore.Hbond>
1.5361

> <Gold.PLP.Chemscore.CHOScore>
0.0000

> <Gold.PLP.Chemscore.Metal>
0.0000

> <Gold.Chemscore.Hbonds>
donor molecule, donor type, donor heavy atom, donor atom, acceptor molecule, acceptor atom, score
      P1  H  7989  7998       L1    20  0.01
      P1  H  7997  8010       L1    20  1.00
      P1  H 10752 10763       L1    22  0.46

> <Gold.PLP.Chemscore.Internal.Correction>
0.5480

> <Gold.Rescore>
     Score         DG    S(hbond)    S(metal)    S(lipo)     H(rot)  DE(clash)    DE(int)     intcor
      9.75     -10.65       1.35        0.00      70.37       2.96       0.04       0.86       ----

> <Gold.Chemscore.Fitness>
9.7520

> <Gold.Chemscore.DG>
-10.6486

> <Gold.Chemscore.ZeroCoef>
-5.4800

> <Gold.Chemscore.Hbond>
1.3545

> <Gold.Chemscore.Metal>
0.0000

> <Gold.Chemscore.Lipo>
70.3674

> <Gold.Chemscore.Internal_Hbond>
0.0000

> <Gold.Chemscore.DEClash>
0.0377

> <Gold.Chemscore.DEInternal>
0.8588

> <Gold.Chemscore.Rot>
2.9643

> <Gold.Chemscore.Internal.Correction>
   9.000000E+99

> <Gold.Chemscore.Hbonds>
donor molecule, donor type, donor heavy atom, donor atom, acceptor molecule, acceptor atom, score
      P1  H  7997  8010       L1    20  0.34
      P1  H 10752 10763       L1    22  0.42

> <Gold.Chemscore.Hbond.Weighted>
-4.5242

> <Gold.Chemscore.Metal.Weighted>
-0.0000

> <Gold.Chemscore.Lipo.Weighted>
-8.2330

> <Gold.Chemscore.Internal_Hbond.Weighted>
0.0000

> <Gold.Chemscore.DEClash.Weighted>
0.0377

> <Gold.Chemscore.DEInternal.Weighted>
0.8588

> <Gold.Chemscore.Rot.Weighted>
7.5886

> <Gold.Chemscore.Internal.Correction.Weighted>
   9.000000E+99

> <Gold.Protein.RotatedTorsions>
[ 6907 6896 6895 6894 ] final   12.13 input  -60.11 | X-H torsion
[ 7974 7965 7964 7962 ] final  -84.72 input  175.53 | X-H torsion
[ 8008 7997 7996 7995 ] final   90.37 input   59.86 | X-H torsion
[ 10167 10162 10161 10158 ] final -100.90 input  -65.29 | X-H torsion
[ 10718 10713 10712 10709 ] final   -0.77 input   66.30 | X-H torsion
[ 10763 10752 10751 10750 ] final    7.94 input  -60.55 | X-H torsion
[ 11005 11000 10999 10996 ] final   95.22 input  -57.11 | X-H torsion

> <Gold.Protein.ActiveResidues>
 VAL166  LYS551  ARG553  GLY616  TRP617  ASP618  TYR619  PRO620  LYS621  CYS622 
 ASP623  PHE694  ASN695  SER759  ASP760  ASP761  ALA762  ILE779  LEU786  VAL792 
 PHE793  MET794  SER795  GLU796  ALA797  LYS798  CYS799  TRP800  GLU811  SER814 

> <Gold.Protein.RotatedAtoms>
  151.7654  135.0800  160.0351 H   0  0  0  0  0  0  0  0  0  0  0  0  # atno 6907 bound_to 6896
  152.3325  133.5970  159.5828 H   0  0  0  0  0  0  0  0  0  0  0  0  # atno 6908 bound_to 6896
  150.7431  133.9762  159.3603 H   0  0  0  0  0  0  0  0  0  0  0  0  # atno 6909 bound_to 6896
  145.5028  140.9546  143.1750 H   0  0  0  0  0  0  0  0  0  0  0  0  # atno 7974 bound_to 7965
  156.0112  140.3350  155.6943 H   0  0  0  0  0  0  0  0  0  0  0  0  # atno 8008 bound_to 7997
  155.6155  140.0669  157.2711 H   0  0  0  0  0  0  0  0  0  0  0  0  # atno 8009 bound_to 7997
  154.4282  140.1786  156.1304 H   0  0  0  0  0  0  0  0  0  0  0  0  # atno 8010 bound_to 7997
  140.2470  143.3499  152.0750 H   0  0  0  0  0  0  0  0  0  0  0  0  # atno 10167 bound_to 10162
  156.8155  130.5439  149.5703 H   0  0  0  0  0  0  0  0  0  0  0  0  # atno 10718 bound_to 10713
  153.2307  135.6892  153.7894 H   0  0  0  0  0  0  0  0  0  0  0  0  # atno 10763 bound_to 10752
  153.7059  135.3290  155.3236 H   0  0  0  0  0  0  0  0  0  0  0  0  # atno 10764 bound_to 10752
  154.8312  135.4579  154.1191 H   0  0  0  0  0  0  0  0  0  0  0  0  # atno 10765 bound_to 10752
  139.8791  134.8887  156.3979 H   0  0  0  0  0  0  0  0  0  0  0  0  # atno 11005 bound_to 11000
  144.7770  139.6608  143.7170 LP  0  0  0  0  0  0  0  0  0  0  0  0  # atno 17320 bound_to 7965
  146.2215  139.5645  142.9615 LP  0  0  0  0  0  0  0  0  0  0  0  0  # atno 17321 bound_to 7965
  139.5058  144.6802  151.6027 LP  0  0  0  0  0  0  0  0  0  0  0  0  # atno 17342 bound_to 10162
  140.6070  143.9506  150.6425 LP  0  0  0  0  0  0  0  0  0  0  0  0  # atno 17343 bound_to 10162
  156.1019  130.5975  150.9908 LP  0  0  0  0  0  0  0  0  0  0  0  0  # atno 17370 bound_to 10713
  157.6484  131.0900  150.8104 LP  0  0  0  0  0  0  0  0  0  0  0  0  # atno 17371 bound_to 10713
  140.9287  133.7594  155.9998 LP  0  0  0  0  0  0  0  0  0  0  0  0  # atno 17394 bound_to 11000
  140.8355  134.3128  157.5333 LP  0  0  0  0  0  0  0  0  0  0  0  0  # atno 17395 bound_to 11000

$$$$
