AV-unprocessed.smi:290|AV-procd|sdf|2243|dock9
  -GOLD-   2262022123D 1   1.00000     0.00000
 Structure written by MMmdl.
 59 62  0  0  0  0  0  0  0  0  2 V2000
  157.3407  136.9321  154.4276 C   0  0  0  0  0  0  0  0  0  0  0  0
  156.9933  137.1698  152.9496 C   0  0  2  0  0  0  0  0  0  0  0  0
  155.7817  136.4732  152.6707 O   0  0  0  0  0  0  0  0  0  0  0  0
  155.7804  136.0902  151.3072 C   0  0  0  0  0  0  0  0  0  0  0  0
  157.2179  135.6413  151.0958 C   0  0  0  0  0  0  0  0  0  0  0  0
  158.0202  136.6648  151.8960 C   0  0  1  0  0  0  0  0  0  0  0  0
  158.3192  137.7474  151.0302 O   0  0  0  0  0  0  0  0  0  0  0  0
  159.3571  136.1053  152.4501 C   0  0  0  0  0  0  0  0  0  0  0  0
  159.2698  134.7164  152.8743 N   0  0  0  0  0  0  0  0  0  0  0  0
  158.6169  134.2311  153.9845 C   0  0  0  0  0  0  0  0  0  0  0  0
  158.6786  132.9376  154.1447 N   0  0  0  0  0  0  0  0  0  0  0  0
  159.4341  132.4950  153.0644 C   0  0  0  0  0  0  0  0  0  0  0  0
  159.8787  131.2155  152.6212 C   0  0  0  0  0  0  0  0  0  0  0  0
  159.5675  130.0612  153.2705 N   0  0  0  0  0  0  0  0  0  0  0  0
  160.1487  129.8720  154.5992 C   0  0  0  0  0  0  0  0  0  0  0  0
  159.0245  129.3339  155.4936 C   0  0  0  0  0  0  0  0  0  0  0  0
  157.7507  129.6954  154.7171 C   0  0  2  0  0  0  0  0  0  0  0  0
  156.5282  128.9289  155.0932 N   0  3  2  0  0  0  0  0  0  0  0  0
  156.7987  127.4922  155.3506 C   0  0  0  0  0  0  0  0  0  0  0  0
  155.3483  129.1424  154.2054 C   0  0  0  0  0  0  0  0  0  0  0  0
  154.0669  128.3788  154.6089 C   0  0  0  0  0  0  0  0  0  0  0  0
  152.9463  128.8098  153.8674 O   0  0  0  0  0  0  0  0  0  0  0  0
  158.2145  129.5055  153.2603 C   0  0  2  0  0  0  0  0  0  0  0  0
  158.2622  128.0367  152.7879 C   0  0  0  0  0  0  0  0  0  0  0  0
  160.6409  131.1808  151.4957 N   0  0  0  0  0  0  0  0  0  0  0  0
  160.9391  132.3067  150.8410 C   0  0  0  0  0  0  0  0  0  0  0  0
  160.5845  133.5587  151.1322 N   0  0  0  0  0  0  0  0  0  0  0  0
  159.8252  133.6057  152.2637 C   0  0  0  0  0  0  0  0  0  0  0  0
  157.5485  130.7577  154.8666 H   0  0  0  0  0  0  0  0  0  0  0  0
  157.5404  130.0419  152.5938 H   0  0  0  0  0  0  0  0  0  0  0  0
  158.2549  137.4533  154.7114 H   0  0  0  0  0  0  0  0  0  0  0  0
  157.4692  135.8714  154.6438 H   0  0  0  0  0  0  0  0  0  0  0  0
  156.5432  137.3009  155.0730 H   0  0  0  0  0  0  0  0  0  0  0  0
  156.7984  138.2348  152.8098 H   0  0  0  0  0  0  0  0  0  0  0  0
  155.0563  135.2994  151.1105 H   0  0  0  0  0  0  0  0  0  0  0  0
  155.5377  136.9495  150.6798 H   0  0  0  0  0  0  0  0  0  0  0  0
  157.3402  134.6472  151.5282 H   0  0  0  0  0  0  0  0  0  0  0  0
  157.4997  135.5822  150.0434 H   0  0  0  0  0  0  0  0  0  0  0  0
  157.8038  137.6549  150.2433 H   0  0  0  0  0  0  0  0  0  0  0  0
  160.1441  136.1826  151.6989 H   0  0  0  0  0  0  0  0  0  0  0  0
  159.6899  136.6903  153.3079 H   0  0  0  0  0  0  0  0  0  0  0  0
  158.0853  134.8699  154.6745 H   0  0  0  0  0  0  0  0  0  0  0  0
  160.9925  129.1827  154.5596 H   0  0  0  0  0  0  0  0  0  0  0  0
  160.5086  130.8207  155.0007 H   0  0  0  0  0  0  0  0  0  0  0  0
  159.1187  128.2525  155.5977 H   0  0  0  0  0  0  0  0  0  0  0  0
  159.0593  129.7665  156.4932 H   0  0  0  0  0  0  0  0  0  0  0  0
  157.2612  127.0117  154.4880 H   0  0  0  0  0  0  0  0  0  0  0  0
  155.8779  126.9584  155.5880 H   0  0  0  0  0  0  0  0  0  0  0  0
  157.4709  127.3613  156.1978 H   0  0  0  0  0  0  0  0  0  0  0  0
  155.1265  130.2100  154.2290 H   0  0  0  0  0  0  0  0  0  0  0  0
  155.6043  128.9344  153.1663 H   0  0  0  0  0  0  0  0  0  0  0  0
  154.1777  127.2986  154.5226 H   0  0  0  0  0  0  0  0  0  0  0  0
  153.8498  128.5798  155.6582 H   0  0  0  0  0  0  0  0  0  0  0  0
  152.7842  128.1883  153.1735 H   0  0  0  0  0  0  0  0  0  0  0  0
  157.2746  127.5766  152.7867 H   0  0  0  0  0  0  0  0  0  0  0  0
  158.9120  127.4218  153.4106 H   0  0  0  0  0  0  0  0  0  0  0  0
  158.6430  127.9775  151.7679 H   0  0  0  0  0  0  0  0  0  0  0  0
  161.5461  132.1868  149.9557 H   0  0  0  0  0  0  0  0  0  0  0  0
  156.2463  129.3109  155.9847 H   0  0  0  0  0  0  0  0  0  0  0  0
  1  2  1  0  0  0  0
  1 31  1  0  0  0  0
  1 32  1  0  0  0  0
  1 33  1  0  0  0  0
  2  6  1  0  0  0  0
  2  3  1  0  0  0  0
  2 34  1  0  0  0  0
  3  4  1  0  0  0  0
  4  5  1  0  0  0  0
  4 35  1  0  0  0  0
  4 36  1  0  0  0  0
  5  6  1  0  0  0  0
  5 37  1  0  0  0  0
  5 38  1  0  0  0  0
  6  7  1  0  0  0  0
  6  8  1  0  0  0  0
  7 39  1  0  0  0  0
  8  9  1  0  0  0  0
  8 40  1  0  0  0  0
  8 41  1  0  0  0  0
  9 28  1  0  0  0  0
  9 10  1  0  0  0  0
 10 11  2  0  0  0  0
 10 42  1  0  0  0  0
 11 12  1  0  0  0  0
 12 28  2  0  0  0  0
 12 13  1  0  0  0  0
 13 14  1  0  0  0  0
 13 25  2  0  0  0  0
 14 23  1  0  0  0  0
 14 15  1  0  0  0  0
 15 16  1  0  0  0  0
 15 43  1  0  0  0  0
 15 44  1  0  0  0  0
 16 17  1  0  0  0  0
 16 45  1  0  0  0  0
 16 46  1  0  0  0  0
 17 29  1  0  0  0  0
 17 18  1  0  0  0  0
 17 23  1  0  0  0  0
 18 19  1  0  0  0  0
 18 20  1  0  0  0  0
 18 59  1  0  0  0  0
 19 47  1  0  0  0  0
 19 48  1  0  0  0  0
 19 49  1  0  0  0  0
 20 21  1  0  0  0  0
 20 50  1  0  0  0  0
 20 51  1  0  0  0  0
 21 22  1  0  0  0  0
 21 52  1  0  0  0  0
 21 53  1  0  0  0  0
 22 54  1  0  0  0  0
 23 30  1  0  0  0  0
 23 24  1  0  0  0  0
 24 55  1  0  0  0  0
 24 56  1  0  0  0  0
 24 57  1  0  0  0  0
 25 26  1  0  0  0  0
 26 27  2  0  0  0  0
 26 58  1  0  0  0  0
 27 28  1  0  0  0  0
M  CHG  1  18   1
M  END
> <s_m_source_file>
AV-unprocessed.smi

> <i_m_source_file_index>
290

> <i_lp_mmshare_version>
43012

> <i_f3d_flags>
0

> <s_epik_input>
W0NIMl0xW0NIMl1PW0NAQEhdKFtDSDNdKVtDQEBdMShbT0hdKVtDSDJdbihbY0hdbjIpYyhjMjMpbltjSF1uYzNONFtDSDJdW0NIMl1bQ0BIXShbQ0BIXTRbQ0gzXSlOKFtDSDNdKVtDSDJdW0NIMl1bT0hd

> <s_epik_cmdline>
J2VwaWtfcHl0aG9uJywgJy1waCcsICc3LjAnLCAnLXRuJywgJzgnLCAnLW1hJywgJzIwMCcsICctbWV0YWxfYmluZGluZycsICctaW1hZScsICc8aW5maWxlLm1hZT4nLCAnLW9tYWUnLCAnPG91dGZpbGUubWFlPic=

> <r_lp_tautomer_probability>
1

> <r_epik_Ionization_Penalty>
0.0036983

> <r_epik_Ionization_Penalty_Charging>
0.0032725

> <r_epik_Ionization_Penalty_Neutral>
0.000425798

> <r_epik_State_Penalty>
-0

> <r_epik_Charging_Adjusted_Penalty>
0.0032725

> <i_epik_Tot_Q>
1

> <i_epik_Tot_abs_Q>
1

> <r_epik_Metal_State_Penalty>
-0

> <b_epik_Metal_Only>
0

> <s_lp_Force_Field>
OPLS_2005

> <r_lp_Energy>
63.2975

> <b_lp_Chiralities_Consistent>
1

> <s_lp_Variant>
AV-unprocessed.smi:290-29

> <Gold.Version>
5.8.1

> <Gold.Id.Protein>
6NUR|6NUR_protein|mol2

> <Gold.PLP.Fitness>
40.9107

> <Gold.PLP.PLP>
-33.2312

> <Gold.PLP.part.hbond>
-5.0000

> <Gold.PLP.part.metal>
0.0000

> <Gold.PLP.part.buried>
1.0000

> <Gold.PLP.part.nonpolar>
-29.9699

> <Gold.PLP.part.repulsive>
0.2656

> <Gold.PLP.ligand.clash>
0.0000

> <Gold.PLP.ligand.torsion>
0.9079

> <Gold.PLP.Chemscore.Hbond>
2.9913

> <Gold.PLP.Chemscore.CHOScore>
0.0000

> <Gold.PLP.Chemscore.Metal>
0.0000

> <Gold.Chemscore.Hbonds>
donor molecule, donor type, donor heavy atom, donor atom, acceptor molecule, acceptor atom, score
      L1  H     7    39       P1 10674  1.00
      L1  H    22    54       P1 10737  0.90
      P1  H 10752 10765       L1     3  1.00

> <Gold.PLP.Chemscore.Internal.Correction>
0.5214

> <Gold.Rescore>
     Score         DG    S(hbond)    S(metal)    S(lipo)     H(rot)  DE(clash)    DE(int)     intcor
     10.59     -13.47       1.95        0.00      92.90       3.67       0.25       2.63       ----

> <Gold.Chemscore.Fitness>
10.5853

> <Gold.Chemscore.DG>
-13.4684

> <Gold.Chemscore.ZeroCoef>
-5.4800

> <Gold.Chemscore.Hbond>
1.9471

> <Gold.Chemscore.Metal>
0.0000

> <Gold.Chemscore.Lipo>
92.9023

> <Gold.Chemscore.Internal_Hbond>
0.0000

> <Gold.Chemscore.DEClash>
0.2540

> <Gold.Chemscore.DEInternal>
2.6292

> <Gold.Chemscore.Rot>
3.6658

> <Gold.Chemscore.Internal.Correction>
   9.000000E+99

> <Gold.Chemscore.Hbonds>
donor molecule, donor type, donor heavy atom, donor atom, acceptor molecule, acceptor atom, score
      L1  H     7    39       P1 10674  1.00
      L1  H    22    54       P1 10737  0.17
      P1  H 10752 10765       L1     3  0.96

> <Gold.Chemscore.Hbond.Weighted>
-6.5033

> <Gold.Chemscore.Metal.Weighted>
-0.0000

> <Gold.Chemscore.Lipo.Weighted>
-10.8696

> <Gold.Chemscore.Internal_Hbond.Weighted>
0.0000

> <Gold.Chemscore.DEClash.Weighted>
0.2540

> <Gold.Chemscore.DEInternal.Weighted>
2.6292

> <Gold.Chemscore.Rot.Weighted>
9.3844

> <Gold.Chemscore.Internal.Correction.Weighted>
   9.000000E+99

> <Gold.Protein.RotatedTorsions>
[ 6907 6896 6895 6894 ] final    2.58 input  -60.11 | X-H torsion
[ 7974 7965 7964 7962 ] final  151.34 input  175.53 | X-H torsion
[ 8008 7997 7996 7995 ] final  -22.34 input   59.86 | X-H torsion
[ 10167 10162 10161 10158 ] final  -60.79 input  -65.29 | X-H torsion
[ 10718 10713 10712 10709 ] final   48.73 input   66.30 | X-H torsion
[ 10763 10752 10751 10750 ] final   26.20 input  -60.55 | X-H torsion
[ 11005 11000 10999 10996 ] final  139.46 input  -57.11 | X-H torsion

> <Gold.Protein.ActiveResidues>
 VAL166  LYS551  ARG553  GLY616  TRP617  ASP618  TYR619  PRO620  LYS621  CYS622 
 ASP623  PHE694  ASN695  SER759  ASP760  ASP761  ALA762  ILE779  LEU786  VAL792 
 PHE793  MET794  SER795  GLU796  ALA797  LYS798  CYS799  TRP800  GLU811  SER814 

> <Gold.Protein.RotatedAtoms>
  151.6111  135.1040  160.0081 H   0  0  0  0  0  0  0  0  0  0  0  0  # atno 6907 bound_to 6896
  152.4208  133.7109  159.6488 H   0  0  0  0  0  0  0  0  0  0  0  0  # atno 6908 bound_to 6896
  150.8095  133.8374  159.3211 H   0  0  0  0  0  0  0  0  0  0  0  0  # atno 6909 bound_to 6896
  144.8299  139.6525  143.6063 H   0  0  0  0  0  0  0  0  0  0  0  0  # atno 7974 bound_to 7965
  154.4650  140.2010  156.0142 H   0  0  0  0  0  0  0  0  0  0  0  0  # atno 8008 bound_to 7997
  156.0910  140.3258  155.7787 H   0  0  0  0  0  0  0  0  0  0  0  0  # atno 8009 bound_to 7997
  155.4956  140.0549  157.2938 H   0  0  0  0  0  0  0  0  0  0  0  0  # atno 8010 bound_to 7997
  140.6048  143.2370  151.5846 H   0  0  0  0  0  0  0  0  0  0  0  0  # atno 10167 bound_to 10162
  157.4716  130.8259  149.7994 H   0  0  0  0  0  0  0  0  0  0  0  0  # atno 10718 bound_to 10713
  153.0639  135.6565  154.0400 H   0  0  0  0  0  0  0  0  0  0  0  0  # atno 10763 bound_to 10752
  154.0061  135.2932  155.3399 H   0  0  0  0  0  0  0  0  0  0  0  0  # atno 10764 bound_to 10752
  154.6988  135.5253  153.8566 H   0  0  0  0  0  0  0  0  0  0  0  0  # atno 10765 bound_to 10752
  140.0256  134.9376  157.0561 H   0  0  0  0  0  0  0  0  0  0  0  0  # atno 11005 bound_to 11000
  146.2603  139.6395  142.9366 LP  0  0  0  0  0  0  0  0  0  0  0  0  # atno 17320 bound_to 7965
  145.4917  141.0438  143.2589 LP  0  0  0  0  0  0  0  0  0  0  0  0  # atno 17321 bound_to 7965
  139.5317  144.2897  152.1162 LP  0  0  0  0  0  0  0  0  0  0  0  0  # atno 17342 bound_to 10162
  140.2085  144.4587  150.6397 LP  0  0  0  0  0  0  0  0  0  0  0  0  # atno 17343 bound_to 10162
  156.0076  130.3848  150.2376 LP  0  0  0  0  0  0  0  0  0  0  0  0  # atno 17370 bound_to 10713
  157.0559  131.0076  151.3238 LP  0  0  0  0  0  0  0  0  0  0  0  0  # atno 17371 bound_to 10713
  140.4312  134.1778  155.7168 LP  0  0  0  0  0  0  0  0  0  0  0  0  # atno 17394 bound_to 11000
  141.1800  133.8433  157.1289 LP  0  0  0  0  0  0  0  0  0  0  0  0  # atno 17395 bound_to 11000

$$$$
