AV-unprocessed.smi:3253|AV-procd|sdf|12445|dock4
  -GOLD-   2272018343D 1   1.00000     0.00000
 Structure written by MMmdl.
 37 38  0  0  0  0  0  0  0  0  2 V2000
  149.6362  139.2969  157.7693 C   0  0  0  0  0  0  0  0  0  0  0  0
  150.0091  140.6532  157.1418 C   0  0  2  0  0  0  0  0  0  0  0  0
  150.5656  140.5243  155.7097 C   0  0  0  0  0  0  0  0  0  0  0  0
  149.5821  140.0025  154.7560 N   0  0  0  0  0  0  0  0  0  0  0  0
  148.3905  140.5742  154.3894 C   0  0  0  0  0  0  0  0  0  0  0  0
  147.8140  139.7256  153.4795 C   0  0  0  0  0  0  0  0  0  0  0  0
  148.6755  138.6717  153.3319 N   0  3  0  0  0  0  0  0  0  0  0  0
  149.7487  138.8404  154.1114 C   0  0  0  0  0  0  0  0  0  0  0  0
  150.9898  141.3433  157.9753 N   0  0  0  0  0  0  0  0  0  0  0  0
  152.2848  141.0089  158.0895 C   0  0  0  0  0  0  0  0  0  0  0  0
  152.7934  140.0638  157.4858 O   0  0  0  0  0  0  0  0  0  0  0  0
  153.1366  141.8749  159.0313 C   0  0  2  0  0  0  0  0  0  0  0  0
  152.8354  141.5625  160.5114 C   0  0  0  0  0  0  0  0  0  0  0  0
  152.1722  142.8284  161.0283 C   0  0  0  0  0  0  0  0  0  0  0  0
  151.7006  142.9214  162.1605 O   0  0  0  0  0  0  0  0  0  0  0  0
  152.1731  143.7837  160.0948 N   0  0  0  0  0  0  0  0  0  0  0  0
  151.6073  145.1176  160.2420 C   0  0  0  0  0  0  0  0  0  0  0  0
  152.8450  143.3837  158.8704 C   0  0  0  0  0  0  0  0  0  0  0  0
  148.8556  138.7933  157.1991 H   0  0  0  0  0  0  0  0  0  0  0  0
  149.2599  139.4212  158.7852 H   0  0  0  0  0  0  0  0  0  0  0  0
  150.4985  138.6310  157.8142 H   0  0  0  0  0  0  0  0  0  0  0  0
  149.1061  141.2647  157.0929 H   0  0  0  0  0  0  0  0  0  0  0  0
  150.9036  141.4938  155.3398 H   0  0  0  0  0  0  0  0  0  0  0  0
  151.4310  139.8601  155.6930 H   0  0  0  0  0  0  0  0  0  0  0  0
  148.0510  141.5186  154.7899 H   0  0  0  0  0  0  0  0  0  0  0  0
  146.8797  139.7910  152.9407 H   0  0  0  0  0  0  0  0  0  0  0  0
  150.5861  138.1714  154.1997 H   0  0  0  0  0  0  0  0  0  0  0  0
  150.6597  142.1362  158.5065 H   0  0  0  0  0  0  0  0  0  0  0  0
  154.1923  141.6886  158.8261 H   0  0  0  0  0  0  0  0  0  0  0  0
  152.1783  140.7028  160.6544 H   0  0  0  0  0  0  0  0  0  0  0  0
  153.7542  141.3803  161.0695 H   0  0  0  0  0  0  0  0  0  0  0  0
  152.0612  145.6359  161.0873 H   0  0  0  0  0  0  0  0  0  0  0  0
  150.5319  145.0584  160.4122 H   0  0  0  0  0  0  0  0  0  0  0  0
  151.7764  145.7169  159.3470 H   0  0  0  0  0  0  0  0  0  0  0  0
  153.7724  143.9487  158.7670 H   0  0  0  0  0  0  0  0  0  0  0  0
  152.2233  143.6109  158.0024 H   0  0  0  0  0  0  0  0  0  0  0  0
  148.5248  137.8776  152.7222 H   0  0  0  0  0  0  0  0  0  0  0  0
  1  2  1  0  0  0  0
  1 19  1  0  0  0  0
  1 20  1  0  0  0  0
  1 21  1  0  0  0  0
  2  3  1  0  0  0  0
  2  9  1  0  0  0  0
  2 22  1  0  0  0  0
  3  4  1  0  0  0  0
  3 23  1  0  0  0  0
  3 24  1  0  0  0  0
  4  8  1  0  0  0  0
  4  5  1  0  0  0  0
  5  6  2  0  0  0  0
  5 25  1  0  0  0  0
  6  7  1  0  0  0  0
  6 26  1  0  0  0  0
  7  8  2  0  0  0  0
  7 37  1  0  0  0  0
  8 27  1  0  0  0  0
  9 10  1  0  0  0  0
  9 28  1  0  0  0  0
 10 11  2  0  0  0  0
 10 12  1  0  0  0  0
 12 18  1  0  0  0  0
 12 13  1  0  0  0  0
 12 29  1  0  0  0  0
 13 14  1  0  0  0  0
 13 30  1  0  0  0  0
 13 31  1  0  0  0  0
 14 15  2  0  0  0  0
 14 16  1  0  0  0  0
 16 17  1  0  0  0  0
 16 18  1  0  0  0  0
 17 32  1  0  0  0  0
 17 33  1  0  0  0  0
 17 34  1  0  0  0  0
 18 35  1  0  0  0  0
 18 36  1  0  0  0  0
M  CHG  1   7   1
M  END
> <s_m_source_file>
AV-unprocessed.smi

> <i_m_source_file_index>
3253

> <i_lp_mmshare_version>
43012

> <i_f3d_flags>
0

> <s_epik_input>
W2NIXTFuW2NIXVtjSF1uMVtDSDJdW0NAQEhdKFtDSDNdKVtOSF1DKD1PKVtDQEBIXTJbQ0gyXUMoPU8pTihbQ0gzXSlbQ0gyXTI=

> <s_epik_cmdline>
J2VwaWtfcHl0aG9uJywgJy1waCcsICc3LjAnLCAnLXRuJywgJzgnLCAnLW1hJywgJzIwMCcsICctbWV0YWxfYmluZGluZycsICctaW1hZScsICc8aW5maWxlLm1hZT4nLCAnLW9tYWUnLCAnPG91dGZpbGUubWFlPic=

> <r_lp_tautomer_probability>
1

> <r_epik_Ionization_Penalty>
0.251561

> <r_epik_Ionization_Penalty_Charging>
0

> <r_epik_Ionization_Penalty_Neutral>
0.251561

> <r_epik_State_Penalty>
0.242926

> <r_epik_Charging_Adjusted_Penalty>
0.242926

> <i_epik_Tot_Q>
1

> <i_epik_Tot_abs_Q>
1

> <r_epik_Metal_State_Penalty>
0.533885

> <b_epik_Metal_Only>
0

> <s_lp_Force_Field>
OPLS_2005

> <r_lp_Energy>
15.657

> <b_lp_Chiralities_Consistent>
1

> <s_lp_Variant>
AV-unprocessed.smi:3253-1

> <Gold.Version>
5.8.1

> <Gold.Id.Protein>
6NUR|6NUR_protein|mol2

> <Gold.PLP.Fitness>
47.7429

> <Gold.PLP.PLP>
-37.5684

> <Gold.PLP.part.hbond>
-4.0000

> <Gold.PLP.part.metal>
0.0000

> <Gold.PLP.part.buried>
-3.6444

> <Gold.PLP.part.nonpolar>
-33.1906

> <Gold.PLP.part.repulsive>
2.3129

> <Gold.PLP.ligand.clash>
0.0000

> <Gold.PLP.ligand.torsion>
0.5447

> <Gold.PLP.Chemscore.Hbond>
3.7441

> <Gold.PLP.Chemscore.CHOScore>
0.0000

> <Gold.PLP.Chemscore.Metal>
0.0000

> <Gold.Chemscore.Hbonds>
donor molecule, donor type, donor heavy atom, donor atom, acceptor molecule, acceptor atom, score
      L1  H     7    37       P1  7948  2.00
      P1  H  6933  6945       L1    15  0.88
      P1  H  7997  8008       L1    11  1.00

> <Gold.PLP.Chemscore.Internal.Correction>
0.0316

> <Gold.Rescore>
     Score         DG    S(hbond)    S(metal)    S(lipo)     H(rot)  DE(clash)    DE(int)     intcor
     13.54     -16.89       2.55        0.00      69.27       2.03       1.58       1.76       ----

> <Gold.Chemscore.Fitness>
13.5442

> <Gold.Chemscore.DG>
-16.8882

> <Gold.Chemscore.ZeroCoef>
-5.4800

> <Gold.Chemscore.Hbond>
2.5480

> <Gold.Chemscore.Metal>
0.0000

> <Gold.Chemscore.Lipo>
69.2748

> <Gold.Chemscore.Internal_Hbond>
0.0000

> <Gold.Chemscore.DEClash>
1.5833

> <Gold.Chemscore.DEInternal>
1.7607

> <Gold.Chemscore.Rot>
2.0341

> <Gold.Chemscore.Internal.Correction>
   9.000000E+99

> <Gold.Chemscore.Hbonds>
donor molecule, donor type, donor heavy atom, donor atom, acceptor molecule, acceptor atom, score
      L1  H     7    37       P1  7948  0.98
      P1  H  6933  6945       L1    15  0.53
      P1  H  7997  8008       L1    11  0.97

> <Gold.Chemscore.Hbond.Weighted>
-8.5103

> <Gold.Chemscore.Metal.Weighted>
-0.0000

> <Gold.Chemscore.Lipo.Weighted>
-8.1052

> <Gold.Chemscore.Internal_Hbond.Weighted>
0.0000

> <Gold.Chemscore.DEClash.Weighted>
1.5833

> <Gold.Chemscore.DEInternal.Weighted>
1.7607

> <Gold.Chemscore.Rot.Weighted>
5.2072

> <Gold.Chemscore.Internal.Correction.Weighted>
   9.000000E+99

> <Gold.Protein.RotatedTorsions>
[ 6907 6896 6895 6894 ] final   82.34 input  -60.11 | X-H torsion
[ 7974 7965 7964 7962 ] final -110.99 input  175.53 | X-H torsion
[ 8008 7997 7996 7995 ] final  -60.43 input   59.86 | X-H torsion
[ 10167 10162 10161 10158 ] final -175.02 input  -65.29 | X-H torsion
[ 10718 10713 10712 10709 ] final  150.20 input   66.30 | X-H torsion
[ 10763 10752 10751 10750 ] final  146.92 input  -60.55 | X-H torsion
[ 11005 11000 10999 10996 ] final  -66.18 input  -57.11 | X-H torsion

> <Gold.Protein.ActiveResidues>
 VAL166  LYS551  ARG553  GLY616  TRP617  ASP618  TYR619  PRO620  LYS621  CYS622 
 ASP623  PHE694  ASN695  SER759  ASP760  ASP761  ALA762  ILE779  LEU786  VAL792 
 PHE793  MET794  SER795  GLU796  ALA797  LYS798  CYS799  TRP800  GLU811  SER814 

> <Gold.Protein.RotatedAtoms>
  152.5296  134.3065  159.9097 H   0  0  0  0  0  0  0  0  0  0  0  0  # atno 6907 bound_to 6896
  151.3015  133.4114  159.2648 H   0  0  0  0  0  0  0  0  0  0  0  0  # atno 6908 bound_to 6896
  151.0115  134.9416  159.8067 H   0  0  0  0  0  0  0  0  0  0  0  0  # atno 6909 bound_to 6896
  145.1616  140.8881  143.3588 H   0  0  0  0  0  0  0  0  0  0  0  0  # atno 7974 bound_to 7965
  154.4398  140.1040  156.6272 H   0  0  0  0  0  0  0  0  0  0  0  0  # atno 8008 bound_to 7997
  155.5644  140.3488  155.4480 H   0  0  0  0  0  0  0  0  0  0  0  0  # atno 8009 bound_to 7997
  156.0436  140.1287  157.0118 H   0  0  0  0  0  0  0  0  0  0  0  0  # atno 8010 bound_to 7997
  139.5603  144.1887  152.1227 H   0  0  0  0  0  0  0  0  0  0  0  0  # atno 10167 bound_to 10162
  157.2865  131.0845  151.1493 H   0  0  0  0  0  0  0  0  0  0  0  0  # atno 10718 bound_to 10713
  154.0298  135.2898  155.3370 H   0  0  0  0  0  0  0  0  0  0  0  0  # atno 10763 bound_to 10752
  154.6995  135.5194  153.8509 H   0  0  0  0  0  0  0  0  0  0  0  0  # atno 10764 bound_to 10752
  153.0645  135.6626  154.0512 H   0  0  0  0  0  0  0  0  0  0  0  0  # atno 10765 bound_to 10752
  141.1475  133.6695  156.6100 H   0  0  0  0  0  0  0  0  0  0  0  0  # atno 11005 bound_to 11000
  145.0325  139.3328  143.6017 LP  0  0  0  0  0  0  0  0  0  0  0  0  # atno 17320 bound_to 7965
  146.3481  139.9669  142.8711 LP  0  0  0  0  0  0  0  0  0  0  0  0  # atno 17321 bound_to 7965
  140.1399  144.5212  150.6750 LP  0  0  0  0  0  0  0  0  0  0  0  0  # atno 17342 bound_to 10162
  140.6882  143.2361  151.5204 LP  0  0  0  0  0  0  0  0  0  0  0  0  # atno 17343 bound_to 10162
  157.2907  130.6794  149.6112 LP  0  0  0  0  0  0  0  0  0  0  0  0  # atno 17370 bound_to 10713
  155.9666  130.4422  150.5370 LP  0  0  0  0  0  0  0  0  0  0  0  0  # atno 17371 bound_to 10713
  140.3622  134.7678  157.4541 LP  0  0  0  0  0  0  0  0  0  0  0  0  # atno 17394 bound_to 11000
  140.0776  134.5775  155.8574 LP  0  0  0  0  0  0  0  0  0  0  0  0  # atno 17395 bound_to 11000

$$$$
