AV-unprocessed.smi:1288|AV-procd|sdf|5382|dock4
  -GOLD-   22720 4533D 1   1.00000     0.00000
 Structure written by MMmdl.
 42 44  0  0  0  0  0  0  0  0  1 V2000
  146.7699  142.3863  154.2619 C   0  0  0  0  0  0  0  0  0  0  0  0
  147.8908  141.4430  154.5650 C   0  0  0  0  0  0  0  0  0  0  0  0
  148.8378  141.7280  155.4591 N   0  0  0  0  0  0  0  0  0  0  0  0
  149.6390  140.6031  155.4207 C   0  0  0  0  0  0  0  0  0  0  0  0
  150.8138  140.2873  156.1404 C   0  0  0  0  0  0  0  0  0  0  0  0
  151.4717  139.0579  155.9288 C   0  0  0  0  0  0  0  0  0  0  0  0
  150.9658  138.1286  154.9970 C   0  0  0  0  0  0  0  0  0  0  0  0
  149.7964  138.4230  154.2698 C   0  0  0  0  0  0  0  0  0  0  0  0
  149.1433  139.6516  154.4844 C   0  0  0  0  0  0  0  0  0  0  0  0
  148.0028  140.2415  153.9469 N   0  0  0  0  0  0  0  0  0  0  0  0
  147.1237  139.6699  152.9352 C   0  0  0  0  0  0  0  0  0  0  0  0
  146.3012  138.4771  153.4633 C   0  0  1  0  0  0  0  0  0  0  0  0
  145.1260  138.9644  154.0810 O   0  0  0  0  0  0  0  0  0  0  0  0
  145.8968  137.5157  152.3344 C   0  0  0  0  0  0  0  0  0  0  0  0
  145.3968  136.3167  152.9036 O   0  0  0  0  0  0  0  0  0  0  0  0
  144.2207  135.8512  152.2640 C   0  0  0  0  0  0  0  0  0  0  0  0
  144.4987  134.6069  151.4437 C   0  0  0  0  0  0  0  0  0  0  0  0
  143.7693  134.3686  150.2596 C   0  0  0  0  0  0  0  0  0  0  0  0
  144.0269  133.2188  149.4878 C   0  0  0  0  0  0  0  0  0  0  0  0
  145.0147  132.3026  149.8972 C   0  0  0  0  0  0  0  0  0  0  0  0
  145.7458  132.5377  151.0776 C   0  0  0  0  0  0  0  0  0  0  0  0
  145.4913  133.6882  151.8498 C   0  0  0  0  0  0  0  0  0  0  0  0
  146.2059  133.9065  152.9798 F   0  0  0  0  0  0  0  0  0  0  0  0
  146.8693  143.2992  154.8498 H   0  0  0  0  0  0  0  0  0  0  0  0
  145.8122  141.9260  154.5053 H   0  0  0  0  0  0  0  0  0  0  0  0
  146.7751  142.6574  153.2065 H   0  0  0  0  0  0  0  0  0  0  0  0
  151.2097  140.9927  156.8560 H   0  0  0  0  0  0  0  0  0  0  0  0
  152.3692  138.8271  156.4839 H   0  0  0  0  0  0  0  0  0  0  0  0
  151.4764  137.1898  154.8400 H   0  0  0  0  0  0  0  0  0  0  0  0
  149.4081  137.7141  153.5536 H   0  0  0  0  0  0  0  0  0  0  0  0
  146.4601  140.4538  152.5676 H   0  0  0  0  0  0  0  0  0  0  0  0
  147.7278  139.3648  152.0806 H   0  0  0  0  0  0  0  0  0  0  0  0
  146.8897  137.9372  154.2056 H   0  0  0  0  0  0  0  0  0  0  0  0
  144.7844  139.6736  153.5580 H   0  0  0  0  0  0  0  0  0  0  0  0
  145.1670  137.9760  151.6656 H   0  0  0  0  0  0  0  0  0  0  0  0
  146.7728  137.2664  151.7335 H   0  0  0  0  0  0  0  0  0  0  0  0
  143.4510  135.6319  153.0057 H   0  0  0  0  0  0  0  0  0  0  0  0
  143.8192  136.6284  151.6116 H   0  0  0  0  0  0  0  0  0  0  0  0
  143.0117  135.0683  149.9385 H   0  0  0  0  0  0  0  0  0  0  0  0
  143.4671  133.0407  148.5815 H   0  0  0  0  0  0  0  0  0  0  0  0
  145.2126  131.4209  149.3059 H   0  0  0  0  0  0  0  0  0  0  0  0
  146.5045  131.8355  151.3907 H   0  0  0  0  0  0  0  0  0  0  0  0
  1  2  1  0  0  0  0
  1 24  1  0  0  0  0
  1 25  1  0  0  0  0
  1 26  1  0  0  0  0
  2 10  1  0  0  0  0
  2  3  2  0  0  0  0
  3  4  1  0  0  0  0
  4  9  2  0  0  0  0
  4  5  1  0  0  0  0
  5  6  2  0  0  0  0
  5 27  1  0  0  0  0
  6  7  1  0  0  0  0
  6 28  1  0  0  0  0
  7  8  2  0  0  0  0
  7 29  1  0  0  0  0
  8  9  1  0  0  0  0
  8 30  1  0  0  0  0
  9 10  1  0  0  0  0
 10 11  1  0  0  0  0
 11 12  1  0  0  0  0
 11 31  1  0  0  0  0
 11 32  1  0  0  0  0
 12 13  1  0  0  0  0
 12 14  1  0  0  0  0
 12 33  1  0  0  0  0
 13 34  1  0  0  0  0
 14 15  1  0  0  0  0
 14 35  1  0  0  0  0
 14 36  1  0  0  0  0
 15 16  1  0  0  0  0
 16 17  1  0  0  0  0
 16 37  1  0  0  0  0
 16 38  1  0  0  0  0
 17 22  1  0  0  0  0
 17 18  2  0  0  0  0
 18 19  1  0  0  0  0
 18 39  1  0  0  0  0
 19 20  2  0  0  0  0
 19 40  1  0  0  0  0
 20 21  1  0  0  0  0
 20 41  1  0  0  0  0
 21 22  2  0  0  0  0
 21 42  1  0  0  0  0
 22 23  1  0  0  0  0
M  END
> <s_m_source_file>
AV-unprocessed.smi

> <i_m_source_file_index>
1288

> <i_lp_mmshare_version>
43012

> <i_f3d_flags>
0

> <s_epik_input>
W2NIXTFbY0hdW2NIXVtjSF1jKGMxMiluKGMobjIpW0NIM10pW0NIMl1bQ0BIXShbT0hdKVtDSDJdT1tDSDJdYzNbY0hdW2NIXVtjSF1bY0hdYzNG

> <s_epik_cmdline>
J2VwaWtfcHl0aG9uJywgJy1waCcsICc3LjAnLCAnLXRuJywgJzgnLCAnLW1hJywgJzIwMCcsICctbWV0YWxfYmluZGluZycsICctaW1hZScsICc8aW5maWxlLm1hZT4nLCAnLW9tYWUnLCAnPG91dGZpbGUubWFlPic=

> <r_epik_Ionization_Penalty>
0.132603

> <r_epik_Ionization_Penalty_Charging>
0

> <r_epik_Ionization_Penalty_Neutral>
0.132603

> <r_epik_State_Penalty>
0.121982

> <r_epik_Charging_Adjusted_Penalty>
0.121982

> <i_epik_Tot_Q>
0

> <i_epik_Tot_abs_Q>
0

> <r_epik_Metal_State_Penalty>
0.000135431

> <b_epik_Metal_Only>
0

> <s_lp_Force_Field>
OPLS_2005

> <r_lp_Energy>
16.0492

> <b_lp_Chiralities_Consistent>
1

> <s_lp_Variant>
AV-unprocessed.smi:1288-2

> <Gold.Version>
5.8.1

> <Gold.Id.Protein>
6NUR|6NUR_protein|mol2

> <Gold.PLP.Fitness>
46.1602

> <Gold.PLP.PLP>
-46.0152

> <Gold.PLP.part.hbond>
-1.0000

> <Gold.PLP.part.metal>
0.0000

> <Gold.PLP.part.buried>
-2.0451

> <Gold.PLP.part.nonpolar>
-45.9472

> <Gold.PLP.part.repulsive>
2.6237

> <Gold.PLP.ligand.clash>
0.0000

> <Gold.PLP.ligand.torsion>
1.4854

> <Gold.PLP.Chemscore.Hbond>
1.0000

> <Gold.PLP.Chemscore.CHOScore>
0.0000

> <Gold.PLP.Chemscore.Metal>
0.0000

> <Gold.Chemscore.Hbonds>
donor molecule, donor type, donor heavy atom, donor atom, acceptor molecule, acceptor atom, score
      L1  H    13    34       P1 10175  1.00

> <Gold.PLP.Chemscore.Internal.Correction>
0.1157

> <Gold.Rescore>
     Score         DG    S(hbond)    S(metal)    S(lipo)     H(rot)  DE(clash)    DE(int)     intcor
     13.22     -15.66       0.98        0.00     109.07       2.29       0.09       2.35       ----

> <Gold.Chemscore.Fitness>
13.2196

> <Gold.Chemscore.DG>
-15.6565

> <Gold.Chemscore.ZeroCoef>
-5.4800

> <Gold.Chemscore.Hbond>
0.9784

> <Gold.Chemscore.Metal>
0.0000

> <Gold.Chemscore.Lipo>
109.0725

> <Gold.Chemscore.Internal_Hbond>
0.0000

> <Gold.Chemscore.DEClash>
0.0892

> <Gold.Chemscore.DEInternal>
2.3477

> <Gold.Chemscore.Rot>
2.2863

> <Gold.Chemscore.Internal.Correction>
   9.000000E+99

> <Gold.Chemscore.Hbonds>
donor molecule, donor type, donor heavy atom, donor atom, acceptor molecule, acceptor atom, score
      L1  H    13    34       P1 10175  0.99

> <Gold.Chemscore.Hbond.Weighted>
-3.2680

> <Gold.Chemscore.Metal.Weighted>
-0.0000

> <Gold.Chemscore.Lipo.Weighted>
-12.7615

> <Gold.Chemscore.Internal_Hbond.Weighted>
0.0000

> <Gold.Chemscore.DEClash.Weighted>
0.0892

> <Gold.Chemscore.DEInternal.Weighted>
2.3477

> <Gold.Chemscore.Rot.Weighted>
5.8530

> <Gold.Chemscore.Internal.Correction.Weighted>
   9.000000E+99

> <Gold.Protein.RotatedTorsions>
[ 6907 6896 6895 6894 ] final -107.75 input  -60.11 | X-H torsion
[ 7974 7965 7964 7962 ] final   65.05 input  175.53 | X-H torsion
[ 8008 7997 7996 7995 ] final -159.29 input   59.86 | X-H torsion
[ 10167 10162 10161 10158 ] final  -96.70 input  -65.29 | X-H torsion
[ 10718 10713 10712 10709 ] final  -32.25 input   66.30 | X-H torsion
[ 10763 10752 10751 10750 ] final   -2.29 input  -60.55 | X-H torsion
[ 11005 11000 10999 10996 ] final  -46.62 input  -57.11 | X-H torsion

> <Gold.Protein.ActiveResidues>
 VAL166  LYS551  ARG553  GLY616  TRP617  ASP618  TYR619  PRO620  LYS621  CYS622 
 ASP623  PHE694  ASN695  SER759  ASP760  ASP761  ALA762  ILE779  LEU786  VAL792 
 PHE793  MET794  SER795  GLU796  ALA797  LYS798  CYS799  TRP800  GLU811  SER814 

> <Gold.Protein.RotatedAtoms>
  150.7462  133.9779  159.3566 H   0  0  0  0  0  0  0  0  0  0  0  0  # atno 6907 bound_to 6896
  151.7718  135.0782  160.0370 H   0  0  0  0  0  0  0  0  0  0  0  0  # atno 6908 bound_to 6896
  152.3334  133.5947  159.5861 H   0  0  0  0  0  0  0  0  0  0  0  0  # atno 6909 bound_to 6896
  145.8431  139.3207  143.0920 H   0  0  0  0  0  0  0  0  0  0  0  0  # atno 7974 bound_to 7965
  155.7604  140.0838  157.2158 H   0  0  0  0  0  0  0  0  0  0  0  0  # atno 8008 bound_to 7997
  154.4004  140.1544  156.2882 H   0  0  0  0  0  0  0  0  0  0  0  0  # atno 8009 bound_to 7997
  155.8845  140.3419  155.5914 H   0  0  0  0  0  0  0  0  0  0  0  0  # atno 8010 bound_to 7997
  140.2910  143.3221  152.0345 H   0  0  0  0  0  0  0  0  0  0  0  0  # atno 10167 bound_to 10162
  156.3772  130.4350  149.7498 H   0  0  0  0  0  0  0  0  0  0  0  0  # atno 10718 bound_to 10713
  153.3560  135.6988  153.6750 H   0  0  0  0  0  0  0  0  0  0  0  0  # atno 10763 bound_to 10752
  153.5457  135.3564  155.2738 H   0  0  0  0  0  0  0  0  0  0  0  0  # atno 10764 bound_to 10752
  154.8661  135.4214  154.2807 H   0  0  0  0  0  0  0  0  0  0  0  0  # atno 10765 bound_to 10752
  141.0590  133.6715  156.3181 H   0  0  0  0  0  0  0  0  0  0  0  0  # atno 11005 bound_to 11000
  145.9443  140.8956  143.0291 LP  0  0  0  0  0  0  0  0  0  0  0  0  # atno 17320 bound_to 7965
  144.6732  140.1592  143.7424 LP  0  0  0  0  0  0  0  0  0  0  0  0  # atno 17321 bound_to 7965
  139.4938  144.6524  151.6646 LP  0  0  0  0  0  0  0  0  0  0  0  0  # atno 17342 bound_to 10162
  140.5732  144.0074  150.6227 LP  0  0  0  0  0  0  0  0  0  0  0  0  # atno 17343 bound_to 10162
  156.4602  130.7948  151.2968 LP  0  0  0  0  0  0  0  0  0  0  0  0  # atno 17370 bound_to 10713
  157.7489  131.0068  150.3165 LP  0  0  0  0  0  0  0  0  0  0  0  0  # atno 17371 bound_to 10713
  140.5906  134.5654  157.5499 LP  0  0  0  0  0  0  0  0  0  0  0  0  # atno 17394 bound_to 11000
  139.9416  134.7777  156.0665 LP  0  0  0  0  0  0  0  0  0  0  0  0  # atno 17395 bound_to 11000

$$$$
