AV-unprocessed.smi:2074|AV-procd|sdf|8454|dock1
  -GOLD-   2272011153D 1   1.00000     0.00000
 Structure written by MMmdl.
 44 45  0  0  0  0  0  0  0  0  2 V2000
  146.8883  133.7310  162.1877 C   0  0  0  0  0  0  0  0  0  0  0  0
  147.3236  134.9850  161.4847 C   0  0  0  0  0  0  0  0  0  0  0  0
  147.2184  136.1446  162.1110 N   0  0  0  0  0  0  0  0  0  0  0  0
  147.6931  137.1085  161.2165 O   0  0  0  0  0  0  0  0  0  0  0  0
  148.0713  136.4836  160.0728 C   0  0  0  0  0  0  0  0  0  0  0  0
  148.6124  137.3517  158.9876 C   0  0  0  0  0  0  0  0  0  0  0  0
  147.8640  135.1349  160.1743 C   0  0  0  0  0  0  0  0  0  0  0  0
  148.1420  134.0638  159.1503 C   0  0  0  0  0  0  0  0  0  0  0  0
  147.5048  134.4509  157.8157 C   0  0  0  0  0  0  0  0  0  0  0  0
  146.2895  134.6272  157.7388 O   0  0  0  0  0  0  0  0  0  0  0  0
  148.3374  134.5882  156.7737 N   0  0  0  0  0  0  0  0  0  0  0  0
  147.9295  134.9943  155.4343 C   0  0  0  0  0  0  0  0  0  0  0  0
  147.8328  133.7892  154.4610 C   0  0  2  0  0  0  0  0  0  0  0  0
  149.2248  133.1378  154.2777 C   0  0  0  0  0  0  0  0  0  0  0  0
  147.2412  134.1470  153.1286 N   0  3  0  0  0  0  0  0  0  0  0  0
  147.0075  132.9574  152.2633 C   0  0  0  0  0  0  0  0  0  0  0  0
  146.4663  133.3666  150.8837 C   0  0  0  0  0  0  0  0  0  0  0  0
  145.2619  134.0991  151.0468 O   0  0  0  0  0  0  0  0  0  0  0  0
  145.4811  135.2985  151.7731 C   0  0  0  0  0  0  0  0  0  0  0  0
  146.0011  134.9713  153.1840 C   0  0  0  0  0  0  0  0  0  0  0  0
  147.3229  132.8440  161.7275 H   0  0  0  0  0  0  0  0  0  0  0  0
  145.8041  133.6227  162.1558 H   0  0  0  0  0  0  0  0  0  0  0  0
  147.1927  133.7383  163.2348 H   0  0  0  0  0  0  0  0  0  0  0  0
  149.1693  136.7643  158.2573 H   0  0  0  0  0  0  0  0  0  0  0  0
  149.2852  138.1070  159.3939 H   0  0  0  0  0  0  0  0  0  0  0  0
  147.8043  137.8628  158.4645 H   0  0  0  0  0  0  0  0  0  0  0  0
  149.2120  133.9125  159.0053 H   0  0  0  0  0  0  0  0  0  0  0  0
  147.7439  133.0997  159.4695 H   0  0  0  0  0  0  0  0  0  0  0  0
  149.3217  134.4226  156.9264 H   0  0  0  0  0  0  0  0  0  0  0  0
  146.9638  135.4867  155.5499 H   0  0  0  0  0  0  0  0  0  0  0  0
  148.6315  135.7334  155.0434 H   0  0  0  0  0  0  0  0  0  0  0  0
  147.1719  133.0567  154.9279 H   0  0  0  0  0  0  0  0  0  0  0  0
  149.6843  132.8748  155.2300 H   0  0  0  0  0  0  0  0  0  0  0  0
  149.9085  133.8130  153.7622 H   0  0  0  0  0  0  0  0  0  0  0  0
  149.1834  132.2097  153.7108 H   0  0  0  0  0  0  0  0  0  0  0  0
  147.9253  132.3937  152.1095 H   0  0  0  0  0  0  0  0  0  0  0  0
  146.3001  132.2849  152.7513 H   0  0  0  0  0  0  0  0  0  0  0  0
  147.2002  133.9588  150.3342 H   0  0  0  0  0  0  0  0  0  0  0  0
  146.2597  132.4801  150.2839 H   0  0  0  0  0  0  0  0  0  0  0  0
  146.1840  135.9390  151.2379 H   0  0  0  0  0  0  0  0  0  0  0  0
  144.5408  135.8463  151.8381 H   0  0  0  0  0  0  0  0  0  0  0  0
  145.2347  134.4428  153.7532 H   0  0  0  0  0  0  0  0  0  0  0  0
  146.1866  135.9209  153.6848 H   0  0  0  0  0  0  0  0  0  0  0  0
  147.9290  134.7188  152.6592 H   0  0  0  0  0  0  0  0  0  0  0  0
  1  2  1  0  0  0  0
  1 21  1  0  0  0  0
  1 22  1  0  0  0  0
  1 23  1  0  0  0  0
  2  7  1  0  0  0  0
  2  3  2  0  0  0  0
  3  4  1  0  0  0  0
  4  5  1  0  0  0  0
  5  6  1  0  0  0  0
  5  7  2  0  0  0  0
  6 24  1  0  0  0  0
  6 25  1  0  0  0  0
  6 26  1  0  0  0  0
  7  8  1  0  0  0  0
  8  9  1  0  0  0  0
  8 27  1  0  0  0  0
  8 28  1  0  0  0  0
  9 10  2  0  0  0  0
  9 11  1  0  0  0  0
 11 12  1  0  0  0  0
 11 29  1  0  0  0  0
 12 13  1  0  0  0  0
 12 30  1  0  0  0  0
 12 31  1  0  0  0  0
 13 14  1  0  0  0  0
 13 15  1  0  0  0  0
 13 32  1  0  0  0  0
 14 33  1  0  0  0  0
 14 34  1  0  0  0  0
 14 35  1  0  0  0  0
 15 20  1  0  0  0  0
 15 16  1  0  0  0  0
 15 44  1  0  0  0  0
 16 17  1  0  0  0  0
 16 36  1  0  0  0  0
 16 37  1  0  0  0  0
 17 18  1  0  0  0  0
 17 38  1  0  0  0  0
 17 39  1  0  0  0  0
 18 19  1  0  0  0  0
 19 20  1  0  0  0  0
 19 40  1  0  0  0  0
 19 41  1  0  0  0  0
 20 42  1  0  0  0  0
 20 43  1  0  0  0  0
M  CHG  1  15   1
M  END
> <s_m_source_file>
AV-unprocessed.smi

> <i_m_source_file_index>
2074

> <i_lp_mmshare_version>
43012

> <i_f3d_flags>
0

> <s_epik_input>
W0NIM11jMW5vYyhbQ0gzXSljMVtDSDJdQyg9TylbTkhdW0NIMl1bQ0BIXShbQ0gzXSlOMltDSDJdW0NIMl1PW0NIMl1bQ0gyXTI=

> <s_epik_cmdline>
J2VwaWtfcHl0aG9uJywgJy1waCcsICc3LjAnLCAnLXRuJywgJzgnLCAnLW1hJywgJzIwMCcsICctbWV0YWxfYmluZGluZycsICctaW1hZScsICc8aW5maWxlLm1hZT4nLCAnLW9tYWUnLCAnPG91dGZpbGUubWFlPic=

> <r_epik_Ionization_Penalty>
0.663207

> <r_epik_Ionization_Penalty_Charging>
0.663207

> <r_epik_Ionization_Penalty_Neutral>
1.0751e-07

> <r_epik_State_Penalty>
0.682743

> <r_epik_Charging_Adjusted_Penalty>
1.34595

> <i_epik_Tot_Q>
1

> <i_epik_Tot_abs_Q>
1

> <r_epik_Metal_State_Penalty>
0.682743

> <b_epik_Metal_Only>
0

> <s_lp_Force_Field>
OPLS_2005

> <r_lp_Energy>
15.5823

> <b_lp_Chiralities_Consistent>
1

> <s_lp_Variant>
AV-unprocessed.smi:2074-3

> <Gold.Version>
5.8.1

> <Gold.Id.Protein>
6NUR|6NUR_protein|mol2

> <Gold.PLP.Fitness>
40.3639

> <Gold.PLP.PLP>
-29.3900

> <Gold.PLP.part.hbond>
-3.0000

> <Gold.PLP.part.metal>
0.0000

> <Gold.PLP.part.buried>
-4.1683

> <Gold.PLP.part.nonpolar>
-22.1313

> <Gold.PLP.part.repulsive>
0.1719

> <Gold.PLP.ligand.clash>
0.0000

> <Gold.PLP.ligand.torsion>
0.2946

> <Gold.PLP.Chemscore.Hbond>
3.8080

> <Gold.PLP.Chemscore.CHOScore>
0.0000

> <Gold.PLP.Chemscore.Metal>
0.0000

> <Gold.Chemscore.Hbonds>
donor molecule, donor type, donor heavy atom, donor atom, acceptor molecule, acceptor atom, score
      L1  H    15    44       P1  7948  2.00
      P1  H  6931  6943       L1     4  0.99
      P1  H  6934  6947       L1     4  0.86

> <Gold.PLP.Chemscore.Internal.Correction>
0.1392

> <Gold.Rescore>
     Score         DG    S(hbond)    S(metal)    S(lipo)     H(rot)  DE(clash)    DE(int)     intcor
     16.59     -16.82       2.52        0.00      64.21       1.80       0.05       0.18       ----

> <Gold.Chemscore.Fitness>
16.5893

> <Gold.Chemscore.DG>
-16.8204

> <Gold.Chemscore.ZeroCoef>
-5.4800

> <Gold.Chemscore.Hbond>
2.5228

> <Gold.Chemscore.Metal>
0.0000

> <Gold.Chemscore.Lipo>
64.2071

> <Gold.Chemscore.Internal_Hbond>
0.0000

> <Gold.Chemscore.DEClash>
0.0539

> <Gold.Chemscore.DEInternal>
0.1772

> <Gold.Chemscore.Rot>
1.7961

> <Gold.Chemscore.Internal.Correction>
   9.000000E+99

> <Gold.Chemscore.Hbonds>
donor molecule, donor type, donor heavy atom, donor atom, acceptor molecule, acceptor atom, score
      L1  H    15    44       P1  7948  0.77
      P1  H  6931  6943       L1     4  0.72
      P1  H  6934  6947       L1     4  0.70

> <Gold.Chemscore.Hbond.Weighted>
-8.4262

> <Gold.Chemscore.Metal.Weighted>
-0.0000

> <Gold.Chemscore.Lipo.Weighted>
-7.5122

> <Gold.Chemscore.Internal_Hbond.Weighted>
0.0000

> <Gold.Chemscore.DEClash.Weighted>
0.0539

> <Gold.Chemscore.DEInternal.Weighted>
0.1772

> <Gold.Chemscore.Rot.Weighted>
4.5980

> <Gold.Chemscore.Internal.Correction.Weighted>
   9.000000E+99

> <Gold.Protein.RotatedTorsions>
[ 6907 6896 6895 6894 ] final  136.53 input  -60.11 | X-H torsion
[ 7974 7965 7964 7962 ] final  164.25 input  175.53 | X-H torsion
[ 8008 7997 7996 7995 ] final  -24.06 input   59.86 | X-H torsion
[ 10167 10162 10161 10158 ] final  153.36 input  -65.29 | X-H torsion
[ 10718 10713 10712 10709 ] final   -8.24 input   66.30 | X-H torsion
[ 10763 10752 10751 10750 ] final  151.41 input  -60.55 | X-H torsion
[ 11005 11000 10999 10996 ] final  178.62 input  -57.11 | X-H torsion

> <Gold.Protein.ActiveResidues>
 VAL166  LYS551  ARG553  GLY616  TRP617  ASP618  TYR619  PRO620  LYS621  CYS622 
 ASP623  PHE694  ASN695  SER759  ASP760  ASP761  ALA762  ILE779  LEU786  VAL792 
 PHE793  MET794  SER795  GLU796  ALA797  LYS798  CYS799  TRP800  GLU811  SER814 

> <Gold.Protein.RotatedAtoms>
  152.2883  133.5536  159.5540 H   0  0  0  0  0  0  0  0  0  0  0  0  # atno 6907 bound_to 6896
  150.7224  134.0466  159.3793 H   0  0  0  0  0  0  0  0  0  0  0  0  # atno 6908 bound_to 6896
  151.8373  135.0602  160.0495 H   0  0  0  0  0  0  0  0  0  0  0  0  # atno 6909 bound_to 6896
  144.7553  139.8298  143.6352 H   0  0  0  0  0  0  0  0  0  0  0  0  # atno 7974 bound_to 7965
  154.4550  140.1964  156.0407 H   0  0  0  0  0  0  0  0  0  0  0  0  # atno 8008 bound_to 7997
  156.0727  140.3282  155.7568 H   0  0  0  0  0  0  0  0  0  0  0  0  # atno 8009 bound_to 7997
  155.5238  140.0572  157.2892 H   0  0  0  0  0  0  0  0  0  0  0  0  # atno 8010 bound_to 7997
  139.4827  144.5279  151.7770 H   0  0  0  0  0  0  0  0  0  0  0  0  # atno 10167 bound_to 10162
  156.7055  130.5106  149.5906 H   0  0  0  0  0  0  0  0  0  0  0  0  # atno 10718 bound_to 10713
  154.1033  135.2844  155.3247 H   0  0  0  0  0  0  0  0  0  0  0  0  # atno 10763 bound_to 10752
  154.6540  135.5358  153.7940 H   0  0  0  0  0  0  0  0  0  0  0  0  # atno 10764 bound_to 10752
  153.0371  135.6517  154.1195 H   0  0  0  0  0  0  0  0  0  0  0  0  # atno 10765 bound_to 10752
  140.3971  134.6810  157.4541 H   0  0  0  0  0  0  0  0  0  0  0  0  # atno 11005 bound_to 11000
  146.1556  139.4653  143.0021 LP  0  0  0  0  0  0  0  0  0  0  0  0  # atno 17320 bound_to 7965
  145.6799  141.0194  143.1612 LP  0  0  0  0  0  0  0  0  0  0  0  0  # atno 17321 bound_to 7965
  140.4802  144.1461  150.5931 LP  0  0  0  0  0  0  0  0  0  0  0  0  # atno 17342 bound_to 10162
  140.4287  143.2578  151.9624 LP  0  0  0  0  0  0  0  0  0  0  0  0  # atno 17343 bound_to 10162
  156.1698  130.6429  151.0823 LP  0  0  0  0  0  0  0  0  0  0  0  0  # atno 17370 bound_to 10713
  157.6956  131.0795  150.6977 LP  0  0  0  0  0  0  0  0  0  0  0  0  # atno 17371 bound_to 10713
  140.0363  134.6332  155.9039 LP  0  0  0  0  0  0  0  0  0  0  0  0  # atno 17394 bound_to 11000
  141.1870  133.6558  156.5263 LP  0  0  0  0  0  0  0  0  0  0  0  0  # atno 17395 bound_to 11000

$$$$
