AV-unprocessed.smi:910|AV-procd|sdf|4122|dock1
  -GOLD-   22720 2 23D 1   1.00000     0.00000
 Structure written by MMmdl.
 46 47  0  0  0  0  0  0  0  0  1 V2000
  149.2288  132.9517  153.5710 C   0  0  0  0  0  0  0  0  0  0  0  0
  149.6407  133.9410  154.6389 C   0  0  0  0  0  0  0  0  0  0  0  0
  149.7061  135.2861  154.3951 N   0  0  0  0  0  0  0  0  0  0  0  0
  150.1193  135.9169  155.5580 C   0  0  0  0  0  0  0  0  0  0  0  0
  150.3000  137.1860  155.7538 N   0  0  0  0  0  0  0  0  0  0  0  0
  150.7329  137.5992  157.0026 C   0  0  0  0  0  0  0  0  0  0  0  0
  151.1874  136.8971  157.9114 O   0  0  0  0  0  0  0  0  0  0  0  0
  150.5400  138.9185  157.1526 N   0  0  0  0  0  0  0  0  0  0  0  0
  150.7903  139.6792  158.3726 C   0  0  0  0  0  0  0  0  0  0  0  0
  151.6161  140.9397  158.0806 C   0  0  0  0  0  0  0  0  0  0  0  0
  151.6849  141.7347  159.2541 O   0  0  0  0  0  0  0  0  0  0  0  0
  152.8264  142.5794  159.3336 C   0  0  2  0  0  0  0  0  0  0  0  0
  153.9732  141.7571  159.9504 C   0  0  0  0  0  0  0  0  0  0  0  0
  153.6856  141.3739  161.4121 C   0  0  0  0  0  0  0  0  0  0  0  0
  153.3748  142.6143  162.2625 C   0  0  0  0  0  0  0  0  0  0  0  0
  152.2182  143.4239  161.6578 C   0  0  0  0  0  0  0  0  0  0  0  0
  152.5048  143.8228  160.1973 C   0  0  2  0  0  0  0  0  0  0  0  0
  151.3680  144.6761  159.6142 C   0  0  0  0  0  0  0  0  0  0  0  0
  150.2955  134.9257  156.4962 O   0  0  0  0  0  0  0  0  0  0  0  0
  149.9964  133.7364  155.9050 C   0  0  0  0  0  0  0  0  0  0  0  0
  150.1202  132.4687  156.7200 C   0  0  0  0  0  0  0  0  0  0  0  0
  150.0233  132.2241  153.4051 H   0  0  0  0  0  0  0  0  0  0  0  0
  149.0228  133.4576  152.6275 H   0  0  0  0  0  0  0  0  0  0  0  0
  148.3300  132.4174  153.8785 H   0  0  0  0  0  0  0  0  0  0  0  0
  149.4854  135.7029  153.5027 H   0  0  0  0  0  0  0  0  0  0  0  0
  150.1544  139.4281  156.3709 H   0  0  0  0  0  0  0  0  0  0  0  0
  149.8578  139.9355  158.8783 H   0  0  0  0  0  0  0  0  0  0  0  0
  151.3437  139.0339  159.0547 H   0  0  0  0  0  0  0  0  0  0  0  0
  152.6265  140.6631  157.7772 H   0  0  0  0  0  0  0  0  0  0  0  0
  151.1692  141.4949  157.2548 H   0  0  0  0  0  0  0  0  0  0  0  0
  153.1408  142.9013  158.3386 H   0  0  0  0  0  0  0  0  0  0  0  0
  154.1474  140.8584  159.3581 H   0  0  0  0  0  0  0  0  0  0  0  0
  154.8962  142.3365  159.9064 H   0  0  0  0  0  0  0  0  0  0  0  0
  152.8412  140.6843  161.4523 H   0  0  0  0  0  0  0  0  0  0  0  0
  154.5390  140.8404  161.8313 H   0  0  0  0  0  0  0  0  0  0  0  0
  153.1247  142.3141  163.2806 H   0  0  0  0  0  0  0  0  0  0  0  0
  154.2638  143.2421  162.3340 H   0  0  0  0  0  0  0  0  0  0  0  0
  151.3036  142.8334  161.7044 H   0  0  0  0  0  0  0  0  0  0  0  0
  152.0417  144.3153  162.2604 H   0  0  0  0  0  0  0  0  0  0  0  0
  153.3970  144.4507  160.2015 H   0  0  0  0  0  0  0  0  0  0  0  0
  150.4204  144.1373  159.6204 H   0  0  0  0  0  0  0  0  0  0  0  0
  151.5825  144.9677  158.5859 H   0  0  0  0  0  0  0  0  0  0  0  0
  151.2288  145.5893  160.1931 H   0  0  0  0  0  0  0  0  0  0  0  0
  149.4985  131.6779  156.2999 H   0  0  0  0  0  0  0  0  0  0  0  0
  149.8059  132.6445  157.7482 H   0  0  0  0  0  0  0  0  0  0  0  0
  151.1555  132.1283  156.7293 H   0  0  0  0  0  0  0  0  0  0  0  0
  1 22  1  0  0  0  0
  1 23  1  0  0  0  0
  1 24  1  0  0  0  0
  1  2  1  0  0  0  0
  2  3  1  0  0  0  0
  2 20  2  0  0  0  0
  3 25  1  0  0  0  0
  3  4  1  0  0  0  0
  4 19  1  0  0  0  0
  4  5  2  0  0  0  0
  5  6  1  0  0  0  0
  6  8  1  0  0  0  0
  6  7  2  0  0  0  0
  8  9  1  0  0  0  0
  8 26  1  0  0  0  0
  9 10  1  0  0  0  0
  9 27  1  0  0  0  0
  9 28  1  0  0  0  0
 10 11  1  0  0  0  0
 10 29  1  0  0  0  0
 10 30  1  0  0  0  0
 11 12  1  0  0  0  0
 12 17  1  0  0  0  0
 12 13  1  0  0  0  0
 12 31  1  0  0  0  0
 13 14  1  0  0  0  0
 13 32  1  0  0  0  0
 13 33  1  0  0  0  0
 14 15  1  0  0  0  0
 14 34  1  0  0  0  0
 14 35  1  0  0  0  0
 15 16  1  0  0  0  0
 15 36  1  0  0  0  0
 15 37  1  0  0  0  0
 16 17  1  0  0  0  0
 16 38  1  0  0  0  0
 16 39  1  0  0  0  0
 17 18  1  0  0  0  0
 17 40  1  0  0  0  0
 18 41  1  0  0  0  0
 18 42  1  0  0  0  0
 18 43  1  0  0  0  0
 19 20  1  0  0  0  0
 20 21  1  0  0  0  0
 21 44  1  0  0  0  0
 21 45  1  0  0  0  0
 21 46  1  0  0  0  0
M  END
> <s_m_source_file>
AV-unprocessed.smi

> <i_m_source_file_index>
910

> <i_lp_mmshare_version>
43012

> <i_f3d_flags>
0

> <s_epik_input>
W0NIM11jMW5jKG9jMVtDSDNdKVtOSF1DKD1PKVtOSF1bQ0gyXVtDSDJdT1tDQEBIXTJbQ0gyXVtDSDJdW0NIMl1bQ0gyXVtDQEhdMltDSDNd

> <s_epik_cmdline>
J2VwaWtfcHl0aG9uJywgJy1waCcsICc3LjAnLCAnLXRuJywgJzgnLCAnLW1hJywgJzIwMCcsICctbWV0YWxfYmluZGluZycsICctaW1hZScsICc8aW5maWxlLm1hZT4nLCAnLW9tYWUnLCAnPG91dGZpbGUubWFlPic=

> <r_lp_tautomer_probability>
0.107061

> <r_epik_Ionization_Penalty>
0.727192

> <r_epik_Ionization_Penalty_Charging>
0.726719

> <r_epik_Ionization_Penalty_Neutral>
0.000473387

> <r_epik_State_Penalty>
2.53712

> <r_epik_Charging_Adjusted_Penalty>
3.26383

> <i_epik_Tot_Q>
0

> <i_epik_Tot_abs_Q>
0

> <r_epik_Metal_State_Penalty>
3.71015

> <b_epik_Metal_Only>
0

> <s_lp_Force_Field>
OPLS_2005

> <r_lp_Energy>
29.3715

> <b_lp_Chiralities_Consistent>
1

> <s_lp_Variant>
AV-unprocessed.smi:910-7

> <Gold.Version>
5.8.1

> <Gold.Id.Protein>
6NUR|6NUR_protein|mol2

> <Gold.PLP.Fitness>
44.7825

> <Gold.PLP.PLP>
-42.7919

> <Gold.PLP.part.hbond>
-1.0392

> <Gold.PLP.part.metal>
0.0000

> <Gold.PLP.part.buried>
-5.7715

> <Gold.PLP.part.nonpolar>
-35.1945

> <Gold.PLP.part.repulsive>
0.1080

> <Gold.PLP.ligand.clash>
0.0000

> <Gold.PLP.ligand.torsion>
0.5803

> <Gold.PLP.Chemscore.Hbond>
1.0000

> <Gold.PLP.Chemscore.CHOScore>
0.0000

> <Gold.PLP.Chemscore.Metal>
0.0000

> <Gold.Chemscore.Hbonds>
donor molecule, donor type, donor heavy atom, donor atom, acceptor molecule, acceptor atom, score
      L1  H     3    25       P1  7948  1.00

> <Gold.PLP.Chemscore.Internal.Correction>
0.1512

> <Gold.Rescore>
     Score         DG    S(hbond)    S(metal)    S(lipo)     H(rot)  DE(clash)    DE(int)     intcor
     15.24     -17.40       0.91        0.00     112.23       1.66       0.03       2.14       ----

> <Gold.Chemscore.Fitness>
15.2378

> <Gold.Chemscore.DG>
-17.4027

> <Gold.Chemscore.ZeroCoef>
-5.4800

> <Gold.Chemscore.Hbond>
0.9087

> <Gold.Chemscore.Metal>
0.0000

> <Gold.Chemscore.Lipo>
112.2320

> <Gold.Chemscore.Internal_Hbond>
0.0000

> <Gold.Chemscore.DEClash>
0.0272

> <Gold.Chemscore.DEInternal>
2.1376

> <Gold.Chemscore.Rot>
1.6576

> <Gold.Chemscore.Internal.Correction>
   9.000000E+99

> <Gold.Chemscore.Hbonds>
donor molecule, donor type, donor heavy atom, donor atom, acceptor molecule, acceptor atom, score
      L1  H     3    25       P1  7948  0.26

> <Gold.Chemscore.Hbond.Weighted>
-3.0351

> <Gold.Chemscore.Metal.Weighted>
-0.0000

> <Gold.Chemscore.Lipo.Weighted>
-13.1311

> <Gold.Chemscore.Internal_Hbond.Weighted>
0.0000

> <Gold.Chemscore.DEClash.Weighted>
0.0272

> <Gold.Chemscore.DEInternal.Weighted>
2.1376

> <Gold.Chemscore.Rot.Weighted>
4.2436

> <Gold.Chemscore.Internal.Correction.Weighted>
   9.000000E+99

> <Gold.Protein.RotatedTorsions>
[ 6907 6896 6895 6894 ] final  -52.57 input  -60.11 | X-H torsion
[ 7974 7965 7964 7962 ] final   97.64 input  175.53 | X-H torsion
[ 8008 7997 7996 7995 ] final   24.75 input   59.86 | X-H torsion
[ 10167 10162 10161 10158 ] final   56.79 input  -65.29 | X-H torsion
[ 10718 10713 10712 10709 ] final  171.47 input   66.30 | X-H torsion
[ 10763 10752 10751 10750 ] final   63.38 input  -60.55 | X-H torsion
[ 11005 11000 10999 10996 ] final  -60.02 input  -57.11 | X-H torsion

> <Gold.Protein.ActiveResidues>
 VAL166  LYS551  ARG553  GLY616  TRP617  ASP618  TYR619  PRO620  LYS621  CYS622 
 ASP623  PHE694  ASN695  SER759  ASP760  ASP761  ALA762  ILE779  LEU786  VAL792 
 PHE793  MET794  SER795  GLU796  ALA797  LYS798  CYS799  TRP800  GLU811  SER814 

> <Gold.Protein.RotatedAtoms>
  150.8506  134.7829  159.7005 H   0  0  0  0  0  0  0  0  0  0  0  0  # atno 6907 bound_to 6896
  152.4571  134.5263  159.9807 H   0  0  0  0  0  0  0  0  0  0  0  0  # atno 6908 bound_to 6896
  151.5385  133.3399  159.2967 H   0  0  0  0  0  0  0  0  0  0  0  0  # atno 6909 bound_to 6896
  145.4229  139.2319  143.3186 H   0  0  0  0  0  0  0  0  0  0  0  0  # atno 7974 bound_to 7965
  155.0011  140.3125  155.4867 H   0  0  0  0  0  0  0  0  0  0  0  0  # atno 8008 bound_to 7997
  156.2925  140.2232  156.5062 H   0  0  0  0  0  0  0  0  0  0  0  0  # atno 8009 bound_to 7997
  154.7618  140.0458  157.0967 H   0  0  0  0  0  0  0  0  0  0  0  0  # atno 8010 bound_to 7997
  140.2049  144.3949  150.6513 H   0  0  0  0  0  0  0  0  0  0  0  0  # atno 10167 bound_to 10162
  156.9930  131.0153  151.2851 H   0  0  0  0  0  0  0  0  0  0  0  0  # atno 10718 bound_to 10713
  153.0016  135.5431  154.6343 H   0  0  0  0  0  0  0  0  0  0  0  0  # atno 10763 bound_to 10752
  154.5613  135.2834  155.0919 H   0  0  0  0  0  0  0  0  0  0  0  0  # atno 10764 bound_to 10752
  154.2120  135.6465  153.5171 H   0  0  0  0  0  0  0  0  0  0  0  0  # atno 10765 bound_to 10752
  141.1271  133.6619  156.5160 H   0  0  0  0  0  0  0  0  0  0  0  0  # atno 11005 bound_to 11000
  146.2647  140.4955  142.8839 LP  0  0  0  0  0  0  0  0  0  0  0  0  # atno 17320 bound_to 7965
  144.8233  140.6587  143.6338 LP  0  0  0  0  0  0  0  0  0  0  0  0  # atno 17321 bound_to 7965
  140.6364  143.2195  151.6385 LP  0  0  0  0  0  0  0  0  0  0  0  0  # atno 17342 bound_to 10162
  139.5202  144.3229  152.0895 LP  0  0  0  0  0  0  0  0  0  0  0  0  # atno 17343 bound_to 10162
  157.5445  130.8141  149.8069 LP  0  0  0  0  0  0  0  0  0  0  0  0  # atno 17370 bound_to 10713
  156.0200  130.3799  150.1992 LP  0  0  0  0  0  0  0  0  0  0  0  0  # atno 17371 bound_to 10713
  140.4330  134.7084  157.4952 LP  0  0  0  0  0  0  0  0  0  0  0  0  # atno 17394 bound_to 11000
  140.0281  134.6447  155.9145 LP  0  0  0  0  0  0  0  0  0  0  0  0  # atno 17395 bound_to 11000

$$$$
