AV-unprocessed.smi:2683|AV-procd|sdf|10376|dock3
  -GOLD-   2272014403D 1   1.00000     0.00000
 Structure written by MMmdl.
 37 38  0  0  0  0  0  0  0  0  2 V2000
  152.1244  144.6817  158.3214 C   0  0  0  0  0  0  0  0  0  0  0  0
  151.4918  143.2836  158.2996 C   0  0  2  0  0  0  0  0  0  0  0  0
  152.5080  142.2176  158.7602 C   0  0  0  0  0  0  0  0  0  0  0  0
  152.8120  142.3019  160.1771 N   0  0  0  0  0  0  0  0  0  0  0  0
  153.6195  141.4770  160.9316 C   0  0  0  0  0  0  0  0  0  0  0  0
  153.6067  141.9564  162.2100 C   0  0  0  0  0  0  0  0  0  0  0  0
  152.7491  143.0897  162.1385 C   0  0  0  0  0  0  0  0  0  0  0  0
  152.2760  143.2948  160.9196 N   0  0  0  0  0  0  0  0  0  0  0  0
  150.9922  142.9938  156.9363 N   0  3  0  0  0  0  0  0  0  0  0  0
  150.2359  141.7312  156.8021 C   0  0  0  0  0  0  0  0  0  0  0  0
  150.7146  140.9254  155.5846 C   0  0  0  0  0  0  0  0  0  0  0  0
  149.6372  140.0336  154.9562 C   0  0  0  0  0  0  0  0  0  0  0  0
  150.3977  138.9355  154.2009 C   0  0  0  0  0  0  0  0  0  0  0  0
  151.8383  138.9600  154.7332 C   0  0  0  0  0  0  0  0  0  0  0  0
  151.8350  139.9367  155.9112 C   0  0  0  0  0  0  0  0  0  0  0  0
  152.4748  144.9382  159.3216 H   0  0  0  0  0  0  0  0  0  0  0  0
  151.4043  145.4441  158.0217 H   0  0  0  0  0  0  0  0  0  0  0  0
  152.9774  144.7439  157.6445 H   0  0  0  0  0  0  0  0  0  0  0  0
  150.6523  143.2974  158.9971 H   0  0  0  0  0  0  0  0  0  0  0  0
  152.1428  141.2143  158.5334 H   0  0  0  0  0  0  0  0  0  0  0  0
  153.4444  142.3348  158.2131 H   0  0  0  0  0  0  0  0  0  0  0  0
  154.1315  140.6286  160.5010 H   0  0  0  0  0  0  0  0  0  0  0  0
  154.1284  141.5570  163.0673 H   0  0  0  0  0  0  0  0  0  0  0  0
  152.4593  143.7651  162.9299 H   0  0  0  0  0  0  0  0  0  0  0  0
  150.3777  143.7460  156.6599 H   0  0  0  0  0  0  0  0  0  0  0  0
  150.3665  141.1344  157.7047 H   0  0  0  0  0  0  0  0  0  0  0  0
  149.1706  141.9514  156.7194 H   0  0  0  0  0  0  0  0  0  0  0  0
  151.0874  141.6130  154.8230 H   0  0  0  0  0  0  0  0  0  0  0  0
  149.0297  139.5754  155.7382 H   0  0  0  0  0  0  0  0  0  0  0  0
  148.9644  140.5924  154.3046 H   0  0  0  0  0  0  0  0  0  0  0  0
  149.9303  137.9629  154.3590 H   0  0  0  0  0  0  0  0  0  0  0  0
  150.3905  139.1283  153.1274 H   0  0  0  0  0  0  0  0  0  0  0  0
  152.1887  137.9700  155.0266 H   0  0  0  0  0  0  0  0  0  0  0  0
  152.5081  139.3258  153.9539 H   0  0  0  0  0  0  0  0  0  0  0  0
  152.7996  140.4259  156.0491 H   0  0  0  0  0  0  0  0  0  0  0  0
  151.6019  139.3974  156.8307 H   0  0  0  0  0  0  0  0  0  0  0  0
  151.7796  142.9748  156.3035 H   0  0  0  0  0  0  0  0  0  0  0  0
  1  2  1  0  0  0  0
  1 16  1  0  0  0  0
  1 17  1  0  0  0  0
  1 18  1  0  0  0  0
  2  3  1  0  0  0  0
  2  9  1  0  0  0  0
  2 19  1  0  0  0  0
  3  4  1  0  0  0  0
  3 20  1  0  0  0  0
  3 21  1  0  0  0  0
  4  8  1  0  0  0  0
  4  5  1  0  0  0  0
  5  6  2  0  0  0  0
  5 22  1  0  0  0  0
  6  7  1  0  0  0  0
  6 23  1  0  0  0  0
  7  8  2  0  0  0  0
  7 24  1  0  0  0  0
  9 10  1  0  0  0  0
  9 25  1  0  0  0  0
  9 37  1  0  0  0  0
 10 11  1  0  0  0  0
 10 26  1  0  0  0  0
 10 27  1  0  0  0  0
 11 15  1  0  0  0  0
 11 12  1  0  0  0  0
 11 28  1  0  0  0  0
 12 13  1  0  0  0  0
 12 29  1  0  0  0  0
 12 30  1  0  0  0  0
 13 14  1  0  0  0  0
 13 31  1  0  0  0  0
 13 32  1  0  0  0  0
 14 15  1  0  0  0  0
 14 33  1  0  0  0  0
 14 34  1  0  0  0  0
 15 35  1  0  0  0  0
 15 36  1  0  0  0  0
M  CHG  1   9   1
M  END
> <s_m_source_file>
AV-unprocessed.smi

> <i_m_source_file_index>
2683

> <i_lp_mmshare_version>
43012

> <i_f3d_flags>
0

> <s_epik_input>
bjFbY0hdW2NIXVtjSF1uMVtDSDJdW0NAQEhdKFtDSDNdKVtOSF1bQ0gyXVtDSF0yW0NIMl1bQ0gyXVtDSDJdW0NIMl0y

> <s_epik_cmdline>
J2VwaWtfcHl0aG9uJywgJy1waCcsICc3LjAnLCAnLXRuJywgJzgnLCAnLW1hJywgJzIwMCcsICctbWV0YWxfYmluZGluZycsICctaW1hZScsICc8aW5maWxlLm1hZT4nLCAnLW9tYWUnLCAnPG91dGZpbGUubWFlPic=

> <r_lp_tautomer_probability>
1

> <r_epik_Ionization_Penalty>
0.00170049

> <r_epik_Ionization_Penalty_Charging>
0.00169627

> <r_epik_Ionization_Penalty_Neutral>
4.21324e-06

> <r_epik_State_Penalty>
0.00114589

> <r_epik_Charging_Adjusted_Penalty>
0.00284216

> <i_epik_Tot_Q>
1

> <i_epik_Tot_abs_Q>
1

> <r_epik_Metal_State_Penalty>
-0

> <b_epik_Metal_Only>
0

> <s_lp_Force_Field>
OPLS_2005

> <r_lp_Energy>
26.6693

> <b_lp_Chiralities_Consistent>
1

> <s_lp_Variant>
AV-unprocessed.smi:2683-1

> <Gold.Version>
5.8.1

> <Gold.Id.Protein>
6NUR|6NUR_protein|mol2

> <Gold.PLP.Fitness>
49.2608

> <Gold.PLP.PLP>
-44.7751

> <Gold.PLP.part.hbond>
-1.0000

> <Gold.PLP.part.metal>
0.0000

> <Gold.PLP.part.buried>
-3.9222

> <Gold.PLP.part.nonpolar>
-38.9471

> <Gold.PLP.part.repulsive>
0.1073

> <Gold.PLP.ligand.clash>
0.0000

> <Gold.PLP.ligand.torsion>
0.7919

> <Gold.PLP.Chemscore.Hbond>
2.0000

> <Gold.PLP.Chemscore.CHOScore>
0.0000

> <Gold.PLP.Chemscore.Metal>
0.0000

> <Gold.Chemscore.Hbonds>
donor molecule, donor type, donor heavy atom, donor atom, acceptor molecule, acceptor atom, score
      L1  H     9    25       P1  8028  2.00

> <Gold.PLP.Chemscore.Internal.Correction>
0.0695

> <Gold.Rescore>
     Score         DG    S(hbond)    S(metal)    S(lipo)     H(rot)  DE(clash)    DE(int)     intcor
     17.07     -17.98       1.00        0.00     112.37       1.55       0.08       0.84       ----

> <Gold.Chemscore.Fitness>
17.0667

> <Gold.Chemscore.DG>
-17.9847

> <Gold.Chemscore.ZeroCoef>
-5.4800

> <Gold.Chemscore.Hbond>
0.9988

> <Gold.Chemscore.Metal>
0.0000

> <Gold.Chemscore.Lipo>
112.3733

> <Gold.Chemscore.Internal_Hbond>
0.0000

> <Gold.Chemscore.DEClash>
0.0827

> <Gold.Chemscore.DEInternal>
0.8353

> <Gold.Chemscore.Rot>
1.5543

> <Gold.Chemscore.Internal.Correction>
   9.000000E+99

> <Gold.Chemscore.Hbonds>
donor molecule, donor type, donor heavy atom, donor atom, acceptor molecule, acceptor atom, score
      L1  H     9    25       P1  8028  0.93

> <Gold.Chemscore.Hbond.Weighted>
-3.3360

> <Gold.Chemscore.Metal.Weighted>
-0.0000

> <Gold.Chemscore.Lipo.Weighted>
-13.1477

> <Gold.Chemscore.Internal_Hbond.Weighted>
0.0000

> <Gold.Chemscore.DEClash.Weighted>
0.0827

> <Gold.Chemscore.DEInternal.Weighted>
0.8353

> <Gold.Chemscore.Rot.Weighted>
3.9789

> <Gold.Chemscore.Internal.Correction.Weighted>
   9.000000E+99

> <Gold.Protein.RotatedTorsions>
[ 6907 6896 6895 6894 ] final  -85.27 input  -60.11 | X-H torsion
[ 7974 7965 7964 7962 ] final  135.62 input  175.53 | X-H torsion
[ 8008 7997 7996 7995 ] final  -37.34 input   59.86 | X-H torsion
[ 10167 10162 10161 10158 ] final  -26.28 input  -65.29 | X-H torsion
[ 10718 10713 10712 10709 ] final  113.68 input   66.30 | X-H torsion
[ 10763 10752 10751 10750 ] final   22.84 input  -60.55 | X-H torsion
[ 11005 11000 10999 10996 ] final -133.74 input  -57.11 | X-H torsion

> <Gold.Protein.ActiveResidues>
 VAL166  LYS551  ARG553  GLY616  TRP617  ASP618  TYR619  PRO620  LYS621  CYS622 
 ASP623  PHE694  ASN695  SER759  ASP760  ASP761  ALA762  ILE779  LEU786  VAL792 
 PHE793  MET794  SER795  GLU796  ALA797  LYS798  CYS799  TRP800  GLU811  SER814 

> <Gold.Protein.RotatedAtoms>
  150.6871  134.3231  159.4794 H   0  0  0  0  0  0  0  0  0  0  0  0  # atno 6907 bound_to 6896
  152.1104  134.9276  160.0576 H   0  0  0  0  0  0  0  0  0  0  0  0  # atno 6908 bound_to 6896
  152.0520  133.3989  159.4418 H   0  0  0  0  0  0  0  0  0  0  0  0  # atno 6909 bound_to 6896
  144.9645  139.4673  143.5463 H   0  0  0  0  0  0  0  0  0  0  0  0  # atno 7974 bound_to 7965
  154.4055  140.1607  156.2521 H   0  0  0  0  0  0  0  0  0  0  0  0  # atno 8008 bound_to 7997
  155.9110  140.3427  155.6076 H   0  0  0  0  0  0  0  0  0  0  0  0  # atno 8009 bound_to 7997
  155.7336  140.0783  157.2268 H   0  0  0  0  0  0  0  0  0  0  0  0  # atno 8010 bound_to 7997
  140.7283  143.4192  151.0979 H   0  0  0  0  0  0  0  0  0  0  0  0  # atno 10167 bound_to 10162
  157.6324  131.0987  150.7076 H   0  0  0  0  0  0  0  0  0  0  0  0  # atno 10718 bound_to 10713
  153.0884  135.6640  153.9902 H   0  0  0  0  0  0  0  0  0  0  0  0  # atno 10763 bound_to 10752
  153.9505  135.2984  155.3440 H   0  0  0  0  0  0  0  0  0  0  0  0  # atno 10764 bound_to 10752
  154.7296  135.5129  153.9014 H   0  0  0  0  0  0  0  0  0  0  0  0  # atno 10765 bound_to 10752
  140.9054  134.1637  157.4430 H   0  0  0  0  0  0  0  0  0  0  0  0  # atno 11005 bound_to 11000
  146.3363  139.8817  142.8823 LP  0  0  0  0  0  0  0  0  0  0  0  0  # atno 17320 bound_to 7965
  145.2650  141.0089  143.3805 LP  0  0  0  0  0  0  0  0  0  0  0  0  # atno 17321 bound_to 7965
  139.7835  143.8320  152.3141 LP  0  0  0  0  0  0  0  0  0  0  0  0  # atno 17342 bound_to 10162
  139.8280  144.7266  150.9487 LP  0  0  0  0  0  0  0  0  0  0  0  0  # atno 17343 bound_to 10162
  156.7413  130.4740  149.5477 LP  0  0  0  0  0  0  0  0  0  0  0  0  # atno 17370 bound_to 10713
  156.1538  130.6328  151.0630 LP  0  0  0  0  0  0  0  0  0  0  0  0  # atno 17371 bound_to 10713
  139.8748  134.9914  156.5550 LP  0  0  0  0  0  0  0  0  0  0  0  0  # atno 17394 bound_to 11000
  140.8178  133.8378  155.8868 LP  0  0  0  0  0  0  0  0  0  0  0  0  # atno 17395 bound_to 11000

$$$$
