AV-unprocessed.smi:2936|AV-procd|sdf|11258|dock5
  -GOLD-   2272016153D 1   1.00000     0.00000
 Structure written by MMmdl.
 24 25  0  0  0  0  0  0  0  0  1 V2000
  152.3855  136.9552  156.2287 O   0  0  0  0  0  0  0  0  0  0  0  0
  152.0529  138.1380  156.1870 C   0  0  0  0  0  0  0  0  0  0  0  0
  151.7114  138.7351  155.0202 N   0  0  0  0  0  0  0  0  0  0  0  0
  151.3229  140.0424  154.8514 N   0  0  0  0  0  0  0  0  0  0  0  0
  151.2702  140.8036  155.8903 C   0  0  0  0  0  0  0  0  0  0  0  0
  151.6038  140.3375  157.2274 C   0  0  0  0  0  0  0  0  0  0  0  0
  151.5290  141.2071  158.3048 N   0  0  0  0  0  0  0  0  0  0  0  0
  150.4119  142.1130  158.5288 C   0  0  0  0  0  0  0  0  0  0  0  0
  150.9175  143.5604  158.6630 C   0  0  0  0  0  0  0  0  0  0  0  0
  151.8989  143.6288  159.6942 O   0  0  0  0  0  0  0  0  0  0  0  0
  153.0275  142.8025  159.4205 C   0  0  0  0  0  0  0  0  0  0  0  0
  152.5758  141.3355  159.3078 C   0  0  0  0  0  0  0  0  0  0  0  0
  151.9823  139.0339  157.3499 C   0  0  0  0  0  0  0  0  0  0  0  0
  152.3987  138.3694  158.8930 Cl  0  0  0  0  0  0  0  0  0  0  0  0
  151.7320  138.1960  154.1665 H   0  0  0  0  0  0  0  0  0  0  0  0
  150.9696  141.8492  155.8190 H   0  0  0  0  0  0  0  0  0  0  0  0
  149.6977  142.0381  157.7080 H   0  0  0  0  0  0  0  0  0  0  0  0
  149.8885  141.8107  159.4364 H   0  0  0  0  0  0  0  0  0  0  0  0
  151.3373  143.9194  157.7226 H   0  0  0  0  0  0  0  0  0  0  0  0
  150.0905  144.2245  158.9147 H   0  0  0  0  0  0  0  0  0  0  0  0
  153.5207  143.1334  158.5056 H   0  0  0  0  0  0  0  0  0  0  0  0
  153.7514  142.9111  160.2282 H   0  0  0  0  0  0  0  0  0  0  0  0
  152.1926  140.9839  160.2662 H   0  0  0  0  0  0  0  0  0  0  0  0
  153.4232  140.6995  159.0494 H   0  0  0  0  0  0  0  0  0  0  0  0
  1  2  2  0  0  0  0
  2 13  1  0  0  0  0
  2  3  1  0  0  0  0
  3 15  1  0  0  0  0
  3  4  1  0  0  0  0
  4  5  2  0  0  0  0
  5  6  1  0  0  0  0
  5 16  1  0  0  0  0
  6  7  1  0  0  0  0
  6 13  2  0  0  0  0
  7 12  1  0  0  0  0
  7  8  1  0  0  0  0
  8  9  1  0  0  0  0
  8 17  1  0  0  0  0
  8 18  1  0  0  0  0
  9 10  1  0  0  0  0
  9 19  1  0  0  0  0
  9 20  1  0  0  0  0
 10 11  1  0  0  0  0
 11 12  1  0  0  0  0
 11 21  1  0  0  0  0
 11 22  1  0  0  0  0
 12 23  1  0  0  0  0
 12 24  1  0  0  0  0
 13 14  1  0  0  0  0
M  END
> <s_m_source_file>
AV-unprocessed.smi

> <i_m_source_file_index>
2936

> <i_lp_mmshare_version>
43012

> <i_f3d_flags>
0

> <s_epik_input>
Tz1jMVtuSF1uW2NIXWMoYzFDbClOMltDSDJdW0NIMl1PW0NIMl1bQ0gyXTI=

> <s_epik_cmdline>
J2VwaWtfcHl0aG9uJywgJy1waCcsICc3LjAnLCAnLXRuJywgJzgnLCAnLW1hJywgJzIwMCcsICctbWV0YWxfYmluZGluZycsICctaW1hZScsICc8aW5maWxlLm1hZT4nLCAnLW9tYWUnLCAnPG91dGZpbGUubWFlPic=

> <r_lp_tautomer_probability>
0.986175

> <r_epik_Ionization_Penalty>
0.0102925

> <r_epik_Ionization_Penalty_Charging>
0.0102925

> <r_epik_Ionization_Penalty_Neutral>
4.87729e-09

> <r_epik_State_Penalty>
1.65855

> <r_epik_Charging_Adjusted_Penalty>
1.66884

> <i_epik_Tot_Q>
0

> <i_epik_Tot_abs_Q>
0

> <r_epik_Metal_State_Penalty>
3.9956

> <b_epik_Metal_Only>
0

> <s_lp_Force_Field>
OPLS_2005

> <r_lp_Energy>
35.1147

> <b_lp_Chiralities_Consistent>
1

> <s_lp_Variant>
AV-unprocessed.smi:2936-2

> <Gold.Version>
5.8.1

> <Gold.Id.Protein>
6NUR|6NUR_protein|mol2

> <Gold.PLP.Fitness>
29.4251

> <Gold.PLP.PLP>
-23.4491

> <Gold.PLP.part.hbond>
-2.0000

> <Gold.PLP.part.metal>
0.0000

> <Gold.PLP.part.buried>
-4.9261

> <Gold.PLP.part.nonpolar>
-16.9329

> <Gold.PLP.part.repulsive>
0.2281

> <Gold.PLP.ligand.clash>
0.0000

> <Gold.PLP.ligand.torsion>
0.7750

> <Gold.PLP.Chemscore.Hbond>
1.9920

> <Gold.PLP.Chemscore.CHOScore>
0.0000

> <Gold.PLP.Chemscore.Metal>
0.0000

> <Gold.Chemscore.Hbonds>
donor molecule, donor type, donor heavy atom, donor atom, acceptor molecule, acceptor atom, score
      P1  H  7989  7998       L1     4  1.00
      P1  H 10752 10765       L1     1  0.98

> <Gold.PLP.Chemscore.Internal.Correction>
1.5501

> <Gold.Rescore>
     Score         DG    S(hbond)    S(metal)    S(lipo)     H(rot)  DE(clash)    DE(int)     intcor
     16.89     -18.49       1.83        0.00      58.94       0.00       0.00       1.61       ----

> <Gold.Chemscore.Fitness>
16.8869

> <Gold.Chemscore.DG>
-18.4930

> <Gold.Chemscore.ZeroCoef>
-5.4800

> <Gold.Chemscore.Hbond>
1.8315

> <Gold.Chemscore.Metal>
0.0000

> <Gold.Chemscore.Lipo>
58.9400

> <Gold.Chemscore.Internal_Hbond>
0.0000

> <Gold.Chemscore.DEClash>
0.0000

> <Gold.Chemscore.DEInternal>
1.6061

> <Gold.Chemscore.Rot>
0.0000

> <Gold.Chemscore.Internal.Correction>
   9.000000E+99

> <Gold.Chemscore.Hbonds>
donor molecule, donor type, donor heavy atom, donor atom, acceptor molecule, acceptor atom, score
      P1  H  7989  7998       L1     4  0.80
      P1  H 10752 10765       L1     1  0.87

> <Gold.Chemscore.Hbond.Weighted>
-6.1170

> <Gold.Chemscore.Metal.Weighted>
-0.0000

> <Gold.Chemscore.Lipo.Weighted>
-6.8960

> <Gold.Chemscore.Internal_Hbond.Weighted>
0.0000

> <Gold.Chemscore.DEClash.Weighted>
0.0000

> <Gold.Chemscore.DEInternal.Weighted>
1.6061

> <Gold.Chemscore.Rot.Weighted>
0.0000

> <Gold.Chemscore.Internal.Correction.Weighted>
   9.000000E+99

> <Gold.Protein.RotatedTorsions>
[ 6907 6896 6895 6894 ] final   32.90 input  -60.11 | X-H torsion
[ 7974 7965 7964 7962 ] final  -46.31 input  175.53 | X-H torsion
[ 8008 7997 7996 7995 ] final  -64.66 input   59.86 | X-H torsion
[ 10167 10162 10161 10158 ] final  124.62 input  -65.29 | X-H torsion
[ 10718 10713 10712 10709 ] final  157.27 input   66.30 | X-H torsion
[ 10763 10752 10751 10750 ] final -148.91 input  -60.55 | X-H torsion
[ 11005 11000 10999 10996 ] final   -0.79 input  -57.11 | X-H torsion

> <Gold.Protein.ActiveResidues>
 VAL166  LYS551  ARG553  GLY616  TRP617  ASP618  TYR619  PRO620  LYS621  CYS622 
 ASP623  PHE694  ASN695  SER759  ASP760  ASP761  ALA762  ILE779  LEU786  VAL792 
 PHE793  MET794  SER795  GLU796  ALA797  LYS798  CYS799  TRP800  GLU811  SER814 

> <Gold.Protein.RotatedAtoms>
  152.0810  134.9471  160.0573 H   0  0  0  0  0  0  0  0  0  0  0  0  # atno 6907 bound_to 6896
  152.0760  133.4124  159.4488 H   0  0  0  0  0  0  0  0  0  0  0  0  # atno 6908 bound_to 6896
  150.6836  134.2957  159.4729 H   0  0  0  0  0  0  0  0  0  0  0  0  # atno 6909 bound_to 6896
  145.9732  140.7362  142.9400 H   0  0  0  0  0  0  0  0  0  0  0  0  # atno 7974 bound_to 7965
  154.4625  140.0949  156.6931 H   0  0  0  0  0  0  0  0  0  0  0  0  # atno 8008 bound_to 7997
  155.4954  140.3472  155.4343 H   0  0  0  0  0  0  0  0  0  0  0  0  # atno 8009 bound_to 7997
  156.0896  140.1394  156.9598 H   0  0  0  0  0  0  0  0  0  0  0  0  # atno 8010 bound_to 7997
  139.5731  144.6949  151.3725 H   0  0  0  0  0  0  0  0  0  0  0  0  # atno 10167 bound_to 10162
  157.1937  131.0660  151.2065 H   0  0  0  0  0  0  0  0  0  0  0  0  # atno 10718 bound_to 10713
  154.8207  135.3322  154.7048 H   0  0  0  0  0  0  0  0  0  0  0  0  # atno 10763 bound_to 10752
  153.7681  135.6927  153.4916 H   0  0  0  0  0  0  0  0  0  0  0  0  # atno 10764 bound_to 10752
  153.2064  135.4498  155.0276 H   0  0  0  0  0  0  0  0  0  0  0  0  # atno 10765 bound_to 10752
  140.6402  133.9496  155.8322 H   0  0  0  0  0  0  0  0  0  0  0  0  # atno 11005 bound_to 11000
  144.6842  140.2783  143.7296 LP  0  0  0  0  0  0  0  0  0  0  0  0  # atno 17320 bound_to 7965
  145.7877  139.1915  143.2121 LP  0  0  0  0  0  0  0  0  0  0  0  0  # atno 17321 bound_to 7965
  140.7015  143.7620  150.7411 LP  0  0  0  0  0  0  0  0  0  0  0  0  # atno 17342 bound_to 10162
  140.1132  143.4680  152.2358 LP  0  0  0  0  0  0  0  0  0  0  0  0  # atno 17343 bound_to 10162
  157.3835  130.7244  149.6647 LP  0  0  0  0  0  0  0  0  0  0  0  0  # atno 17370 bound_to 10713
  155.9708  130.4166  150.4238 LP  0  0  0  0  0  0  0  0  0  0  0  0  # atno 17371 bound_to 10713
  141.0612  134.0343  157.3655 LP  0  0  0  0  0  0  0  0  0  0  0  0  # atno 17394 bound_to 11000
  139.9083  135.0185  156.7582 LP  0  0  0  0  0  0  0  0  0  0  0  0  # atno 17395 bound_to 11000

$$$$
