AV-unprocessed.smi:2496|AV-procd|sdf|9825|dock9
  -GOLD-   2272013453D 1   1.00000     0.00000
 Structure written by MMmdl.
 40 40  0  0  0  0  0  0  0  0  1 V2000
  152.1013  135.8908  156.7997 C   0  0  0  0  0  0  0  0  0  0  0  0
  151.6367  137.1434  156.1129 C   0  0  0  0  0  0  0  0  0  0  0  0
  151.5610  137.1644  154.7916 N   0  0  0  0  0  0  0  0  0  0  0  0
  151.1333  138.4068  154.5135 N   0  0  0  0  0  0  0  0  0  0  0  0
  150.9382  139.1772  155.6355 C   0  0  0  0  0  0  0  0  0  0  0  0
  150.4754  140.5933  155.5368 C   0  0  0  0  0  0  0  0  0  0  0  0
  151.2534  138.3845  156.7101 C   0  0  0  0  0  0  0  0  0  0  0  0
  151.2345  138.7073  158.1905 C   0  0  2  0  0  0  0  0  0  0  0  0
  149.8472  139.1790  158.6655 C   0  0  0  0  0  0  0  0  0  0  0  0
  152.3526  139.7132  158.5033 C   0  0  0  0  0  0  0  0  0  0  0  0
  153.5332  139.4253  158.3031 O   0  0  0  0  0  0  0  0  0  0  0  0
  151.9525  140.8927  159.0114 N   0  0  0  0  0  0  0  0  0  0  0  0
  152.7963  142.0016  159.4658 C   0  0  2  0  0  0  0  0  0  0  0  0
  153.7281  141.5452  160.6072 C   0  0  0  0  0  0  0  0  0  0  0  0
  151.9713  143.2796  159.7923 C   0  0  0  0  0  0  0  0  0  0  0  0
  152.1346  144.3741  158.7192 C   0  0  0  0  0  0  0  0  0  0  0  0
  152.3219  143.8596  161.1742 C   0  0  0  0  0  0  0  0  0  0  0  0
  150.9834  138.7149  153.5633 H   0  0  0  0  0  0  0  0  0  0  0  0
  153.0426  136.0619  157.3221 H   0  0  0  0  0  0  0  0  0  0  0  0
  152.2583  135.0744  156.0937 H   0  0  0  0  0  0  0  0  0  0  0  0
  151.3693  135.5548  157.5341 H   0  0  0  0  0  0  0  0  0  0  0  0
  151.0189  141.2316  156.2331 H   0  0  0  0  0  0  0  0  0  0  0  0
  149.4126  140.6687  155.7660 H   0  0  0  0  0  0  0  0  0  0  0  0
  150.6310  140.9898  154.5333 H   0  0  0  0  0  0  0  0  0  0  0  0
  151.4663  137.8105  158.7663 H   0  0  0  0  0  0  0  0  0  0  0  0
  149.5324  140.0977  158.1708 H   0  0  0  0  0  0  0  0  0  0  0  0
  149.8421  139.3661  159.7400 H   0  0  0  0  0  0  0  0  0  0  0  0
  149.0904  138.4204  158.4640 H   0  0  0  0  0  0  0  0  0  0  0  0
  150.9584  141.0200  159.1332 H   0  0  0  0  0  0  0  0  0  0  0  0
  153.4338  142.2336  158.6119 H   0  0  0  0  0  0  0  0  0  0  0  0
  154.5218  142.2692  160.7889 H   0  0  0  0  0  0  0  0  0  0  0  0
  154.2135  140.5997  160.3627 H   0  0  0  0  0  0  0  0  0  0  0  0
  153.1862  141.4088  161.5432 H   0  0  0  0  0  0  0  0  0  0  0  0
  150.9150  143.0107  159.8200 H   0  0  0  0  0  0  0  0  0  0  0  0
  153.1796  144.6642  158.6069 H   0  0  0  0  0  0  0  0  0  0  0  0
  151.5690  145.2686  158.9814 H   0  0  0  0  0  0  0  0  0  0  0  0
  151.7734  144.0476  157.7442 H   0  0  0  0  0  0  0  0  0  0  0  0
  153.3835  144.0973  161.2467 H   0  0  0  0  0  0  0  0  0  0  0  0
  152.0771  143.1656  161.9779 H   0  0  0  0  0  0  0  0  0  0  0  0
  151.7638  144.7760  161.3684 H   0  0  0  0  0  0  0  0  0  0  0  0
  1  2  1  0  0  0  0
  1 19  1  0  0  0  0
  1 20  1  0  0  0  0
  1 21  1  0  0  0  0
  2  7  1  0  0  0  0
  2  3  2  0  0  0  0
  3  4  1  0  0  0  0
  4 18  1  0  0  0  0
  4  5  1  0  0  0  0
  5  6  1  0  0  0  0
  5  7  2  0  0  0  0
  6 22  1  0  0  0  0
  6 23  1  0  0  0  0
  6 24  1  0  0  0  0
  7  8  1  0  0  0  0
  8  9  1  0  0  0  0
  8 10  1  0  0  0  0
  8 25  1  0  0  0  0
  9 26  1  0  0  0  0
  9 27  1  0  0  0  0
  9 28  1  0  0  0  0
 10 11  2  0  0  0  0
 10 12  1  0  0  0  0
 12 13  1  0  0  0  0
 12 29  1  0  0  0  0
 13 14  1  0  0  0  0
 13 15  1  0  0  0  0
 13 30  1  0  0  0  0
 14 31  1  0  0  0  0
 14 32  1  0  0  0  0
 14 33  1  0  0  0  0
 15 16  1  0  0  0  0
 15 17  1  0  0  0  0
 15 34  1  0  0  0  0
 16 35  1  0  0  0  0
 16 36  1  0  0  0  0
 16 37  1  0  0  0  0
 17 38  1  0  0  0  0
 17 39  1  0  0  0  0
 17 40  1  0  0  0  0
M  END
> <s_m_source_file>
AV-unprocessed.smi

> <i_m_source_file_index>
2496

> <i_lp_mmshare_version>
43012

> <i_f3d_flags>
0

> <s_epik_input>
W0NIM11jMW5bbkhdYyhbQ0gzXSljMVtDQEhdKFtDSDNdKUMoPU8pW05IXVtDQEhdKFtDSDNdKVtDSF0oW0NIM10pW0NIM10=

> <s_epik_cmdline>
J2VwaWtfcHl0aG9uJywgJy1waCcsICc3LjAnLCAnLXRuJywgJzgnLCAnLW1hJywgJzIwMCcsICctbWV0YWxfYmluZGluZycsICctaW1hZScsICc8aW5maWxlLm1hZT4nLCAnLW9tYWUnLCAnPG91dGZpbGUubWFlPic=

> <r_lp_tautomer_probability>
1

> <r_epik_Ionization_Penalty>
0.000456212

> <r_epik_Ionization_Penalty_Charging>
0

> <r_epik_Ionization_Penalty_Neutral>
0.000456212

> <r_epik_State_Penalty>
-0

> <r_epik_Charging_Adjusted_Penalty>
0

> <i_epik_Tot_Q>
0

> <i_epik_Tot_abs_Q>
0

> <r_epik_Metal_State_Penalty>
-0

> <b_epik_Metal_Only>
0

> <s_lp_Force_Field>
OPLS_2005

> <r_lp_Energy>
1.67244

> <b_lp_Chiralities_Consistent>
1

> <s_lp_Variant>
AV-unprocessed.smi:2496-1

> <Gold.Version>
5.8.1

> <Gold.Id.Protein>
6NUR|6NUR_protein|mol2

> <Gold.PLP.Fitness>
34.3126

> <Gold.PLP.PLP>
-31.8383

> <Gold.PLP.part.hbond>
-2.0000

> <Gold.PLP.part.metal>
0.0000

> <Gold.PLP.part.buried>
-1.6412

> <Gold.PLP.part.nonpolar>
-28.0560

> <Gold.PLP.part.repulsive>
0.3828

> <Gold.PLP.ligand.clash>
0.4858

> <Gold.PLP.ligand.torsion>
1.5864

> <Gold.PLP.Chemscore.Hbond>
1.9913

> <Gold.PLP.Chemscore.CHOScore>
0.0000

> <Gold.PLP.Chemscore.Metal>
0.0000

> <Gold.Chemscore.Hbonds>
donor molecule, donor type, donor heavy atom, donor atom, acceptor molecule, acceptor atom, score
      P1  H  7997  8009       L1    11  1.00
      P1  H 10752 10763       L1     3  0.80

> <Gold.PLP.Chemscore.Internal.Correction>
0.1590

> <Gold.Rescore>
     Score         DG    S(hbond)    S(metal)    S(lipo)     H(rot)  DE(clash)    DE(int)     intcor
     15.43     -18.23       1.77        0.00      90.39       1.47       0.05       2.74       ----

> <Gold.Chemscore.Fitness>
15.4344

> <Gold.Chemscore.DG>
-18.2298

> <Gold.Chemscore.ZeroCoef>
-5.4800

> <Gold.Chemscore.Hbond>
1.7749

> <Gold.Chemscore.Metal>
0.0000

> <Gold.Chemscore.Lipo>
90.3854

> <Gold.Chemscore.Internal_Hbond>
0.0000

> <Gold.Chemscore.DEClash>
0.0515

> <Gold.Chemscore.DEInternal>
2.7439

> <Gold.Chemscore.Rot>
1.4662

> <Gold.Chemscore.Internal.Correction>
   9.000000E+99

> <Gold.Chemscore.Hbonds>
donor molecule, donor type, donor heavy atom, donor atom, acceptor molecule, acceptor atom, score
      P1  H  7997  8009       L1    11  0.98
      P1  H 10752 10763       L1     3  0.26

> <Gold.Chemscore.Hbond.Weighted>
-5.9282

> <Gold.Chemscore.Metal.Weighted>
-0.0000

> <Gold.Chemscore.Lipo.Weighted>
-10.5751

> <Gold.Chemscore.Internal_Hbond.Weighted>
0.0000

> <Gold.Chemscore.DEClash.Weighted>
0.0515

> <Gold.Chemscore.DEInternal.Weighted>
2.7439

> <Gold.Chemscore.Rot.Weighted>
3.7534

> <Gold.Chemscore.Internal.Correction.Weighted>
   9.000000E+99

> <Gold.Protein.RotatedTorsions>
[ 6907 6896 6895 6894 ] final   92.18 input  -60.11 | X-H torsion
[ 7974 7965 7964 7962 ] final  -14.33 input  175.53 | X-H torsion
[ 8008 7997 7996 7995 ] final  132.50 input   59.86 | X-H torsion
[ 10167 10162 10161 10158 ] final -107.19 input  -65.29 | X-H torsion
[ 10718 10713 10712 10709 ] final   89.75 input   66.30 | X-H torsion
[ 10763 10752 10751 10750 ] final   37.92 input  -60.55 | X-H torsion
[ 11005 11000 10999 10996 ] final  167.29 input  -57.11 | X-H torsion

> <Gold.Protein.ActiveResidues>
 VAL166  LYS551  ARG553  GLY616  TRP617  ASP618  TYR619  PRO620  LYS621  CYS622 
 ASP623  PHE694  ASN695  SER759  ASP760  ASP761  ALA762  ILE779  LEU786  VAL792 
 PHE793  MET794  SER795  GLU796  ALA797  LYS798  CYS799  TRP800  GLU811  SER814 

> <Gold.Protein.RotatedAtoms>
  152.5452  134.1542  159.8530 H   0  0  0  0  0  0  0  0  0  0  0  0  # atno 6907 bound_to 6896
  151.1566  133.4865  159.2602 H   0  0  0  0  0  0  0  0  0  0  0  0  # atno 6908 bound_to 6896
  151.1416  135.0193  159.8683 H   0  0  0  0  0  0  0  0  0  0  0  0  # atno 6909 bound_to 6896
  146.2078  140.3333  142.8401 H   0  0  0  0  0  0  0  0  0  0  0  0  # atno 7974 bound_to 7965
  156.2983  140.2545  156.3100 H   0  0  0  0  0  0  0  0  0  0  0  0  # atno 8008 bound_to 7997
  154.9335  140.0398  157.2079 H   0  0  0  0  0  0  0  0  0  0  0  0  # atno 8009 bound_to 7997
  154.8195  140.2857  155.5801 H   0  0  0  0  0  0  0  0  0  0  0  0  # atno 8010 bound_to 7997
  140.1796  143.3977  152.1291 H   0  0  0  0  0  0  0  0  0  0  0  0  # atno 10167 bound_to 10162
  157.6956  131.0345  150.3473 H   0  0  0  0  0  0  0  0  0  0  0  0  # atno 10718 bound_to 10713
  153.0020  135.6264  154.2221 H   0  0  0  0  0  0  0  0  0  0  0  0  # atno 10763 bound_to 10752
  154.1964  135.2806  155.3007 H   0  0  0  0  0  0  0  0  0  0  0  0  # atno 10764 bound_to 10752
  154.5718  135.5674  153.7162 H   0  0  0  0  0  0  0  0  0  0  0  0  # atno 10765 bound_to 10752
  140.2753  134.7794  157.3711 H   0  0  0  0  0  0  0  0  0  0  0  0  # atno 11005 bound_to 11000
  144.8837  140.7434  143.5970 LP  0  0  0  0  0  0  0  0  0  0  0  0  # atno 17320 bound_to 7965
  145.3254  139.1775  143.4565 LP  0  0  0  0  0  0  0  0  0  0  0  0  # atno 17321 bound_to 7965
  139.5302  144.7150  151.5084 LP  0  0  0  0  0  0  0  0  0  0  0  0  # atno 17342 bound_to 10162
  140.6528  143.8661  150.6803 LP  0  0  0  0  0  0  0  0  0  0  0  0  # atno 17343 bound_to 10162
  156.3926  130.3900  149.7019 LP  0  0  0  0  0  0  0  0  0  0  0  0  # atno 17370 bound_to 10713
  156.4363  130.7839  151.2860 LP  0  0  0  0  0  0  0  0  0  0  0  0  # atno 17371 bound_to 10713
  140.1334  134.5065  155.8087 LP  0  0  0  0  0  0  0  0  0  0  0  0  # atno 17394 bound_to 11000
  141.2171  133.6798  156.7081 LP  0  0  0  0  0  0  0  0  0  0  0  0  # atno 17395 bound_to 11000

$$$$
