AV-unprocessed.smi:3311|AV-procd|sdf|12725|dock2
  -GOLD-   2272019 63D 1   1.00000     0.00000
 Structure written by MMmdl.
 43 44  0  0  0  0  0  0  0  0  1 V2000
  146.8173  137.8509  155.3976 C   0  0  0  0  0  0  0  0  0  0  0  0
  146.3356  137.9108  153.9303 C   0  0  2  0  0  0  0  0  0  0  0  0
  146.2991  136.5702  153.3333 N   0  0  0  0  0  0  0  0  0  0  0  0
  145.0697  136.2242  152.6157 C   0  0  0  0  0  0  0  0  0  0  0  0
  145.2640  135.0260  151.6591 C   0  0  0  0  0  0  0  0  0  0  0  0
  146.1073  135.4639  150.6082 O   0  0  0  0  0  0  0  0  0  0  0  0
  145.8957  133.7984  152.3646 C   0  0  0  0  0  0  0  0  0  0  0  0
  145.9589  132.5527  151.4625 C   0  0  0  0  0  0  0  0  0  0  0  0
  144.5777  132.2004  150.8940 C   0  0  0  0  0  0  0  0  0  0  0  0
  143.9774  133.3928  150.1371 C   0  0  0  0  0  0  0  0  0  0  0  0
  143.9015  134.6416  151.0340 C   0  0  0  0  0  0  0  0  0  0  0  0
  147.2022  138.8479  153.0462 C   0  0  1  0  0  0  0  0  0  0  0  0
  146.6422  138.9995  151.6193 C   0  0  0  0  0  0  0  0  0  0  0  0
  147.3711  140.1674  153.6435 N   0  0  0  0  0  0  0  0  0  0  0  0
  146.4197  141.1447  153.8604 C   0  0  0  0  0  0  0  0  0  0  0  0
  147.0495  142.2069  154.4429 C   0  0  0  0  0  0  0  0  0  0  0  0
  148.4039  141.7830  154.5412 C   0  0  0  0  0  0  0  0  0  0  0  0
  148.5934  140.5646  154.0615 N   0  0  0  0  0  0  0  0  0  0  0  0
  146.8354  138.8368  155.8610 H   0  0  0  0  0  0  0  0  0  0  0  0
  147.8240  137.4372  155.4648 H   0  0  0  0  0  0  0  0  0  0  0  0
  146.1628  137.2411  156.0191 H   0  0  0  0  0  0  0  0  0  0  0  0
  145.3229  138.3161  153.9368 H   0  0  0  0  0  0  0  0  0  0  0  0
  147.0904  136.4583  152.7069 H   0  0  0  0  0  0  0  0  0  0  0  0
  144.2834  135.9758  153.3278 H   0  0  0  0  0  0  0  0  0  0  0  0
  144.7136  137.0865  152.0502 H   0  0  0  0  0  0  0  0  0  0  0  0
  146.9756  135.5940  150.9577 H   0  0  0  0  0  0  0  0  0  0  0  0
  146.9005  134.0316  152.7186 H   0  0  0  0  0  0  0  0  0  0  0  0
  145.3109  133.5582  153.2536 H   0  0  0  0  0  0  0  0  0  0  0  0
  146.6591  132.7245  150.6441 H   0  0  0  0  0  0  0  0  0  0  0  0
  146.3518  131.7075  152.0283 H   0  0  0  0  0  0  0  0  0  0  0  0
  144.6563  131.3385  150.2305 H   0  0  0  0  0  0  0  0  0  0  0  0
  143.9103  131.9073  151.7054 H   0  0  0  0  0  0  0  0  0  0  0  0
  144.5782  133.6064  149.2524 H   0  0  0  0  0  0  0  0  0  0  0  0
  142.9814  133.1368  149.7751 H   0  0  0  0  0  0  0  0  0  0  0  0
  143.1831  134.4491  151.8322 H   0  0  0  0  0  0  0  0  0  0  0  0
  143.4968  135.4786  150.4631 H   0  0  0  0  0  0  0  0  0  0  0  0
  148.1952  138.4013  152.9617 H   0  0  0  0  0  0  0  0  0  0  0  0
  146.6142  138.0442  151.0949 H   0  0  0  0  0  0  0  0  0  0  0  0
  147.2615  139.6736  151.0267 H   0  0  0  0  0  0  0  0  0  0  0  0
  145.6286  139.4014  151.6288 H   0  0  0  0  0  0  0  0  0  0  0  0
  145.3845  141.0025  153.5869 H   0  0  0  0  0  0  0  0  0  0  0  0
  146.6101  143.1439  154.7513 H   0  0  0  0  0  0  0  0  0  0  0  0
  149.2494  142.3208  154.9442 H   0  0  0  0  0  0  0  0  0  0  0  0
  1  2  1  0  0  0  0
  1 19  1  0  0  0  0
  1 20  1  0  0  0  0
  1 21  1  0  0  0  0
  2  3  1  0  0  0  0
  2 12  1  0  0  0  0
  2 22  1  0  0  0  0
  3  4  1  0  0  0  0
  3 23  1  0  0  0  0
  4  5  1  0  0  0  0
  4 24  1  0  0  0  0
  4 25  1  0  0  0  0
  5 11  1  0  0  0  0
  5  6  1  0  0  0  0
  5  7  1  0  0  0  0
  6 26  1  0  0  0  0
  7  8  1  0  0  0  0
  7 27  1  0  0  0  0
  7 28  1  0  0  0  0
  8  9  1  0  0  0  0
  8 29  1  0  0  0  0
  8 30  1  0  0  0  0
  9 10  1  0  0  0  0
  9 31  1  0  0  0  0
  9 32  1  0  0  0  0
 10 11  1  0  0  0  0
 10 33  1  0  0  0  0
 10 34  1  0  0  0  0
 11 35  1  0  0  0  0
 11 36  1  0  0  0  0
 12 13  1  0  0  0  0
 12 14  1  0  0  0  0
 12 37  1  0  0  0  0
 13 38  1  0  0  0  0
 13 39  1  0  0  0  0
 13 40  1  0  0  0  0
 14 18  1  0  0  0  0
 14 15  1  0  0  0  0
 15 16  2  0  0  0  0
 15 41  1  0  0  0  0
 16 17  1  0  0  0  0
 16 42  1  0  0  0  0
 17 18  2  0  0  0  0
 17 43  1  0  0  0  0
M  END
> <s_m_source_file>
AV-unprocessed.smi

> <i_m_source_file_index>
3311

> <i_lp_mmshare_version>
43012

> <i_f3d_flags>
0

> <s_epik_input>
bjFbY0hdW2NIXVtjSF1uMVtDQEBIXShbQ0gzXSlbQ0BIXShbQ0gzXSlbTkhdW0NIMl1DMihbT0hdKVtDSDJdW0NIMl1bQ0gyXVtDSDJdW0NIMl0y

> <s_epik_cmdline>
J2VwaWtfcHl0aG9uJywgJy1waCcsICc3LjAnLCAnLXRuJywgJzgnLCAnLW1hJywgJzIwMCcsICctbWV0YWxfYmluZGluZycsICctaW1hZScsICc8aW5maWxlLm1hZT4nLCAnLW9tYWUnLCAnPG91dGZpbGUubWFlPic=

> <r_lp_tautomer_probability>
1

> <r_epik_Ionization_Penalty>
2.222

> <r_epik_Ionization_Penalty_Charging>
0

> <r_epik_Ionization_Penalty_Neutral>
2.222

> <r_epik_State_Penalty>
2.36562

> <r_epik_Charging_Adjusted_Penalty>
2.36562

> <i_epik_Tot_Q>
0

> <i_epik_Tot_abs_Q>
0

> <r_epik_Metal_State_Penalty>
2.36435

> <b_epik_Metal_Only>
0

> <s_lp_Force_Field>
OPLS_2005

> <r_lp_Energy>
27.677

> <b_lp_Chiralities_Consistent>
1

> <s_lp_Variant>
AV-unprocessed.smi:3311-7

> <Gold.Version>
5.8.1

> <Gold.Id.Protein>
6NUR|6NUR_protein|mol2

> <Gold.PLP.Fitness>
39.6482

> <Gold.PLP.PLP>
-29.9154

> <Gold.PLP.part.hbond>
-3.0000

> <Gold.PLP.part.metal>
0.0000

> <Gold.PLP.part.buried>
3.4272

> <Gold.PLP.part.nonpolar>
-31.2948

> <Gold.PLP.part.repulsive>
0.1319

> <Gold.PLP.ligand.clash>
0.0000

> <Gold.PLP.ligand.torsion>
0.8435

> <Gold.PLP.Chemscore.Hbond>
1.9913

> <Gold.PLP.Chemscore.CHOScore>
1.7839

> <Gold.PLP.Chemscore.Metal>
0.0000

> <Gold.Chemscore.Hbonds>
donor molecule, donor type, donor heavy atom, donor atom, acceptor molecule, acceptor atom, score
      L1  H     3    23       P1  7948  0.94
      L1  H     6    26       P1  7948  0.55
      L1  C    15    41       P1 10175  1.00
      L1  C    17    43       P1  8028  0.74

> <Gold.PLP.Chemscore.Internal.Correction>
0.0944

> <Gold.Rescore>
     Score         DG    S(hbond)    S(metal)    S(lipo)     H(rot)  DE(clash)    DE(int)     intcor
     13.71     -15.85       1.84        0.00      81.33       2.07       1.40       0.74       ----

> <Gold.Chemscore.Fitness>
13.7127

> <Gold.Chemscore.DG>
-15.8513

> <Gold.Chemscore.ZeroCoef>
-5.4800

> <Gold.Chemscore.Hbond>
1.8417

> <Gold.Chemscore.Metal>
0.0000

> <Gold.Chemscore.Lipo>
81.3303

> <Gold.Chemscore.Internal_Hbond>
0.0000

> <Gold.Chemscore.DEClash>
1.4021

> <Gold.Chemscore.DEInternal>
0.7365

> <Gold.Chemscore.Rot>
2.0686

> <Gold.Chemscore.Internal.Correction>
   9.000000E+99

> <Gold.Chemscore.Hbonds>
donor molecule, donor type, donor heavy atom, donor atom, acceptor molecule, acceptor atom, score
      L1  H     3    23       P1  7948  0.90
      L1  H     6    26       P1  7948  0.48

> <Gold.Chemscore.Hbond.Weighted>
-6.1513

> <Gold.Chemscore.Metal.Weighted>
-0.0000

> <Gold.Chemscore.Lipo.Weighted>
-9.5156

> <Gold.Chemscore.Internal_Hbond.Weighted>
0.0000

> <Gold.Chemscore.DEClash.Weighted>
1.4021

> <Gold.Chemscore.DEInternal.Weighted>
0.7365

> <Gold.Chemscore.Rot.Weighted>
5.2957

> <Gold.Chemscore.Internal.Correction.Weighted>
   9.000000E+99

> <Gold.Protein.RotatedTorsions>
[ 6907 6896 6895 6894 ] final  138.39 input  -60.11 | X-H torsion
[ 7974 7965 7964 7962 ] final -122.49 input  175.53 | X-H torsion
[ 8008 7997 7996 7995 ] final  -32.54 input   59.86 | X-H torsion
[ 10167 10162 10161 10158 ] final  -75.30 input  -65.29 | X-H torsion
[ 10718 10713 10712 10709 ] final  -77.23 input   66.30 | X-H torsion
[ 10763 10752 10751 10750 ] final  123.49 input  -60.55 | X-H torsion
[ 11005 11000 10999 10996 ] final  -64.52 input  -57.11 | X-H torsion

> <Gold.Protein.ActiveResidues>
 VAL166  LYS551  ARG553  GLY616  TRP617  ASP618  TYR619  PRO620  LYS621  CYS622 
 ASP623  PHE694  ASN695  SER759  ASP760  ASP761  ALA762  ILE779  LEU786  VAL792 
 PHE793  MET794  SER795  GLU796  ALA797  LYS798  CYS799  TRP800  GLU811  SER814 

> <Gold.Protein.RotatedAtoms>
  152.2672  133.5349  159.5416 H   0  0  0  0  0  0  0  0  0  0  0  0  # atno 6907 bound_to 6896
  150.7146  134.0748  159.3886 H   0  0  0  0  0  0  0  0  0  0  0  0  # atno 6908 bound_to 6896
  151.8664  135.0505  160.0525 H   0  0  0  0  0  0  0  0  0  0  0  0  # atno 6909 bound_to 6896
  145.0288  140.8050  143.4336 H   0  0  0  0  0  0  0  0  0  0  0  0  # atno 7974 bound_to 7965
  154.4177  140.1734  156.1744 H   0  0  0  0  0  0  0  0  0  0  0  0  # atno 8008 bound_to 7997
  155.9734  140.3384  155.6572 H   0  0  0  0  0  0  0  0  0  0  0  0  # atno 8009 bound_to 7997
  155.6595  140.0699  157.2549 H   0  0  0  0  0  0  0  0  0  0  0  0  # atno 8010 bound_to 7997
  140.4954  143.2371  151.7839 H   0  0  0  0  0  0  0  0  0  0  0  0  # atno 10167 bound_to 10162
  156.0151  130.4486  150.3314 H   0  0  0  0  0  0  0  0  0  0  0  0  # atno 10718 bound_to 10713
  153.6463  135.3370  155.3086 H   0  0  0  0  0  0  0  0  0  0  0  0  # atno 10763 bound_to 10752
  154.8548  135.4330  154.1951 H   0  0  0  0  0  0  0  0  0  0  0  0  # atno 10764 bound_to 10752
  153.2882  135.7015  153.7393 H   0  0  0  0  0  0  0  0  0  0  0  0  # atno 10765 bound_to 10752
  141.1427  133.6667  156.5845 H   0  0  0  0  0  0  0  0  0  0  0  0  # atno 11005 bound_to 11000
  145.1797  139.2358  143.5299 LP  0  0  0  0  0  0  0  0  0  0  0  0  # atno 17320 bound_to 7965
  146.3496  140.1568  142.8591 LP  0  0  0  0  0  0  0  0  0  0  0  0  # atno 17321 bound_to 7965
  139.4860  144.4594  151.9559 LP  0  0  0  0  0  0  0  0  0  0  0  0  # atno 17342 bound_to 10162
  140.3681  144.2889  150.5923 LP  0  0  0  0  0  0  0  0  0  0  0  0  # atno 17343 bound_to 10162
  157.1412  131.0297  151.2927 LP  0  0  0  0  0  0  0  0  0  0  0  0  # atno 17370 bound_to 10713
  157.4471  130.7577  149.7118 LP  0  0  0  0  0  0  0  0  0  0  0  0  # atno 17371 bound_to 10713
  140.3811  134.7522  157.4662 LP  0  0  0  0  0  0  0  0  0  0  0  0  # atno 17394 bound_to 11000
  140.0637  134.5960  155.8720 LP  0  0  0  0  0  0  0  0  0  0  0  0  # atno 17395 bound_to 11000

$$$$
