AV-unprocessed.smi:861|AV-procd|sdf|3968|dock10
  -GOLD-   22720 1443D 1   1.00000     0.00000
 Structure written by MMmdl.
 44 45  0  0  0  0  0  0  0  0  2 V2000
  150.9113  140.2572  155.8521 C   0  0  0  0  0  0  0  0  0  0  0  0
  149.9767  140.0364  154.6508 C   0  0  0  0  0  0  0  0  0  0  0  0
  149.0227  141.2299  154.4897 C   0  0  0  0  0  0  0  0  0  0  0  0
  149.1838  138.7177  154.7559 C   0  0  0  0  0  0  0  0  0  0  0  0
  150.0383  137.5051  155.1759 C   0  0  0  0  0  0  0  0  0  0  0  0
  149.3679  136.2068  154.8968 N   0  3  1  0  0  0  0  0  0  0  0  0
  150.2505  135.0318  155.0965 C   0  0  0  0  0  0  0  0  0  0  0  0
  150.3940  134.6917  156.5909 C   0  0  0  0  0  0  0  0  0  0  0  0
  149.1055  134.4789  157.1546 O   0  0  0  0  0  0  0  0  0  0  0  0
  148.2769  135.6348  157.0858 C   0  0  2  0  0  0  0  0  0  0  0  0
  146.9630  135.2988  157.8140 C   0  0  0  0  0  0  0  0  0  0  0  0
  147.1761  134.5382  159.0410 N   0  0  0  0  0  0  0  0  0  0  0  0
  147.3092  135.1552  160.2935 C   0  0  0  0  0  0  0  0  0  0  0  0
  147.2356  134.3576  161.4527 C   0  0  0  0  0  0  0  0  0  0  0  0
  147.3819  134.9967  162.6960 C   0  0  0  0  0  0  0  0  0  0  0  0
  147.5920  136.3876  162.6858 C   0  0  0  0  0  0  0  0  0  0  0  0
  147.6530  137.1056  161.5418 N   0  0  0  0  0  0  0  0  0  0  0  0
  147.5099  136.4954  160.3600 N   0  0  0  0  0  0  0  0  0  0  0  0
  148.0742  136.0046  155.5979 C   0  0  0  0  0  0  0  0  0  0  0  0
  150.3570  140.2619  156.7910 H   0  0  0  0  0  0  0  0  0  0  0  0
  151.4325  141.2115  155.7707 H   0  0  0  0  0  0  0  0  0  0  0  0
  151.6748  139.4824  155.9179 H   0  0  0  0  0  0  0  0  0  0  0  0
  150.5927  139.9926  153.7516 H   0  0  0  0  0  0  0  0  0  0  0  0
  148.3696  141.3351  155.3568 H   0  0  0  0  0  0  0  0  0  0  0  0
  148.3901  141.1147  153.6091 H   0  0  0  0  0  0  0  0  0  0  0  0
  149.5748  142.1633  154.3752 H   0  0  0  0  0  0  0  0  0  0  0  0
  148.3565  138.8629  155.4502 H   0  0  0  0  0  0  0  0  0  0  0  0
  148.7321  138.5016  153.7866 H   0  0  0  0  0  0  0  0  0  0  0  0
  150.9712  137.5406  154.6121 H   0  0  0  0  0  0  0  0  0  0  0  0
  150.3136  137.5691  156.2279 H   0  0  0  0  0  0  0  0  0  0  0  0
  149.8111  134.1803  154.5755 H   0  0  0  0  0  0  0  0  0  0  0  0
  151.2269  135.1986  154.6399 H   0  0  0  0  0  0  0  0  0  0  0  0
  150.9827  133.7824  156.7111 H   0  0  0  0  0  0  0  0  0  0  0  0
  150.9188  135.4812  157.1308 H   0  0  0  0  0  0  0  0  0  0  0  0
  148.7697  136.4481  157.6208 H   0  0  0  0  0  0  0  0  0  0  0  0
  146.3748  136.1993  157.9921 H   0  0  0  0  0  0  0  0  0  0  0  0
  146.3523  134.6718  157.1640 H   0  0  0  0  0  0  0  0  0  0  0  0
  147.2500  133.5331  158.9764 H   0  0  0  0  0  0  0  0  0  0  0  0
  147.0736  133.2912  161.3944 H   0  0  0  0  0  0  0  0  0  0  0  0
  147.3354  134.4426  163.6216 H   0  0  0  0  0  0  0  0  0  0  0  0
  147.7135  136.9340  163.6093 H   0  0  0  0  0  0  0  0  0  0  0  0
  147.4412  136.8834  155.4961 H   0  0  0  0  0  0  0  0  0  0  0  0
  147.5433  135.1945  155.0959 H   0  0  0  0  0  0  0  0  0  0  0  0
  149.1569  136.2282  153.9090 H   0  0  0  0  0  0  0  0  0  0  0  0
  1  2  1  0  0  0  0
  1 20  1  0  0  0  0
  1 21  1  0  0  0  0
  1 22  1  0  0  0  0
  2  3  1  0  0  0  0
  2  4  1  0  0  0  0
  2 23  1  0  0  0  0
  3 24  1  0  0  0  0
  3 25  1  0  0  0  0
  3 26  1  0  0  0  0
  4  5  1  0  0  0  0
  4 27  1  0  0  0  0
  4 28  1  0  0  0  0
  5  6  1  0  0  0  0
  5 29  1  0  0  0  0
  5 30  1  0  0  0  0
  6 19  1  0  0  0  0
  6  7  1  0  0  0  0
  6 44  1  0  0  0  0
  7  8  1  0  0  0  0
  7 31  1  0  0  0  0
  7 32  1  0  0  0  0
  8  9  1  0  0  0  0
  8 33  1  0  0  0  0
  8 34  1  0  0  0  0
  9 10  1  0  0  0  0
 10 11  1  0  0  0  0
 10 19  1  0  0  0  0
 10 35  1  0  0  0  0
 11 12  1  0  0  0  0
 11 36  1  0  0  0  0
 11 37  1  0  0  0  0
 12 13  1  0  0  0  0
 12 38  1  0  0  0  0
 13 18  1  0  0  0  0
 13 14  2  0  0  0  0
 14 15  1  0  0  0  0
 14 39  1  0  0  0  0
 15 16  2  0  0  0  0
 15 40  1  0  0  0  0
 16 17  1  0  0  0  0
 16 41  1  0  0  0  0
 17 18  2  0  0  0  0
 19 42  1  0  0  0  0
 19 43  1  0  0  0  0
M  CHG  1   6   1
M  END
> <s_m_source_file>
AV-unprocessed.smi

> <i_m_source_file_index>
861

> <i_lp_mmshare_version>
43012

> <i_f3d_flags>
0

> <s_epik_input>
W0NIM11bQ0hdKFtDSDNdKVtDSDJdW0NIMl1OMVtDSDJdW0NIMl1PW0NASF0oW0NIMl0xKVtDSDJdW05IXWMyW2NIXVtjSF1bY0hdbm4y

> <s_epik_cmdline>
J2VwaWtfcHl0aG9uJywgJy1waCcsICc3LjAnLCAnLXRuJywgJzgnLCAnLW1hJywgJzIwMCcsICctbWV0YWxfYmluZGluZycsICctaW1hZScsICc8aW5maWxlLm1hZT4nLCAnLW9tYWUnLCAnPG91dGZpbGUubWFlPic=

> <r_lp_tautomer_probability>
0.999978

> <r_epik_Ionization_Penalty>
0.114704

> <r_epik_Ionization_Penalty_Charging>
0.0953451

> <r_epik_Ionization_Penalty_Neutral>
0.0193593

> <r_epik_State_Penalty>
0.104983

> <r_epik_Charging_Adjusted_Penalty>
0.200328

> <i_epik_Tot_Q>
1

> <i_epik_Tot_abs_Q>
1

> <r_epik_Metal_State_Penalty>
0.100113

> <b_epik_Metal_Only>
0

> <s_lp_Force_Field>
OPLS_2005

> <r_lp_Energy>
26.2812

> <b_lp_Chiralities_Consistent>
1

> <s_lp_Variant>
AV-unprocessed.smi:861-3

> <Gold.Version>
5.8.1

> <Gold.Id.Protein>
6NUR|6NUR_protein|mol2

> <Gold.PLP.Fitness>
41.8353

> <Gold.PLP.PLP>
-31.5362

> <Gold.PLP.part.hbond>
-3.0000

> <Gold.PLP.part.metal>
0.0000

> <Gold.PLP.part.buried>
-2.6931

> <Gold.PLP.part.nonpolar>
-25.9988

> <Gold.PLP.part.repulsive>
0.0471

> <Gold.PLP.ligand.clash>
0.0000

> <Gold.PLP.ligand.torsion>
0.5611

> <Gold.PLP.Chemscore.Hbond>
3.7840

> <Gold.PLP.Chemscore.CHOScore>
0.0000

> <Gold.PLP.Chemscore.Metal>
0.0000

> <Gold.Chemscore.Hbonds>
donor molecule, donor type, donor heavy atom, donor atom, acceptor molecule, acceptor atom, score
      L1  H     6    44       P1  7948  1.98
      P1  H  6931  6943       L1    17  1.00
      P1  H  6934  6947       L1    17  0.70

> <Gold.PLP.Chemscore.Internal.Correction>
0.0693

> <Gold.Rescore>
     Score         DG    S(hbond)    S(metal)    S(lipo)     H(rot)  DE(clash)    DE(int)     intcor
     15.30     -15.74       1.91        0.00      70.70       1.71       0.00       0.44       ----

> <Gold.Chemscore.Fitness>
15.2990

> <Gold.Chemscore.DG>
-15.7369

> <Gold.Chemscore.ZeroCoef>
-5.4800

> <Gold.Chemscore.Hbond>
1.9071

> <Gold.Chemscore.Metal>
0.0000

> <Gold.Chemscore.Lipo>
70.6987

> <Gold.Chemscore.Internal_Hbond>
0.0000

> <Gold.Chemscore.DEClash>
0.0000

> <Gold.Chemscore.DEInternal>
0.4379

> <Gold.Chemscore.Rot>
1.7127

> <Gold.Chemscore.Internal.Correction>
   9.000000E+99

> <Gold.Chemscore.Hbonds>
donor molecule, donor type, donor heavy atom, donor atom, acceptor molecule, acceptor atom, score
      L1  H     6    44       P1  7948  0.87
      P1  H  6931  6943       L1    17  0.29
      P1  H  6934  6947       L1    17  0.15

> <Gold.Chemscore.Hbond.Weighted>
-6.3696

> <Gold.Chemscore.Metal.Weighted>
-0.0000

> <Gold.Chemscore.Lipo.Weighted>
-8.2717

> <Gold.Chemscore.Internal_Hbond.Weighted>
0.0000

> <Gold.Chemscore.DEClash.Weighted>
0.0000

> <Gold.Chemscore.DEInternal.Weighted>
0.4379

> <Gold.Chemscore.Rot.Weighted>
4.3844

> <Gold.Chemscore.Internal.Correction.Weighted>
   9.000000E+99

> <Gold.Protein.RotatedTorsions>
[ 6907 6896 6895 6894 ] final -106.23 input  -60.11 | X-H torsion
[ 7974 7965 7964 7962 ] final  172.58 input  175.53 | X-H torsion
[ 8008 7997 7996 7995 ] final   53.87 input   59.86 | X-H torsion
[ 10167 10162 10161 10158 ] final -152.86 input  -65.29 | X-H torsion
[ 10718 10713 10712 10709 ] final -135.32 input   66.30 | X-H torsion
[ 10763 10752 10751 10750 ] final  -94.26 input  -60.55 | X-H torsion
[ 11005 11000 10999 10996 ] final  -20.88 input  -57.11 | X-H torsion

> <Gold.Protein.ActiveResidues>
 VAL166  LYS551  ARG553  GLY616  TRP617  ASP618  TYR619  PRO620  LYS621  CYS622 
 ASP623  PHE694  ASN695  SER759  ASP760  ASP761  ALA762  ILE779  LEU786  VAL792 
 PHE793  MET794  SER795  GLU796  ALA797  LYS798  CYS799  TRP800  GLU811  SER814 

> <Gold.Protein.RotatedAtoms>
  150.7378  134.0008  159.3637 H   0  0  0  0  0  0  0  0  0  0  0  0  # atno 6907 bound_to 6896
  151.7961  135.0720  160.0403 H   0  0  0  0  0  0  0  0  0  0  0  0  # atno 6908 bound_to 6896
  152.3173  133.5780  159.5757 H   0  0  0  0  0  0  0  0  0  0  0  0  # atno 6909 bound_to 6896
  144.7264  139.9520  143.6432 H   0  0  0  0  0  0  0  0  0  0  0  0  # atno 7974 bound_to 7965
  155.4754  140.3466  155.4332 H   0  0  0  0  0  0  0  0  0  0  0  0  # atno 8008 bound_to 7997
  156.1073  140.1451  156.9415 H   0  0  0  0  0  0  0  0  0  0  0  0  # atno 8009 bound_to 7997
  154.4733  140.0893  156.7177 H   0  0  0  0  0  0  0  0  0  0  0  0  # atno 8010 bound_to 7997
  139.7146  143.9054  152.2481 H   0  0  0  0  0  0  0  0  0  0  0  0  # atno 10167 bound_to 10162
  156.2649  130.7232  151.1179 H   0  0  0  0  0  0  0  0  0  0  0  0  # atno 10718 bound_to 10713
  154.7038  135.5164  153.8565 H   0  0  0  0  0  0  0  0  0  0  0  0  # atno 10763 bound_to 10752
  153.0725  135.6605  154.0226 H   0  0  0  0  0  0  0  0  0  0  0  0  # atno 10764 bound_to 10752
  154.0080  135.3004  155.3375 H   0  0  0  0  0  0  0  0  0  0  0  0  # atno 10765 bound_to 10752
  140.8507  133.7858  155.9963 H   0  0  0  0  0  0  0  0  0  0  0  0  # atno 11005 bound_to 11000
  146.0704  139.3693  143.0526 LP  0  0  0  0  0  0  0  0  0  0  0  0  # atno 17320 bound_to 7965
  145.7976  140.9786  143.1016 LP  0  0  0  0  0  0  0  0  0  0  0  0  # atno 17321 bound_to 7965
  139.8933  144.6953  150.8746 LP  0  0  0  0  0  0  0  0  0  0  0  0  # atno 17342 bound_to 10162
  140.7741  143.3569  151.1903 LP  0  0  0  0  0  0  0  0  0  0  0  0  # atno 17343 bound_to 10162
  157.7264  131.0646  150.5912 LP  0  0  0  0  0  0  0  0  0  0  0  0  # atno 17370 bound_to 10713
  156.6003  130.4352  149.5900 LP  0  0  0  0  0  0  0  0  0  0  0  0  # atno 17371 bound_to 10713
  140.8793  134.2631  157.5152 LP  0  0  0  0  0  0  0  0  0  0  0  0  # atno 17394 bound_to 11000
  139.8704  134.9607  156.4372 LP  0  0  0  0  0  0  0  0  0  0  0  0  # atno 17395 bound_to 11000

$$$$
