AV-unprocessed.smi:175|AV-procd|sdf|1429|dock7
  -GOLD-   2262019203D 1   1.00000     0.00000
 Structure written by MMmdl.
 47 50  0  0  0  0  0  0  0  0  1 V2000
  151.9596  144.3985  157.2814 C   0  0  0  0  0  0  0  0  0  0  0  0
  151.9556  143.6372  158.6162 C   0  0  2  0  0  0  0  0  0  0  0  0
  153.2882  143.6550  159.1231 O   0  0  0  0  0  0  0  0  0  0  0  0
  153.5224  142.4637  159.8531 C   0  0  0  0  0  0  0  0  0  0  0  0
  152.8102  141.4165  159.0112 C   0  0  0  0  0  0  0  0  0  0  0  0
  151.5419  142.1391  158.5662 C   0  0  1  0  0  0  0  0  0  0  0  0
  150.5534  141.9336  159.5622 O   0  0  0  0  0  0  0  0  0  0  0  0
  150.9721  141.6242  157.2184 C   0  0  0  0  0  0  0  0  0  0  0  0
  150.8844  140.1735  157.1444 N   0  0  0  0  0  0  0  0  0  0  0  0
  150.8480  139.2961  158.2032 C   0  0  0  0  0  0  0  0  0  0  0  0
  150.7683  138.0356  157.8767 N   0  0  0  0  0  0  0  0  0  0  0  0
  150.7396  138.0380  156.4859 C   0  0  0  0  0  0  0  0  0  0  0  0
  150.6590  137.0266  155.4823 C   0  0  0  0  0  0  0  0  0  0  0  0
  150.5823  135.6934  155.7309 N   0  0  0  0  0  0  0  0  0  0  0  0
  150.4710  135.1166  157.0627 C   0  0  0  0  0  0  0  0  0  0  0  0
  150.2908  133.6446  156.7389 C   0  0  0  0  0  0  0  0  0  0  0  0
  150.1834  132.7756  157.6026 O   0  0  0  0  0  0  0  0  0  0  0  0
  150.2741  133.4550  155.4148 N   0  0  0  0  0  0  0  0  0  0  0  0
  150.1276  132.1806  154.7149 C   0  0  0  0  0  0  0  0  0  0  0  0
  148.8359  132.1139  153.8801 C   0  0  0  0  0  0  0  0  0  0  0  0
  147.8103  132.5013  154.6371 F   0  0  0  0  0  0  0  0  0  0  0  0
  148.9047  132.9178  152.8195 F   0  0  0  0  0  0  0  0  0  0  0  0
  148.6126  130.8655  153.4697 F   0  0  0  0  0  0  0  0  0  0  0  0
  150.4564  134.6936  154.6765 C   0  0  0  0  0  0  0  0  0  0  0  0
  150.6625  137.4366  154.1863 N   0  0  0  0  0  0  0  0  0  0  0  0
  150.7315  138.7356  153.8835 C   0  0  0  0  0  0  0  0  0  0  0  0
  150.8054  139.7800  154.7087 N   0  0  0  0  0  0  0  0  0  0  0  0
  150.8099  139.3806  156.0123 C   0  0  0  0  0  0  0  0  0  0  0  0
  150.9640  144.4336  156.8386 H   0  0  0  0  0  0  0  0  0  0  0  0
  152.6389  143.9413  156.5615 H   0  0  0  0  0  0  0  0  0  0  0  0
  152.2861  145.4281  157.4283 H   0  0  0  0  0  0  0  0  0  0  0  0
  151.3253  144.1833  159.3208 H   0  0  0  0  0  0  0  0  0  0  0  0
  154.5878  142.2624  159.9656 H   0  0  0  0  0  0  0  0  0  0  0  0
  153.0763  142.5434  160.8458 H   0  0  0  0  0  0  0  0  0  0  0  0
  153.4333  141.1842  158.1469 H   0  0  0  0  0  0  0  0  0  0  0  0
  152.6242  140.4848  159.5475 H   0  0  0  0  0  0  0  0  0  0  0  0
  149.8011  142.4651  159.3505 H   0  0  0  0  0  0  0  0  0  0  0  0
  149.9757  142.0332  157.0453 H   0  0  0  0  0  0  0  0  0  0  0  0
  151.5919  141.9603  156.3870 H   0  0  0  0  0  0  0  0  0  0  0  0
  150.8883  139.6231  159.2322 H   0  0  0  0  0  0  0  0  0  0  0  0
  151.3768  135.2770  157.6486 H   0  0  0  0  0  0  0  0  0  0  0  0
  149.6025  135.4999  157.5997 H   0  0  0  0  0  0  0  0  0  0  0  0
  150.9908  132.0329  154.0649 H   0  0  0  0  0  0  0  0  0  0  0  0
  150.1489  131.3632  155.4374 H   0  0  0  0  0  0  0  0  0  0  0  0
  149.5930  134.8915  154.0397 H   0  0  0  0  0  0  0  0  0  0  0  0
  151.3583  134.6532  154.0638 H   0  0  0  0  0  0  0  0  0  0  0  0
  150.7268  138.9712  152.8297 H   0  0  0  0  0  0  0  0  0  0  0  0
  1  2  1  0  0  0  0
  1 29  1  0  0  0  0
  1 30  1  0  0  0  0
  1 31  1  0  0  0  0
  2  6  1  0  0  0  0
  2  3  1  0  0  0  0
  2 32  1  0  0  0  0
  3  4  1  0  0  0  0
  4  5  1  0  0  0  0
  4 33  1  0  0  0  0
  4 34  1  0  0  0  0
  5  6  1  0  0  0  0
  5 35  1  0  0  0  0
  5 36  1  0  0  0  0
  6  7  1  0  0  0  0
  6  8  1  0  0  0  0
  7 37  1  0  0  0  0
  8  9  1  0  0  0  0
  8 38  1  0  0  0  0
  8 39  1  0  0  0  0
  9 28  1  0  0  0  0
  9 10  1  0  0  0  0
 10 11  2  0  0  0  0
 10 40  1  0  0  0  0
 11 12  1  0  0  0  0
 12 28  2  0  0  0  0
 12 13  1  0  0  0  0
 13 14  1  0  0  0  0
 13 25  2  0  0  0  0
 14 24  1  0  0  0  0
 14 15  1  0  0  0  0
 15 16  1  0  0  0  0
 15 41  1  0  0  0  0
 15 42  1  0  0  0  0
 16 17  2  0  0  0  0
 16 18  1  0  0  0  0
 18 19  1  0  0  0  0
 18 24  1  0  0  0  0
 19 20  1  0  0  0  0
 19 43  1  0  0  0  0
 19 44  1  0  0  0  0
 20 21  1  0  0  0  0
 20 22  1  0  0  0  0
 20 23  1  0  0  0  0
 24 45  1  0  0  0  0
 24 46  1  0  0  0  0
 25 26  1  0  0  0  0
 26 27  2  0  0  0  0
 26 47  1  0  0  0  0
 27 28  1  0  0  0  0
M  END
> <s_m_source_file>
AV-unprocessed.smi

> <i_m_source_file_index>
175

> <i_lp_mmshare_version>
43012

> <i_f3d_flags>
0

> <s_epik_input>
W0NIMl0xW0NIMl1PW0NAQEhdKFtDSDNdKVtDQEBdMShbT0hdKVtDSDJdbihbY0hdbjIpYyhjMjMpbltjSF1uYzNONFtDSDJdQyg9TylOKFtDSDJdNClbQ0gyXUMoRikoRilG

> <s_epik_cmdline>
J2VwaWtfcHl0aG9uJywgJy1waCcsICc3LjAnLCAnLXRuJywgJzgnLCAnLW1hJywgJzIwMCcsICctbWV0YWxfYmluZGluZycsICctaW1hZScsICc8aW5maWxlLm1hZT4nLCAnLW9tYWUnLCAnPG91dGZpbGUubWFlPic=

> <r_lp_tautomer_probability>
1

> <r_epik_Ionization_Penalty>
0.000307802

> <r_epik_Ionization_Penalty_Charging>
0

> <r_epik_Ionization_Penalty_Neutral>
0.000307802

> <r_epik_State_Penalty>
-0

> <r_epik_Charging_Adjusted_Penalty>
0

> <i_epik_Tot_Q>
0

> <i_epik_Tot_abs_Q>
0

> <r_epik_Metal_State_Penalty>
-0

> <b_epik_Metal_Only>
0

> <s_epik_Chemistry_Notes>
This compound contains an acetal/aminal-like group ( X-CH(R)-Y where X, Y are N, S, or O) that may be acid/base labile, releasing an aldehyde.

> <s_lp_Force_Field>
OPLS_2005

> <r_lp_Energy>
32.9701

> <b_lp_Chiralities_Consistent>
1

> <s_lp_Variant>
AV-unprocessed.smi:175-1

> <Gold.Version>
5.8.1

> <Gold.Id.Protein>
6NUR|6NUR_protein|mol2

> <Gold.PLP.Fitness>
49.2831

> <Gold.PLP.PLP>
-42.5136

> <Gold.PLP.part.hbond>
-3.0000

> <Gold.PLP.part.metal>
0.0000

> <Gold.PLP.part.buried>
-4.7860

> <Gold.PLP.part.nonpolar>
-36.0342

> <Gold.PLP.part.repulsive>
0.6700

> <Gold.PLP.ligand.clash>
0.6136

> <Gold.PLP.ligand.torsion>
0.5307

> <Gold.PLP.Chemscore.Hbond>
1.7500

> <Gold.PLP.Chemscore.CHOScore>
1.0000

> <Gold.PLP.Chemscore.Metal>
0.0000

> <Gold.Chemscore.Hbonds>
donor molecule, donor type, donor heavy atom, donor atom, acceptor molecule, acceptor atom, score
      P1  H  6896  6908       L1    17  1.00
      P1  H  7989  7998       L1    27  0.70
      L1  C    26    47       P1  7957  0.97

> <Gold.PLP.Chemscore.Internal.Correction>
0.1945

> <Gold.Rescore>
     Score         DG    S(hbond)    S(metal)    S(lipo)     H(rot)  DE(clash)    DE(int)     intcor
      5.25     -10.94       0.71        0.00      81.94       2.54       2.08       3.62       ----

> <Gold.Chemscore.Fitness>
5.2464

> <Gold.Chemscore.DG>
-10.9399

> <Gold.Chemscore.ZeroCoef>
-5.4800

> <Gold.Chemscore.Hbond>
0.7092

> <Gold.Chemscore.Metal>
0.0000

> <Gold.Chemscore.Lipo>
81.9415

> <Gold.Chemscore.Internal_Hbond>
0.0000

> <Gold.Chemscore.DEClash>
2.0779

> <Gold.Chemscore.DEInternal>
3.6157

> <Gold.Chemscore.Rot>
2.5375

> <Gold.Chemscore.Internal.Correction>
   9.000000E+99

> <Gold.Chemscore.Hbonds>
donor molecule, donor type, donor heavy atom, donor atom, acceptor molecule, acceptor atom, score
      P1  H  6896  6908       L1    17  0.49
      P1  H  7989  7998       L1    27  0.07

> <Gold.Chemscore.Hbond.Weighted>
-2.3689

> <Gold.Chemscore.Metal.Weighted>
-0.0000

> <Gold.Chemscore.Lipo.Weighted>
-9.5872

> <Gold.Chemscore.Internal_Hbond.Weighted>
0.0000

> <Gold.Chemscore.DEClash.Weighted>
2.0779

> <Gold.Chemscore.DEInternal.Weighted>
3.6157

> <Gold.Chemscore.Rot.Weighted>
6.4961

> <Gold.Chemscore.Internal.Correction.Weighted>
   9.000000E+99

> <Gold.Protein.RotatedTorsions>
[ 6907 6896 6895 6894 ] final  103.68 input  -60.11 | X-H torsion
[ 7974 7965 7964 7962 ] final  155.99 input  175.53 | X-H torsion
[ 8008 7997 7996 7995 ] final -109.67 input   59.86 | X-H torsion
[ 10167 10162 10161 10158 ] final  -69.88 input  -65.29 | X-H torsion
[ 10718 10713 10712 10709 ] final -108.25 input   66.30 | X-H torsion
[ 10763 10752 10751 10750 ] final -107.49 input  -60.55 | X-H torsion
[ 11005 11000 10999 10996 ] final -119.36 input  -57.11 | X-H torsion

> <Gold.Protein.ActiveResidues>
 VAL166  LYS551  ARG553  GLY616  TRP617  ASP618  TYR619  PRO620  LYS621  CYS622 
 ASP623  PHE694  ASN695  SER759  ASP760  ASP761  ALA762  ILE779  LEU786  VAL792 
 PHE793  MET794  SER795  GLU796  ALA797  LYS798  CYS799  TRP800  GLU811  SER814 

> <Gold.Protein.RotatedAtoms>
  152.5288  133.9789  159.7797 H   0  0  0  0  0  0  0  0  0  0  0  0  # atno 6907 bound_to 6896
  151.0047  133.6015  159.2697 H   0  0  0  0  0  0  0  0  0  0  0  0  # atno 6908 bound_to 6896
  151.3111  135.0801  159.9326 H   0  0  0  0  0  0  0  0  0  0  0  0  # atno 6909 bound_to 6896
  144.7990  139.7143  143.6189 H   0  0  0  0  0  0  0  0  0  0  0  0  # atno 7974 bound_to 7965
  154.9628  140.0399  157.2198 H   0  0  0  0  0  0  0  0  0  0  0  0  # atno 8008 bound_to 7997
  154.7873  140.2829  155.5996 H   0  0  0  0  0  0  0  0  0  0  0  0  # atno 8009 bound_to 7997
  156.2945  140.2580  156.2712 H   0  0  0  0  0  0  0  0  0  0  0  0  # atno 8010 bound_to 7997
  140.5396  143.2316  151.7113 H   0  0  0  0  0  0  0  0  0  0  0  0  # atno 10167 bound_to 10162
  156.0476  130.5703  150.7935 H   0  0  0  0  0  0  0  0  0  0  0  0  # atno 10718 bound_to 10713
  154.8078  135.4673  154.0438 H   0  0  0  0  0  0  0  0  0  0  0  0  # atno 10763 bound_to 10752
  153.1893  135.6852  153.8381 H   0  0  0  0  0  0  0  0  0  0  0  0  # atno 10764 bound_to 10752
  153.7904  135.3244  155.3355 H   0  0  0  0  0  0  0  0  0  0  0  0  # atno 10765 bound_to 10752
  141.0221  134.0109  157.3268 H   0  0  0  0  0  0  0  0  0  0  0  0  # atno 11005 bound_to 11000
  146.2267  139.5736  142.9582 LP  0  0  0  0  0  0  0  0  0  0  0  0  # atno 17320 bound_to 7965
  145.5600  141.0405  143.2231 LP  0  0  0  0  0  0  0  0  0  0  0  0  # atno 17321 bound_to 7965
  139.4984  144.3989  152.0202 LP  0  0  0  0  0  0  0  0  0  0  0  0  # atno 17342 bound_to 10162
  140.3097  144.3552  150.6037 LP  0  0  0  0  0  0  0  0  0  0  0  0  # atno 17343 bound_to 10162
  157.5369  131.0939  150.9881 LP  0  0  0  0  0  0  0  0  0  0  0  0  # atno 17370 bound_to 10713
  157.0173  130.5660  149.5327 LP  0  0  0  0  0  0  0  0  0  0  0  0  # atno 17371 bound_to 10713
  139.9152  135.0196  156.7854 LP  0  0  0  0  0  0  0  0  0  0  0  0  # atno 17394 bound_to 11000
  140.6555  133.9692  155.7777 LP  0  0  0  0  0  0  0  0  0  0  0  0  # atno 17395 bound_to 11000

$$$$
