AV-unprocessed.smi:2674|AV-procd|sdf|10359|dock6
  -GOLD-   2272014383D 1   1.00000     0.00000
 Structure written by MMmdl.
 45 46  0  0  0  0  0  0  0  0  2 V2000
  147.9600  137.8194  155.0062 C   0  0  0  0  0  0  0  0  0  0  0  0
  148.6185  138.4928  153.8551 N   0  3  1  0  0  0  0  0  0  0  0  0
  147.6850  139.4060  153.1320 C   0  0  0  0  0  0  0  0  0  0  0  0
  146.3788  138.7308  152.6600 C   0  0  0  0  0  0  0  0  0  0  0  0
  146.6286  137.3888  152.1448 N   0  0  0  0  0  0  0  0  0  0  0  0
  145.6848  136.4563  151.9473 C   0  0  0  0  0  0  0  0  0  0  0  0
  144.4922  136.6414  152.1926 O   0  0  0  0  0  0  0  0  0  0  0  0
  146.2123  135.3216  151.4548 N   0  0  0  0  0  0  0  0  0  0  0  0
  145.5332  134.1352  151.0685 C   0  0  0  0  0  0  0  0  0  0  0  0
  146.3706  133.0433  150.7466 C   0  0  0  0  0  0  0  0  0  0  0  0
  145.7939  131.8231  150.3439 C   0  0  0  0  0  0  0  0  0  0  0  0
  144.3929  131.7265  150.2730 C   0  0  0  0  0  0  0  0  0  0  0  0
  143.6320  132.8607  150.6111 C   0  0  0  0  0  0  0  0  0  0  0  0
  144.1825  134.0311  150.9970 N   0  0  0  0  0  0  0  0  0  0  0  0
  149.9329  139.0981  154.2541 C   0  0  0  0  0  0  0  0  0  0  0  0
  151.0567  138.0723  154.5660 C   0  0  0  0  0  0  0  0  0  0  0  0
  152.3666  138.7558  154.9916 C   0  0  0  0  0  0  0  0  0  0  0  0
  152.1513  139.6761  156.1992 C   0  0  0  0  0  0  0  0  0  0  0  0
  151.0524  140.7054  155.9077 C   0  0  0  0  0  0  0  0  0  0  0  0
  149.7434  140.0196  155.4853 C   0  0  0  0  0  0  0  0  0  0  0  0
  147.5014  138.5513  155.6725 H   0  0  0  0  0  0  0  0  0  0  0  0
  148.6577  137.2297  155.5978 H   0  0  0  0  0  0  0  0  0  0  0  0
  147.1885  137.1264  154.6726 H   0  0  0  0  0  0  0  0  0  0  0  0
  147.4614  140.2618  153.7708 H   0  0  0  0  0  0  0  0  0  0  0  0
  148.1696  139.7914  152.2356 H   0  0  0  0  0  0  0  0  0  0  0  0
  145.6759  138.6519  153.4898 H   0  0  0  0  0  0  0  0  0  0  0  0
  145.8842  139.3091  151.8789 H   0  0  0  0  0  0  0  0  0  0  0  0
  147.5852  137.1545  151.9221 H   0  0  0  0  0  0  0  0  0  0  0  0
  147.2130  135.3091  151.3243 H   0  0  0  0  0  0  0  0  0  0  0  0
  147.4456  133.1349  150.8053 H   0  0  0  0  0  0  0  0  0  0  0  0
  146.4165  130.9769  150.0932 H   0  0  0  0  0  0  0  0  0  0  0  0
  143.9136  130.8082  149.9678 H   0  0  0  0  0  0  0  0  0  0  0  0
  142.5532  132.8288  150.5695 H   0  0  0  0  0  0  0  0  0  0  0  0
  150.2841  139.7020  153.4151 H   0  0  0  0  0  0  0  0  0  0  0  0
  150.7351  137.3945  155.3583 H   0  0  0  0  0  0  0  0  0  0  0  0
  151.2774  137.4593  153.6916 H   0  0  0  0  0  0  0  0  0  0  0  0
  153.1176  138.0020  155.2307 H   0  0  0  0  0  0  0  0  0  0  0  0
  152.7657  139.3341  154.1573 H   0  0  0  0  0  0  0  0  0  0  0  0
  151.8766  139.0810  157.0711 H   0  0  0  0  0  0  0  0  0  0  0  0
  153.0821  140.1849  156.4519 H   0  0  0  0  0  0  0  0  0  0  0  0
  150.8799  141.3218  156.7907 H   0  0  0  0  0  0  0  0  0  0  0  0
  151.3828  141.3821  155.1184 H   0  0  0  0  0  0  0  0  0  0  0  0
  149.0017  140.7934  155.2933 H   0  0  0  0  0  0  0  0  0  0  0  0
  149.3578  139.4345  156.3215 H   0  0  0  0  0  0  0  0  0  0  0  0
  148.8492  137.7667  153.1920 H   0  0  0  0  0  0  0  0  0  0  0  0
  1  2  1  0  0  0  0
  1 21  1  0  0  0  0
  1 22  1  0  0  0  0
  1 23  1  0  0  0  0
  2  3  1  0  0  0  0
  2 15  1  0  0  0  0
  2 45  1  0  0  0  0
  3  4  1  0  0  0  0
  3 24  1  0  0  0  0
  3 25  1  0  0  0  0
  4  5  1  0  0  0  0
  4 26  1  0  0  0  0
  4 27  1  0  0  0  0
  5  6  1  0  0  0  0
  5 28  1  0  0  0  0
  6  7  2  0  0  0  0
  6  8  1  0  0  0  0
  8  9  1  0  0  0  0
  8 29  1  0  0  0  0
  9 14  1  0  0  0  0
  9 10  2  0  0  0  0
 10 11  1  0  0  0  0
 10 30  1  0  0  0  0
 11 12  2  0  0  0  0
 11 31  1  0  0  0  0
 12 13  1  0  0  0  0
 12 32  1  0  0  0  0
 13 14  2  0  0  0  0
 13 33  1  0  0  0  0
 15 20  1  0  0  0  0
 15 16  1  0  0  0  0
 15 34  1  0  0  0  0
 16 17  1  0  0  0  0
 16 35  1  0  0  0  0
 16 36  1  0  0  0  0
 17 18  1  0  0  0  0
 17 37  1  0  0  0  0
 17 38  1  0  0  0  0
 18 19  1  0  0  0  0
 18 39  1  0  0  0  0
 18 40  1  0  0  0  0
 19 20  1  0  0  0  0
 19 41  1  0  0  0  0
 19 42  1  0  0  0  0
 20 43  1  0  0  0  0
 20 44  1  0  0  0  0
M  CHG  1   2   1
M  END
> <s_m_source_file>
AV-unprocessed.smi

> <i_m_source_file_index>
2674

> <i_lp_mmshare_version>
43012

> <i_f3d_flags>
0

> <s_epik_input>
W0NIMl0xW0NIMl1bQ0gyXVtDSDJdW0NIMl1bQ0hdMU4oW0NIM10pW0NIMl1bQ0gyXVtOSF1DKD1PKVtOSF1jMltjSF1bY0hdW2NIXVtjSF1uMg==

> <s_epik_cmdline>
J2VwaWtfcHl0aG9uJywgJy1waCcsICc3LjAnLCAnLXRuJywgJzgnLCAnLW1hJywgJzIwMCcsICctbWV0YWxfYmluZGluZycsICctaW1hZScsICc8aW5maWxlLm1hZT4nLCAnLW9tYWUnLCAnPG91dGZpbGUubWFlPic=

> <r_epik_Ionization_Penalty>
0.00206741

> <r_epik_Ionization_Penalty_Charging>
0.00203269

> <r_epik_Ionization_Penalty_Neutral>
3.47205e-05

> <r_epik_State_Penalty>
0.00139005

> <r_epik_Charging_Adjusted_Penalty>
0.00342273

> <i_epik_Tot_Q>
1

> <i_epik_Tot_abs_Q>
1

> <r_epik_Metal_State_Penalty>
-0

> <b_epik_Metal_Only>
0

> <s_lp_Force_Field>
OPLS_2005

> <r_lp_Energy>
21.1862

> <b_lp_Chiralities_Consistent>
1

> <s_lp_Variant>
AV-unprocessed.smi:2674-2

> <Gold.Version>
5.8.1

> <Gold.Id.Protein>
6NUR|6NUR_protein|mol2

> <Gold.PLP.Fitness>
52.5463

> <Gold.PLP.PLP>
-38.5882

> <Gold.PLP.part.hbond>
-3.3713

> <Gold.PLP.part.metal>
0.0000

> <Gold.PLP.part.buried>
-0.8557

> <Gold.PLP.part.nonpolar>
-36.4010

> <Gold.PLP.part.repulsive>
0.5203

> <Gold.PLP.ligand.clash>
0.0000

> <Gold.PLP.ligand.torsion>
0.4056

> <Gold.PLP.Chemscore.Hbond>
3.8960

> <Gold.PLP.Chemscore.CHOScore>
1.0000

> <Gold.PLP.Chemscore.Metal>
0.0000

> <Gold.Chemscore.Hbonds>
donor molecule, donor type, donor heavy atom, donor atom, acceptor molecule, acceptor atom, score
      L1  H     2    45       P1  7948  2.00
      L1  H     5    28       P1  7948  1.00
      L1  H     8    29       P1  7948  0.91
      L1  C    13    33       P1 10186  0.99

> <Gold.PLP.Chemscore.Internal.Correction>
0.0814

> <Gold.Rescore>
     Score         DG    S(hbond)    S(metal)    S(lipo)     H(rot)  DE(clash)    DE(int)     intcor
     19.28     -21.22       2.67        0.00      95.53       1.70       0.39       1.56       ----

> <Gold.Chemscore.Fitness>
19.2780

> <Gold.Chemscore.DG>
-21.2241

> <Gold.Chemscore.ZeroCoef>
-5.4800

> <Gold.Chemscore.Hbond>
2.6727

> <Gold.Chemscore.Metal>
0.0000

> <Gold.Chemscore.Lipo>
95.5283

> <Gold.Chemscore.Internal_Hbond>
0.0000

> <Gold.Chemscore.DEClash>
0.3904

> <Gold.Chemscore.DEInternal>
1.5557

> <Gold.Chemscore.Rot>
1.7030

> <Gold.Chemscore.Internal.Correction>
   9.000000E+99

> <Gold.Chemscore.Hbonds>
donor molecule, donor type, donor heavy atom, donor atom, acceptor molecule, acceptor atom, score
      L1  H     2    45       P1  7948  0.95
      L1  H     5    28       P1  7948  0.99
      L1  H     8    29       P1  7948  0.73

> <Gold.Chemscore.Hbond.Weighted>
-8.9269

> <Gold.Chemscore.Metal.Weighted>
-0.0000

> <Gold.Chemscore.Lipo.Weighted>
-11.1768

> <Gold.Chemscore.Internal_Hbond.Weighted>
0.0000

> <Gold.Chemscore.DEClash.Weighted>
0.3904

> <Gold.Chemscore.DEInternal.Weighted>
1.5557

> <Gold.Chemscore.Rot.Weighted>
4.3597

> <Gold.Chemscore.Internal.Correction.Weighted>
   9.000000E+99

> <Gold.Protein.RotatedTorsions>
[ 6907 6896 6895 6894 ] final -177.64 input  -60.11 | X-H torsion
[ 7974 7965 7964 7962 ] final  -67.15 input  175.53 | X-H torsion
[ 8008 7997 7996 7995 ] final  -48.64 input   59.86 | X-H torsion
[ 10167 10162 10161 10158 ] final   92.69 input  -65.29 | X-H torsion
[ 10718 10713 10712 10709 ] final  -78.67 input   66.30 | X-H torsion
[ 10763 10752 10751 10750 ] final  101.85 input  -60.55 | X-H torsion
[ 11005 11000 10999 10996 ] final   -9.05 input  -57.11 | X-H torsion

> <Gold.Protein.ActiveResidues>
 VAL166  LYS551  ARG553  GLY616  TRP617  ASP618  TYR619  PRO620  LYS621  CYS622 
 ASP623  PHE694  ASN695  SER759  ASP760  ASP761  ALA762  ILE779  LEU786  VAL792 
 PHE793  MET794  SER795  GLU796  ALA797  LYS798  CYS799  TRP800  GLU811  SER814 

> <Gold.Protein.RotatedAtoms>
  151.6244  133.3336  159.3094 H   0  0  0  0  0  0  0  0  0  0  0  0  # atno 6907 bound_to 6896
  150.8089  134.7235  159.6681 H   0  0  0  0  0  0  0  0  0  0  0  0  # atno 6908 bound_to 6896
  152.4185  134.6002  160.0049 H   0  0  0  0  0  0  0  0  0  0  0  0  # atno 6909 bound_to 6896
  145.7327  140.8989  143.0571 H   0  0  0  0  0  0  0  0  0  0  0  0  # atno 7974 bound_to 7965
  154.4032  140.1316  156.4373 H   0  0  0  0  0  0  0  0  0  0  0  0  # atno 8008 bound_to 7997
  155.7493  140.3488  155.5122 H   0  0  0  0  0  0  0  0  0  0  0  0  # atno 8009 bound_to 7997
  155.8965  140.1012  157.1371 H   0  0  0  0  0  0  0  0  0  0  0  0  # atno 8010 bound_to 7997
  139.8252  144.6713  150.9469 H   0  0  0  0  0  0  0  0  0  0  0  0  # atno 10167 bound_to 10162
  156.0111  130.4524  150.3531 H   0  0  0  0  0  0  0  0  0  0  0  0  # atno 10718 bound_to 10713
  153.3320  135.4030  155.1503 H   0  0  0  0  0  0  0  0  0  0  0  0  # atno 10763 bound_to 10752
  154.8625  135.3613  154.5459 H   0  0  0  0  0  0  0  0  0  0  0  0  # atno 10764 bound_to 10752
  153.5898  135.7074  153.5487 H   0  0  0  0  0  0  0  0  0  0  0  0  # atno 10765 bound_to 10752
  140.7300  133.8757  155.8886 H   0  0  0  0  0  0  0  0  0  0  0  0  # atno 11005 bound_to 11000
  144.6889  139.9353  143.7473 LP  0  0  0  0  0  0  0  0  0  0  0  0  # atno 17320 bound_to 7965
  146.0522  139.3522  143.0632 LP  0  0  0  0  0  0  0  0  0  0  0  0  # atno 17321 bound_to 7965
  140.7810  143.4053  151.1081 LP  0  0  0  0  0  0  0  0  0  0  0  0  # atno 17342 bound_to 10162
  139.7711  143.8493  152.3120 LP  0  0  0  0  0  0  0  0  0  0  0  0  # atno 17343 bound_to 10162
  157.1623  131.0348  151.2835 LP  0  0  0  0  0  0  0  0  0  0  0  0  # atno 17370 bound_to 10713
  157.4301  130.7485  149.6983 LP  0  0  0  0  0  0  0  0  0  0  0  0  # atno 17371 bound_to 10713
  140.9929  134.1254  157.4391 LP  0  0  0  0  0  0  0  0  0  0  0  0  # atno 17394 bound_to 11000
  139.8828  135.0046  156.6258 LP  0  0  0  0  0  0  0  0  0  0  0  0  # atno 17395 bound_to 11000

$$$$
