AV-unprocessed.smi:328|AV-procd|sdf|2347|dock3
  -GOLD-   2262022253D 1   1.00000     0.00000
 Structure written by MMmdl.
 23 24  0  0  0  0  0  0  0  0  2 V2000
  152.7419  136.8706  159.9581 O   0  0  0  0  0  0  0  0  0  0  0  0
  153.6085  137.6288  160.4465 C   0  0  0  0  0  0  0  0  0  0  0  0
  154.0231  137.5941  161.6264 O   0  5  0  0  0  0  0  0  0  0  0  0
  154.2192  138.6856  159.5229 C   0  0  0  0  0  0  0  0  0  0  0  0
  153.8459  140.0440  160.0461 C   0  0  0  0  0  0  0  0  0  0  0  0
  154.1498  140.5665  161.2806 C   0  0  0  0  0  0  0  0  0  0  0  0
  153.5274  142.1809  161.4808 S   0  0  0  0  0  0  0  0  0  0  0  0
  152.8788  142.0971  159.8443 C   0  0  0  0  0  0  0  0  0  0  0  0
  152.1578  143.1658  159.2327 N   0  0  0  0  0  0  0  0  0  0  0  0
  152.1827  144.5106  159.7948 C   0  0  0  0  0  0  0  0  0  0  0  0
  151.2878  145.3166  158.8580 C   0  0  0  0  0  0  0  0  0  0  0  0
  150.8870  144.3223  157.8908 N   0  0  0  0  0  0  0  0  0  0  0  0
  151.3938  143.1090  158.1217 C   0  0  0  0  0  0  0  0  0  0  0  0
  151.1787  142.1277  157.4120 O   0  0  0  0  0  0  0  0  0  0  0  0
  153.1298  140.9321  159.2354 N   0  0  0  0  0  0  0  0  0  0  0  0
  155.3029  138.5674  159.4896 H   0  0  0  0  0  0  0  0  0  0  0  0
  153.8527  138.5346  158.5065 H   0  0  0  0  0  0  0  0  0  0  0  0
  154.6934  140.0919  162.0840 H   0  0  0  0  0  0  0  0  0  0  0  0
  151.7945  144.5101  160.8143 H   0  0  0  0  0  0  0  0  0  0  0  0
  153.2003  144.9036  159.8083 H   0  0  0  0  0  0  0  0  0  0  0  0
  150.4169  145.7243  159.3721 H   0  0  0  0  0  0  0  0  0  0  0  0
  151.8283  146.1297  158.3722 H   0  0  0  0  0  0  0  0  0  0  0  0
  150.2801  144.5374  157.1130 H   0  0  0  0  0  0  0  0  0  0  0  0
  1  2  2  0  0  0  0
  2  3  1  0  0  0  0
  2  4  1  0  0  0  0
  4  5  1  0  0  0  0
  4 16  1  0  0  0  0
  4 17  1  0  0  0  0
  5 15  1  0  0  0  0
  5  6  2  0  0  0  0
  6  7  1  0  0  0  0
  6 18  1  0  0  0  0
  7  8  1  0  0  0  0
  8  9  1  0  0  0  0
  8 15  2  0  0  0  0
  9 13  1  0  0  0  0
  9 10  1  0  0  0  0
 10 11  1  0  0  0  0
 10 19  1  0  0  0  0
 10 20  1  0  0  0  0
 11 12  1  0  0  0  0
 11 21  1  0  0  0  0
 11 22  1  0  0  0  0
 12 13  1  0  0  0  0
 12 23  1  0  0  0  0
 13 14  2  0  0  0  0
M  CHG  1   3  -1
M  END
> <s_m_source_file>
AV-unprocessed.smi

> <i_m_source_file_index>
328

> <i_lp_mmshare_version>
43012

> <i_f3d_flags>
0

> <s_epik_input>
Tz1DKFtPSF0pW0NIMl1jMVtjSF1zYyhuMSlOMltDSDJdW0NIMl1bTkhdQzI9Tw==

> <s_epik_cmdline>
J2VwaWtfcHl0aG9uJywgJy1waCcsICc3LjAnLCAnLXRuJywgJzgnLCAnLW1hJywgJzIwMCcsICctbWV0YWxfYmluZGluZycsICctaW1hZScsICc8aW5maWxlLm1hZT4nLCAnLW9tYWUnLCAnPG91dGZpbGUubWFlPic=

> <r_lp_tautomer_probability>
1

> <r_epik_Ionization_Penalty>
0.000968476

> <r_epik_Ionization_Penalty_Charging>
0.000722293

> <r_epik_Ionization_Penalty_Neutral>
0.000246183

> <r_epik_State_Penalty>
0.000460635

> <r_epik_Charging_Adjusted_Penalty>
0.00118293

> <i_epik_Tot_Q>
-1

> <i_epik_Tot_abs_Q>
1

> <r_epik_Metal_State_Penalty>
-0

> <b_epik_Metal_Only>
0

> <s_lp_Force_Field>
OPLS_2005

> <r_lp_Energy>
33.9917

> <b_lp_Chiralities_Consistent>
1

> <s_lp_Variant>
AV-unprocessed.smi:328-1

> <Gold.Version>
5.8.1

> <Gold.Id.Protein>
6NUR|6NUR_protein|mol2

> <Gold.PLP.Fitness>
42.2915

> <Gold.PLP.PLP>
-33.5231

> <Gold.PLP.part.hbond>
-2.0000

> <Gold.PLP.part.metal>
0.0000

> <Gold.PLP.part.buried>
-4.9388

> <Gold.PLP.part.nonpolar>
-26.5734

> <Gold.PLP.part.repulsive>
0.1035

> <Gold.PLP.ligand.clash>
0.0000

> <Gold.PLP.ligand.torsion>
0.1178

> <Gold.PLP.Chemscore.Hbond>
3.0000

> <Gold.PLP.Chemscore.CHOScore>
0.0000

> <Gold.PLP.Chemscore.Metal>
0.0000

> <Gold.Chemscore.Hbonds>
donor molecule, donor type, donor heavy atom, donor atom, acceptor molecule, acceptor atom, score
      L1  H    12    23       P1  8028  1.00
      P1  H  6896  6909       L1     1  2.00

> <Gold.PLP.Chemscore.Internal.Correction>
0.0040

> <Gold.Rescore>
     Score         DG    S(hbond)    S(metal)    S(lipo)     H(rot)  DE(clash)    DE(int)     intcor
     13.48     -14.94       1.99        0.00      58.31       1.57       0.01       1.45       ----

> <Gold.Chemscore.Fitness>
13.4834

> <Gold.Chemscore.DG>
-14.9442

> <Gold.Chemscore.ZeroCoef>
-5.4800

> <Gold.Chemscore.Hbond>
1.9909

> <Gold.Chemscore.Metal>
0.0000

> <Gold.Chemscore.Lipo>
58.3097

> <Gold.Chemscore.Internal_Hbond>
0.0000

> <Gold.Chemscore.DEClash>
0.0060

> <Gold.Chemscore.DEInternal>
1.4548

> <Gold.Chemscore.Rot>
1.5654

> <Gold.Chemscore.Internal.Correction>
   9.000000E+99

> <Gold.Chemscore.Hbonds>
donor molecule, donor type, donor heavy atom, donor atom, acceptor molecule, acceptor atom, score
      L1  H    12    23       P1  8028  0.64
      P1  H  6896  6909       L1     1  0.99

> <Gold.Chemscore.Hbond.Weighted>
-6.6495

> <Gold.Chemscore.Metal.Weighted>
-0.0000

> <Gold.Chemscore.Lipo.Weighted>
-6.8222

> <Gold.Chemscore.Internal_Hbond.Weighted>
0.0000

> <Gold.Chemscore.DEClash.Weighted>
0.0060

> <Gold.Chemscore.DEInternal.Weighted>
1.4548

> <Gold.Chemscore.Rot.Weighted>
4.0075

> <Gold.Chemscore.Internal.Correction.Weighted>
   9.000000E+99

> <Gold.Protein.RotatedTorsions>
[ 6907 6896 6895 6894 ] final  143.85 input  -60.11 | X-H torsion
[ 7974 7965 7964 7962 ] final  136.32 input  175.53 | X-H torsion
[ 8008 7997 7996 7995 ] final   13.69 input   59.86 | X-H torsion
[ 10167 10162 10161 10158 ] final   -2.74 input  -65.29 | X-H torsion
[ 10718 10713 10712 10709 ] final -173.83 input   66.30 | X-H torsion
[ 10763 10752 10751 10750 ] final -171.50 input  -60.55 | X-H torsion
[ 11005 11000 10999 10996 ] final   50.05 input  -57.11 | X-H torsion

> <Gold.Protein.ActiveResidues>
 VAL166  LYS551  ARG553  GLY616  TRP617  ASP618  TYR619  PRO620  LYS621  CYS622 
 ASP623  PHE694  ASN695  SER759  ASP760  ASP761  ALA762  ILE779  LEU786  VAL792 
 PHE793  MET794  SER795  GLU796  ALA797  LYS798  CYS799  TRP800  GLU811  SER814 

> <Gold.Protein.RotatedAtoms>
  152.2011  133.4842  159.5058 H   0  0  0  0  0  0  0  0  0  0  0  0  # atno 6907 bound_to 6896
  150.6970  134.1589  159.4178 H   0  0  0  0  0  0  0  0  0  0  0  0  # atno 6908 bound_to 6896
  151.9506  135.0170  160.0592 H   0  0  0  0  0  0  0  0  0  0  0  0  # atno 6909 bound_to 6896
  144.9577  139.4746  143.5495 H   0  0  0  0  0  0  0  0  0  0  0  0  # atno 7974 bound_to 7965
  154.8380  140.2910  155.5678 H   0  0  0  0  0  0  0  0  0  0  0  0  # atno 8008 bound_to 7997
  156.3010  140.2519  156.3249 H   0  0  0  0  0  0  0  0  0  0  0  0  # atno 8009 bound_to 7997
  154.9157  140.0387  157.1960 H   0  0  0  0  0  0  0  0  0  0  0  0  # atno 8010 bound_to 7997
  140.6863  143.6622  150.8257 H   0  0  0  0  0  0  0  0  0  0  0  0  # atno 10167 bound_to 10162
  156.7761  130.9466  151.3120 H   0  0  0  0  0  0  0  0  0  0  0  0  # atno 10718 bound_to 10713
  154.6297  135.2885  155.0230 H   0  0  0  0  0  0  0  0  0  0  0  0  # atno 10763 bound_to 10752
  154.1395  135.6521  153.4943 H   0  0  0  0  0  0  0  0  0  0  0  0  # atno 10764 bound_to 10752
  153.0274  135.5329  154.7120 H   0  0  0  0  0  0  0  0  0  0  0  0  # atno 10765 bound_to 10752
  140.1050  134.5030  155.8728 H   0  0  0  0  0  0  0  0  0  0  0  0  # atno 11005 bound_to 11000
  146.3342  139.8705  142.8841 LP  0  0  0  0  0  0  0  0  0  0  0  0  # atno 17320 bound_to 7965
  145.2748  141.0120  143.3751 LP  0  0  0  0  0  0  0  0  0  0  0  0  # atno 17321 bound_to 7965
  140.0329  143.5425  152.2752 LP  0  0  0  0  0  0  0  0  0  0  0  0  # atno 17342 bound_to 10162
  139.6224  144.7631  151.2711 LP  0  0  0  0  0  0  0  0  0  0  0  0  # atno 17343 bound_to 10162
  157.6668  130.9015  149.9950 LP  0  0  0  0  0  0  0  0  0  0  0  0  # atno 17370 bound_to 10713
  156.1247  130.3645  149.9829 LP  0  0  0  0  0  0  0  0  0  0  0  0  # atno 17371 bound_to 10713
  141.2116  133.6708  156.6594 LP  0  0  0  0  0  0  0  0  0  0  0  0  # atno 17394 bound_to 11000
  140.3167  134.8041  157.4220 LP  0  0  0  0  0  0  0  0  0  0  0  0  # atno 17395 bound_to 11000

$$$$
