AV-unprocessed.smi:46|AV-procd|sdf|421|dock8
  -GOLD-   2262016303D 1   1.00000     0.00000
 Structure written by MMmdl.
 35 36  0  0  0  0  0  0  0  0  2 V2000
  152.6756  144.6898  158.2966 C   0  0  0  0  0  0  0  0  0  0  0  0
  151.8887  143.6452  159.1033 C   0  0  0  0  0  0  0  0  0  0  0  0
  152.7842  142.8883  160.0947 C   0  0  0  0  0  0  0  0  0  0  0  0
  151.1980  142.7157  158.2221 N   0  0  0  0  0  0  0  0  0  0  0  0
  151.1988  142.6683  156.8434 C   0  0  0  0  0  0  0  0  0  0  0  0
  150.4151  141.6140  156.4608 C   0  0  0  0  0  0  0  0  0  0  0  0
  150.0568  141.1182  155.0751 C   0  0  2  0  0  0  0  0  0  0  0  0
  148.5478  141.1255  154.8038 C   0  0  0  0  0  0  0  0  0  0  0  0
  148.0339  139.8324  155.2914 N   0  3  0  0  0  0  0  0  0  0  0  0
  149.1676  138.8904  155.3805 C   0  0  0  0  0  0  0  0  0  0  0  0
  150.4051  139.6337  154.8522 C   0  0  2  0  0  0  0  0  0  0  0  0
  151.7278  139.1235  155.4584 C   0  0  0  0  0  0  0  0  0  0  0  0
  152.8244  139.7158  154.7956 O   0  0  0  0  0  0  0  0  0  0  0  0
  149.9885  141.0620  157.7024 C   0  0  0  0  0  0  0  0  0  0  0  0
  150.4582  141.7182  158.7493 N   0  0  0  0  0  0  0  0  0  0  0  0
  150.5639  141.7309  154.3283 H   0  0  0  0  0  0  0  0  0  0  0  0
  150.4359  139.4658  153.7737 H   0  0  0  0  0  0  0  0  0  0  0  0
  153.1367  145.4249  158.9566 H   0  0  0  0  0  0  0  0  0  0  0  0
  152.0216  145.2289  157.6104 H   0  0  0  0  0  0  0  0  0  0  0  0
  153.4707  144.2297  157.7092 H   0  0  0  0  0  0  0  0  0  0  0  0
  151.1333  144.1807  159.6815 H   0  0  0  0  0  0  0  0  0  0  0  0
  153.2607  143.5757  160.7941 H   0  0  0  0  0  0  0  0  0  0  0  0
  153.5726  142.3373  159.5810 H   0  0  0  0  0  0  0  0  0  0  0  0
  152.2039  142.1739  160.6796 H   0  0  0  0  0  0  0  0  0  0  0  0
  151.7492  143.3873  156.2550 H   0  0  0  0  0  0  0  0  0  0  0  0
  148.0281  141.9752  155.2480 H   0  0  0  0  0  0  0  0  0  0  0  0
  148.3734  141.1591  153.7275 H   0  0  0  0  0  0  0  0  0  0  0  0
  147.6431  139.9553  156.2145 H   0  0  0  0  0  0  0  0  0  0  0  0
  149.2961  138.6116  156.4271 H   0  0  0  0  0  0  0  0  0  0  0  0
  148.9678  137.9802  154.8144 H   0  0  0  0  0  0  0  0  0  0  0  0
  151.7926  139.3289  156.5274 H   0  0  0  0  0  0  0  0  0  0  0  0
  151.8001  138.0418  155.3404 H   0  0  0  0  0  0  0  0  0  0  0  0
  153.1813  139.0906  154.1827 H   0  0  0  0  0  0  0  0  0  0  0  0
  149.3484  140.2086  157.8714 H   0  0  0  0  0  0  0  0  0  0  0  0
  147.3232  139.4816  154.6653 H   0  0  0  0  0  0  0  0  0  0  0  0
  1  2  1  0  0  0  0
  1 18  1  0  0  0  0
  1 19  1  0  0  0  0
  1 20  1  0  0  0  0
  2  3  1  0  0  0  0
  2  4  1  0  0  0  0
  2 21  1  0  0  0  0
  3 22  1  0  0  0  0
  3 23  1  0  0  0  0
  3 24  1  0  0  0  0
  4 15  1  0  0  0  0
  4  5  1  0  0  0  0
  5  6  2  0  0  0  0
  5 25  1  0  0  0  0
  6  7  1  0  0  0  0
  6 14  1  0  0  0  0
  7 16  1  0  0  0  0
  7 11  1  0  0  0  0
  7  8  1  0  0  0  0
  8  9  1  0  0  0  0
  8 26  1  0  0  0  0
  8 27  1  0  0  0  0
  9 10  1  0  0  0  0
  9 28  1  0  0  0  0
  9 35  1  0  0  0  0
 10 11  1  0  0  0  0
 10 29  1  0  0  0  0
 10 30  1  0  0  0  0
 11 17  1  0  0  0  0
 11 12  1  0  0  0  0
 12 13  1  0  0  0  0
 12 31  1  0  0  0  0
 12 32  1  0  0  0  0
 13 33  1  0  0  0  0
 14 15  2  0  0  0  0
 14 34  1  0  0  0  0
M  CHG  1   9   1
M  END
> <s_m_source_file>
AV-unprocessed.smi

> <i_m_source_file_index>
46

> <i_lp_mmshare_version>
43012

> <i_f3d_flags>
0

> <s_epik_input>
W0NIM11bQ0hdKFtDSDNdKW4xW2NIXWMoW2NIXW4xKVtDQEBIXTJbQ0gyXVtOSF1bQ0gyXVtDQEhdMltDSDJdW09IXQ==

> <s_epik_cmdline>
J2VwaWtfcHl0aG9uJywgJy1waCcsICc3LjAnLCAnLXRuJywgJzgnLCAnLW1hJywgJzIwMCcsICctbWV0YWxfYmluZGluZycsICctaW1hZScsICc8aW5maWxlLm1hZT4nLCAnLW9tYWUnLCAnPG91dGZpbGUubWFlPic=

> <r_lp_tautomer_probability>
1

> <r_epik_Ionization_Penalty>
0.000236226

> <r_epik_Ionization_Penalty_Charging>
0.00021985

> <r_epik_Ionization_Penalty_Neutral>
1.63752e-05

> <r_epik_State_Penalty>
-0

> <r_epik_Charging_Adjusted_Penalty>
0.00021985

> <i_epik_Tot_Q>
1

> <i_epik_Tot_abs_Q>
1

> <r_epik_Metal_State_Penalty>
-0

> <b_epik_Metal_Only>
0

> <s_lp_Force_Field>
OPLS_2005

> <r_lp_Energy>
33.6612

> <b_lp_Chiralities_Consistent>
1

> <s_lp_Variant>
AV-unprocessed.smi:46-3

> <Gold.Version>
5.8.1

> <Gold.Id.Protein>
6NUR|6NUR_protein|mol2

> <Gold.PLP.Fitness>
37.5173

> <Gold.PLP.PLP>
-33.5496

> <Gold.PLP.part.hbond>
-2.1192

> <Gold.PLP.part.metal>
0.0000

> <Gold.PLP.part.buried>
-1.7250

> <Gold.PLP.part.nonpolar>
-29.2738

> <Gold.PLP.part.repulsive>
0.0197

> <Gold.PLP.ligand.clash>
0.0000

> <Gold.PLP.ligand.torsion>
0.0776

> <Gold.PLP.Chemscore.Hbond>
1.3553

> <Gold.PLP.Chemscore.CHOScore>
0.0000

> <Gold.PLP.Chemscore.Metal>
0.0000

> <Gold.Chemscore.Hbonds>
donor molecule, donor type, donor heavy atom, donor atom, acceptor molecule, acceptor atom, score
      P1  H  7989  7998       L1    13  0.32
      P1  H  7997  8010       L1    13  1.00

> <Gold.PLP.Chemscore.Internal.Correction>
0.0571

> <Gold.Rescore>
     Score         DG    S(hbond)    S(metal)    S(lipo)     H(rot)  DE(clash)    DE(int)     intcor
     13.59     -13.98       0.81        0.00      91.14       1.90       0.19       0.19       ----

> <Gold.Chemscore.Fitness>
13.5934

> <Gold.Chemscore.DG>
-13.9775

> <Gold.Chemscore.ZeroCoef>
-5.4800

> <Gold.Chemscore.Hbond>
0.8059

> <Gold.Chemscore.Metal>
0.0000

> <Gold.Chemscore.Lipo>
91.1420

> <Gold.Chemscore.Internal_Hbond>
0.0000

> <Gold.Chemscore.DEClash>
0.1903

> <Gold.Chemscore.DEInternal>
0.1938

> <Gold.Chemscore.Rot>
1.8976

> <Gold.Chemscore.Internal.Correction>
   9.000000E+99

> <Gold.Chemscore.Hbonds>
donor molecule, donor type, donor heavy atom, donor atom, acceptor molecule, acceptor atom, score
      P1  H  7989  7998       L1    13  0.01
      P1  H  7997  8010       L1    13  0.24

> <Gold.Chemscore.Hbond.Weighted>
-2.6917

> <Gold.Chemscore.Metal.Weighted>
-0.0000

> <Gold.Chemscore.Lipo.Weighted>
-10.6636

> <Gold.Chemscore.Internal_Hbond.Weighted>
0.0000

> <Gold.Chemscore.DEClash.Weighted>
0.1903

> <Gold.Chemscore.DEInternal.Weighted>
0.1938

> <Gold.Chemscore.Rot.Weighted>
4.8579

> <Gold.Chemscore.Internal.Correction.Weighted>
   9.000000E+99

> <Gold.Protein.RotatedTorsions>
[ 6907 6896 6895 6894 ] final  147.44 input  -60.11 | X-H torsion
[ 7974 7965 7964 7962 ] final   39.37 input  175.53 | X-H torsion
[ 8008 7997 7996 7995 ] final  109.18 input   59.86 | X-H torsion
[ 10167 10162 10161 10158 ] final   31.84 input  -65.29 | X-H torsion
[ 10718 10713 10712 10709 ] final -123.91 input   66.30 | X-H torsion
[ 10763 10752 10751 10750 ] final -166.56 input  -60.55 | X-H torsion
[ 11005 11000 10999 10996 ] final -171.04 input  -57.11 | X-H torsion

> <Gold.Protein.ActiveResidues>
 VAL166  LYS551  ARG553  GLY616  TRP617  ASP618  TYR619  PRO620  LYS621  CYS622 
 ASP623  PHE694  ASN695  SER759  ASP760  ASP761  ALA762  ILE779  LEU786  VAL792 
 PHE793  MET794  SER795  GLU796  ALA797  LYS798  CYS799  TRP800  GLU811  SER814 

> <Gold.Protein.RotatedAtoms>
  152.1548  133.4544  159.4831 H   0  0  0  0  0  0  0  0  0  0  0  0  # atno 6907 bound_to 6896
  150.6899  134.2145  159.4381 H   0  0  0  0  0  0  0  0  0  0  0  0  # atno 6908 bound_to 6896
  152.0043  134.9911  160.0617 H   0  0  0  0  0  0  0  0  0  0  0  0  # atno 6909 bound_to 6896
  146.0989  139.5659  142.9427 H   0  0  0  0  0  0  0  0  0  0  0  0  # atno 7974 bound_to 7965
  156.1959  140.3062  155.9427 H   0  0  0  0  0  0  0  0  0  0  0  0  # atno 8008 bound_to 7997
  155.3066  140.0449  157.3049 H   0  0  0  0  0  0  0  0  0  0  0  0  # atno 8009 bound_to 7997
  154.5509  140.2291  155.8495 H   0  0  0  0  0  0  0  0  0  0  0  0  # atno 8010 bound_to 7997
  140.4552  144.0989  150.6200 H   0  0  0  0  0  0  0  0  0  0  0  0  # atno 10167 bound_to 10162
  156.1542  130.6556  150.9957 H   0  0  0  0  0  0  0  0  0  0  0  0  # atno 10718 bound_to 10713
  154.6820  135.2956  154.9599 H   0  0  0  0  0  0  0  0  0  0  0  0  # atno 10763 bound_to 10752
  154.0591  135.6634  153.4813 H   0  0  0  0  0  0  0  0  0  0  0  0  # atno 10764 bound_to 10752
  153.0554  135.5148  154.7869 H   0  0  0  0  0  0  0  0  0  0  0  0  # atno 10765 bound_to 10752
  140.5128  134.5785  157.5024 H   0  0  0  0  0  0  0  0  0  0  0  0  # atno 11005 bound_to 11000
  145.5893  141.0372  143.2079 LP  0  0  0  0  0  0  0  0  0  0  0  0  # atno 17320 bound_to 7965
  144.7417  139.7430  143.7308 LP  0  0  0  0  0  0  0  0  0  0  0  0  # atno 17321 bound_to 7965
  140.4159  143.2634  151.9775 LP  0  0  0  0  0  0  0  0  0  0  0  0  # atno 17342 bound_to 10162
  139.4800  144.5874  151.7830 LP  0  0  0  0  0  0  0  0  0  0  0  0  # atno 17343 bound_to 10162
  157.6681  131.0867  150.7678 LP  0  0  0  0  0  0  0  0  0  0  0  0  # atno 17370 bound_to 10713
  156.7744  130.4839  149.5412 LP  0  0  0  0  0  0  0  0  0  0  0  0  # atno 17371 bound_to 10713
  139.9649  134.7389  156.0158 LP  0  0  0  0  0  0  0  0  0  0  0  0  # atno 17394 bound_to 11000
  141.1376  133.6571  156.3639 LP  0  0  0  0  0  0  0  0  0  0  0  0  # atno 17395 bound_to 11000

$$$$
