AV-unprocessed.smi:2079|AV-procd|sdf|8486|dock7
  -GOLD-   2272011193D 1   1.00000     0.00000
 Structure written by MMmdl.
 41 42  0  0  0  0  0  0  0  0  3 V2000
  151.9029  145.2908  159.9614 C   0  0  0  0  0  0  0  0  0  0  0  0
  151.6706  143.9666  159.3188 C   0  0  0  0  0  0  0  0  0  0  0  0
  151.4471  143.5872  158.0254 C   0  0  0  0  0  0  0  0  0  0  0  0
  151.3132  142.1766  158.1225 C   0  0  0  0  0  0  0  0  0  0  0  0
  151.0646  141.3916  156.9656 N   0  0  0  0  0  0  0  0  0  0  0  0
  151.2485  140.0706  156.7885 C   0  0  0  0  0  0  0  0  0  0  0  0
  151.6966  139.3732  157.7067 O   0  0  0  0  0  0  0  0  0  0  0  0
  150.8858  139.6612  155.5410 N   0  5  0  0  0  0  0  0  0  0  0  0
  150.0225  138.5157  155.2578 C   0  0  0  0  0  0  0  0  0  0  0  0
  148.8225  138.9487  154.3911 C   0  0  0  0  0  0  0  0  0  0  0  0
  147.8379  137.8396  154.2392 N   0  3  1  0  0  0  0  0  0  0  0  0
  147.4729  137.2622  155.5644 C   0  0  0  0  0  0  0  0  0  0  0  0
  146.5760  136.0257  155.4289 C   0  0  0  0  0  0  0  0  0  0  0  0
  145.3068  136.3761  154.6521 C   0  0  0  0  0  0  0  0  0  0  0  0
  145.6924  136.9526  153.2874 C   0  0  0  0  0  0  0  0  0  0  0  0
  146.6348  138.1719  153.4072 C   0  0  2  0  0  0  0  0  0  0  0  0
  147.0033  138.6417  151.9836 C   0  0  0  0  0  0  0  0  0  0  0  0
  151.4425  141.7358  159.3651 N   0  0  0  0  0  0  0  0  0  0  0  0
  151.6730  142.8802  160.1375 O   0  0  0  0  0  0  0  0  0  0  0  0
  151.5514  146.1004  159.3215 H   0  0  0  0  0  0  0  0  0  0  0  0
  152.9649  145.4454  160.1511 H   0  0  0  0  0  0  0  0  0  0  0  0
  151.3747  145.3593  160.9125 H   0  0  0  0  0  0  0  0  0  0  0  0
  151.3897  144.2181  157.1513 H   0  0  0  0  0  0  0  0  0  0  0  0
  150.7016  141.8930  156.1687 H   0  0  0  0  0  0  0  0  0  0  0  0
  150.5705  137.7348  154.7299 H   0  0  0  0  0  0  0  0  0  0  0  0
  149.6537  138.0428  156.1691 H   0  0  0  0  0  0  0  0  0  0  0  0
  148.3421  139.8139  154.8517 H   0  0  0  0  0  0  0  0  0  0  0  0
  149.1648  139.3132  153.4232 H   0  0  0  0  0  0  0  0  0  0  0  0
  148.3806  136.9846  156.1028 H   0  0  0  0  0  0  0  0  0  0  0  0
  146.9690  138.0220  156.1643 H   0  0  0  0  0  0  0  0  0  0  0  0
  147.1182  135.2281  154.9191 H   0  0  0  0  0  0  0  0  0  0  0  0
  146.3152  135.6441  156.4165 H   0  0  0  0  0  0  0  0  0  0  0  0
  144.6843  135.4897  154.5257 H   0  0  0  0  0  0  0  0  0  0  0  0
  144.7135  137.1015  155.2104 H   0  0  0  0  0  0  0  0  0  0  0  0
  146.1739  136.1734  152.6943 H   0  0  0  0  0  0  0  0  0  0  0  0
  144.7876  137.2321  152.7461 H   0  0  0  0  0  0  0  0  0  0  0  0
  146.0948  138.9772  153.9082 H   0  0  0  0  0  0  0  0  0  0  0  0
  146.1066  138.8055  151.3853 H   0  0  0  0  0  0  0  0  0  0  0  0
  147.6097  137.8974  151.4663 H   0  0  0  0  0  0  0  0  0  0  0  0
  147.5537  139.5814  151.9759 H   0  0  0  0  0  0  0  0  0  0  0  0
  148.3290  137.1107  153.7416 H   0  0  0  0  0  0  0  0  0  0  0  0
  1  2  1  0  0  0  0
  1 20  1  0  0  0  0
  1 21  1  0  0  0  0
  1 22  1  0  0  0  0
  2 19  1  0  0  0  0
  2  3  2  0  0  0  0
  3  4  1  0  0  0  0
  3 23  1  0  0  0  0
  4  5  1  0  0  0  0
  4 18  2  0  0  0  0
  5  6  1  0  0  0  0
  5 24  1  0  0  0  0
  6  7  2  0  0  0  0
  6  8  1  0  0  0  0
  8  9  1  0  0  0  0
  9 10  1  0  0  0  0
  9 25  1  0  0  0  0
  9 26  1  0  0  0  0
 10 11  1  0  0  0  0
 10 27  1  0  0  0  0
 10 28  1  0  0  0  0
 11 16  1  0  0  0  0
 11 12  1  0  0  0  0
 11 41  1  0  0  0  0
 12 13  1  0  0  0  0
 12 29  1  0  0  0  0
 12 30  1  0  0  0  0
 13 14  1  0  0  0  0
 13 31  1  0  0  0  0
 13 32  1  0  0  0  0
 14 15  1  0  0  0  0
 14 33  1  0  0  0  0
 14 34  1  0  0  0  0
 15 16  1  0  0  0  0
 15 35  1  0  0  0  0
 15 36  1  0  0  0  0
 16 17  1  0  0  0  0
 16 37  1  0  0  0  0
 17 38  1  0  0  0  0
 17 39  1  0  0  0  0
 17 40  1  0  0  0  0
 18 19  1  0  0  0  0
M  CHG  1   8  -1
M  CHG  1  11   1
M  END
> <s_m_source_file>
AV-unprocessed.smi

> <i_m_source_file_index>
2079

> <i_lp_mmshare_version>
43012

> <i_f3d_flags>
0

> <s_epik_input>
W0NIM11jMVtjSF1jKG5vMSlbTkhdQyg9TylbTkhdW0NIMl1bQ0gyXU4yW0NIMl1bQ0gyXVtDSDJdW0NIMl1bQ0BIXTJbQ0gzXQ==

> <s_epik_cmdline>
J2VwaWtfcHl0aG9uJywgJy1waCcsICc3LjAnLCAnLXRuJywgJzgnLCAnLW1hJywgJzIwMCcsICctbWV0YWxfYmluZGluZycsICctaW1hZScsICc8aW5maWxlLm1hZT4nLCAnLW9tYWUnLCAnPG91dGZpbGUubWFlPic=

> <r_epik_Ionization_Penalty>
6.7666

> <r_epik_Ionization_Penalty_Charging>
6.7666

> <r_epik_Ionization_Penalty_Neutral>
5.77131e-06

> <r_epik_State_Penalty>
6.79217

> <r_epik_Charging_Adjusted_Penalty>
13.5588

> <i_epik_Tot_Q>
0

> <i_epik_Tot_abs_Q>
2

> <r_epik_Metal_State_Penalty>
2.72569

> <b_epik_Metal_Only>
1

> <s_lp_Force_Field>
OPLS_2005

> <r_lp_Energy>
14.3166

> <b_lp_Chiralities_Consistent>
1

> <s_lp_Variant>
AV-unprocessed.smi:2079-12

> <Gold.Version>
5.8.1

> <Gold.Id.Protein>
6NUR|6NUR_protein|mol2

> <Gold.PLP.Fitness>
43.5597

> <Gold.PLP.PLP>
-32.6199

> <Gold.PLP.part.hbond>
-3.0000

> <Gold.PLP.part.metal>
0.0000

> <Gold.PLP.part.buried>
-3.8540

> <Gold.PLP.part.nonpolar>
-26.1120

> <Gold.PLP.part.repulsive>
0.1688

> <Gold.PLP.ligand.clash>
0.0000

> <Gold.PLP.ligand.torsion>
0.5527

> <Gold.PLP.Chemscore.Hbond>
4.0000

> <Gold.PLP.Chemscore.CHOScore>
0.0000

> <Gold.PLP.Chemscore.Metal>
0.0000

> <Gold.Chemscore.Hbonds>
donor molecule, donor type, donor heavy atom, donor atom, acceptor molecule, acceptor atom, score
      L1  H    11    41       P1  7948  1.32

> <Gold.PLP.Chemscore.Internal.Correction>
0.0452

> <Gold.Rescore>
     Score         DG    S(hbond)    S(metal)    S(lipo)     H(rot)  DE(clash)    DE(int)     intcor
     17.10     -18.95       2.79        0.00      69.17       1.54       0.02       1.83       ----

> <Gold.Chemscore.Fitness>
17.1019

> <Gold.Chemscore.DG>
-18.9479

> <Gold.Chemscore.ZeroCoef>
-5.4800

> <Gold.Chemscore.Hbond>
2.7904

> <Gold.Chemscore.Metal>
0.0000

> <Gold.Chemscore.Lipo>
69.1672

> <Gold.Chemscore.Internal_Hbond>
0.0000

> <Gold.Chemscore.DEClash>
0.0182

> <Gold.Chemscore.DEInternal>
1.8278

> <Gold.Chemscore.Rot>
1.5409

> <Gold.Chemscore.Internal.Correction>
   9.000000E+99

> <Gold.Chemscore.Hbonds>
donor molecule, donor type, donor heavy atom, donor atom, acceptor molecule, acceptor atom, score
      L1  H    11    41       P1  7948  0.62
      P1  H  7989  7998       L1     8  0.02

> <Gold.Chemscore.Hbond.Weighted>
-9.3200

> <Gold.Chemscore.Metal.Weighted>
-0.0000

> <Gold.Chemscore.Lipo.Weighted>
-8.0926

> <Gold.Chemscore.Internal_Hbond.Weighted>
0.0000

> <Gold.Chemscore.DEClash.Weighted>
0.0182

> <Gold.Chemscore.DEInternal.Weighted>
1.8278

> <Gold.Chemscore.Rot.Weighted>
3.9446

> <Gold.Chemscore.Internal.Correction.Weighted>
   9.000000E+99

> <Gold.Protein.RotatedTorsions>
[ 6907 6896 6895 6894 ] final  -36.84 input  -60.11 | X-H torsion
[ 7974 7965 7964 7962 ] final   40.65 input  175.53 | X-H torsion
[ 8008 7997 7996 7995 ] final -178.67 input   59.86 | X-H torsion
[ 10167 10162 10161 10158 ] final   60.41 input  -65.29 | X-H torsion
[ 10718 10713 10712 10709 ] final   49.26 input   66.30 | X-H torsion
[ 10763 10752 10751 10750 ] final   86.47 input  -60.55 | X-H torsion
[ 11005 11000 10999 10996 ] final -102.24 input  -57.11 | X-H torsion

> <Gold.Protein.ActiveResidues>
 VAL166  LYS551  ARG553  GLY616  TRP617  ASP618  TYR619  PRO620  LYS621  CYS622 
 ASP623  PHE694  ASN695  SER759  ASP760  ASP761  ALA762  ILE779  LEU786  VAL792 
 PHE793  MET794  SER795  GLU796  ALA797  LYS798  CYS799  TRP800  GLU811  SER814 

> <Gold.Protein.RotatedAtoms>
  151.0221  134.9477  159.8064 H   0  0  0  0  0  0  0  0  0  0  0  0  # atno 6907 bound_to 6896
  152.5327  134.2890  159.9046 H   0  0  0  0  0  0  0  0  0  0  0  0  # atno 6908 bound_to 6896
  151.2898  133.4129  159.2666 H   0  0  0  0  0  0  0  0  0  0  0  0  # atno 6909 bound_to 6896
  146.0888  139.5508  142.9489 H   0  0  0  0  0  0  0  0  0  0  0  0  # atno 7974 bound_to 7965
  156.0216  140.1262  157.0352 H   0  0  0  0  0  0  0  0  0  0  0  0  # atno 8008 bound_to 7997
  154.4313  140.1067  156.6041 H   0  0  0  0  0  0  0  0  0  0  0  0  # atno 8009 bound_to 7997
  155.5937  140.3469  155.4576 H   0  0  0  0  0  0  0  0  0  0  0  0  # atno 8010 bound_to 7997
  140.1659  144.4325  150.6685 H   0  0  0  0  0  0  0  0  0  0  0  0  # atno 10167 bound_to 10162
  157.4769  130.8291  149.8050 H   0  0  0  0  0  0  0  0  0  0  0  0  # atno 10718 bound_to 10713
  153.1574  135.4579  154.9723 H   0  0  0  0  0  0  0  0  0  0  0  0  # atno 10763 bound_to 10752
  154.7871  135.3208  154.7863 H   0  0  0  0  0  0  0  0  0  0  0  0  # atno 10764 bound_to 10752
  153.8358  135.6934  153.4863 H   0  0  0  0  0  0  0  0  0  0  0  0  # atno 10765 bound_to 10752
  141.1198  133.8542  157.1334 H   0  0  0  0  0  0  0  0  0  0  0  0  # atno 11005 bound_to 11000
  145.6079  141.0344  143.1982 LP  0  0  0  0  0  0  0  0  0  0  0  0  # atno 17320 bound_to 7965
  144.7345  139.7627  143.7334 LP  0  0  0  0  0  0  0  0  0  0  0  0  # atno 17321 bound_to 7965
  140.6613  143.2253  151.5849 LP  0  0  0  0  0  0  0  0  0  0  0  0  # atno 17342 bound_to 10162
  139.5360  144.2781  152.1251 LP  0  0  0  0  0  0  0  0  0  0  0  0  # atno 17343 bound_to 10162
  156.0101  130.3837  150.2293 LP  0  0  0  0  0  0  0  0  0  0  0  0  # atno 17370 bound_to 10713
  157.0477  131.0053  151.3263 LP  0  0  0  0  0  0  0  0  0  0  0  0  # atno 17371 bound_to 10713
  140.0146  134.9973  157.0466 LP  0  0  0  0  0  0  0  0  0  0  0  0  # atno 17394 bound_to 11000
  140.4542  134.1551  155.7184 LP  0  0  0  0  0  0  0  0  0  0  0  0  # atno 17395 bound_to 11000

$$$$
