AV-unprocessed.smi:2033|AV-procd|sdf|8261|dock3
  -GOLD-   2272010533D 1   1.00000     0.00000
 Structure written by MMmdl.
 32 33  0  0  0  0  0  0  0  0  2 V2000
  145.8365  143.2233  153.8238 C   0  0  0  0  0  0  0  0  0  0  0  0
  146.7765  142.0817  154.0076 C   0  0  0  0  0  0  0  0  0  0  0  0
  146.7657  141.0030  153.2207 N   0  0  0  0  0  0  0  0  0  0  0  0
  147.7335  140.0789  153.5875 N   0  0  0  0  0  0  0  0  0  0  0  0
  148.4681  140.4751  154.6366 C   0  0  0  0  0  0  0  0  0  0  0  0
  149.4565  139.7243  155.1501 N   0  5  0  0  0  0  0  0  0  0  0  0
  150.4619  140.3114  155.8387 C   0  0  0  0  0  0  0  0  0  0  0  0
  151.5717  140.6148  155.3942 O   0  0  0  0  0  0  0  0  0  0  0  0
  150.1626  140.5641  157.1223 N   0  0  0  0  0  0  0  0  0  0  0  0
  151.0387  141.2022  158.1074 C   0  0  2  0  0  0  0  0  0  0  0  0
  151.2689  142.6698  157.6673 C   0  0  0  0  0  0  0  0  0  0  0  0
  152.4507  143.4093  158.3343 C   0  0  0  0  0  0  0  0  0  0  0  0
  152.5777  143.2031  159.8577 C   0  0  0  0  0  0  0  0  0  0  0  0
  152.8090  141.7498  160.3478 C   0  0  0  0  0  0  0  0  0  0  0  0
  153.1642  140.7945  159.2981 N   0  0  0  0  0  0  0  0  0  0  0  0
  152.3957  140.4751  158.2427 C   0  0  0  0  0  0  0  0  0  0  0  0
  152.7712  139.6596  157.4013 O   0  0  0  0  0  0  0  0  0  0  0  0
  147.9902  142.0478  155.2753 S   0  0  0  0  0  0  0  0  0  0  0  0
  146.1719  143.8524  152.9994 H   0  0  0  0  0  0  0  0  0  0  0  0
  145.7927  143.8272  154.7303 H   0  0  0  0  0  0  0  0  0  0  0  0
  144.8342  142.8561  153.6019 H   0  0  0  0  0  0  0  0  0  0  0  0
  149.2403  140.3034  157.4386 H   0  0  0  0  0  0  0  0  0  0  0  0
  150.5253  141.1926  159.0698 H   0  0  0  0  0  0  0  0  0  0  0  0
  151.4147  142.7144  156.5866 H   0  0  0  0  0  0  0  0  0  0  0  0
  150.3523  143.2281  157.8618 H   0  0  0  0  0  0  0  0  0  0  0  0
  153.3848  143.1144  157.8539 H   0  0  0  0  0  0  0  0  0  0  0  0
  152.3537  144.4754  158.1275 H   0  0  0  0  0  0  0  0  0  0  0  0
  153.4106  143.8153  160.2054 H   0  0  0  0  0  0  0  0  0  0  0  0
  151.6950  143.6094  160.3528 H   0  0  0  0  0  0  0  0  0  0  0  0
  153.6025  141.7407  161.0955 H   0  0  0  0  0  0  0  0  0  0  0  0
  151.9211  141.3849  160.8657 H   0  0  0  0  0  0  0  0  0  0  0  0
  154.0569  140.3308  159.3849 H   0  0  0  0  0  0  0  0  0  0  0  0
  1  2  1  0  0  0  0
  1 19  1  0  0  0  0
  1 20  1  0  0  0  0
  1 21  1  0  0  0  0
  2 18  1  0  0  0  0
  2  3  2  0  0  0  0
  3  4  1  0  0  0  0
  4  5  2  0  0  0  0
  5  6  1  0  0  0  0
  5 18  1  0  0  0  0
  6  7  1  0  0  0  0
  7  8  2  0  0  0  0
  7  9  1  0  0  0  0
  9 10  1  0  0  0  0
  9 22  1  0  0  0  0
 10 16  1  0  0  0  0
 10 11  1  0  0  0  0
 10 23  1  0  0  0  0
 11 12  1  0  0  0  0
 11 24  1  0  0  0  0
 11 25  1  0  0  0  0
 12 13  1  0  0  0  0
 12 26  1  0  0  0  0
 12 27  1  0  0  0  0
 13 14  1  0  0  0  0
 13 28  1  0  0  0  0
 13 29  1  0  0  0  0
 14 15  1  0  0  0  0
 14 30  1  0  0  0  0
 14 31  1  0  0  0  0
 15 16  1  0  0  0  0
 15 32  1  0  0  0  0
 16 17  2  0  0  0  0
M  CHG  1   6  -1
M  END
> <s_m_source_file>
AV-unprocessed.smi

> <i_m_source_file_index>
2033

> <i_lp_mmshare_version>
43012

> <i_f3d_flags>
0

> <s_epik_input>
W0NIM11jMW5uYyhzMSlbTkhdQyg9TylbTkhdW0NAQEhdMltDSDJdW0NIMl1bQ0gyXVtDSDJdW05IXUMyPU8=

> <s_epik_cmdline>
J2VwaWtfcHl0aG9uJywgJy1waCcsICc3LjAnLCAnLXRuJywgJzgnLCAnLW1hJywgJzIwMCcsICctbWV0YWxfYmluZGluZycsICctaW1hZScsICc8aW5maWxlLm1hZT4nLCAnLW9tYWUnLCAnPG91dGZpbGUubWFlPic=

> <r_lp_tautomer_probability>
1

> <r_epik_Ionization_Penalty>
4.07233

> <r_epik_Ionization_Penalty_Charging>
3.9374

> <r_epik_Ionization_Penalty_Neutral>
0.134927

> <r_epik_State_Penalty>
3.93663

> <r_epik_Charging_Adjusted_Penalty>
7.87404

> <i_epik_Tot_Q>
-1

> <i_epik_Tot_abs_Q>
1

> <r_epik_Metal_State_Penalty>
0.602812

> <b_epik_Metal_Only>
1

> <s_lp_Force_Field>
OPLS_2005

> <r_lp_Energy>
13.5644

> <b_lp_Chiralities_Consistent>
1

> <s_lp_Variant>
AV-unprocessed.smi:2033-3

> <Gold.Version>
5.8.1

> <Gold.Id.Protein>
6NUR|6NUR_protein|mol2

> <Gold.PLP.Fitness>
35.8750

> <Gold.PLP.PLP>
-32.3680

> <Gold.PLP.part.hbond>
-2.0000

> <Gold.PLP.part.metal>
0.0000

> <Gold.PLP.part.buried>
-3.3693

> <Gold.PLP.part.nonpolar>
-27.7776

> <Gold.PLP.part.repulsive>
1.0676

> <Gold.PLP.ligand.clash>
0.0000

> <Gold.PLP.ligand.torsion>
0.8997

> <Gold.PLP.Chemscore.Hbond>
1.7680

> <Gold.PLP.Chemscore.CHOScore>
0.0000

> <Gold.PLP.Chemscore.Metal>
0.0000

> <Gold.Chemscore.Hbonds>
donor molecule, donor type, donor heavy atom, donor atom, acceptor molecule, acceptor atom, score
      P1  H  7989  7998       L1     8  0.75
      P1  H  7997  8010       L1    17  1.00

> <Gold.PLP.Chemscore.Internal.Correction>
0.0024

> <Gold.Rescore>
     Score         DG    S(hbond)    S(metal)    S(lipo)     H(rot)  DE(clash)    DE(int)     intcor
     11.40     -16.77       1.69        0.00      70.08       1.00       0.12       5.24       ----

> <Gold.Chemscore.Fitness>
11.4042

> <Gold.Chemscore.DG>
-16.7698

> <Gold.Chemscore.ZeroCoef>
-5.4800

> <Gold.Chemscore.Hbond>
1.6917

> <Gold.Chemscore.Metal>
0.0000

> <Gold.Chemscore.Lipo>
70.0826

> <Gold.Chemscore.Internal_Hbond>
0.0000

> <Gold.Chemscore.DEClash>
0.1207

> <Gold.Chemscore.DEInternal>
5.2449

> <Gold.Chemscore.Rot>
1.0000

> <Gold.Chemscore.Internal.Correction>
   9.000000E+99

> <Gold.Chemscore.Hbonds>
donor molecule, donor type, donor heavy atom, donor atom, acceptor molecule, acceptor atom, score
      P1  H  7989  7998       L1     8  0.70
      P1  H  7997  8010       L1    17  0.82

> <Gold.Chemscore.Hbond.Weighted>
-5.6502

> <Gold.Chemscore.Metal.Weighted>
-0.0000

> <Gold.Chemscore.Lipo.Weighted>
-8.1997

> <Gold.Chemscore.Internal_Hbond.Weighted>
0.0000

> <Gold.Chemscore.DEClash.Weighted>
0.1207

> <Gold.Chemscore.DEInternal.Weighted>
5.2449

> <Gold.Chemscore.Rot.Weighted>
2.5600

> <Gold.Chemscore.Internal.Correction.Weighted>
   9.000000E+99

> <Gold.Protein.RotatedTorsions>
[ 6907 6896 6895 6894 ] final    5.42 input  -60.11 | X-H torsion
[ 7974 7965 7964 7962 ] final -140.68 input  175.53 | X-H torsion
[ 8008 7997 7996 7995 ] final   53.40 input   59.86 | X-H torsion
[ 10167 10162 10161 10158 ] final  -27.87 input  -65.29 | X-H torsion
[ 10718 10713 10712 10709 ] final -175.49 input   66.30 | X-H torsion
[ 10763 10752 10751 10750 ] final -107.52 input  -60.55 | X-H torsion
[ 11005 11000 10999 10996 ] final  122.16 input  -57.11 | X-H torsion

> <Gold.Protein.ActiveResidues>
 VAL166  LYS551  ARG553  GLY616  TRP617  ASP618  TYR619  PRO620  LYS621  CYS622 
 ASP623  PHE694  ASN695  SER759  ASP760  ASP761  ALA762  ILE779  LEU786  VAL792 
 PHE793  MET794  SER795  GLU796  ALA797  LYS798  CYS799  TRP800  GLU811  SER814 

> <Gold.Protein.RotatedAtoms>
  151.6572  135.0994  160.0172 H   0  0  0  0  0  0  0  0  0  0  0  0  # atno 6907 bound_to 6896
  152.3967  133.6753  159.6291 H   0  0  0  0  0  0  0  0  0  0  0  0  # atno 6908 bound_to 6896
  150.7873  133.8778  159.3318 H   0  0  0  0  0  0  0  0  0  0  0  0  # atno 6909 bound_to 6896
  144.8578  140.6170  143.5348 H   0  0  0  0  0  0  0  0  0  0  0  0  # atno 7974 bound_to 7965
  155.4676  140.3464  155.4321 H   0  0  0  0  0  0  0  0  0  0  0  0  # atno 8008 bound_to 7997
  156.1121  140.1464  156.9353 H   0  0  0  0  0  0  0  0  0  0  0  0  # atno 8009 bound_to 7997
  154.4763  140.0884  156.7250 H   0  0  0  0  0  0  0  0  0  0  0  0  # atno 8010 bound_to 7997
  140.7274  143.4057  151.1190 H   0  0  0  0  0  0  0  0  0  0  0  0  # atno 10167 bound_to 10162
  156.8006  130.9551  151.3118 H   0  0  0  0  0  0  0  0  0  0  0  0  # atno 10718 bound_to 10713
  154.8080  135.4672  154.0442 H   0  0  0  0  0  0  0  0  0  0  0  0  # atno 10763 bound_to 10752
  153.1895  135.6853  153.8378 H   0  0  0  0  0  0  0  0  0  0  0  0  # atno 10764 bound_to 10752
  153.7900  135.3244  155.3354 H   0  0  0  0  0  0  0  0  0  0  0  0  # atno 10765 bound_to 10752
  139.9256  134.9640  156.8068 H   0  0  0  0  0  0  0  0  0  0  0  0  # atno 11005 bound_to 11000
  145.4372  139.1540  143.3990 LP  0  0  0  0  0  0  0  0  0  0  0  0  # atno 17320 bound_to 7965
  146.2837  140.4491  142.8766 LP  0  0  0  0  0  0  0  0  0  0  0  0  # atno 17321 bound_to 7965
  139.7683  143.8532  152.3115 LP  0  0  0  0  0  0  0  0  0  0  0  0  # atno 17342 bound_to 10162
  139.8442  144.7195  150.9294 LP  0  0  0  0  0  0  0  0  0  0  0  0  # atno 17343 bound_to 10162
  157.6556  130.8921  149.9721 LP  0  0  0  0  0  0  0  0  0  0  0  0  # atno 17370 bound_to 10713
  156.1104  130.3650  150.0060 LP  0  0  0  0  0  0  0  0  0  0  0  0  # atno 17371 bound_to 10713
  140.6345  133.9875  155.7677 LP  0  0  0  0  0  0  0  0  0  0  0  0  # atno 17394 bound_to 11000
  141.0812  134.0060  157.3383 LP  0  0  0  0  0  0  0  0  0  0  0  0  # atno 17395 bound_to 11000

$$$$
