AV-unprocessed.smi:2597|AV-procd|sdf|10176|dock1
  -GOLD-   2272014193D 1   1.00000     0.00000
 Structure written by MMmdl.
 30 31  0  0  0  0  0  0  0  0  1 V2000
  153.0889  139.9598  158.2844 N   0  0  0  0  0  0  0  0  0  0  0  0
  152.3216  141.0795  158.8021 C   0  0  1  0  0  0  0  0  0  0  0  0
  153.1160  141.7202  159.9565 C   0  0  0  0  0  0  0  0  0  0  0  0
  152.4070  142.9688  160.5018 C   0  0  0  0  0  0  0  0  0  0  0  0
  152.1530  143.9913  159.3846 C   0  0  0  0  0  0  0  0  0  0  0  0
  151.3448  143.3654  158.2379 C   0  0  0  0  0  0  0  0  0  0  0  0
  152.0379  142.1062  157.6753 C   0  0  2  0  0  0  0  0  0  0  0  0
  151.2580  141.5338  156.5846 N   0  0  0  0  0  0  0  0  0  0  0  0
  150.0146  141.9241  156.1319 C   0  0  0  0  0  0  0  0  0  0  0  0
  149.7529  141.0477  155.1170 C   0  0  0  0  0  0  0  0  0  0  0  0
  148.5506  140.9563  154.2275 C   0  0  0  0  0  0  0  0  0  0  0  0
  148.7087  139.7910  153.4471 O   0  0  0  0  0  0  0  0  0  0  0  0
  150.8305  140.1719  154.9950 N   0  0  0  0  0  0  0  0  0  0  0  0
  151.7245  140.4694  155.8844 N   0  0  0  0  0  0  0  0  0  0  0  0
  151.3798  140.6937  159.1940 H   0  0  0  0  0  0  0  0  0  0  0  0
  152.9945  142.4198  157.2529 H   0  0  0  0  0  0  0  0  0  0  0  0
  153.4166  139.3928  159.0539 H   0  0  0  0  0  0  0  0  0  0  0  0
  152.4890  139.3668  157.7291 H   0  0  0  0  0  0  0  0  0  0  0  0
  153.2554  140.9981  160.7620 H   0  0  0  0  0  0  0  0  0  0  0  0
  154.1143  141.9976  159.6140 H   0  0  0  0  0  0  0  0  0  0  0  0
  151.4593  142.6819  160.9593 H   0  0  0  0  0  0  0  0  0  0  0  0
  153.0070  143.4221  161.2914 H   0  0  0  0  0  0  0  0  0  0  0  0
  151.6220  144.8551  159.7851 H   0  0  0  0  0  0  0  0  0  0  0  0
  153.1052  144.3621  159.0028 H   0  0  0  0  0  0  0  0  0  0  0  0
  150.3474  143.1138  158.6013 H   0  0  0  0  0  0  0  0  0  0  0  0
  151.2072  144.1005  157.4441 H   0  0  0  0  0  0  0  0  0  0  0  0
  149.4524  142.7453  156.5507 H   0  0  0  0  0  0  0  0  0  0  0  0
  147.6324  140.8849  154.8108 H   0  0  0  0  0  0  0  0  0  0  0  0
  148.4644  141.8246  153.5736 H   0  0  0  0  0  0  0  0  0  0  0  0
  149.1468  140.0260  152.6435 H   0  0  0  0  0  0  0  0  0  0  0  0
  1  2  1  0  0  0  0
  1 17  1  0  0  0  0
  1 18  1  0  0  0  0
  2 15  1  0  0  0  0
  2  7  1  0  0  0  0
  2  3  1  0  0  0  0
  3  4  1  0  0  0  0
  3 19  1  0  0  0  0
  3 20  1  0  0  0  0
  4  5  1  0  0  0  0
  4 21  1  0  0  0  0
  4 22  1  0  0  0  0
  5  6  1  0  0  0  0
  5 23  1  0  0  0  0
  5 24  1  0  0  0  0
  6  7  1  0  0  0  0
  6 25  1  0  0  0  0
  6 26  1  0  0  0  0
  7 16  1  0  0  0  0
  7  8  1  0  0  0  0
  8 14  1  0  0  0  0
  8  9  1  0  0  0  0
  9 10  2  0  0  0  0
  9 27  1  0  0  0  0
 10 11  1  0  0  0  0
 10 13  1  0  0  0  0
 11 12  1  0  0  0  0
 11 28  1  0  0  0  0
 11 29  1  0  0  0  0
 12 30  1  0  0  0  0
 13 14  2  0  0  0  0
M  END
> <s_m_source_file>
AV-unprocessed.smi

> <i_m_source_file_index>
2597

> <i_lp_mmshare_version>
43012

> <i_f3d_flags>
0

> <s_epik_input>
W05IMl1bQ0BIXTFbQ0gyXVtDSDJdW0NIMl1bQ0gyXVtDQEhdMW4yW2NIXWMobm4yKVtDSDJdW09IXQ==

> <s_epik_cmdline>
J2VwaWtfcHl0aG9uJywgJy1waCcsICc3LjAnLCAnLXRuJywgJzgnLCAnLW1hJywgJzIwMCcsICctbWV0YWxfYmluZGluZycsICctaW1hZScsICc8aW5maWxlLm1hZT4nLCAnLW9tYWUnLCAnPG91dGZpbGUubWFlPic=

> <r_lp_tautomer_probability>
1

> <r_epik_Ionization_Penalty>
2.21303

> <r_epik_Ionization_Penalty_Charging>
0

> <r_epik_Ionization_Penalty_Neutral>
2.21303

> <r_epik_State_Penalty>
2.3573

> <r_epik_Charging_Adjusted_Penalty>
2.3573

> <i_epik_Tot_Q>
0

> <i_epik_Tot_abs_Q>
0

> <r_epik_Metal_State_Penalty>
2.35724

> <b_epik_Metal_Only>
0

> <s_lp_Force_Field>
OPLS_2005

> <r_lp_Energy>
13.5857

> <b_lp_Chiralities_Consistent>
1

> <s_lp_Variant>
AV-unprocessed.smi:2597-7

> <Gold.Version>
5.8.1

> <Gold.Id.Protein>
6NUR|6NUR_protein|mol2

> <Gold.PLP.Fitness>
41.6553

> <Gold.PLP.PLP>
-29.7610

> <Gold.PLP.part.hbond>
-3.1674

> <Gold.PLP.part.metal>
0.0000

> <Gold.PLP.part.buried>
-3.2131

> <Gold.PLP.part.nonpolar>
-22.5399

> <Gold.PLP.part.repulsive>
0.0507

> <Gold.PLP.ligand.clash>
0.0000

> <Gold.PLP.ligand.torsion>
0.0648

> <Gold.PLP.Chemscore.Hbond>
3.0000

> <Gold.PLP.Chemscore.CHOScore>
1.0000

> <Gold.PLP.Chemscore.Metal>
0.0000

> <Gold.Chemscore.Hbonds>
donor molecule, donor type, donor heavy atom, donor atom, acceptor molecule, acceptor atom, score
      L1  H    12    30       P1  7957  1.00
      P1  H  7989  7998       L1    13  1.00
      P1  H  7997  8010       L1     1  1.00
      L1  C     9    27       P1  8028  1.00

> <Gold.PLP.Chemscore.Internal.Correction>
0.0239

> <Gold.Rescore>
     Score         DG    S(hbond)    S(metal)    S(lipo)     H(rot)  DE(clash)    DE(int)     intcor
     13.00     -14.73       1.18        0.00      85.21       1.82       0.29       1.45       ----

> <Gold.Chemscore.Fitness>
12.9974

> <Gold.Chemscore.DG>
-14.7306

> <Gold.Chemscore.ZeroCoef>
-5.4800

> <Gold.Chemscore.Hbond>
1.1814

> <Gold.Chemscore.Metal>
0.0000

> <Gold.Chemscore.Lipo>
85.2112

> <Gold.Chemscore.Internal_Hbond>
0.0000

> <Gold.Chemscore.DEClash>
0.2872

> <Gold.Chemscore.DEInternal>
1.4460

> <Gold.Chemscore.Rot>
1.8222

> <Gold.Chemscore.Internal.Correction>
   9.000000E+99

> <Gold.Chemscore.Hbonds>
donor molecule, donor type, donor heavy atom, donor atom, acceptor molecule, acceptor atom, score
      L1  H    12    30       P1  7957  0.95
      P1  H  7989  7998       L1    13  0.07
      P1  H  7997  8010       L1     1  0.08

> <Gold.Chemscore.Hbond.Weighted>
-3.9459

> <Gold.Chemscore.Metal.Weighted>
-0.0000

> <Gold.Chemscore.Lipo.Weighted>
-9.9697

> <Gold.Chemscore.Internal_Hbond.Weighted>
0.0000

> <Gold.Chemscore.DEClash.Weighted>
0.2872

> <Gold.Chemscore.DEInternal.Weighted>
1.4460

> <Gold.Chemscore.Rot.Weighted>
4.6649

> <Gold.Chemscore.Internal.Correction.Weighted>
   9.000000E+99

> <Gold.Protein.RotatedTorsions>
[ 6907 6896 6895 6894 ] final  -42.24 input  -60.11 | X-H torsion
[ 7974 7965 7964 7962 ] final -102.81 input  175.53 | X-H torsion
[ 8008 7997 7996 7995 ] final   26.21 input   59.86 | X-H torsion
[ 10167 10162 10161 10158 ] final -128.81 input  -65.29 | X-H torsion
[ 10718 10713 10712 10709 ] final   46.23 input   66.30 | X-H torsion
[ 10763 10752 10751 10750 ] final -105.45 input  -60.55 | X-H torsion
[ 11005 11000 10999 10996 ] final  -64.05 input  -57.11 | X-H torsion

> <Gold.Protein.ActiveResidues>
 VAL166  LYS551  ARG553  GLY616  TRP617  ASP618  TYR619  PRO620  LYS621  CYS622 
 ASP623  PHE694  ASN695  SER759  ASP760  ASP761  ALA762  ILE779  LEU786  VAL792 
 PHE793  MET794  SER795  GLU796  ALA797  LYS798  CYS799  TRP800  GLU811  SER814 

> <Gold.Protein.RotatedAtoms>
  150.9574  134.8967  159.7709 H   0  0  0  0  0  0  0  0  0  0  0  0  # atno 6907 bound_to 6896
  152.5143  134.3720  159.9331 H   0  0  0  0  0  0  0  0  0  0  0  0  # atno 6908 bound_to 6896
  151.3734  133.3806  159.2737 H   0  0  0  0  0  0  0  0  0  0  0  0  # atno 6909 bound_to 6896
  145.2639  140.9278  143.3025 H   0  0  0  0  0  0  0  0  0  0  0  0  # atno 7974 bound_to 7965
  155.0238  140.3150  155.4783 H   0  0  0  0  0  0  0  0  0  0  0  0  # atno 8008 bound_to 7997
  156.2887  140.2192  156.5299 H   0  0  0  0  0  0  0  0  0  0  0  0  # atno 8009 bound_to 7997
  154.7429  140.0472  157.0815 H   0  0  0  0  0  0  0  0  0  0  0  0  # atno 8010 bound_to 7997
  139.9464  143.6105  152.2488 H   0  0  0  0  0  0  0  0  0  0  0  0  # atno 10167 bound_to 10162
  157.4459  130.8109  149.7740 H   0  0  0  0  0  0  0  0  0  0  0  0  # atno 10718 bound_to 10713
  154.7947  135.4748  154.0134 H   0  0  0  0  0  0  0  0  0  0  0  0  # atno 10763 bound_to 10752
  153.1686  135.6821  153.8647 H   0  0  0  0  0  0  0  0  0  0  0  0  # atno 10764 bound_to 10752
  153.8237  135.3201  155.3390 H   0  0  0  0  0  0  0  0  0  0  0  0  # atno 10765 bound_to 10752
  141.1412  133.6660  156.5774 H   0  0  0  0  0  0  0  0  0  0  0  0  # atno 11005 bound_to 11000
  144.9394  139.4207  143.6456 LP  0  0  0  0  0  0  0  0  0  0  0  0  # atno 17320 bound_to 7965
  146.3267  139.8346  142.8902 LP  0  0  0  0  0  0  0  0  0  0  0  0  # atno 17321 bound_to 7965
  139.6664  144.7662  151.1866 LP  0  0  0  0  0  0  0  0  0  0  0  0  # atno 17342 bound_to 10162
  140.7596  143.5932  150.8775 LP  0  0  0  0  0  0  0  0  0  0  0  0  # atno 17343 bound_to 10162
  155.9967  130.3904  150.2769 LP  0  0  0  0  0  0  0  0  0  0  0  0  # atno 17370 bound_to 10713
  157.0937  131.0176  151.3112 LP  0  0  0  0  0  0  0  0  0  0  0  0  # atno 17371 bound_to 10713
  140.3865  134.7478  157.4694 LP  0  0  0  0  0  0  0  0  0  0  0  0  # atno 17394 bound_to 11000
  140.0598  134.6012  155.8762 LP  0  0  0  0  0  0  0  0  0  0  0  0  # atno 17395 bound_to 11000

$$$$
