AV-unprocessed.smi:1812|AV-procd|sdf|7339|dock1
  -GOLD-   22720 9 03D 1   1.00000     0.00000
 Structure written by MMmdl.
 33 35  0  0  0  0  0  0  0  0  2 V2000
  152.1389  137.5963  157.9133 O   0  0  0  0  0  0  0  0  0  0  0  0
  152.5212  138.7062  157.5357 C   0  0  0  0  0  0  0  0  0  0  0  0
  152.1836  139.1572  156.3197 N   0  0  0  0  0  0  0  0  0  0  0  0
  151.3872  138.4479  155.3242 C   0  0  0  0  0  0  0  0  0  0  0  0
  150.1067  139.2329  155.0092 C   0  0  1  0  0  0  0  0  0  0  0  0
  149.3732  139.7474  156.2466 C   0  0  0  0  0  0  0  0  0  0  0  0
  148.6073  140.9572  155.7319 C   0  0  0  0  0  0  0  0  0  0  0  0
  149.2317  141.2418  154.3625 C   0  0  0  0  0  0  0  0  0  0  0  0
  150.3995  140.4351  154.3146 O   0  0  0  0  0  0  0  0  0  0  0  0
  153.2866  139.5707  158.2401 N   0  5  0  0  0  0  0  0  0  0  0  0
  152.7554  140.7112  158.7103 C   0  0  0  0  0  0  0  0  0  0  0  0
  151.4864  141.0685  158.4672 N   0  0  0  0  0  0  0  0  0  0  0  0
  151.1451  142.2865  159.0371 N   0  0  0  0  0  0  0  0  0  0  0  0
  152.1661  142.8371  159.6981 C   0  0  0  0  0  0  0  0  0  0  0  0
  152.0516  144.1511  160.3954 C   0  0  0  0  0  0  0  0  0  0  0  0
  150.7374  144.8982  160.4654 C   0  0  0  0  0  0  0  0  0  0  0  0
  151.8607  145.4292  159.6116 C   0  0  0  0  0  0  0  0  0  0  0  0
  153.6465  141.8925  159.6692 S   0  0  0  0  0  0  0  0  0  0  0  0
  152.5169  140.0740  156.0599 H   0  0  0  0  0  0  0  0  0  0  0  0
  151.9515  138.3052  154.4013 H   0  0  0  0  0  0  0  0  0  0  0  0
  151.1454  137.4553  155.7061 H   0  0  0  0  0  0  0  0  0  0  0  0
  149.4285  138.6272  154.4046 H   0  0  0  0  0  0  0  0  0  0  0  0
  148.7254  138.9926  156.6931 H   0  0  0  0  0  0  0  0  0  0  0  0
  150.0902  140.0662  157.0044 H   0  0  0  0  0  0  0  0  0  0  0  0
  147.5419  140.7465  155.6336 H   0  0  0  0  0  0  0  0  0  0  0  0
  148.7211  141.8041  156.4093 H   0  0  0  0  0  0  0  0  0  0  0  0
  148.5547  140.9389  153.5623 H   0  0  0  0  0  0  0  0  0  0  0  0
  149.4750  142.2952  154.2222 H   0  0  0  0  0  0  0  0  0  0  0  0
  152.6990  144.1793  161.2697 H   0  0  0  0  0  0  0  0  0  0  0  0
  149.8769  144.4782  159.9481 H   0  0  0  0  0  0  0  0  0  0  0  0
  150.5123  145.4297  161.3876 H   0  0  0  0  0  0  0  0  0  0  0  0
  152.3853  146.3154  159.9629 H   0  0  0  0  0  0  0  0  0  0  0  0
  151.7515  145.3481  158.5318 H   0  0  0  0  0  0  0  0  0  0  0  0
  1  2  2  0  0  0  0
  2  3  1  0  0  0  0
  2 10  1  0  0  0  0
  3  4  1  0  0  0  0
  3 19  1  0  0  0  0
  4  5  1  0  0  0  0
  4 20  1  0  0  0  0
  4 21  1  0  0  0  0
  5  9  1  0  0  0  0
  5  6  1  0  0  0  0
  5 22  1  0  0  0  0
  6  7  1  0  0  0  0
  6 23  1  0  0  0  0
  6 24  1  0  0  0  0
  7  8  1  0  0  0  0
  7 25  1  0  0  0  0
  7 26  1  0  0  0  0
  8  9  1  0  0  0  0
  8 27  1  0  0  0  0
  8 28  1  0  0  0  0
 10 11  1  0  0  0  0
 11 18  1  0  0  0  0
 11 12  2  0  0  0  0
 12 13  1  0  0  0  0
 13 14  2  0  0  0  0
 14 15  1  0  0  0  0
 14 18  1  0  0  0  0
 15 17  1  0  0  0  0
 15 16  1  0  0  0  0
 15 29  1  0  0  0  0
 16 17  1  0  0  0  0
 16 30  1  0  0  0  0
 16 31  1  0  0  0  0
 17 32  1  0  0  0  0
 17 33  1  0  0  0  0
M  CHG  1  10  -1
M  END
> <s_m_source_file>
AV-unprocessed.smi

> <i_m_source_file_index>
1812

> <i_lp_mmshare_version>
43012

> <i_f3d_flags>
0

> <s_epik_input>
TzFbQ0gyXVtDSDJdW0NIMl1bQ0BIXTFbQ0gyXVtOSF1DKD1PKVtOSF1jMm5uYyhzMilbQ0hdM1tDSDJdW0NIMl0z

> <s_epik_cmdline>
J2VwaWtfcHl0aG9uJywgJy1waCcsICc3LjAnLCAnLXRuJywgJzgnLCAnLW1hJywgJzIwMCcsICctbWV0YWxfYmluZGluZycsICctaW1hZScsICc8aW5maWxlLm1hZT4nLCAnLW9tYWUnLCAnPG91dGZpbGUubWFlPic=

> <r_lp_tautomer_probability>
1

> <r_epik_Ionization_Penalty>
4.72991

> <r_epik_Ionization_Penalty_Charging>
4.58249

> <r_epik_Ionization_Penalty_Neutral>
0.147417

> <r_epik_State_Penalty>
4.58223

> <r_epik_Charging_Adjusted_Penalty>
9.16473

> <i_epik_Tot_Q>
-1

> <i_epik_Tot_abs_Q>
1

> <r_epik_Metal_State_Penalty>
0.861876

> <b_epik_Metal_Only>
1

> <s_lp_Force_Field>
OPLS_2005

> <r_lp_Energy>
14.1682

> <b_lp_Chiralities_Consistent>
1

> <s_lp_Variant>
AV-unprocessed.smi:1812-4

> <Gold.Version>
5.8.1

> <Gold.Id.Protein>
6NUR|6NUR_protein|mol2

> <Gold.PLP.Fitness>
40.4733

> <Gold.PLP.PLP>
-32.7891

> <Gold.PLP.part.hbond>
-1.9930

> <Gold.PLP.part.metal>
0.0000

> <Gold.PLP.part.buried>
-5.0073

> <Gold.PLP.part.nonpolar>
-26.3846

> <Gold.PLP.part.repulsive>
0.2663

> <Gold.PLP.ligand.clash>
0.0000

> <Gold.PLP.ligand.torsion>
0.8020

> <Gold.PLP.Chemscore.Hbond>
3.0000

> <Gold.PLP.Chemscore.CHOScore>
0.0000

> <Gold.PLP.Chemscore.Metal>
0.0000

> <Gold.Chemscore.Hbonds>
donor molecule, donor type, donor heavy atom, donor atom, acceptor molecule, acceptor atom, score
      P1  H  7989  7998       L1     9  0.98
      P1  H  7997  8008       L1    10  2.00

> <Gold.PLP.Chemscore.Internal.Correction>
0.2882

> <Gold.Rescore>
     Score         DG    S(hbond)    S(metal)    S(lipo)     H(rot)  DE(clash)    DE(int)     intcor
     16.02     -16.95       1.68        0.00      81.52       1.45       0.08       0.85       ----

> <Gold.Chemscore.Fitness>
16.0154

> <Gold.Chemscore.DG>
-16.9454

> <Gold.Chemscore.ZeroCoef>
-5.4800

> <Gold.Chemscore.Hbond>
1.6847

> <Gold.Chemscore.Metal>
0.0000

> <Gold.Chemscore.Lipo>
81.5207

> <Gold.Chemscore.Internal_Hbond>
0.0000

> <Gold.Chemscore.DEClash>
0.0824

> <Gold.Chemscore.DEInternal>
0.8476

> <Gold.Chemscore.Rot>
1.4451

> <Gold.Chemscore.Internal.Correction>
   9.000000E+99

> <Gold.Chemscore.Hbonds>
donor molecule, donor type, donor heavy atom, donor atom, acceptor molecule, acceptor atom, score
      P1  H  7989  7998       L1     9  0.85
      P1  H  7997  8008       L1    10  0.46

> <Gold.Chemscore.Hbond.Weighted>
-5.6270

> <Gold.Chemscore.Metal.Weighted>
-0.0000

> <Gold.Chemscore.Lipo.Weighted>
-9.5379

> <Gold.Chemscore.Internal_Hbond.Weighted>
0.0000

> <Gold.Chemscore.DEClash.Weighted>
0.0824

> <Gold.Chemscore.DEInternal.Weighted>
0.8476

> <Gold.Chemscore.Rot.Weighted>
3.6995

> <Gold.Chemscore.Internal.Correction.Weighted>
   9.000000E+99

> <Gold.Protein.RotatedTorsions>
[ 6907 6896 6895 6894 ] final -152.71 input  -60.11 | X-H torsion
[ 7974 7965 7964 7962 ] final  122.01 input  175.53 | X-H torsion
[ 8008 7997 7996 7995 ] final -105.16 input   59.86 | X-H torsion
[ 10167 10162 10161 10158 ] final   76.45 input  -65.29 | X-H torsion
[ 10718 10713 10712 10709 ] final  160.19 input   66.30 | X-H torsion
[ 10763 10752 10751 10750 ] final  -21.29 input  -60.55 | X-H torsion
[ 11005 11000 10999 10996 ] final -112.65 input  -57.11 | X-H torsion

> <Gold.Protein.ActiveResidues>
 VAL166  LYS551  ARG553  GLY616  TRP617  ASP618  TYR619  PRO620  LYS621  CYS622 
 ASP623  PHE694  ASN695  SER759  ASP760  ASP761  ALA762  ILE779  LEU786  VAL792 
 PHE793  MET794  SER795  GLU796  ALA797  LYS798  CYS799  TRP800  GLU811  SER814 

> <Gold.Protein.RotatedAtoms>
  151.2318  133.4446  159.2603 H   0  0  0  0  0  0  0  0  0  0  0  0  # atno 6907 bound_to 6896
  151.0787  134.9844  159.8355 H   0  0  0  0  0  0  0  0  0  0  0  0  # atno 6908 bound_to 6896
  152.5421  134.2259  159.8859 H   0  0  0  0  0  0  0  0  0  0  0  0  # atno 6909 bound_to 6896
  145.1126  139.3442  143.4755 H   0  0  0  0  0  0  0  0  0  0  0  0  # atno 7974 bound_to 7965
  154.8959  140.0414  157.1865 H   0  0  0  0  0  0  0  0  0  0  0  0  # atno 8008 bound_to 7997
  154.8493  140.2927  155.5587 H   0  0  0  0  0  0  0  0  0  0  0  0  # atno 8009 bound_to 7997
  156.2995  140.2468  156.3449 H   0  0  0  0  0  0  0  0  0  0  0  0  # atno 8010 bound_to 7997
  139.9921  144.5749  150.7809 H   0  0  0  0  0  0  0  0  0  0  0  0  # atno 10167 bound_to 10162
  157.1538  131.0570  151.2267 H   0  0  0  0  0  0  0  0  0  0  0  0  # atno 10718 bound_to 10713
  153.6338  135.6988  153.5266 H   0  0  0  0  0  0  0  0  0  0  0  0  # atno 10763 bound_to 10752
  153.2838  135.4178  155.1102 H   0  0  0  0  0  0  0  0  0  0  0  0  # atno 10764 bound_to 10752
  154.8516  135.3608  154.5881 H   0  0  0  0  0  0  0  0  0  0  0  0  # atno 10765 bound_to 10752
  141.0662  133.9454  157.2573 H   0  0  0  0  0  0  0  0  0  0  0  0  # atno 11005 bound_to 11000
  146.3525  140.1051  142.8606 LP  0  0  0  0  0  0  0  0  0  0  0  0  # atno 17320 bound_to 7965
  145.0830  140.9233  143.4814 LP  0  0  0  0  0  0  0  0  0  0  0  0  # atno 17321 bound_to 7965
  140.7451  143.2870  151.3436 LP  0  0  0  0  0  0  0  0  0  0  0  0  # atno 17342 bound_to 10162
  139.6332  144.0680  152.2494 LP  0  0  0  0  0  0  0  0  0  0  0  0  # atno 17343 bound_to 10162
  157.4196  130.7430  149.6903 LP  0  0  0  0  0  0  0  0  0  0  0  0  # atno 17370 bound_to 10713
  155.9766  130.4074  150.3770 LP  0  0  0  0  0  0  0  0  0  0  0  0  # atno 17371 bound_to 10713
  139.9479  135.0181  156.8907 LP  0  0  0  0  0  0  0  0  0  0  0  0  # atno 17394 bound_to 11000
  140.5767  134.0391  155.7449 LP  0  0  0  0  0  0  0  0  0  0  0  0  # atno 17395 bound_to 11000

$$$$
