AV-unprocessed.smi:1005|AV-procd|sdf|4362|dock3
  -GOLD-   22720 2263D 1   1.00000     0.00000
 Structure written by MMmdl.
 56 58  0  0  0  0  0  0  0  0  2 V2000
  153.8009  141.9710  161.9438 C   0  0  0  0  0  0  0  0  0  0  0  0
  153.0840  141.8568  160.6100 C   0  0  0  0  0  0  0  0  0  0  0  0
  153.3446  140.7407  159.7830 C   0  0  0  0  0  0  0  0  0  0  0  0
  152.7004  140.5982  158.5345 C   0  0  0  0  0  0  0  0  0  0  0  0
  152.8034  139.6030  157.5774 N   0  0  0  0  0  0  0  0  0  0  0  0
  151.9610  140.0391  156.6453 C   0  0  0  0  0  0  0  0  0  0  0  0
  151.3186  141.1977  156.8888 N   0  0  0  0  0  0  0  0  0  0  0  0
  150.3583  141.8676  156.0297 C   0  0  0  0  0  0  0  0  0  0  0  0
  149.3814  140.8837  155.3564 C   0  0  2  0  0  0  0  0  0  0  0  0
  149.9740  140.4123  154.1606 O   0  0  0  0  0  0  0  0  0  0  0  0
  148.0313  141.5538  155.0247 C   0  0  0  0  0  0  0  0  0  0  0  0
  147.0648  141.5941  156.1232 N   0  0  0  0  0  0  0  0  0  0  0  0
  146.7803  140.2508  156.6154 C   0  0  0  0  0  0  0  0  0  0  0  0
  145.7700  140.2662  157.7741 C   0  0  0  0  0  0  0  0  0  0  0  0
  146.2620  141.0985  158.8193 O   0  0  0  0  0  0  0  0  0  0  0  0
  146.4996  142.4397  158.3985 C   0  0  1  0  0  0  0  0  0  0  0  0
  147.0272  143.2355  159.6057 C   0  0  0  0  0  0  0  0  0  0  0  0
  146.7787  144.6945  159.4834 N   0  3  0  0  0  0  0  0  0  0  0  0
  147.3830  145.4895  160.5776 C   0  0  0  0  0  0  0  0  0  0  0  0
  145.3405  145.0017  159.3204 C   0  0  0  0  0  0  0  0  0  0  0  0
  147.5161  142.4219  157.2392 C   0  0  0  0  0  0  0  0  0  0  0  0
  151.7805  141.6107  158.1334 C   0  0  0  0  0  0  0  0  0  0  0  0
  151.5121  142.7252  158.9474 C   0  0  0  0  0  0  0  0  0  0  0  0
  152.1641  142.8519  160.1917 C   0  0  0  0  0  0  0  0  0  0  0  0
  151.8680  144.0596  161.0634 C   0  0  0  0  0  0  0  0  0  0  0  0
  154.4969  141.1450  162.0941 H   0  0  0  0  0  0  0  0  0  0  0  0
  153.0835  141.9582  162.7650 H   0  0  0  0  0  0  0  0  0  0  0  0
  154.3696  142.9000  161.9945 H   0  0  0  0  0  0  0  0  0  0  0  0
  154.0445  139.9822  160.1013 H   0  0  0  0  0  0  0  0  0  0  0  0
  151.7972  139.4820  155.7342 H   0  0  0  0  0  0  0  0  0  0  0  0
  149.8097  142.5883  156.6373 H   0  0  0  0  0  0  0  0  0  0  0  0
  150.9011  142.4428  155.2776 H   0  0  0  0  0  0  0  0  0  0  0  0
  149.2186  140.0373  156.0251 H   0  0  0  0  0  0  0  0  0  0  0  0
  149.3419  140.4931  153.4623 H   0  0  0  0  0  0  0  0  0  0  0  0
  148.2443  142.5856  154.7418 H   0  0  0  0  0  0  0  0  0  0  0  0
  147.5865  141.0990  154.1379 H   0  0  0  0  0  0  0  0  0  0  0  0
  146.3884  139.6342  155.8054 H   0  0  0  0  0  0  0  0  0  0  0  0
  147.7039  139.7756  156.9499 H   0  0  0  0  0  0  0  0  0  0  0  0
  144.7978  140.6285  157.4361 H   0  0  0  0  0  0  0  0  0  0  0  0
  145.6205  139.2579  158.1606 H   0  0  0  0  0  0  0  0  0  0  0  0
  145.5673  142.8747  158.0367 H   0  0  0  0  0  0  0  0  0  0  0  0
  146.5353  142.8575  160.5034 H   0  0  0  0  0  0  0  0  0  0  0  0
  148.0951  143.0598  159.7443 H   0  0  0  0  0  0  0  0  0  0  0  0
  146.9677  145.2029  161.5447 H   0  0  0  0  0  0  0  0  0  0  0  0
  147.1909  146.5526  160.4290 H   0  0  0  0  0  0  0  0  0  0  0  0
  148.4641  145.3618  160.6179 H   0  0  0  0  0  0  0  0  0  0  0  0
  144.7732  144.6955  160.2005 H   0  0  0  0  0  0  0  0  0  0  0  0
  144.9295  144.4871  158.4512 H   0  0  0  0  0  0  0  0  0  0  0  0
  145.1883  146.0710  159.1702 H   0  0  0  0  0  0  0  0  0  0  0  0
  148.4790  142.0580  157.6016 H   0  0  0  0  0  0  0  0  0  0  0  0
  147.6750  143.4464  156.9036 H   0  0  0  0  0  0  0  0  0  0  0  0
  150.8100  143.4759  158.6155 H   0  0  0  0  0  0  0  0  0  0  0  0
  151.1017  144.6942  160.6170 H   0  0  0  0  0  0  0  0  0  0  0  0
  152.7667  144.6623  161.1963 H   0  0  0  0  0  0  0  0  0  0  0  0
  151.5116  143.7464  162.0448 H   0  0  0  0  0  0  0  0  0  0  0  0
  147.2248  144.9881  158.6255 H   0  0  0  0  0  0  0  0  0  0  0  0
  1  2  1  0  0  0  0
  1 26  1  0  0  0  0
  1 27  1  0  0  0  0
  1 28  1  0  0  0  0
  2 24  1  0  0  0  0
  2  3  2  0  0  0  0
  3  4  1  0  0  0  0
  3 29  1  0  0  0  0
  4 22  2  0  0  0  0
  4  5  1  0  0  0  0
  5  6  2  0  0  0  0
  6  7  1  0  0  0  0
  6 30  1  0  0  0  0
  7  8  1  0  0  0  0
  7 22  1  0  0  0  0
  8  9  1  0  0  0  0
  8 31  1  0  0  0  0
  8 32  1  0  0  0  0
  9 10  1  0  0  0  0
  9 11  1  0  0  0  0
  9 33  1  0  0  0  0
 10 34  1  0  0  0  0
 11 12  1  0  0  0  0
 11 35  1  0  0  0  0
 11 36  1  0  0  0  0
 12 21  1  0  0  0  0
 12 13  1  0  0  0  0
 13 14  1  0  0  0  0
 13 37  1  0  0  0  0
 13 38  1  0  0  0  0
 14 15  1  0  0  0  0
 14 39  1  0  0  0  0
 14 40  1  0  0  0  0
 15 16  1  0  0  0  0
 16 17  1  0  0  0  0
 16 21  1  0  0  0  0
 16 41  1  0  0  0  0
 17 18  1  0  0  0  0
 17 42  1  0  0  0  0
 17 43  1  0  0  0  0
 18 19  1  0  0  0  0
 18 20  1  0  0  0  0
 18 56  1  0  0  0  0
 19 44  1  0  0  0  0
 19 45  1  0  0  0  0
 19 46  1  0  0  0  0
 20 47  1  0  0  0  0
 20 48  1  0  0  0  0
 20 49  1  0  0  0  0
 21 50  1  0  0  0  0
 21 51  1  0  0  0  0
 22 23  1  0  0  0  0
 23 24  2  0  0  0  0
 23 52  1  0  0  0  0
 24 25  1  0  0  0  0
 25 53  1  0  0  0  0
 25 54  1  0  0  0  0
 25 55  1  0  0  0  0
M  CHG  1  18   1
M  END
> <s_m_source_file>
AV-unprocessed.smi

> <i_m_source_file_index>
1005

> <i_lp_mmshare_version>
43012

> <i_f3d_flags>
0

> <s_epik_input>
W0NIM11jKFtjSF0xKWMoW0NIM10pW2NIXWMoYzEyKW4oW2NIXW4yKVtDSDJdW0NASF0oW09IXSlbQ0gyXU4zW0NIMl1bQ0gyXU9bQ0BIXShbQ0gyXTMpW0NIMl1OKFtDSDNdKVtDSDNd

> <s_epik_cmdline>
J2VwaWtfcHl0aG9uJywgJy1waCcsICc3LjAnLCAnLXRuJywgJzgnLCAnLW1hJywgJzIwMCcsICctbWV0YWxfYmluZGluZycsICctaW1hZScsICc8aW5maWxlLm1hZT4nLCAnLW9tYWUnLCAnPG91dGZpbGUubWFlPic=

> <r_epik_Ionization_Penalty>
0.226781

> <r_epik_Ionization_Penalty_Charging>
0.00915946

> <r_epik_Ionization_Penalty_Neutral>
0.217622

> <r_epik_State_Penalty>
0.173018

> <r_epik_Charging_Adjusted_Penalty>
0.182178

> <i_epik_Tot_Q>
1

> <i_epik_Tot_abs_Q>
1

> <r_epik_Metal_State_Penalty>
0.0905268

> <b_epik_Metal_Only>
0

> <s_lp_Force_Field>
OPLS_2005

> <r_lp_Energy>
36.5786

> <b_lp_Chiralities_Consistent>
1

> <s_lp_Variant>
AV-unprocessed.smi:1005-1

> <Gold.Version>
5.8.1

> <Gold.Id.Protein>
6NUR|6NUR_protein|mol2

> <Gold.PLP.Fitness>
56.9230

> <Gold.PLP.PLP>
-45.7303

> <Gold.PLP.part.hbond>
-5.0000

> <Gold.PLP.part.metal>
0.0000

> <Gold.PLP.part.buried>
-4.5988

> <Gold.PLP.part.nonpolar>
-36.1019

> <Gold.PLP.part.repulsive>
0.1508

> <Gold.PLP.ligand.clash>
0.0000

> <Gold.PLP.ligand.torsion>
1.1206

> <Gold.PLP.Chemscore.Hbond>
4.4548

> <Gold.PLP.Chemscore.CHOScore>
0.0000

> <Gold.PLP.Chemscore.Metal>
0.0000

> <Gold.Chemscore.Hbonds>
donor molecule, donor type, donor heavy atom, donor atom, acceptor molecule, acceptor atom, score
      L1  H    10    34       P1  7957  0.10
      L1  H    18    56       P1  8029  2.00
      P1  H  6934  6946       L1    15  0.53
      P1  H  7989  7998       L1    10  0.82
      P1  H  7997  8009       L1     5  1.00

> <Gold.PLP.Chemscore.Internal.Correction>
0.0695

> <Gold.Rescore>
     Score         DG    S(hbond)    S(metal)    S(lipo)     H(rot)  DE(clash)    DE(int)     intcor
     19.55     -20.80       2.55        0.00     111.05       2.41       0.18       1.07       ----

> <Gold.Chemscore.Fitness>
19.5480

> <Gold.Chemscore.DG>
-20.7980

> <Gold.Chemscore.ZeroCoef>
-5.4800

> <Gold.Chemscore.Hbond>
2.5462

> <Gold.Chemscore.Metal>
0.0000

> <Gold.Chemscore.Lipo>
111.0467

> <Gold.Chemscore.Internal_Hbond>
0.0000

> <Gold.Chemscore.DEClash>
0.1836

> <Gold.Chemscore.DEInternal>
1.0664

> <Gold.Chemscore.Rot>
2.4136

> <Gold.Chemscore.Internal.Correction>
   9.000000E+99

> <Gold.Chemscore.Hbonds>
donor molecule, donor type, donor heavy atom, donor atom, acceptor molecule, acceptor atom, score
      L1  H    10    34       P1  7957  0.11
      L1  H    18    56       P1  8029  1.00
      P1  H  6934  6946       L1    15  0.41
      P1  H  7989  7998       L1    10  0.48
      P1  H  7997  8009       L1     5  0.07

> <Gold.Chemscore.Hbond.Weighted>
-8.5042

> <Gold.Chemscore.Metal.Weighted>
-0.0000

> <Gold.Chemscore.Lipo.Weighted>
-12.9925

> <Gold.Chemscore.Internal_Hbond.Weighted>
0.0000

> <Gold.Chemscore.DEClash.Weighted>
0.1836

> <Gold.Chemscore.DEInternal.Weighted>
1.0664

> <Gold.Chemscore.Rot.Weighted>
6.1788

> <Gold.Chemscore.Internal.Correction.Weighted>
   9.000000E+99

> <Gold.Protein.RotatedTorsions>
[ 6907 6896 6895 6894 ] final  -18.94 input  -60.11 | X-H torsion
[ 7974 7965 7964 7962 ] final -171.46 input  175.53 | X-H torsion
[ 8008 7997 7996 7995 ] final  171.07 input   59.86 | X-H torsion
[ 10167 10162 10161 10158 ] final  125.08 input  -65.29 | X-H torsion
[ 10718 10713 10712 10709 ] final   -6.23 input   66.30 | X-H torsion
[ 10763 10752 10751 10750 ] final   26.29 input  -60.55 | X-H torsion
[ 11005 11000 10999 10996 ] final  -29.29 input  -57.11 | X-H torsion

> <Gold.Protein.ActiveResidues>
 VAL166  LYS551  ARG553  GLY616  TRP617  ASP618  TYR619  PRO620  LYS621  CYS622 
 ASP623  PHE694  ASN695  SER759  ASP760  ASP761  ALA762  ILE779  LEU786  VAL792 
 PHE793  MET794  SER795  GLU796  ALA797  LYS798  CYS799  TRP800  GLU811  SER814 

> <Gold.Protein.RotatedAtoms>
  151.2706  135.0683  159.9132 H   0  0  0  0  0  0  0  0  0  0  0  0  # atno 6907 bound_to 6896
  152.5351  134.0134  159.7959 H   0  0  0  0  0  0  0  0  0  0  0  0  # atno 6908 bound_to 6896
  151.0372  133.5688  159.2685 H   0  0  0  0  0  0  0  0  0  0  0  0  # atno 6909 bound_to 6896
  144.7157  140.1919  143.6347 H   0  0  0  0  0  0  0  0  0  0  0  0  # atno 7974 bound_to 7965
  156.1306  140.1521  156.9071 H   0  0  0  0  0  0  0  0  0  0  0  0  # atno 8008 bound_to 7997
  154.4906  140.0852  156.7625 H   0  0  0  0  0  0  0  0  0  0  0  0  # atno 8009 bound_to 7997
  155.4263  140.3425  155.4278 H   0  0  0  0  0  0  0  0  0  0  0  0  # atno 8010 bound_to 7997
  139.5705  144.6936  151.3791 H   0  0  0  0  0  0  0  0  0  0  0  0  # atno 10167 bound_to 10162
  156.7350  130.5192  149.5837 H   0  0  0  0  0  0  0  0  0  0  0  0  # atno 10718 bound_to 10713
  153.0633  135.6564  154.0413 H   0  0  0  0  0  0  0  0  0  0  0  0  # atno 10763 bound_to 10752
  154.0075  135.2931  155.3397 H   0  0  0  0  0  0  0  0  0  0  0  0  # atno 10764 bound_to 10752
  154.6980  135.5256  153.8555 H   0  0  0  0  0  0  0  0  0  0  0  0  # atno 10765 bound_to 10752
  140.9283  133.7354  156.0900 H   0  0  0  0  0  0  0  0  0  0  0  0  # atno 11005 bound_to 11000
  145.8760  139.2297  143.1633 LP  0  0  0  0  0  0  0  0  0  0  0  0  # atno 17320 bound_to 7965
  146.0040  140.8495  143.0004 LP  0  0  0  0  0  0  0  0  0  0  0  0  # atno 17321 bound_to 7965
  140.6989  143.7680  150.7371 LP  0  0  0  0  0  0  0  0  0  0  0  0  # atno 17342 bound_to 10162
  140.1184  143.4634  152.2328 LP  0  0  0  0  0  0  0  0  0  0  0  0  # atno 17343 bound_to 10162
  156.1503  130.6305  151.0587 LP  0  0  0  0  0  0  0  0  0  0  0  0  # atno 17370 bound_to 10713
  157.6843  131.0829  150.7286 LP  0  0  0  0  0  0  0  0  0  0  0  0  # atno 17371 bound_to 10713
  140.7896  134.3633  157.5468 LP  0  0  0  0  0  0  0  0  0  0  0  0  # atno 17394 bound_to 11000
  139.8790  134.9132  156.3078 LP  0  0  0  0  0  0  0  0  0  0  0  0  # atno 17395 bound_to 11000

$$$$
