AV-unprocessed.smi:3303|AV-procd|sdf|12675|dock8
  -GOLD-   2272019 13D 1   1.00000     0.00000
 Structure written by MMmdl.
 44 45  0  0  0  0  0  0  0  0  2 V2000
  152.0742  139.7509  155.7004 C   0  0  0  0  0  0  0  0  0  0  0  0
  150.5968  139.9347  156.0864 C   0  0  2  0  0  0  0  0  0  0  0  0
  149.7558  138.7781  155.5075 C   0  0  0  0  0  0  0  0  0  0  0  0
  148.3448  138.9337  155.8609 N   0  0  0  0  0  0  0  0  0  0  0  0
  147.5904  137.7458  155.4812 C   0  0  0  0  0  0  0  0  0  0  0  0
  147.7545  140.1748  155.3380 C   0  0  2  0  0  0  0  0  0  0  0  0
  147.6432  140.2367  153.7972 C   0  0  0  0  0  0  0  0  0  0  0  0
  148.5311  141.3716  155.9236 C   0  0  0  0  0  0  0  0  0  0  0  0
  150.0403  141.3000  155.6275 C   0  0  1  0  0  0  0  0  0  0  0  0
  150.7337  142.4080  156.3219 N   0  3  0  0  0  0  0  0  0  0  0  0
  150.9227  142.2095  157.7725 C   0  0  0  0  0  0  0  0  0  0  0  0
  151.8700  143.2679  158.3533 C   0  0  0  0  0  0  0  0  0  0  0  0
  152.2865  142.9458  159.7758 C   0  0  0  0  0  0  0  0  0  0  0  0
  152.9496  141.7369  160.0766 C   0  0  0  0  0  0  0  0  0  0  0  0
  153.3216  141.4907  161.4125 C   0  0  0  0  0  0  0  0  0  0  0  0
  153.0173  142.4574  162.3901 C   0  0  0  0  0  0  0  0  0  0  0  0
  152.3542  143.6337  161.9869 C   0  0  0  0  0  0  0  0  0  0  0  0
  151.9951  143.8806  160.7081 N   0  0  0  0  0  0  0  0  0  0  0  0
  152.2108  139.8107  154.6201 H   0  0  0  0  0  0  0  0  0  0  0  0
  152.4447  138.7788  156.0271 H   0  0  0  0  0  0  0  0  0  0  0  0
  152.7084  140.5096  156.1591 H   0  0  0  0  0  0  0  0  0  0  0  0
  150.5267  139.8827  157.1745 H   0  0  0  0  0  0  0  0  0  0  0  0
  149.8757  138.7125  154.4258 H   0  0  0  0  0  0  0  0  0  0  0  0
  150.1201  137.8349  155.9170 H   0  0  0  0  0  0  0  0  0  0  0  0
  146.5381  137.8563  155.7447 H   0  0  0  0  0  0  0  0  0  0  0  0
  147.9726  136.8719  156.0098 H   0  0  0  0  0  0  0  0  0  0  0  0
  147.6609  137.5448  154.4120 H   0  0  0  0  0  0  0  0  0  0  0  0
  146.7384  140.2306  155.7310 H   0  0  0  0  0  0  0  0  0  0  0  0
  147.2033  141.1844  153.4859 H   0  0  0  0  0  0  0  0  0  0  0  0
  146.9969  139.4519  153.4054 H   0  0  0  0  0  0  0  0  0  0  0  0
  148.6082  140.1528  153.2989 H   0  0  0  0  0  0  0  0  0  0  0  0
  148.1179  142.3058  155.5408 H   0  0  0  0  0  0  0  0  0  0  0  0
  148.3755  141.3944  157.0036 H   0  0  0  0  0  0  0  0  0  0  0  0
  150.1905  141.3938  154.5508 H   0  0  0  0  0  0  0  0  0  0  0  0
  151.6380  142.5407  155.8919 H   0  0  0  0  0  0  0  0  0  0  0  0
  149.9546  142.2678  158.2719 H   0  0  0  0  0  0  0  0  0  0  0  0
  151.3194  141.2084  157.9479 H   0  0  0  0  0  0  0  0  0  0  0  0
  152.7643  143.3515  157.7335 H   0  0  0  0  0  0  0  0  0  0  0  0
  151.3914  144.2480  158.3342 H   0  0  0  0  0  0  0  0  0  0  0  0
  153.1701  141.0139  159.3047 H   0  0  0  0  0  0  0  0  0  0  0  0
  153.8317  140.5776  161.6823 H   0  0  0  0  0  0  0  0  0  0  0  0
  153.2862  142.3012  163.4244 H   0  0  0  0  0  0  0  0  0  0  0  0
  152.1070  144.3968  162.7102 H   0  0  0  0  0  0  0  0  0  0  0  0
  150.1898  143.2483  156.1878 H   0  0  0  0  0  0  0  0  0  0  0  0
  1  2  1  0  0  0  0
  1 19  1  0  0  0  0
  1 20  1  0  0  0  0
  1 21  1  0  0  0  0
  2  9  1  0  0  0  0
  2  3  1  0  0  0  0
  2 22  1  0  0  0  0
  3  4  1  0  0  0  0
  3 23  1  0  0  0  0
  3 24  1  0  0  0  0
  4  5  1  0  0  0  0
  4  6  1  0  0  0  0
  5 25  1  0  0  0  0
  5 26  1  0  0  0  0
  5 27  1  0  0  0  0
  6  7  1  0  0  0  0
  6  8  1  0  0  0  0
  6 28  1  0  0  0  0
  7 29  1  0  0  0  0
  7 30  1  0  0  0  0
  7 31  1  0  0  0  0
  8  9  1  0  0  0  0
  8 32  1  0  0  0  0
  8 33  1  0  0  0  0
  9 10  1  0  0  0  0
  9 34  1  0  0  0  0
 10 11  1  0  0  0  0
 10 35  1  0  0  0  0
 10 44  1  0  0  0  0
 11 12  1  0  0  0  0
 11 36  1  0  0  0  0
 11 37  1  0  0  0  0
 12 13  1  0  0  0  0
 12 38  1  0  0  0  0
 12 39  1  0  0  0  0
 13 18  1  0  0  0  0
 13 14  2  0  0  0  0
 14 15  1  0  0  0  0
 14 40  1  0  0  0  0
 15 16  2  0  0  0  0
 15 41  1  0  0  0  0
 16 17  1  0  0  0  0
 16 42  1  0  0  0  0
 17 18  2  0  0  0  0
 17 43  1  0  0  0  0
M  CHG  1  10   1
M  END
> <s_m_source_file>
AV-unprocessed.smi

> <i_m_source_file_index>
3303

> <i_lp_mmshare_version>
43012

> <i_f3d_flags>
0

> <s_epik_input>
W0NIM11bQ0BASF0xW0NIMl1OKFtDSDNdKVtDQEBIXShbQ0gzXSlbQ0gyXVtDQEhdMVtOSF1bQ0gyXVtDSDJdYzJbY0hdW2NIXVtjSF1bY0hdbjI=

> <s_epik_cmdline>
J2VwaWtfcHl0aG9uJywgJy1waCcsICc3LjAnLCAnLXRuJywgJzgnLCAnLW1hJywgJzIwMCcsICctbWV0YWxfYmluZGluZycsICctaW1hZScsICc8aW5maWxlLm1hZT4nLCAnLW9tYWUnLCAnPG91dGZpbGUubWFlPic=

> <r_epik_Ionization_Penalty>
1.37325

> <r_epik_Ionization_Penalty_Charging>
0.000251572

> <r_epik_Ionization_Penalty_Neutral>
1.373

> <r_epik_State_Penalty>
1.46343

> <r_epik_Charging_Adjusted_Penalty>
1.46368

> <i_epik_Tot_Q>
1

> <i_epik_Tot_abs_Q>
1

> <r_epik_Metal_State_Penalty>
1.46331

> <b_epik_Metal_Only>
0

> <s_lp_Force_Field>
OPLS_2005

> <r_lp_Energy>
23.1884

> <b_lp_Chiralities_Consistent>
1

> <s_lp_Variant>
AV-unprocessed.smi:3303-19

> <Gold.Version>
5.8.1

> <Gold.Id.Protein>
6NUR|6NUR_protein|mol2

> <Gold.PLP.Fitness>
45.0601

> <Gold.PLP.PLP>
-39.4223

> <Gold.PLP.part.hbond>
-1.0000

> <Gold.PLP.part.metal>
0.0000

> <Gold.PLP.part.buried>
-3.5902

> <Gold.PLP.part.nonpolar>
-34.8477

> <Gold.PLP.part.repulsive>
0.2040

> <Gold.PLP.ligand.clash>
0.0000

> <Gold.PLP.ligand.torsion>
0.1845

> <Gold.PLP.Chemscore.Hbond>
2.0000

> <Gold.PLP.Chemscore.CHOScore>
0.0000

> <Gold.PLP.Chemscore.Metal>
0.0000

> <Gold.Chemscore.Hbonds>
donor molecule, donor type, donor heavy atom, donor atom, acceptor molecule, acceptor atom, score
      L1  H    10    44       P1  8028  1.98

> <Gold.PLP.Chemscore.Internal.Correction>
0.0067

> <Gold.Rescore>
     Score         DG    S(hbond)    S(metal)    S(lipo)     H(rot)  DE(clash)    DE(int)     intcor
     18.66     -19.35       1.00        0.00     119.07       1.33       0.08       0.60       ----

> <Gold.Chemscore.Fitness>
18.6618

> <Gold.Chemscore.DG>
-19.3463

> <Gold.Chemscore.ZeroCoef>
-5.4800

> <Gold.Chemscore.Hbond>
0.9999

> <Gold.Chemscore.Metal>
0.0000

> <Gold.Chemscore.Lipo>
119.0672

> <Gold.Chemscore.Internal_Hbond>
0.0000

> <Gold.Chemscore.DEClash>
0.0826

> <Gold.Chemscore.DEInternal>
0.6019

> <Gold.Chemscore.Rot>
1.3298

> <Gold.Chemscore.Internal.Correction>
   9.000000E+99

> <Gold.Chemscore.Hbonds>
donor molecule, donor type, donor heavy atom, donor atom, acceptor molecule, acceptor atom, score
      L1  H    10    44       P1  8028  0.92

> <Gold.Chemscore.Hbond.Weighted>
-3.3398

> <Gold.Chemscore.Metal.Weighted>
-0.0000

> <Gold.Chemscore.Lipo.Weighted>
-13.9309

> <Gold.Chemscore.Internal_Hbond.Weighted>
0.0000

> <Gold.Chemscore.DEClash.Weighted>
0.0826

> <Gold.Chemscore.DEInternal.Weighted>
0.6019

> <Gold.Chemscore.Rot.Weighted>
3.4043

> <Gold.Chemscore.Internal.Correction.Weighted>
   9.000000E+99

> <Gold.Protein.RotatedTorsions>
[ 6907 6896 6895 6894 ] final  122.07 input  -60.11 | X-H torsion
[ 7974 7965 7964 7962 ] final  -20.49 input  175.53 | X-H torsion
[ 8008 7997 7996 7995 ] final  -30.70 input   59.86 | X-H torsion
[ 10167 10162 10161 10158 ] final   83.81 input  -65.29 | X-H torsion
[ 10718 10713 10712 10709 ] final   71.32 input   66.30 | X-H torsion
[ 10763 10752 10751 10750 ] final   73.21 input  -60.55 | X-H torsion
[ 11005 11000 10999 10996 ] final  -75.24 input  -57.11 | X-H torsion

> <Gold.Protein.ActiveResidues>
 VAL166  LYS551  ARG553  GLY616  TRP617  ASP618  TYR619  PRO620  LYS621  CYS622 
 ASP623  PHE694  ASN695  SER759  ASP760  ASP761  ALA762  ILE779  LEU786  VAL792 
 PHE793  MET794  SER795  GLU796  ALA797  LYS798  CYS799  TRP800  GLU811  SER814 

> <Gold.Protein.RotatedAtoms>
  152.4272  133.7216  159.6535 H   0  0  0  0  0  0  0  0  0  0  0  0  # atno 6907 bound_to 6896
  150.8149  133.8344  159.3171 H   0  0  0  0  0  0  0  0  0  0  0  0  # atno 6908 bound_to 6896
  151.6043  135.1047  160.0119 H   0  0  0  0  0  0  0  0  0  0  0  0  # atno 6909 bound_to 6896
  146.1785  140.4210  142.8504 H   0  0  0  0  0  0  0  0  0  0  0  0  # atno 7974 bound_to 7965
  154.4240  140.1784  156.1449 H   0  0  0  0  0  0  0  0  0  0  0  0  # atno 8008 bound_to 7997
  155.9962  140.3364  155.6776 H   0  0  0  0  0  0  0  0  0  0  0  0  # atno 8009 bound_to 7997
  155.6305  140.0669  157.2641 H   0  0  0  0  0  0  0  0  0  0  0  0  # atno 8010 bound_to 7997
  139.9145  144.6251  150.8503 H   0  0  0  0  0  0  0  0  0  0  0  0  # atno 10167 bound_to 10162
  157.6446  130.9522  150.0774 H   0  0  0  0  0  0  0  0  0  0  0  0  # atno 10718 bound_to 10713
  153.0507  135.5071  154.7860 H   0  0  0  0  0  0  0  0  0  0  0  0  # atno 10763 bound_to 10752
  154.6724  135.2955  154.9726 H   0  0  0  0  0  0  0  0  0  0  0  0  # atno 10764 bound_to 10752
  154.0540  135.6700  153.4856 H   0  0  0  0  0  0  0  0  0  0  0  0  # atno 10765 bound_to 10752
  141.1643  133.6940  156.7487 H   0  0  0  0  0  0  0  0  0  0  0  0  # atno 11005 bound_to 11000
  144.8275  140.6653  143.6312 LP  0  0  0  0  0  0  0  0  0  0  0  0  # atno 17320 bound_to 7965
  145.4144  139.1574  143.4108 LP  0  0  0  0  0  0  0  0  0  0  0  0  # atno 17321 bound_to 7965
  140.7677  143.3341  151.2346 LP  0  0  0  0  0  0  0  0  0  0  0  0  # atno 17342 bound_to 10162
  139.6914  143.9686  152.2861 LP  0  0  0  0  0  0  0  0  0  0  0  0  # atno 17343 bound_to 10162
  156.1760  130.3648  149.9100 LP  0  0  0  0  0  0  0  0  0  0  0  0  # atno 17370 bound_to 10713
  156.7064  130.8953  151.3605 LP  0  0  0  0  0  0  0  0  0  0  0  0  # atno 17371 bound_to 10713
  140.2620  134.8459  157.3767 LP  0  0  0  0  0  0  0  0  0  0  0  0  # atno 17394 bound_to 11000
  140.1602  134.4738  155.7900 LP  0  0  0  0  0  0  0  0  0  0  0  0  # atno 17395 bound_to 11000

$$$$
