AV-unprocessed.smi:2648|AV-procd|sdf|10285|dock5
  -GOLD-   2272014293D 1   1.00000     0.00000
 Structure written by MMmdl.
 32 33  0  0  0  0  0  0  0  0  1 V2000
  144.6584  136.7444  152.1495 O   0  0  0  0  0  0  0  0  0  0  0  0
  145.8604  136.4826  152.1073 C   0  0  0  0  0  0  0  0  0  0  0  0
  146.8145  137.3373  152.5030 N   0  0  0  0  0  0  0  0  0  0  0  0
  146.5686  138.6742  153.0290 C   0  0  0  0  0  0  0  0  0  0  0  0
  147.3197  139.7450  152.2170 C   0  0  0  0  0  0  0  0  0  0  0  0
  147.9999  140.6981  153.0968 N   0  0  0  0  0  0  0  0  0  0  0  0
  149.0968  140.4137  153.8109 C   0  0  0  0  0  0  0  0  0  0  0  0
  149.6989  139.3420  153.8660 O   0  0  0  0  0  0  0  0  0  0  0  0
  149.5123  141.6572  154.5661 C   0  0  0  0  0  0  0  0  0  0  0  0
  148.4803  142.5639  154.1110 N   0  0  0  0  0  0  0  0  0  0  0  0
  147.6248  141.9794  153.2622 C   0  0  0  0  0  0  0  0  0  0  0  0
  146.6666  142.5355  152.7275 O   0  0  0  0  0  0  0  0  0  0  0  0
  146.3942  135.3363  151.6503 N   0  0  0  0  0  0  0  0  0  0  0  0
  145.7318  134.1876  151.1374 C   0  0  0  0  0  0  0  0  0  0  0  0
  146.5120  133.0404  150.8846 C   0  0  0  0  0  0  0  0  0  0  0  0
  145.8788  131.8835  150.3885 C   0  0  0  0  0  0  0  0  0  0  0  0
  144.5532  131.8089  150.1478 N   0  0  0  0  0  0  0  0  0  0  0  0
  143.8053  132.9029  150.4037 C   0  0  0  0  0  0  0  0  0  0  0  0
  144.3379  134.1094  150.9004 C   0  0  0  0  0  0  0  0  0  0  0  0
  147.7786  137.0467  152.4295 H   0  0  0  0  0  0  0  0  0  0  0  0
  145.4965  138.8790  153.0388 H   0  0  0  0  0  0  0  0  0  0  0  0
  146.8975  138.6943  154.0685 H   0  0  0  0  0  0  0  0  0  0  0  0
  148.0432  139.2696  151.5527 H   0  0  0  0  0  0  0  0  0  0  0  0
  146.6267  140.2781  151.5637 H   0  0  0  0  0  0  0  0  0  0  0  0
  149.4699  141.5074  155.6454 H   0  0  0  0  0  0  0  0  0  0  0  0
  150.5057  141.9953  154.2698 H   0  0  0  0  0  0  0  0  0  0  0  0
  148.4276  143.5289  154.4028 H   0  0  0  0  0  0  0  0  0  0  0  0
  147.4024  135.3037  151.6123 H   0  0  0  0  0  0  0  0  0  0  0  0
  147.5778  133.0430  151.0601 H   0  0  0  0  0  0  0  0  0  0  0  0
  146.4542  130.9936  150.1806 H   0  0  0  0  0  0  0  0  0  0  0  0
  142.7464  132.8128  150.2115 H   0  0  0  0  0  0  0  0  0  0  0  0
  143.6705  134.9340  151.0961 H   0  0  0  0  0  0  0  0  0  0  0  0
  1  2  2  0  0  0  0
  2  3  1  0  0  0  0
  2 13  1  0  0  0  0
  3  4  1  0  0  0  0
  3 20  1  0  0  0  0
  4  5  1  0  0  0  0
  4 21  1  0  0  0  0
  4 22  1  0  0  0  0
  5  6  1  0  0  0  0
  5 23  1  0  0  0  0
  5 24  1  0  0  0  0
  6 11  1  0  0  0  0
  6  7  1  0  0  0  0
  7  8  2  0  0  0  0
  7  9  1  0  0  0  0
  9 10  1  0  0  0  0
  9 25  1  0  0  0  0
  9 26  1  0  0  0  0
 10 11  1  0  0  0  0
 10 27  1  0  0  0  0
 11 12  2  0  0  0  0
 13 14  1  0  0  0  0
 13 28  1  0  0  0  0
 14 19  1  0  0  0  0
 14 15  2  0  0  0  0
 15 16  1  0  0  0  0
 15 29  1  0  0  0  0
 16 17  2  0  0  0  0
 16 30  1  0  0  0  0
 17 18  1  0  0  0  0
 18 19  2  0  0  0  0
 18 31  1  0  0  0  0
 19 32  1  0  0  0  0
M  END
> <s_m_source_file>
AV-unprocessed.smi

> <i_m_source_file_index>
2648

> <i_lp_mmshare_version>
43012

> <i_f3d_flags>
0

> <s_epik_input>
W2NIXTFbY0hdbltjSF1bY0hdYzFbTkhdQyg9TylbTkhdW0NIMl1bQ0gyXU4yQyg9TylbQ0gyXVtOSF1DMj1P

> <s_epik_cmdline>
J2VwaWtfcHl0aG9uJywgJy1waCcsICc3LjAnLCAnLXRuJywgJzgnLCAnLW1hJywgJzIwMCcsICctbWV0YWxfYmluZGluZycsICctaW1hZScsICc8aW5maWxlLm1hZT4nLCAnLW9tYWUnLCAnPG91dGZpbGUubWFlPic=

> <r_lp_tautomer_probability>
1

> <r_epik_Ionization_Penalty>
0.109042

> <r_epik_Ionization_Penalty_Charging>
0

> <r_epik_Ionization_Penalty_Neutral>
0.109042

> <r_epik_State_Penalty>
0.0987421

> <r_epik_Charging_Adjusted_Penalty>
0.0987421

> <i_epik_Tot_Q>
0

> <i_epik_Tot_abs_Q>
0

> <r_epik_Metal_State_Penalty>
0.108818

> <b_epik_Metal_Only>
0

> <s_lp_Force_Field>
OPLS_2005

> <r_lp_Energy>
20.6194

> <b_lp_Chiralities_Consistent>
1

> <s_lp_Variant>
AV-unprocessed.smi:2648-1

> <Gold.Version>
5.8.1

> <Gold.Id.Protein>
6NUR|6NUR_protein|mol2

> <Gold.PLP.Fitness>
47.9685

> <Gold.PLP.PLP>
-34.1858

> <Gold.PLP.part.hbond>
-3.3462

> <Gold.PLP.part.metal>
0.0000

> <Gold.PLP.part.buried>
-4.2530

> <Gold.PLP.part.nonpolar>
-27.7275

> <Gold.PLP.part.repulsive>
0.9623

> <Gold.PLP.ligand.clash>
0.0000

> <Gold.PLP.ligand.torsion>
0.4652

> <Gold.PLP.Chemscore.Hbond>
2.9920

> <Gold.PLP.Chemscore.CHOScore>
1.9112

> <Gold.PLP.Chemscore.Metal>
0.0000

> <Gold.Chemscore.Hbonds>
donor molecule, donor type, donor heavy atom, donor atom, acceptor molecule, acceptor atom, score
      L1  H     3    20       P1  7948  0.99
      L1  H    10    27       P1  8028  0.96
      L1  H    13    28       P1  7948  0.94
      L1  C    16    30       P1 10747  0.91
      L1  C    18    31       P1 10186  1.00

> <Gold.PLP.Chemscore.Internal.Correction>
0.0037

> <Gold.Rescore>
     Score         DG    S(hbond)    S(metal)    S(lipo)     H(rot)  DE(clash)    DE(int)     intcor
     15.25     -17.03       2.86        0.00      59.40       1.93       0.26       1.52       ----

> <Gold.Chemscore.Fitness>
15.2517

> <Gold.Chemscore.DG>
-17.0274

> <Gold.Chemscore.ZeroCoef>
-5.4800

> <Gold.Chemscore.Hbond>
2.8583

> <Gold.Chemscore.Metal>
0.0000

> <Gold.Chemscore.Lipo>
59.4013

> <Gold.Chemscore.Internal_Hbond>
0.0000

> <Gold.Chemscore.DEClash>
0.2578

> <Gold.Chemscore.DEInternal>
1.5178

> <Gold.Chemscore.Rot>
1.9334

> <Gold.Chemscore.Internal.Correction>
   9.000000E+99

> <Gold.Chemscore.Hbonds>
donor molecule, donor type, donor heavy atom, donor atom, acceptor molecule, acceptor atom, score
      L1  H     3    20       P1  7948  0.91
      L1  H    10    27       P1  8028  0.92
      L1  H    13    28       P1  7948  0.84

> <Gold.Chemscore.Hbond.Weighted>
-9.5468

> <Gold.Chemscore.Metal.Weighted>
-0.0000

> <Gold.Chemscore.Lipo.Weighted>
-6.9500

> <Gold.Chemscore.Internal_Hbond.Weighted>
0.0000

> <Gold.Chemscore.DEClash.Weighted>
0.2578

> <Gold.Chemscore.DEInternal.Weighted>
1.5178

> <Gold.Chemscore.Rot.Weighted>
4.9494

> <Gold.Chemscore.Internal.Correction.Weighted>
   9.000000E+99

> <Gold.Protein.RotatedTorsions>
[ 6907 6896 6895 6894 ] final  -94.69 input  -60.11 | X-H torsion
[ 7974 7965 7964 7962 ] final   35.94 input  175.53 | X-H torsion
[ 8008 7997 7996 7995 ] final   37.16 input   59.86 | X-H torsion
[ 10167 10162 10161 10158 ] final  -88.94 input  -65.29 | X-H torsion
[ 10718 10713 10712 10709 ] final   30.01 input   66.30 | X-H torsion
[ 10763 10752 10751 10750 ] final -175.71 input  -60.55 | X-H torsion
[ 11005 11000 10999 10996 ] final  -15.32 input  -57.11 | X-H torsion

> <Gold.Protein.ActiveResidues>
 VAL166  LYS551  ARG553  GLY616  TRP617  ASP618  TYR619  PRO620  LYS621  CYS622 
 ASP623  PHE694  ASN695  SER759  ASP760  ASP761  ALA762  ILE779  LEU786  VAL792 
 PHE793  MET794  SER795  GLU796  ALA797  LYS798  CYS799  TRP800  GLU811  SER814 

> <Gold.Protein.RotatedAtoms>
  150.6947  134.1774  159.4235 H   0  0  0  0  0  0  0  0  0  0  0  0  # atno 6907 bound_to 6896
  151.9749  135.0055  160.0564 H   0  0  0  0  0  0  0  0  0  0  0  0  # atno 6908 bound_to 6896
  152.1808  133.4671  159.4994 H   0  0  0  0  0  0  0  0  0  0  0  0  # atno 6909 bound_to 6896
  146.1247  139.6079  142.9266 H   0  0  0  0  0  0  0  0  0  0  0  0  # atno 7974 bound_to 7965
  155.1992  140.3314  155.4346 H   0  0  0  0  0  0  0  0  0  0  0  0  # atno 8008 bound_to 7997
  156.2413  140.1896  156.7030 H   0  0  0  0  0  0  0  0  0  0  0  0  # atno 8009 bound_to 7997
  154.6153  140.0603  156.9532 H   0  0  0  0  0  0  0  0  0  0  0  0  # atno 8010 bound_to 7997
  140.3697  143.2800  151.9515 H   0  0  0  0  0  0  0  0  0  0  0  0  # atno 10167 bound_to 10162
  157.2540  130.7129  149.6419 H   0  0  0  0  0  0  0  0  0  0  0  0  # atno 10718 bound_to 10713
  154.5811  135.2836  155.0732 H   0  0  0  0  0  0  0  0  0  0  0  0  # atno 10763 bound_to 10752
  154.2068  135.6415  153.5107 H   0  0  0  0  0  0  0  0  0  0  0  0  # atno 10764 bound_to 10752
  153.0088  135.5482  154.6465 H   0  0  0  0  0  0  0  0  0  0  0  0  # atno 10765 bound_to 10752
  140.7954  133.8255  155.9419 H   0  0  0  0  0  0  0  0  0  0  0  0  # atno 11005 bound_to 11000
  145.5391  141.0422  143.2341 LP  0  0  0  0  0  0  0  0  0  0  0  0  # atno 17320 bound_to 7965
  144.7631  139.6910  143.7226 LP  0  0  0  0  0  0  0  0  0  0  0  0  # atno 17321 bound_to 7965
  139.4805  144.5918  151.7759 LP  0  0  0  0  0  0  0  0  0  0  0  0  # atno 17342 bound_to 10162
  140.5045  144.1119  150.5979 LP  0  0  0  0  0  0  0  0  0  0  0  0  # atno 17343 bound_to 10162
  155.9665  130.4418  150.5357 LP  0  0  0  0  0  0  0  0  0  0  0  0  # atno 17370 bound_to 10713
  157.3247  131.0688  151.1905 LP  0  0  0  0  0  0  0  0  0  0  0  0  # atno 17371 bound_to 10713
  140.9348  134.1976  157.4839 LP  0  0  0  0  0  0  0  0  0  0  0  0  # atno 17394 bound_to 11000
  139.8727  134.9847  156.5253 LP  0  0  0  0  0  0  0  0  0  0  0  0  # atno 17395 bound_to 11000

$$$$
