AV-unprocessed.smi:163|AV-procd|sdf|1381|dock8
  -GOLD-   2262019113D 1   1.00000     0.00000
 Structure written by MMmdl.
 48 51  0  0  0  0  0  0  0  0  1 V2000
  154.7276  143.3592  164.5742 N   0  0  0  0  0  0  0  0  0  0  0  0
  154.0416  142.8548  163.7903 C   0  0  0  0  0  0  0  0  0  0  0  0
  153.1674  142.2163  162.7922 C   0  0  0  0  0  0  0  0  0  0  0  0
  152.8058  143.1330  161.6160 C   0  0  0  0  0  0  0  0  0  0  0  0
  152.2191  144.1918  161.8443 O   0  0  0  0  0  0  0  0  0  0  0  0
  153.1456  142.7473  160.3639 N   0  0  0  0  0  0  0  0  0  0  0  0
  153.7857  141.4736  160.0143 C   0  0  0  0  0  0  0  0  0  0  0  0
  152.7967  140.6253  159.1940 C   0  0  0  0  0  0  0  0  0  0  0  0
  152.3077  141.3756  158.0352 N   0  0  0  0  0  0  0  0  0  0  0  0
  151.6746  140.6402  157.0852 C   0  0  0  0  0  0  0  0  0  0  0  0
  152.3987  140.0345  156.1058 N   0  0  0  0  0  0  0  0  0  0  0  0
  151.7889  139.3125  155.1611 C   0  0  0  0  0  0  0  0  0  0  0  0
  150.4865  139.0652  155.0107 N   0  0  0  0  0  0  0  0  0  0  0  0
  149.7540  139.6598  155.9954 C   0  0  0  0  0  0  0  0  0  0  0  0
  150.2621  140.4577  157.0599 C   0  0  0  0  0  0  0  0  0  0  0  0
  149.2156  140.8806  157.8714 N   0  0  0  0  0  0  0  0  0  0  0  0
  148.1513  140.3739  157.3121 C   0  0  0  0  0  0  0  0  0  0  0  0
  148.3834  139.6184  156.1851 N   0  0  0  0  0  0  0  0  0  0  0  0
  147.3868  138.9418  155.3687 C   0  0  0  0  0  0  0  0  0  0  0  0
  146.5926  139.8843  154.4290 C   0  0  2  0  0  0  0  0  0  0  0  0
  145.6186  139.1309  153.7296 O   0  0  0  0  0  0  0  0  0  0  0  0
  147.4608  140.6405  153.4216 C   0  0  0  0  0  0  0  0  0  0  0  0
  147.6620  141.9894  154.0955 C   0  0  0  0  0  0  0  0  0  0  0  0
  146.3861  142.2382  154.6584 O   0  0  0  0  0  0  0  0  0  0  0  0
  145.9056  141.0201  155.2152 C   0  0  0  0  0  0  0  0  0  0  0  0
  151.7946  142.7187  158.3206 C   0  0  0  0  0  0  0  0  0  0  0  0
  152.8025  143.5211  159.1647 C   0  0  0  0  0  0  0  0  0  0  0  0
  153.6856  141.3291  162.4276 H   0  0  0  0  0  0  0  0  0  0  0  0
  152.2624  141.8974  163.3103 H   0  0  0  0  0  0  0  0  0  0  0  0
  154.6791  141.6766  159.4221 H   0  0  0  0  0  0  0  0  0  0  0  0
  154.1293  140.9041  160.8761 H   0  0  0  0  0  0  0  0  0  0  0  0
  153.2832  139.6980  158.8963 H   0  0  0  0  0  0  0  0  0  0  0  0
  151.9442  140.3448  159.8141 H   0  0  0  0  0  0  0  0  0  0  0  0
  152.4378  138.8701  154.4196 H   0  0  0  0  0  0  0  0  0  0  0  0
  147.1604  140.5326  157.7127 H   0  0  0  0  0  0  0  0  0  0  0  0
  147.8946  138.1721  154.7857 H   0  0  0  0  0  0  0  0  0  0  0  0
  146.7023  138.4144  156.0343 H   0  0  0  0  0  0  0  0  0  0  0  0
  145.0780  139.7277  153.2346 H   0  0  0  0  0  0  0  0  0  0  0  0
  148.4005  140.1498  153.1726 H   0  0  0  0  0  0  0  0  0  0  0  0
  146.9201  140.7969  152.4865 H   0  0  0  0  0  0  0  0  0  0  0  0
  148.4130  141.9279  154.8850 H   0  0  0  0  0  0  0  0  0  0  0  0
  147.9547  142.7729  153.3961 H   0  0  0  0  0  0  0  0  0  0  0  0
  144.8168  140.9869  155.1565 H   0  0  0  0  0  0  0  0  0  0  0  0
  146.1743  140.9915  156.2723 H   0  0  0  0  0  0  0  0  0  0  0  0
  151.5979  143.2497  157.3882 H   0  0  0  0  0  0  0  0  0  0  0  0
  150.8459  142.6371  158.8536 H   0  0  0  0  0  0  0  0  0  0  0  0
  152.3900  144.5041  159.3953 H   0  0  0  0  0  0  0  0  0  0  0  0
  153.7099  143.7055  158.5877 H   0  0  0  0  0  0  0  0  0  0  0  0
  1  2  3  0  0  0  0
  2  3  1  0  0  0  0
  3  4  1  0  0  0  0
  3 28  1  0  0  0  0
  3 29  1  0  0  0  0
  4  5  2  0  0  0  0
  4  6  1  0  0  0  0
  6 27  1  0  0  0  0
  6  7  1  0  0  0  0
  7  8  1  0  0  0  0
  7 30  1  0  0  0  0
  7 31  1  0  0  0  0
  8  9  1  0  0  0  0
  8 32  1  0  0  0  0
  8 33  1  0  0  0  0
  9 10  1  0  0  0  0
  9 26  1  0  0  0  0
 10 15  1  0  0  0  0
 10 11  2  0  0  0  0
 11 12  1  0  0  0  0
 12 13  2  0  0  0  0
 12 34  1  0  0  0  0
 13 14  1  0  0  0  0
 14 18  1  0  0  0  0
 14 15  2  0  0  0  0
 15 16  1  0  0  0  0
 16 17  2  0  0  0  0
 17 18  1  0  0  0  0
 17 35  1  0  0  0  0
 18 19  1  0  0  0  0
 19 20  1  0  0  0  0
 19 36  1  0  0  0  0
 19 37  1  0  0  0  0
 20 25  1  0  0  0  0
 20 21  1  0  0  0  0
 20 22  1  0  0  0  0
 21 38  1  0  0  0  0
 22 23  1  0  0  0  0
 22 39  1  0  0  0  0
 22 40  1  0  0  0  0
 23 24  1  0  0  0  0
 23 41  1  0  0  0  0
 23 42  1  0  0  0  0
 24 25  1  0  0  0  0
 25 43  1  0  0  0  0
 25 44  1  0  0  0  0
 26 27  1  0  0  0  0
 26 45  1  0  0  0  0
 26 46  1  0  0  0  0
 27 47  1  0  0  0  0
 27 48  1  0  0  0  0
M  END
> <s_m_source_file>
AV-unprocessed.smi

> <i_m_source_file_index>
163

> <i_lp_mmshare_version>
43012

> <i_f3d_flags>
0

> <s_epik_input>
TiNDW0NIMl1DKD1PKU4xW0NIMl1bQ0gyXU4oW0NIMl1bQ0gyXTEpYyhuW2NIXW4yKWMoYzIzKW5bY0hdbjNbQ0gyXVtDQEBdNChbT0hdKVtDSDJdW0NIMl1PW0NIMl00

> <s_epik_cmdline>
J2VwaWtfcHl0aG9uJywgJy1waCcsICc3LjAnLCAnLXRuJywgJzgnLCAnLW1hJywgJzIwMCcsICctbWV0YWxfYmluZGluZycsICctaW1hZScsICc8aW5maWxlLm1hZT4nLCAnLW9tYWUnLCAnPG91dGZpbGUubWFlPic=

> <r_lp_tautomer_probability>
1

> <r_epik_Ionization_Penalty>
0.000981096

> <r_epik_Ionization_Penalty_Charging>
0

> <r_epik_Ionization_Penalty_Neutral>
0.000981096

> <r_epik_State_Penalty>
0.000482875

> <r_epik_Charging_Adjusted_Penalty>
0.000482875

> <i_epik_Tot_Q>
0

> <i_epik_Tot_abs_Q>
0

> <r_epik_Metal_State_Penalty>
-0

> <b_epik_Metal_Only>
0

> <s_lp_Force_Field>
OPLS_2005

> <r_lp_Energy>
51.4692

> <b_lp_Chiralities_Consistent>
1

> <s_lp_Variant>
AV-unprocessed.smi:163-2

> <Gold.Version>
5.8.1

> <Gold.Id.Protein>
6NUR|6NUR_protein|mol2

> <Gold.PLP.Fitness>
51.6097

> <Gold.PLP.PLP>
-46.5283

> <Gold.PLP.part.hbond>
-2.2972

> <Gold.PLP.part.metal>
0.0000

> <Gold.PLP.part.buried>
-6.5451

> <Gold.PLP.part.nonpolar>
-37.8440

> <Gold.PLP.part.repulsive>
0.6841

> <Gold.PLP.ligand.clash>
0.0000

> <Gold.PLP.ligand.torsion>
0.7062

> <Gold.PLP.Chemscore.Hbond>
2.0000

> <Gold.PLP.Chemscore.CHOScore>
0.0000

> <Gold.PLP.Chemscore.Metal>
0.0000

> <Gold.Chemscore.Hbonds>
donor molecule, donor type, donor heavy atom, donor atom, acceptor molecule, acceptor atom, score
      L1  H    21    38       P1 10175  1.00
      P1  H  7997  8009       L1    11  1.00

> <Gold.PLP.Chemscore.Internal.Correction>
0.4938

> <Gold.Rescore>
     Score         DG    S(hbond)    S(metal)    S(lipo)     H(rot)  DE(clash)    DE(int)     intcor
     13.00     -13.94       1.94        0.00      76.68       2.72       0.07       0.88       ----

> <Gold.Chemscore.Fitness>
12.9960

> <Gold.Chemscore.DG>
-13.9437

> <Gold.Chemscore.ZeroCoef>
-5.4800

> <Gold.Chemscore.Hbond>
1.9351

> <Gold.Chemscore.Metal>
0.0000

> <Gold.Chemscore.Lipo>
76.6777

> <Gold.Chemscore.Internal_Hbond>
0.0000

> <Gold.Chemscore.DEClash>
0.0717

> <Gold.Chemscore.DEInternal>
0.8760

> <Gold.Chemscore.Rot>
2.7230

> <Gold.Chemscore.Internal.Correction>
   9.000000E+99

> <Gold.Chemscore.Hbonds>
donor molecule, donor type, donor heavy atom, donor atom, acceptor molecule, acceptor atom, score
      L1  H    21    38       P1 10175  1.00
      P1  H  7997  8009       L1    11  0.89

> <Gold.Chemscore.Hbond.Weighted>
-6.4633

> <Gold.Chemscore.Metal.Weighted>
-0.0000

> <Gold.Chemscore.Lipo.Weighted>
-8.9713

> <Gold.Chemscore.Internal_Hbond.Weighted>
0.0000

> <Gold.Chemscore.DEClash.Weighted>
0.0717

> <Gold.Chemscore.DEInternal.Weighted>
0.8760

> <Gold.Chemscore.Rot.Weighted>
6.9709

> <Gold.Chemscore.Internal.Correction.Weighted>
   9.000000E+99

> <Gold.Protein.RotatedTorsions>
[ 6907 6896 6895 6894 ] final   91.25 input  -60.11 | X-H torsion
[ 7974 7965 7964 7962 ] final   24.49 input  175.53 | X-H torsion
[ 8008 7997 7996 7995 ] final -162.42 input   59.86 | X-H torsion
[ 10167 10162 10161 10158 ] final   53.83 input  -65.29 | X-H torsion
[ 10718 10713 10712 10709 ] final  -95.12 input   66.30 | X-H torsion
[ 10763 10752 10751 10750 ] final  -54.34 input  -60.55 | X-H torsion
[ 11005 11000 10999 10996 ] final   -9.55 input  -57.11 | X-H torsion

> <Gold.Protein.ActiveResidues>
 VAL166  LYS551  ARG553  GLY616  TRP617  ASP618  TYR619  PRO620  LYS621  CYS622 
 ASP623  PHE694  ASN695  SER759  ASP760  ASP761  ALA762  ILE779  LEU786  VAL792 
 PHE793  MET794  SER795  GLU796  ALA797  LYS798  CYS799  TRP800  GLU811  SER814 

> <Gold.Protein.RotatedAtoms>
  152.5449  134.1685  159.8586 H   0  0  0  0  0  0  0  0  0  0  0  0  # atno 6907 bound_to 6896
  151.1698  133.4785  159.2601 H   0  0  0  0  0  0  0  0  0  0  0  0  # atno 6908 bound_to 6896
  151.1287  135.0130  159.8627 H   0  0  0  0  0  0  0  0  0  0  0  0  # atno 6909 bound_to 6896
  146.1935  139.7597  142.8815 H   0  0  0  0  0  0  0  0  0  0  0  0  # atno 7974 bound_to 7965
  155.8066  140.0899  157.1927 H   0  0  0  0  0  0  0  0  0  0  0  0  # atno 8008 bound_to 7997
  154.3980  140.1462  156.3396 H   0  0  0  0  0  0  0  0  0  0  0  0  # atno 8009 bound_to 7997
  155.8408  140.3439  155.5633 H   0  0  0  0  0  0  0  0  0  0  0  0  # atno 8010 bound_to 7997
  140.2366  144.3629  150.6395 H   0  0  0  0  0  0  0  0  0  0  0  0  # atno 10167 bound_to 10162
  156.0038  130.5096  150.6028 H   0  0  0  0  0  0  0  0  0  0  0  0  # atno 10718 bound_to 10713
  154.1733  135.6455  153.5015 H   0  0  0  0  0  0  0  0  0  0  0  0  # atno 10763 bound_to 10752
  153.0078  135.5388  154.6590 H   0  0  0  0  0  0  0  0  0  0  0  0  # atno 10764 bound_to 10752
  154.5935  135.2936  155.0583 H   0  0  0  0  0  0  0  0  0  0  0  0  # atno 10765 bound_to 10752
  140.7353  133.8715  155.8925 H   0  0  0  0  0  0  0  0  0  0  0  0  # atno 11005 bound_to 11000
  145.3719  141.0344  143.3226 LP  0  0  0  0  0  0  0  0  0  0  0  0  # atno 17320 bound_to 7965
  144.8533  139.5289  143.6846 LP  0  0  0  0  0  0  0  0  0  0  0  0  # atno 17321 bound_to 7965
  140.6145  143.2171  151.6819 LP  0  0  0  0  0  0  0  0  0  0  0  0  # atno 17342 bound_to 10162
  139.5091  144.3586  152.0583 LP  0  0  0  0  0  0  0  0  0  0  0  0  # atno 17343 bound_to 10162
  157.3874  131.0790  151.1424 LP  0  0  0  0  0  0  0  0  0  0  0  0  # atno 17370 bound_to 10713
  157.2126  130.6445  149.5780 LP  0  0  0  0  0  0  0  0  0  0  0  0  # atno 17371 bound_to 10713
  140.9885  134.1311  157.4430 LP  0  0  0  0  0  0  0  0  0  0  0  0  # atno 17394 bound_to 11000
  139.8817  135.0033  156.6178 LP  0  0  0  0  0  0  0  0  0  0  0  0  # atno 17395 bound_to 11000

$$$$
