AV-unprocessed.smi:2421|AV-procd|sdf|9556|dock8
  -GOLD-   2272013193D 1   1.00000     0.00000
 Structure written by MMmdl.
 44 46  0  0  0  0  0  0  0  0  1 V2000
  152.8816  138.4609  155.3162 C   0  0  0  0  0  0  0  0  0  0  0  0
  151.6074  139.2127  155.0604 C   0  0  0  0  0  0  0  0  0  0  0  0
  151.5278  140.5053  155.3388 N   0  0  0  0  0  0  0  0  0  0  0  0
  150.2233  140.9061  155.0018 O   0  0  0  0  0  0  0  0  0  0  0  0
  149.5392  139.8320  154.5234 C   0  0  0  0  0  0  0  0  0  0  0  0
  148.1221  140.0485  154.1141 C   0  0  0  0  0  0  0  0  0  0  0  0
  150.3727  138.7541  154.5339 C   0  0  0  0  0  0  0  0  0  0  0  0
  150.0558  137.4366  154.1444 N   0  0  0  0  0  0  0  0  0  0  0  0
  150.3058  136.3515  154.8955 C   0  0  0  0  0  0  0  0  0  0  0  0
  150.9111  136.3918  155.9653 O   0  0  0  0  0  0  0  0  0  0  0  0
  149.8499  135.1949  154.3814 N   0  0  0  0  0  0  0  0  0  0  0  0
  149.9586  133.8484  154.9467 C   0  0  1  0  0  0  0  0  0  0  0  0
  149.0754  133.7371  156.1955 C   0  0  0  0  0  0  0  0  0  0  0  0
  149.1082  132.3064  156.7513 C   0  0  0  0  0  0  0  0  0  0  0  0
  148.7221  131.3675  155.7492 O   0  0  0  0  0  0  0  0  0  0  0  0
  149.5040  131.3698  154.5487 C   0  0  0  0  0  0  0  0  0  0  0  0
  150.9019  130.7669  154.7768 C   0  0  0  0  0  0  0  0  0  0  0  0
  150.6753  129.2554  154.8743 C   0  0  0  0  0  0  0  0  0  0  0  0
  149.3818  128.9713  154.0977 C   0  0  0  0  0  0  0  0  0  0  0  0
  148.8638  130.3328  153.6180 C   0  0  0  0  0  0  0  0  0  0  0  0
  149.5132  132.7839  153.9288 C   0  0  0  0  0  0  0  0  0  0  0  0
  152.7983  137.4197  155.0039 H   0  0  0  0  0  0  0  0  0  0  0  0
  153.1353  138.4690  156.3764 H   0  0  0  0  0  0  0  0  0  0  0  0
  153.7139  138.9038  154.7692 H   0  0  0  0  0  0  0  0  0  0  0  0
  147.6929  139.1385  153.6942 H   0  0  0  0  0  0  0  0  0  0  0  0
  148.0543  140.8323  153.3597 H   0  0  0  0  0  0  0  0  0  0  0  0
  147.5150  140.3464  154.9687 H   0  0  0  0  0  0  0  0  0  0  0  0
  149.5681  137.3163  153.2686 H   0  0  0  0  0  0  0  0  0  0  0  0
  149.3983  135.2545  153.4800 H   0  0  0  0  0  0  0  0  0  0  0  0
  150.9912  133.6611  155.2465 H   0  0  0  0  0  0  0  0  0  0  0  0
  149.4071  134.4404  156.9601 H   0  0  0  0  0  0  0  0  0  0  0  0
  148.0462  134.0037  155.9501 H   0  0  0  0  0  0  0  0  0  0  0  0
  150.0943  132.0679  157.1483 H   0  0  0  0  0  0  0  0  0  0  0  0
  148.4144  132.2193  157.5877 H   0  0  0  0  0  0  0  0  0  0  0  0
  151.5285  130.9710  153.9074 H   0  0  0  0  0  0  0  0  0  0  0  0
  151.4305  131.1656  155.6413 H   0  0  0  0  0  0  0  0  0  0  0  0
  151.5240  128.6958  154.4798 H   0  0  0  0  0  0  0  0  0  0  0  0
  150.5483  128.9649  155.9179 H   0  0  0  0  0  0  0  0  0  0  0  0
  149.5498  128.2943  153.2595 H   0  0  0  0  0  0  0  0  0  0  0  0
  148.6511  128.5003  154.7567 H   0  0  0  0  0  0  0  0  0  0  0  0
  147.7744  130.3866  153.6111 H   0  0  0  0  0  0  0  0  0  0  0  0
  149.2022  130.4992  152.5941 H   0  0  0  0  0  0  0  0  0  0  0  0
  148.5079  133.0242  153.5788 H   0  0  0  0  0  0  0  0  0  0  0  0
  150.1535  132.8029  153.0460 H   0  0  0  0  0  0  0  0  0  0  0  0
  1  2  1  0  0  0  0
  1 22  1  0  0  0  0
  1 23  1  0  0  0  0
  1 24  1  0  0  0  0
  2  7  1  0  0  0  0
  2  3  2  0  0  0  0
  3  4  1  0  0  0  0
  4  5  1  0  0  0  0
  5  6  1  0  0  0  0
  5  7  2  0  0  0  0
  6 25  1  0  0  0  0
  6 26  1  0  0  0  0
  6 27  1  0  0  0  0
  7  8  1  0  0  0  0
  8  9  1  0  0  0  0
  8 28  1  0  0  0  0
  9 10  2  0  0  0  0
  9 11  1  0  0  0  0
 11 12  1  0  0  0  0
 11 29  1  0  0  0  0
 12 21  1  0  0  0  0
 12 13  1  0  0  0  0
 12 30  1  0  0  0  0
 13 14  1  0  0  0  0
 13 31  1  0  0  0  0
 13 32  1  0  0  0  0
 14 15  1  0  0  0  0
 14 33  1  0  0  0  0
 14 34  1  0  0  0  0
 15 16  1  0  0  0  0
 16 20  1  0  0  0  0
 16 17  1  0  0  0  0
 16 21  1  0  0  0  0
 17 18  1  0  0  0  0
 17 35  1  0  0  0  0
 17 36  1  0  0  0  0
 18 19  1  0  0  0  0
 18 37  1  0  0  0  0
 18 38  1  0  0  0  0
 19 20  1  0  0  0  0
 19 39  1  0  0  0  0
 19 40  1  0  0  0  0
 20 41  1  0  0  0  0
 20 42  1  0  0  0  0
 21 43  1  0  0  0  0
 21 44  1  0  0  0  0
M  END
> <s_m_source_file>
AV-unprocessed.smi

> <i_m_source_file_index>
2421

> <i_lp_mmshare_version>
43012

> <i_f3d_flags>
0

> <s_epik_input>
W0NIM11jMW5vYyhbQ0gzXSljMVtOSF1DKD1PKVtOSF1bQ0BASF0oW0NIMl0yKVtDSDJdW0NIMl1PQzIzW0NIMl1bQ0gyXVtDSDJdW0NIMl0z

> <s_epik_cmdline>
J2VwaWtfcHl0aG9uJywgJy1waCcsICc3LjAnLCAnLXRuJywgJzgnLCAnLW1hJywgJzIwMCcsICctbWV0YWxfYmluZGluZycsICctaW1hZScsICc8aW5maWxlLm1hZT4nLCAnLW9tYWUnLCAnPG91dGZpbGUubWFlPic=

> <r_lp_tautomer_probability>
1

> <r_epik_Ionization_Penalty>
3.59808e-05

> <r_epik_Ionization_Penalty_Charging>
0

> <r_epik_Ionization_Penalty_Neutral>
3.59808e-05

> <r_epik_State_Penalty>
-0

> <r_epik_Charging_Adjusted_Penalty>
0

> <i_epik_Tot_Q>
0

> <i_epik_Tot_abs_Q>
0

> <r_epik_Metal_State_Penalty>
-0

> <b_epik_Metal_Only>
0

> <s_lp_Force_Field>
OPLS_2005

> <r_lp_Energy>
43.4187

> <b_lp_Chiralities_Consistent>
1

> <s_lp_Variant>
AV-unprocessed.smi:2421-2

> <Gold.Version>
5.8.1

> <Gold.Id.Protein>
6NUR|6NUR_protein|mol2

> <Gold.PLP.Fitness>
40.9388

> <Gold.PLP.PLP>
-35.7756

> <Gold.PLP.part.hbond>
-4.4821

> <Gold.PLP.part.metal>
0.0000

> <Gold.PLP.part.buried>
-3.0538

> <Gold.PLP.part.nonpolar>
-28.1691

> <Gold.PLP.part.repulsive>
0.2589

> <Gold.PLP.ligand.clash>
0.0000

> <Gold.PLP.ligand.torsion>
0.5160

> <Gold.PLP.Chemscore.Hbond>
1.9000

> <Gold.PLP.Chemscore.CHOScore>
0.0000

> <Gold.PLP.Chemscore.Metal>
0.0000

> <Gold.Chemscore.Hbonds>
donor molecule, donor type, donor heavy atom, donor atom, acceptor molecule, acceptor atom, score
      L1  H     8    28       P1  7948  1.00
      L1  H    11    29       P1  7948  0.80

> <Gold.PLP.Chemscore.Internal.Correction>
0.4952

> <Gold.Rescore>
     Score         DG    S(hbond)    S(metal)    S(lipo)     H(rot)  DE(clash)    DE(int)     intcor
     15.83     -16.42       1.41        0.00      75.27       1.00       0.01       0.59       ----

> <Gold.Chemscore.Fitness>
15.8265

> <Gold.Chemscore.DG>
-16.4245

> <Gold.Chemscore.ZeroCoef>
-5.4800

> <Gold.Chemscore.Hbond>
1.4064

> <Gold.Chemscore.Metal>
0.0000

> <Gold.Chemscore.Lipo>
75.2743

> <Gold.Chemscore.Internal_Hbond>
0.0000

> <Gold.Chemscore.DEClash>
0.0110

> <Gold.Chemscore.DEInternal>
0.5870

> <Gold.Chemscore.Rot>
1.0000

> <Gold.Chemscore.Internal.Correction>
   9.000000E+99

> <Gold.Chemscore.Hbonds>
donor molecule, donor type, donor heavy atom, donor atom, acceptor molecule, acceptor atom, score
      L1  H     8    28       P1  7948  0.78
      L1  H    11    29       P1  7948  0.11

> <Gold.Chemscore.Hbond.Weighted>
-4.6974

> <Gold.Chemscore.Metal.Weighted>
-0.0000

> <Gold.Chemscore.Lipo.Weighted>
-8.8071

> <Gold.Chemscore.Internal_Hbond.Weighted>
0.0000

> <Gold.Chemscore.DEClash.Weighted>
0.0110

> <Gold.Chemscore.DEInternal.Weighted>
0.5870

> <Gold.Chemscore.Rot.Weighted>
2.5600

> <Gold.Chemscore.Internal.Correction.Weighted>
   9.000000E+99

> <Gold.Protein.RotatedTorsions>
[ 6907 6896 6895 6894 ] final  153.45 input  -60.11 | X-H torsion
[ 7974 7965 7964 7962 ] final  -15.85 input  175.53 | X-H torsion
[ 8008 7997 7996 7995 ] final -122.12 input   59.86 | X-H torsion
[ 10167 10162 10161 10158 ] final  -79.15 input  -65.29 | X-H torsion
[ 10718 10713 10712 10709 ] final -178.71 input   66.30 | X-H torsion
[ 10763 10752 10751 10750 ] final   90.33 input  -60.55 | X-H torsion
[ 11005 11000 10999 10996 ] final   41.59 input  -57.11 | X-H torsion

> <Gold.Protein.ActiveResidues>
 VAL166  LYS551  ARG553  GLY616  TRP617  ASP618  TYR619  PRO620  LYS621  CYS622 
 ASP623  PHE694  ASN695  SER759  ASP760  ASP761  ALA762  ILE779  LEU786  VAL792 
 PHE793  MET794  SER795  GLU796  ALA797  LYS798  CYS799  TRP800  GLU811  SER814 

> <Gold.Protein.RotatedAtoms>
  152.0725  133.4113  159.4465 H   0  0  0  0  0  0  0  0  0  0  0  0  # atno 6907 bound_to 6896
  150.6863  134.3075  159.4741 H   0  0  0  0  0  0  0  0  0  0  0  0  # atno 6908 bound_to 6896
  152.0908  134.9408  160.0622 H   0  0  0  0  0  0  0  0  0  0  0  0  # atno 6909 bound_to 6896
  146.2014  140.3553  142.8422 H   0  0  0  0  0  0  0  0  0  0  0  0  # atno 7974 bound_to 7965
  155.1591  140.0405  157.2838 H   0  0  0  0  0  0  0  0  0  0  0  0  # atno 8008 bound_to 7997
  154.6349  140.2533  155.7363 H   0  0  0  0  0  0  0  0  0  0  0  0  # atno 8009 bound_to 7997
  156.2503  140.2867  156.0717 H   0  0  0  0  0  0  0  0  0  0  0  0  # atno 8010 bound_to 7997
  140.4619  143.2451  151.8336 H   0  0  0  0  0  0  0  0  0  0  0  0  # atno 10167 bound_to 10162
  156.8483  130.9710  151.3094 H   0  0  0  0  0  0  0  0  0  0  0  0  # atno 10718 bound_to 10713
  153.1964  135.4438  155.0213 H   0  0  0  0  0  0  0  0  0  0  0  0  # atno 10763 bound_to 10752
  154.8121  135.3299  154.7279 H   0  0  0  0  0  0  0  0  0  0  0  0  # atno 10764 bound_to 10752
  153.7728  135.6983  153.4958 H   0  0  0  0  0  0  0  0  0  0  0  0  # atno 10765 bound_to 10752
  140.1820  134.4092  155.8195 H   0  0  0  0  0  0  0  0  0  0  0  0  # atno 11005 bound_to 11000
  144.8691  140.7247  143.6058 LP  0  0  0  0  0  0  0  0  0  0  0  0  # atno 17320 bound_to 7965
  145.3472  139.1716  143.4454 LP  0  0  0  0  0  0  0  0  0  0  0  0  # atno 17321 bound_to 7965
  139.4807  144.4998  151.9076 LP  0  0  0  0  0  0  0  0  0  0  0  0  # atno 17342 bound_to 10162
  140.4083  144.2402  150.5890 LP  0  0  0  0  0  0  0  0  0  0  0  0  # atno 17343 bound_to 10162
  157.6318  130.8735  149.9287 LP  0  0  0  0  0  0  0  0  0  0  0  0  # atno 17370 bound_to 10713
  156.0842  130.3670  150.0520 LP  0  0  0  0  0  0  0  0  0  0  0  0  # atno 17371 bound_to 10713
  141.2223  133.7005  156.7947 LP  0  0  0  0  0  0  0  0  0  0  0  0  # atno 17394 bound_to 11000
  140.2257  134.8724  157.3423 LP  0  0  0  0  0  0  0  0  0  0  0  0  # atno 17395 bound_to 11000

$$$$
