AV-unprocessed.smi:653|AV-procd|sdf|3205|dock4
  -GOLD-   22720 0143D 1   1.00000     0.00000
 Structure written by MMmdl.
 44 45  0  0  0  0  0  0  0  0  1 V2000
  144.8939  131.5479  150.5718 C   0  0  0  0  0  0  0  0  0  0  0  0
  144.7229  132.9754  151.0480 C   0  0  0  0  0  0  0  0  0  0  0  0
  143.5096  133.3992  151.6298 C   0  0  0  0  0  0  0  0  0  0  0  0
  143.4034  134.7351  152.0614 C   0  0  0  0  0  0  0  0  0  0  0  0
  144.5103  135.5935  151.8963 C   0  0  0  0  0  0  0  0  0  0  0  0
  144.4480  137.0410  152.3477 C   0  0  0  0  0  0  0  0  0  0  0  0
  145.6494  137.3728  153.2333 C   0  0  0  0  0  0  0  0  0  0  0  0
  146.3914  136.4718  153.6247 O   0  0  0  0  0  0  0  0  0  0  0  0
  145.8271  138.6673  153.5401 N   0  0  0  0  0  0  0  0  0  0  0  0
  146.9165  139.2072  154.3486 C   0  0  0  0  0  0  0  0  0  0  0  0
  147.6340  140.3901  153.6518 C   0  0  1  0  0  0  0  0  0  0  0  0
  146.7417  141.6102  153.4677 C   0  0  0  0  0  0  0  0  0  0  0  0
  146.8623  142.3369  154.8081 C   0  0  0  0  0  0  0  0  0  0  0  0
  148.0541  141.8440  155.4151 O   0  0  0  0  0  0  0  0  0  0  0  0
  148.7594  141.0287  154.4863 C   0  0  1  0  0  0  0  0  0  0  0  0
  149.7492  140.0800  155.2005 C   0  0  0  0  0  0  0  0  0  0  0  0
  150.8843  140.8707  155.8709 C   0  0  0  0  0  0  0  0  0  0  0  0
  150.3392  139.0387  154.2341 C   0  0  0  0  0  0  0  0  0  0  0  0
  145.6783  135.0692  151.3028 C   0  0  0  0  0  0  0  0  0  0  0  0
  145.7893  133.7897  150.8863 N   0  0  0  0  0  0  0  0  0  0  0  0
  143.9307  131.1070  150.3134 H   0  0  0  0  0  0  0  0  0  0  0  0
  145.3495  130.9425  151.3557 H   0  0  0  0  0  0  0  0  0  0  0  0
  145.5324  131.5046  149.6886 H   0  0  0  0  0  0  0  0  0  0  0  0
  142.6793  132.7180  151.7457 H   0  0  0  0  0  0  0  0  0  0  0  0
  142.4895  135.0916  152.5135 H   0  0  0  0  0  0  0  0  0  0  0  0
  144.4188  137.6987  151.4775 H   0  0  0  0  0  0  0  0  0  0  0  0
  143.5277  137.2166  152.9061 H   0  0  0  0  0  0  0  0  0  0  0  0
  145.1632  139.3333  153.1724 H   0  0  0  0  0  0  0  0  0  0  0  0
  146.5679  139.4952  155.3418 H   0  0  0  0  0  0  0  0  0  0  0  0
  147.6142  138.3855  154.5044 H   0  0  0  0  0  0  0  0  0  0  0  0
  148.0186  140.0516  152.6888 H   0  0  0  0  0  0  0  0  0  0  0  0
  147.1509  142.2404  152.6768 H   0  0  0  0  0  0  0  0  0  0  0  0
  145.7110  141.3857  153.1969 H   0  0  0  0  0  0  0  0  0  0  0  0
  146.9085  143.4180  154.6762 H   0  0  0  0  0  0  0  0  0  0  0  0
  146.0163  142.1089  155.4571 H   0  0  0  0  0  0  0  0  0  0  0  0
  149.3287  141.6998  153.8396 H   0  0  0  0  0  0  0  0  0  0  0  0
  149.2203  139.5495  155.9924 H   0  0  0  0  0  0  0  0  0  0  0  0
  151.4585  141.4393  155.1383 H   0  0  0  0  0  0  0  0  0  0  0  0
  151.5744  140.2045  156.3895 H   0  0  0  0  0  0  0  0  0  0  0  0
  150.4972  141.5740  156.6086 H   0  0  0  0  0  0  0  0  0  0  0  0
  150.8873  139.5195  153.4230 H   0  0  0  0  0  0  0  0  0  0  0  0
  149.5651  138.4165  153.7861 H   0  0  0  0  0  0  0  0  0  0  0  0
  151.0302  138.3722  154.7511 H   0  0  0  0  0  0  0  0  0  0  0  0
  146.5486  135.6930  151.1600 H   0  0  0  0  0  0  0  0  0  0  0  0
  1  2  1  0  0  0  0
  1 21  1  0  0  0  0
  1 22  1  0  0  0  0
  1 23  1  0  0  0  0
  2 20  1  0  0  0  0
  2  3  2  0  0  0  0
  3  4  1  0  0  0  0
  3 24  1  0  0  0  0
  4  5  2  0  0  0  0
  4 25  1  0  0  0  0
  5  6  1  0  0  0  0
  5 19  1  0  0  0  0
  6  7  1  0  0  0  0
  6 26  1  0  0  0  0
  6 27  1  0  0  0  0
  7  8  2  0  0  0  0
  7  9  1  0  0  0  0
  9 10  1  0  0  0  0
  9 28  1  0  0  0  0
 10 11  1  0  0  0  0
 10 29  1  0  0  0  0
 10 30  1  0  0  0  0
 11 15  1  0  0  0  0
 11 12  1  0  0  0  0
 11 31  1  0  0  0  0
 12 13  1  0  0  0  0
 12 32  1  0  0  0  0
 12 33  1  0  0  0  0
 13 14  1  0  0  0  0
 13 34  1  0  0  0  0
 13 35  1  0  0  0  0
 14 15  1  0  0  0  0
 15 16  1  0  0  0  0
 15 36  1  0  0  0  0
 16 17  1  0  0  0  0
 16 18  1  0  0  0  0
 16 37  1  0  0  0  0
 17 38  1  0  0  0  0
 17 39  1  0  0  0  0
 17 40  1  0  0  0  0
 18 41  1  0  0  0  0
 18 42  1  0  0  0  0
 18 43  1  0  0  0  0
 19 20  2  0  0  0  0
 19 44  1  0  0  0  0
M  END
> <s_m_source_file>
AV-unprocessed.smi

> <i_m_source_file_index>
653

> <i_lp_mmshare_version>
43012

> <i_f3d_flags>
0

> <s_epik_input>
W0NIM11jMVtjSF1bY0hdYyhbY0hdbjEpW0NIMl1DKD1PKVtOSF1bQ0gyXVtDQEBIXTJbQ0gyXVtDSDJdT1tDQEhdMltDSF0oW0NIM10pW0NIM10=

> <s_epik_cmdline>
J2VwaWtfcHl0aG9uJywgJy1waCcsICc3LjAnLCAnLXRuJywgJzgnLCAnLW1hJywgJzIwMCcsICctbWV0YWxfYmluZGluZycsICctaW1hZScsICc8aW5maWxlLm1hZT4nLCAnLW9tYWUnLCAnPG91dGZpbGUubWFlPic=

> <r_epik_Ionization_Penalty>
0.0166429

> <r_epik_Ionization_Penalty_Charging>
0

> <r_epik_Ionization_Penalty_Neutral>
0.0166429

> <r_epik_State_Penalty>
0.0131478

> <r_epik_Charging_Adjusted_Penalty>
0.0131478

> <i_epik_Tot_Q>
0

> <i_epik_Tot_abs_Q>
0

> <r_epik_Metal_State_Penalty>
0.012786

> <b_epik_Metal_Only>
0

> <s_lp_Force_Field>
OPLS_2005

> <r_lp_Energy>
21.9695

> <b_lp_Chiralities_Consistent>
1

> <s_lp_Variant>
AV-unprocessed.smi:653-2

> <Gold.Version>
5.8.1

> <Gold.Id.Protein>
6NUR|6NUR_protein|mol2

> <Gold.PLP.Fitness>
40.5935

> <Gold.PLP.PLP>
-35.0673

> <Gold.PLP.part.hbond>
-0.9882

> <Gold.PLP.part.metal>
0.0000

> <Gold.PLP.part.buried>
-3.1308

> <Gold.PLP.part.nonpolar>
-31.5820

> <Gold.PLP.part.repulsive>
1.6924

> <Gold.PLP.ligand.clash>
0.0000

> <Gold.PLP.ligand.torsion>
0.2690

> <Gold.PLP.Chemscore.Hbond>
1.0000

> <Gold.PLP.Chemscore.CHOScore>
1.0000

> <Gold.PLP.Chemscore.Metal>
0.0000

> <Gold.Chemscore.Hbonds>
donor molecule, donor type, donor heavy atom, donor atom, acceptor molecule, acceptor atom, score
      L1  H     9    28       P1 10175  1.00
      L1  C    19    44       P1  7948  1.00

> <Gold.PLP.Chemscore.Internal.Correction>
0.0642

> <Gold.Rescore>
     Score         DG    S(hbond)    S(metal)    S(lipo)     H(rot)  DE(clash)    DE(int)     intcor
     13.71     -15.95       0.95        0.00      94.73       1.48       0.59       1.65       ----

> <Gold.Chemscore.Fitness>
13.7059

> <Gold.Chemscore.DG>
-15.9451

> <Gold.Chemscore.ZeroCoef>
-5.4800

> <Gold.Chemscore.Hbond>
0.9530

> <Gold.Chemscore.Metal>
0.0000

> <Gold.Chemscore.Lipo>
94.7308

> <Gold.Chemscore.Internal_Hbond>
0.0000

> <Gold.Chemscore.DEClash>
0.5894

> <Gold.Chemscore.DEInternal>
1.6498

> <Gold.Chemscore.Rot>
1.4850

> <Gold.Chemscore.Internal.Correction>
   9.000000E+99

> <Gold.Chemscore.Hbonds>
donor molecule, donor type, donor heavy atom, donor atom, acceptor molecule, acceptor atom, score
      L1  H     9    28       P1 10175  0.97

> <Gold.Chemscore.Hbond.Weighted>
-3.1832

> <Gold.Chemscore.Metal.Weighted>
-0.0000

> <Gold.Chemscore.Lipo.Weighted>
-11.0835

> <Gold.Chemscore.Internal_Hbond.Weighted>
0.0000

> <Gold.Chemscore.DEClash.Weighted>
0.5894

> <Gold.Chemscore.DEInternal.Weighted>
1.6498

> <Gold.Chemscore.Rot.Weighted>
3.8015

> <Gold.Chemscore.Internal.Correction.Weighted>
   9.000000E+99

> <Gold.Protein.RotatedTorsions>
[ 6907 6896 6895 6894 ] final  178.83 input  -60.11 | X-H torsion
[ 7974 7965 7964 7962 ] final   54.17 input  175.53 | X-H torsion
[ 8008 7997 7996 7995 ] final  -64.73 input   59.86 | X-H torsion
[ 10167 10162 10161 10158 ] final   44.75 input  -65.29 | X-H torsion
[ 10718 10713 10712 10709 ] final  155.49 input   66.30 | X-H torsion
[ 10763 10752 10751 10750 ] final   29.28 input  -60.55 | X-H torsion
[ 11005 11000 10999 10996 ] final  -87.65 input  -57.11 | X-H torsion

> <Gold.Protein.ActiveResidues>
 VAL166  LYS551  ARG553  GLY616  TRP617  ASP618  TYR619  PRO620  LYS621  CYS622 
 ASP623  PHE694  ASN695  SER759  ASP760  ASP761  ALA762  ILE779  LEU786  VAL792 
 PHE793  MET794  SER795  GLU796  ALA797  LYS798  CYS799  TRP800  GLU811  SER814 

> <Gold.Protein.RotatedAtoms>
  151.6815  133.3312  159.3220 H   0  0  0  0  0  0  0  0  0  0  0  0  # atno 6907 bound_to 6896
  150.7820  134.6776  159.6435 H   0  0  0  0  0  0  0  0  0  0  0  0  # atno 6908 bound_to 6896
  152.3880  134.6489  160.0170 H   0  0  0  0  0  0  0  0  0  0  0  0  # atno 6909 bound_to 6896
  145.9636  139.4082  143.0233 H   0  0  0  0  0  0  0  0  0  0  0  0  # atno 7974 bound_to 7965
  154.4629  140.0948  156.6942 H   0  0  0  0  0  0  0  0  0  0  0  0  # atno 8008 bound_to 7997
  155.4942  140.3471  155.4341 H   0  0  0  0  0  0  0  0  0  0  0  0  # atno 8009 bound_to 7997
  156.0904  140.1395  156.9588 H   0  0  0  0  0  0  0  0  0  0  0  0  # atno 8010 bound_to 7997
  140.3311  144.2588  150.6168 H   0  0  0  0  0  0  0  0  0  0  0  0  # atno 10167 bound_to 10162
  157.2177  131.0711  151.1931 H   0  0  0  0  0  0  0  0  0  0  0  0  # atno 10718 bound_to 10713
  153.0440  135.6493  154.0867 H   0  0  0  0  0  0  0  0  0  0  0  0  # atno 10763 bound_to 10752
  154.0568  135.2891  155.3333 H   0  0  0  0  0  0  0  0  0  0  0  0  # atno 10764 bound_to 10752
  154.6684  135.5365  153.8172 H   0  0  0  0  0  0  0  0  0  0  0  0  # atno 10765 bound_to 10752
  141.1614  133.7523  156.9337 H   0  0  0  0  0  0  0  0  0  0  0  0  # atno 11005 bound_to 11000
  145.8005  140.9773  143.1001 LP  0  0  0  0  0  0  0  0  0  0  0  0  # atno 17320 bound_to 7965
  144.6820  139.9795  143.7483 LP  0  0  0  0  0  0  0  0  0  0  0  0  # atno 17321 bound_to 7965
  140.5396  143.2226  151.8106 LP  0  0  0  0  0  0  0  0  0  0  0  0  # atno 17342 bound_to 10162
  139.4856  144.4617  151.9533 LP  0  0  0  0  0  0  0  0  0  0  0  0  # atno 17343 bound_to 10162
  157.3608  130.7130  149.6500 LP  0  0  0  0  0  0  0  0  0  0  0  0  # atno 17370 bound_to 10713
  155.9685  130.4226  150.4524 LP  0  0  0  0  0  0  0  0  0  0  0  0  # atno 17371 bound_to 10713
  140.1369  134.9319  157.2414 LP  0  0  0  0  0  0  0  0  0  0  0  0  # atno 17394 bound_to 11000
  140.2884  134.3269  155.7322 LP  0  0  0  0  0  0  0  0  0  0  0  0  # atno 17395 bound_to 11000

$$$$
