AV-unprocessed.smi:1509|AV-procd|sdf|6093|dock1
  -GOLD-   22720 6223D 1   1.00000     0.00000
 Structure written by MMmdl.
 42 43  0  0  0  0  0  0  0  0  2 V2000
  145.9610  131.9603  149.5820 C   0  0  0  0  0  0  0  0  0  0  0  0
  146.1547  133.2480  150.3948 C   0  0  1  0  0  0  0  0  0  0  0  0
  144.8657  134.0859  150.4345 C   0  0  0  0  0  0  0  0  0  0  0  0
  145.0780  135.3496  151.2776 C   0  0  0  0  0  0  0  0  0  0  0  0
  145.5863  134.9939  152.6838 C   0  0  0  0  0  0  0  0  0  0  0  0
  146.8349  134.1920  152.6129 N   0  3  1  0  0  0  0  0  0  0  0  0
  147.4260  133.9491  153.9532 C   0  0  0  0  0  0  0  0  0  0  0  0
  148.8645  133.4114  153.8680 C   0  0  0  0  0  0  0  0  0  0  0  0
  149.6749  133.7120  155.1396 C   0  0  0  0  0  0  0  0  0  0  0  0
  149.3272  135.0104  155.7045 N   0  0  0  0  0  0  0  0  0  0  0  0
  150.0596  136.1284  155.5723 C   0  0  0  0  0  0  0  0  0  0  0  0
  151.1323  136.1644  154.9701 O   0  0  0  0  0  0  0  0  0  0  0  0
  149.5106  137.3975  156.2287 C   0  0  0  0  0  0  0  0  0  0  0  0
  150.3782  138.5389  156.0009 N   0  0  0  0  0  0  0  0  0  0  0  0
  150.2143  139.6273  155.2462 C   0  0  0  0  0  0  0  0  0  0  0  0
  151.2647  140.4307  155.3119 N   0  0  0  0  0  0  0  0  0  0  0  0
  152.1166  139.7645  156.1775 N   0  0  0  0  0  0  0  0  0  0  0  0
  151.5957  138.6415  156.5902 N   0  0  0  0  0  0  0  0  0  0  0  0
  146.6383  132.9438  151.8272 C   0  0  0  0  0  0  0  0  0  0  0  0
  145.2005  131.3191  150.0291 H   0  0  0  0  0  0  0  0  0  0  0  0
  146.8871  131.3876  149.5254 H   0  0  0  0  0  0  0  0  0  0  0  0
  145.6495  132.1832  148.5612 H   0  0  0  0  0  0  0  0  0  0  0  0
  146.9261  133.8375  149.8967 H   0  0  0  0  0  0  0  0  0  0  0  0
  144.5610  134.3606  149.4241 H   0  0  0  0  0  0  0  0  0  0  0  0
  144.0506  133.4965  150.8568 H   0  0  0  0  0  0  0  0  0  0  0  0
  145.7964  136.0045  150.7827 H   0  0  0  0  0  0  0  0  0  0  0  0
  144.1457  135.9108  151.3490 H   0  0  0  0  0  0  0  0  0  0  0  0
  145.7693  135.9152  153.2384 H   0  0  0  0  0  0  0  0  0  0  0  0
  144.8245  134.4380  153.2327 H   0  0  0  0  0  0  0  0  0  0  0  0
  147.4539  134.8872  154.5096 H   0  0  0  0  0  0  0  0  0  0  0  0
  146.7890  133.2723  154.5248 H   0  0  0  0  0  0  0  0  0  0  0  0
  148.8600  132.3348  153.6999 H   0  0  0  0  0  0  0  0  0  0  0  0
  149.3605  133.8565  153.0042 H   0  0  0  0  0  0  0  0  0  0  0  0
  149.5254  132.9291  155.8855 H   0  0  0  0  0  0  0  0  0  0  0  0
  150.7403  133.7187  154.9081 H   0  0  0  0  0  0  0  0  0  0  0  0
  148.4588  135.0678  156.2169 H   0  0  0  0  0  0  0  0  0  0  0  0
  148.5207  137.6189  155.8281 H   0  0  0  0  0  0  0  0  0  0  0  0
  149.3974  137.2475  157.3037 H   0  0  0  0  0  0  0  0  0  0  0  0
  149.3356  139.8268  154.6504 H   0  0  0  0  0  0  0  0  0  0  0  0
  145.9186  132.3030  152.3397 H   0  0  0  0  0  0  0  0  0  0  0  0
  147.5724  132.3853  151.7749 H   0  0  0  0  0  0  0  0  0  0  0  0
  147.5003  134.7585  152.1059 H   0  0  0  0  0  0  0  0  0  0  0  0
  1  2  1  0  0  0  0
  1 20  1  0  0  0  0
  1 21  1  0  0  0  0
  1 22  1  0  0  0  0
  2 19  1  0  0  0  0
  2  3  1  0  0  0  0
  2 23  1  0  0  0  0
  3  4  1  0  0  0  0
  3 24  1  0  0  0  0
  3 25  1  0  0  0  0
  4  5  1  0  0  0  0
  4 26  1  0  0  0  0
  4 27  1  0  0  0  0
  5  6  1  0  0  0  0
  5 28  1  0  0  0  0
  5 29  1  0  0  0  0
  6  7  1  0  0  0  0
  6 19  1  0  0  0  0
  6 42  1  0  0  0  0
  7  8  1  0  0  0  0
  7 30  1  0  0  0  0
  7 31  1  0  0  0  0
  8  9  1  0  0  0  0
  8 32  1  0  0  0  0
  8 33  1  0  0  0  0
  9 10  1  0  0  0  0
  9 34  1  0  0  0  0
  9 35  1  0  0  0  0
 10 11  1  0  0  0  0
 10 36  1  0  0  0  0
 11 12  2  0  0  0  0
 11 13  1  0  0  0  0
 13 14  1  0  0  0  0
 13 37  1  0  0  0  0
 13 38  1  0  0  0  0
 14 18  1  0  0  0  0
 14 15  1  0  0  0  0
 15 16  2  0  0  0  0
 15 39  1  0  0  0  0
 16 17  1  0  0  0  0
 17 18  2  0  0  0  0
 19 40  1  0  0  0  0
 19 41  1  0  0  0  0
M  CHG  1   6   1
M  END
> <s_m_source_file>
AV-unprocessed.smi

> <i_m_source_file_index>
1509

> <i_lp_mmshare_version>
43012

> <i_f3d_flags>
0

> <s_epik_input>
W0NIM11bQ0BASF0xW0NIMl1bQ0gyXVtDSDJdTihbQ0gyXTEpW0NIMl1bQ0gyXVtDSDJdW05IXUMoPU8pW0NIMl1uMltjSF1ubm4y

> <s_epik_cmdline>
J2VwaWtfcHl0aG9uJywgJy1waCcsICc3LjAnLCAnLXRuJywgJzgnLCAnLW1hJywgJzIwMCcsICctbWV0YWxfYmluZGluZycsICctaW1hZScsICc8aW5maWxlLm1hZT4nLCAnLW9tYWUnLCAnPG91dGZpbGUubWFlPic=

> <r_lp_tautomer_probability>
1

> <r_epik_Ionization_Penalty>
0.00044216

> <r_epik_Ionization_Penalty_Charging>
0.000440775

> <r_epik_Ionization_Penalty_Neutral>
1.38512e-06

> <r_epik_State_Penalty>
0.000271914

> <r_epik_Charging_Adjusted_Penalty>
0.000712689

> <i_epik_Tot_Q>
1

> <i_epik_Tot_abs_Q>
1

> <r_epik_Metal_State_Penalty>
-0

> <b_epik_Metal_Only>
0

> <s_lp_Force_Field>
OPLS_2005

> <r_lp_Energy>
20.7135

> <b_lp_Chiralities_Consistent>
1

> <s_lp_Variant>
AV-unprocessed.smi:1509-4

> <Gold.Version>
5.8.1

> <Gold.Id.Protein>
6NUR|6NUR_protein|mol2

> <Gold.PLP.Fitness>
45.3757

> <Gold.PLP.PLP>
-31.5733

> <Gold.PLP.part.hbond>
-3.9671

> <Gold.PLP.part.metal>
0.0000

> <Gold.PLP.part.buried>
-4.0672

> <Gold.PLP.part.nonpolar>
-24.4618

> <Gold.PLP.part.repulsive>
0.2513

> <Gold.PLP.ligand.clash>
0.0000

> <Gold.PLP.ligand.torsion>
0.5367

> <Gold.PLP.Chemscore.Hbond>
4.9440

> <Gold.PLP.Chemscore.CHOScore>
0.0000

> <Gold.PLP.Chemscore.Metal>
0.0000

> <Gold.Chemscore.Hbonds>
donor molecule, donor type, donor heavy atom, donor atom, acceptor molecule, acceptor atom, score
      L1  H     6    42       P1  7948  1.95
      P1  H  7989  7998       L1    16  0.94
      P1  H  7997  8010       L1    17  0.41
      P1  H 10752 10764       L1    12  1.00

> <Gold.PLP.Chemscore.Internal.Correction>
0.0438

> <Gold.Rescore>
     Score         DG    S(hbond)    S(metal)    S(lipo)     H(rot)  DE(clash)    DE(int)     intcor
     14.81     -16.65       3.68        0.00      55.22       2.97       0.06       1.77       ----

> <Gold.Chemscore.Fitness>
14.8150

> <Gold.Chemscore.DG>
-16.6452

> <Gold.Chemscore.ZeroCoef>
-5.4800

> <Gold.Chemscore.Hbond>
3.6832

> <Gold.Chemscore.Metal>
0.0000

> <Gold.Chemscore.Lipo>
55.2237

> <Gold.Chemscore.Internal_Hbond>
0.0000

> <Gold.Chemscore.DEClash>
0.0644

> <Gold.Chemscore.DEInternal>
1.7658

> <Gold.Chemscore.Rot>
2.9680

> <Gold.Chemscore.Internal.Correction>
   9.000000E+99

> <Gold.Chemscore.Hbonds>
donor molecule, donor type, donor heavy atom, donor atom, acceptor molecule, acceptor atom, score
      L1  H     6    42       P1  7948  0.74
      P1  H  7989  7998       L1    16  0.45
      P1  H  7997  8010       L1    17  0.40
      P1  H 10752 10764       L1    12  0.98

> <Gold.Chemscore.Hbond.Weighted>
-12.3019

> <Gold.Chemscore.Metal.Weighted>
-0.0000

> <Gold.Chemscore.Lipo.Weighted>
-6.4612

> <Gold.Chemscore.Internal_Hbond.Weighted>
0.0000

> <Gold.Chemscore.DEClash.Weighted>
0.0644

> <Gold.Chemscore.DEInternal.Weighted>
1.7658

> <Gold.Chemscore.Rot.Weighted>
7.5980

> <Gold.Chemscore.Internal.Correction.Weighted>
   9.000000E+99

> <Gold.Protein.RotatedTorsions>
[ 6907 6896 6895 6894 ] final  140.19 input  -60.11 | X-H torsion
[ 7974 7965 7964 7962 ] final  -24.58 input  175.53 | X-H torsion
[ 8008 7997 7996 7995 ] final   70.07 input   59.86 | X-H torsion
[ 10167 10162 10161 10158 ] final -174.99 input  -65.29 | X-H torsion
[ 10718 10713 10712 10709 ] final   98.49 input   66.30 | X-H torsion
[ 10763 10752 10751 10750 ] final  -73.80 input  -60.55 | X-H torsion
[ 11005 11000 10999 10996 ] final   47.41 input  -57.11 | X-H torsion

> <Gold.Protein.ActiveResidues>
 VAL166  LYS551  ARG553  GLY616  TRP617  ASP618  TYR619  PRO620  LYS621  CYS622 
 ASP623  PHE694  ASN695  SER759  ASP760  ASP761  ALA762  ILE779  LEU786  VAL792 
 PHE793  MET794  SER795  GLU796  ALA797  LYS798  CYS799  TRP800  GLU811  SER814 

> <Gold.Protein.RotatedAtoms>
  152.2460  133.5174  159.5297 H   0  0  0  0  0  0  0  0  0  0  0  0  # atno 6907 bound_to 6896
  150.7078  134.1025  159.3980 H   0  0  0  0  0  0  0  0  0  0  0  0  # atno 6908 bound_to 6896
  151.8945  135.0403  160.0551 H   0  0  0  0  0  0  0  0  0  0  0  0  # atno 6909 bound_to 6896
  146.1545  140.4771  142.8597 H   0  0  0  0  0  0  0  0  0  0  0  0  # atno 7974 bound_to 7965
  155.7333  140.3491  155.5069 H   0  0  0  0  0  0  0  0  0  0  0  0  # atno 8008 bound_to 7997
  155.9162  140.1059  157.1263 H   0  0  0  0  0  0  0  0  0  0  0  0  # atno 8009 bound_to 7997
  154.4063  140.1258  156.4608 H   0  0  0  0  0  0  0  0  0  0  0  0  # atno 8010 bound_to 7997
  139.5604  144.1883  152.1230 H   0  0  0  0  0  0  0  0  0  0  0  0  # atno 10167 bound_to 10162
  157.6894  131.0641  150.4804 H   0  0  0  0  0  0  0  0  0  0  0  0  # atno 10718 bound_to 10713
  154.4645  135.5885  153.6278 H   0  0  0  0  0  0  0  0  0  0  0  0  # atno 10763 bound_to 10752
  152.9827  135.6052  154.3445 H   0  0  0  0  0  0  0  0  0  0  0  0  # atno 10764 bound_to 10752
  154.3320  135.2842  155.2446 H   0  0  0  0  0  0  0  0  0  0  0  0  # atno 10765 bound_to 10752
  140.1282  134.4740  155.8542 H   0  0  0  0  0  0  0  0  0  0  0  0  # atno 11005 bound_to 11000
  144.7946  140.6098  143.6518 LP  0  0  0  0  0  0  0  0  0  0  0  0  # atno 17320 bound_to 7965
  145.4741  139.1501  143.3798 LP  0  0  0  0  0  0  0  0  0  0  0  0  # atno 17321 bound_to 7965
  140.1396  144.5214  150.6752 LP  0  0  0  0  0  0  0  0  0  0  0  0  # atno 17342 bound_to 10162
  140.6883  143.2362  151.5200 LP  0  0  0  0  0  0  0  0  0  0  0  0  # atno 17343 bound_to 10162
  156.5136  130.4145  149.6288 LP  0  0  0  0  0  0  0  0  0  0  0  0  # atno 17370 bound_to 10713
  156.3218  130.7284  151.2198 LP  0  0  0  0  0  0  0  0  0  0  0  0  # atno 17371 bound_to 10713
  141.2165  133.6786  156.7019 LP  0  0  0  0  0  0  0  0  0  0  0  0  # atno 17394 bound_to 11000
  140.2876  134.8266  157.3989 LP  0  0  0  0  0  0  0  0  0  0  0  0  # atno 17395 bound_to 11000

$$$$
