AV-unprocessed.smi:1|AV-procd|sdf|19|dock4
  -GOLD-   2262015123D 1   1.00000     0.00000
 Structure written by MMmdl.
 56 61  0  0  0  0  0  0  0  0  2 V2000
  153.9995  140.1824  159.1607 O   0  0  0  0  0  0  0  0  0  0  0  0
  152.7878  140.4011  159.0977 C   0  0  0  0  0  0  0  0  0  0  0  0
  151.7954  139.5199  158.8144 N   0  5  0  0  0  0  0  0  0  0  0  0
  151.8155  138.8392  157.6585 C   0  0  0  0  0  0  0  0  0  0  0  0
  152.8343  139.0136  156.7778 N   0  0  0  0  0  0  0  0  0  0  0  0
  152.8582  138.3323  155.6259 C   0  0  0  0  0  0  0  0  0  0  0  0
  151.9824  137.4357  155.1611 N   0  0  0  0  0  0  0  0  0  0  0  0
  150.9594  137.2464  156.0441 C   0  0  0  0  0  0  0  0  0  0  0  0
  150.8095  137.9000  157.3008 C   0  0  0  0  0  0  0  0  0  0  0  0
  149.6592  137.4664  157.9443 N   0  0  0  0  0  0  0  0  0  0  0  0
  149.1734  136.5893  157.0673 C   0  0  0  0  0  0  0  0  0  0  0  0
  149.8735  136.3992  155.9299 N   0  0  0  0  0  0  0  0  0  0  0  0
  149.5839  135.4899  154.7824 C   0  0  2  0  0  0  0  0  0  0  0  0
  148.2428  135.1180  154.8330 O   0  0  0  0  0  0  0  0  0  0  0  0
  148.1204  133.8657  154.1776 C   0  0  2  0  0  0  0  0  0  0  0  0
  146.7680  133.2061  154.4781 C   0  0  0  0  0  0  0  0  0  0  0  0
  146.8382  131.8360  154.1167 O   0  0  0  0  0  0  0  0  0  0  0  0
  146.4539  131.4341  152.8901 C   0  0  0  0  0  0  0  0  0  0  0  0
  145.6568  132.0559  152.1850 O   0  0  0  0  0  0  0  0  0  0  0  0
  147.0875  130.1478  152.4796 C   0  0  0  0  0  0  0  0  0  0  0  0
  148.3212  129.7673  153.0572 C   0  0  0  0  0  0  0  0  0  0  0  0
  148.9479  128.5630  152.6817 C   0  0  0  0  0  0  0  0  0  0  0  0
  148.3471  127.7231  151.7260 C   0  0  0  0  0  0  0  0  0  0  0  0
  147.1183  128.0887  151.1465 C   0  0  0  0  0  0  0  0  0  0  0  0
  146.4909  129.2936  151.5192 C   0  0  0  0  0  0  0  0  0  0  0  0
  149.3485  133.0974  154.6744 C   0  0  2  0  0  0  0  0  0  0  0  0
  149.0834  132.5101  155.9376 O   0  0  0  0  0  0  0  0  0  0  0  0
  150.3087  132.9061  156.9992 S   0  0  0  0  0  0  0  0  0  0  0  0
  149.7122  133.6020  158.1494 O   0  0  0  0  0  0  0  0  0  0  0  0
  151.1801  131.7309  157.1514 O   0  0  0  0  0  0  0  0  0  0  0  0
  151.1105  134.0291  156.0594 O   0  0  0  0  0  0  0  0  0  0  0  0
  150.4164  134.1929  154.8321 C   0  0  2  0  0  0  0  0  0  0  0  0
  152.2810  141.7787  159.4307 C   0  0  0  0  0  0  0  0  0  0  0  0
  152.9572  142.5600  160.3957 C   0  0  0  0  0  0  0  0  0  0  0  0
  152.5116  143.8600  160.7049 C   0  0  0  0  0  0  0  0  0  0  0  0
  151.3905  144.3968  160.0448 C   0  0  0  0  0  0  0  0  0  0  0  0
  150.7180  143.6342  159.0716 C   0  0  0  0  0  0  0  0  0  0  0  0
  151.1627  142.3339  158.7621 C   0  0  0  0  0  0  0  0  0  0  0  0
  153.7026  138.5348  154.9842 H   0  0  0  0  0  0  0  0  0  0  0  0
  148.2593  136.0502  157.2683 H   0  0  0  0  0  0  0  0  0  0  0  0
  149.7776  136.0875  153.8902 H   0  0  0  0  0  0  0  0  0  0  0  0
  148.2116  134.0403  153.1037 H   0  0  0  0  0  0  0  0  0  0  0  0
  146.5222  133.3201  155.5350 H   0  0  0  0  0  0  0  0  0  0  0  0
  145.9750  133.6889  153.9062 H   0  0  0  0  0  0  0  0  0  0  0  0
  148.8031  130.3974  153.7910 H   0  0  0  0  0  0  0  0  0  0  0  0
  149.8916  128.2845  153.1271 H   0  0  0  0  0  0  0  0  0  0  0  0
  148.8281  126.8003  151.4374 H   0  0  0  0  0  0  0  0  0  0  0  0
  146.6556  127.4445  150.4134 H   0  0  0  0  0  0  0  0  0  0  0  0
  145.5487  129.5441  151.0543 H   0  0  0  0  0  0  0  0  0  0  0  0
  149.6553  132.3159  153.9788 H   0  0  0  0  0  0  0  0  0  0  0  0
  151.1194  134.1954  153.9987 H   0  0  0  0  0  0  0  0  0  0  0  0
  153.8202  142.1629  160.9107 H   0  0  0  0  0  0  0  0  0  0  0  0
  153.0318  144.4455  161.4485 H   0  0  0  0  0  0  0  0  0  0  0  0
  151.0492  145.3935  160.2813 H   0  0  0  0  0  0  0  0  0  0  0  0
  149.8610  144.0465  158.5599 H   0  0  0  0  0  0  0  0  0  0  0  0
  150.6384  141.7685  158.0051 H   0  0  0  0  0  0  0  0  0  0  0  0
  1  2  2  0  0  0  0
  2  3  1  0  0  0  0
  2 33  1  0  0  0  0
  3  4  1  0  0  0  0
  4  9  1  0  0  0  0
  4  5  2  0  0  0  0
  5  6  1  0  0  0  0
  6  7  2  0  0  0  0
  6 39  1  0  0  0  0
  7  8  1  0  0  0  0
  8 12  1  0  0  0  0
  8  9  2  0  0  0  0
  9 10  1  0  0  0  0
 10 11  2  0  0  0  0
 11 12  1  0  0  0  0
 11 40  1  0  0  0  0
 12 13  1  0  0  0  0
 13 32  1  0  0  0  0
 13 14  1  0  0  0  0
 13 41  1  0  0  0  0
 14 15  1  0  0  0  0
 15 16  1  0  0  0  0
 15 26  1  0  0  0  0
 15 42  1  0  0  0  0
 16 17  1  0  0  0  0
 16 43  1  0  0  0  0
 16 44  1  0  0  0  0
 17 18  1  0  0  0  0
 18 19  2  0  0  0  0
 18 20  1  0  0  0  0
 20 25  1  0  0  0  0
 20 21  2  0  0  0  0
 21 22  1  0  0  0  0
 21 45  1  0  0  0  0
 22 23  2  0  0  0  0
 22 46  1  0  0  0  0
 23 24  1  0  0  0  0
 23 47  1  0  0  0  0
 24 25  2  0  0  0  0
 24 48  1  0  0  0  0
 25 49  1  0  0  0  0
 26 32  1  0  0  0  0
 26 27  1  0  0  0  0
 26 50  1  0  0  0  0
 27 28  1  0  0  0  0
 28 29  2  0  0  0  0
 28 30  2  0  0  0  0
 28 31  1  0  0  0  0
 31 32  1  0  0  0  0
 32 51  1  0  0  0  0
 33 38  1  0  0  0  0
 33 34  2  0  0  0  0
 34 35  1  0  0  0  0
 34 52  1  0  0  0  0
 35 36  2  0  0  0  0
 35 53  1  0  0  0  0
 36 37  1  0  0  0  0
 36 54  1  0  0  0  0
 37 38  2  0  0  0  0
 37 55  1  0  0  0  0
 38 56  1  0  0  0  0
M  CHG  1   3  -1
M  END
> <s_m_source_file>
AV-unprocessed.smi

> <i_m_source_file_index>
1

> <i_lp_mmshare_version>
43012

> <i_f3d_flags>
0

> <s_epik_input>
W2NIXTFbY0hdW2NIXVtjSF1bY0hdYzFDKD1PKVtOSF1jKG5bY0hdbjIpYyhjMjMpbltjSF1uM1tDQEBIXShbQ0BIXShbQ0BIXTQ1KU9TKE81KSg9Tyk9TylPW0NASF00W0NIMl1PQyg9TyljNltjSF1bY0hdW2NIXVtjSF1bY0hdNg==

> <s_epik_cmdline>
J2VwaWtfcHl0aG9uJywgJy1waCcsICc3LjAnLCAnLXRuJywgJzgnLCAnLW1hJywgJzIwMCcsICctbWV0YWxfYmluZGluZycsICctaW1hZScsICc8aW5maWxlLm1hZT4nLCAnLW9tYWUnLCAnPG91dGZpbGUubWFlPic=

> <r_lp_tautomer_probability>
1

> <r_epik_Ionization_Penalty>
4.39121

> <r_epik_Ionization_Penalty_Charging>
3.39398

> <r_epik_Ionization_Penalty_Neutral>
0.997232

> <r_epik_State_Penalty>
3.39839

> <r_epik_Charging_Adjusted_Penalty>
6.79237

> <i_epik_Tot_Q>
-1

> <i_epik_Tot_abs_Q>
1

> <r_epik_Metal_State_Penalty>
0.497663

> <b_epik_Metal_Only>
1

> <s_epik_Chemistry_Notes>
This compound has an ester and may undergo hydrolysis at high or low pH. This compound contains an acetal/aminal-like group ( X-CH(R)-Y where X, Y are N, S, or O) that may be acid/base labile, releasing an aldehyde.

> <s_lp_Force_Field>
OPLS_2005

> <r_lp_Energy>
44.2661

> <b_lp_Chiralities_Consistent>
1

> <s_lp_Variant>
AV-unprocessed.smi:1-19

> <Gold.Version>
5.8.1

> <Gold.Id.Protein>
6NUR|6NUR_protein|mol2

> <Gold.PLP.Fitness>
57.3875

> <Gold.PLP.PLP>
-53.6509

> <Gold.PLP.part.hbond>
-4.0000

> <Gold.PLP.part.metal>
0.0000

> <Gold.PLP.part.buried>
-6.0114

> <Gold.PLP.part.nonpolar>
-43.8124

> <Gold.PLP.part.repulsive>
0.4459

> <Gold.PLP.ligand.clash>
0.0000

> <Gold.PLP.ligand.torsion>
2.4259

> <Gold.PLP.Chemscore.Hbond>
2.6800

> <Gold.PLP.Chemscore.CHOScore>
0.0000

> <Gold.PLP.Chemscore.Metal>
0.0000

> <Gold.Chemscore.Hbonds>
donor molecule, donor type, donor heavy atom, donor atom, acceptor molecule, acceptor atom, score
      P1  H  6896  6907       L1    29  1.00
      P1  H  7997  8009       L1     5  0.83
      P1  H 10752 10763       L1     7  0.61

> <Gold.PLP.Chemscore.Internal.Correction>
0.5483

> <Gold.Rescore>
     Score         DG    S(hbond)    S(metal)    S(lipo)     H(rot)  DE(clash)    DE(int)     intcor
     18.06     -22.89       2.10        0.00     135.17       2.11       0.20       4.63       ----

> <Gold.Chemscore.Fitness>
18.0643

> <Gold.Chemscore.DG>
-22.8942

> <Gold.Chemscore.ZeroCoef>
-5.4800

> <Gold.Chemscore.Hbond>
2.0990

> <Gold.Chemscore.Metal>
0.0000

> <Gold.Chemscore.Lipo>
135.1652

> <Gold.Chemscore.Internal_Hbond>
0.0000

> <Gold.Chemscore.DEClash>
0.1951

> <Gold.Chemscore.DEInternal>
4.6348

> <Gold.Chemscore.Rot>
2.1136

> <Gold.Chemscore.Internal.Correction>
   9.000000E+99

> <Gold.Chemscore.Hbonds>
donor molecule, donor type, donor heavy atom, donor atom, acceptor molecule, acceptor atom, score
      P1  H  6896  6907       L1    29  0.92
      P1  H  7997  8009       L1     5  0.54
      P1  H 10752 10763       L1     7  0.40

> <Gold.Chemscore.Hbond.Weighted>
-7.0106

> <Gold.Chemscore.Metal.Weighted>
-0.0000

> <Gold.Chemscore.Lipo.Weighted>
-15.8143

> <Gold.Chemscore.Internal_Hbond.Weighted>
0.0000

> <Gold.Chemscore.DEClash.Weighted>
0.1951

> <Gold.Chemscore.DEInternal.Weighted>
4.6348

> <Gold.Chemscore.Rot.Weighted>
5.4107

> <Gold.Chemscore.Internal.Correction.Weighted>
   9.000000E+99

> <Gold.Protein.RotatedTorsions>
[ 6907 6896 6895 6894 ] final  -95.56 input  -60.11 | X-H torsion
[ 7974 7965 7964 7962 ] final   84.26 input  175.53 | X-H torsion
[ 8008 7997 7996 7995 ] final  156.16 input   59.86 | X-H torsion
[ 10167 10162 10161 10158 ] final  -73.70 input  -65.29 | X-H torsion
[ 10718 10713 10712 10709 ] final  -31.65 input   66.30 | X-H torsion
[ 10763 10752 10751 10750 ] final   62.84 input  -60.55 | X-H torsion
[ 11005 11000 10999 10996 ] final  112.14 input  -57.11 | X-H torsion

> <Gold.Protein.ActiveResidues>
 VAL166  LYS551  ARG553  GLY616  TRP617  ASP618  TYR619  PRO620  LYS621  CYS622 
 ASP623  PHE694  ASN695  SER759  ASP760  ASP761  ALA762  ILE779  LEU786  VAL792 
 PHE793  MET794  SER795  GLU796  ALA797  LYS798  CYS799  TRP800  GLU811  SER814 

> <Gold.Protein.RotatedAtoms>
  150.6967  134.1639  159.4186 H   0  0  0  0  0  0  0  0  0  0  0  0  # atno 6907 bound_to 6896
  151.9619  135.0117  160.0557 H   0  0  0  0  0  0  0  0  0  0  0  0  # atno 6908 bound_to 6896
  152.1919  133.4744  159.5049 H   0  0  0  0  0  0  0  0  0  0  0  0  # atno 6909 bound_to 6896
  145.6011  139.2352  143.2245 H   0  0  0  0  0  0  0  0  0  0  0  0  # atno 7974 bound_to 7965
  156.2438  140.1920  156.6912 H   0  0  0  0  0  0  0  0  0  0  0  0  # atno 8008 bound_to 7997
  154.6250  140.0603  156.9688 H   0  0  0  0  0  0  0  0  0  0  0  0  # atno 8009 bound_to 7997
  155.1801  140.3275  155.4379 H   0  0  0  0  0  0  0  0  0  0  0  0  # atno 8010 bound_to 7997
  140.5088  143.2348  151.7628 H   0  0  0  0  0  0  0  0  0  0  0  0  # atno 10167 bound_to 10162
  156.3846  130.4362  149.7442 H   0  0  0  0  0  0  0  0  0  0  0  0  # atno 10718 bound_to 10713
  152.9996  135.5450  154.6257 H   0  0  0  0  0  0  0  0  0  0  0  0  # atno 10763 bound_to 10752
  154.5546  135.2829  155.0979 H   0  0  0  0  0  0  0  0  0  0  0  0  # atno 10764 bound_to 10752
  154.2205  135.6451  153.5196 H   0  0  0  0  0  0  0  0  0  0  0  0  # atno 10765 bound_to 10752
  139.8920  134.9523  156.6539 H   0  0  0  0  0  0  0  0  0  0  0  0  # atno 11005 bound_to 11000
  146.1575  140.6836  142.9293 LP  0  0  0  0  0  0  0  0  0  0  0  0  # atno 17320 bound_to 7965
  144.7309  140.4669  143.6938 LP  0  0  0  0  0  0  0  0  0  0  0  0  # atno 17321 bound_to 7965
  139.4890  144.4419  151.9754 LP  0  0  0  0  0  0  0  0  0  0  0  0  # atno 17342 bound_to 10162
  140.3511  144.3088  150.5949 LP  0  0  0  0  0  0  0  0  0  0  0  0  # atno 17343 bound_to 10162
  156.4519  130.7911  151.2932 LP  0  0  0  0  0  0  0  0  0  0  0  0  # atno 17370 bound_to 10713
  157.7495  131.0093  150.3260 LP  0  0  0  0  0  0  0  0  0  0  0  0  # atno 17371 bound_to 10713
  140.7499  133.8906  155.8339 LP  0  0  0  0  0  0  0  0  0  0  0  0  # atno 17394 bound_to 11000
  141.0009  134.1151  157.4318 LP  0  0  0  0  0  0  0  0  0  0  0  0  # atno 17395 bound_to 11000

$$$$
