AV-unprocessed.smi:1361|AV-procd|sdf|5556|dock3
  -GOLD-   22720 5143D 1   1.00000     0.00000
 Structure written by MMmdl.
 46 47  0  0  0  0  0  0  0  0  1 V2000
  153.7800  142.6344  163.8612 C   0  0  0  0  0  0  0  0  0  0  0  0
  153.3947  142.5976  162.3982 C   0  0  0  0  0  0  0  0  0  0  0  0
  152.4818  143.5750  162.0382 N   0  0  0  0  0  0  0  0  0  0  0  0
  152.0783  143.6287  160.7157 C   0  0  0  0  0  0  0  0  0  0  0  0
  151.0873  144.7368  160.4039 C   0  0  0  0  0  0  0  0  0  0  0  0
  152.5537  142.7466  159.8000 C   0  0  0  0  0  0  0  0  0  0  0  0
  152.1416  142.7784  158.3300 C   0  0  0  0  0  0  0  0  0  0  0  0
  151.6420  141.4497  157.7607 C   0  0  0  0  0  0  0  0  0  0  0  0
  152.4417  140.5489  157.5090 O   0  0  0  0  0  0  0  0  0  0  0  0
  150.3184  141.3430  157.5654 N   0  0  0  0  0  0  0  0  0  0  0  0
  149.6258  140.1746  157.0269 C   0  0  0  0  0  0  0  0  0  0  0  0
  149.9341  138.9399  157.9034 C   0  0  0  0  0  0  0  0  0  0  0  0
  149.4747  137.5956  157.3087 C   0  0  0  0  0  0  0  0  0  0  0  0
  150.6195  136.6350  156.9368 C   0  0  0  0  0  0  0  0  0  0  0  0
  151.8335  137.2386  156.1998 C   0  0  0  0  0  0  0  0  0  0  0  0
  151.5264  138.0546  154.9316 C   0  0  0  0  0  0  0  0  0  0  0  0
  151.3635  139.5751  155.1473 C   0  0  0  0  0  0  0  0  0  0  0  0
  149.9416  140.0371  155.5188 C   0  0  0  0  0  0  0  0  0  0  0  0
  153.5154  141.7119  160.2493 C   0  0  0  0  0  0  0  0  0  0  0  0
  153.9669  140.8709  159.4732 O   0  0  0  0  0  0  0  0  0  0  0  0
  153.9024  141.7094  161.5992 N   0  0  0  0  0  0  0  0  0  0  0  0
  152.1050  144.2513  162.6866 H   0  0  0  0  0  0  0  0  0  0  0  0
  154.6035  141.9487  164.0647 H   0  0  0  0  0  0  0  0  0  0  0  0
  152.9325  142.3443  164.4827 H   0  0  0  0  0  0  0  0  0  0  0  0
  154.0947  143.6382  164.1488 H   0  0  0  0  0  0  0  0  0  0  0  0
  151.4939  145.4145  159.6531 H   0  0  0  0  0  0  0  0  0  0  0  0
  150.8511  145.3256  161.2912 H   0  0  0  0  0  0  0  0  0  0  0  0
  150.1550  144.3185  160.0244 H   0  0  0  0  0  0  0  0  0  0  0  0
  152.9647  143.1264  157.7052 H   0  0  0  0  0  0  0  0  0  0  0  0
  151.3677  143.5367  158.2057 H   0  0  0  0  0  0  0  0  0  0  0  0
  149.7428  142.1372  157.8046 H   0  0  0  0  0  0  0  0  0  0  0  0
  148.5517  140.3601  157.0891 H   0  0  0  0  0  0  0  0  0  0  0  0
  150.9935  138.9098  158.1555 H   0  0  0  0  0  0  0  0  0  0  0  0
  149.4347  139.0760  158.8635 H   0  0  0  0  0  0  0  0  0  0  0  0
  148.8389  137.0908  158.0369 H   0  0  0  0  0  0  0  0  0  0  0  0
  148.8266  137.7485  156.4475 H   0  0  0  0  0  0  0  0  0  0  0  0
  150.9860  136.1639  157.8497 H   0  0  0  0  0  0  0  0  0  0  0  0
  150.2052  135.8237  156.3373 H   0  0  0  0  0  0  0  0  0  0  0  0
  152.4503  137.8255  156.8804 H   0  0  0  0  0  0  0  0  0  0  0  0
  152.4705  136.4017  155.9108 H   0  0  0  0  0  0  0  0  0  0  0  0
  152.3776  137.9248  154.2620 H   0  0  0  0  0  0  0  0  0  0  0  0
  150.6755  137.6357  154.3934 H   0  0  0  0  0  0  0  0  0  0  0  0
  152.1013  139.9556  155.8545 H   0  0  0  0  0  0  0  0  0  0  0  0
  151.6094  140.0519  154.1976 H   0  0  0  0  0  0  0  0  0  0  0  0
  149.2085  139.3964  155.0292 H   0  0  0  0  0  0  0  0  0  0  0  0
  149.7789  141.0156  155.0642 H   0  0  0  0  0  0  0  0  0  0  0  0
  1 23  1  0  0  0  0
  1 24  1  0  0  0  0
  1 25  1  0  0  0  0
  1  2  1  0  0  0  0
  2  3  1  0  0  0  0
  2 21  2  0  0  0  0
  3  4  1  0  0  0  0
  3 22  1  0  0  0  0
  4  6  2  0  0  0  0
  4  5  1  0  0  0  0
  5 26  1  0  0  0  0
  5 27  1  0  0  0  0
  5 28  1  0  0  0  0
  6 19  1  0  0  0  0
  6  7  1  0  0  0  0
  7  8  1  0  0  0  0
  7 29  1  0  0  0  0
  7 30  1  0  0  0  0
  8  9  2  0  0  0  0
  8 10  1  0  0  0  0
 10 11  1  0  0  0  0
 10 31  1  0  0  0  0
 11 18  1  0  0  0  0
 11 12  1  0  0  0  0
 11 32  1  0  0  0  0
 12 13  1  0  0  0  0
 12 33  1  0  0  0  0
 12 34  1  0  0  0  0
 13 14  1  0  0  0  0
 13 35  1  0  0  0  0
 13 36  1  0  0  0  0
 14 15  1  0  0  0  0
 14 37  1  0  0  0  0
 14 38  1  0  0  0  0
 15 16  1  0  0  0  0
 15 39  1  0  0  0  0
 15 40  1  0  0  0  0
 16 17  1  0  0  0  0
 16 41  1  0  0  0  0
 16 42  1  0  0  0  0
 17 18  1  0  0  0  0
 17 43  1  0  0  0  0
 17 44  1  0  0  0  0
 18 45  1  0  0  0  0
 18 46  1  0  0  0  0
 19 20  2  0  0  0  0
 19 21  1  0  0  0  0
M  END
> <s_m_source_file>
AV-unprocessed.smi

> <i_m_source_file_index>
1361

> <i_lp_mmshare_version>
43012

> <i_f3d_flags>
0

> <s_epik_input>
W0NIM11jMW5jKFtDSDNdKWMoYyg9TylbbkhdMSlbQ0gyXUMoPU8pW05IXVtDSF0yW0NIMl1bQ0gyXVtDSDJdW0NIMl1bQ0gyXVtDSDJdW0NIMl0y

> <s_epik_cmdline>
J2VwaWtfcHl0aG9uJywgJy1waCcsICc3LjAnLCAnLXRuJywgJzgnLCAnLW1hJywgJzIwMCcsICctbWV0YWxfYmluZGluZycsICctaW1hZScsICc8aW5maWxlLm1hZT4nLCAnLW9tYWUnLCAnPG91dGZpbGUubWFlPic=

> <r_lp_tautomer_probability>
0.156392

> <r_epik_Ionization_Penalty>
0.0140222

> <r_epik_Ionization_Penalty_Charging>
0.0138986

> <r_epik_Ionization_Penalty_Neutral>
0.000123575

> <r_epik_State_Penalty>
1.53084

> <r_epik_Charging_Adjusted_Penalty>
1.54474

> <i_epik_Tot_Q>
0

> <i_epik_Tot_abs_Q>
0

> <r_epik_Metal_State_Penalty>
1.70646

> <b_epik_Metal_Only>
0

> <s_lp_Force_Field>
OPLS_2005

> <r_lp_Energy>
27.031

> <b_lp_Chiralities_Consistent>
1

> <s_lp_Variant>
AV-unprocessed.smi:1361-2

> <Gold.Version>
5.8.1

> <Gold.Id.Protein>
6NUR|6NUR_protein|mol2

> <Gold.PLP.Fitness>
39.0806

> <Gold.PLP.PLP>
-39.6476

> <Gold.PLP.part.hbond>
-1.4993

> <Gold.PLP.part.metal>
0.0000

> <Gold.PLP.part.buried>
-4.4158

> <Gold.PLP.part.nonpolar>
-32.5651

> <Gold.PLP.part.repulsive>
0.1244

> <Gold.PLP.ligand.clash>
0.0000

> <Gold.PLP.ligand.torsion>
0.3020

> <Gold.PLP.Chemscore.Hbond>
0.0000

> <Gold.PLP.Chemscore.CHOScore>
0.0000

> <Gold.PLP.Chemscore.Metal>
0.0000

> <Gold.PLP.Chemscore.Internal.Correction>
0.0369

> <Gold.Rescore>
     Score         DG    S(hbond)    S(metal)    S(lipo)     H(rot)  DE(clash)    DE(int)     intcor
      6.56     -12.13       0.00        0.00      89.01       1.47       0.04       5.53       ----

> <Gold.Chemscore.Fitness>
6.5610

> <Gold.Chemscore.DG>
-12.1335

> <Gold.Chemscore.ZeroCoef>
-5.4800

> <Gold.Chemscore.Hbond>
0.0000

> <Gold.Chemscore.Metal>
0.0000

> <Gold.Chemscore.Lipo>
89.0102

> <Gold.Chemscore.Internal_Hbond>
0.0000

> <Gold.Chemscore.DEClash>
0.0407

> <Gold.Chemscore.DEInternal>
5.5319

> <Gold.Chemscore.Rot>
1.4690

> <Gold.Chemscore.Internal.Correction>
   9.000000E+99

> <Gold.Chemscore.Hbond.Weighted>
-0.0000

> <Gold.Chemscore.Metal.Weighted>
-0.0000

> <Gold.Chemscore.Lipo.Weighted>
-10.4142

> <Gold.Chemscore.Internal_Hbond.Weighted>
0.0000

> <Gold.Chemscore.DEClash.Weighted>
0.0407

> <Gold.Chemscore.DEInternal.Weighted>
5.5319

> <Gold.Chemscore.Rot.Weighted>
3.7607

> <Gold.Chemscore.Internal.Correction.Weighted>
   9.000000E+99

> <Gold.Protein.RotatedTorsions>
[ 6907 6896 6895 6894 ] final  151.27 input  -60.11 | X-H torsion
[ 7974 7965 7964 7962 ] final  139.49 input  175.53 | X-H torsion
[ 8008 7997 7996 7995 ] final    5.12 input   59.86 | X-H torsion
[ 10167 10162 10161 10158 ] final   89.20 input  -65.29 | X-H torsion
[ 10718 10713 10712 10709 ] final -127.80 input   66.30 | X-H torsion
[ 10763 10752 10751 10750 ] final  -50.85 input  -60.55 | X-H torsion
[ 11005 11000 10999 10996 ] final -132.84 input  -57.11 | X-H torsion

> <Gold.Protein.ActiveResidues>
 VAL166  LYS551  ARG553  GLY616  TRP617  ASP618  TYR619  PRO620  LYS621  CYS622 
 ASP623  PHE694  ASN695  SER759  ASP760  ASP761  ALA762  ILE779  LEU786  VAL792 
 PHE793  MET794  SER795  GLU796  ALA797  LYS798  CYS799  TRP800  GLU811  SER814 

> <Gold.Protein.RotatedAtoms>
  152.1029  133.4259  159.4595 H   0  0  0  0  0  0  0  0  0  0  0  0  # atno 6907 bound_to 6896
  150.6864  134.2739  159.4608 H   0  0  0  0  0  0  0  0  0  0  0  0  # atno 6908 bound_to 6896
  152.0600  134.9599  160.0625 H   0  0  0  0  0  0  0  0  0  0  0  0  # atno 6909 bound_to 6896
  144.9274  139.5091  143.5634 H   0  0  0  0  0  0  0  0  0  0  0  0  # atno 7974 bound_to 7965
  154.7244  140.2718  155.6512 H   0  0  0  0  0  0  0  0  0  0  0  0  # atno 8008 bound_to 7997
  156.2833  140.2728  156.1851 H   0  0  0  0  0  0  0  0  0  0  0  0  # atno 8009 bound_to 7997
  155.0464  140.0371  157.2518 H   0  0  0  0  0  0  0  0  0  0  0  0  # atno 8010 bound_to 7997
  139.8597  144.6550  150.9073 H   0  0  0  0  0  0  0  0  0  0  0  0  # atno 10167 bound_to 10162
  156.1891  130.6783  151.0401 H   0  0  0  0  0  0  0  0  0  0  0  0  # atno 10718 bound_to 10713
  154.1170  135.6540  153.4896 H   0  0  0  0  0  0  0  0  0  0  0  0  # atno 10763 bound_to 10752
  153.0238  135.5261  154.7135 H   0  0  0  0  0  0  0  0  0  0  0  0  # atno 10764 bound_to 10752
  154.6331  135.2978  155.0162 H   0  0  0  0  0  0  0  0  0  0  0  0  # atno 10765 bound_to 10752
  140.9134  134.1538  157.4371 H   0  0  0  0  0  0  0  0  0  0  0  0  # atno 11005 bound_to 11000
  146.3232  139.8198  142.8929 LP  0  0  0  0  0  0  0  0  0  0  0  0  # atno 17320 bound_to 7965
  145.3198  141.0241  143.3507 LP  0  0  0  0  0  0  0  0  0  0  0  0  # atno 17321 bound_to 7965
  140.7777  143.3755  151.1571 LP  0  0  0  0  0  0  0  0  0  0  0  0  # atno 17342 bound_to 10162
  139.7386  143.8960  152.3043 LP  0  0  0  0  0  0  0  0  0  0  0  0  # atno 17343 bound_to 10162
  157.6917  131.0807  150.7087 LP  0  0  0  0  0  0  0  0  0  0  0  0  # atno 17370 bound_to 10713
  156.7143  130.4661  149.5539 LP  0  0  0  0  0  0  0  0  0  0  0  0  # atno 17371 bound_to 10713
  139.8761  134.9944  156.5693 LP  0  0  0  0  0  0  0  0  0  0  0  0  # atno 17394 bound_to 11000
  140.8081  133.8451  155.8785 LP  0  0  0  0  0  0  0  0  0  0  0  0  # atno 17395 bound_to 11000

$$$$
