AV-unprocessed.smi:2671|AV-procd|sdf|10352|dock3
  -GOLD-   2272014373D 1   1.00000     0.00000
 Structure written by MMmdl.
 29 30  0  0  0  0  0  0  0  0  1 V2000
  151.9474  137.3284  153.7939 O   0  0  0  0  0  0  0  0  0  0  0  0
  151.3295  138.3231  154.4917 C   0  0  0  0  0  0  0  0  0  0  0  0
  150.0966  138.8353  154.0359 C   0  0  0  0  0  0  0  0  0  0  0  0
  149.5134  139.8663  154.8086 C   0  0  0  0  0  0  0  0  0  0  0  0
  148.1868  140.5078  154.4311 C   0  0  0  0  0  0  0  0  0  0  0  0
  147.6270  139.8962  153.3869 F   0  0  0  0  0  0  0  0  0  0  0  0
  147.3443  140.4393  155.4620 F   0  0  0  0  0  0  0  0  0  0  0  0
  148.3798  141.7889  154.1167 F   0  0  0  0  0  0  0  0  0  0  0  0
  150.1132  140.3331  155.9283 N   0  0  0  0  0  0  0  0  0  0  0  0
  151.2755  139.7687  156.2570 C   0  0  0  0  0  0  0  0  0  0  0  0
  152.0578  140.3872  157.7230 S   0  0  0  0  0  0  0  0  0  0  0  0
  150.8734  141.6907  158.1562 C   0  0  0  0  0  0  0  0  0  0  0  0
  151.5606  143.0506  158.3398 C   0  0  2  0  0  0  0  0  0  0  0  0
  152.3563  143.1932  159.6419 C   0  0  0  0  0  0  0  0  0  0  0  0
  152.1885  144.6569  160.0276 C   0  0  0  0  0  0  0  0  0  0  0  0
  151.2586  145.2233  158.9551 C   0  0  0  0  0  0  0  0  0  0  0  0
  150.5920  144.0827  158.4385 O   0  0  0  0  0  0  0  0  0  0  0  0
  151.9201  138.7961  155.6101 N   0  0  0  0  0  0  0  0  0  0  0  0
  151.4844  137.0973  153.0032 H   0  0  0  0  0  0  0  0  0  0  0  0
  149.6281  138.4540  153.1405 H   0  0  0  0  0  0  0  0  0  0  0  0
  150.1291  141.7564  157.3622 H   0  0  0  0  0  0  0  0  0  0  0  0
  150.3429  141.4048  159.0650 H   0  0  0  0  0  0  0  0  0  0  0  0
  152.2036  143.2662  157.4845 H   0  0  0  0  0  0  0  0  0  0  0  0
  151.9401  142.5586  160.4252 H   0  0  0  0  0  0  0  0  0  0  0  0
  153.4020  142.9138  159.5092 H   0  0  0  0  0  0  0  0  0  0  0  0
  151.7284  144.7325  161.0135 H   0  0  0  0  0  0  0  0  0  0  0  0
  153.1382  145.1914  160.0592 H   0  0  0  0  0  0  0  0  0  0  0  0
  150.5545  145.9555  159.3512 H   0  0  0  0  0  0  0  0  0  0  0  0
  151.8328  145.6978  158.1578 H   0  0  0  0  0  0  0  0  0  0  0  0
  1  2  1  0  0  0  0
  1 19  1  0  0  0  0
  2 18  1  0  0  0  0
  2  3  2  0  0  0  0
  3  4  1  0  0  0  0
  3 20  1  0  0  0  0
  4  5  1  0  0  0  0
  4  9  2  0  0  0  0
  5  6  1  0  0  0  0
  5  7  1  0  0  0  0
  5  8  1  0  0  0  0
  9 10  1  0  0  0  0
 10 11  1  0  0  0  0
 10 18  2  0  0  0  0
 11 12  1  0  0  0  0
 12 13  1  0  0  0  0
 12 21  1  0  0  0  0
 12 22  1  0  0  0  0
 13 17  1  0  0  0  0
 13 14  1  0  0  0  0
 13 23  1  0  0  0  0
 14 15  1  0  0  0  0
 14 24  1  0  0  0  0
 14 25  1  0  0  0  0
 15 16  1  0  0  0  0
 15 26  1  0  0  0  0
 15 27  1  0  0  0  0
 16 17  1  0  0  0  0
 16 28  1  0  0  0  0
 16 29  1  0  0  0  0
M  END
> <s_m_source_file>
AV-unprocessed.smi

> <i_m_source_file_index>
2671

> <i_lp_mmshare_version>
43012

> <i_f3d_flags>
0

> <s_epik_input>
W09IXWMxW2NIXWMoQyhGKShGKUYpbmMobjEpU1tDSDJdW0NAQEhdMltDSDJdW0NIMl1bQ0gyXU8y

> <s_epik_cmdline>
J2VwaWtfcHl0aG9uJywgJy1waCcsICc3LjAnLCAnLXRuJywgJzgnLCAnLW1hJywgJzIwMCcsICctbWV0YWxfYmluZGluZycsICctaW1hZScsICc8aW5maWxlLm1hZT4nLCAnLW9tYWUnLCAnPG91dGZpbGUubWFlPic=

> <r_lp_tautomer_probability>
0.0660145

> <r_epik_Ionization_Penalty>
3.60098

> <r_epik_Ionization_Penalty_Charging>
0

> <r_epik_Ionization_Penalty_Neutral>
3.60098

> <r_epik_State_Penalty>
2.71709

> <r_epik_Charging_Adjusted_Penalty>
2.71709

> <i_epik_Tot_Q>
0

> <i_epik_Tot_abs_Q>
0

> <r_epik_Metal_State_Penalty>
3.44057

> <b_epik_Metal_Only>
0

> <s_lp_Force_Field>
OPLS_2005

> <r_lp_Energy>
11.8845

> <b_lp_Chiralities_Consistent>
1

> <s_lp_Variant>
AV-unprocessed.smi:2671-7

> <Gold.Version>
5.8.1

> <Gold.Id.Protein>
6NUR|6NUR_protein|mol2

> <Gold.PLP.Fitness>
42.6286

> <Gold.PLP.PLP>
-37.7020

> <Gold.PLP.part.hbond>
-2.0000

> <Gold.PLP.part.metal>
0.0000

> <Gold.PLP.part.buried>
-3.7601

> <Gold.PLP.part.nonpolar>
-31.8531

> <Gold.PLP.part.repulsive>
0.2007

> <Gold.PLP.ligand.clash>
0.0000

> <Gold.PLP.ligand.torsion>
0.5400

> <Gold.PLP.Chemscore.Hbond>
2.0000

> <Gold.PLP.Chemscore.CHOScore>
0.0000

> <Gold.PLP.Chemscore.Metal>
0.0000

> <Gold.Chemscore.Hbonds>
donor molecule, donor type, donor heavy atom, donor atom, acceptor molecule, acceptor atom, score
      L1  H     1    19       P1  7949  1.00
      P1  H 10752 10763       L1     1  0.95

> <Gold.PLP.Chemscore.Internal.Correction>
0.0065

> <Gold.Rescore>
     Score         DG    S(hbond)    S(metal)    S(lipo)     H(rot)  DE(clash)    DE(int)     intcor
     13.82     -14.32       1.68        0.00      77.20       2.27       0.03       0.47       ----

> <Gold.Chemscore.Fitness>
13.8161

> <Gold.Chemscore.DG>
-14.3168

> <Gold.Chemscore.ZeroCoef>
-5.4800

> <Gold.Chemscore.Hbond>
1.6773

> <Gold.Chemscore.Metal>
0.0000

> <Gold.Chemscore.Lipo>
77.2048

> <Gold.Chemscore.Internal_Hbond>
0.0000

> <Gold.Chemscore.DEClash>
0.0286

> <Gold.Chemscore.DEInternal>
0.4720

> <Gold.Chemscore.Rot>
2.2650

> <Gold.Chemscore.Internal.Correction>
   9.000000E+99

> <Gold.Chemscore.Hbonds>
donor molecule, donor type, donor heavy atom, donor atom, acceptor molecule, acceptor atom, score
      L1  H     1    19       P1  7949  0.88
      P1  H 10752 10763       L1     1  0.21

> <Gold.Chemscore.Hbond.Weighted>
-5.6023

> <Gold.Chemscore.Metal.Weighted>
-0.0000

> <Gold.Chemscore.Lipo.Weighted>
-9.0330

> <Gold.Chemscore.Internal_Hbond.Weighted>
0.0000

> <Gold.Chemscore.DEClash.Weighted>
0.0286

> <Gold.Chemscore.DEInternal.Weighted>
0.4720

> <Gold.Chemscore.Rot.Weighted>
5.7984

> <Gold.Chemscore.Internal.Correction.Weighted>
   9.000000E+99

> <Gold.Protein.RotatedTorsions>
[ 6907 6896 6895 6894 ] final  158.23 input  -60.11 | X-H torsion
[ 7974 7965 7964 7962 ] final   34.95 input  175.53 | X-H torsion
[ 8008 7997 7996 7995 ] final  -64.93 input   59.86 | X-H torsion
[ 10167 10162 10161 10158 ] final   15.55 input  -65.29 | X-H torsion
[ 10718 10713 10712 10709 ] final   56.93 input   66.30 | X-H torsion
[ 10763 10752 10751 10750 ] final   24.42 input  -60.55 | X-H torsion
[ 11005 11000 10999 10996 ] final  113.37 input  -57.11 | X-H torsion

> <Gold.Protein.ActiveResidues>
 VAL166  LYS551  ARG553  GLY616  TRP617  ASP618  TYR619  PRO620  LYS621  CYS622 
 ASP623  PHE694  ASN695  SER759  ASP760  ASP761  ALA762  ILE779  LEU786  VAL792 
 PHE793  MET794  SER795  GLU796  ALA797  LYS798  CYS799  TRP800  GLU811  SER814 

> <Gold.Protein.RotatedAtoms>
  152.0035  133.3834  159.4190 H   0  0  0  0  0  0  0  0  0  0  0  0  # atno 6907 bound_to 6896
  150.6907  134.3808  159.5042 H   0  0  0  0  0  0  0  0  0  0  0  0  # atno 6908 bound_to 6896
  152.1558  134.8951  160.0595 H   0  0  0  0  0  0  0  0  0  0  0  0  # atno 6909 bound_to 6896
  146.1317  139.6204  142.9222 H   0  0  0  0  0  0  0  0  0  0  0  0  # atno 7974 bound_to 7965
  154.4641  140.0943  156.6973 H   0  0  0  0  0  0  0  0  0  0  0  0  # atno 8008 bound_to 7997
  155.4909  140.3470  155.4336 H   0  0  0  0  0  0  0  0  0  0  0  0  # atno 8009 bound_to 7997
  156.0924  140.1401  156.9563 H   0  0  0  0  0  0  0  0  0  0  0  0  # atno 8010 bound_to 7997
  140.5859  143.8889  150.6830 H   0  0  0  0  0  0  0  0  0  0  0  0  # atno 10167 bound_to 10162
  157.5472  130.8739  149.8909 H   0  0  0  0  0  0  0  0  0  0  0  0  # atno 10718 bound_to 10713
  153.0765  135.6605  154.0134 H   0  0  0  0  0  0  0  0  0  0  0  0  # atno 10763 bound_to 10752
  153.9767  135.2959  155.3425 H   0  0  0  0  0  0  0  0  0  0  0  0  # atno 10764 bound_to 10752
  154.7155  135.5187  153.8801 H   0  0  0  0  0  0  0  0  0  0  0  0  # atno 10765 bound_to 10752
  139.8951  134.9548  156.6728 H   0  0  0  0  0  0  0  0  0  0  0  0  # atno 11005 bound_to 11000
  145.5245  141.0430  143.2417 LP  0  0  0  0  0  0  0  0  0  0  0  0  # atno 17320 bound_to 7965
  144.7698  139.6762  143.7199 LP  0  0  0  0  0  0  0  0  0  0  0  0  # atno 17321 bound_to 7965
  140.2400  143.3670  152.1494 LP  0  0  0  0  0  0  0  0  0  0  0  0  # atno 17342 bound_to 10162
  139.5198  144.7024  151.5455 LP  0  0  0  0  0  0  0  0  0  0  0  0  # atno 17343 bound_to 10162
  156.0546  130.3711  150.1122 LP  0  0  0  0  0  0  0  0  0  0  0  0  # atno 17370 bound_to 10713
  156.9298  130.9710  151.3535 LP  0  0  0  0  0  0  0  0  0  0  0  0  # atno 17371 bound_to 10713
  140.7360  133.9019  155.8244 LP  0  0  0  0  0  0  0  0  0  0  0  0  # atno 17394 bound_to 11000
  141.0116  134.1013  157.4215 LP  0  0  0  0  0  0  0  0  0  0  0  0  # atno 17395 bound_to 11000

$$$$
