AV-unprocessed.smi:1762|AV-procd|sdf|7123|dock9
  -GOLD-   22720 8353D 1   1.00000     0.00000
 Structure written by MMmdl.
 52 53  0  0  0  0  0  0  0  0  3 V2000
  149.4146  132.7244  154.5976 C   0  0  0  0  0  0  0  0  0  0  0  0
  148.9165  134.1309  154.2468 C   0  0  2  0  0  0  0  0  0  0  0  0
  149.6896  135.2255  155.0065 C   0  0  0  0  0  0  0  0  0  0  0  0
  149.1426  136.5776  154.7060 N   0  3  2  0  0  0  0  0  0  0  0  0
  149.8653  137.7172  155.3665 C   0  0  2  0  0  0  0  0  0  0  0  0
  149.2796  137.9982  156.7723 C   0  0  0  0  0  0  0  0  0  0  0  0
  148.1769  138.5514  156.8514 O   0  0  0  0  0  0  0  0  0  0  0  0
  150.1085  137.5484  157.7535 N   0  5  0  0  0  0  0  0  0  0  0  0
  149.6548  137.1556  159.0863 C   0  0  0  0  0  0  0  0  0  0  0  0
  148.2207  136.5804  159.0196 C   0  0  0  0  0  0  0  0  0  0  0  0
  147.6520  136.0954  160.3521 C   0  0  0  0  0  0  0  0  0  0  0  0
  147.4044  134.7208  160.5694 C   0  0  0  0  0  0  0  0  0  0  0  0
  146.8784  134.3164  161.8111 C   0  0  0  0  0  0  0  0  0  0  0  0
  146.6094  135.2963  162.7850 C   0  0  0  0  0  0  0  0  0  0  0  0
  146.8774  136.6433  162.4708 C   0  0  0  0  0  0  0  0  0  0  0  0
  147.3820  137.0423  161.2839 N   0  0  0  0  0  0  0  0  0  0  0  0
  149.9311  139.0308  154.5133 C   0  0  0  0  0  0  0  0  0  0  0  0
  150.7620  140.1434  155.1814 C   0  0  0  0  0  0  0  0  0  0  0  0
  148.5554  139.5828  154.0847 C   0  0  0  0  0  0  0  0  0  0  0  0
  147.6766  136.5791  154.9808 C   0  0  0  0  0  0  0  0  0  0  0  0
  146.9644  135.4526  154.2118 C   0  0  2  0  0  0  0  0  0  0  0  0
  145.4649  135.3979  154.5249 C   0  0  0  0  0  0  0  0  0  0  0  0
  147.5382  134.2068  154.5831 O   0  0  0  0  0  0  0  0  0  0  0  0
  150.4692  132.6067  154.3474 H   0  0  0  0  0  0  0  0  0  0  0  0
  148.8568  131.9656  154.0483 H   0  0  0  0  0  0  0  0  0  0  0  0
  149.2980  132.5180  155.6617 H   0  0  0  0  0  0  0  0  0  0  0  0
  149.0329  134.2797  153.1718 H   0  0  0  0  0  0  0  0  0  0  0  0
  149.6457  135.0476  156.0822 H   0  0  0  0  0  0  0  0  0  0  0  0
  150.7327  135.1463  154.7074 H   0  0  0  0  0  0  0  0  0  0  0  0
  150.8987  137.3771  155.4726 H   0  0  0  0  0  0  0  0  0  0  0  0
  150.3097  136.4173  159.5517 H   0  0  0  0  0  0  0  0  0  0  0  0
  149.6537  138.0128  159.7603 H   0  0  0  0  0  0  0  0  0  0  0  0
  147.5523  137.3473  158.6260 H   0  0  0  0  0  0  0  0  0  0  0  0
  148.1841  135.7630  158.2982 H   0  0  0  0  0  0  0  0  0  0  0  0
  147.6277  133.9917  159.8044 H   0  0  0  0  0  0  0  0  0  0  0  0
  146.6869  133.2731  162.0129 H   0  0  0  0  0  0  0  0  0  0  0  0
  146.2065  135.0233  163.7489 H   0  0  0  0  0  0  0  0  0  0  0  0
  146.6792  137.4217  163.1926 H   0  0  0  0  0  0  0  0  0  0  0  0
  150.4856  138.8055  153.6035 H   0  0  0  0  0  0  0  0  0  0  0  0
  150.2806  140.5326  156.0795 H   0  0  0  0  0  0  0  0  0  0  0  0
  150.9079  140.9840  154.5028 H   0  0  0  0  0  0  0  0  0  0  0  0
  151.7493  139.7777  155.4645 H   0  0  0  0  0  0  0  0  0  0  0  0
  147.9967  139.9777  154.9331 H   0  0  0  0  0  0  0  0  0  0  0  0
  147.9380  138.8220  153.6081 H   0  0  0  0  0  0  0  0  0  0  0  0
  148.6727  140.3986  153.3709 H   0  0  0  0  0  0  0  0  0  0  0  0
  147.5103  136.4649  156.0535 H   0  0  0  0  0  0  0  0  0  0  0  0
  147.2209  137.5263  154.6929 H   0  0  0  0  0  0  0  0  0  0  0  0
  147.0884  135.6036  153.1378 H   0  0  0  0  0  0  0  0  0  0  0  0
  144.9718  136.3305  154.2496 H   0  0  0  0  0  0  0  0  0  0  0  0
  145.2891  135.2270  155.5874 H   0  0  0  0  0  0  0  0  0  0  0  0
  144.9807  134.5916  153.9734 H   0  0  0  0  0  0  0  0  0  0  0  0
  149.2523  136.7204  153.7121 H   0  0  0  0  0  0  0  0  0  0  0  0
  1  2  1  0  0  0  0
  1 24  1  0  0  0  0
  1 25  1  0  0  0  0
  1 26  1  0  0  0  0
  2 23  1  0  0  0  0
  2  3  1  0  0  0  0
  2 27  1  0  0  0  0
  3  4  1  0  0  0  0
  3 28  1  0  0  0  0
  3 29  1  0  0  0  0
  4  5  1  0  0  0  0
  4 20  1  0  0  0  0
  4 52  1  0  0  0  0
  5  6  1  0  0  0  0
  5 17  1  0  0  0  0
  5 30  1  0  0  0  0
  6  7  2  0  0  0  0
  6  8  1  0  0  0  0
  8  9  1  0  0  0  0
  9 10  1  0  0  0  0
  9 31  1  0  0  0  0
  9 32  1  0  0  0  0
 10 11  1  0  0  0  0
 10 33  1  0  0  0  0
 10 34  1  0  0  0  0
 11 16  1  0  0  0  0
 11 12  2  0  0  0  0
 12 13  1  0  0  0  0
 12 35  1  0  0  0  0
 13 14  2  0  0  0  0
 13 36  1  0  0  0  0
 14 15  1  0  0  0  0
 14 37  1  0  0  0  0
 15 16  2  0  0  0  0
 15 38  1  0  0  0  0
 17 18  1  0  0  0  0
 17 19  1  0  0  0  0
 17 39  1  0  0  0  0
 18 40  1  0  0  0  0
 18 41  1  0  0  0  0
 18 42  1  0  0  0  0
 19 43  1  0  0  0  0
 19 44  1  0  0  0  0
 19 45  1  0  0  0  0
 20 21  1  0  0  0  0
 20 46  1  0  0  0  0
 20 47  1  0  0  0  0
 21 22  1  0  0  0  0
 21 23  1  0  0  0  0
 21 48  1  0  0  0  0
 22 49  1  0  0  0  0
 22 50  1  0  0  0  0
 22 51  1  0  0  0  0
M  CHG  1   4   1
M  CHG  1   8  -1
M  END
> <s_m_source_file>
AV-unprocessed.smi

> <i_m_source_file_index>
1762

> <i_lp_mmshare_version>
43012

> <i_f3d_flags>
0

> <s_epik_input>
W0NIM11bQ0BASF0xW0NIMl1OKFtDSDJdW0NASF0oTzEpW0NIM10pW0NAQEhdKFtDSF0oW0NIM10pW0NIM10pQyg9TylbTkhdW0NIMl1bQ0gyXWMyW2NIXVtjSF1bY0hdW2NIXW4y

> <s_epik_cmdline>
J2VwaWtfcHl0aG9uJywgJy1waCcsICc3LjAnLCAnLXRuJywgJzgnLCAnLW1hJywgJzIwMCcsICctbWV0YWxfYmluZGluZycsICctaW1hZScsICc8aW5maWxlLm1hZT4nLCAnLW9tYWUnLCAnPG91dGZpbGUubWFlPic=

> <r_epik_Ionization_Penalty>
7.82966

> <r_epik_Ionization_Penalty_Charging>
7.7461

> <r_epik_Ionization_Penalty_Neutral>
0.0835571

> <r_epik_State_Penalty>
8.52273

> <r_epik_Charging_Adjusted_Penalty>
16.2688

> <i_epik_Tot_Q>
0

> <i_epik_Tot_abs_Q>
2

> <r_epik_Metal_State_Penalty>
4.47451

> <b_epik_Metal_Only>
1

> <s_lp_Force_Field>
OPLS_2005

> <r_lp_Energy>
21.039

> <b_lp_Chiralities_Consistent>
1

> <s_lp_Variant>
AV-unprocessed.smi:1762-25

> <Gold.Version>
5.8.1

> <Gold.Id.Protein>
6NUR|6NUR_protein|mol2

> <Gold.PLP.Fitness>
46.8399

> <Gold.PLP.PLP>
-37.7411

> <Gold.PLP.part.hbond>
-3.0000

> <Gold.PLP.part.metal>
0.0000

> <Gold.PLP.part.buried>
-1.1459

> <Gold.PLP.part.nonpolar>
-33.3124

> <Gold.PLP.part.repulsive>
0.0746

> <Gold.PLP.ligand.clash>
0.0000

> <Gold.PLP.ligand.torsion>
1.3045

> <Gold.PLP.Chemscore.Hbond>
3.7930

> <Gold.PLP.Chemscore.CHOScore>
0.0000

> <Gold.PLP.Chemscore.Metal>
0.0000

> <Gold.Chemscore.Hbonds>
donor molecule, donor type, donor heavy atom, donor atom, acceptor molecule, acceptor atom, score
      L1  H     4    52       P1  7948  2.00
      P1  H  6931  6943       L1    16  0.69
      P1  H  6934  6947       L1    16  0.99

> <Gold.PLP.Chemscore.Internal.Correction>
0.3288

> <Gold.Rescore>
     Score         DG    S(hbond)    S(metal)    S(lipo)     H(rot)  DE(clash)    DE(int)     intcor
     13.04     -18.79       2.05        0.00      90.38       1.60       0.34       5.42       ----

> <Gold.Chemscore.Fitness>
13.0369

> <Gold.Chemscore.DG>
-18.7920

> <Gold.Chemscore.ZeroCoef>
-5.4800

> <Gold.Chemscore.Hbond>
2.0467

> <Gold.Chemscore.Metal>
0.0000

> <Gold.Chemscore.Lipo>
90.3848

> <Gold.Chemscore.Internal_Hbond>
0.0000

> <Gold.Chemscore.DEClash>
0.3364

> <Gold.Chemscore.DEInternal>
5.4187

> <Gold.Chemscore.Rot>
1.6012

> <Gold.Chemscore.Internal.Correction>
   9.000000E+99

> <Gold.Chemscore.Hbonds>
donor molecule, donor type, donor heavy atom, donor atom, acceptor molecule, acceptor atom, score
      L1  H     4    52       P1  7948  0.94
      P1  H  6931  6943       L1    16  0.19
      P1  H  6934  6947       L1    16  0.79

> <Gold.Chemscore.Hbond.Weighted>
-6.8360

> <Gold.Chemscore.Metal.Weighted>
-0.0000

> <Gold.Chemscore.Lipo.Weighted>
-10.5750

> <Gold.Chemscore.Internal_Hbond.Weighted>
0.0000

> <Gold.Chemscore.DEClash.Weighted>
0.3364

> <Gold.Chemscore.DEInternal.Weighted>
5.4187

> <Gold.Chemscore.Rot.Weighted>
4.0990

> <Gold.Chemscore.Internal.Correction.Weighted>
   9.000000E+99

> <Gold.Protein.RotatedTorsions>
[ 6907 6896 6895 6894 ] final  149.78 input  -60.11 | X-H torsion
[ 7974 7965 7964 7962 ] final  -67.24 input  175.53 | X-H torsion
[ 8008 7997 7996 7995 ] final -143.73 input   59.86 | X-H torsion
[ 10167 10162 10161 10158 ] final  165.83 input  -65.29 | X-H torsion
[ 10718 10713 10712 10709 ] final  149.82 input   66.30 | X-H torsion
[ 10763 10752 10751 10750 ] final  -29.45 input  -60.55 | X-H torsion
[ 11005 11000 10999 10996 ] final  -85.92 input  -57.11 | X-H torsion

> <Gold.Protein.ActiveResidues>
 VAL166  LYS551  ARG553  GLY616  TRP617  ASP618  TYR619  PRO620  LYS621  CYS622 
 ASP623  PHE694  ASN695  SER759  ASP760  ASP761  ALA762  ILE779  LEU786  VAL792 
 PHE793  MET794  SER795  GLU796  ALA797  LYS798  CYS799  TRP800  GLU811  SER814 

> <Gold.Protein.RotatedAtoms>
  152.1233  133.4366  159.4685 H   0  0  0  0  0  0  0  0  0  0  0  0  # atno 6907 bound_to 6896
  150.6873  134.2508  159.4519 H   0  0  0  0  0  0  0  0  0  0  0  0  # atno 6908 bound_to 6896
  152.0386  134.9724  160.0624 H   0  0  0  0  0  0  0  0  0  0  0  0  # atno 6909 bound_to 6896
  145.7316  140.8994  143.0577 H   0  0  0  0  0  0  0  0  0  0  0  0  # atno 7974 bound_to 7965
  155.5153  140.0587  157.2916 H   0  0  0  0  0  0  0  0  0  0  0  0  # atno 8008 bound_to 7997
  154.4537  140.1962  156.0390 H   0  0  0  0  0  0  0  0  0  0  0  0  # atno 8009 bound_to 7997
  156.0756  140.3254  155.7633 H   0  0  0  0  0  0  0  0  0  0  0  0  # atno 8010 bound_to 7997
  139.4913  144.4091  151.9320 H   0  0  0  0  0  0  0  0  0  0  0  0  # atno 10167 bound_to 10162
  157.2913  131.0854  151.1459 H   0  0  0  0  0  0  0  0  0  0  0  0  # atno 10718 bound_to 10713
  153.7649  135.6916  153.4918 H   0  0  0  0  0  0  0  0  0  0  0  0  # atno 10763 bound_to 10752
  153.1913  135.4470  155.0152 H   0  0  0  0  0  0  0  0  0  0  0  0  # atno 10764 bound_to 10752
  154.8139  135.3390  154.7162 H   0  0  0  0  0  0  0  0  0  0  0  0  # atno 10765 bound_to 10752
  141.1636  133.7425  156.9085 H   0  0  0  0  0  0  0  0  0  0  0  0  # atno 11005 bound_to 11000
  144.6891  139.9339  143.7473 LP  0  0  0  0  0  0  0  0  0  0  0  0  # atno 17320 bound_to 7965
  146.0532  139.3531  143.0627 LP  0  0  0  0  0  0  0  0  0  0  0  0  # atno 17321 bound_to 7965
  140.3532  144.3063  150.5945 LP  0  0  0  0  0  0  0  0  0  0  0  0  # atno 17342 bound_to 10162
  140.5467  143.2213  151.7995 LP  0  0  0  0  0  0  0  0  0  0  0  0  # atno 17343 bound_to 10162
  157.2855  130.6770  149.6087 LP  0  0  0  0  0  0  0  0  0  0  0  0  # atno 17370 bound_to 10713
  155.9667  130.4437  150.5431 LP  0  0  0  0  0  0  0  0  0  0  0  0  # atno 17371 bound_to 10713
  140.1533  134.9215  157.2621 LP  0  0  0  0  0  0  0  0  0  0  0  0  # atno 17394 bound_to 11000
  140.2697  134.3475  155.7378 LP  0  0  0  0  0  0  0  0  0  0  0  0  # atno 17395 bound_to 11000

$$$$
