AV-unprocessed.smi:1626|AV-procd|sdf|6514|dock1
  -GOLD-   22720 7183D 1   1.00000     0.00000
 Structure written by MMmdl.
 47 49  0  0  0  0  0  0  0  0  1 V2000
  153.7178  142.6614  163.5408 C   0  0  0  0  0  0  0  0  0  0  0  0
  153.2112  142.6478  162.1092 C   0  0  0  0  0  0  0  0  0  0  0  0
  152.3937  143.7096  161.6595 C   0  0  0  0  0  0  0  0  0  0  0  0
  151.9064  143.7377  160.3343 C   0  0  0  0  0  0  0  0  0  0  0  0
  151.1062  144.6648  159.6879 N   0  0  0  0  0  0  0  0  0  0  0  0
  151.0099  144.1345  158.4717 C   0  0  0  0  0  0  0  0  0  0  0  0
  151.6538  142.9715  158.2546 N   0  0  0  0  0  0  0  0  0  0  0  0
  151.7088  142.2077  157.0223 C   0  0  0  0  0  0  0  0  0  0  0  0
  150.3368  141.6108  156.6511 C   0  0  2  0  0  0  0  0  0  0  0  0
  149.8014  140.9467  157.7779 O   0  0  0  0  0  0  0  0  0  0  0  0
  150.4179  140.5951  155.4941 C   0  0  0  0  0  0  0  0  0  0  0  0
  149.1336  140.1728  154.9310 N   0  0  0  0  0  0  0  0  0  0  0  0
  149.2284  138.8984  154.2100 C   0  0  0  0  0  0  0  0  0  0  0  0
  147.8721  138.4282  153.6566 C   0  0  0  0  0  0  0  0  0  0  0  0
  147.2643  139.5038  152.7431 C   0  0  0  0  0  0  0  0  0  0  0  0
  145.9663  139.1202  152.3401 O   0  0  0  0  0  0  0  0  0  0  0  0
  147.2092  140.8481  153.4857 C   0  0  0  0  0  0  0  0  0  0  0  0
  148.5979  141.2057  154.0422 C   0  0  0  0  0  0  0  0  0  0  0  0
  152.2622  142.6652  159.4657 C   0  0  0  0  0  0  0  0  0  0  0  0
  153.0705  141.6010  159.9016 C   0  0  0  0  0  0  0  0  0  0  0  0
  153.5479  141.5880  161.2288 C   0  0  0  0  0  0  0  0  0  0  0  0
  154.4198  140.4334  161.6894 C   0  0  0  0  0  0  0  0  0  0  0  0
  153.4469  143.5868  164.0499 H   0  0  0  0  0  0  0  0  0  0  0  0
  154.8044  142.5748  163.5651 H   0  0  0  0  0  0  0  0  0  0  0  0
  153.2906  141.8307  164.1030 H   0  0  0  0  0  0  0  0  0  0  0  0
  152.1346  144.5152  162.3305 H   0  0  0  0  0  0  0  0  0  0  0  0
  150.4436  144.6218  157.6914 H   0  0  0  0  0  0  0  0  0  0  0  0
  152.0592  142.8746  156.2336 H   0  0  0  0  0  0  0  0  0  0  0  0
  152.4603  141.4232  157.1228 H   0  0  0  0  0  0  0  0  0  0  0  0
  149.6408  142.4115  156.4030 H   0  0  0  0  0  0  0  0  0  0  0  0
  148.8923  141.1886  157.8650 H   0  0  0  0  0  0  0  0  0  0  0  0
  151.0232  141.0398  154.7028 H   0  0  0  0  0  0  0  0  0  0  0  0
  150.9680  139.7136  155.8278 H   0  0  0  0  0  0  0  0  0  0  0  0
  149.9450  138.9877  153.3921 H   0  0  0  0  0  0  0  0  0  0  0  0
  149.6063  138.1179  154.8683 H   0  0  0  0  0  0  0  0  0  0  0  0
  147.9960  137.4932  153.1094 H   0  0  0  0  0  0  0  0  0  0  0  0
  147.1975  138.2168  154.4877 H   0  0  0  0  0  0  0  0  0  0  0  0
  147.8802  139.6095  151.8489 H   0  0  0  0  0  0  0  0  0  0  0  0
  145.3459  139.7338  152.7029 H   0  0  0  0  0  0  0  0  0  0  0  0
  146.8601  141.6361  152.8171 H   0  0  0  0  0  0  0  0  0  0  0  0
  146.4935  140.7938  154.3075 H   0  0  0  0  0  0  0  0  0  0  0  0
  148.5243  142.1509  154.5816 H   0  0  0  0  0  0  0  0  0  0  0  0
  149.2885  141.3764  153.2146 H   0  0  0  0  0  0  0  0  0  0  0  0
  153.3210  140.8027  159.2185 H   0  0  0  0  0  0  0  0  0  0  0  0
  154.5017  139.6656  160.9195 H   0  0  0  0  0  0  0  0  0  0  0  0
  154.0001  139.9669  162.5810 H   0  0  0  0  0  0  0  0  0  0  0  0
  155.4252  140.7852  161.9217 H   0  0  0  0  0  0  0  0  0  0  0  0
  1  2  1  0  0  0  0
  1 23  1  0  0  0  0
  1 24  1  0  0  0  0
  1 25  1  0  0  0  0
  2 21  1  0  0  0  0
  2  3  2  0  0  0  0
  3  4  1  0  0  0  0
  3 26  1  0  0  0  0
  4 19  2  0  0  0  0
  4  5  1  0  0  0  0
  5  6  2  0  0  0  0
  6  7  1  0  0  0  0
  6 27  1  0  0  0  0
  7  8  1  0  0  0  0
  7 19  1  0  0  0  0
  8  9  1  0  0  0  0
  8 28  1  0  0  0  0
  8 29  1  0  0  0  0
  9 10  1  0  0  0  0
  9 11  1  0  0  0  0
  9 30  1  0  0  0  0
 10 31  1  0  0  0  0
 11 12  1  0  0  0  0
 11 32  1  0  0  0  0
 11 33  1  0  0  0  0
 12 18  1  0  0  0  0
 12 13  1  0  0  0  0
 13 14  1  0  0  0  0
 13 34  1  0  0  0  0
 13 35  1  0  0  0  0
 14 15  1  0  0  0  0
 14 36  1  0  0  0  0
 14 37  1  0  0  0  0
 15 16  1  0  0  0  0
 15 17  1  0  0  0  0
 15 38  1  0  0  0  0
 16 39  1  0  0  0  0
 17 18  1  0  0  0  0
 17 40  1  0  0  0  0
 17 41  1  0  0  0  0
 18 42  1  0  0  0  0
 18 43  1  0  0  0  0
 19 20  1  0  0  0  0
 20 21  2  0  0  0  0
 20 44  1  0  0  0  0
 21 22  1  0  0  0  0
 22 45  1  0  0  0  0
 22 46  1  0  0  0  0
 22 47  1  0  0  0  0
M  END
> <s_m_source_file>
AV-unprocessed.smi

> <i_m_source_file_index>
1626

> <i_lp_mmshare_version>
43012

> <i_f3d_flags>
0

> <s_epik_input>
W0NIM11jKFtjSF0xKWMoW0NIM10pW2NIXWMoYzEyKW4oW2NIXW4yKVtDSDJdW0NASF0oW09IXSlbQ0gyXU4zW0NIMl1bQ0gyXVtDSF0oW09IXSlbQ0gyXVtDSDJdMw==

> <s_epik_cmdline>
J2VwaWtfcHl0aG9uJywgJy1waCcsICc3LjAnLCAnLXRuJywgJzgnLCAnLW1hJywgJzIwMCcsICctbWV0YWxfYmluZGluZycsICctaW1hZScsICc8aW5maWxlLm1hZT4nLCAnLW9tYWUnLCAnPG91dGZpbGUubWFlPic=

> <r_epik_Ionization_Penalty>
2.14395

> <r_epik_Ionization_Penalty_Charging>
0

> <r_epik_Ionization_Penalty_Neutral>
2.14395

> <r_epik_State_Penalty>
2.24477

> <r_epik_Charging_Adjusted_Penalty>
2.24477

> <i_epik_Tot_Q>
0

> <i_epik_Tot_abs_Q>
0

> <r_epik_Metal_State_Penalty>
2.17429

> <b_epik_Metal_Only>
0

> <s_lp_Force_Field>
OPLS_2005

> <r_lp_Energy>
28.7152

> <b_lp_Chiralities_Consistent>
1

> <s_lp_Variant>
AV-unprocessed.smi:1626-9

> <Gold.Version>
5.8.1

> <Gold.Id.Protein>
6NUR|6NUR_protein|mol2

> <Gold.PLP.Fitness>
56.5312

> <Gold.PLP.PLP>
-51.4397

> <Gold.PLP.part.hbond>
-1.0375

> <Gold.PLP.part.metal>
0.0000

> <Gold.PLP.part.buried>
-5.4062

> <Gold.PLP.part.nonpolar>
-45.5398

> <Gold.PLP.part.repulsive>
0.1989

> <Gold.PLP.ligand.clash>
0.0000

> <Gold.PLP.ligand.torsion>
0.3306

> <Gold.PLP.Chemscore.Hbond>
0.8480

> <Gold.PLP.Chemscore.CHOScore>
1.0380

> <Gold.PLP.Chemscore.Metal>
0.0000

> <Gold.Chemscore.Hbonds>
donor molecule, donor type, donor heavy atom, donor atom, acceptor molecule, acceptor atom, score
      L1  H    16    39       P1 10175  0.86
      L1  C     6    27       P1  8028  1.00
      L1  C     6    27       P1  8029  0.03

> <Gold.PLP.Chemscore.Internal.Correction>
0.0947

> <Gold.Rescore>
     Score         DG    S(hbond)    S(metal)    S(lipo)     H(rot)  DE(clash)    DE(int)     intcor
     17.39     -18.14       0.97        0.00     137.30       2.59       0.20       0.54       ----

> <Gold.Chemscore.Fitness>
17.3905

> <Gold.Chemscore.DG>
-18.1373

> <Gold.Chemscore.ZeroCoef>
-5.4800

> <Gold.Chemscore.Hbond>
0.9688

> <Gold.Chemscore.Metal>
0.0000

> <Gold.Chemscore.Lipo>
137.2976

> <Gold.Chemscore.Internal_Hbond>
0.0000

> <Gold.Chemscore.DEClash>
0.2044

> <Gold.Chemscore.DEInternal>
0.5424

> <Gold.Chemscore.Rot>
2.5947

> <Gold.Chemscore.Internal.Correction>
   9.000000E+99

> <Gold.Chemscore.Hbonds>
donor molecule, donor type, donor heavy atom, donor atom, acceptor molecule, acceptor atom, score
      L1  H    16    39       P1 10175  0.85

> <Gold.Chemscore.Hbond.Weighted>
-3.2359

> <Gold.Chemscore.Metal.Weighted>
-0.0000

> <Gold.Chemscore.Lipo.Weighted>
-16.0638

> <Gold.Chemscore.Internal_Hbond.Weighted>
0.0000

> <Gold.Chemscore.DEClash.Weighted>
0.2044

> <Gold.Chemscore.DEInternal.Weighted>
0.5424

> <Gold.Chemscore.Rot.Weighted>
6.6424

> <Gold.Chemscore.Internal.Correction.Weighted>
   9.000000E+99

> <Gold.Protein.RotatedTorsions>
[ 6907 6896 6895 6894 ] final -145.52 input  -60.11 | X-H torsion
[ 7974 7965 7964 7962 ] final -145.86 input  175.53 | X-H torsion
[ 8008 7997 7996 7995 ] final   74.14 input   59.86 | X-H torsion
[ 10167 10162 10161 10158 ] final  -62.22 input  -65.29 | X-H torsion
[ 10718 10713 10712 10709 ] final    5.61 input   66.30 | X-H torsion
[ 10763 10752 10751 10750 ] final -117.28 input  -60.55 | X-H torsion
[ 11005 11000 10999 10996 ] final   51.16 input  -57.11 | X-H torsion

> <Gold.Protein.ActiveResidues>
 VAL166  LYS551  ARG553  GLY616  TRP617  ASP618  TYR619  PRO620  LYS621  CYS622 
 ASP623  PHE694  ASN695  SER759  ASP760  ASP761  ALA762  ILE779  LEU786  VAL792 
 PHE793  MET794  SER795  GLU796  ALA797  LYS798  CYS799  TRP800  GLU811  SER814 

> <Gold.Protein.RotatedAtoms>
  151.1290  133.5050  159.2599 H   0  0  0  0  0  0  0  0  0  0  0  0  # atno 6907 bound_to 6896
  151.1779  135.0347  159.8789 H   0  0  0  0  0  0  0  0  0  0  0  0  # atno 6908 bound_to 6896
  152.5459  134.1145  159.8426 H   0  0  0  0  0  0  0  0  0  0  0  0  # atno 6909 bound_to 6896
  144.8198  140.5529  143.5586 H   0  0  0  0  0  0  0  0  0  0  0  0  # atno 7974 bound_to 7965
  155.7940  140.3478  155.5365 H   0  0  0  0  0  0  0  0  0  0  0  0  # atno 8008 bound_to 7997
  155.8605  140.0970  157.1637 H   0  0  0  0  0  0  0  0  0  0  0  0  # atno 8009 bound_to 7997
  154.4011  140.1359  156.3942 H   0  0  0  0  0  0  0  0  0  0  0  0  # atno 8010 bound_to 7997
  140.5954  143.2350  151.6048 H   0  0  0  0  0  0  0  0  0  0  0  0  # atno 10167 bound_to 10162
  156.9099  130.5752  149.5647 H   0  0  0  0  0  0  0  0  0  0  0  0  # atno 10718 bound_to 10713
  154.8549  135.4315  154.1954 H   0  0  0  0  0  0  0  0  0  0  0  0  # atno 10763 bound_to 10752
  153.3013  135.6969  153.7206 H   0  0  0  0  0  0  0  0  0  0  0  0  # atno 10764 bound_to 10752
  153.6335  135.3480  155.3023 H   0  0  0  0  0  0  0  0  0  0  0  0  # atno 10765 bound_to 10752
  140.0956  134.5150  155.8810 H   0  0  0  0  0  0  0  0  0  0  0  0  # atno 11005 bound_to 11000
  145.5131  139.1478  143.3594 LP  0  0  0  0  0  0  0  0  0  0  0  0  # atno 17320 bound_to 7965
  146.2503  140.5271  142.8896 LP  0  0  0  0  0  0  0  0  0  0  0  0  # atno 17321 bound_to 7965
  139.5255  144.3074  152.1022 LP  0  0  0  0  0  0  0  0  0  0  0  0  # atno 17342 bound_to 10162
  140.2245  144.4432  150.6327 LP  0  0  0  0  0  0  0  0  0  0  0  0  # atno 17343 bound_to 10162
  156.0541  130.5605  150.9053 LP  0  0  0  0  0  0  0  0  0  0  0  0  # atno 17370 bound_to 10713
  157.5974  131.0942  150.9018 LP  0  0  0  0  0  0  0  0  0  0  0  0  # atno 17371 bound_to 10713
  141.2091  133.6680  156.6415 LP  0  0  0  0  0  0  0  0  0  0  0  0  # atno 17394 bound_to 11000
  140.3291  134.7943  157.4312 LP  0  0  0  0  0  0  0  0  0  0  0  0  # atno 17395 bound_to 11000

$$$$
