AV-unprocessed.smi:1550|AV-procd|sdf|6229|dock9
  -GOLD-   22720 6403D 1   1.00000     0.00000
 Structure written by MMmdl.
 42 43  0  0  0  0  0  0  0  0  2 V2000
  150.3310  139.2563  154.5688 C   0  0  0  0  0  0  0  0  0  0  0  0
  151.5928  139.6116  155.3690 C   0  0  1  0  0  0  0  0  0  0  0  0
  151.3794  140.8923  155.9574 O   0  0  0  0  0  0  0  0  0  0  0  0
  150.5344  140.9072  157.1027 C   0  0  0  0  0  0  0  0  0  0  0  0
  151.1370  141.8578  158.1447 C   0  0  2  0  0  0  0  0  0  0  0  0
  151.4148  143.2547  157.5558 C   0  0  0  0  0  0  0  0  0  0  0  0
  152.1017  144.1506  158.5931 C   0  0  0  0  0  0  0  0  0  0  0  0
  153.3467  143.4448  159.1404 C   0  0  0  0  0  0  0  0  0  0  0  0
  152.9857  142.0368  159.6394 C   0  0  0  0  0  0  0  0  0  0  0  0
  152.3693  141.2951  158.5915 O   0  0  0  0  0  0  0  0  0  0  0  0
  151.8761  138.5654  156.4592 C   0  0  0  0  0  0  0  0  0  0  0  0
  151.0659  137.6591  156.6535 O   0  0  0  0  0  0  0  0  0  0  0  0
  153.0286  138.7336  157.1363 N   0  0  0  0  0  0  0  0  0  0  0  0
  153.5310  138.0060  158.2278 C   0  0  0  0  0  0  0  0  0  0  0  0
  154.0340  138.5658  159.3627 C   0  0  0  0  0  0  0  0  0  0  0  0
  154.5671  137.7625  160.4562 C   0  0  0  0  0  0  0  0  0  0  0  0
  155.1379  138.3350  161.7407 C   0  0  0  0  0  0  0  0  0  0  0  0
  154.8930  139.6431  161.8105 F   0  0  0  0  0  0  0  0  0  0  0  0
  154.5708  137.7527  162.7967 F   0  0  0  0  0  0  0  0  0  0  0  0
  156.4558  138.1488  161.8144 F   0  0  0  0  0  0  0  0  0  0  0  0
  154.5091  136.4089  160.1908 C   0  0  0  0  0  0  0  0  0  0  0  0
  154.0375  135.7759  159.0942 N   0  5  0  0  0  0  0  0  0  0  0  0
  153.5387  136.5358  158.0784 C   0  0  0  0  0  0  0  0  0  0  0  0
  153.0987  136.0254  157.0476 O   0  0  0  0  0  0  0  0  0  0  0  0
  150.4222  138.2758  154.1003 H   0  0  0  0  0  0  0  0  0  0  0  0
  150.1589  139.9846  153.7763 H   0  0  0  0  0  0  0  0  0  0  0  0
  149.4432  139.2447  155.2024 H   0  0  0  0  0  0  0  0  0  0  0  0
  152.4349  139.6679  154.6761 H   0  0  0  0  0  0  0  0  0  0  0  0
  149.5181  141.2198  156.8597 H   0  0  0  0  0  0  0  0  0  0  0  0
  150.4767  139.8970  157.5106 H   0  0  0  0  0  0  0  0  0  0  0  0
  150.4464  141.9489  158.9851 H   0  0  0  0  0  0  0  0  0  0  0  0
  152.0530  143.1620  156.6759 H   0  0  0  0  0  0  0  0  0  0  0  0
  150.4860  143.7175  157.2208 H   0  0  0  0  0  0  0  0  0  0  0  0
  152.3710  145.1099  158.1505 H   0  0  0  0  0  0  0  0  0  0  0  0
  151.4106  144.3639  159.4095 H   0  0  0  0  0  0  0  0  0  0  0  0
  154.1002  143.3694  158.3552 H   0  0  0  0  0  0  0  0  0  0  0  0
  153.7901  144.0304  159.9461 H   0  0  0  0  0  0  0  0  0  0  0  0
  153.8853  141.5111  159.9602 H   0  0  0  0  0  0  0  0  0  0  0  0
  152.3215  142.0871  160.5035 H   0  0  0  0  0  0  0  0  0  0  0  0
  153.6408  139.4655  156.8064 H   0  0  0  0  0  0  0  0  0  0  0  0
  154.0747  139.6371  159.4740 H   0  0  0  0  0  0  0  0  0  0  0  0
  154.9047  135.7344  160.9799 H   0  0  0  0  0  0  0  0  0  0  0  0
  1  2  1  0  0  0  0
  1 25  1  0  0  0  0
  1 26  1  0  0  0  0
  1 27  1  0  0  0  0
  2  3  1  0  0  0  0
  2 11  1  0  0  0  0
  2 28  1  0  0  0  0
  3  4  1  0  0  0  0
  4  5  1  0  0  0  0
  4 29  1  0  0  0  0
  4 30  1  0  0  0  0
  5 10  1  0  0  0  0
  5  6  1  0  0  0  0
  5 31  1  0  0  0  0
  6  7  1  0  0  0  0
  6 32  1  0  0  0  0
  6 33  1  0  0  0  0
  7  8  1  0  0  0  0
  7 34  1  0  0  0  0
  7 35  1  0  0  0  0
  8  9  1  0  0  0  0
  8 36  1  0  0  0  0
  8 37  1  0  0  0  0
  9 10  1  0  0  0  0
  9 38  1  0  0  0  0
  9 39  1  0  0  0  0
 11 12  2  0  0  0  0
 11 13  1  0  0  0  0
 13 14  1  0  0  0  0
 13 40  1  0  0  0  0
 14 23  1  0  0  0  0
 14 15  2  0  0  0  0
 15 16  1  0  0  0  0
 15 41  1  0  0  0  0
 16 17  1  0  0  0  0
 16 21  2  0  0  0  0
 17 18  1  0  0  0  0
 17 19  1  0  0  0  0
 17 20  1  0  0  0  0
 21 22  1  0  0  0  0
 21 42  1  0  0  0  0
 22 23  1  0  0  0  0
 23 24  2  0  0  0  0
M  CHG  1  22  -1
M  END
> <s_m_source_file>
AV-unprocessed.smi

> <i_m_source_file_index>
1550

> <i_lp_mmshare_version>
43012

> <i_f3d_flags>
0

> <s_epik_input>
TzFbQ0gyXVtDSDJdW0NIMl1bQ0gyXVtDQEhdMVtDSDJdT1tDQEBIXShbQ0gzXSlDKD1PKVtOSF1jMltjSF1jKEMoRikoRilGKVtjSF1bbkhdYzI9Tw==

> <s_epik_cmdline>
J2VwaWtfcHl0aG9uJywgJy1waCcsICc3LjAnLCAnLXRuJywgJzgnLCAnLW1hJywgJzIwMCcsICctbWV0YWxfYmluZGluZycsICctaW1hZScsICc8aW5maWxlLm1hZT4nLCAnLW9tYWUnLCAnPG91dGZpbGUubWFlPic=

> <r_epik_Ionization_Penalty>
2.54933

> <r_epik_Ionization_Penalty_Charging>
0.0583423

> <r_epik_Ionization_Penalty_Neutral>
2.49099

> <r_epik_State_Penalty>
2.65532

> <r_epik_Charging_Adjusted_Penalty>
2.71366

> <i_epik_Tot_Q>
-1

> <i_epik_Tot_abs_Q>
1

> <r_epik_Metal_State_Penalty>
0.516364

> <b_epik_Metal_Only>
0

> <s_lp_Force_Field>
OPLS_2005

> <r_lp_Energy>
27.7266

> <b_lp_Chiralities_Consistent>
1

> <s_lp_Variant>
AV-unprocessed.smi:1550-6

> <Gold.Version>
5.8.1

> <Gold.Id.Protein>
6NUR|6NUR_protein|mol2

> <Gold.PLP.Fitness>
45.2562

> <Gold.PLP.PLP>
-38.5324

> <Gold.PLP.part.hbond>
-2.4417

> <Gold.PLP.part.metal>
0.0000

> <Gold.PLP.part.buried>
-3.9944

> <Gold.PLP.part.nonpolar>
-33.1694

> <Gold.PLP.part.repulsive>
0.9441

> <Gold.PLP.ligand.clash>
0.0000

> <Gold.PLP.ligand.torsion>
1.1592

> <Gold.PLP.Chemscore.Hbond>
3.0000

> <Gold.PLP.Chemscore.CHOScore>
0.0000

> <Gold.PLP.Chemscore.Metal>
0.0000

> <Gold.Chemscore.Hbonds>
donor molecule, donor type, donor heavy atom, donor atom, acceptor molecule, acceptor atom, score
      P1  H  6896  6907       L1    22  1.53
      P1  H 10752 10764       L1    24  1.00

> <Gold.PLP.Chemscore.Internal.Correction>
0.0423

> <Gold.Rescore>
     Score         DG    S(hbond)    S(metal)    S(lipo)     H(rot)  DE(clash)    DE(int)     intcor
     13.23     -17.00       1.22        0.00     103.60       1.82       0.04       3.73       ----

> <Gold.Chemscore.Fitness>
13.2310

> <Gold.Chemscore.DG>
-17.0038

> <Gold.Chemscore.ZeroCoef>
-5.4800

> <Gold.Chemscore.Hbond>
1.2187

> <Gold.Chemscore.Metal>
0.0000

> <Gold.Chemscore.Lipo>
103.6037

> <Gold.Chemscore.Internal_Hbond>
0.0000

> <Gold.Chemscore.DEClash>
0.0430

> <Gold.Chemscore.DEInternal>
3.7298

> <Gold.Chemscore.Rot>
1.8236

> <Gold.Chemscore.Internal.Correction>
   9.000000E+99

> <Gold.Chemscore.Hbonds>
donor molecule, donor type, donor heavy atom, donor atom, acceptor molecule, acceptor atom, score
      P1  H  6896  6907       L1    22  0.14
      P1  H 10752 10764       L1    24  1.00

> <Gold.Chemscore.Hbond.Weighted>
-4.0705

> <Gold.Chemscore.Metal.Weighted>
-0.0000

> <Gold.Chemscore.Lipo.Weighted>
-12.1216

> <Gold.Chemscore.Internal_Hbond.Weighted>
0.0000

> <Gold.Chemscore.DEClash.Weighted>
0.0430

> <Gold.Chemscore.DEInternal.Weighted>
3.7298

> <Gold.Chemscore.Rot.Weighted>
4.6684

> <Gold.Chemscore.Internal.Correction.Weighted>
   9.000000E+99

> <Gold.Protein.RotatedTorsions>
[ 6907 6896 6895 6894 ] final   63.65 input  -60.11 | X-H torsion
[ 7974 7965 7964 7962 ] final -104.15 input  175.53 | X-H torsion
[ 8008 7997 7996 7995 ] final   51.19 input   59.86 | X-H torsion
[ 10167 10162 10161 10158 ] final -143.11 input  -65.29 | X-H torsion
[ 10718 10713 10712 10709 ] final -146.15 input   66.30 | X-H torsion
[ 10763 10752 10751 10750 ] final   -4.36 input  -60.55 | X-H torsion
[ 11005 11000 10999 10996 ] final  -29.27 input  -57.11 | X-H torsion

> <Gold.Protein.ActiveResidues>
 VAL166  LYS551  ARG553  GLY616  TRP617  ASP618  TYR619  PRO620  LYS621  CYS622 
 ASP623  PHE694  ASN695  SER759  ASP760  ASP761  ALA762  ILE779  LEU786  VAL792 
 PHE793  MET794  SER795  GLU796  ALA797  LYS798  CYS799  TRP800  GLU811  SER814 

> <Gold.Protein.RotatedAtoms>
  152.4269  134.5851  159.9958 H   0  0  0  0  0  0  0  0  0  0  0  0  # atno 6907 bound_to 6896
  151.5984  133.3353  159.3050 H   0  0  0  0  0  0  0  0  0  0  0  0  # atno 6908 bound_to 6896
  150.8159  134.7378  159.6795 H   0  0  0  0  0  0  0  0  0  0  0  0  # atno 6909 bound_to 6896
  145.2468  140.9224  143.3118 H   0  0  0  0  0  0  0  0  0  0  0  0  # atno 7974 bound_to 7965
  155.4311  140.3450  155.4280 H   0  0  0  0  0  0  0  0  0  0  0  0  # atno 8008 bound_to 7997
  156.1336  140.1521  156.9060 H   0  0  0  0  0  0  0  0  0  0  0  0  # atno 8009 bound_to 7997
  154.4914  140.0840  156.7582 H   0  0  0  0  0  0  0  0  0  0  0  0  # atno 8010 bound_to 7997
  139.8024  143.7814  152.2659 H   0  0  0  0  0  0  0  0  0  0  0  0  # atno 10167 bound_to 10162
  156.3913  130.7887  151.2089 H   0  0  0  0  0  0  0  0  0  0  0  0  # atno 10718 bound_to 10713
  153.3839  135.6999  153.6545 H   0  0  0  0  0  0  0  0  0  0  0  0  # atno 10763 bound_to 10752
  153.5145  135.3625  155.2603 H   0  0  0  0  0  0  0  0  0  0  0  0  # atno 10764 bound_to 10752
  154.8695  135.4143  154.3142 H   0  0  0  0  0  0  0  0  0  0  0  0  # atno 10765 bound_to 10752
  140.9282  133.7355  156.0898 H   0  0  0  0  0  0  0  0  0  0  0  0  # atno 11005 bound_to 11000
  144.9539  139.4053  143.6389 LP  0  0  0  0  0  0  0  0  0  0  0  0  # atno 17320 bound_to 7965
  146.3313  139.8560  142.8864 LP  0  0  0  0  0  0  0  0  0  0  0  0  # atno 17321 bound_to 7965
  139.7939  144.7400  150.9917 LP  0  0  0  0  0  0  0  0  0  0  0  0  # atno 17342 bound_to 10162
  140.7820  143.4414  151.0546 LP  0  0  0  0  0  0  0  0  0  0  0  0  # atno 17343 bound_to 10162
  157.7499  131.0315  150.4183 LP  0  0  0  0  0  0  0  0  0  0  0  0  # atno 17370 bound_to 10713
  156.4445  130.3998  149.6676 LP  0  0  0  0  0  0  0  0  0  0  0  0  # atno 17371 bound_to 10713
  140.7898  134.3630  157.5467 LP  0  0  0  0  0  0  0  0  0  0  0  0  # atno 17394 bound_to 11000
  139.8790  134.9133  156.3081 LP  0  0  0  0  0  0  0  0  0  0  0  0  # atno 17395 bound_to 11000

$$$$
