AV-unprocessed.smi:3351|AV-procd|sdf|12950|dock9
  -GOLD-   2272019383D 1   1.00000     0.00000
 Structure written by MMmdl.
 34 35  0  0  0  0  0  0  0  0  1 V2000
  153.2371  140.9243  159.4550 C   0  0  0  0  0  0  0  0  0  0  0  0
  153.8875  141.9117  160.4379 C   0  0  1  0  0  0  0  0  0  0  0  0
  152.8922  142.9450  161.0087 C   0  0  0  0  0  0  0  0  0  0  0  0
  152.2963  143.7776  159.9808 N   0  0  0  0  0  0  0  0  0  0  0  0
  151.0247  144.3351  159.9903 C   0  0  0  0  0  0  0  0  0  0  0  0
  150.8954  145.0390  158.8143 C   0  0  0  0  0  0  0  0  0  0  0  0
  152.0660  144.9244  158.0681 N   0  0  0  0  0  0  0  0  0  0  0  0
  152.8476  144.1610  158.8209 C   0  0  0  0  0  0  0  0  0  0  0  0
  154.5133  141.1622  161.5238 N   0  0  0  0  0  0  0  0  0  0  0  0
  155.3491  140.1237  161.3706 C   0  0  0  0  0  0  0  0  0  0  0  0
  155.7032  139.6979  160.2704 O   0  0  0  0  0  0  0  0  0  0  0  0
  155.8836  139.4929  162.6625 C   0  0  0  0  0  0  0  0  0  0  0  0
  155.4618  138.1016  162.8352 N   0  0  0  0  0  0  0  0  0  0  0  0
  154.9523  137.6653  164.1294 C   0  0  0  0  0  0  0  0  0  0  0  0
  154.2715  136.3092  163.9339 C   0  0  0  0  0  0  0  0  0  0  0  0
  154.9655  135.5573  162.4487 S   0  0  0  0  0  0  0  0  0  0  0  0
  155.5927  137.1301  161.8513 C   0  0  0  0  0  0  0  0  0  0  0  0
  156.0614  137.2645  160.7224 O   0  0  0  0  0  0  0  0  0  0  0  0
  152.8437  141.4354  158.5761 H   0  0  0  0  0  0  0  0  0  0  0  0
  152.4138  140.3839  159.9227 H   0  0  0  0  0  0  0  0  0  0  0  0
  153.9611  140.1889  159.1026 H   0  0  0  0  0  0  0  0  0  0  0  0
  154.6681  142.4449  159.8917 H   0  0  0  0  0  0  0  0  0  0  0  0
  152.0930  142.4395  161.5529 H   0  0  0  0  0  0  0  0  0  0  0  0
  153.3900  143.6013  161.7239 H   0  0  0  0  0  0  0  0  0  0  0  0
  150.3376  144.1903  160.8112 H   0  0  0  0  0  0  0  0  0  0  0  0
  150.0563  145.6128  158.4498 H   0  0  0  0  0  0  0  0  0  0  0  0
  153.8465  143.8778  158.5230 H   0  0  0  0  0  0  0  0  0  0  0  0
  154.2811  141.4466  162.4646 H   0  0  0  0  0  0  0  0  0  0  0  0
  156.9725  139.5521  162.6484 H   0  0  0  0  0  0  0  0  0  0  0  0
  155.5551  140.0772  163.5238 H   0  0  0  0  0  0  0  0  0  0  0  0
  155.7949  137.5689  164.8153 H   0  0  0  0  0  0  0  0  0  0  0  0
  154.2608  138.3931  164.5556 H   0  0  0  0  0  0  0  0  0  0  0  0
  154.3930  135.6582  164.7997 H   0  0  0  0  0  0  0  0  0  0  0  0
  153.2026  136.4499  163.7702 H   0  0  0  0  0  0  0  0  0  0  0  0
  1  2  1  0  0  0  0
  1 19  1  0  0  0  0
  1 20  1  0  0  0  0
  1 21  1  0  0  0  0
  2  3  1  0  0  0  0
  2  9  1  0  0  0  0
  2 22  1  0  0  0  0
  3  4  1  0  0  0  0
  3 23  1  0  0  0  0
  3 24  1  0  0  0  0
  4  8  1  0  0  0  0
  4  5  1  0  0  0  0
  5  6  2  0  0  0  0
  5 25  1  0  0  0  0
  6  7  1  0  0  0  0
  6 26  1  0  0  0  0
  7  8  2  0  0  0  0
  8 27  1  0  0  0  0
  9 10  1  0  0  0  0
  9 28  1  0  0  0  0
 10 11  2  0  0  0  0
 10 12  1  0  0  0  0
 12 13  1  0  0  0  0
 12 29  1  0  0  0  0
 12 30  1  0  0  0  0
 13 17  1  0  0  0  0
 13 14  1  0  0  0  0
 14 15  1  0  0  0  0
 14 31  1  0  0  0  0
 14 32  1  0  0  0  0
 15 16  1  0  0  0  0
 15 33  1  0  0  0  0
 15 34  1  0  0  0  0
 16 17  1  0  0  0  0
 17 18  2  0  0  0  0
M  END
> <s_m_source_file>
AV-unprocessed.smi

> <i_m_source_file_index>
3351

> <i_lp_mmshare_version>
43012

> <i_f3d_flags>
0

> <s_epik_input>
W2NIXTFuW2NIXVtjSF1uMVtDSDJdW0NAQEhdKFtDSDNdKVtOSF1DKD1PKVtDSDJdTjJbQ0gyXVtDSDJdU0MyPU8=

> <s_epik_cmdline>
J2VwaWtfcHl0aG9uJywgJy1waCcsICc3LjAnLCAnLXRuJywgJzgnLCAnLW1hJywgJzIwMCcsICctbWV0YWxfYmluZGluZycsICctaW1hZScsICc8aW5maWxlLm1hZT4nLCAnLW9tYWUnLCAnPG91dGZpbGUubWFlPic=

> <r_lp_tautomer_probability>
1

> <r_epik_Ionization_Penalty>
0.618163

> <r_epik_Ionization_Penalty_Charging>
0.618163

> <r_epik_Ionization_Penalty_Neutral>
6.6929e-08

> <r_epik_State_Penalty>
0.633954

> <r_epik_Charging_Adjusted_Penalty>
1.25212

> <i_epik_Tot_Q>
0

> <i_epik_Tot_abs_Q>
0

> <r_epik_Metal_State_Penalty>
0.305924

> <b_epik_Metal_Only>
0

> <s_lp_Force_Field>
OPLS_2005

> <r_lp_Energy>
4.61171

> <b_lp_Chiralities_Consistent>
1

> <s_lp_Variant>
AV-unprocessed.smi:3351-4

> <Gold.Version>
5.8.1

> <Gold.Id.Protein>
6NUR|6NUR_protein|mol2

> <Gold.PLP.Fitness>
43.1460

> <Gold.PLP.PLP>
-41.2791

> <Gold.PLP.part.hbond>
-0.5370

> <Gold.PLP.part.metal>
0.0000

> <Gold.PLP.part.buried>
-4.8049

> <Gold.PLP.part.nonpolar>
-36.6333

> <Gold.PLP.part.repulsive>
0.1068

> <Gold.PLP.ligand.clash>
0.0000

> <Gold.PLP.ligand.torsion>
0.5870

> <Gold.PLP.Chemscore.Hbond>
0.0000

> <Gold.PLP.Chemscore.CHOScore>
1.0000

> <Gold.PLP.Chemscore.Metal>
0.0000

> <Gold.Chemscore.Hbonds>
donor molecule, donor type, donor heavy atom, donor atom, acceptor molecule, acceptor atom, score
      L1  C     6    26       P1  8029  1.00

> <Gold.PLP.Chemscore.Internal.Correction>
0.0408

> <Gold.Rescore>
     Score         DG    S(hbond)    S(metal)    S(lipo)     H(rot)  DE(clash)    DE(int)     intcor
      6.43      -9.29       0.00        0.00      83.62       2.33       0.08       2.78       ----

> <Gold.Chemscore.Fitness>
6.4262

> <Gold.Chemscore.DG>
-9.2942

> <Gold.Chemscore.ZeroCoef>
-5.4800

> <Gold.Chemscore.Hbond>
0.0000

> <Gold.Chemscore.Metal>
0.0000

> <Gold.Chemscore.Lipo>
83.6187

> <Gold.Chemscore.Internal_Hbond>
0.0000

> <Gold.Chemscore.DEClash>
0.0833

> <Gold.Chemscore.DEInternal>
2.7846

> <Gold.Chemscore.Rot>
2.3317

> <Gold.Chemscore.Internal.Correction>
   9.000000E+99

> <Gold.Chemscore.Hbond.Weighted>
-0.0000

> <Gold.Chemscore.Metal.Weighted>
-0.0000

> <Gold.Chemscore.Lipo.Weighted>
-9.7834

> <Gold.Chemscore.Internal_Hbond.Weighted>
0.0000

> <Gold.Chemscore.DEClash.Weighted>
0.0833

> <Gold.Chemscore.DEInternal.Weighted>
2.7846

> <Gold.Chemscore.Rot.Weighted>
5.9692

> <Gold.Chemscore.Internal.Correction.Weighted>
   9.000000E+99

> <Gold.Protein.RotatedTorsions>
[ 6907 6896 6895 6894 ] final -119.14 input  -60.11 | X-H torsion
[ 7974 7965 7964 7962 ] final   84.78 input  175.53 | X-H torsion
[ 8008 7997 7996 7995 ] final  -81.17 input   59.86 | X-H torsion
[ 10167 10162 10161 10158 ] final    8.64 input  -65.29 | X-H torsion
[ 10718 10713 10712 10709 ] final -133.56 input   66.30 | X-H torsion
[ 10763 10752 10751 10750 ] final  121.75 input  -60.55 | X-H torsion
[ 11005 11000 10999 10996 ] final  -13.50 input  -57.11 | X-H torsion

> <Gold.Protein.ActiveResidues>
 VAL166  LYS551  ARG553  GLY616  TRP617  ASP618  TYR619  PRO620  LYS621  CYS622 
 ASP623  PHE694  ASN695  SER759  ASP760  ASP761  ALA762  ILE779  LEU786  VAL792 
 PHE793  MET794  SER795  GLU796  ALA797  LYS798  CYS799  TRP800  GLU811  SER814 

> <Gold.Protein.RotatedAtoms>
  150.8279  133.8140  159.3110 H   0  0  0  0  0  0  0  0  0  0  0  0  # atno 6907 bound_to 6896
  151.5879  135.1053  160.0042 H   0  0  0  0  0  0  0  0  0  0  0  0  # atno 6908 bound_to 6896
  152.4362  133.7324  159.6651 H   0  0  0  0  0  0  0  0  0  0  0  0  # atno 6909 bound_to 6896
  145.5942  139.2342  143.2282 H   0  0  0  0  0  0  0  0  0  0  0  0  # atno 7974 bound_to 7965
  154.5956  140.0652  156.9299 H   0  0  0  0  0  0  0  0  0  0  0  0  # atno 8008 bound_to 7997
  155.2220  140.3331  155.4296 H   0  0  0  0  0  0  0  0  0  0  0  0  # atno 8009 bound_to 7997
  156.2285  140.1830  156.7287 H   0  0  0  0  0  0  0  0  0  0  0  0  # atno 8010 bound_to 7997
  140.6302  143.8010  150.7286 H   0  0  0  0  0  0  0  0  0  0  0  0  # atno 10167 bound_to 10162
  156.2462  130.7125  151.1006 H   0  0  0  0  0  0  0  0  0  0  0  0  # atno 10718 bound_to 10713
  153.6189  135.3417  155.3004 H   0  0  0  0  0  0  0  0  0  0  0  0  # atno 10763 bound_to 10752
  154.8604  135.4268  154.2228 H   0  0  0  0  0  0  0  0  0  0  0  0  # atno 10764 bound_to 10752
  153.3097  135.7030  153.7200 H   0  0  0  0  0  0  0  0  0  0  0  0  # atno 10765 bound_to 10752
  140.7768  133.8395  155.9256 H   0  0  0  0  0  0  0  0  0  0  0  0  # atno 11005 bound_to 11000
  146.1624  140.6768  142.9271 LP  0  0  0  0  0  0  0  0  0  0  0  0  # atno 17320 bound_to 7965
  144.7338  140.4749  143.6919 LP  0  0  0  0  0  0  0  0  0  0  0  0  # atno 17321 bound_to 7965
  140.1620  143.4267  152.2060 LP  0  0  0  0  0  0  0  0  0  0  0  0  # atno 17342 bound_to 10162
  139.5517  144.7343  151.4414 LP  0  0  0  0  0  0  0  0  0  0  0  0  # atno 17343 bound_to 10162
  157.7196  131.0689  150.6190 LP  0  0  0  0  0  0  0  0  0  0  0  0  # atno 17370 bound_to 10713
  156.6267  130.4420  149.5802 LP  0  0  0  0  0  0  0  0  0  0  0  0  # atno 17371 bound_to 10713
  140.9521  134.1765  157.4719 LP  0  0  0  0  0  0  0  0  0  0  0  0  # atno 17394 bound_to 11000
  139.8748  134.9913  156.5543 LP  0  0  0  0  0  0  0  0  0  0  0  0  # atno 17395 bound_to 11000

$$$$
