AV-unprocessed.smi:3284|AV-procd|sdf|12578|dock2
  -GOLD-   2272018503D 1   1.00000     0.00000
 Structure written by MMmdl.
 45 46  0  0  0  0  0  0  0  0  3 V2000
  146.7192  130.2159  152.7919 C   0  0  0  0  0  0  0  0  0  0  0  0
  146.2025  131.3835  151.9675 C   0  0  0  0  0  0  0  0  0  0  0  0
  145.4300  131.1506  150.8892 C   0  0  0  0  0  0  0  0  0  0  0  0
  144.8016  132.2325  150.0420 C   0  0  0  0  0  0  0  0  0  0  0  0
  144.7081  133.5491  150.8166 C   0  0  0  0  0  0  0  0  0  0  0  0
  146.0545  133.9172  151.4613 C   0  0  1  0  0  0  0  0  0  0  0  0
  145.9326  135.2887  152.1534 C   0  0  0  0  0  0  0  0  0  0  0  0
  146.5767  132.8081  152.4264 C   0  0  2  0  0  0  0  0  0  0  0  0
  148.1015  132.9801  152.6557 C   0  0  0  0  0  0  0  0  0  0  0  0
  148.4279  134.1391  153.5120 N   0  3  0  0  0  0  0  0  0  0  0  0
  149.5957  133.9296  154.3901 C   0  0  0  0  0  0  0  0  0  0  0  0
  149.6293  134.9654  155.5223 C   0  0  0  0  0  0  0  0  0  0  0  0
  150.4303  136.1826  155.1740 C   0  0  0  0  0  0  0  0  0  0  0  0
  150.2491  136.9528  154.0941 N   0  3  0  0  0  0  0  0  0  0  0  0
  151.1619  137.9725  154.0765 C   0  0  0  0  0  0  0  0  0  0  0  0
  151.9392  137.8158  155.1940 C   0  0  0  0  0  0  0  0  0  0  0  0
  151.4683  136.7061  155.8480 N   0  0  0  0  0  0  0  0  0  0  0  0
  151.9872  136.1456  157.0977 C   0  0  0  0  0  0  0  0  0  0  0  0
  146.4991  130.3664  153.8490 H   0  0  0  0  0  0  0  0  0  0  0  0
  147.7947  130.0943  152.6654 H   0  0  0  0  0  0  0  0  0  0  0  0
  146.2499  129.2793  152.4886 H   0  0  0  0  0  0  0  0  0  0  0  0
  145.2130  130.1352  150.5901 H   0  0  0  0  0  0  0  0  0  0  0  0
  145.3937  132.3556  149.1346 H   0  0  0  0  0  0  0  0  0  0  0  0
  143.8051  131.9139  149.7351 H   0  0  0  0  0  0  0  0  0  0  0  0
  144.3769  134.3413  150.1440 H   0  0  0  0  0  0  0  0  0  0  0  0
  143.9439  133.4626  151.5907 H   0  0  0  0  0  0  0  0  0  0  0  0
  146.7731  134.0211  150.6465 H   0  0  0  0  0  0  0  0  0  0  0  0
  145.2280  135.2500  152.9849 H   0  0  0  0  0  0  0  0  0  0  0  0
  145.5731  136.0462  151.4561 H   0  0  0  0  0  0  0  0  0  0  0  0
  146.8847  135.6449  152.5436 H   0  0  0  0  0  0  0  0  0  0  0  0
  146.0678  132.9475  153.3817 H   0  0  0  0  0  0  0  0  0  0  0  0
  148.5086  132.0689  153.0968 H   0  0  0  0  0  0  0  0  0  0  0  0
  148.6288  133.1241  151.7138 H   0  0  0  0  0  0  0  0  0  0  0  0
  148.6014  134.9373  152.9177 H   0  0  0  0  0  0  0  0  0  0  0  0
  149.5507  132.9218  154.8050 H   0  0  0  0  0  0  0  0  0  0  0  0
  150.5092  133.9942  153.7972 H   0  0  0  0  0  0  0  0  0  0  0  0
  148.6221  135.3069  155.7646 H   0  0  0  0  0  0  0  0  0  0  0  0
  150.0532  134.5414  156.4331 H   0  0  0  0  0  0  0  0  0  0  0  0
  151.1896  138.7137  153.2906 H   0  0  0  0  0  0  0  0  0  0  0  0
  152.7718  138.3983  155.5621 H   0  0  0  0  0  0  0  0  0  0  0  0
  152.8945  136.6766  157.3876 H   0  0  0  0  0  0  0  0  0  0  0  0
  152.2193  135.0898  156.9564 H   0  0  0  0  0  0  0  0  0  0  0  0
  151.2374  136.2590  157.8813 H   0  0  0  0  0  0  0  0  0  0  0  0
  147.6241  134.3373  154.0913 H   0  0  0  0  0  0  0  0  0  0  0  0
  149.5350  136.8048  153.3919 H   0  0  0  0  0  0  0  0  0  0  0  0
  1  2  1  0  0  0  0
  1 19  1  0  0  0  0
  1 20  1  0  0  0  0
  1 21  1  0  0  0  0
  2  8  1  0  0  0  0
  2  3  2  0  0  0  0
  3  4  1  0  0  0  0
  3 22  1  0  0  0  0
  4  5  1  0  0  0  0
  4 23  1  0  0  0  0
  4 24  1  0  0  0  0
  5  6  1  0  0  0  0
  5 25  1  0  0  0  0
  5 26  1  0  0  0  0
  6  7  1  0  0  0  0
  6  8  1  0  0  0  0
  6 27  1  0  0  0  0
  7 28  1  0  0  0  0
  7 29  1  0  0  0  0
  7 30  1  0  0  0  0
  8  9  1  0  0  0  0
  8 31  1  0  0  0  0
  9 10  1  0  0  0  0
  9 32  1  0  0  0  0
  9 33  1  0  0  0  0
 10 11  1  0  0  0  0
 10 34  1  0  0  0  0
 10 44  1  0  0  0  0
 11 12  1  0  0  0  0
 11 35  1  0  0  0  0
 11 36  1  0  0  0  0
 12 13  1  0  0  0  0
 12 37  1  0  0  0  0
 12 38  1  0  0  0  0
 13 17  1  0  0  0  0
 13 14  2  0  0  0  0
 14 15  1  0  0  0  0
 14 45  1  0  0  0  0
 15 16  2  0  0  0  0
 15 39  1  0  0  0  0
 16 17  1  0  0  0  0
 16 40  1  0  0  0  0
 17 18  1  0  0  0  0
 18 41  1  0  0  0  0
 18 42  1  0  0  0  0
 18 43  1  0  0  0  0
M  CHG  1  10   1
M  CHG  1  14   1
M  END
> <s_m_source_file>
AV-unprocessed.smi

> <i_m_source_file_index>
3284

> <i_lp_mmshare_version>
43012

> <i_f3d_flags>
0

> <s_epik_input>
W0NIM11DMT1bQ0hdW0NIMl1bQ0gyXVtDQEBIXShbQ0gzXSlbQ0BIXTFbQ0gyXVtOSF1bQ0gyXVtDSDJdYzJuW2NIXVtjSF1uMltDSDNd

> <s_epik_cmdline>
J2VwaWtfcHl0aG9uJywgJy1waCcsICc3LjAnLCAnLXRuJywgJzgnLCAnLW1hJywgJzIwMCcsICctbWV0YWxfYmluZGluZycsICctaW1hZScsICc8aW5maWxlLm1hZT4nLCAnLW9tYWUnLCAnPG91dGZpbGUubWFlPic=

> <r_lp_tautomer_probability>
1

> <r_epik_Ionization_Penalty>
0.892846

> <r_epik_Ionization_Penalty_Charging>
0.00275802

> <r_epik_Ionization_Penalty_Neutral>
0.890088

> <r_epik_State_Penalty>
0.485211

> <r_epik_Charging_Adjusted_Penalty>
0.487969

> <i_epik_Tot_Q>
2

> <i_epik_Tot_abs_Q>
2

> <r_epik_Metal_State_Penalty>
4.22898

> <b_epik_Metal_Only>
0

> <s_lp_Force_Field>
OPLS_2005

> <r_lp_Energy>
22.9484

> <b_lp_Chiralities_Consistent>
1

> <s_lp_Variant>
AV-unprocessed.smi:3284-7

> <Gold.Version>
5.8.1

> <Gold.Id.Protein>
6NUR|6NUR_protein|mol2

> <Gold.PLP.Fitness>
46.7066

> <Gold.PLP.PLP>
-36.0184

> <Gold.PLP.part.hbond>
-3.0000

> <Gold.PLP.part.metal>
0.0000

> <Gold.PLP.part.buried>
-4.0489

> <Gold.PLP.part.nonpolar>
-28.9805

> <Gold.PLP.part.repulsive>
0.0437

> <Gold.PLP.ligand.clash>
0.0000

> <Gold.PLP.ligand.torsion>
0.6681

> <Gold.PLP.Chemscore.Hbond>
3.9840

> <Gold.PLP.Chemscore.CHOScore>
0.0000

> <Gold.PLP.Chemscore.Metal>
0.0000

> <Gold.Chemscore.Hbonds>
donor molecule, donor type, donor heavy atom, donor atom, acceptor molecule, acceptor atom, score
      L1  H    10    34       P1  7948  2.00
      L1  H    14    45       P1  7948  2.00

> <Gold.PLP.Chemscore.Internal.Correction>
0.0724

> <Gold.Rescore>
     Score         DG    S(hbond)    S(metal)    S(lipo)     H(rot)  DE(clash)    DE(int)     intcor
     16.93     -17.72       1.69        0.00      93.60       1.70       0.10       0.69       ----

> <Gold.Chemscore.Fitness>
16.9256

> <Gold.Chemscore.DG>
-17.7183

> <Gold.Chemscore.ZeroCoef>
-5.4800

> <Gold.Chemscore.Hbond>
1.6882

> <Gold.Chemscore.Metal>
0.0000

> <Gold.Chemscore.Lipo>
93.5988

> <Gold.Chemscore.Internal_Hbond>
0.0000

> <Gold.Chemscore.DEClash>
0.0998

> <Gold.Chemscore.DEInternal>
0.6929

> <Gold.Chemscore.Rot>
1.6997

> <Gold.Chemscore.Internal.Correction>
   9.000000E+99

> <Gold.Chemscore.Hbonds>
donor molecule, donor type, donor heavy atom, donor atom, acceptor molecule, acceptor atom, score
      L1  H    10    34       P1  7948  0.45
      L1  H    14    45       P1  7948  0.72

> <Gold.Chemscore.Hbond.Weighted>
-5.6385

> <Gold.Chemscore.Metal.Weighted>
-0.0000

> <Gold.Chemscore.Lipo.Weighted>
-10.9511

> <Gold.Chemscore.Internal_Hbond.Weighted>
0.0000

> <Gold.Chemscore.DEClash.Weighted>
0.0998

> <Gold.Chemscore.DEInternal.Weighted>
0.6929

> <Gold.Chemscore.Rot.Weighted>
4.3512

> <Gold.Chemscore.Internal.Correction.Weighted>
   9.000000E+99

> <Gold.Protein.RotatedTorsions>
[ 6907 6896 6895 6894 ] final   -8.88 input  -60.11 | X-H torsion
[ 7974 7965 7964 7962 ] final  -31.99 input  175.53 | X-H torsion
[ 8008 7997 7996 7995 ] final   43.85 input   59.86 | X-H torsion
[ 10167 10162 10161 10158 ] final  -55.66 input  -65.29 | X-H torsion
[ 10718 10713 10712 10709 ] final  -71.43 input   66.30 | X-H torsion
[ 10763 10752 10751 10750 ] final -132.13 input  -60.55 | X-H torsion
[ 11005 11000 10999 10996 ] final   93.29 input  -57.11 | X-H torsion

> <Gold.Protein.ActiveResidues>
 VAL166  LYS551  ARG553  GLY616  TRP617  ASP618  TYR619  PRO620  LYS621  CYS622 
 ASP623  PHE694  ASN695  SER759  ASP760  ASP761  ALA762  ILE779  LEU786  VAL792 
 PHE793  MET794  SER795  GLU796  ALA797  LYS798  CYS799  TRP800  GLU811  SER814 

> <Gold.Protein.RotatedAtoms>
  151.4266  135.1004  159.9629 H   0  0  0  0  0  0  0  0  0  0  0  0  # atno 6907 bound_to 6896
  152.4970  133.8657  159.7283 H   0  0  0  0  0  0  0  0  0  0  0  0  # atno 6908 bound_to 6896
  150.9185  133.6851  159.2865 H   0  0  0  0  0  0  0  0  0  0  0  0  # atno 6909 bound_to 6896
  146.1025  140.5736  142.8814 H   0  0  0  0  0  0  0  0  0  0  0  0  # atno 7974 bound_to 7965
  155.3095  140.3390  155.4244 H   0  0  0  0  0  0  0  0  0  0  0  0  # atno 8008 bound_to 7997
  156.1962  140.1716  156.8030 H   0  0  0  0  0  0  0  0  0  0  0  0  # atno 8009 bound_to 7997
  154.5502  140.0707  156.8639 H   0  0  0  0  0  0  0  0  0  0  0  0  # atno 8010 bound_to 7997
  140.6362  143.2483  151.5112 H   0  0  0  0  0  0  0  0  0  0  0  0  # atno 10167 bound_to 10162
  156.0363  130.4351  150.2443 H   0  0  0  0  0  0  0  0  0  0  0  0  # atno 10718 bound_to 10713
  154.8745  135.3807  154.4360 H   0  0  0  0  0  0  0  0  0  0  0  0  # atno 10763 bound_to 10752
  153.5049  135.7030  153.5817 H   0  0  0  0  0  0  0  0  0  0  0  0  # atno 10764 bound_to 10752
  153.4132  135.3919  155.2030 H   0  0  0  0  0  0  0  0  0  0  0  0  # atno 10765 bound_to 10752
  139.8812  134.8781  156.3696 H   0  0  0  0  0  0  0  0  0  0  0  0  # atno 11005 bound_to 11000
  144.7444  140.5029  143.6846 LP  0  0  0  0  0  0  0  0  0  0  0  0  # atno 17320 bound_to 7965
  145.5826  139.1490  143.3227 LP  0  0  0  0  0  0  0  0  0  0  0  0  # atno 17321 bound_to 7965
  139.5572  144.2245  152.1632 LP  0  0  0  0  0  0  0  0  0  0  0  0  # atno 17342 bound_to 10162
  140.1502  144.5121  150.6692 LP  0  0  0  0  0  0  0  0  0  0  0  0  # atno 17343 bound_to 10162
  157.0542  131.0071  151.3244 LP  0  0  0  0  0  0  0  0  0  0  0  0  # atno 17370 bound_to 10713
  157.5118  130.7943  149.7713 LP  0  0  0  0  0  0  0  0  0  0  0  0  # atno 17371 bound_to 10713
  140.9473  133.7474  156.0226 LP  0  0  0  0  0  0  0  0  0  0  0  0  # atno 17394 bound_to 11000
  140.8147  134.3358  157.5401 LP  0  0  0  0  0  0  0  0  0  0  0  0  # atno 17395 bound_to 11000

$$$$
