AV-unprocessed.smi:2144|AV-procd|sdf|8730|dock10
  -GOLD-   2272011503D 1   1.00000     0.00000
 Structure written by MMmdl.
 40 42  0  0  0  0  0  0  0  0  1 V2000
  153.3642  139.6708  155.0797 O   0  0  0  0  0  0  0  0  0  0  0  0
  152.2516  139.0089  155.6403 C   0  0  0  0  0  0  0  0  0  0  0  0
  150.9724  139.7706  155.4694 C   0  0  0  0  0  0  0  0  0  0  0  0
  150.3563  139.8433  154.2889 N   0  0  0  0  0  0  0  0  0  0  0  0
  149.2366  140.5987  154.5746 C   0  0  0  0  0  0  0  0  0  0  0  0
  148.1777  141.0230  153.7402 C   0  0  0  0  0  0  0  0  0  0  0  0
  147.1197  141.7934  154.2656 C   0  0  0  0  0  0  0  0  0  0  0  0
  147.1048  142.1488  155.6298 C   0  0  0  0  0  0  0  0  0  0  0  0
  148.1511  141.7379  156.4778 C   0  0  0  0  0  0  0  0  0  0  0  0
  149.2067  140.9718  155.9477 C   0  0  0  0  0  0  0  0  0  0  0  0
  150.3640  140.4240  156.4934 N   0  0  0  0  0  0  0  0  0  0  0  0
  150.7838  140.5361  157.8852 C   0  0  0  0  0  0  0  0  0  0  0  0
  150.3933  141.8869  158.5198 C   0  0  2  0  0  0  0  0  0  0  0  0
  151.0240  142.9466  157.8299 O   0  0  0  0  0  0  0  0  0  0  0  0
  150.7860  141.9706  160.0017 C   0  0  0  0  0  0  0  0  0  0  0  0
  152.0143  141.2801  160.1883 O   0  0  0  0  0  0  0  0  0  0  0  0
  152.3673  140.9044  161.4668 C   0  0  0  0  0  0  0  0  0  0  0  0
  151.9404  141.5773  162.6402 C   0  0  0  0  0  0  0  0  0  0  0  0
  152.3486  141.1251  163.9102 C   0  0  0  0  0  0  0  0  0  0  0  0
  153.1848  139.9994  164.0246 C   0  0  0  0  0  0  0  0  0  0  0  0
  153.6135  139.3259  162.8662 C   0  0  0  0  0  0  0  0  0  0  0  0
  153.2064  139.7769  161.5959 C   0  0  0  0  0  0  0  0  0  0  0  0
  153.6261  139.1195  160.4884 F   0  0  0  0  0  0  0  0  0  0  0  0
  153.0521  140.2963  154.4441 H   0  0  0  0  0  0  0  0  0  0  0  0
  152.1553  138.0334  155.1626 H   0  0  0  0  0  0  0  0  0  0  0  0
  152.4305  138.8158  156.6979 H   0  0  0  0  0  0  0  0  0  0  0  0
  148.1789  140.7532  152.6945 H   0  0  0  0  0  0  0  0  0  0  0  0
  146.3152  142.1117  153.6188 H   0  0  0  0  0  0  0  0  0  0  0  0
  146.2895  142.7369  156.0252 H   0  0  0  0  0  0  0  0  0  0  0  0
  148.1418  142.0078  157.5233 H   0  0  0  0  0  0  0  0  0  0  0  0
  150.3191  139.7183  158.4372 H   0  0  0  0  0  0  0  0  0  0  0  0
  151.8585  140.3807  157.9665 H   0  0  0  0  0  0  0  0  0  0  0  0
  149.3172  142.0394  158.4330 H   0  0  0  0  0  0  0  0  0  0  0  0
  151.7145  142.5864  157.2942 H   0  0  0  0  0  0  0  0  0  0  0  0
  150.8763  143.0147  160.3061 H   0  0  0  0  0  0  0  0  0  0  0  0
  150.0127  141.5039  160.6145 H   0  0  0  0  0  0  0  0  0  0  0  0
  151.2979  142.4433  162.5936 H   0  0  0  0  0  0  0  0  0  0  0  0
  152.0187  141.6435  164.7983 H   0  0  0  0  0  0  0  0  0  0  0  0
  153.4966  139.6535  164.9992 H   0  0  0  0  0  0  0  0  0  0  0  0
  154.2557  138.4616  162.9512 H   0  0  0  0  0  0  0  0  0  0  0  0
  1  2  1  0  0  0  0
  1 24  1  0  0  0  0
  2  3  1  0  0  0  0
  2 25  1  0  0  0  0
  2 26  1  0  0  0  0
  3 11  1  0  0  0  0
  3  4  2  0  0  0  0
  4  5  1  0  0  0  0
  5 10  2  0  0  0  0
  5  6  1  0  0  0  0
  6  7  2  0  0  0  0
  6 27  1  0  0  0  0
  7  8  1  0  0  0  0
  7 28  1  0  0  0  0
  8  9  2  0  0  0  0
  8 29  1  0  0  0  0
  9 10  1  0  0  0  0
  9 30  1  0  0  0  0
 10 11  1  0  0  0  0
 11 12  1  0  0  0  0
 12 13  1  0  0  0  0
 12 31  1  0  0  0  0
 12 32  1  0  0  0  0
 13 14  1  0  0  0  0
 13 15  1  0  0  0  0
 13 33  1  0  0  0  0
 14 34  1  0  0  0  0
 15 16  1  0  0  0  0
 15 35  1  0  0  0  0
 15 36  1  0  0  0  0
 16 17  1  0  0  0  0
 17 22  1  0  0  0  0
 17 18  2  0  0  0  0
 18 19  1  0  0  0  0
 18 37  1  0  0  0  0
 19 20  2  0  0  0  0
 19 38  1  0  0  0  0
 20 21  1  0  0  0  0
 20 39  1  0  0  0  0
 21 22  2  0  0  0  0
 21 40  1  0  0  0  0
 22 23  1  0  0  0  0
M  END
> <s_m_source_file>
AV-unprocessed.smi

> <i_m_source_file_index>
2144

> <i_lp_mmshare_version>
43012

> <i_f3d_flags>
0

> <s_epik_input>
W2NIXTFbY0hdW2NIXVtjSF1jKGMxMiluKGMobjIpW0NIMl1bT0hdKVtDSDJdW0NASF0oW09IXSlbQ0gyXU9jM1tjSF1bY0hdW2NIXVtjSF1jM0Y=

> <s_epik_cmdline>
J2VwaWtfcHl0aG9uJywgJy1waCcsICc3LjAnLCAnLXRuJywgJzgnLCAnLW1hJywgJzIwMCcsICctbWV0YWxfYmluZGluZycsICctaW1hZScsICc8aW5maWxlLm1hZT4nLCAnLW9tYWUnLCAnPG91dGZpbGUubWFlPic=

> <r_lp_tautomer_probability>
1

> <r_epik_Ionization_Penalty>
0.0547315

> <r_epik_Ionization_Penalty_Charging>
0

> <r_epik_Ionization_Penalty_Neutral>
0.0547315

> <r_epik_State_Penalty>
0.047032

> <r_epik_Charging_Adjusted_Penalty>
0.047032

> <i_epik_Tot_Q>
0

> <i_epik_Tot_abs_Q>
0

> <r_epik_Metal_State_Penalty>
4.89471e-05

> <b_epik_Metal_Only>
0

> <s_lp_Force_Field>
OPLS_2005

> <r_lp_Energy>
15.0425

> <b_lp_Chiralities_Consistent>
1

> <s_lp_Variant>
AV-unprocessed.smi:2144-1

> <Gold.Version>
5.8.1

> <Gold.Id.Protein>
6NUR|6NUR_protein|mol2

> <Gold.PLP.Fitness>
53.9082

> <Gold.PLP.PLP>
-53.3998

> <Gold.PLP.part.hbond>
-4.0000

> <Gold.PLP.part.metal>
0.0000

> <Gold.PLP.part.buried>
3.1317

> <Gold.PLP.part.nonpolar>
-51.7066

> <Gold.PLP.part.repulsive>
0.7038

> <Gold.PLP.ligand.clash>
0.0000

> <Gold.PLP.ligand.torsion>
1.2582

> <Gold.PLP.Chemscore.Hbond>
1.0000

> <Gold.PLP.Chemscore.CHOScore>
0.0000

> <Gold.PLP.Chemscore.Metal>
0.0000

> <Gold.Chemscore.Hbonds>
donor molecule, donor type, donor heavy atom, donor atom, acceptor molecule, acceptor atom, score
      P1  H  7989  7998       L1     4  0.80
      P1  H  7997  8010       L1     1  0.84

> <Gold.PLP.Chemscore.Internal.Correction>
0.0248

> <Gold.Rescore>
     Score         DG    S(hbond)    S(metal)    S(lipo)     H(rot)  DE(clash)    DE(int)     intcor
     12.10     -14.08       0.64        0.00     125.64       3.22       0.81       1.17       ----

> <Gold.Chemscore.Fitness>
12.1001

> <Gold.Chemscore.DG>
-14.0808

> <Gold.Chemscore.ZeroCoef>
-5.4800

> <Gold.Chemscore.Hbond>
0.6415

> <Gold.Chemscore.Metal>
0.0000

> <Gold.Chemscore.Lipo>
125.6444

> <Gold.Chemscore.Internal_Hbond>
0.0000

> <Gold.Chemscore.DEClash>
0.8107

> <Gold.Chemscore.DEInternal>
1.1700

> <Gold.Chemscore.Rot>
3.2196

> <Gold.Chemscore.Internal.Correction>
   9.000000E+99

> <Gold.Chemscore.Hbonds>
donor molecule, donor type, donor heavy atom, donor atom, acceptor molecule, acceptor atom, score
      P1  H  7989  7998       L1     4  0.09
      P1  H  7997  8010       L1     1  0.72

> <Gold.Chemscore.Hbond.Weighted>
-2.1426

> <Gold.Chemscore.Metal.Weighted>
-0.0000

> <Gold.Chemscore.Lipo.Weighted>
-14.7004

> <Gold.Chemscore.Internal_Hbond.Weighted>
0.0000

> <Gold.Chemscore.DEClash.Weighted>
0.8107

> <Gold.Chemscore.DEInternal.Weighted>
1.1700

> <Gold.Chemscore.Rot.Weighted>
8.2422

> <Gold.Chemscore.Internal.Correction.Weighted>
   9.000000E+99

> <Gold.Protein.RotatedTorsions>
[ 6907 6896 6895 6894 ] final  -57.36 input  -60.11 | X-H torsion
[ 7974 7965 7964 7962 ] final   64.50 input  175.53 | X-H torsion
[ 8008 7997 7996 7995 ] final   97.48 input   59.86 | X-H torsion
[ 10167 10162 10161 10158 ] final  131.54 input  -65.29 | X-H torsion
[ 10718 10713 10712 10709 ] final   56.67 input   66.30 | X-H torsion
[ 10763 10752 10751 10750 ] final  129.21 input  -60.55 | X-H torsion
[ 11005 11000 10999 10996 ] final -105.25 input  -57.11 | X-H torsion

> <Gold.Protein.ActiveResidues>
 VAL166  LYS551  ARG553  GLY616  TRP617  ASP618  TYR619  PRO620  LYS621  CYS622 
 ASP623  PHE694  ASN695  SER759  ASP760  ASP761  ALA762  ILE779  LEU786  VAL792 
 PHE793  MET794  SER795  GLU796  ALA797  LYS798  CYS799  TRP800  GLU811  SER814 

> <Gold.Protein.RotatedAtoms>
  150.8092  134.7237  159.6672 H   0  0  0  0  0  0  0  0  0  0  0  0  # atno 6907 bound_to 6896
  152.4212  134.5948  159.9994 H   0  0  0  0  0  0  0  0  0  0  0  0  # atno 6908 bound_to 6896
  151.6163  133.3305  159.3114 H   0  0  0  0  0  0  0  0  0  0  0  0  # atno 6909 bound_to 6896
  145.8495  139.3245  143.0883 H   0  0  0  0  0  0  0  0  0  0  0  0  # atno 7974 bound_to 7965
  156.0905  140.3258  155.7810 H   0  0  0  0  0  0  0  0  0  0  0  0  # atno 8008 bound_to 7997
  155.5004  140.0568  157.2957 H   0  0  0  0  0  0  0  0  0  0  0  0  # atno 8009 bound_to 7997
  154.4635  140.1978  156.0197 H   0  0  0  0  0  0  0  0  0  0  0  0  # atno 8010 bound_to 7997
  139.5379  144.6701  151.4722 H   0  0  0  0  0  0  0  0  0  0  0  0  # atno 10167 bound_to 10162
  157.5451  130.8725  149.8879 H   0  0  0  0  0  0  0  0  0  0  0  0  # atno 10718 bound_to 10713
  153.7380  135.3228  155.3299 H   0  0  0  0  0  0  0  0  0  0  0  0  # atno 10763 bound_to 10752
  154.8304  135.4538  154.1055 H   0  0  0  0  0  0  0  0  0  0  0  0  # atno 10764 bound_to 10752
  153.2221  135.6949  153.8069 H   0  0  0  0  0  0  0  0  0  0  0  0  # atno 10765 bound_to 10752
  141.1062  133.8792  157.1711 H   0  0  0  0  0  0  0  0  0  0  0  0  # atno 11005 bound_to 11000
  145.9373  140.9005  143.0325 LP  0  0  0  0  0  0  0  0  0  0  0  0  # atno 17320 bound_to 7965
  144.6730  140.1501  143.7430 LP  0  0  0  0  0  0  0  0  0  0  0  0  # atno 17321 bound_to 7965
  140.6595  143.8528  150.6872 LP  0  0  0  0  0  0  0  0  0  0  0  0  # atno 17342 bound_to 10162
  140.1918  143.4030  152.1857 LP  0  0  0  0  0  0  0  0  0  0  0  0  # atno 17343 bound_to 10162
  156.0528  130.3714  150.1160 LP  0  0  0  0  0  0  0  0  0  0  0  0  # atno 17370 bound_to 10713
  156.9337  130.9722  151.3528 LP  0  0  0  0  0  0  0  0  0  0  0  0  # atno 17371 bound_to 10713
  139.9934  135.0056  157.0026 LP  0  0  0  0  0  0  0  0  0  0  0  0  # atno 17394 bound_to 11000
  140.4895  134.1207  155.7230 LP  0  0  0  0  0  0  0  0  0  0  0  0  # atno 17395 bound_to 11000

$$$$
