AV-unprocessed.smi:1005|AV-procd|sdf|4379|dock7
  -GOLD-   22720 2303D 1   1.00000     0.00000
 Structure written by MMmdl.
 58 60  0  0  0  0  0  0  0  0  4 V2000
  152.3787  143.6891  161.1636 C   0  0  0  0  0  0  0  0  0  0  0  0
  152.1153  142.8636  159.9154 C   0  0  0  0  0  0  0  0  0  0  0  0
  151.1476  143.3237  158.9944 C   0  0  0  0  0  0  0  0  0  0  0  0
  150.9323  142.5494  157.8605 C   0  0  0  0  0  0  0  0  0  0  0  0
  150.0638  142.7299  156.7823 N   0  3  0  0  0  0  0  0  0  0  0  0
  150.2105  141.7010  155.9026 C   0  0  0  0  0  0  0  0  0  0  0  0
  151.1637  140.8666  156.4006 N   0  0  0  0  0  0  0  0  0  0  0  0
  151.6952  139.6125  155.8457 C   0  0  0  0  0  0  0  0  0  0  0  0
  150.6518  138.8280  155.0249 C   0  0  1  0  0  0  0  0  0  0  0  0
  150.3585  139.5310  153.8332 O   0  0  0  0  0  0  0  0  0  0  0  0
  151.1607  137.4201  154.6533 C   0  0  0  0  0  0  0  0  0  0  0  0
  150.0653  136.4241  154.5276 N   0  3  1  0  0  0  0  0  0  0  0  0
  150.5383  135.0340  154.7263 C   0  0  0  0  0  0  0  0  0  0  0  0
  149.3848  134.0413  154.5122 C   0  0  0  0  0  0  0  0  0  0  0  0
  148.3154  134.3592  155.3948 O   0  0  0  0  0  0  0  0  0  0  0  0
  147.7830  135.6587  155.1580 C   0  0  1  0  0  0  0  0  0  0  0  0
  146.5921  135.8656  156.1128 C   0  0  0  0  0  0  0  0  0  0  0  0
  145.5521  134.8140  155.9714 N   0  3  0  0  0  0  0  0  0  0  0  0
  145.0512  134.6644  154.5851 C   0  0  0  0  0  0  0  0  0  0  0  0
  144.4405  134.9965  156.9310 C   0  0  0  0  0  0  0  0  0  0  0  0
  148.8962  136.6988  155.3999 C   0  0  0  0  0  0  0  0  0  0  0  0
  151.6390  141.3537  157.6251 C   0  0  0  0  0  0  0  0  0  0  0  0
  152.5937  140.8846  158.5251 C   0  0  0  0  0  0  0  0  0  0  0  0
  152.8276  141.6583  159.6845 C   0  0  0  0  0  0  0  0  0  0  0  0
  153.8646  141.1719  160.6827 C   0  0  0  0  0  0  0  0  0  0  0  0
  151.7859  144.6044  161.1696 H   0  0  0  0  0  0  0  0  0  0  0  0
  153.4292  143.9744  161.2212 H   0  0  0  0  0  0  0  0  0  0  0  0
  152.1239  143.1209  162.0583 H   0  0  0  0  0  0  0  0  0  0  0  0
  150.6003  144.2393  159.1650 H   0  0  0  0  0  0  0  0  0  0  0  0
  149.6672  141.5716  154.9774 H   0  0  0  0  0  0  0  0  0  0  0  0
  152.5859  139.8291  155.2554 H   0  0  0  0  0  0  0  0  0  0  0  0
  152.0307  139.0087  156.6898 H   0  0  0  0  0  0  0  0  0  0  0  0
  149.7364  138.7590  155.6116 H   0  0  0  0  0  0  0  0  0  0  0  0
  149.4192  139.5742  153.7337 H   0  0  0  0  0  0  0  0  0  0  0  0
  151.6963  137.4879  153.7048 H   0  0  0  0  0  0  0  0  0  0  0  0
  151.8867  137.0684  155.3879 H   0  0  0  0  0  0  0  0  0  0  0  0
  151.3457  134.8111  154.0276 H   0  0  0  0  0  0  0  0  0  0  0  0
  150.9451  134.9249  155.7330 H   0  0  0  0  0  0  0  0  0  0  0  0
  149.0385  134.0616  153.4774 H   0  0  0  0  0  0  0  0  0  0  0  0
  149.7209  133.0244  154.7156 H   0  0  0  0  0  0  0  0  0  0  0  0
  147.4506  135.7347  154.1222 H   0  0  0  0  0  0  0  0  0  0  0  0
  146.9719  135.8673  157.1358 H   0  0  0  0  0  0  0  0  0  0  0  0
  146.1378  136.8452  155.9549 H   0  0  0  0  0  0  0  0  0  0  0  0
  144.5787  135.5846  154.2390 H   0  0  0  0  0  0  0  0  0  0  0  0
  144.3124  133.8641  154.5294 H   0  0  0  0  0  0  0  0  0  0  0  0
  145.8525  134.4106  153.8924 H   0  0  0  0  0  0  0  0  0  0  0  0
  143.9114  135.9317  156.7435 H   0  0  0  0  0  0  0  0  0  0  0  0
  144.8110  135.0117  157.9565 H   0  0  0  0  0  0  0  0  0  0  0  0
  143.7248  134.1771  156.8536 H   0  0  0  0  0  0  0  0  0  0  0  0
  149.2101  136.6799  156.4450 H   0  0  0  0  0  0  0  0  0  0  0  0
  148.5028  137.6955  155.2036 H   0  0  0  0  0  0  0  0  0  0  0  0
  153.1410  139.9702  158.3506 H   0  0  0  0  0  0  0  0  0  0  0  0
  154.2743  140.2038  160.3932 H   0  0  0  0  0  0  0  0  0  0  0  0
  153.4228  141.0615  161.6731 H   0  0  0  0  0  0  0  0  0  0  0  0
  154.6919  141.8789  160.7485 H   0  0  0  0  0  0  0  0  0  0  0  0
  145.9909  133.9392  156.2226 H   0  0  0  0  0  0  0  0  0  0  0  0
  149.7448  136.4793  153.5706 H   0  0  0  0  0  0  0  0  0  0  0  0
  149.4156  143.4969  156.6550 H   0  0  0  0  0  0  0  0  0  0  0  0
  1  2  1  0  0  0  0
  1 26  1  0  0  0  0
  1 27  1  0  0  0  0
  1 28  1  0  0  0  0
  2 24  1  0  0  0  0
  2  3  2  0  0  0  0
  3  4  1  0  0  0  0
  3 29  1  0  0  0  0
  4 22  2  0  0  0  0
  4  5  1  0  0  0  0
  5  6  2  0  0  0  0
  5 58  1  0  0  0  0
  6  7  1  0  0  0  0
  6 30  1  0  0  0  0
  7  8  1  0  0  0  0
  7 22  1  0  0  0  0
  8  9  1  0  0  0  0
  8 31  1  0  0  0  0
  8 32  1  0  0  0  0
  9 10  1  0  0  0  0
  9 11  1  0  0  0  0
  9 33  1  0  0  0  0
 10 34  1  0  0  0  0
 11 12  1  0  0  0  0
 11 35  1  0  0  0  0
 11 36  1  0  0  0  0
 12 21  1  0  0  0  0
 12 13  1  0  0  0  0
 12 57  1  0  0  0  0
 13 14  1  0  0  0  0
 13 37  1  0  0  0  0
 13 38  1  0  0  0  0
 14 15  1  0  0  0  0
 14 39  1  0  0  0  0
 14 40  1  0  0  0  0
 15 16  1  0  0  0  0
 16 17  1  0  0  0  0
 16 21  1  0  0  0  0
 16 41  1  0  0  0  0
 17 18  1  0  0  0  0
 17 42  1  0  0  0  0
 17 43  1  0  0  0  0
 18 19  1  0  0  0  0
 18 20  1  0  0  0  0
 18 56  1  0  0  0  0
 19 44  1  0  0  0  0
 19 45  1  0  0  0  0
 19 46  1  0  0  0  0
 20 47  1  0  0  0  0
 20 48  1  0  0  0  0
 20 49  1  0  0  0  0
 21 50  1  0  0  0  0
 21 51  1  0  0  0  0
 22 23  1  0  0  0  0
 23 24  2  0  0  0  0
 23 52  1  0  0  0  0
 24 25  1  0  0  0  0
 25 53  1  0  0  0  0
 25 54  1  0  0  0  0
 25 55  1  0  0  0  0
M  CHG  1   5   1
M  CHG  1  12   1
M  CHG  1  18   1
M  END
> <s_m_source_file>
AV-unprocessed.smi

> <i_m_source_file_index>
1005

> <i_lp_mmshare_version>
43012

> <i_f3d_flags>
0

> <s_epik_input>
W0NIM11jKFtjSF0xKWMoW0NIM10pW2NIXWMoYzEyKW4oW2NIXW4yKVtDSDJdW0NASF0oW09IXSlbQ0gyXU4zW0NIMl1bQ0gyXU9bQ0BIXShbQ0gyXTMpW0NIMl1OKFtDSDNdKVtDSDNd

> <s_epik_cmdline>
J2VwaWtfcHl0aG9uJywgJy1waCcsICc3LjAnLCAnLXRuJywgJzgnLCAnLW1hJywgJzIwMCcsICctbWV0YWxfYmluZGluZycsICctaW1hZScsICc8aW5maWxlLm1hZT4nLCAnLW9tYWUnLCAnPG91dGZpbGUubWFlPic=

> <r_epik_Ionization_Penalty>
2.30802

> <r_epik_Ionization_Penalty_Charging>
2.30798

> <r_epik_Ionization_Penalty_Neutral>
3.4851e-05

> <r_epik_State_Penalty>
2.52618

> <r_epik_Charging_Adjusted_Penalty>
4.83416

> <i_epik_Tot_Q>
3

> <i_epik_Tot_abs_Q>
3

> <r_epik_Metal_State_Penalty>
6.53149

> <b_epik_Metal_Only>
0

> <s_lp_Force_Field>
OPLS_2005

> <r_lp_Energy>
42.4596

> <b_lp_Chiralities_Consistent>
1

> <s_lp_Variant>
AV-unprocessed.smi:1005-18

> <Gold.Version>
5.8.1

> <Gold.Id.Protein>
6NUR|6NUR_protein|mol2

> <Gold.PLP.Fitness>
58.0944

> <Gold.PLP.PLP>
-45.2240

> <Gold.PLP.part.hbond>
-4.1272

> <Gold.PLP.part.metal>
0.0000

> <Gold.PLP.part.buried>
-5.5578

> <Gold.PLP.part.nonpolar>
-36.4090

> <Gold.PLP.part.repulsive>
0.1375

> <Gold.PLP.ligand.clash>
0.0000

> <Gold.PLP.ligand.torsion>
1.1062

> <Gold.PLP.Chemscore.Hbond>
4.9920

> <Gold.PLP.Chemscore.CHOScore>
0.0000

> <Gold.PLP.Chemscore.Metal>
0.0000

> <Gold.Chemscore.Hbonds>
donor molecule, donor type, donor heavy atom, donor atom, acceptor molecule, acceptor atom, score
      L1  H     5    58       P1  8028  1.89
      L1  H    12    57       P1  7948  2.00
      P1  H  7989  7998       L1    10  1.00

> <Gold.PLP.Chemscore.Internal.Correction>
0.1068

> <Gold.Rescore>
     Score         DG    S(hbond)    S(metal)    S(lipo)     H(rot)  DE(clash)    DE(int)     intcor
     19.13     -21.20       2.76        0.00     111.45       2.56       0.02       2.05       ----

> <Gold.Chemscore.Fitness>
19.1310

> <Gold.Chemscore.DG>
-21.2009

> <Gold.Chemscore.ZeroCoef>
-5.4800

> <Gold.Chemscore.Hbond>
2.7622

> <Gold.Chemscore.Metal>
0.0000

> <Gold.Chemscore.Lipo>
111.4538

> <Gold.Chemscore.Internal_Hbond>
0.0000

> <Gold.Chemscore.DEClash>
0.0243

> <Gold.Chemscore.DEInternal>
2.0456

> <Gold.Chemscore.Rot>
2.5566

> <Gold.Chemscore.Internal.Correction>
   9.000000E+99

> <Gold.Chemscore.Hbonds>
donor molecule, donor type, donor heavy atom, donor atom, acceptor molecule, acceptor atom, score
      L1  H     5    58       P1  8028  0.90
      L1  H    12    57       P1  7948  0.40
      P1  H  7989  7998       L1    10  0.77

> <Gold.Chemscore.Hbond.Weighted>
-9.2258

> <Gold.Chemscore.Metal.Weighted>
-0.0000

> <Gold.Chemscore.Lipo.Weighted>
-13.0401

> <Gold.Chemscore.Internal_Hbond.Weighted>
0.0000

> <Gold.Chemscore.DEClash.Weighted>
0.0243

> <Gold.Chemscore.DEInternal.Weighted>
2.0456

> <Gold.Chemscore.Rot.Weighted>
6.5450

> <Gold.Chemscore.Internal.Correction.Weighted>
   9.000000E+99

> <Gold.Protein.RotatedTorsions>
[ 6907 6896 6895 6894 ] final -176.84 input  -60.11 | X-H torsion
[ 7974 7965 7964 7962 ] final   39.06 input  175.53 | X-H torsion
[ 8008 7997 7996 7995 ] final  -18.49 input   59.86 | X-H torsion
[ 10167 10162 10161 10158 ] final  176.17 input  -65.29 | X-H torsion
[ 10718 10713 10712 10709 ] final   84.99 input   66.30 | X-H torsion
[ 10763 10752 10751 10750 ] final -118.61 input  -60.55 | X-H torsion
[ 11005 11000 10999 10996 ] final  -18.05 input  -57.11 | X-H torsion

> <Gold.Protein.ActiveResidues>
 VAL166  LYS551  ARG553  GLY616  TRP617  ASP618  TYR619  PRO620  LYS621  CYS622 
 ASP623  PHE694  ASN695  SER759  ASP760  ASP761  ALA762  ILE779  LEU786  VAL792 
 PHE793  MET794  SER795  GLU796  ALA797  LYS798  CYS799  TRP800  GLU811  SER814 

> <Gold.Protein.RotatedAtoms>
  151.6113  133.3347  159.3067 H   0  0  0  0  0  0  0  0  0  0  0  0  # atno 6907 bound_to 6896
  150.8155  134.7338  159.6737 H   0  0  0  0  0  0  0  0  0  0  0  0  # atno 6908 bound_to 6896
  152.4251  134.5889  160.0020 H   0  0  0  0  0  0  0  0  0  0  0  0  # atno 6909 bound_to 6896
  146.1014  139.5697  142.9412 H   0  0  0  0  0  0  0  0  0  0  0  0  # atno 7974 bound_to 7965
  154.4903  140.2114  155.9564 H   0  0  0  0  0  0  0  0  0  0  0  0  # atno 8008 bound_to 7997
  156.1295  140.3199  155.8296 H   0  0  0  0  0  0  0  0  0  0  0  0  # atno 8009 bound_to 7997
  155.4322  140.0504  157.3008 H   0  0  0  0  0  0  0  0  0  0  0  0  # atno 8010 bound_to 7997
  139.5204  144.2947  152.0433 H   0  0  0  0  0  0  0  0  0  0  0  0  # atno 10167 bound_to 10162
  157.6907  131.0156  150.2756 H   0  0  0  0  0  0  0  0  0  0  0  0  # atno 10718 bound_to 10713
  154.8593  135.4268  154.2166 H   0  0  0  0  0  0  0  0  0  0  0  0  # atno 10763 bound_to 10752
  153.3180  135.6980  153.7061 H   0  0  0  0  0  0  0  0  0  0  0  0  # atno 10764 bound_to 10752
  153.6127  135.3516  155.2958 H   0  0  0  0  0  0  0  0  0  0  0  0  # atno 10765 bound_to 10752
  140.8229  133.8054  155.9678 H   0  0  0  0  0  0  0  0  0  0  0  0  # atno 11005 bound_to 11000
  145.5847  141.0378  143.2103 LP  0  0  0  0  0  0  0  0  0  0  0  0  # atno 17320 bound_to 7965
  144.7436  139.7382  143.7301 LP  0  0  0  0  0  0  0  0  0  0  0  0  # atno 17321 bound_to 7965
  140.2396  144.4283  150.6265 LP  0  0  0  0  0  0  0  0  0  0  0  0  # atno 17342 bound_to 10162
  140.6299  143.2186  151.6517 LP  0  0  0  0  0  0  0  0  0  0  0  0  # atno 17343 bound_to 10162
  156.3311  130.3800  149.7490 LP  0  0  0  0  0  0  0  0  0  0  0  0  # atno 17370 bound_to 10713
  156.5029  130.8137  151.3139 LP  0  0  0  0  0  0  0  0  0  0  0  0  # atno 17371 bound_to 10713
  140.9080  134.2296  157.5003 LP  0  0  0  0  0  0  0  0  0  0  0  0  # atno 17394 bound_to 11000
  139.8707  134.9737  156.4819 LP  0  0  0  0  0  0  0  0  0  0  0  0  # atno 17395 bound_to 11000

$$$$
