AV-unprocessed.smi:1990|AV-procd|sdf|8061|dock10
  -GOLD-   2272010263D 1   1.00000     0.00000
 Structure written by MMmdl.
 46 47  0  0  0  0  0  0  0  0  1 V2000
  150.5560  144.6786  159.8479 C   0  0  0  0  0  0  0  0  0  0  0  0
  151.7846  144.4027  158.9632 C   0  0  2  0  0  0  0  0  0  0  0  0
  151.4494  143.6308  157.6713 C   0  0  0  0  0  0  0  0  0  0  0  0
  151.2105  142.2177  157.9496 N   0  0  0  0  0  0  0  0  0  0  0  0
  150.6289  141.4853  156.8932 C   0  0  0  0  0  0  0  0  0  0  0  0
  151.4198  141.0805  155.7927 C   0  0  0  0  0  0  0  0  0  0  0  0
  150.8239  140.3517  154.7455 C   0  0  0  0  0  0  0  0  0  0  0  0
  149.4475  140.0355  154.8282 C   0  0  0  0  0  0  0  0  0  0  0  0
  148.7180  139.3279  153.8348 N   0  0  0  0  0  0  0  0  0  0  0  0
  147.3895  139.2909  153.6196 C   0  0  0  0  0  0  0  0  0  0  0  0
  146.5620  139.9511  154.2470 O   0  0  0  0  0  0  0  0  0  0  0  0
  146.9294  138.3696  152.4810 C   0  0  2  0  0  0  0  0  0  0  0  0
  146.2139  139.1477  151.3640 C   0  0  0  0  0  0  0  0  0  0  0  0
  145.8109  137.0487  153.1465 S   0  0  0  0  0  0  0  0  0  0  0  0
  145.3485  136.0908  151.6418 C   0  0  0  0  0  0  0  0  0  0  0  0
  146.5875  136.1639  154.0286 O   0  0  0  0  0  0  0  0  0  0  0  0
  144.5985  137.6997  153.6659 O   0  0  0  0  0  0  0  0  0  0  0  0
  148.7408  140.4938  155.9578 C   0  0  0  0  0  0  0  0  0  0  0  0
  149.3068  141.1953  156.9612 N   0  0  0  0  0  0  0  0  0  0  0  0
  152.2905  141.5907  158.7060 C   0  0  0  0  0  0  0  0  0  0  0  0
  152.5637  142.3768  160.0001 C   0  0  1  0  0  0  0  0  0  0  0  0
  153.7721  141.8211  160.7611 C   0  0  0  0  0  0  0  0  0  0  0  0
  152.8295  143.7420  159.6812 O   0  0  0  0  0  0  0  0  0  0  0  0
  149.8328  145.3006  159.3200 H   0  0  0  0  0  0  0  0  0  0  0  0
  150.8428  145.2062  160.7577 H   0  0  0  0  0  0  0  0  0  0  0  0
  150.0410  143.7632  160.1391 H   0  0  0  0  0  0  0  0  0  0  0  0
  152.1854  145.3740  158.6721 H   0  0  0  0  0  0  0  0  0  0  0  0
  150.5976  144.0991  157.1796 H   0  0  0  0  0  0  0  0  0  0  0  0
  152.2872  143.7018  156.9763 H   0  0  0  0  0  0  0  0  0  0  0  0
  152.4673  141.3372  155.7320 H   0  0  0  0  0  0  0  0  0  0  0  0
  151.4311  140.0695  153.9000 H   0  0  0  0  0  0  0  0  0  0  0  0
  149.2831  138.8002  153.1855 H   0  0  0  0  0  0  0  0  0  0  0  0
  147.7971  137.8681  152.0509 H   0  0  0  0  0  0  0  0  0  0  0  0
  146.8381  139.9550  150.9797 H   0  0  0  0  0  0  0  0  0  0  0  0
  145.2783  139.5845  151.7157 H   0  0  0  0  0  0  0  0  0  0  0  0
  145.9744  138.4920  150.5267 H   0  0  0  0  0  0  0  0  0  0  0  0
  144.6033  135.3418  151.9086 H   0  0  0  0  0  0  0  0  0  0  0  0
  146.2257  135.5873  151.2363 H   0  0  0  0  0  0  0  0  0  0  0  0
  144.9311  136.7627  150.8923 H   0  0  0  0  0  0  0  0  0  0  0  0
  147.6845  140.2927  156.0618 H   0  0  0  0  0  0  0  0  0  0  0  0
  152.0269  140.5624  158.9565 H   0  0  0  0  0  0  0  0  0  0  0  0
  153.1887  141.5567  158.0880 H   0  0  0  0  0  0  0  0  0  0  0  0
  151.6952  142.3150  160.6559 H   0  0  0  0  0  0  0  0  0  0  0  0
  153.6139  140.7793  161.0404 H   0  0  0  0  0  0  0  0  0  0  0  0
  153.9503  142.3869  161.6757 H   0  0  0  0  0  0  0  0  0  0  0  0
  154.6776  141.8716  160.1561 H   0  0  0  0  0  0  0  0  0  0  0  0
  1  2  1  0  0  0  0
  1 24  1  0  0  0  0
  1 25  1  0  0  0  0
  1 26  1  0  0  0  0
  2 23  1  0  0  0  0
  2  3  1  0  0  0  0
  2 27  1  0  0  0  0
  3  4  1  0  0  0  0
  3 28  1  0  0  0  0
  3 29  1  0  0  0  0
  4  5  1  0  0  0  0
  4 20  1  0  0  0  0
  5 19  1  0  0  0  0
  5  6  2  0  0  0  0
  6  7  1  0  0  0  0
  6 30  1  0  0  0  0
  7  8  2  0  0  0  0
  7 31  1  0  0  0  0
  8  9  1  0  0  0  0
  8 18  1  0  0  0  0
  9 10  1  0  0  0  0
  9 32  1  0  0  0  0
 10 11  2  0  0  0  0
 10 12  1  0  0  0  0
 12 13  1  0  0  0  0
 12 14  1  0  0  0  0
 12 33  1  0  0  0  0
 13 34  1  0  0  0  0
 13 35  1  0  0  0  0
 13 36  1  0  0  0  0
 14 15  1  0  0  0  0
 14 16  2  0  0  0  0
 14 17  2  0  0  0  0
 15 37  1  0  0  0  0
 15 38  1  0  0  0  0
 15 39  1  0  0  0  0
 18 19  2  0  0  0  0
 18 40  1  0  0  0  0
 20 21  1  0  0  0  0
 20 41  1  0  0  0  0
 20 42  1  0  0  0  0
 21 22  1  0  0  0  0
 21 23  1  0  0  0  0
 21 43  1  0  0  0  0
 22 44  1  0  0  0  0
 22 45  1  0  0  0  0
 22 46  1  0  0  0  0
M  END
> <s_m_source_file>
AV-unprocessed.smi

> <i_m_source_file_index>
1990

> <i_lp_mmshare_version>
43012

> <i_f3d_flags>
0

> <s_epik_input>
W0NIM11bQ0BASF0xW0NIMl1OKFtDSDJdW0NASF0oTzEpW0NIM10pYzJbY0hdW2NIXWMoW2NIXW4yKVtOSF1DKD1PKVtDQEhdKFtDSDNdKVMoPU8pKD1PKVtDSDNd

> <s_epik_cmdline>
J2VwaWtfcHl0aG9uJywgJy1waCcsICc3LjAnLCAnLXRuJywgJzgnLCAnLW1hJywgJzIwMCcsICctbWV0YWxfYmluZGluZycsICctaW1hZScsICc8aW5maWxlLm1hZT4nLCAnLW9tYWUnLCAnPG91dGZpbGUubWFlPic=

> <r_lp_tautomer_probability>
1

> <r_epik_Ionization_Penalty>
0.000334888

> <r_epik_Ionization_Penalty_Charging>
0

> <r_epik_Ionization_Penalty_Neutral>
0.000334888

> <r_epik_State_Penalty>
0.000200905

> <r_epik_Charging_Adjusted_Penalty>
0.000200905

> <i_epik_Tot_Q>
0

> <i_epik_Tot_abs_Q>
0

> <r_epik_Metal_State_Penalty>
-0

> <b_epik_Metal_Only>
0

> <s_lp_Force_Field>
OPLS_2005

> <r_lp_Energy>
21.5885

> <b_lp_Chiralities_Consistent>
1

> <s_lp_Variant>
AV-unprocessed.smi:1990-1

> <Gold.Version>
5.8.1

> <Gold.Id.Protein>
6NUR|6NUR_protein|mol2

> <Gold.PLP.Fitness>
38.1634

> <Gold.PLP.PLP>
-38.5235

> <Gold.PLP.part.hbond>
-1.0000

> <Gold.PLP.part.metal>
0.0000

> <Gold.PLP.part.buried>
2.4319

> <Gold.PLP.part.nonpolar>
-40.4073

> <Gold.PLP.part.repulsive>
1.2963

> <Gold.PLP.ligand.clash>
0.0000

> <Gold.PLP.ligand.torsion>
0.4125

> <Gold.PLP.Chemscore.Hbond>
0.0000

> <Gold.PLP.Chemscore.CHOScore>
0.0000

> <Gold.PLP.Chemscore.Metal>
0.0000

> <Gold.Chemscore.Hbonds>
donor molecule, donor type, donor heavy atom, donor atom, acceptor molecule, acceptor atom, score
      L1  H     9    32       P1  7957  0.03

> <Gold.PLP.Chemscore.Internal.Correction>
0.4649

> <Gold.Rescore>
     Score         DG    S(hbond)    S(metal)    S(lipo)     H(rot)  DE(clash)    DE(int)     intcor
     11.14     -16.69       0.89        0.00     103.71       1.52       3.06       2.49       ----

> <Gold.Chemscore.Fitness>
11.1398

> <Gold.Chemscore.DG>
-16.6863

> <Gold.Chemscore.ZeroCoef>
-5.4800

> <Gold.Chemscore.Hbond>
0.8856

> <Gold.Chemscore.Metal>
0.0000

> <Gold.Chemscore.Lipo>
103.7074

> <Gold.Chemscore.Internal_Hbond>
0.0000

> <Gold.Chemscore.DEClash>
3.0596

> <Gold.Chemscore.DEInternal>
2.4870

> <Gold.Chemscore.Rot>
1.5177

> <Gold.Chemscore.Internal.Correction>
   9.000000E+99

> <Gold.Chemscore.Hbonds>
donor molecule, donor type, donor heavy atom, donor atom, acceptor molecule, acceptor atom, score
      L1  H     9    32       P1  7957  0.03

> <Gold.Chemscore.Hbond.Weighted>
-2.9579

> <Gold.Chemscore.Metal.Weighted>
-0.0000

> <Gold.Chemscore.Lipo.Weighted>
-12.1338

> <Gold.Chemscore.Internal_Hbond.Weighted>
0.0000

> <Gold.Chemscore.DEClash.Weighted>
3.0596

> <Gold.Chemscore.DEInternal.Weighted>
2.4870

> <Gold.Chemscore.Rot.Weighted>
3.8853

> <Gold.Chemscore.Internal.Correction.Weighted>
   9.000000E+99

> <Gold.Protein.RotatedTorsions>
[ 6907 6896 6895 6894 ] final  150.91 input  -60.11 | X-H torsion
[ 7974 7965 7964 7962 ] final  117.72 input  175.53 | X-H torsion
[ 8008 7997 7996 7995 ] final  169.10 input   59.86 | X-H torsion
[ 10167 10162 10161 10158 ] final  -82.52 input  -65.29 | X-H torsion
[ 10718 10713 10712 10709 ] final  173.16 input   66.30 | X-H torsion
[ 10763 10752 10751 10750 ] final  160.24 input  -60.55 | X-H torsion
[ 11005 11000 10999 10996 ] final   22.65 input  -57.11 | X-H torsion

> <Gold.Protein.ActiveResidues>
 VAL166  LYS551  ARG553  GLY616  TRP617  ASP618  TYR619  PRO620  LYS621  CYS622 
 ASP623  PHE694  ASN695  SER759  ASP760  ASP761  ALA762  ILE779  LEU786  VAL792 
 PHE793  MET794  SER795  GLU796  ALA797  LYS798  CYS799  TRP800  GLU811  SER814 

> <Gold.Protein.RotatedAtoms>
  152.1079  133.4284  159.4616 H   0  0  0  0  0  0  0  0  0  0  0  0  # atno 6907 bound_to 6896
  150.6866  134.2683  159.4587 H   0  0  0  0  0  0  0  0  0  0  0  0  # atno 6908 bound_to 6896
  152.0549  134.9630  160.0625 H   0  0  0  0  0  0  0  0  0  0  0  0  # atno 6909 bound_to 6896
  145.1639  139.3139  143.4503 H   0  0  0  0  0  0  0  0  0  0  0  0  # atno 7974 bound_to 7965
  156.1488  140.1573  156.8804 H   0  0  0  0  0  0  0  0  0  0  0  0  # atno 8008 bound_to 7997
  154.5052  140.0815  156.7917 H   0  0  0  0  0  0  0  0  0  0  0  0  # atno 8009 bound_to 7997
  155.3937  140.3411  155.4255 H   0  0  0  0  0  0  0  0  0  0  0  0  # atno 8010 bound_to 7997
  140.4312  143.2548  151.8757 H   0  0  0  0  0  0  0  0  0  0  0  0  # atno 10167 bound_to 10162
  156.9684  131.0082  151.2911 H   0  0  0  0  0  0  0  0  0  0  0  0  # atno 10718 bound_to 10713
  154.2443  135.2773  155.2841 H   0  0  0  0  0  0  0  0  0  0  0  0  # atno 10763 bound_to 10752
  154.5519  135.5672  153.6933 H   0  0  0  0  0  0  0  0  0  0  0  0  # atno 10764 bound_to 10752
  152.9993  135.6276  154.2588 H   0  0  0  0  0  0  0  0  0  0  0  0  # atno 10765 bound_to 10752
  140.3783  134.1948  155.7664 H   0  0  0  0  0  0  0  0  0  0  0  0  # atno 11005 bound_to 11000
  146.3478  140.1759  142.8589 LP  0  0  0  0  0  0  0  0  0  0  0  0  # atno 17320 bound_to 7965
  145.0303  140.8865  143.5114 LP  0  0  0  0  0  0  0  0  0  0  0  0  # atno 17321 bound_to 7965
  139.4785  144.5333  151.8636 LP  0  0  0  0  0  0  0  0  0  0  0  0  # atno 17342 bound_to 10162
  140.4425  144.1967  150.5892 LP  0  0  0  0  0  0  0  0  0  0  0  0  # atno 17343 bound_to 10162
  157.5610  130.8245  149.8265 LP  0  0  0  0  0  0  0  0  0  0  0  0  # atno 17370 bound_to 10713
  156.0293  130.3769  150.1733 LP  0  0  0  0  0  0  0  0  0  0  0  0  # atno 17371 bound_to 10713
  141.1932  133.8156  157.0808 LP  0  0  0  0  0  0  0  0  0  0  0  0  # atno 17394 bound_to 11000
  140.0498  134.9811  157.1116 LP  0  0  0  0  0  0  0  0  0  0  0  0  # atno 17395 bound_to 11000

$$$$
