AV-unprocessed.smi:3194|AV-procd|sdf|12212|dock6
  -GOLD-   2272018 53D 1   1.00000     0.00000
 Structure written by MMmdl.
 27 27  0  0  0  0  0  0  0  0  2 V2000
  147.5920  141.8630  154.7630 C   0  0  0  0  0  0  0  0  0  0  0  0
  148.9070  141.1361  154.4461 C   0  0  2  0  0  0  0  0  0  0  0  0
  148.7065  139.6081  154.4145 C   0  0  0  0  0  0  0  0  0  0  0  0
  149.7029  138.9736  153.6367 O   0  0  0  0  0  0  0  0  0  0  0  0
  149.8929  141.4809  155.4725 N   0  5  0  0  0  0  0  0  0  0  0  0
  150.9185  140.6687  155.8613 C   0  0  0  0  0  0  0  0  0  0  0  0
  151.7398  140.0469  155.1774 O   0  0  0  0  0  0  0  0  0  0  0  0
  150.9972  140.5443  157.3976 C   0  0  0  0  0  0  0  0  0  0  0  0
  149.8246  140.1041  157.8622 F   0  0  0  0  0  0  0  0  0  0  0  0
  151.9205  139.6343  157.7248 F   0  0  0  0  0  0  0  0  0  0  0  0
  151.3232  141.8954  158.0345 C   0  0  0  0  0  0  0  0  0  0  0  0
  152.5047  142.0787  158.7896 C   0  0  0  0  0  0  0  0  0  0  0  0
  152.7669  143.3483  159.3381 C   0  0  0  0  0  0  0  0  0  0  0  0
  151.8434  144.3873  159.1171 C   0  0  0  0  0  0  0  0  0  0  0  0
  150.6944  144.1083  158.3514 C   0  0  0  0  0  0  0  0  0  0  0  0
  150.4332  142.8950  157.8210 N   0  0  0  0  0  0  0  0  0  0  0  0
  149.2159  141.4526  153.4481 H   0  0  0  0  0  0  0  0  0  0  0  0
  146.8324  141.6398  154.0135 H   0  0  0  0  0  0  0  0  0  0  0  0
  147.7325  142.9445  154.7736 H   0  0  0  0  0  0  0  0  0  0  0  0
  147.1957  141.5677  155.7353 H   0  0  0  0  0  0  0  0  0  0  0  0
  148.7197  139.1916  155.4226 H   0  0  0  0  0  0  0  0  0  0  0  0
  147.7360  139.3642  153.9818 H   0  0  0  0  0  0  0  0  0  0  0  0
  149.5573  139.1906  152.7293 H   0  0  0  0  0  0  0  0  0  0  0  0
  153.2034  141.2681  158.9340 H   0  0  0  0  0  0  0  0  0  0  0  0
  153.6627  143.5225  159.9158 H   0  0  0  0  0  0  0  0  0  0  0  0
  152.0123  145.3742  159.5210 H   0  0  0  0  0  0  0  0  0  0  0  0
  149.9646  144.8811  158.1601 H   0  0  0  0  0  0  0  0  0  0  0  0
  1  2  1  0  0  0  0
  1 18  1  0  0  0  0
  1 19  1  0  0  0  0
  1 20  1  0  0  0  0
  2 17  1  0  0  0  0
  2  3  1  0  0  0  0
  2  5  1  0  0  0  0
  3  4  1  0  0  0  0
  3 21  1  0  0  0  0
  3 22  1  0  0  0  0
  4 23  1  0  0  0  0
  5  6  1  0  0  0  0
  6  7  2  0  0  0  0
  6  8  1  0  0  0  0
  8  9  1  0  0  0  0
  8 10  1  0  0  0  0
  8 11  1  0  0  0  0
 11 16  1  0  0  0  0
 11 12  2  0  0  0  0
 12 13  1  0  0  0  0
 12 24  1  0  0  0  0
 13 14  2  0  0  0  0
 13 25  1  0  0  0  0
 14 15  1  0  0  0  0
 14 26  1  0  0  0  0
 15 16  2  0  0  0  0
 15 27  1  0  0  0  0
M  CHG  1   5  -1
M  END
> <s_m_source_file>
AV-unprocessed.smi

> <i_m_source_file_index>
3194

> <i_lp_mmshare_version>
43012

> <i_f3d_flags>
0

> <s_epik_input>
W09IXVtDSDJdW0NASF0oW0NIM10pW05IXUMoPU8pQyhGKShGKWMxW2NIXVtjSF1bY0hdW2NIXW4x

> <s_epik_cmdline>
J2VwaWtfcHl0aG9uJywgJy1waCcsICc3LjAnLCAnLXRuJywgJzgnLCAnLW1hJywgJzIwMCcsICctbWV0YWxfYmluZGluZycsICctaW1hZScsICc8aW5maWxlLm1hZT4nLCAnLW9tYWUnLCAnPG91dGZpbGUubWFlPic=

> <r_lp_tautomer_probability>
1

> <r_epik_Ionization_Penalty>
5.78943

> <r_epik_Ionization_Penalty_Charging>
5.78942

> <r_epik_Ionization_Penalty_Neutral>
4.0054e-06

> <r_epik_State_Penalty>
5.78939

> <r_epik_Charging_Adjusted_Penalty>
11.5788

> <i_epik_Tot_Q>
-1

> <i_epik_Tot_abs_Q>
1

> <r_epik_Metal_State_Penalty>
1.76064

> <b_epik_Metal_Only>
1

> <s_lp_Force_Field>
OPLS_2005

> <r_lp_Energy>
16.8834

> <b_lp_Chiralities_Consistent>
1

> <s_lp_Variant>
AV-unprocessed.smi:3194-4

> <Gold.Version>
5.8.1

> <Gold.Id.Protein>
6NUR|6NUR_protein|mol2

> <Gold.PLP.Fitness>
39.8598

> <Gold.PLP.PLP>
-34.1771

> <Gold.PLP.part.hbond>
-2.1403

> <Gold.PLP.part.metal>
0.0000

> <Gold.PLP.part.buried>
-5.1007

> <Gold.PLP.part.nonpolar>
-28.5082

> <Gold.PLP.part.repulsive>
0.2711

> <Gold.PLP.ligand.clash>
0.7411

> <Gold.PLP.ligand.torsion>
1.1186

> <Gold.PLP.Chemscore.Hbond>
1.9280

> <Gold.PLP.Chemscore.CHOScore>
0.9448

> <Gold.PLP.Chemscore.Metal>
0.0000

> <Gold.Chemscore.Hbonds>
donor molecule, donor type, donor heavy atom, donor atom, acceptor molecule, acceptor atom, score
      L1  H     4    23       P1  7957  1.00
      P1  H  7989  7998       L1     7  0.94
      L1  C    15    27       P1  8028  0.15
      L1  C    15    27       P1  8029  0.83

> <Gold.PLP.Chemscore.Internal.Correction>
0.0426

> <Gold.Rescore>
     Score         DG    S(hbond)    S(metal)    S(lipo)     H(rot)  DE(clash)    DE(int)     intcor
     10.29     -14.26       1.72        0.00      79.02       2.43       0.01       3.95       ----

> <Gold.Chemscore.Fitness>
10.2939

> <Gold.Chemscore.DG>
-14.2576

> <Gold.Chemscore.ZeroCoef>
-5.4800

> <Gold.Chemscore.Hbond>
1.7207

> <Gold.Chemscore.Metal>
0.0000

> <Gold.Chemscore.Lipo>
79.0198

> <Gold.Chemscore.Internal_Hbond>
0.0000

> <Gold.Chemscore.DEClash>
0.0119

> <Gold.Chemscore.DEInternal>
3.9518

> <Gold.Chemscore.Rot>
2.4277

> <Gold.Chemscore.Internal.Correction>
   9.000000E+99

> <Gold.Chemscore.Hbonds>
donor molecule, donor type, donor heavy atom, donor atom, acceptor molecule, acceptor atom, score
      L1  H     4    23       P1  7957  0.99
      P1  H  7989  7998       L1     7  0.41

> <Gold.Chemscore.Hbond.Weighted>
-5.7472

> <Gold.Chemscore.Metal.Weighted>
-0.0000

> <Gold.Chemscore.Lipo.Weighted>
-9.2453

> <Gold.Chemscore.Internal_Hbond.Weighted>
0.0000

> <Gold.Chemscore.DEClash.Weighted>
0.0119

> <Gold.Chemscore.DEInternal.Weighted>
3.9518

> <Gold.Chemscore.Rot.Weighted>
6.2149

> <Gold.Chemscore.Internal.Correction.Weighted>
   9.000000E+99

> <Gold.Protein.RotatedTorsions>
[ 6907 6896 6895 6894 ] final  116.78 input  -60.11 | X-H torsion
[ 7974 7965 7964 7962 ] final -112.35 input  175.53 | X-H torsion
[ 8008 7997 7996 7995 ] final  109.72 input   59.86 | X-H torsion
[ 10167 10162 10161 10158 ] final  122.89 input  -65.29 | X-H torsion
[ 10718 10713 10712 10709 ] final  -46.48 input   66.30 | X-H torsion
[ 10763 10752 10751 10750 ] final -154.77 input  -60.55 | X-H torsion
[ 11005 11000 10999 10996 ] final  -50.13 input  -57.11 | X-H torsion

> <Gold.Protein.ActiveResidues>
 VAL166  LYS551  ARG553  GLY616  TRP617  ASP618  TYR619  PRO620  LYS621  CYS622 
 ASP623  PHE694  ASN695  SER759  ASP760  ASP761  ALA762  ILE779  LEU786  VAL792 
 PHE793  MET794  SER795  GLU796  ALA797  LYS798  CYS799  TRP800  GLU811  SER814 

> <Gold.Protein.RotatedAtoms>
  152.4656  133.7915  159.6904 H   0  0  0  0  0  0  0  0  0  0  0  0  # atno 6907 bound_to 6896
  150.8619  133.7622  159.2996 H   0  0  0  0  0  0  0  0  0  0  0  0  # atno 6908 bound_to 6896
  151.5185  135.1070  159.9924 H   0  0  0  0  0  0  0  0  0  0  0  0  # atno 6909 bound_to 6896
  145.1451  140.8799  143.3679 H   0  0  0  0  0  0  0  0  0  0  0  0  # atno 7974 bound_to 7965
  156.2000  140.3052  155.9507 H   0  0  0  0  0  0  0  0  0  0  0  0  # atno 8008 bound_to 7997
  155.2975  140.0445  157.3044 H   0  0  0  0  0  0  0  0  0  0  0  0  # atno 8009 bound_to 7997
  154.5559  140.2305  155.8420 H   0  0  0  0  0  0  0  0  0  0  0  0  # atno 8010 bound_to 7997
  139.5831  144.6995  151.3477 H   0  0  0  0  0  0  0  0  0  0  0  0  # atno 10167 bound_to 10162
  156.2179  130.4164  149.9031 H   0  0  0  0  0  0  0  0  0  0  0  0  # atno 10718 bound_to 10713
  154.7835  135.3182  154.7938 H   0  0  0  0  0  0  0  0  0  0  0  0  # atno 10763 bound_to 10752
  153.8643  135.6850  153.4784 H   0  0  0  0  0  0  0  0  0  0  0  0  # atno 10764 bound_to 10752
  153.1479  135.4711  154.9531 H   0  0  0  0  0  0  0  0  0  0  0  0  # atno 10765 bound_to 10752
  141.0799  133.6656  156.3686 H   0  0  0  0  0  0  0  0  0  0  0  0  # atno 11005 bound_to 11000
  145.0491  139.3197  143.5938 LP  0  0  0  0  0  0  0  0  0  0  0  0  # atno 17320 bound_to 7965
  146.3501  139.9892  142.8687 LP  0  0  0  0  0  0  0  0  0  0  0  0  # atno 17321 bound_to 7965
  140.7107  143.7398  150.7562 LP  0  0  0  0  0  0  0  0  0  0  0  0  # atno 17342 bound_to 10162
  140.0935  143.4855  152.2465 LP  0  0  0  0  0  0  0  0  0  0  0  0  # atno 17343 bound_to 10162
  156.6687  130.8811  151.3559 LP  0  0  0  0  0  0  0  0  0  0  0  0  # atno 17370 bound_to 10713
  157.7072  130.9399  150.0971 LP  0  0  0  0  0  0  0  0  0  0  0  0  # atno 17371 bound_to 10713
  140.5492  134.6044  157.5403 LP  0  0  0  0  0  0  0  0  0  0  0  0  # atno 17394 bound_to 11000
  139.9612  134.7449  156.0233 LP  0  0  0  0  0  0  0  0  0  0  0  0  # atno 17395 bound_to 11000

$$$$
