AV-unprocessed.smi:1774|AV-procd|sdf|7166|dock1
  -GOLD-   22720 8403D 1   1.00000     0.00000
 Structure written by MMmdl.
 45 46  0  0  0  0  0  0  0  0  1 V2000
  145.3651  135.5647  150.8110 C   0  0  0  0  0  0  0  0  0  0  0  0
  145.2594  134.0672  151.0515 C   0  0  0  0  0  0  0  0  0  0  0  0
  144.2674  133.3268  150.3737 C   0  0  0  0  0  0  0  0  0  0  0  0
  144.1722  131.9425  150.5966 C   0  0  0  0  0  0  0  0  0  0  0  0
  145.0799  131.3533  151.4934 C   0  0  0  0  0  0  0  0  0  0  0  0
  146.0308  132.0531  152.1452 N   0  0  0  0  0  0  0  0  0  0  0  0
  146.1361  133.3903  151.9414 C   0  0  0  0  0  0  0  0  0  0  0  0
  147.1109  134.1933  152.5979 N   0  0  0  0  0  0  0  0  0  0  0  0
  147.5270  134.1292  153.8749 C   0  0  0  0  0  0  0  0  0  0  0  0
  147.1307  133.3224  154.7166 O   0  0  0  0  0  0  0  0  0  0  0  0
  148.4548  135.0631  154.1266 N   0  0  0  0  0  0  0  0  0  0  0  0
  149.1536  135.2306  155.3964 C   0  0  0  0  0  0  0  0  0  0  0  0
  150.6101  135.6924  155.1918 C   0  0  0  0  0  0  0  0  0  0  0  0
  150.9234  137.0245  155.7108 N   0  0  0  0  0  0  0  0  0  0  0  0
  151.6968  137.7945  154.7435 C   0  0  0  0  0  0  0  0  0  0  0  0
  152.0409  139.2099  155.2480 C   0  0  1  0  0  0  0  0  0  0  0  0
  150.8353  140.1650  155.2507 C   0  0  0  0  0  0  0  0  0  0  0  0
  152.6636  139.1380  156.5318 O   0  0  0  0  0  0  0  0  0  0  0  0
  151.9473  138.3916  157.5142 C   0  0  2  0  0  0  0  0  0  0  0  0
  152.7913  138.3544  158.7925 C   0  0  0  0  0  0  0  0  0  0  0  0
  151.6512  136.9804  156.9747 C   0  0  0  0  0  0  0  0  0  0  0  0
  144.6134  135.9064  150.0991 H   0  0  0  0  0  0  0  0  0  0  0  0
  146.3466  135.8184  150.4094 H   0  0  0  0  0  0  0  0  0  0  0  0
  145.2188  136.1128  151.7423 H   0  0  0  0  0  0  0  0  0  0  0  0
  143.5854  133.8111  149.6904 H   0  0  0  0  0  0  0  0  0  0  0  0
  143.4237  131.3484  150.0936 H   0  0  0  0  0  0  0  0  0  0  0  0
  145.0421  130.2926  151.6939 H   0  0  0  0  0  0  0  0  0  0  0  0
  147.5446  134.9000  152.0230 H   0  0  0  0  0  0  0  0  0  0  0  0
  148.7236  135.6825  153.3764 H   0  0  0  0  0  0  0  0  0  0  0  0
  148.6010  135.9467  156.0035 H   0  0  0  0  0  0  0  0  0  0  0  0
  149.1375  134.2931  155.9544 H   0  0  0  0  0  0  0  0  0  0  0  0
  151.2856  134.9580  155.6328 H   0  0  0  0  0  0  0  0  0  0  0  0
  150.8155  135.6748  154.1204 H   0  0  0  0  0  0  0  0  0  0  0  0
  152.6245  137.2656  154.5203 H   0  0  0  0  0  0  0  0  0  0  0  0
  151.1519  137.8667  153.8015 H   0  0  0  0  0  0  0  0  0  0  0  0
  152.7828  139.6355  154.5718 H   0  0  0  0  0  0  0  0  0  0  0  0
  150.4445  140.2973  154.2417 H   0  0  0  0  0  0  0  0  0  0  0  0
  151.1193  141.1479  155.6271 H   0  0  0  0  0  0  0  0  0  0  0  0
  150.0181  139.7932  155.8687 H   0  0  0  0  0  0  0  0  0  0  0  0
  151.0084  138.8986  157.7389 H   0  0  0  0  0  0  0  0  0  0  0  0
  152.2806  137.8049  159.5836 H   0  0  0  0  0  0  0  0  0  0  0  0
  152.9855  139.3622  159.1603 H   0  0  0  0  0  0  0  0  0  0  0  0
  153.7536  137.8726  158.6166 H   0  0  0  0  0  0  0  0  0  0  0  0
  151.0746  136.4376  157.7230 H   0  0  0  0  0  0  0  0  0  0  0  0
  152.5863  136.4339  156.8432 H   0  0  0  0  0  0  0  0  0  0  0  0
  1  2  1  0  0  0  0
  1 22  1  0  0  0  0
  1 23  1  0  0  0  0
  1 24  1  0  0  0  0
  2  7  1  0  0  0  0
  2  3  2  0  0  0  0
  3  4  1  0  0  0  0
  3 25  1  0  0  0  0
  4  5  2  0  0  0  0
  4 26  1  0  0  0  0
  5  6  1  0  0  0  0
  5 27  1  0  0  0  0
  6  7  2  0  0  0  0
  7  8  1  0  0  0  0
  8  9  1  0  0  0  0
  8 28  1  0  0  0  0
  9 10  2  0  0  0  0
  9 11  1  0  0  0  0
 11 12  1  0  0  0  0
 11 29  1  0  0  0  0
 12 13  1  0  0  0  0
 12 30  1  0  0  0  0
 12 31  1  0  0  0  0
 13 14  1  0  0  0  0
 13 32  1  0  0  0  0
 13 33  1  0  0  0  0
 14 21  1  0  0  0  0
 14 15  1  0  0  0  0
 15 16  1  0  0  0  0
 15 34  1  0  0  0  0
 15 35  1  0  0  0  0
 16 17  1  0  0  0  0
 16 18  1  0  0  0  0
 16 36  1  0  0  0  0
 17 37  1  0  0  0  0
 17 38  1  0  0  0  0
 17 39  1  0  0  0  0
 18 19  1  0  0  0  0
 19 20  1  0  0  0  0
 19 21  1  0  0  0  0
 19 40  1  0  0  0  0
 20 41  1  0  0  0  0
 20 42  1  0  0  0  0
 20 43  1  0  0  0  0
 21 44  1  0  0  0  0
 21 45  1  0  0  0  0
M  END
> <s_m_source_file>
AV-unprocessed.smi

> <i_m_source_file_index>
1774

> <i_lp_mmshare_version>
43012

> <i_f3d_flags>
0

> <s_epik_input>
W0NIM11jMVtjSF1bY0hdW2NIXW5jMVtOSF1DKD1PKVtOSF1bQ0gyXVtDSDJdTjJbQ0gyXVtDQEBIXShbQ0gzXSlPW0NAQEhdKFtDSDNdKVtDSDJdMg==

> <s_epik_cmdline>
J2VwaWtfcHl0aG9uJywgJy1waCcsICc3LjAnLCAnLXRuJywgJzgnLCAnLW1hJywgJzIwMCcsICctbWV0YWxfYmluZGluZycsICctaW1hZScsICc8aW5maWxlLm1hZT4nLCAnLW9tYWUnLCAnPG91dGZpbGUubWFlPic=

> <r_epik_Ionization_Penalty>
0.266047

> <r_epik_Ionization_Penalty_Charging>
0

> <r_epik_Ionization_Penalty_Neutral>
0.266047

> <r_epik_State_Penalty>
0.257924

> <r_epik_Charging_Adjusted_Penalty>
0.257924

> <i_epik_Tot_Q>
0

> <i_epik_Tot_abs_Q>
0

> <r_epik_Metal_State_Penalty>
0.257922

> <b_epik_Metal_Only>
0

> <s_lp_Force_Field>
OPLS_2005

> <r_lp_Energy>
30.3596

> <b_lp_Chiralities_Consistent>
1

> <s_lp_Variant>
AV-unprocessed.smi:1774-3

> <Gold.Version>
5.8.1

> <Gold.Id.Protein>
6NUR|6NUR_protein|mol2

> <Gold.PLP.Fitness>
41.2169

> <Gold.PLP.PLP>
-35.2683

> <Gold.PLP.part.hbond>
-2.9667

> <Gold.PLP.part.metal>
0.0000

> <Gold.PLP.part.buried>
-4.0875

> <Gold.PLP.part.nonpolar>
-27.8623

> <Gold.PLP.part.repulsive>
0.2349

> <Gold.PLP.ligand.clash>
0.0000

> <Gold.PLP.ligand.torsion>
1.4846

> <Gold.PLP.Chemscore.Hbond>
2.9280

> <Gold.PLP.Chemscore.CHOScore>
0.0000

> <Gold.PLP.Chemscore.Metal>
0.0000

> <Gold.Chemscore.Hbonds>
donor molecule, donor type, donor heavy atom, donor atom, acceptor molecule, acceptor atom, score
      L1  H     8    28       P1  7948  0.96
      L1  H    11    29       P1  7948  1.00
      P1  H  7997  8009       L1    18  1.00

> <Gold.PLP.Chemscore.Internal.Correction>
0.1338

> <Gold.Rescore>
     Score         DG    S(hbond)    S(metal)    S(lipo)     H(rot)  DE(clash)    DE(int)     intcor
     18.95     -20.58       2.79        0.00      81.30       1.46       0.04       1.58       ----

> <Gold.Chemscore.Fitness>
18.9515

> <Gold.Chemscore.DG>
-20.5760

> <Gold.Chemscore.ZeroCoef>
-5.4800

> <Gold.Chemscore.Hbond>
2.7879

> <Gold.Chemscore.Metal>
0.0000

> <Gold.Chemscore.Lipo>
81.3004

> <Gold.Chemscore.Internal_Hbond>
0.0000

> <Gold.Chemscore.DEClash>
0.0401

> <Gold.Chemscore.DEInternal>
1.5844

> <Gold.Chemscore.Rot>
1.4562

> <Gold.Chemscore.Internal.Correction>
   9.000000E+99

> <Gold.Chemscore.Hbonds>
donor molecule, donor type, donor heavy atom, donor atom, acceptor molecule, acceptor atom, score
      L1  H     8    28       P1  7948  0.79
      L1  H    11    29       P1  7948  0.96
      P1  H  7997  8009       L1    18  0.74

> <Gold.Chemscore.Hbond.Weighted>
-9.3117

> <Gold.Chemscore.Metal.Weighted>
-0.0000

> <Gold.Chemscore.Lipo.Weighted>
-9.5121

> <Gold.Chemscore.Internal_Hbond.Weighted>
0.0000

> <Gold.Chemscore.DEClash.Weighted>
0.0401

> <Gold.Chemscore.DEInternal.Weighted>
1.5844

> <Gold.Chemscore.Rot.Weighted>
3.7278

> <Gold.Chemscore.Internal.Correction.Weighted>
   9.000000E+99

> <Gold.Protein.RotatedTorsions>
[ 6907 6896 6895 6894 ] final   20.05 input  -60.11 | X-H torsion
[ 7974 7965 7964 7962 ] final -136.70 input  175.53 | X-H torsion
[ 8008 7997 7996 7995 ] final -171.64 input   59.86 | X-H torsion
[ 10167 10162 10161 10158 ] final   50.94 input  -65.29 | X-H torsion
[ 10718 10713 10712 10709 ] final  147.13 input   66.30 | X-H torsion
[ 10763 10752 10751 10750 ] final -152.91 input  -60.55 | X-H torsion
[ 11005 11000 10999 10996 ] final   79.07 input  -57.11 | X-H torsion

> <Gold.Protein.ActiveResidues>
 VAL166  LYS551  ARG553  GLY616  TRP617  ASP618  TYR619  PRO620  LYS621  CYS622 
 ASP623  PHE694  ASN695  SER759  ASP760  ASP761  ALA762  ILE779  LEU786  VAL792 
 PHE793  MET794  SER795  GLU796  ALA797  LYS798  CYS799  TRP800  GLU811  SER814 

> <Gold.Protein.RotatedAtoms>
  151.8904  135.0419  160.0496 H   0  0  0  0  0  0  0  0  0  0  0  0  # atno 6907 bound_to 6896
  152.2441  133.5155  159.5295 H   0  0  0  0  0  0  0  0  0  0  0  0  # atno 6908 bound_to 6896
  150.7062  134.0966  159.3993 H   0  0  0  0  0  0  0  0  0  0  0  0  # atno 6909 bound_to 6896
  144.8905  140.6635  143.5148 H   0  0  0  0  0  0  0  0  0  0  0  0  # atno 7974 bound_to 7965
  155.9342  140.1097  157.1108 H   0  0  0  0  0  0  0  0  0  0  0  0  # atno 8008 bound_to 7997
  154.4076  140.1231  156.4908 H   0  0  0  0  0  0  0  0  0  0  0  0  # atno 8009 bound_to 7997
  155.7042  140.3471  155.4948 H   0  0  0  0  0  0  0  0  0  0  0  0  # atno 8010 bound_to 7997
  140.2671  144.3307  150.6301 H   0  0  0  0  0  0  0  0  0  0  0  0  # atno 10167 bound_to 10162
  157.3248  131.0910  151.1211 H   0  0  0  0  0  0  0  0  0  0  0  0  # atno 10718 bound_to 10713
  154.7963  135.3225  154.7659 H   0  0  0  0  0  0  0  0  0  0  0  0  # atno 10763 bound_to 10752
  153.8337  135.6877  153.4815 H   0  0  0  0  0  0  0  0  0  0  0  0  # atno 10764 bound_to 10752
  153.1656  135.4643  154.9774 H   0  0  0  0  0  0  0  0  0  0  0  0  # atno 10765 bound_to 10752
  139.9187  134.7814  156.1731 H   0  0  0  0  0  0  0  0  0  0  0  0  # atno 11005 bound_to 11000
  145.3792  139.1641  143.4290 LP  0  0  0  0  0  0  0  0  0  0  0  0  # atno 17320 bound_to 7965
  146.3050  140.3871  142.8690 LP  0  0  0  0  0  0  0  0  0  0  0  0  # atno 17321 bound_to 7965
  140.5919  143.2168  151.7236 LP  0  0  0  0  0  0  0  0  0  0  0  0  # atno 17342 bound_to 10162
  139.4999  144.3925  152.0265 LP  0  0  0  0  0  0  0  0  0  0  0  0  # atno 17343 bound_to 10162
  157.2482  130.6601  149.5920 LP  0  0  0  0  0  0  0  0  0  0  0  0  # atno 17370 bound_to 10713
  155.9689  130.4546  150.5858 LP  0  0  0  0  0  0  0  0  0  0  0  0  # atno 17371 bound_to 10713
  141.0688  133.6806  156.2098 LP  0  0  0  0  0  0  0  0  0  0  0  0  # atno 17394 bound_to 11000
  140.6541  134.5036  157.5579 LP  0  0  0  0  0  0  0  0  0  0  0  0  # atno 17395 bound_to 11000

$$$$
