AV-unprocessed.smi:3350|AV-procd|sdf|12946|dock2
  -GOLD-   2272019383D 1   1.00000     0.00000
 Structure written by MMmdl.
 41 42  0  0  0  0  0  0  0  0  1 V2000
  150.9847  137.5174  155.4516 C   0  0  0  0  0  0  0  0  0  0  0  0
  149.6857  138.2631  155.1177 C   0  0  1  0  0  0  0  0  0  0  0  0
  149.9742  139.6089  154.4172 C   0  0  0  0  0  0  0  0  0  0  0  0
  148.7662  140.3604  154.1240 N   0  0  0  0  0  0  0  0  0  0  0  0
  148.4956  141.6863  154.3920 C   0  0  0  0  0  0  0  0  0  0  0  0
  147.2458  141.9507  153.9108 C   0  0  0  0  0  0  0  0  0  0  0  0
  146.8244  140.7065  153.3638 C   0  0  0  0  0  0  0  0  0  0  0  0
  147.7347  139.7554  153.4967 N   0  0  0  0  0  0  0  0  0  0  0  0
  148.8501  137.4091  154.2740 N   0  0  0  0  0  0  0  0  0  0  0  0
  147.7011  136.8282  154.6494 C   0  0  0  0  0  0  0  0  0  0  0  0
  147.2255  136.9011  155.7825 O   0  0  0  0  0  0  0  0  0  0  0  0
  147.1169  136.1830  153.6310 N   0  0  0  0  0  0  0  0  0  0  0  0
  145.8284  135.4975  153.6974 C   0  0  1  0  0  0  0  0  0  0  0  0
  144.7370  136.4767  154.1634 C   0  0  0  0  0  0  0  0  0  0  0  0
  145.4949  134.8812  152.3257 C   0  0  1  0  0  0  0  0  0  0  0  0
  146.4746  133.8077  151.8496 C   0  0  0  0  0  0  0  0  0  0  0  0
  145.6474  132.9803  150.8792 C   0  0  0  0  0  0  0  0  0  0  0  0
  144.1990  133.3499  151.2135 C   0  0  0  0  0  0  0  0  0  0  0  0
  144.2749  134.1585  152.3798 O   0  0  0  0  0  0  0  0  0  0  0  0
  151.6214  138.1146  156.1051 H   0  0  0  0  0  0  0  0  0  0  0  0
  151.5552  137.2872  154.5511 H   0  0  0  0  0  0  0  0  0  0  0  0
  150.7776  136.5778  155.9651 H   0  0  0  0  0  0  0  0  0  0  0  0
  149.1777  138.4616  156.0632 H   0  0  0  0  0  0  0  0  0  0  0  0
  150.6140  140.2302  155.0456 H   0  0  0  0  0  0  0  0  0  0  0  0
  150.5187  139.4467  153.4859 H   0  0  0  0  0  0  0  0  0  0  0  0
  149.2112  142.3257  154.8878 H   0  0  0  0  0  0  0  0  0  0  0  0
  146.7145  142.8903  153.9421 H   0  0  0  0  0  0  0  0  0  0  0  0
  145.8900  140.4679  152.8776 H   0  0  0  0  0  0  0  0  0  0  0  0
  149.1521  137.2838  153.3191 H   0  0  0  0  0  0  0  0  0  0  0  0
  147.5858  136.1814  152.7372 H   0  0  0  0  0  0  0  0  0  0  0  0
  145.8995  134.6854  154.4235 H   0  0  0  0  0  0  0  0  0  0  0  0
  143.7689  135.9808  154.2364 H   0  0  0  0  0  0  0  0  0  0  0  0
  144.6306  137.3121  153.4706 H   0  0  0  0  0  0  0  0  0  0  0  0
  144.9657  136.8880  155.1473 H   0  0  0  0  0  0  0  0  0  0  0  0
  145.4083  135.6626  151.5677 H   0  0  0  0  0  0  0  0  0  0  0  0
  147.3719  134.2252  151.3918 H   0  0  0  0  0  0  0  0  0  0  0  0
  146.7844  133.1836  152.6891 H   0  0  0  0  0  0  0  0  0  0  0  0
  145.8768  133.2377  149.8444 H   0  0  0  0  0  0  0  0  0  0  0  0
  145.8373  131.9144  151.0104 H   0  0  0  0  0  0  0  0  0  0  0  0
  143.7546  133.9293  150.4032 H   0  0  0  0  0  0  0  0  0  0  0  0
  143.5735  132.4743  151.3879 H   0  0  0  0  0  0  0  0  0  0  0  0
  1  2  1  0  0  0  0
  1 20  1  0  0  0  0
  1 21  1  0  0  0  0
  1 22  1  0  0  0  0
  2  3  1  0  0  0  0
  2  9  1  0  0  0  0
  2 23  1  0  0  0  0
  3  4  1  0  0  0  0
  3 24  1  0  0  0  0
  3 25  1  0  0  0  0
  4  8  1  0  0  0  0
  4  5  1  0  0  0  0
  5  6  2  0  0  0  0
  5 26  1  0  0  0  0
  6  7  1  0  0  0  0
  6 27  1  0  0  0  0
  7  8  2  0  0  0  0
  7 28  1  0  0  0  0
  9 10  1  0  0  0  0
  9 29  1  0  0  0  0
 10 11  2  0  0  0  0
 10 12  1  0  0  0  0
 12 13  1  0  0  0  0
 12 30  1  0  0  0  0
 13 14  1  0  0  0  0
 13 15  1  0  0  0  0
 13 31  1  0  0  0  0
 14 32  1  0  0  0  0
 14 33  1  0  0  0  0
 14 34  1  0  0  0  0
 15 19  1  0  0  0  0
 15 16  1  0  0  0  0
 15 35  1  0  0  0  0
 16 17  1  0  0  0  0
 16 36  1  0  0  0  0
 16 37  1  0  0  0  0
 17 18  1  0  0  0  0
 17 38  1  0  0  0  0
 17 39  1  0  0  0  0
 18 19  1  0  0  0  0
 18 40  1  0  0  0  0
 18 41  1  0  0  0  0
M  END
> <s_m_source_file>
AV-unprocessed.smi

> <i_m_source_file_index>
3350

> <i_lp_mmshare_version>
43012

> <i_f3d_flags>
0

> <s_epik_input>
bjFbY0hdW2NIXVtjSF1uMVtDSDJdW0NAQEhdKFtDSDNdKVtOSF1DKD1PKVtOSF1bQ0BIXShbQ0gzXSlbQ0BASF0yW0NIMl1bQ0gyXVtDSDJdTzI=

> <s_epik_cmdline>
J2VwaWtfcHl0aG9uJywgJy1waCcsICc3LjAnLCAnLXRuJywgJzgnLCAnLW1hJywgJzIwMCcsICctbWV0YWxfYmluZGluZycsICctaW1hZScsICc8aW5maWxlLm1hZT4nLCAnLW9tYWUnLCAnPG91dGZpbGUubWFlPic=

> <r_lp_tautomer_probability>
1

> <r_epik_Ionization_Penalty>
6.42349e-05

> <r_epik_Ionization_Penalty_Charging>
0

> <r_epik_Ionization_Penalty_Neutral>
6.42349e-05

> <r_epik_State_Penalty>
-0

> <r_epik_Charging_Adjusted_Penalty>
0

> <i_epik_Tot_Q>
0

> <i_epik_Tot_abs_Q>
0

> <r_epik_Metal_State_Penalty>
-0

> <b_epik_Metal_Only>
0

> <s_lp_Force_Field>
OPLS_2005

> <r_lp_Energy>
15.5841

> <b_lp_Chiralities_Consistent>
1

> <s_lp_Variant>
AV-unprocessed.smi:3350-8

> <Gold.Version>
5.8.1

> <Gold.Id.Protein>
6NUR|6NUR_protein|mol2

> <Gold.PLP.Fitness>
38.1119

> <Gold.PLP.PLP>
-26.9852

> <Gold.PLP.part.hbond>
-2.0000

> <Gold.PLP.part.metal>
0.0000

> <Gold.PLP.part.buried>
-2.2271

> <Gold.PLP.part.nonpolar>
-22.9768

> <Gold.PLP.part.repulsive>
1.0354

> <Gold.PLP.ligand.clash>
0.0000

> <Gold.PLP.ligand.torsion>
0.1856

> <Gold.PLP.Chemscore.Hbond>
1.8960

> <Gold.PLP.Chemscore.CHOScore>
1.9223

> <Gold.PLP.Chemscore.Metal>
0.0000

> <Gold.Chemscore.Hbonds>
donor molecule, donor type, donor heavy atom, donor atom, acceptor molecule, acceptor atom, score
      L1  H     9    29       P1  7948  0.90
      L1  H    12    30       P1  7948  1.00
      L1  C     5    26       P1  8028  0.95
      L1  C     7    28       P1 10175  1.00

> <Gold.PLP.Chemscore.Internal.Correction>
0.0429

> <Gold.Rescore>
     Score         DG    S(hbond)    S(metal)    S(lipo)     H(rot)  DE(clash)    DE(int)     intcor
     14.27     -14.59       1.90        0.00      63.38       1.82       0.01       0.32       ----

> <Gold.Chemscore.Fitness>
14.2662

> <Gold.Chemscore.DG>
-14.5884

> <Gold.Chemscore.ZeroCoef>
-5.4800

> <Gold.Chemscore.Hbond>
1.9017

> <Gold.Chemscore.Metal>
0.0000

> <Gold.Chemscore.Lipo>
63.3769

> <Gold.Chemscore.Internal_Hbond>
0.0000

> <Gold.Chemscore.DEClash>
0.0071

> <Gold.Chemscore.DEInternal>
0.3151

> <Gold.Chemscore.Rot>
1.8197

> <Gold.Chemscore.Internal.Correction>
   9.000000E+99

> <Gold.Chemscore.Hbonds>
donor molecule, donor type, donor heavy atom, donor atom, acceptor molecule, acceptor atom, score
      L1  H     9    29       P1  7948  0.88
      L1  H    12    30       P1  7948  0.95

> <Gold.Chemscore.Hbond.Weighted>
-6.3516

> <Gold.Chemscore.Metal.Weighted>
-0.0000

> <Gold.Chemscore.Lipo.Weighted>
-7.4151

> <Gold.Chemscore.Internal_Hbond.Weighted>
0.0000

> <Gold.Chemscore.DEClash.Weighted>
0.0071

> <Gold.Chemscore.DEInternal.Weighted>
0.3151

> <Gold.Chemscore.Rot.Weighted>
4.6583

> <Gold.Chemscore.Internal.Correction.Weighted>
   9.000000E+99

> <Gold.Protein.RotatedTorsions>
[ 6907 6896 6895 6894 ] final   33.22 input  -60.11 | X-H torsion
[ 7974 7965 7964 7962 ] final  -92.60 input  175.53 | X-H torsion
[ 8008 7997 7996 7995 ] final   95.76 input   59.86 | X-H torsion
[ 10167 10162 10161 10158 ] final   -3.25 input  -65.29 | X-H torsion
[ 10718 10713 10712 10709 ] final  -75.37 input   66.30 | X-H torsion
[ 10763 10752 10751 10750 ] final  152.62 input  -60.55 | X-H torsion
[ 11005 11000 10999 10996 ] final   20.69 input  -57.11 | X-H torsion

> <Gold.Protein.ActiveResidues>
 VAL166  LYS551  ARG553  GLY616  TRP617  ASP618  TYR619  PRO620  LYS621  CYS622 
 ASP623  PHE694  ASN695  SER759  ASP760  ASP761  ALA762  ILE779  LEU786  VAL792 
 PHE793  MET794  SER795  GLU796  ALA797  LYS798  CYS799  TRP800  GLU811  SER814 

> <Gold.Protein.RotatedAtoms>
  152.0855  134.9442  160.0572 H   0  0  0  0  0  0  0  0  0  0  0  0  # atno 6907 bound_to 6896
  152.0714  133.4104  159.4469 H   0  0  0  0  0  0  0  0  0  0  0  0  # atno 6908 bound_to 6896
  150.6836  134.3007  159.4748 H   0  0  0  0  0  0  0  0  0  0  0  0  # atno 6909 bound_to 6896
  145.3976  140.9534  143.2305 H   0  0  0  0  0  0  0  0  0  0  0  0  # atno 7974 bound_to 7965
  156.0724  140.3282  155.7592 H   0  0  0  0  0  0  0  0  0  0  0  0  # atno 8008 bound_to 7997
  155.5284  140.0591  157.2911 H   0  0  0  0  0  0  0  0  0  0  0  0  # atno 8009 bound_to 7997
  154.4537  140.1931  156.0460 H   0  0  0  0  0  0  0  0  0  0  0  0  # atno 8010 bound_to 7997
  140.6883  143.6562  150.8307 H   0  0  0  0  0  0  0  0  0  0  0  0  # atno 10167 bound_to 10162
  156.0210  130.4439  150.3033 H   0  0  0  0  0  0  0  0  0  0  0  0  # atno 10718 bound_to 10713
  154.1229  135.2831  155.3204 H   0  0  0  0  0  0  0  0  0  0  0  0  # atno 10763 bound_to 10752
  154.6410  135.5402  153.7792 H   0  0  0  0  0  0  0  0  0  0  0  0  # atno 10764 bound_to 10752
  153.0306  135.6486  154.1383 H   0  0  0  0  0  0  0  0  0  0  0  0  # atno 10765 bound_to 10752
  140.3998  134.1730  155.7663 H   0  0  0  0  0  0  0  0  0  0  0  0  # atno 11005 bound_to 11000
  144.8396  139.5493  143.6906 LP  0  0  0  0  0  0  0  0  0  0  0  0  # atno 17320 bound_to 7965
  146.2767  139.6772  142.9258 LP  0  0  0  0  0  0  0  0  0  0  0  0  # atno 17321 bound_to 7965
  140.0271  143.5481  152.2776 LP  0  0  0  0  0  0  0  0  0  0  0  0  # atno 17342 bound_to 10162
  139.6261  144.7637  151.2636 LP  0  0  0  0  0  0  0  0  0  0  0  0  # atno 17343 bound_to 10162
  157.1135  131.0228  151.3038 LP  0  0  0  0  0  0  0  0  0  0  0  0  # atno 17370 bound_to 10713
  157.4685  130.7695  149.7301 LP  0  0  0  0  0  0  0  0  0  0  0  0  # atno 17371 bound_to 10713
  141.1861  133.8310  157.1082 LP  0  0  0  0  0  0  0  0  0  0  0  0  # atno 17394 bound_to 11000
  140.0344  134.9885  157.0843 LP  0  0  0  0  0  0  0  0  0  0  0  0  # atno 17395 bound_to 11000

$$$$
