AV-unprocessed.smi:2560|AV-procd|sdf|10039|dock6
  -GOLD-   2272014 83D 1   1.00000     0.00000
 Structure written by MMmdl.
 31 32  0  0  0  0  0  0  0  0  1 V2000
  146.1234  137.8666  152.4291 C   0  0  0  0  0  0  0  0  0  0  0  0
  146.7403  139.5538  152.1809 S   0  0  0  0  0  0  0  0  0  0  0  0
  148.0258  139.7784  153.3674 C   0  0  0  0  0  0  0  0  0  0  0  0
  148.8036  138.7455  153.7386 N   0  0  0  0  0  0  0  0  0  0  0  0
  149.9252  139.2978  154.8766 S   0  0  0  0  0  0  0  0  0  0  0  0
  149.2741  140.9075  154.7822 C   0  0  0  0  0  0  0  0  0  0  0  0
  149.7986  141.9911  155.5450 N   0  0  0  0  0  0  0  0  0  0  0  0
  150.7550  142.0267  156.4978 C   0  0  0  0  0  0  0  0  0  0  0  0
  151.3428  141.0042  156.8457 O   0  0  0  0  0  0  0  0  0  0  0  0
  151.0172  143.2325  157.0291 N   0  0  0  0  0  0  0  0  0  0  0  0
  152.0097  143.5178  158.0585 C   0  0  1  0  0  0  0  0  0  0  0  0
  151.7900  144.9286  158.5820 C   0  0  0  0  0  0  0  0  0  0  0  0
  151.8142  145.2565  159.8850 C   0  0  0  0  0  0  0  0  0  0  0  0
  152.0822  144.2571  160.9945 C   0  0  0  0  0  0  0  0  0  0  0  0
  152.6765  142.9435  160.4575 C   0  0  0  0  0  0  0  0  0  0  0  0
  151.9482  142.4666  159.1918 C   0  0  0  0  0  0  0  0  0  0  0  0
  148.2581  140.9808  153.9226 N   0  0  0  0  0  0  0  0  0  0  0  0
  145.3170  137.6546  151.7274 H   0  0  0  0  0  0  0  0  0  0  0  0
  145.7414  137.7429  153.4425 H   0  0  0  0  0  0  0  0  0  0  0  0
  146.9224  137.1428  152.2670 H   0  0  0  0  0  0  0  0  0  0  0  0
  149.3648  142.8829  155.3551 H   0  0  0  0  0  0  0  0  0  0  0  0
  150.4844  144.0185  156.6850 H   0  0  0  0  0  0  0  0  0  0  0  0
  153.0029  143.5070  157.6064 H   0  0  0  0  0  0  0  0  0  0  0  0
  151.6006  145.6964  157.8458 H   0  0  0  0  0  0  0  0  0  0  0  0
  151.6255  146.2769  160.1846 H   0  0  0  0  0  0  0  0  0  0  0  0
  152.7608  144.7007  161.7235 H   0  0  0  0  0  0  0  0  0  0  0  0
  151.1417  144.0637  161.5113 H   0  0  0  0  0  0  0  0  0  0  0  0
  153.7314  143.0921  160.2237 H   0  0  0  0  0  0  0  0  0  0  0  0
  152.6383  142.1748  161.2296 H   0  0  0  0  0  0  0  0  0  0  0  0
  150.9078  142.2599  159.4476 H   0  0  0  0  0  0  0  0  0  0  0  0
  152.3729  141.5218  158.8506 H   0  0  0  0  0  0  0  0  0  0  0  0
  1  2  1  0  0  0  0
  1 18  1  0  0  0  0
  1 19  1  0  0  0  0
  1 20  1  0  0  0  0
  2  3  1  0  0  0  0
  3 17  1  0  0  0  0
  3  4  2  0  0  0  0
  4  5  1  0  0  0  0
  5  6  1  0  0  0  0
  6  7  1  0  0  0  0
  6 17  2  0  0  0  0
  7  8  1  0  0  0  0
  7 21  1  0  0  0  0
  8  9  2  0  0  0  0
  8 10  1  0  0  0  0
 10 11  1  0  0  0  0
 10 22  1  0  0  0  0
 11 16  1  0  0  0  0
 11 12  1  0  0  0  0
 11 23  1  0  0  0  0
 12 13  2  0  0  0  0
 12 24  1  0  0  0  0
 13 14  1  0  0  0  0
 13 25  1  0  0  0  0
 14 15  1  0  0  0  0
 14 26  1  0  0  0  0
 14 27  1  0  0  0  0
 15 16  1  0  0  0  0
 15 28  1  0  0  0  0
 15 29  1  0  0  0  0
 16 30  1  0  0  0  0
 16 31  1  0  0  0  0
M  END
> <s_m_source_file>
AV-unprocessed.smi

> <i_m_source_file_index>
2560

> <i_lp_mmshare_version>
43012

> <i_f3d_flags>
0

> <s_epik_input>
W0NIM11TYzFuc2MobjEpW05IXUMoPU8pW05IXVtDQEBIXTJbQ0hdPVtDSF1bQ0gyXVtDSDJdW0NIMl0y

> <s_epik_cmdline>
J2VwaWtfcHl0aG9uJywgJy1waCcsICc3LjAnLCAnLXRuJywgJzgnLCAnLW1hJywgJzIwMCcsICctbWV0YWxfYmluZGluZycsICctaW1hZScsICc8aW5maWxlLm1hZT4nLCAnLW9tYWUnLCAnPG91dGZpbGUubWFlPic=

> <r_lp_tautomer_probability>
1

> <r_epik_Ionization_Penalty>
2.65559e-05

> <r_epik_Ionization_Penalty_Charging>
0

> <r_epik_Ionization_Penalty_Neutral>
2.65559e-05

> <r_epik_State_Penalty>
-0

> <r_epik_Charging_Adjusted_Penalty>
0

> <i_epik_Tot_Q>
0

> <i_epik_Tot_abs_Q>
0

> <r_epik_Metal_State_Penalty>
-0

> <b_epik_Metal_Only>
0

> <s_lp_Force_Field>
OPLS_2005

> <r_lp_Energy>
8.24661

> <b_lp_Chiralities_Consistent>
1

> <s_lp_Variant>
AV-unprocessed.smi:2560-2

> <Gold.Version>
5.8.1

> <Gold.Id.Protein>
6NUR|6NUR_protein|mol2

> <Gold.PLP.Fitness>
44.0308

> <Gold.PLP.PLP>
-39.0853

> <Gold.PLP.part.hbond>
-2.0000

> <Gold.PLP.part.metal>
0.0000

> <Gold.PLP.part.buried>
-1.9667

> <Gold.PLP.part.nonpolar>
-36.9219

> <Gold.PLP.part.repulsive>
1.1452

> <Gold.PLP.ligand.clash>
0.0000

> <Gold.PLP.ligand.torsion>
0.5308

> <Gold.PLP.Chemscore.Hbond>
2.0000

> <Gold.PLP.Chemscore.CHOScore>
0.0000

> <Gold.PLP.Chemscore.Metal>
0.0000

> <Gold.Chemscore.Hbonds>
donor molecule, donor type, donor heavy atom, donor atom, acceptor molecule, acceptor atom, score
      L1  H     7    21       P1  8028  1.00
      L1  H    10    22       P1  8028  1.00

> <Gold.PLP.Chemscore.Internal.Correction>
0.0072

> <Gold.Rescore>
     Score         DG    S(hbond)    S(metal)    S(lipo)     H(rot)  DE(clash)    DE(int)     intcor
     16.32     -19.44       1.94        0.00      91.22       1.25       0.04       3.07       ----

> <Gold.Chemscore.Fitness>
16.3239

> <Gold.Chemscore.DG>
-19.4369

> <Gold.Chemscore.ZeroCoef>
-5.4800

> <Gold.Chemscore.Hbond>
1.9433

> <Gold.Chemscore.Metal>
0.0000

> <Gold.Chemscore.Lipo>
91.2183

> <Gold.Chemscore.Internal_Hbond>
0.0000

> <Gold.Chemscore.DEClash>
0.0390

> <Gold.Chemscore.DEInternal>
3.0739

> <Gold.Chemscore.Rot>
1.2524

> <Gold.Chemscore.Internal.Correction>
   9.000000E+99

> <Gold.Chemscore.Hbonds>
donor molecule, donor type, donor heavy atom, donor atom, acceptor molecule, acceptor atom, score
      L1  H     7    21       P1  8028  0.99
      L1  H    10    22       P1  8028  0.92

> <Gold.Chemscore.Hbond.Weighted>
-6.4905

> <Gold.Chemscore.Metal.Weighted>
-0.0000

> <Gold.Chemscore.Lipo.Weighted>
-10.6725

> <Gold.Chemscore.Internal_Hbond.Weighted>
0.0000

> <Gold.Chemscore.DEClash.Weighted>
0.0390

> <Gold.Chemscore.DEInternal.Weighted>
3.0739

> <Gold.Chemscore.Rot.Weighted>
3.2062

> <Gold.Chemscore.Internal.Correction.Weighted>
   9.000000E+99

> <Gold.Protein.RotatedTorsions>
[ 6907 6896 6895 6894 ] final   51.26 input  -60.11 | X-H torsion
[ 7974 7965 7964 7962 ] final   52.27 input  175.53 | X-H torsion
[ 8008 7997 7996 7995 ] final  -63.97 input   59.86 | X-H torsion
[ 10167 10162 10161 10158 ] final   28.22 input  -65.29 | X-H torsion
[ 10718 10713 10712 10709 ] final  166.96 input   66.30 | X-H torsion
[ 10763 10752 10751 10750 ] final  -16.54 input  -60.55 | X-H torsion
[ 11005 11000 10999 10996 ] final  -94.11 input  -57.11 | X-H torsion

> <Gold.Protein.ActiveResidues>
 VAL166  LYS551  ARG553  GLY616  TRP617  ASP618  TYR619  PRO620  LYS621  CYS622 
 ASP623  PHE694  ASN695  SER759  ASP760  ASP761  ALA762  ILE779  LEU786  VAL792 
 PHE793  MET794  SER795  GLU796  ALA797  LYS798  CYS799  TRP800  GLU811  SER814 

> <Gold.Protein.RotatedAtoms>
  152.3107  134.7501  160.0336 H   0  0  0  0  0  0  0  0  0  0  0  0  # atno 6907 bound_to 6896
  151.7983  133.3361  159.3527 H   0  0  0  0  0  0  0  0  0  0  0  0  # atno 6908 bound_to 6896
  150.7319  134.5708  159.5934 H   0  0  0  0  0  0  0  0  0  0  0  0  # atno 6909 bound_to 6896
  145.9830  139.4261  143.0120 H   0  0  0  0  0  0  0  0  0  0  0  0  # atno 7974 bound_to 7965
  154.4584  140.0963  156.6825 H   0  0  0  0  0  0  0  0  0  0  0  0  # atno 8008 bound_to 7997
  155.5067  140.3475  155.4362 H   0  0  0  0  0  0  0  0  0  0  0  0  # atno 8009 bound_to 7997
  156.0824  140.1376  156.9685 H   0  0  0  0  0  0  0  0  0  0  0  0  # atno 8010 bound_to 7997
  140.4872  144.0524  150.6284 H   0  0  0  0  0  0  0  0  0  0  0  0  # atno 10167 bound_to 10162
  157.0584  131.0333  151.2656 H   0  0  0  0  0  0  0  0  0  0  0  0  # atno 10718 bound_to 10713
  153.5601  135.7010  153.5551 H   0  0  0  0  0  0  0  0  0  0  0  0  # atno 10763 bound_to 10752
  153.3437  135.4014  155.1592 H   0  0  0  0  0  0  0  0  0  0  0  0  # atno 10764 bound_to 10752
  154.8649  135.3748  154.5118 H   0  0  0  0  0  0  0  0  0  0  0  0  # atno 10765 bound_to 10752
  141.1479  133.7933  157.0253 H   0  0  0  0  0  0  0  0  0  0  0  0  # atno 11005 bound_to 11000
  145.7741  140.9884  143.1134 LP  0  0  0  0  0  0  0  0  0  0  0  0  # atno 17320 bound_to 7965
  144.6867  139.9484  143.7477 LP  0  0  0  0  0  0  0  0  0  0  0  0  # atno 17321 bound_to 7965
  140.3783  143.2816  152.0199 LP  0  0  0  0  0  0  0  0  0  0  0  0  # atno 17342 bound_to 10162
  139.4844  144.6175  151.7318 LP  0  0  0  0  0  0  0  0  0  0  0  0  # atno 17343 bound_to 10162
  157.4975  130.7859  149.7570 LP  0  0  0  0  0  0  0  0  0  0  0  0  # atno 17370 bound_to 10713
  155.9986  130.3893  150.2696 LP  0  0  0  0  0  0  0  0  0  0  0  0  # atno 17371 bound_to 10713
  140.0789  134.9659  157.1592 LP  0  0  0  0  0  0  0  0  0  0  0  0  # atno 17394 bound_to 11000
  140.3604  134.2500  155.7188 LP  0  0  0  0  0  0  0  0  0  0  0  0  # atno 17395 bound_to 11000

$$$$
