AV-unprocessed.smi:2973|AV-procd|sdf|11344|dock2
  -GOLD-   2272016253D 1   1.00000     0.00000
 Structure written by MMmdl.
 50 52  0  0  0  0  0  0  0  0  2 V2000
  147.9261  133.4952  161.2933 C   0  0  0  0  0  0  0  0  0  0  0  0
  146.5950  134.2631  161.1522 C   0  0  1  0  0  0  0  0  0  0  0  0
  146.0899  134.7403  162.5313 C   0  0  0  0  0  0  0  0  0  0  0  0
  144.7159  135.4205  162.4280 C   0  0  0  0  0  0  0  0  0  0  0  0
  144.7415  136.5913  161.4355 C   0  0  0  0  0  0  0  0  0  0  0  0
  145.2428  136.1378  160.0527 C   0  0  0  0  0  0  0  0  0  0  0  0
  146.6174  135.4241  160.1078 C   0  0  2  0  0  0  0  0  0  0  0  0
  146.9645  134.9346  158.7848 N   0  0  0  0  0  0  0  0  0  0  0  0
  148.0608  135.5116  158.2786 C   0  0  0  0  0  0  0  0  0  0  0  0
  148.5393  135.2762  157.1702 O   0  0  0  0  0  0  0  0  0  0  0  0
  148.5368  136.3825  159.1855 N   0  0  0  0  0  0  0  0  0  0  0  0
  149.7205  137.2252  158.9737 C   0  0  0  0  0  0  0  0  0  0  0  0
  149.4730  138.3706  157.9822 C   0  0  0  0  0  0  0  0  0  0  0  0
  148.9479  138.1595  156.8879 O   0  0  0  0  0  0  0  0  0  0  0  0
  149.8519  139.5911  158.3896 N   0  0  0  0  0  0  0  0  0  0  0  0
  149.7132  140.8148  157.6093 C   0  0  0  0  0  0  0  0  0  0  0  0
  151.0815  141.4074  157.2315 C   0  0  0  0  0  0  0  0  0  0  0  0
  151.4286  142.6256  158.0642 C   0  0  0  0  0  0  0  0  0  0  0  0
  152.4217  142.5906  159.0671 C   0  0  0  0  0  0  0  0  0  0  0  0
  152.7008  143.7624  159.8011 C   0  0  0  0  0  0  0  0  0  0  0  0
  151.9829  144.9427  159.5164 C   0  0  0  0  0  0  0  0  0  0  0  0
  151.0036  144.9217  158.5024 C   0  0  0  0  0  0  0  0  0  0  0  0
  150.7660  143.7796  157.8207 N   0  3  0  0  0  0  0  0  0  0  0  0
  147.7707  136.4147  160.2844 C   0  0  0  0  0  0  0  0  0  0  0  0
  147.9433  137.1179  161.2800 O   0  0  0  0  0  0  0  0  0  0  0  0
  148.7178  134.1265  161.6975 H   0  0  0  0  0  0  0  0  0  0  0  0
  148.2680  133.1014  160.3362 H   0  0  0  0  0  0  0  0  0  0  0  0
  147.8123  132.6459  161.9672 H   0  0  0  0  0  0  0  0  0  0  0  0
  145.8676  133.5345  160.7904 H   0  0  0  0  0  0  0  0  0  0  0  0
  146.0170  133.8916  163.2119 H   0  0  0  0  0  0  0  0  0  0  0  0
  146.8070  135.4262  162.9827 H   0  0  0  0  0  0  0  0  0  0  0  0
  143.9704  134.6904  162.1104 H   0  0  0  0  0  0  0  0  0  0  0  0
  144.4016  135.7742  163.4103 H   0  0  0  0  0  0  0  0  0  0  0  0
  143.7422  137.0171  161.3428 H   0  0  0  0  0  0  0  0  0  0  0  0
  145.3736  137.3894  161.8246 H   0  0  0  0  0  0  0  0  0  0  0  0
  144.5053  135.4629  159.6161 H   0  0  0  0  0  0  0  0  0  0  0  0
  145.2869  137.0007  159.3857 H   0  0  0  0  0  0  0  0  0  0  0  0
  146.4145  134.2406  158.2997 H   0  0  0  0  0  0  0  0  0  0  0  0
  150.0579  137.6535  159.9190 H   0  0  0  0  0  0  0  0  0  0  0  0
  150.5475  136.6086  158.6167 H   0  0  0  0  0  0  0  0  0  0  0  0
  150.2675  139.6762  159.3063 H   0  0  0  0  0  0  0  0  0  0  0  0
  149.1213  140.6183  156.7136 H   0  0  0  0  0  0  0  0  0  0  0  0
  149.1469  141.5308  158.2053 H   0  0  0  0  0  0  0  0  0  0  0  0
  151.8628  140.6568  157.3594 H   0  0  0  0  0  0  0  0  0  0  0  0
  151.0963  141.6885  156.1775 H   0  0  0  0  0  0  0  0  0  0  0  0
  152.9650  141.6791  159.2714 H   0  0  0  0  0  0  0  0  0  0  0  0
  153.4568  143.7560  160.5727 H   0  0  0  0  0  0  0  0  0  0  0  0
  152.1815  145.8505  160.0672 H   0  0  0  0  0  0  0  0  0  0  0  0
  150.4077  145.7766  158.2179 H   0  0  0  0  0  0  0  0  0  0  0  0
  150.0526  143.7876  157.0913 H   0  0  0  0  0  0  0  0  0  0  0  0
  1  2  1  0  0  0  0
  1 26  1  0  0  0  0
  1 27  1  0  0  0  0
  1 28  1  0  0  0  0
  2  7  1  0  0  0  0
  2  3  1  0  0  0  0
  2 29  1  0  0  0  0
  3  4  1  0  0  0  0
  3 30  1  0  0  0  0
  3 31  1  0  0  0  0
  4  5  1  0  0  0  0
  4 32  1  0  0  0  0
  4 33  1  0  0  0  0
  5  6  1  0  0  0  0
  5 34  1  0  0  0  0
  5 35  1  0  0  0  0
  6  7  1  0  0  0  0
  6 36  1  0  0  0  0
  6 37  1  0  0  0  0
  7 24  1  0  0  0  0
  7  8  1  0  0  0  0
  8  9  1  0  0  0  0
  8 38  1  0  0  0  0
  9 10  2  0  0  0  0
  9 11  1  0  0  0  0
 11 12  1  0  0  0  0
 11 24  1  0  0  0  0
 12 13  1  0  0  0  0
 12 39  1  0  0  0  0
 12 40  1  0  0  0  0
 13 14  2  0  0  0  0
 13 15  1  0  0  0  0
 15 16  1  0  0  0  0
 15 41  1  0  0  0  0
 16 17  1  0  0  0  0
 16 42  1  0  0  0  0
 16 43  1  0  0  0  0
 17 18  1  0  0  0  0
 17 44  1  0  0  0  0
 17 45  1  0  0  0  0
 18 23  1  0  0  0  0
 18 19  2  0  0  0  0
 19 20  1  0  0  0  0
 19 46  1  0  0  0  0
 20 21  2  0  0  0  0
 20 47  1  0  0  0  0
 21 22  1  0  0  0  0
 21 48  1  0  0  0  0
 22 23  2  0  0  0  0
 22 49  1  0  0  0  0
 23 50  1  0  0  0  0
 24 25  2  0  0  0  0
M  CHG  1  23   1
M  END
> <s_m_source_file>
AV-unprocessed.smi

> <i_m_source_file_index>
2973

> <i_lp_mmshare_version>
43012

> <i_f3d_flags>
0

> <s_epik_input>
W0NIMl0xW0NIMl1bQ0gyXVtDSDJdW0NAQEhdKFtDSDNdKVtDQF0xMltOSF1DKD1PKU4oQzI9TylbQ0gyXUMoPU8pW05IXVtDSDJdW0NIMl1jM1tjSF1bY0hdW2NIXVtjSF1uMw==

> <s_epik_cmdline>
J2VwaWtfcHl0aG9uJywgJy1waCcsICc3LjAnLCAnLXRuJywgJzgnLCAnLW1hJywgJzIwMCcsICctbWV0YWxfYmluZGluZycsICctaW1hZScsICc8aW5maWxlLm1hZT4nLCAnLW9tYWUnLCAnPG91dGZpbGUubWFlPic=

> <r_lp_tautomer_probability>
1

> <r_epik_Ionization_Penalty>
1.90043

> <r_epik_Ionization_Penalty_Charging>
1.90039

> <r_epik_Ionization_Penalty_Neutral>
4.65525e-05

> <r_epik_State_Penalty>
2.02162

> <r_epik_Charging_Adjusted_Penalty>
3.922

> <i_epik_Tot_Q>
1

> <i_epik_Tot_abs_Q>
1

> <r_epik_Metal_State_Penalty>
2.06631

> <b_epik_Metal_Only>
0

> <s_lp_Force_Field>
OPLS_2005

> <r_lp_Energy>
22.9905

> <b_lp_Chiralities_Consistent>
1

> <s_lp_Variant>
AV-unprocessed.smi:2973-8

> <Gold.Version>
5.8.1

> <Gold.Id.Protein>
6NUR|6NUR_protein|mol2

> <Gold.PLP.Fitness>
51.1227

> <Gold.PLP.PLP>
-41.4302

> <Gold.PLP.part.hbond>
-3.0000

> <Gold.PLP.part.metal>
0.0000

> <Gold.PLP.part.buried>
-5.7828

> <Gold.PLP.part.nonpolar>
-32.5067

> <Gold.PLP.part.repulsive>
0.2099

> <Gold.PLP.ligand.clash>
0.0000

> <Gold.PLP.ligand.torsion>
0.7360

> <Gold.PLP.Chemscore.Hbond>
3.7040

> <Gold.PLP.Chemscore.CHOScore>
0.0000

> <Gold.PLP.Chemscore.Metal>
0.0000

> <Gold.Chemscore.Hbonds>
donor molecule, donor type, donor heavy atom, donor atom, acceptor molecule, acceptor atom, score
      L1  H    23    50       P1  8028  1.89
      P1  H  6931  6943       L1    25  1.00
      P1  H  6934  6947       L1    25  0.66

> <Gold.PLP.Chemscore.Internal.Correction>
0.0525

> <Gold.Rescore>
     Score         DG    S(hbond)    S(metal)    S(lipo)     H(rot)  DE(clash)    DE(int)     intcor
     19.26     -21.30       2.49        0.00     107.09       1.96       0.12       1.92       ----

> <Gold.Chemscore.Fitness>
19.2563

> <Gold.Chemscore.DG>
-21.2965

> <Gold.Chemscore.ZeroCoef>
-5.4800

> <Gold.Chemscore.Hbond>
2.4895

> <Gold.Chemscore.Metal>
0.0000

> <Gold.Chemscore.Lipo>
107.0859

> <Gold.Chemscore.Internal_Hbond>
0.0000

> <Gold.Chemscore.DEClash>
0.1214

> <Gold.Chemscore.DEInternal>
1.9187

> <Gold.Chemscore.Rot>
1.9638

> <Gold.Chemscore.Internal.Correction>
   9.000000E+99

> <Gold.Chemscore.Hbonds>
donor molecule, donor type, donor heavy atom, donor atom, acceptor molecule, acceptor atom, score
      L1  H    23    50       P1  8028  0.84
      P1  H  6931  6943       L1    25  0.98
      P1  H  6934  6947       L1    25  0.47

> <Gold.Chemscore.Hbond.Weighted>
-8.3149

> <Gold.Chemscore.Metal.Weighted>
-0.0000

> <Gold.Chemscore.Lipo.Weighted>
-12.5290

> <Gold.Chemscore.Internal_Hbond.Weighted>
0.0000

> <Gold.Chemscore.DEClash.Weighted>
0.1214

> <Gold.Chemscore.DEInternal.Weighted>
1.9187

> <Gold.Chemscore.Rot.Weighted>
5.0274

> <Gold.Chemscore.Internal.Correction.Weighted>
   9.000000E+99

> <Gold.Protein.RotatedTorsions>
[ 6907 6896 6895 6894 ] final   87.04 input  -60.11 | X-H torsion
[ 7974 7965 7964 7962 ] final  -54.07 input  175.53 | X-H torsion
[ 8008 7997 7996 7995 ] final -105.70 input   59.86 | X-H torsion
[ 10167 10162 10161 10158 ] final -159.82 input  -65.29 | X-H torsion
[ 10718 10713 10712 10709 ] final -106.33 input   66.30 | X-H torsion
[ 10763 10752 10751 10750 ] final  151.67 input  -60.55 | X-H torsion
[ 11005 11000 10999 10996 ] final -146.29 input  -57.11 | X-H torsion

> <Gold.Protein.ActiveResidues>
 VAL166  LYS551  ARG553  GLY616  TRP617  ASP618  TYR619  PRO620  LYS621  CYS622 
 ASP623  PHE694  ASN695  SER759  ASP760  ASP761  ALA762  ILE779  LEU786  VAL792 
 PHE793  MET794  SER795  GLU796  ALA797  LYS798  CYS799  TRP800  GLU811  SER814 

> <Gold.Protein.RotatedAtoms>
  152.5405  134.2338  159.8834 H   0  0  0  0  0  0  0  0  0  0  0  0  # atno 6907 bound_to 6896
  151.2308  133.4444  159.2611 H   0  0  0  0  0  0  0  0  0  0  0  0  # atno 6908 bound_to 6896
  151.0717  134.9816  159.8368 H   0  0  0  0  0  0  0  0  0  0  0  0  # atno 6909 bound_to 6896
  145.8898  140.8080  142.9797 H   0  0  0  0  0  0  0  0  0  0  0  0  # atno 7974 bound_to 7965
  154.9036  140.0412  157.1907 H   0  0  0  0  0  0  0  0  0  0  0  0  # atno 8008 bound_to 7997
  154.8419  140.2915  155.5633 H   0  0  0  0  0  0  0  0  0  0  0  0  # atno 8009 bound_to 7997
  156.2992  140.2481  156.3362 H   0  0  0  0  0  0  0  0  0  0  0  0  # atno 8010 bound_to 7997
  139.6586  143.9953  152.2210 H   0  0  0  0  0  0  0  0  0  0  0  0  # atno 10167 bound_to 10162
  156.0385  130.5607  150.7665 H   0  0  0  0  0  0  0  0  0  0  0  0  # atno 10718 bound_to 10713
  154.1076  135.2841  155.3238 H   0  0  0  0  0  0  0  0  0  0  0  0  # atno 10763 bound_to 10752
  154.6512  135.5368  153.7907 H   0  0  0  0  0  0  0  0  0  0  0  0  # atno 10764 bound_to 10752
  153.0357  135.6510  154.1236 H   0  0  0  0  0  0  0  0  0  0  0  0  # atno 10765 bound_to 10752
  140.7835  134.3051  157.5037 H   0  0  0  0  0  0  0  0  0  0  0  0  # atno 11005 bound_to 11000
  144.6730  140.1511  143.7430 LP  0  0  0  0  0  0  0  0  0  0  0  0  # atno 17320 bound_to 7965
  145.8923  139.2382  143.1542 LP  0  0  0  0  0  0  0  0  0  0  0  0  # atno 17321 bound_to 7965
  139.9686  144.6509  150.8010 LP  0  0  0  0  0  0  0  0  0  0  0  0  # atno 17342 bound_to 10162
  140.7570  143.3078  151.2920 LP  0  0  0  0  0  0  0  0  0  0  0  0  # atno 17343 bound_to 10162
  157.5170  131.0929  151.0126 LP  0  0  0  0  0  0  0  0  0  0  0  0  # atno 17370 bound_to 10713
  157.0467  130.5770  149.5364 LP  0  0  0  0  0  0  0  0  0  0  0  0  # atno 17371 bound_to 10713
  139.8739  134.9332  156.3576 LP  0  0  0  0  0  0  0  0  0  0  0  0  # atno 17394 bound_to 11000
  140.9459  133.7483  156.0208 LP  0  0  0  0  0  0  0  0  0  0  0  0  # atno 17395 bound_to 11000

$$$$
