AV-unprocessed.smi:2518|AV-procd|sdf|9902|dock2
  -GOLD-   2272013543D 1   1.00000     0.00000
 Structure written by MMmdl.
 41 43  0  0  0  0  0  0  0  0  1 V2000
  151.6007  145.6748  159.9011 C   0  0  0  0  0  0  0  0  0  0  0  0
  152.2817  144.3848  160.3093 C   0  0  0  0  0  0  0  0  0  0  0  0
  152.7009  143.4611  159.3315 C   0  0  0  0  0  0  0  0  0  0  0  0
  153.3312  142.2624  159.7167 C   0  0  0  0  0  0  0  0  0  0  0  0
  153.5523  141.9666  161.0774 C   0  0  0  0  0  0  0  0  0  0  0  0
  154.1760  140.7710  161.3638 O   0  0  0  0  0  0  0  0  0  0  0  0
  154.9000  140.1260  160.3250 C   0  0  0  0  0  0  0  0  0  0  0  0
  155.3643  138.7435  160.8189 C   0  0  1  0  0  0  0  0  0  0  0  0
  156.2341  138.9303  161.9173 O   0  0  0  0  0  0  0  0  0  0  0  0
  154.2155  137.8339  161.3007 C   0  0  0  0  0  0  0  0  0  0  0  0
  154.5924  136.9830  162.4198 N   0  0  0  0  0  0  0  0  0  0  0  0
  154.6998  137.5230  163.6609 N   0  0  0  0  0  0  0  0  0  0  0  0
  155.0480  136.5204  164.4649 C   0  0  0  0  0  0  0  0  0  0  0  0
  155.1786  135.2928  163.7595 C   0  0  0  0  0  0  0  0  0  0  0  0
  155.5284  133.9231  164.1232 C   0  0  0  0  0  0  0  0  0  0  0  0
  155.5549  133.0276  163.1864 N   0  0  0  0  0  0  0  0  0  0  0  0
  155.2592  133.3553  161.8582 N   0  0  0  0  0  0  0  0  0  0  0  0
  155.3416  132.2386  160.9196 C   0  0  0  0  0  0  0  0  0  0  0  0
  154.9280  134.6048  161.4134 C   0  0  0  0  0  0  0  0  0  0  0  0
  154.6926  134.8769  160.2362 O   0  0  0  0  0  0  0  0  0  0  0  0
  154.8843  135.6339  162.4805 C   0  0  0  0  0  0  0  0  0  0  0  0
  153.1262  142.8998  162.0567 C   0  0  0  0  0  0  0  0  0  0  0  0
  152.4952  144.0989  161.6722 C   0  0  0  0  0  0  0  0  0  0  0  0
  151.8320  145.9316  158.8668 H   0  0  0  0  0  0  0  0  0  0  0  0
  151.9284  146.4996  160.5347 H   0  0  0  0  0  0  0  0  0  0  0  0
  150.5192  145.5760  159.9966 H   0  0  0  0  0  0  0  0  0  0  0  0
  152.5408  143.6672  158.2834 H   0  0  0  0  0  0  0  0  0  0  0  0
  153.6485  141.5612  158.9587 H   0  0  0  0  0  0  0  0  0  0  0  0
  154.3038  140.0312  159.4157 H   0  0  0  0  0  0  0  0  0  0  0  0
  155.7646  140.7478  160.0942 H   0  0  0  0  0  0  0  0  0  0  0  0
  155.9092  138.2339  160.0231 H   0  0  0  0  0  0  0  0  0  0  0  0
  156.6928  138.1200  162.0785 H   0  0  0  0  0  0  0  0  0  0  0  0
  153.3675  138.4450  161.6144 H   0  0  0  0  0  0  0  0  0  0  0  0
  153.8482  137.2114  160.4854 H   0  0  0  0  0  0  0  0  0  0  0  0
  155.1930  136.7160  165.5171 H   0  0  0  0  0  0  0  0  0  0  0  0
  155.7600  133.6662  165.1568 H   0  0  0  0  0  0  0  0  0  0  0  0
  154.3947  132.1057  160.3939 H   0  0  0  0  0  0  0  0  0  0  0  0
  155.5736  131.2979  161.4218 H   0  0  0  0  0  0  0  0  0  0  0  0
  156.1217  132.4196  160.1788 H   0  0  0  0  0  0  0  0  0  0  0  0
  153.2705  142.7197  163.1112 H   0  0  0  0  0  0  0  0  0  0  0  0
  152.1750  144.7999  162.4292 H   0  0  0  0  0  0  0  0  0  0  0  0
  1  2  1  0  0  0  0
  1 24  1  0  0  0  0
  1 25  1  0  0  0  0
  1 26  1  0  0  0  0
  2 23  1  0  0  0  0
  2  3  2  0  0  0  0
  3  4  1  0  0  0  0
  3 27  1  0  0  0  0
  4  5  2  0  0  0  0
  4 28  1  0  0  0  0
  5  6  1  0  0  0  0
  5 22  1  0  0  0  0
  6  7  1  0  0  0  0
  7  8  1  0  0  0  0
  7 29  1  0  0  0  0
  7 30  1  0  0  0  0
  8  9  1  0  0  0  0
  8 10  1  0  0  0  0
  8 31  1  0  0  0  0
  9 32  1  0  0  0  0
 10 11  1  0  0  0  0
 10 33  1  0  0  0  0
 10 34  1  0  0  0  0
 11 21  1  0  0  0  0
 11 12  1  0  0  0  0
 12 13  2  0  0  0  0
 13 14  1  0  0  0  0
 13 35  1  0  0  0  0
 14 21  2  0  0  0  0
 14 15  1  0  0  0  0
 15 16  2  0  0  0  0
 15 36  1  0  0  0  0
 16 17  1  0  0  0  0
 17 18  1  0  0  0  0
 17 19  1  0  0  0  0
 18 37  1  0  0  0  0
 18 38  1  0  0  0  0
 18 39  1  0  0  0  0
 19 20  2  0  0  0  0
 19 21  1  0  0  0  0
 22 23  2  0  0  0  0
 22 40  1  0  0  0  0
 23 41  1  0  0  0  0
M  END
> <s_m_source_file>
AV-unprocessed.smi

> <i_m_source_file_index>
2518

> <i_lp_mmshare_version>
43012

> <i_f3d_flags>
0

> <s_epik_input>
W0NIM11jMVtjSF1bY0hdYyhbY0hdW2NIXTEpT1tDSDJdW0NASF0oW09IXSlbQ0gyXW4obltjSF0yKWMoYzIzKWMoPU8pbihbQ0gzXSluW2NIXTM=

> <s_epik_cmdline>
J2VwaWtfcHl0aG9uJywgJy1waCcsICc3LjAnLCAnLXRuJywgJzgnLCAnLW1hJywgJzIwMCcsICctbWV0YWxfYmluZGluZycsICctaW1hZScsICc8aW5maWxlLm1hZT4nLCAnLW9tYWUnLCAnPG91dGZpbGUubWFlPic=

> <r_lp_tautomer_probability>
1

> <r_epik_Ionization_Penalty>
2.246e-06

> <r_epik_Ionization_Penalty_Charging>
1.41975e-10

> <r_epik_Ionization_Penalty_Neutral>
2.24586e-06

> <r_epik_State_Penalty>
-0

> <r_epik_Charging_Adjusted_Penalty>
1.41975e-10

> <i_epik_Tot_Q>
0

> <i_epik_Tot_abs_Q>
0

> <r_epik_Metal_State_Penalty>
-0

> <b_epik_Metal_Only>
0

> <s_lp_Force_Field>
OPLS_2005

> <r_lp_Energy>
31.8709

> <b_lp_Chiralities_Consistent>
1

> <s_lp_Variant>
AV-unprocessed.smi:2518-2

> <Gold.Version>
5.8.1

> <Gold.Id.Protein>
6NUR|6NUR_protein|mol2

> <Gold.PLP.Fitness>
50.4075

> <Gold.PLP.PLP>
-50.4201

> <Gold.PLP.part.hbond>
-1.0000

> <Gold.PLP.part.metal>
0.0000

> <Gold.PLP.part.buried>
-3.2130

> <Gold.PLP.part.nonpolar>
-46.3660

> <Gold.PLP.part.repulsive>
0.0400

> <Gold.PLP.ligand.clash>
1.1056

> <Gold.PLP.ligand.torsion>
0.9339

> <Gold.PLP.Chemscore.Hbond>
0.9750

> <Gold.PLP.Chemscore.CHOScore>
0.0000

> <Gold.PLP.Chemscore.Metal>
0.0000

> <Gold.Chemscore.Hbonds>
donor molecule, donor type, donor heavy atom, donor atom, acceptor molecule, acceptor atom, score
      P1  H  6896  6909       L1    20  0.60

> <Gold.PLP.Chemscore.Internal.Correction>
0.0357

> <Gold.Rescore>
     Score         DG    S(hbond)    S(metal)    S(lipo)     H(rot)  DE(clash)    DE(int)     intcor
     15.49     -17.93       0.95        0.00     130.70       2.35       0.01       2.43       ----

> <Gold.Chemscore.Fitness>
15.4940

> <Gold.Chemscore.DG>
-17.9309

> <Gold.Chemscore.ZeroCoef>
-5.4800

> <Gold.Chemscore.Hbond>
0.9498

> <Gold.Chemscore.Metal>
0.0000

> <Gold.Chemscore.Lipo>
130.7013

> <Gold.Chemscore.Internal_Hbond>
0.0000

> <Gold.Chemscore.DEClash>
0.0118

> <Gold.Chemscore.DEInternal>
2.4251

> <Gold.Chemscore.Rot>
2.3490

> <Gold.Chemscore.Internal.Correction>
   9.000000E+99

> <Gold.Chemscore.Hbonds>
donor molecule, donor type, donor heavy atom, donor atom, acceptor molecule, acceptor atom, score
      P1  H  6896  6909       L1    20  0.30

> <Gold.Chemscore.Hbond.Weighted>
-3.1724

> <Gold.Chemscore.Metal.Weighted>
-0.0000

> <Gold.Chemscore.Lipo.Weighted>
-15.2921

> <Gold.Chemscore.Internal_Hbond.Weighted>
0.0000

> <Gold.Chemscore.DEClash.Weighted>
0.0118

> <Gold.Chemscore.DEInternal.Weighted>
2.4251

> <Gold.Chemscore.Rot.Weighted>
6.0136

> <Gold.Chemscore.Internal.Correction.Weighted>
   9.000000E+99

> <Gold.Protein.RotatedTorsions>
[ 6907 6896 6895 6894 ] final -167.66 input  -60.11 | X-H torsion
[ 7974 7965 7964 7962 ] final -141.80 input  175.53 | X-H torsion
[ 8008 7997 7996 7995 ] final  -63.33 input   59.86 | X-H torsion
[ 10167 10162 10161 10158 ] final   67.13 input  -65.29 | X-H torsion
[ 10718 10713 10712 10709 ] final -134.13 input   66.30 | X-H torsion
[ 10763 10752 10751 10750 ] final -158.48 input  -60.55 | X-H torsion
[ 11005 11000 10999 10996 ] final   52.35 input  -57.11 | X-H torsion

> <Gold.Protein.ActiveResidues>
 VAL166  LYS551  ARG553  GLY616  TRP617  ASP618  TYR619  PRO620  LYS621  CYS622 
 ASP623  PHE694  ASN695  SER759  ASP760  ASP761  ALA762  ILE779  LEU786  VAL792 
 PHE793  MET794  SER795  GLU796  ALA797  LYS798  CYS799  TRP800  GLU811  SER814 

> <Gold.Protein.RotatedAtoms>
  151.4632  133.3587  159.2812 H   0  0  0  0  0  0  0  0  0  0  0  0  # atno 6907 bound_to 6896
  150.9011  134.8425  159.7371 H   0  0  0  0  0  0  0  0  0  0  0  0  # atno 6908 bound_to 6896
  152.4880  134.4552  159.9639 H   0  0  0  0  0  0  0  0  0  0  0  0  # atno 6909 bound_to 6896
  144.8492  140.6036  143.5401 H   0  0  0  0  0  0  0  0  0  0  0  0  # atno 7974 bound_to 7965
  154.4548  140.0977  156.6726 H   0  0  0  0  0  0  0  0  0  0  0  0  # atno 8008 bound_to 7997
  155.5171  140.3478  155.4381 H   0  0  0  0  0  0  0  0  0  0  0  0  # atno 8009 bound_to 7997
  156.0756  140.1360  156.9764 H   0  0  0  0  0  0  0  0  0  0  0  0  # atno 8010 bound_to 7997
  140.0929  144.4972  150.7087 H   0  0  0  0  0  0  0  0  0  0  0  0  # atno 10167 bound_to 10162
  156.2522  130.7160  151.1063 H   0  0  0  0  0  0  0  0  0  0  0  0  # atno 10718 bound_to 10713
  154.7553  135.3103  154.8482 H   0  0  0  0  0  0  0  0  0  0  0  0  # atno 10763 bound_to 10752
  153.9258  135.6790  153.4751 H   0  0  0  0  0  0  0  0  0  0  0  0  # atno 10764 bound_to 10752
  153.1150  135.4849  154.9029 H   0  0  0  0  0  0  0  0  0  0  0  0  # atno 10765 bound_to 10752
  140.0856  134.5278  155.8902 H   0  0  0  0  0  0  0  0  0  0  0  0  # atno 11005 bound_to 11000
  145.4535  139.1521  143.3905 LP  0  0  0  0  0  0  0  0  0  0  0  0  # atno 17320 bound_to 7965
  146.2770  140.4662  142.8791 LP  0  0  0  0  0  0  0  0  0  0  0  0  # atno 17321 bound_to 7965
  140.7019  143.2441  151.4839 LP  0  0  0  0  0  0  0  0  0  0  0  0  # atno 17342 bound_to 10162
  139.5714  144.1918  152.1842 LP  0  0  0  0  0  0  0  0  0  0  0  0  # atno 17343 bound_to 10162
  157.7219  131.0676  150.6100 LP  0  0  0  0  0  0  0  0  0  0  0  0  # atno 17370 bound_to 10713
  156.6181  130.4398  149.5833 LP  0  0  0  0  0  0  0  0  0  0  0  0  # atno 17371 bound_to 10713
  141.2061  133.6653  156.6224 LP  0  0  0  0  0  0  0  0  0  0  0  0  # atno 17394 bound_to 11000
  140.3425  134.7837  157.4408 LP  0  0  0  0  0  0  0  0  0  0  0  0  # atno 17395 bound_to 11000

$$$$
