AV-unprocessed.smi:114|AV-procd|sdf|1121|dock6
  -GOLD-   2262018243D 1   1.00000     0.00000
 Structure written by MMmdl.
 32 34  0  0  0  0  0  0  0  0  1 V2000
  153.3544  137.0843  161.2560 N   0  0  0  0  0  0  0  0  0  0  0  0
  153.3340  136.9044  159.9279 C   0  0  0  0  0  0  0  0  0  0  0  0
  153.8413  135.7551  159.4270 N   0  0  0  0  0  0  0  0  0  0  0  0
  153.8359  135.5356  158.1076 C   0  0  0  0  0  0  0  0  0  0  0  0
  154.3639  134.3611  157.6905 F   0  0  0  0  0  0  0  0  0  0  0  0
  153.3692  136.3481  157.1545 N   0  0  0  0  0  0  0  0  0  0  0  0
  152.8556  137.5126  157.6488 C   0  0  0  0  0  0  0  0  0  0  0  0
  152.8041  137.8601  159.0269 C   0  0  0  0  0  0  0  0  0  0  0  0
  152.2191  139.1070  159.1826 N   0  0  0  0  0  0  0  0  0  0  0  0
  151.9338  139.4706  157.9623 C   0  0  0  0  0  0  0  0  0  0  0  0
  152.2914  138.5825  156.9703 N   0  0  0  0  0  0  0  0  0  0  0  0
  152.0343  138.7640  155.4978 C   0  0  2  0  0  0  0  0  0  0  0  0
  151.3547  139.9645  155.3171 O   0  0  0  0  0  0  0  0  0  0  0  0
  149.9573  139.7198  155.2589 C   0  0  1  0  0  0  0  0  0  0  0  0
  149.2593  140.8731  154.5229 C   0  0  0  0  0  0  0  0  0  0  0  0
  149.6405  142.1096  155.0875 O   0  0  0  0  0  0  0  0  0  0  0  0
  149.8746  138.3796  154.5116 C   0  0  2  0  0  0  0  0  0  0  0  0
  148.7490  137.6440  154.9474 O   0  0  0  0  0  0  0  0  0  0  0  0
  151.1735  137.6518  154.8728 C   0  0  1  0  0  0  0  0  0  0  0  0
  151.7793  137.1317  153.7064 O   0  0  0  0  0  0  0  0  0  0  0  0
  153.0340  138.8308  155.0661 H   0  0  0  0  0  0  0  0  0  0  0  0
  149.5634  139.6216  156.2707 H   0  0  0  0  0  0  0  0  0  0  0  0
  149.8122  138.5525  153.4355 H   0  0  0  0  0  0  0  0  0  0  0  0
  151.0315  136.8299  155.5736 H   0  0  0  0  0  0  0  0  0  0  0  0
  152.9796  137.9339  161.6534 H   0  0  0  0  0  0  0  0  0  0  0  0
  153.7362  136.3680  161.8563 H   0  0  0  0  0  0  0  0  0  0  0  0
  151.4450  140.4104  157.7498 H   0  0  0  0  0  0  0  0  0  0  0  0
  149.4812  140.8564  153.4554 H   0  0  0  0  0  0  0  0  0  0  0  0
  148.1780  140.7848  154.6311 H   0  0  0  0  0  0  0  0  0  0  0  0
  148.9858  142.7549  154.8692 H   0  0  0  0  0  0  0  0  0  0  0  0
  148.1604  138.2334  155.3935 H   0  0  0  0  0  0  0  0  0  0  0  0
  151.0978  136.8552  153.1126 H   0  0  0  0  0  0  0  0  0  0  0  0
  1  2  1  0  0  0  0
  1 25  1  0  0  0  0
  1 26  1  0  0  0  0
  2  8  1  0  0  0  0
  2  3  2  0  0  0  0
  3  4  1  0  0  0  0
  4  5  1  0  0  0  0
  4  6  2  0  0  0  0
  6  7  1  0  0  0  0
  7 11  1  0  0  0  0
  7  8  2  0  0  0  0
  8  9  1  0  0  0  0
  9 10  2  0  0  0  0
 10 11  1  0  0  0  0
 10 27  1  0  0  0  0
 11 12  1  0  0  0  0
 12 21  1  0  0  0  0
 12 19  1  0  0  0  0
 12 13  1  0  0  0  0
 13 14  1  0  0  0  0
 14 22  1  0  0  0  0
 14 15  1  0  0  0  0
 14 17  1  0  0  0  0
 15 16  1  0  0  0  0
 15 28  1  0  0  0  0
 15 29  1  0  0  0  0
 16 30  1  0  0  0  0
 17 23  1  0  0  0  0
 17 18  1  0  0  0  0
 17 19  1  0  0  0  0
 18 31  1  0  0  0  0
 19 24  1  0  0  0  0
 19 20  1  0  0  0  0
 20 32  1  0  0  0  0
M  END
> <s_m_source_file>
AV-unprocessed.smi

> <i_m_source_file_index>
114

> <i_lp_mmshare_version>
43012

> <i_f3d_flags>
0

> <s_epik_input>
RmMobjEpbmMoW05IMl0pYyhjMTIpbltjSF1uMltDQEBIXTNPW0NASF0oW0NIMl1bT0hdKVtDQEBIXShbT0hdKVtDQEBIXTNbT0hd

> <s_epik_cmdline>
J2VwaWtfcHl0aG9uJywgJy1waCcsICc3LjAnLCAnLXRuJywgJzgnLCAnLW1hJywgJzIwMCcsICctbWV0YWxfYmluZGluZycsICctaW1hZScsICc8aW5maWxlLm1hZT4nLCAnLW9tYWUnLCAnPG91dGZpbGUubWFlPic=

> <r_lp_tautomer_probability>
1

> <r_epik_Ionization_Penalty>
1.13199e-05

> <r_epik_Ionization_Penalty_Charging>
0

> <r_epik_Ionization_Penalty_Neutral>
1.13199e-05

> <r_epik_State_Penalty>
-0

> <r_epik_Charging_Adjusted_Penalty>
0

> <i_epik_Tot_Q>
0

> <i_epik_Tot_abs_Q>
0

> <r_epik_Metal_State_Penalty>
-0

> <b_epik_Metal_Only>
0

> <s_epik_Chemistry_Notes>
This compound contains an acetal/aminal-like group ( X-CH(R)-Y where X, Y are N, S, or O) that may be acid/base labile, releasing an aldehyde.

> <s_lp_Force_Field>
OPLS_2005

> <r_lp_Energy>
32.4154

> <b_lp_Chiralities_Consistent>
1

> <s_lp_Variant>
AV-unprocessed.smi:114-15

> <Gold.Version>
5.8.1

> <Gold.Id.Protein>
6NUR|6NUR_protein|mol2

> <Gold.PLP.Fitness>
42.6323

> <Gold.PLP.PLP>
-27.9778

> <Gold.PLP.part.hbond>
-7.2031

> <Gold.PLP.part.metal>
0.0000

> <Gold.PLP.part.buried>
-4.0848

> <Gold.PLP.part.nonpolar>
-18.8514

> <Gold.PLP.part.repulsive>
0.1197

> <Gold.PLP.ligand.clash>
0.0000

> <Gold.PLP.ligand.torsion>
0.0836

> <Gold.PLP.Chemscore.Hbond>
4.9337

> <Gold.PLP.Chemscore.CHOScore>
0.0000

> <Gold.PLP.Chemscore.Metal>
0.0000

> <Gold.Chemscore.Hbonds>
donor molecule, donor type, donor heavy atom, donor atom, acceptor molecule, acceptor atom, score
      L1  H    16    30       P1  8028  0.43
      L1  H    20    32       P1  7949  0.64
      P1  H  6896  6907       L1     3  0.95
      P1  H  7989  7998       L1    13  0.96
      P1  H 10752 10763       L1     6  0.93
      P1  H 10752 10765       L1    20  1.00

> <Gold.PLP.Chemscore.Internal.Correction>
0.0205

> <Gold.Rescore>
     Score         DG    S(hbond)    S(metal)    S(lipo)     H(rot)  DE(clash)    DE(int)     intcor
      8.00      -8.44       2.82        0.00      32.90       4.03       0.33       0.11       ----

> <Gold.Chemscore.Fitness>
7.9996

> <Gold.Chemscore.DG>
-8.4417

> <Gold.Chemscore.ZeroCoef>
-5.4800

> <Gold.Chemscore.Hbond>
2.8213

> <Gold.Chemscore.Metal>
0.0000

> <Gold.Chemscore.Lipo>
32.9016

> <Gold.Chemscore.Internal_Hbond>
0.0000

> <Gold.Chemscore.DEClash>
0.3287

> <Gold.Chemscore.DEInternal>
0.1134

> <Gold.Chemscore.Rot>
4.0277

> <Gold.Chemscore.Internal.Correction>
   9.000000E+99

> <Gold.Chemscore.Hbonds>
donor molecule, donor type, donor heavy atom, donor atom, acceptor molecule, acceptor atom, score
      L1  H    16    30       P1  8028  0.42
      L1  H    20    32       P1  7949  0.25
      P1  H  6896  6907       L1     3  0.05
      P1  H  7989  7998       L1    13  0.24
      P1  H 10752 10763       L1     6  0.44
      P1  H 10752 10765       L1    20  0.69

> <Gold.Chemscore.Hbond.Weighted>
-9.4232

> <Gold.Chemscore.Metal.Weighted>
-0.0000

> <Gold.Chemscore.Lipo.Weighted>
-3.8495

> <Gold.Chemscore.Internal_Hbond.Weighted>
0.0000

> <Gold.Chemscore.DEClash.Weighted>
0.3287

> <Gold.Chemscore.DEInternal.Weighted>
0.1134

> <Gold.Chemscore.Rot.Weighted>
10.3110

> <Gold.Chemscore.Internal.Correction.Weighted>
   9.000000E+99

> <Gold.Protein.RotatedTorsions>
[ 6907 6896 6895 6894 ] final   65.98 input  -60.11 | X-H torsion
[ 7974 7965 7964 7962 ] final  114.93 input  175.53 | X-H torsion
[ 8008 7997 7996 7995 ] final -104.13 input   59.86 | X-H torsion
[ 10167 10162 10161 10158 ] final  -17.25 input  -65.29 | X-H torsion
[ 10718 10713 10712 10709 ] final   27.17 input   66.30 | X-H torsion
[ 10763 10752 10751 10750 ] final  129.96 input  -60.55 | X-H torsion
[ 11005 11000 10999 10996 ] final   90.87 input  -57.11 | X-H torsion

> <Gold.Protein.ActiveResidues>
 VAL166  LYS551  ARG553  GLY616  TRP617  ASP618  TYR619  PRO620  LYS621  CYS622 
 ASP623  PHE694  ASN695  SER759  ASP760  ASP761  ALA762  ILE779  LEU786  VAL792 
 PHE793  MET794  SER795  GLU796  ALA797  LYS798  CYS799  TRP800  GLU811  SER814 

> <Gold.Protein.RotatedAtoms>
  152.4448  134.5518  159.9868 H   0  0  0  0  0  0  0  0  0  0  0  0  # atno 6907 bound_to 6896
  151.5606  133.3398  159.2978 H   0  0  0  0  0  0  0  0  0  0  0  0  # atno 6908 bound_to 6896
  150.8361  134.7668  159.6958 H   0  0  0  0  0  0  0  0  0  0  0  0  # atno 6909 bound_to 6896
  145.1983  139.2965  143.4332 H   0  0  0  0  0  0  0  0  0  0  0  0  # atno 7974 bound_to 7965
  154.8809  140.0419  157.1781 H   0  0  0  0  0  0  0  0  0  0  0  0  # atno 8008 bound_to 7997
  154.8640  140.2948  155.5500 H   0  0  0  0  0  0  0  0  0  0  0  0  # atno 8009 bound_to 7997
  156.2999  140.2441  156.3619 H   0  0  0  0  0  0  0  0  0  0  0  0  # atno 8010 bound_to 7997
  140.7245  143.5034  150.9840 H   0  0  0  0  0  0  0  0  0  0  0  0  # atno 10167 bound_to 10162
  157.2166  130.6959  149.6251 H   0  0  0  0  0  0  0  0  0  0  0  0  # atno 10718 bound_to 10713
  153.7502  135.3211  155.3320 H   0  0  0  0  0  0  0  0  0  0  0  0  # atno 10763 bound_to 10752
  154.8265  135.4565  154.0939 H   0  0  0  0  0  0  0  0  0  0  0  0  # atno 10764 bound_to 10752
  153.2140  135.6939  153.8162 H   0  0  0  0  0  0  0  0  0  0  0  0  # atno 10765 bound_to 10752
  139.8848  134.8640  156.3346 H   0  0  0  0  0  0  0  0  0  0  0  0  # atno 11005 bound_to 11000
  146.3423  140.2219  142.8591 LP  0  0  0  0  0  0  0  0  0  0  0  0  # atno 17320 bound_to 7965
  144.9973  140.8600  143.5303 LP  0  0  0  0  0  0  0  0  0  0  0  0  # atno 17321 bound_to 7965
  139.8744  143.7151  152.3163 LP  0  0  0  0  0  0  0  0  0  0  0  0  # atno 17342 bound_to 10162
  139.7411  144.7559  151.0651 LP  0  0  0  0  0  0  0  0  0  0  0  0  # atno 17343 bound_to 10162
  155.9686  130.4533  150.5809 LP  0  0  0  0  0  0  0  0  0  0  0  0  # atno 17370 bound_to 10713
  157.3619  131.0751  151.1630 LP  0  0  0  0  0  0  0  0  0  0  0  0  # atno 17371 bound_to 10713
  140.9700  133.7334  156.0520 LP  0  0  0  0  0  0  0  0  0  0  0  0  # atno 17394 bound_to 11000
  140.7883  134.3646  157.5471 LP  0  0  0  0  0  0  0  0  0  0  0  0  # atno 17395 bound_to 11000

$$$$
