AV-unprocessed.smi:2707|AV-procd|sdf|10457|dock4
  -GOLD-   2272014493D 1   1.00000     0.00000
 Structure written by MMmdl.
 44 45  0  0  0  0  0  0  0  0  1 V2000
  147.8127  141.2702  154.4012 C   0  0  0  0  0  0  0  0  0  0  0  0
  146.5277  140.8491  155.1498 C   0  0  2  0  0  0  0  0  0  0  0  0
  145.7583  139.9008  154.3355 N   0  0  0  0  0  0  0  0  0  0  0  0
  146.0870  138.6376  154.0170 C   0  0  0  0  0  0  0  0  0  0  0  0
  147.1157  138.0801  154.3993 O   0  0  0  0  0  0  0  0  0  0  0  0
  145.1494  138.0787  153.2322 N   0  0  0  0  0  0  0  0  0  0  0  0
  145.1460  136.7768  152.6660 C   0  0  0  0  0  0  0  0  0  0  0  0
  144.0879  136.5077  151.7745 C   0  0  0  0  0  0  0  0  0  0  0  0
  144.0278  135.2414  151.1690 C   0  0  0  0  0  0  0  0  0  0  0  0
  145.0378  134.3077  151.4940 C   0  0  0  0  0  0  0  0  0  0  0  0
  145.0989  132.8901  150.8971 C   0  0  0  0  0  0  0  0  0  0  0  0
  146.4336  132.6965  150.1479 C   0  0  0  0  0  0  0  0  0  0  0  0
  143.9167  132.6837  149.9273 C   0  0  0  0  0  0  0  0  0  0  0  0
  145.0088  131.7893  151.9783 C   0  0  0  0  0  0  0  0  0  0  0  0
  146.0276  134.6241  152.3643 N   0  0  0  0  0  0  0  0  0  0  0  0
  146.0797  135.8304  152.9362 N   0  0  0  0  0  0  0  0  0  0  0  0
  145.6460  142.0947  155.4104 C   0  0  0  0  0  0  0  0  0  0  0  0
  146.1952  142.8924  156.6019 C   0  0  0  0  0  0  0  0  0  0  0  0
  147.0273  141.6766  157.6878 S   0  0  0  0  0  0  0  0  0  0  0  0
  148.4476  142.0393  157.8071 O   0  0  0  0  0  0  0  0  0  0  0  0
  146.2043  141.4348  158.8826 O   0  0  0  0  0  0  0  0  0  0  0  0
  146.8535  140.2588  156.5409 C   0  0  0  0  0  0  0  0  0  0  0  0
  148.3707  142.0283  154.9508 H   0  0  0  0  0  0  0  0  0  0  0  0
  147.5802  141.6848  153.4198 H   0  0  0  0  0  0  0  0  0  0  0  0
  148.4882  140.4283  154.2493 H   0  0  0  0  0  0  0  0  0  0  0  0
  144.8876  140.2520  153.9647 H   0  0  0  0  0  0  0  0  0  0  0  0
  144.3554  138.6558  152.9984 H   0  0  0  0  0  0  0  0  0  0  0  0
  143.3389  137.2542  151.5531 H   0  0  0  0  0  0  0  0  0  0  0  0
  143.2261  135.0204  150.4816 H   0  0  0  0  0  0  0  0  0  0  0  0
  146.5114  131.6929  149.7284 H   0  0  0  0  0  0  0  0  0  0  0  0
  147.2852  132.8423  150.8133 H   0  0  0  0  0  0  0  0  0  0  0  0
  146.5397  133.3989  149.3205 H   0  0  0  0  0  0  0  0  0  0  0  0
  143.9481  133.3859  149.0938 H   0  0  0  0  0  0  0  0  0  0  0  0
  142.9614  132.8200  150.4353 H   0  0  0  0  0  0  0  0  0  0  0  0
  143.9218  131.6798  149.5012 H   0  0  0  0  0  0  0  0  0  0  0  0
  145.0540  130.7945  151.5332 H   0  0  0  0  0  0  0  0  0  0  0  0
  144.0722  131.8459  152.5345 H   0  0  0  0  0  0  0  0  0  0  0  0
  145.8308  131.8561  152.6922 H   0  0  0  0  0  0  0  0  0  0  0  0
  145.5472  142.7218  154.5235 H   0  0  0  0  0  0  0  0  0  0  0  0
  144.6374  141.7669  155.6681 H   0  0  0  0  0  0  0  0  0  0  0  0
  146.9398  143.6187  156.2761 H   0  0  0  0  0  0  0  0  0  0  0  0
  145.4160  143.4185  157.1539 H   0  0  0  0  0  0  0  0  0  0  0  0
  146.0311  139.6444  156.9090 H   0  0  0  0  0  0  0  0  0  0  0  0
  147.7611  139.6546  156.5571 H   0  0  0  0  0  0  0  0  0  0  0  0
  1  2  1  0  0  0  0
  1 23  1  0  0  0  0
  1 24  1  0  0  0  0
  1 25  1  0  0  0  0
  2 22  1  0  0  0  0
  2  3  1  0  0  0  0
  2 17  1  0  0  0  0
  3  4  1  0  0  0  0
  3 26  1  0  0  0  0
  4  5  2  0  0  0  0
  4  6  1  0  0  0  0
  6  7  1  0  0  0  0
  6 27  1  0  0  0  0
  7 16  1  0  0  0  0
  7  8  2  0  0  0  0
  8  9  1  0  0  0  0
  8 28  1  0  0  0  0
  9 10  2  0  0  0  0
  9 29  1  0  0  0  0
 10 11  1  0  0  0  0
 10 15  1  0  0  0  0
 11 12  1  0  0  0  0
 11 13  1  0  0  0  0
 11 14  1  0  0  0  0
 12 30  1  0  0  0  0
 12 31  1  0  0  0  0
 12 32  1  0  0  0  0
 13 33  1  0  0  0  0
 13 34  1  0  0  0  0
 13 35  1  0  0  0  0
 14 36  1  0  0  0  0
 14 37  1  0  0  0  0
 14 38  1  0  0  0  0
 15 16  2  0  0  0  0
 17 18  1  0  0  0  0
 17 39  1  0  0  0  0
 17 40  1  0  0  0  0
 18 19  1  0  0  0  0
 18 41  1  0  0  0  0
 18 42  1  0  0  0  0
 19 20  2  0  0  0  0
 19 21  2  0  0  0  0
 19 22  1  0  0  0  0
 22 43  1  0  0  0  0
 22 44  1  0  0  0  0
M  END
> <s_m_source_file>
AV-unprocessed.smi

> <i_m_source_file_index>
2707

> <i_lp_mmshare_version>
43012

> <i_f3d_flags>
0

> <s_epik_input>
Tz1TKD1PKShbQ0gyXTEpW0NIMl1bQ0gyXVtDQEBdMShbQ0gzXSlbTkhdQyg9TylbTkhdYzJbY0hdW2NIXWMobm4yKUMoW0NIM10pKFtDSDNdKVtDSDNd

> <s_epik_cmdline>
J2VwaWtfcHl0aG9uJywgJy1waCcsICc3LjAnLCAnLXRuJywgJzgnLCAnLW1hJywgJzIwMCcsICctbWV0YWxfYmluZGluZycsICctaW1hZScsICc8aW5maWxlLm1hZT4nLCAnLW9tYWUnLCAnPG91dGZpbGUubWFlPic=

> <r_lp_tautomer_probability>
1

> <r_epik_Ionization_Penalty>
0.00910408

> <r_epik_Ionization_Penalty_Charging>
0

> <r_epik_Ionization_Penalty_Neutral>
0.00910408

> <r_epik_State_Penalty>
-0

> <r_epik_Charging_Adjusted_Penalty>
0

> <i_epik_Tot_Q>
0

> <i_epik_Tot_abs_Q>
0

> <r_epik_Metal_State_Penalty>
-0

> <b_epik_Metal_Only>
0

> <s_lp_Force_Field>
OPLS_2005

> <r_lp_Energy>
10.6556

> <b_lp_Chiralities_Consistent>
1

> <s_lp_Variant>
AV-unprocessed.smi:2707-2

> <Gold.Version>
5.8.1

> <Gold.Id.Protein>
6NUR|6NUR_protein|mol2

> <Gold.PLP.Fitness>
34.9297

> <Gold.PLP.PLP>
-27.0552

> <Gold.PLP.part.hbond>
-3.0000

> <Gold.PLP.part.metal>
0.0000

> <Gold.PLP.part.buried>
-3.1595

> <Gold.PLP.part.nonpolar>
-21.9656

> <Gold.PLP.part.repulsive>
0.7975

> <Gold.PLP.ligand.clash>
0.0000

> <Gold.PLP.ligand.torsion>
0.0893

> <Gold.PLP.Chemscore.Hbond>
2.6800

> <Gold.PLP.Chemscore.CHOScore>
0.0000

> <Gold.PLP.Chemscore.Metal>
0.0000

> <Gold.Chemscore.Hbonds>
donor molecule, donor type, donor heavy atom, donor atom, acceptor molecule, acceptor atom, score
      L1  H     3    26       P1 10175  1.00
      L1  H     6    27       P1 10175  0.98
      P1  H  6934  6946       L1    21  0.70

> <Gold.PLP.Chemscore.Internal.Correction>
0.0132

> <Gold.Rescore>
     Score         DG    S(hbond)    S(metal)    S(lipo)     H(rot)  DE(clash)    DE(int)     intcor
     15.89     -18.21       2.49        0.00      64.42       1.22       0.99       1.34       ----

> <Gold.Chemscore.Fitness>
15.8875

> <Gold.Chemscore.DG>
-18.2111

> <Gold.Chemscore.ZeroCoef>
-5.4800

> <Gold.Chemscore.Hbond>
2.4935

> <Gold.Chemscore.Metal>
0.0000

> <Gold.Chemscore.Lipo>
64.4167

> <Gold.Chemscore.Internal_Hbond>
0.0000

> <Gold.Chemscore.DEClash>
0.9882

> <Gold.Chemscore.DEInternal>
1.3353

> <Gold.Chemscore.Rot>
1.2242

> <Gold.Chemscore.Internal.Correction>
   9.000000E+99

> <Gold.Chemscore.Hbonds>
donor molecule, donor type, donor heavy atom, donor atom, acceptor molecule, acceptor atom, score
      L1  H     3    26       P1 10175  0.94
      L1  H     6    27       P1 10175  0.90
      P1  H  6934  6946       L1    21  0.65

> <Gold.Chemscore.Hbond.Weighted>
-8.3284

> <Gold.Chemscore.Metal.Weighted>
-0.0000

> <Gold.Chemscore.Lipo.Weighted>
-7.5368

> <Gold.Chemscore.Internal_Hbond.Weighted>
0.0000

> <Gold.Chemscore.DEClash.Weighted>
0.9882

> <Gold.Chemscore.DEInternal.Weighted>
1.3353

> <Gold.Chemscore.Rot.Weighted>
3.1340

> <Gold.Chemscore.Internal.Correction.Weighted>
   9.000000E+99

> <Gold.Protein.RotatedTorsions>
[ 6907 6896 6895 6894 ] final  141.54 input  -60.11 | X-H torsion
[ 7974 7965 7964 7962 ] final  145.29 input  175.53 | X-H torsion
[ 8008 7997 7996 7995 ] final   97.85 input   59.86 | X-H torsion
[ 10167 10162 10161 10158 ] final  -53.09 input  -65.29 | X-H torsion
[ 10718 10713 10712 10709 ] final   -8.70 input   66.30 | X-H torsion
[ 10763 10752 10751 10750 ] final -167.33 input  -60.55 | X-H torsion
[ 11005 11000 10999 10996 ] final  119.55 input  -57.11 | X-H torsion

> <Gold.Protein.ActiveResidues>
 VAL166  LYS551  ARG553  GLY616  TRP617  ASP618  TYR619  PRO620  LYS621  CYS622 
 ASP623  PHE694  ASN695  SER759  ASP760  ASP761  ALA762  ILE779  LEU786  VAL792 
 PHE793  MET794  SER795  GLU796  ALA797  LYS798  CYS799  TRP800  GLU811  SER814 

> <Gold.Protein.RotatedAtoms>
  152.2297  133.5048  159.5208 H   0  0  0  0  0  0  0  0  0  0  0  0  # atno 6907 bound_to 6896
  150.7034  134.1233  159.4052 H   0  0  0  0  0  0  0  0  0  0  0  0  # atno 6908 bound_to 6896
  151.9154  135.0321  160.0568 H   0  0  0  0  0  0  0  0  0  0  0  0  # atno 6909 bound_to 6896
  144.8764  139.5766  143.5863 H   0  0  0  0  0  0  0  0  0  0  0  0  # atno 7974 bound_to 7965
  156.0944  140.3252  155.7858 H   0  0  0  0  0  0  0  0  0  0  0  0  # atno 8008 bound_to 7997
  155.4943  140.0564  157.2966 H   0  0  0  0  0  0  0  0  0  0  0  0  # atno 8009 bound_to 7997
  154.4657  140.1988  156.0140 H   0  0  0  0  0  0  0  0  0  0  0  0  # atno 8010 bound_to 7997
  140.6503  143.2562  151.4742 H   0  0  0  0  0  0  0  0  0  0  0  0  # atno 10167 bound_to 10162
  156.6988  130.5087  149.5923 H   0  0  0  0  0  0  0  0  0  0  0  0  # atno 10718 bound_to 10713
  154.6743  135.2944  154.9700 H   0  0  0  0  0  0  0  0  0  0  0  0  # atno 10763 bound_to 10752
  154.0717  135.6617  153.4829 H   0  0  0  0  0  0  0  0  0  0  0  0  # atno 10764 bound_to 10752
  153.0506  135.5176  154.7754 H   0  0  0  0  0  0  0  0  0  0  0  0  # atno 10765 bound_to 10752
  139.9151  134.9629  156.7673 H   0  0  0  0  0  0  0  0  0  0  0  0  # atno 11005 bound_to 11000
  146.2965  139.7295  142.9122 LP  0  0  0  0  0  0  0  0  0  0  0  0  # atno 17320 bound_to 7965
  145.4034  141.0388  143.3057 LP  0  0  0  0  0  0  0  0  0  0  0  0  # atno 17321 bound_to 7965
  139.5718  144.1912  152.1846 LP  0  0  0  0  0  0  0  0  0  0  0  0  # atno 17342 bound_to 10162
  140.1210  144.5373  150.6863 LP  0  0  0  0  0  0  0  0  0  0  0  0  # atno 17343 bound_to 10162
  156.1744  130.6458  151.0876 LP  0  0  0  0  0  0  0  0  0  0  0  0  # atno 17370 bound_to 10713
  157.6981  131.0786  150.6907 LP  0  0  0  0  0  0  0  0  0  0  0  0  # atno 17371 bound_to 10713
  140.6649  133.9611  155.7825 LP  0  0  0  0  0  0  0  0  0  0  0  0  # atno 17394 bound_to 11000
  141.0618  134.0336  157.3649 LP  0  0  0  0  0  0  0  0  0  0  0  0  # atno 17395 bound_to 11000

$$$$
