AV-unprocessed.smi:2822|AV-procd|sdf|10869|dock8
  -GOLD-   2272015313D 1   1.00000     0.00000
 Structure written by MMmdl.
 40 42  0  0  0  0  0  0  0  0  2 V2000
  152.9975  137.1404  157.0285 Cl  0  0  0  0  0  0  0  0  0  0  0  0
  151.8831  137.8843  155.9352 C   0  0  0  0  0  0  0  0  0  0  0  0
  151.9702  139.2687  155.6823 C   0  0  0  0  0  0  0  0  0  0  0  0
  151.1429  139.9244  154.8413 N   0  0  0  0  0  0  0  0  0  0  0  0
  150.1850  139.2083  154.2169 C   0  0  0  0  0  0  0  0  0  0  0  0
  150.0101  137.8216  154.3983 C   0  0  0  0  0  0  0  0  0  0  0  0
  150.8798  137.1354  155.2783 C   0  0  0  0  0  0  0  0  0  0  0  0
  150.7792  135.7564  155.5158 N   0  0  0  0  0  0  0  0  0  0  0  0
  150.1488  134.8714  154.5490 C   0  0  0  0  0  0  0  0  0  0  0  0
  148.9065  134.1810  155.1461 C   0  0  1  0  0  0  0  0  0  0  0  0
  147.5883  134.8969  154.7967 C   0  0  0  0  0  0  0  0  0  0  0  0
  147.2321  134.7091  153.3707 N   0  3  2  0  0  0  0  0  0  0  0  0
  145.9818  135.4243  153.0083 C   0  0  0  0  0  0  0  0  0  0  0  0
  145.6769  135.2877  151.5085 C   0  0  0  0  0  0  0  0  0  0  0  0
  145.6026  133.8115  151.1002 C   0  0  0  0  0  0  0  0  0  0  0  0
  146.8949  133.0905  151.5052 C   0  0  0  0  0  0  0  0  0  0  0  0
  147.1906  133.2662  153.0088 C   0  0  1  0  0  0  0  0  0  0  0  0
  148.5190  132.5874  153.3935 C   0  0  0  0  0  0  0  0  0  0  0  0
  148.8105  132.8069  154.7696 O   0  0  0  0  0  0  0  0  0  0  0  0
  152.7269  139.8669  156.1681 H   0  0  0  0  0  0  0  0  0  0  0  0
  149.5356  139.7573  153.5510 H   0  0  0  0  0  0  0  0  0  0  0  0
  149.2180  137.3159  153.8670 H   0  0  0  0  0  0  0  0  0  0  0  0
  151.3202  135.3475  156.2652 H   0  0  0  0  0  0  0  0  0  0  0  0
  149.8497  135.4681  153.6864 H   0  0  0  0  0  0  0  0  0  0  0  0
  150.8694  134.1387  154.1871 H   0  0  0  0  0  0  0  0  0  0  0  0
  149.0123  134.2007  156.2317 H   0  0  0  0  0  0  0  0  0  0  0  0
  146.7841  134.5008  155.4193 H   0  0  0  0  0  0  0  0  0  0  0  0
  147.6673  135.9608  155.0240 H   0  0  0  0  0  0  0  0  0  0  0  0
  145.1513  135.0292  153.5957 H   0  0  0  0  0  0  0  0  0  0  0  0
  146.0779  136.4797  153.2657 H   0  0  0  0  0  0  0  0  0  0  0  0
  144.7366  135.7869  151.2726 H   0  0  0  0  0  0  0  0  0  0  0  0
  146.4501  135.7923  150.9277 H   0  0  0  0  0  0  0  0  0  0  0  0
  144.7474  133.3364  151.5825 H   0  0  0  0  0  0  0  0  0  0  0  0
  145.4435  133.7253  150.0248 H   0  0  0  0  0  0  0  0  0  0  0  0
  146.8161  132.0305  151.2600 H   0  0  0  0  0  0  0  0  0  0  0  0
  147.7257  133.4819  150.9159 H   0  0  0  0  0  0  0  0  0  0  0  0
  146.3868  132.7979  153.5802 H   0  0  0  0  0  0  0  0  0  0  0  0
  148.4480  131.5121  153.2280 H   0  0  0  0  0  0  0  0  0  0  0  0
  149.3387  132.9384  152.7662 H   0  0  0  0  0  0  0  0  0  0  0  0
  147.9744  135.1246  152.8262 H   0  0  0  0  0  0  0  0  0  0  0  0
  1  2  1  0  0  0  0
  2  7  1  0  0  0  0
  2  3  2  0  0  0  0
  3  4  1  0  0  0  0
  3 20  1  0  0  0  0
  4  5  2  0  0  0  0
  5  6  1  0  0  0  0
  5 21  1  0  0  0  0
  6  7  2  0  0  0  0
  6 22  1  0  0  0  0
  7  8  1  0  0  0  0
  8  9  1  0  0  0  0
  8 23  1  0  0  0  0
  9 10  1  0  0  0  0
  9 24  1  0  0  0  0
  9 25  1  0  0  0  0
 10 19  1  0  0  0  0
 10 11  1  0  0  0  0
 10 26  1  0  0  0  0
 11 12  1  0  0  0  0
 11 27  1  0  0  0  0
 11 28  1  0  0  0  0
 12 17  1  0  0  0  0
 12 13  1  0  0  0  0
 12 40  1  0  0  0  0
 13 14  1  0  0  0  0
 13 29  1  0  0  0  0
 13 30  1  0  0  0  0
 14 15  1  0  0  0  0
 14 31  1  0  0  0  0
 14 32  1  0  0  0  0
 15 16  1  0  0  0  0
 15 33  1  0  0  0  0
 15 34  1  0  0  0  0
 16 17  1  0  0  0  0
 16 35  1  0  0  0  0
 16 36  1  0  0  0  0
 17 18  1  0  0  0  0
 17 37  1  0  0  0  0
 18 19  1  0  0  0  0
 18 38  1  0  0  0  0
 18 39  1  0  0  0  0
M  CHG  1  12   1
M  END
> <s_m_source_file>
AV-unprocessed.smi

> <i_m_source_file_index>
2822

> <i_lp_mmshare_version>
43012

> <i_f3d_flags>
0

> <s_epik_input>
Q2xjMVtjSF1uW2NIXVtjSF1jMVtOSF1bQ0gyXVtDQEhdKFtDSDJdMilPW0NIMl1bQ0BASF0oTjIzKVtDSDJdW0NIMl1bQ0gyXVtDSDJdMw==

> <s_epik_cmdline>
J2VwaWtfcHl0aG9uJywgJy1waCcsICc3LjAnLCAnLXRuJywgJzgnLCAnLW1hJywgJzIwMCcsICctbWV0YWxfYmluZGluZycsICctaW1hZScsICc8aW5maWxlLm1hZT4nLCAnLW9tYWUnLCAnPG91dGZpbGUubWFlPic=

> <r_lp_tautomer_probability>
0.999999

> <r_epik_Ionization_Penalty>
0.88937

> <r_epik_Ionization_Penalty_Charging>
0.0803403

> <r_epik_Ionization_Penalty_Neutral>
0.80903

> <r_epik_State_Penalty>
0.931884

> <r_epik_Charging_Adjusted_Penalty>
1.01222

> <i_epik_Tot_Q>
1

> <i_epik_Tot_abs_Q>
1

> <r_epik_Metal_State_Penalty>
0.0782275

> <b_epik_Metal_Only>
0

> <s_lp_Force_Field>
OPLS_2005

> <r_lp_Energy>
31.9591

> <b_lp_Chiralities_Consistent>
1

> <s_lp_Variant>
AV-unprocessed.smi:2822-10

> <Gold.Version>
5.8.1

> <Gold.Id.Protein>
6NUR|6NUR_protein|mol2

> <Gold.PLP.Fitness>
39.2735

> <Gold.PLP.PLP>
-28.5842

> <Gold.PLP.part.hbond>
-2.0000

> <Gold.PLP.part.metal>
0.0000

> <Gold.PLP.part.buried>
-2.0372

> <Gold.PLP.part.nonpolar>
-25.5383

> <Gold.PLP.part.repulsive>
0.1939

> <Gold.PLP.ligand.clash>
0.0000

> <Gold.PLP.ligand.torsion>
0.6582

> <Gold.PLP.Chemscore.Hbond>
3.0000

> <Gold.PLP.Chemscore.CHOScore>
1.0000

> <Gold.PLP.Chemscore.Metal>
0.0000

> <Gold.Chemscore.Hbonds>
donor molecule, donor type, donor heavy atom, donor atom, acceptor molecule, acceptor atom, score
      L1  H    12    40       P1  7948  2.00
      P1  H  7989  7998       L1     4  0.90
      L1  C     5    21       P1  7957  1.00

> <Gold.PLP.Chemscore.Internal.Correction>
0.0057

> <Gold.Rescore>
     Score         DG    S(hbond)    S(metal)    S(lipo)     H(rot)  DE(clash)    DE(int)     intcor
     16.36     -17.31       1.65        0.00      79.68       1.17       0.30       0.65       ----

> <Gold.Chemscore.Fitness>
16.3639

> <Gold.Chemscore.DG>
-17.3150

> <Gold.Chemscore.ZeroCoef>
-5.4800

> <Gold.Chemscore.Hbond>
1.6484

> <Gold.Chemscore.Metal>
0.0000

> <Gold.Chemscore.Lipo>
79.6819

> <Gold.Chemscore.Internal_Hbond>
0.0000

> <Gold.Chemscore.DEClash>
0.2970

> <Gold.Chemscore.DEInternal>
0.6540

> <Gold.Chemscore.Rot>
1.1693

> <Gold.Chemscore.Internal.Correction>
   9.000000E+99

> <Gold.Chemscore.Hbonds>
donor molecule, donor type, donor heavy atom, donor atom, acceptor molecule, acceptor atom, score
      L1  H    12    40       P1  7948  0.98
      P1  H  7989  7998       L1     4  0.18

> <Gold.Chemscore.Hbond.Weighted>
-5.5056

> <Gold.Chemscore.Metal.Weighted>
-0.0000

> <Gold.Chemscore.Lipo.Weighted>
-9.3228

> <Gold.Chemscore.Internal_Hbond.Weighted>
0.0000

> <Gold.Chemscore.DEClash.Weighted>
0.2970

> <Gold.Chemscore.DEInternal.Weighted>
0.6540

> <Gold.Chemscore.Rot.Weighted>
2.9934

> <Gold.Chemscore.Internal.Correction.Weighted>
   9.000000E+99

> <Gold.Protein.RotatedTorsions>
[ 6907 6896 6895 6894 ] final -169.89 input  -60.11 | X-H torsion
[ 7974 7965 7964 7962 ] final   37.28 input  175.53 | X-H torsion
[ 8008 7997 7996 7995 ] final  -52.92 input   59.86 | X-H torsion
[ 10167 10162 10161 10158 ] final -151.90 input  -65.29 | X-H torsion
[ 10718 10713 10712 10709 ] final  -11.36 input   66.30 | X-H torsion
[ 10763 10752 10751 10750 ] final  -65.94 input  -60.55 | X-H torsion
[ 11005 11000 10999 10996 ] final  -79.74 input  -57.11 | X-H torsion

> <Gold.Protein.ActiveResidues>
 VAL166  LYS551  ARG553  GLY616  TRP617  ASP618  TYR619  PRO620  LYS621  CYS622 
 ASP623  PHE694  ASN695  SER759  ASP760  ASP761  ALA762  ILE779  LEU786  VAL792 
 PHE793  MET794  SER795  GLU796  ALA797  LYS798  CYS799  TRP800  GLU811  SER814 

> <Gold.Protein.RotatedAtoms>
  151.4989  133.3508  159.2865 H   0  0  0  0  0  0  0  0  0  0  0  0  # atno 6907 bound_to 6896
  150.8786  134.8175  159.7219 H   0  0  0  0  0  0  0  0  0  0  0  0  # atno 6908 bound_to 6896
  152.4747  134.4884  159.9739 H   0  0  0  0  0  0  0  0  0  0  0  0  # atno 6909 bound_to 6896
  146.1149  139.5914  142.9328 H   0  0  0  0  0  0  0  0  0  0  0  0  # atno 7974 bound_to 7965
  154.4119  140.1212  156.5070 H   0  0  0  0  0  0  0  0  0  0  0  0  # atno 8008 bound_to 7997
  155.6837  140.3496  155.4846 H   0  0  0  0  0  0  0  0  0  0  0  0  # atno 8009 bound_to 7997
  155.9529  140.1108  157.0951 H   0  0  0  0  0  0  0  0  0  0  0  0  # atno 8010 bound_to 7997
  139.7227  143.8931  152.2509 H   0  0  0  0  0  0  0  0  0  0  0  0  # atno 10167 bound_to 10162
  156.6601  130.4979  149.6033 H   0  0  0  0  0  0  0  0  0  0  0  0  # atno 10718 bound_to 10713
  154.3524  135.6133  153.5649 H   0  0  0  0  0  0  0  0  0  0  0  0  # atno 10763 bound_to 10752
  152.9797  135.5795  154.4727 H   0  0  0  0  0  0  0  0  0  0  0  0  # atno 10764 bound_to 10752
  154.4451  135.2851  155.1798 H   0  0  0  0  0  0  0  0  0  0  0  0  # atno 10765 bound_to 10752
  141.1667  133.7119  156.8168 H   0  0  0  0  0  0  0  0  0  0  0  0  # atno 11005 bound_to 11000
  145.5587  141.0406  143.2238 LP  0  0  0  0  0  0  0  0  0  0  0  0  # atno 17320 bound_to 7965
  144.7544  139.7111  143.7260 LP  0  0  0  0  0  0  0  0  0  0  0  0  # atno 17321 bound_to 7965
  139.8832  144.7006  150.8854 LP  0  0  0  0  0  0  0  0  0  0  0  0  # atno 17342 bound_to 10162
  140.7757  143.3644  151.1766 LP  0  0  0  0  0  0  0  0  0  0  0  0  # atno 17343 bound_to 10162
  156.2017  130.6624  151.1175 LP  0  0  0  0  0  0  0  0  0  0  0  0  # atno 17370 bound_to 10713
  157.7112  131.0733  150.6492 LP  0  0  0  0  0  0  0  0  0  0  0  0  # atno 17371 bound_to 10713
  140.2148  134.8801  157.3314 LP  0  0  0  0  0  0  0  0  0  0  0  0  # atno 17394 bound_to 11000
  140.2049  134.4209  155.7643 LP  0  0  0  0  0  0  0  0  0  0  0  0  # atno 17395 bound_to 11000

$$$$
