AV-unprocessed.smi:254|AV-procd|sdf|1947|dock1
  -GOLD-   2262021 83D 1   1.00000     0.00000
 Structure written by MMmdl.
 50 53  0  0  0  0  0  0  0  0  1 V2000
  153.0979  139.5983  157.7312 O   0  0  0  0  0  0  0  0  0  0  0  0
  152.2354  140.3995  157.3754 C   0  0  0  0  0  0  0  0  0  0  0  0
  151.6855  140.4571  155.9640 C   0  0  0  0  0  0  0  0  0  0  0  0
  150.7074  141.5403  156.0423 N   0  0  0  0  0  0  0  0  0  0  0  0
  149.5298  141.2763  155.4342 C   0  0  0  0  0  0  0  0  0  0  0  0
  149.5123  140.6949  154.2057 N   0  0  0  0  0  0  0  0  0  0  0  0
  148.3453  140.4476  153.6027 C   0  0  0  0  0  0  0  0  0  0  0  0
  147.1092  140.6994  154.0403 N   0  0  0  0  0  0  0  0  0  0  0  0
  147.1286  141.2911  155.2695 C   0  0  0  0  0  0  0  0  0  0  0  0
  148.2869  141.6142  156.0290 C   0  0  0  0  0  0  0  0  0  0  0  0
  147.9220  142.2078  157.2301 N   0  0  0  0  0  0  0  0  0  0  0  0
  146.6175  142.2305  157.1865 C   0  0  0  0  0  0  0  0  0  0  0  0
  146.0581  141.7146  156.0380 N   0  0  0  0  0  0  0  0  0  0  0  0
  144.6419  141.6037  155.7350 C   0  0  0  0  0  0  0  0  0  0  0  0
  143.9375  142.9519  155.4315 C   0  0  2  0  0  0  0  0  0  0  0  0
  144.8193  143.7332  154.4267 C   0  0  0  0  0  0  0  0  0  0  0  0
  144.0547  144.5933  153.6077 O   0  0  0  0  0  0  0  0  0  0  0  0
  143.6337  143.7807  156.7178 C   0  0  1  0  0  0  0  0  0  0  0  0
  142.9102  145.0993  156.4924 C   0  0  0  0  0  0  0  0  0  0  0  0
  142.3839  145.4223  157.8825 C   0  0  0  0  0  0  0  0  0  0  0  0
  141.9859  144.1654  158.4064 O   0  0  0  0  0  0  0  0  0  0  0  0
  142.6890  143.1221  157.7375 C   0  0  0  0  0  0  0  0  0  0  0  0
  150.6413  142.0751  157.4037 C   0  0  0  0  0  0  0  0  0  0  0  0
  151.6434  141.3212  158.1372 N   0  0  0  0  0  0  0  0  0  0  0  0
  151.8806  141.5682  159.5580 C   0  0  0  0  0  0  0  0  0  0  0  0
  152.2472  143.0348  159.8465 C   0  0  0  0  0  0  0  0  0  0  0  0
  152.8178  143.1097  161.0481 F   0  0  0  0  0  0  0  0  0  0  0  0
  153.1052  143.5051  158.9416 F   0  0  0  0  0  0  0  0  0  0  0  0
  151.1518  143.7946  159.8486 F   0  0  0  0  0  0  0  0  0  0  0  0
  152.4748  140.7058  155.2544 H   0  0  0  0  0  0  0  0  0  0  0  0
  151.2493  139.4957  155.6860 H   0  0  0  0  0  0  0  0  0  0  0  0
  148.4112  139.9826  152.6302 H   0  0  0  0  0  0  0  0  0  0  0  0
  146.0229  142.6335  157.9935 H   0  0  0  0  0  0  0  0  0  0  0  0
  144.5091  140.9173  154.8980 H   0  0  0  0  0  0  0  0  0  0  0  0
  144.1779  141.1232  156.5971 H   0  0  0  0  0  0  0  0  0  0  0  0
  142.9948  142.7262  154.9306 H   0  0  0  0  0  0  0  0  0  0  0  0
  145.5896  144.3044  154.9456 H   0  0  0  0  0  0  0  0  0  0  0  0
  145.3374  143.0510  153.7523 H   0  0  0  0  0  0  0  0  0  0  0  0
  143.6008  144.0710  152.9641 H   0  0  0  0  0  0  0  0  0  0  0  0
  144.5756  144.0049  157.2213 H   0  0  0  0  0  0  0  0  0  0  0  0
  143.5581  145.8854  156.1041 H   0  0  0  0  0  0  0  0  0  0  0  0
  142.0756  144.9665  155.8026 H   0  0  0  0  0  0  0  0  0  0  0  0
  143.1781  145.8328  158.5076 H   0  0  0  0  0  0  0  0  0  0  0  0
  141.5572  146.1325  157.8674 H   0  0  0  0  0  0  0  0  0  0  0  0
  141.9540  142.4861  157.2434 H   0  0  0  0  0  0  0  0  0  0  0  0
  143.2288  142.5169  158.4644 H   0  0  0  0  0  0  0  0  0  0  0  0
  150.8978  143.1350  157.3952 H   0  0  0  0  0  0  0  0  0  0  0  0
  149.6627  141.9659  157.8738 H   0  0  0  0  0  0  0  0  0  0  0  0
  150.9850  141.2980  160.1191 H   0  0  0  0  0  0  0  0  0  0  0  0
  152.6723  140.9078  159.9153 H   0  0  0  0  0  0  0  0  0  0  0  0
  1  2  2  0  0  0  0
  2 24  1  0  0  0  0
  2  3  1  0  0  0  0
  3  4  1  0  0  0  0
  3 30  1  0  0  0  0
  3 31  1  0  0  0  0
  4  5  1  0  0  0  0
  4 23  1  0  0  0  0
  5 10  1  0  0  0  0
  5  6  2  0  0  0  0
  6  7  1  0  0  0  0
  7  8  2  0  0  0  0
  7 32  1  0  0  0  0
  8  9  1  0  0  0  0
  9 13  1  0  0  0  0
  9 10  2  0  0  0  0
 10 11  1  0  0  0  0
 11 12  2  0  0  0  0
 12 13  1  0  0  0  0
 12 33  1  0  0  0  0
 13 14  1  0  0  0  0
 14 15  1  0  0  0  0
 14 34  1  0  0  0  0
 14 35  1  0  0  0  0
 15 16  1  0  0  0  0
 15 18  1  0  0  0  0
 15 36  1  0  0  0  0
 16 17  1  0  0  0  0
 16 37  1  0  0  0  0
 16 38  1  0  0  0  0
 17 39  1  0  0  0  0
 18 22  1  0  0  0  0
 18 19  1  0  0  0  0
 18 40  1  0  0  0  0
 19 20  1  0  0  0  0
 19 41  1  0  0  0  0
 19 42  1  0  0  0  0
 20 21  1  0  0  0  0
 20 43  1  0  0  0  0
 20 44  1  0  0  0  0
 21 22  1  0  0  0  0
 22 45  1  0  0  0  0
 22 46  1  0  0  0  0
 23 24  1  0  0  0  0
 23 47  1  0  0  0  0
 23 48  1  0  0  0  0
 24 25  1  0  0  0  0
 25 26  1  0  0  0  0
 25 49  1  0  0  0  0
 25 50  1  0  0  0  0
 26 27  1  0  0  0  0
 26 28  1  0  0  0  0
 26 29  1  0  0  0  0
M  END
> <s_m_source_file>
AV-unprocessed.smi

> <i_m_source_file_index>
254

> <i_lp_mmshare_version>
43012

> <i_f3d_flags>
0

> <s_epik_input>
RkMoRikoRilbQ0gyXU4xW0NIMl1OKFtDSDJdQzE9TyljKG5bY0hdbjIpYyhjMjMpbltjSF1uM1tDSDJdW0NASF0oW0NIMl1bT0hdKVtDQEBIXTRbQ0gyXVtDSDJdT1tDSDJdNA==

> <s_epik_cmdline>
J2VwaWtfcHl0aG9uJywgJy1waCcsICc3LjAnLCAnLXRuJywgJzgnLCAnLW1hJywgJzIwMCcsICctbWV0YWxfYmluZGluZycsICctaW1hZScsICc8aW5maWxlLm1hZT4nLCAnLW9tYWUnLCAnPG91dGZpbGUubWFlPic=

> <r_lp_tautomer_probability>
1

> <r_epik_Ionization_Penalty>
0.000292924

> <r_epik_Ionization_Penalty_Charging>
0

> <r_epik_Ionization_Penalty_Neutral>
0.000292924

> <r_epik_State_Penalty>
-0

> <r_epik_Charging_Adjusted_Penalty>
0

> <i_epik_Tot_Q>
0

> <i_epik_Tot_abs_Q>
0

> <r_epik_Metal_State_Penalty>
-0

> <b_epik_Metal_Only>
0

> <s_epik_Chemistry_Notes>
This compound contains an acetal/aminal-like group ( X-CH(R)-Y where X, Y are N, S, or O) that may be acid/base labile, releasing an aldehyde.

> <s_lp_Force_Field>
OPLS_2005

> <r_lp_Energy>
43.3232

> <b_lp_Chiralities_Consistent>
1

> <s_lp_Variant>
AV-unprocessed.smi:254-3

> <Gold.Version>
5.8.1

> <Gold.Id.Protein>
6NUR|6NUR_protein|mol2

> <Gold.PLP.Fitness>
49.8907

> <Gold.PLP.PLP>
-42.5237

> <Gold.PLP.part.hbond>
-3.0167

> <Gold.PLP.part.metal>
0.0000

> <Gold.PLP.part.buried>
-4.3450

> <Gold.PLP.part.nonpolar>
-36.8314

> <Gold.PLP.part.repulsive>
1.4323

> <Gold.PLP.ligand.clash>
0.7933

> <Gold.PLP.ligand.torsion>
1.0200

> <Gold.PLP.Chemscore.Hbond>
2.3245

> <Gold.PLP.Chemscore.CHOScore>
0.6778

> <Gold.PLP.Chemscore.Metal>
0.0000

> <Gold.Chemscore.Hbonds>
donor molecule, donor type, donor heavy atom, donor atom, acceptor molecule, acceptor atom, score
      L1  H    17    39       P1 10174  1.00
      P1  H  7989  7998       L1     6  0.32
      P1  H  7997  8008       L1     1  1.00
      L1  C     7    32       P1  7957  0.65

> <Gold.PLP.Chemscore.Internal.Correction>
1.1933

> <Gold.Rescore>
     Score         DG    S(hbond)    S(metal)    S(lipo)     H(rot)  DE(clash)    DE(int)     intcor
      4.41      -7.84       1.93        0.00      47.79       3.78       0.82       2.62       ----

> <Gold.Chemscore.Fitness>
4.4053

> <Gold.Chemscore.DG>
-7.8389

> <Gold.Chemscore.ZeroCoef>
-5.4800

> <Gold.Chemscore.Hbond>
1.9325

> <Gold.Chemscore.Metal>
0.0000

> <Gold.Chemscore.Lipo>
47.7900

> <Gold.Chemscore.Internal_Hbond>
0.0000

> <Gold.Chemscore.DEClash>
0.8173

> <Gold.Chemscore.DEInternal>
2.6163

> <Gold.Chemscore.Rot>
3.7840

> <Gold.Chemscore.Internal.Correction>
   9.000000E+99

> <Gold.Chemscore.Hbonds>
donor molecule, donor type, donor heavy atom, donor atom, acceptor molecule, acceptor atom, score
      L1  H    17    39       P1 10174  0.93
      P1  H  7989  7998       L1     6  0.14
      P1  H  7997  8008       L1     1  0.55

> <Gold.Chemscore.Hbond.Weighted>
-6.4545

> <Gold.Chemscore.Metal.Weighted>
-0.0000

> <Gold.Chemscore.Lipo.Weighted>
-5.5914

> <Gold.Chemscore.Internal_Hbond.Weighted>
0.0000

> <Gold.Chemscore.DEClash.Weighted>
0.8173

> <Gold.Chemscore.DEInternal.Weighted>
2.6163

> <Gold.Chemscore.Rot.Weighted>
9.6871

> <Gold.Chemscore.Internal.Correction.Weighted>
   9.000000E+99

> <Gold.Protein.RotatedTorsions>
[ 6907 6896 6895 6894 ] final  142.13 input  -60.11 | X-H torsion
[ 7974 7965 7964 7962 ] final  147.61 input  175.53 | X-H torsion
[ 8008 7997 7996 7995 ] final  -78.21 input   59.86 | X-H torsion
[ 10167 10162 10161 10158 ] final  136.78 input  -65.29 | X-H torsion
[ 10718 10713 10712 10709 ] final  -90.30 input   66.30 | X-H torsion
[ 10763 10752 10751 10750 ] final -131.68 input  -60.55 | X-H torsion
[ 11005 11000 10999 10996 ] final  160.12 input  -57.11 | X-H torsion

> <Gold.Protein.ActiveResidues>
 VAL166  LYS551  ARG553  GLY616  TRP617  ASP618  TYR619  PRO620  LYS621  CYS622 
 ASP623  PHE694  ASN695  SER759  ASP760  ASP761  ALA762  ILE779  LEU786  VAL792 
 PHE793  MET794  SER795  GLU796  ALA797  LYS798  CYS799  TRP800  GLU811  SER814 

> <Gold.Protein.RotatedAtoms>
  152.2225  133.4995  159.5170 H   0  0  0  0  0  0  0  0  0  0  0  0  # atno 6907 bound_to 6896
  150.7016  134.1323  159.4083 H   0  0  0  0  0  0  0  0  0  0  0  0  # atno 6908 bound_to 6896
  151.9244  135.0284  160.0575 H   0  0  0  0  0  0  0  0  0  0  0  0  # atno 6909 bound_to 6896
  144.8578  139.6050  143.5944 H   0  0  0  0  0  0  0  0  0  0  0  0  # atno 7974 bound_to 7965
  154.5668  140.0698  156.8904 H   0  0  0  0  0  0  0  0  0  0  0  0  # atno 8008 bound_to 7997
  155.2708  140.3365  155.4247 H   0  0  0  0  0  0  0  0  0  0  0  0  # atno 8009 bound_to 7997
  156.2087  140.1750  156.7728 H   0  0  0  0  0  0  0  0  0  0  0  0  # atno 8010 bound_to 7997
  139.5167  144.6446  151.5476 H   0  0  0  0  0  0  0  0  0  0  0  0  # atno 10167 bound_to 10162
  155.9987  130.4904  150.5302 H   0  0  0  0  0  0  0  0  0  0  0  0  # atno 10718 bound_to 10713
  154.8749  135.3822  154.4286 H   0  0  0  0  0  0  0  0  0  0  0  0  # atno 10763 bound_to 10752
  153.4982  135.7030  153.5851 H   0  0  0  0  0  0  0  0  0  0  0  0  # atno 10764 bound_to 10752
  153.4195  135.3905  155.2069 H   0  0  0  0  0  0  0  0  0  0  0  0  # atno 10765 bound_to 10752
  140.2028  134.8325  157.3037 H   0  0  0  0  0  0  0  0  0  0  0  0  # atno 11005 bound_to 11000
  146.2837  139.6945  142.9211 LP  0  0  0  0  0  0  0  0  0  0  0  0  # atno 17320 bound_to 7965
  145.4372  141.0420  143.2878 LP  0  0  0  0  0  0  0  0  0  0  0  0  # atno 17321 bound_to 7965
  140.6226  143.9230  150.6538 LP  0  0  0  0  0  0  0  0  0  0  0  0  # atno 17342 bound_to 10162
  140.2508  143.3594  152.1407 LP  0  0  0  0  0  0  0  0  0  0  0  0  # atno 17343 bound_to 10162
  157.3252  131.0689  151.1902 LP  0  0  0  0  0  0  0  0  0  0  0  0  # atno 17370 bound_to 10713
  157.2802  130.6746  149.6062 LP  0  0  0  0  0  0  0  0  0  0  0  0  # atno 17371 bound_to 10713
  140.2035  134.4225  155.7650 LP  0  0  0  0  0  0  0  0  0  0  0  0  # atno 17394 bound_to 11000
  141.2227  133.7083  156.8223 LP  0  0  0  0  0  0  0  0  0  0  0  0  # atno 17395 bound_to 11000

$$$$
