AV-unprocessed.smi:2159|AV-procd|sdf|8796|dock5
  -GOLD-   2272011573D 1   1.00000     0.00000
 Structure written by MMmdl.
 48 50  0  0  0  0  0  0  0  0  2 V2000
  153.0398  138.6729  158.7601 O   0  0  0  0  0  0  0  0  0  0  0  0
  151.8781  138.4206  158.4382 C   0  0  0  0  0  0  0  0  0  0  0  0
  151.1467  137.2170  159.0394 C   0  0  0  0  0  0  0  0  0  0  0  0
  149.6193  137.4157  159.1082 C   0  0  0  0  0  0  0  0  0  0  0  0
  148.9596  136.2649  159.7300 N   0  0  0  0  0  0  0  0  0  0  0  0
  149.2936  134.9811  159.4984 C   0  0  0  0  0  0  0  0  0  0  0  0
  150.1064  134.5595  158.6763 O   0  0  0  0  0  0  0  0  0  0  0  0
  148.5686  134.0953  160.5010 C   0  0  2  0  0  0  0  0  0  0  0  0
  148.0655  132.6942  160.1507 C   0  0  0  0  0  0  0  0  0  0  0  0
  147.4042  132.1223  161.4332 C   0  0  0  0  0  0  0  0  0  0  0  0
  146.3605  133.0756  162.0872 C   0  0  0  0  0  0  0  0  0  0  0  0
  146.8547  134.5381  162.2456 C   0  0  0  0  0  0  0  0  0  0  0  0
  147.3920  134.9728  160.8813 C   0  0  1  0  0  0  0  0  0  0  0  0
  147.9612  136.3607  160.6289 C   0  0  0  0  0  0  0  0  0  0  0  0
  147.5135  137.3879  161.1374 O   0  0  0  0  0  0  0  0  0  0  0  0
  151.1889  139.1550  157.5512 N   0  0  0  0  0  0  0  0  0  0  0  0
  151.7081  140.3304  156.8616 C   0  0  0  0  0  0  0  0  0  0  0  0
  150.6856  141.4797  156.8556 C   0  0  0  0  0  0  0  0  0  0  0  0
  151.0823  142.6065  157.7890 C   0  0  0  0  0  0  0  0  0  0  0  0
  152.0316  142.4332  158.8197 C   0  0  0  0  0  0  0  0  0  0  0  0
  152.3547  143.5275  159.6494 C   0  0  0  0  0  0  0  0  0  0  0  0
  151.7231  144.7697  159.4311 C   0  0  0  0  0  0  0  0  0  0  0  0
  150.7837  144.8869  158.3863 C   0  0  0  0  0  0  0  0  0  0  0  0
  150.5016  143.8157  157.6127 N   0  3  0  0  0  0  0  0  0  0  0  0
  151.3741  136.3255  158.4526 H   0  0  0  0  0  0  0  0  0  0  0  0
  151.5463  137.0438  160.0393 H   0  0  0  0  0  0  0  0  0  0  0  0
  149.3768  138.3193  159.6709 H   0  0  0  0  0  0  0  0  0  0  0  0
  149.2173  137.5758  158.1059 H   0  0  0  0  0  0  0  0  0  0  0  0
  149.2557  134.0032  161.3455 H   0  0  0  0  0  0  0  0  0  0  0  0
  147.3476  132.7324  159.3301 H   0  0  0  0  0  0  0  0  0  0  0  0
  148.8882  132.0552  159.8285 H   0  0  0  0  0  0  0  0  0  0  0  0
  146.9395  131.1610  161.2122 H   0  0  0  0  0  0  0  0  0  0  0  0
  148.1862  131.9144  162.1648 H   0  0  0  0  0  0  0  0  0  0  0  0
  145.4604  133.0773  161.4709 H   0  0  0  0  0  0  0  0  0  0  0  0
  146.0568  132.6813  163.0574 H   0  0  0  0  0  0  0  0  0  0  0  0
  146.0365  135.1843  162.5651 H   0  0  0  0  0  0  0  0  0  0  0  0
  147.6320  134.6029  163.0082 H   0  0  0  0  0  0  0  0  0  0  0  0
  146.5872  134.8585  160.1511 H   0  0  0  0  0  0  0  0  0  0  0  0
  150.2397  138.8808  157.3420 H   0  0  0  0  0  0  0  0  0  0  0  0
  152.6209  140.6477  157.3667 H   0  0  0  0  0  0  0  0  0  0  0  0
  151.9949  140.0640  155.8426 H   0  0  0  0  0  0  0  0  0  0  0  0
  150.5773  141.8870  155.8493 H   0  0  0  0  0  0  0  0  0  0  0  0
  149.7020  141.1052  157.1421 H   0  0  0  0  0  0  0  0  0  0  0  0
  152.5072  141.4756  158.9746 H   0  0  0  0  0  0  0  0  0  0  0  0
  153.0778  143.4156  160.4439 H   0  0  0  0  0  0  0  0  0  0  0  0
  151.9563  145.6196  160.0560 H   0  0  0  0  0  0  0  0  0  0  0  0
  150.2530  145.7974  158.1482 H   0  0  0  0  0  0  0  0  0  0  0  0
  149.8178  143.9225  156.8625 H   0  0  0  0  0  0  0  0  0  0  0  0
  1  2  2  0  0  0  0
  2  3  1  0  0  0  0
  2 16  1  0  0  0  0
  3  4  1  0  0  0  0
  3 25  1  0  0  0  0
  3 26  1  0  0  0  0
  4  5  1  0  0  0  0
  4 27  1  0  0  0  0
  4 28  1  0  0  0  0
  5 14  1  0  0  0  0
  5  6  1  0  0  0  0
  6  7  2  0  0  0  0
  6  8  1  0  0  0  0
  8 13  1  0  0  0  0
  8  9  1  0  0  0  0
  8 29  1  0  0  0  0
  9 10  1  0  0  0  0
  9 30  1  0  0  0  0
  9 31  1  0  0  0  0
 10 11  1  0  0  0  0
 10 32  1  0  0  0  0
 10 33  1  0  0  0  0
 11 12  1  0  0  0  0
 11 34  1  0  0  0  0
 11 35  1  0  0  0  0
 12 13  1  0  0  0  0
 12 36  1  0  0  0  0
 12 37  1  0  0  0  0
 13 14  1  0  0  0  0
 13 38  1  0  0  0  0
 14 15  2  0  0  0  0
 16 17  1  0  0  0  0
 16 39  1  0  0  0  0
 17 18  1  0  0  0  0
 17 40  1  0  0  0  0
 17 41  1  0  0  0  0
 18 19  1  0  0  0  0
 18 42  1  0  0  0  0
 18 43  1  0  0  0  0
 19 24  1  0  0  0  0
 19 20  2  0  0  0  0
 20 21  1  0  0  0  0
 20 44  1  0  0  0  0
 21 22  2  0  0  0  0
 21 45  1  0  0  0  0
 22 23  1  0  0  0  0
 22 46  1  0  0  0  0
 23 24  2  0  0  0  0
 23 47  1  0  0  0  0
 24 48  1  0  0  0  0
M  CHG  1  24   1
M  END
> <s_m_source_file>
AV-unprocessed.smi

> <i_m_source_file_index>
2159

> <i_lp_mmshare_version>
43012

> <i_f3d_flags>
0

> <s_epik_input>
bjFbY0hdW2NIXVtjSF1bY0hdYzFbQ0gyXVtDSDJdW05IXUMoPU8pW0NIMl1bQ0gyXU4oQzI9TylDKD1PKVtDQEhdKFtDQEBIXTIzKVtDSDJdW0NIMl1bQ0gyXVtDSDJdMw==

> <s_epik_cmdline>
J2VwaWtfcHl0aG9uJywgJy1waCcsICc3LjAnLCAnLXRuJywgJzgnLCAnLW1hJywgJzIwMCcsICctbWV0YWxfYmluZGluZycsICctaW1hZScsICc8aW5maWxlLm1hZT4nLCAnLW9tYWUnLCAnPG91dGZpbGUubWFlPic=

> <r_lp_tautomer_probability>
1

> <r_epik_Ionization_Penalty>
1.85146

> <r_epik_Ionization_Penalty_Charging>
1.85146

> <r_epik_Ionization_Penalty_Neutral>
2.95922e-08

> <r_epik_State_Penalty>
1.96899

> <r_epik_Charging_Adjusted_Penalty>
3.82044

> <i_epik_Tot_Q>
1

> <i_epik_Tot_abs_Q>
1

> <r_epik_Metal_State_Penalty>
1.99467

> <b_epik_Metal_Only>
0

> <s_lp_Force_Field>
OPLS_2005

> <r_lp_Energy>
35.9889

> <b_lp_Chiralities_Consistent>
1

> <s_lp_Variant>
AV-unprocessed.smi:2159-6

> <Gold.Version>
5.8.1

> <Gold.Id.Protein>
6NUR|6NUR_protein|mol2

> <Gold.PLP.Fitness>
52.3956

> <Gold.PLP.PLP>
-44.1846

> <Gold.PLP.part.hbond>
-3.8412

> <Gold.PLP.part.metal>
0.0000

> <Gold.PLP.part.buried>
-2.8013

> <Gold.PLP.part.nonpolar>
-37.7303

> <Gold.PLP.part.repulsive>
0.0185

> <Gold.PLP.ligand.clash>
0.0000

> <Gold.PLP.ligand.torsion>
1.3073

> <Gold.PLP.Chemscore.Hbond>
3.5840

> <Gold.PLP.Chemscore.CHOScore>
0.0000

> <Gold.PLP.Chemscore.Metal>
0.0000

> <Gold.Chemscore.Hbonds>
donor molecule, donor type, donor heavy atom, donor atom, acceptor molecule, acceptor atom, score
      L1  H    24    48       P1  8028  2.00
      P1  H  6931  6943       L1    15  0.80
      P1  H  6934  6947       L1    15  0.93

> <Gold.PLP.Chemscore.Internal.Correction>
0.0736

> <Gold.Rescore>
     Score         DG    S(hbond)    S(metal)    S(lipo)     H(rot)  DE(clash)    DE(int)     intcor
     19.17     -21.61       2.65        0.00     108.17       2.10       0.04       2.39       ----

> <Gold.Chemscore.Fitness>
19.1736

> <Gold.Chemscore.DG>
-21.6109

> <Gold.Chemscore.ZeroCoef>
-5.4800

> <Gold.Chemscore.Hbond>
2.6468

> <Gold.Chemscore.Metal>
0.0000

> <Gold.Chemscore.Lipo>
108.1710

> <Gold.Chemscore.Internal_Hbond>
0.0000

> <Gold.Chemscore.DEClash>
0.0445

> <Gold.Chemscore.DEInternal>
2.3928

> <Gold.Chemscore.Rot>
2.0959

> <Gold.Chemscore.Internal.Correction>
   9.000000E+99

> <Gold.Chemscore.Hbonds>
donor molecule, donor type, donor heavy atom, donor atom, acceptor molecule, acceptor atom, score
      L1  H    24    48       P1  8028  0.95
      P1  H  6931  6943       L1    15  0.40
      P1  H  6934  6947       L1    15  0.91

> <Gold.Chemscore.Hbond.Weighted>
-8.8404

> <Gold.Chemscore.Metal.Weighted>
-0.0000

> <Gold.Chemscore.Lipo.Weighted>
-12.6560

> <Gold.Chemscore.Internal_Hbond.Weighted>
0.0000

> <Gold.Chemscore.DEClash.Weighted>
0.0445

> <Gold.Chemscore.DEInternal.Weighted>
2.3928

> <Gold.Chemscore.Rot.Weighted>
5.3655

> <Gold.Chemscore.Internal.Correction.Weighted>
   9.000000E+99

> <Gold.Protein.RotatedTorsions>
[ 6907 6896 6895 6894 ] final   75.29 input  -60.11 | X-H torsion
[ 7974 7965 7964 7962 ] final   54.21 input  175.53 | X-H torsion
[ 8008 7997 7996 7995 ] final  153.96 input   59.86 | X-H torsion
[ 10167 10162 10161 10158 ] final   26.88 input  -65.29 | X-H torsion
[ 10718 10713 10712 10709 ] final -100.33 input   66.30 | X-H torsion
[ 10763 10752 10751 10750 ] final  -58.03 input  -60.55 | X-H torsion
[ 11005 11000 10999 10996 ] final  162.47 input  -57.11 | X-H torsion

> <Gold.Protein.ActiveResidues>
 VAL166  LYS551  ARG553  GLY616  TRP617  ASP618  TYR619  PRO620  LYS621  CYS622 
 ASP623  PHE694  ASN695  SER759  ASP760  ASP761  ALA762  ILE779  LEU786  VAL792 
 PHE793  MET794  SER795  GLU796  ALA797  LYS798  CYS799  TRP800  GLU811  SER814 

> <Gold.Protein.RotatedAtoms>
  152.5018  134.4143  159.9458 H   0  0  0  0  0  0  0  0  0  0  0  0  # atno 6907 bound_to 6896
  151.4112  133.3720  159.2752 H   0  0  0  0  0  0  0  0  0  0  0  0  # atno 6908 bound_to 6896
  150.9290  134.8727  159.7598 H   0  0  0  0  0  0  0  0  0  0  0  0  # atno 6909 bound_to 6896
  145.9632  139.4078  143.0235 H   0  0  0  0  0  0  0  0  0  0  0  0  # atno 7974 bound_to 7965
  156.2555  140.1979  156.6572 H   0  0  0  0  0  0  0  0  0  0  0  0  # atno 8008 bound_to 7997
  154.6492  140.0574  156.9961 H   0  0  0  0  0  0  0  0  0  0  0  0  # atno 8009 bound_to 7997
  155.1444  140.3245  155.4447 H   0  0  0  0  0  0  0  0  0  0  0  0  # atno 8010 bound_to 7997
  140.4985  144.0353  150.6323 H   0  0  0  0  0  0  0  0  0  0  0  0  # atno 10167 bound_to 10162
  156.0160  130.5323  150.6801 H   0  0  0  0  0  0  0  0  0  0  0  0  # atno 10718 bound_to 10713
  154.2317  135.6359  153.5177 H   0  0  0  0  0  0  0  0  0  0  0  0  # atno 10763 bound_to 10752
  152.9947  135.5521  154.6005 H   0  0  0  0  0  0  0  0  0  0  0  0  # atno 10764 bound_to 10752
  154.5490  135.2900  155.1000 H   0  0  0  0  0  0  0  0  0  0  0  0  # atno 10765 bound_to 10752
  140.2261  134.8159  157.3270 H   0  0  0  0  0  0  0  0  0  0  0  0  # atno 11005 bound_to 11000
  145.8011  140.9770  143.0998 LP  0  0  0  0  0  0  0  0  0  0  0  0  # atno 17320 bound_to 7965
  144.6819  139.9802  143.7483 LP  0  0  0  0  0  0  0  0  0  0  0  0  # atno 17321 bound_to 7965
  140.3642  143.2891  152.0350 LP  0  0  0  0  0  0  0  0  0  0  0  0  # atno 17342 bound_to 10162
  139.4866  144.6279  151.7127 LP  0  0  0  0  0  0  0  0  0  0  0  0  # atno 17343 bound_to 10162
  157.4505  131.0872  151.0850 LP  0  0  0  0  0  0  0  0  0  0  0  0  # atno 17370 bound_to 10713
  157.1367  130.6125  149.5544 LP  0  0  0  0  0  0  0  0  0  0  0  0  # atno 17371 bound_to 10713
  140.1799  134.4503  155.7778 LP  0  0  0  0  0  0  0  0  0  0  0  0  # atno 17394 bound_to 11000
  141.2220  133.6979  156.7851 LP  0  0  0  0  0  0  0  0  0  0  0  0  # atno 17395 bound_to 11000

$$$$
