AV-unprocessed.smi:3350|AV-procd|sdf|12940|dock5
  -GOLD-   2272019373D 1   1.00000     0.00000
 Structure written by MMmdl.
 41 42  0  0  0  0  0  0  0  0  1 V2000
  145.0073  135.9449  150.5977 C   0  0  0  0  0  0  0  0  0  0  0  0
  145.4995  135.5762  152.0060 C   0  0  1  0  0  0  0  0  0  0  0  0
  146.0087  134.1229  152.0635 C   0  0  0  0  0  0  0  0  0  0  0  0
  145.1805  133.2156  151.2883 N   0  0  0  0  0  0  0  0  0  0  0  0
  145.5579  132.0628  150.6324 C   0  0  0  0  0  0  0  0  0  0  0  0
  144.4418  131.5516  150.0345 C   0  0  0  0  0  0  0  0  0  0  0  0
  143.4171  132.4739  150.3866 C   0  0  0  0  0  0  0  0  0  0  0  0
  143.8617  133.4683  151.1379 N   0  0  0  0  0  0  0  0  0  0  0  0
  146.5570  136.4952  152.4215 N   0  0  0  0  0  0  0  0  0  0  0  0
  146.4206  137.4821  153.3171 C   0  0  0  0  0  0  0  0  0  0  0  0
  145.3623  137.7650  153.8790 O   0  0  0  0  0  0  0  0  0  0  0  0
  147.5800  138.1195  153.5278 N   0  0  0  0  0  0  0  0  0  0  0  0
  147.7811  139.2282  154.4571 C   0  0  2  0  0  0  0  0  0  0  0  0
  146.8591  140.3979  154.0772 C   0  0  0  0  0  0  0  0  0  0  0  0
  149.2649  139.6409  154.4546 C   0  0  2  0  0  0  0  0  0  0  0  0
  150.2539  138.4731  154.4387 C   0  0  0  0  0  0  0  0  0  0  0  0
  151.5068  139.0539  155.0761 C   0  0  0  0  0  0  0  0  0  0  0  0
  151.0293  140.3582  155.7206 C   0  0  0  0  0  0  0  0  0  0  0  0
  149.6112  140.3029  155.6608 O   0  0  0  0  0  0  0  0  0  0  0  0
  144.2046  135.2803  150.2771 H   0  0  0  0  0  0  0  0  0  0  0  0
  145.8116  135.8741  149.8647 H   0  0  0  0  0  0  0  0  0  0  0  0
  144.6188  136.9635  150.5680 H   0  0  0  0  0  0  0  0  0  0  0  0
  144.6563  135.6646  152.6940 H   0  0  0  0  0  0  0  0  0  0  0  0
  147.0233  134.0673  151.6669 H   0  0  0  0  0  0  0  0  0  0  0  0
  146.0596  133.7702  153.0951 H   0  0  0  0  0  0  0  0  0  0  0  0
  146.5780  131.7081  150.6442 H   0  0  0  0  0  0  0  0  0  0  0  0
  144.3688  130.6558  149.4361 H   0  0  0  0  0  0  0  0  0  0  0  0
  142.3707  132.4497  150.1204 H   0  0  0  0  0  0  0  0  0  0  0  0
  147.4708  136.3435  152.0199 H   0  0  0  0  0  0  0  0  0  0  0  0
  148.3920  137.8062  153.0166 H   0  0  0  0  0  0  0  0  0  0  0  0
  147.5254  138.9010  155.4668 H   0  0  0  0  0  0  0  0  0  0  0  0
  146.9764  141.2318  154.7697 H   0  0  0  0  0  0  0  0  0  0  0  0
  145.8108  140.0982  154.1021 H   0  0  0  0  0  0  0  0  0  0  0  0
  147.0772  140.7656  153.0740 H   0  0  0  0  0  0  0  0  0  0  0  0
  149.4717  140.3084  153.6153 H   0  0  0  0  0  0  0  0  0  0  0  0
  149.8793  137.6536  155.0540 H   0  0  0  0  0  0  0  0  0  0  0  0
  150.4300  138.0849  153.4352 H   0  0  0  0  0  0  0  0  0  0  0  0
  151.9185  138.3671  155.8164 H   0  0  0  0  0  0  0  0  0  0  0  0
  152.2810  139.2516  154.3337 H   0  0  0  0  0  0  0  0  0  0  0  0
  151.3762  140.4705  156.7479 H   0  0  0  0  0  0  0  0  0  0  0  0
  151.3779  141.2187  155.1477 H   0  0  0  0  0  0  0  0  0  0  0  0
  1  2  1  0  0  0  0
  1 20  1  0  0  0  0
  1 21  1  0  0  0  0
  1 22  1  0  0  0  0
  2  3  1  0  0  0  0
  2  9  1  0  0  0  0
  2 23  1  0  0  0  0
  3  4  1  0  0  0  0
  3 24  1  0  0  0  0
  3 25  1  0  0  0  0
  4  8  1  0  0  0  0
  4  5  1  0  0  0  0
  5  6  2  0  0  0  0
  5 26  1  0  0  0  0
  6  7  1  0  0  0  0
  6 27  1  0  0  0  0
  7  8  2  0  0  0  0
  7 28  1  0  0  0  0
  9 10  1  0  0  0  0
  9 29  1  0  0  0  0
 10 11  2  0  0  0  0
 10 12  1  0  0  0  0
 12 13  1  0  0  0  0
 12 30  1  0  0  0  0
 13 14  1  0  0  0  0
 13 15  1  0  0  0  0
 13 31  1  0  0  0  0
 14 32  1  0  0  0  0
 14 33  1  0  0  0  0
 14 34  1  0  0  0  0
 15 19  1  0  0  0  0
 15 16  1  0  0  0  0
 15 35  1  0  0  0  0
 16 17  1  0  0  0  0
 16 36  1  0  0  0  0
 16 37  1  0  0  0  0
 17 18  1  0  0  0  0
 17 38  1  0  0  0  0
 17 39  1  0  0  0  0
 18 19  1  0  0  0  0
 18 40  1  0  0  0  0
 18 41  1  0  0  0  0
M  END
> <s_m_source_file>
AV-unprocessed.smi

> <i_m_source_file_index>
3350

> <i_lp_mmshare_version>
43012

> <i_f3d_flags>
0

> <s_epik_input>
bjFbY0hdW2NIXVtjSF1uMVtDSDJdW0NAQEhdKFtDSDNdKVtOSF1DKD1PKVtOSF1bQ0BIXShbQ0gzXSlbQ0BASF0yW0NIMl1bQ0gyXVtDSDJdTzI=

> <s_epik_cmdline>
J2VwaWtfcHl0aG9uJywgJy1waCcsICc3LjAnLCAnLXRuJywgJzgnLCAnLW1hJywgJzIwMCcsICctbWV0YWxfYmluZGluZycsICctaW1hZScsICc8aW5maWxlLm1hZT4nLCAnLW9tYWUnLCAnPG91dGZpbGUubWFlPic=

> <r_lp_tautomer_probability>
1

> <r_epik_Ionization_Penalty>
6.42349e-05

> <r_epik_Ionization_Penalty_Charging>
0

> <r_epik_Ionization_Penalty_Neutral>
6.42349e-05

> <r_epik_State_Penalty>
-0

> <r_epik_Charging_Adjusted_Penalty>
0

> <i_epik_Tot_Q>
0

> <i_epik_Tot_abs_Q>
0

> <r_epik_Metal_State_Penalty>
-0

> <b_epik_Metal_Only>
0

> <s_lp_Force_Field>
OPLS_2005

> <r_lp_Energy>
16.0006

> <b_lp_Chiralities_Consistent>
1

> <s_lp_Variant>
AV-unprocessed.smi:3350-2

> <Gold.Version>
5.8.1

> <Gold.Id.Protein>
6NUR|6NUR_protein|mol2

> <Gold.PLP.Fitness>
41.3690

> <Gold.PLP.PLP>
-31.1779

> <Gold.PLP.part.hbond>
-1.6906

> <Gold.PLP.part.metal>
0.0000

> <Gold.PLP.part.buried>
-0.0632

> <Gold.PLP.part.nonpolar>
-29.6429

> <Gold.PLP.part.repulsive>
0.4704

> <Gold.PLP.ligand.clash>
0.0000

> <Gold.PLP.ligand.torsion>
1.0596

> <Gold.PLP.Chemscore.Hbond>
1.5803

> <Gold.PLP.Chemscore.CHOScore>
2.5008

> <Gold.PLP.Chemscore.Metal>
0.0000

> <Gold.Chemscore.Hbonds>
donor molecule, donor type, donor heavy atom, donor atom, acceptor molecule, acceptor atom, score
      L1  H     9    29       P1  7948  0.86
      L1  H    12    30       P1  7948  0.80
      L1  C     5    26       P1 10747  0.91
      L1  C     7    28       P1 10186  0.92
      L1  C     7    28       P1 10952  0.68

> <Gold.PLP.Chemscore.Internal.Correction>
0.0671

> <Gold.Rescore>
     Score         DG    S(hbond)    S(metal)    S(lipo)     H(rot)  DE(clash)    DE(int)     intcor
     14.04     -17.26       1.88        0.00      86.76       1.82       0.63       2.59       ----

> <Gold.Chemscore.Fitness>
14.0432

> <Gold.Chemscore.DG>
-17.2605

> <Gold.Chemscore.ZeroCoef>
-5.4800

> <Gold.Chemscore.Hbond>
1.8825

> <Gold.Chemscore.Metal>
0.0000

> <Gold.Chemscore.Lipo>
86.7638

> <Gold.Chemscore.Internal_Hbond>
0.0000

> <Gold.Chemscore.DEClash>
0.6296

> <Gold.Chemscore.DEInternal>
2.5877

> <Gold.Chemscore.Rot>
1.8197

> <Gold.Chemscore.Internal.Correction>
   9.000000E+99

> <Gold.Chemscore.Hbonds>
donor molecule, donor type, donor heavy atom, donor atom, acceptor molecule, acceptor atom, score
      L1  H     9    29       P1  7948  0.84
      L1  H    12    30       P1  7948  0.75

> <Gold.Chemscore.Hbond.Weighted>
-6.2875

> <Gold.Chemscore.Metal.Weighted>
-0.0000

> <Gold.Chemscore.Lipo.Weighted>
-10.1514

> <Gold.Chemscore.Internal_Hbond.Weighted>
0.0000

> <Gold.Chemscore.DEClash.Weighted>
0.6296

> <Gold.Chemscore.DEInternal.Weighted>
2.5877

> <Gold.Chemscore.Rot.Weighted>
4.6583

> <Gold.Chemscore.Internal.Correction.Weighted>
   9.000000E+99

> <Gold.Protein.RotatedTorsions>
[ 6907 6896 6895 6894 ] final  -28.92 input  -60.11 | X-H torsion
[ 7974 7965 7964 7962 ] final   94.68 input  175.53 | X-H torsion
[ 8008 7997 7996 7995 ] final  161.96 input   59.86 | X-H torsion
[ 10167 10162 10161 10158 ] final  -62.85 input  -65.29 | X-H torsion
[ 10718 10713 10712 10709 ] final  104.98 input   66.30 | X-H torsion
[ 10763 10752 10751 10750 ] final -131.26 input  -60.55 | X-H torsion
[ 11005 11000 10999 10996 ] final  -95.58 input  -57.11 | X-H torsion

> <Gold.Protein.ActiveResidues>
 VAL166  LYS551  ARG553  GLY616  TRP617  ASP618  TYR619  PRO620  LYS621  CYS622 
 ASP623  PHE694  ASN695  SER759  ASP760  ASP761  ALA762  ILE779  LEU786  VAL792 
 PHE793  MET794  SER795  GLU796  ALA797  LYS798  CYS799  TRP800  GLU811  SER814 

> <Gold.Protein.RotatedAtoms>
  151.1263  135.0106  159.8561 H   0  0  0  0  0  0  0  0  0  0  0  0  # atno 6907 bound_to 6896
  152.5449  134.1663  159.8588 H   0  0  0  0  0  0  0  0  0  0  0  0  # atno 6908 bound_to 6896
  151.1725  133.4730  159.2627 H   0  0  0  0  0  0  0  0  0  0  0  0  # atno 6909 bound_to 6896
  145.4623  139.2286  143.2980 H   0  0  0  0  0  0  0  0  0  0  0  0  # atno 7974 bound_to 7965
  156.2066  140.1763  156.7786 H   0  0  0  0  0  0  0  0  0  0  0  0  # atno 8008 bound_to 7997
  154.5663  140.0690  156.8927 H   0  0  0  0  0  0  0  0  0  0  0  0  # atno 8009 bound_to 7997
  155.2754  140.3345  155.4264 H   0  0  0  0  0  0  0  0  0  0  0  0  # atno 8010 bound_to 7997
  140.5911  143.2342  151.6137 H   0  0  0  0  0  0  0  0  0  0  0  0  # atno 10167 bound_to 10162
  157.6721  131.0817  150.5788 H   0  0  0  0  0  0  0  0  0  0  0  0  # atno 10718 bound_to 10713
  154.8752  135.3836  154.4217 H   0  0  0  0  0  0  0  0  0  0  0  0  # atno 10763 bound_to 10752
  153.4920  135.7030  153.5884 H   0  0  0  0  0  0  0  0  0  0  0  0  # atno 10764 bound_to 10752
  153.4253  135.3891  155.2104 H   0  0  0  0  0  0  0  0  0  0  0  0  # atno 10765 bound_to 10752
  141.1437  133.8036  157.0454 H   0  0  0  0  0  0  0  0  0  0  0  0  # atno 11005 bound_to 11000
  146.2444  140.5393  142.8920 LP  0  0  0  0  0  0  0  0  0  0  0  0  # atno 17320 bound_to 7965
  144.7995  140.6187  143.6487 LP  0  0  0  0  0  0  0  0  0  0  0  0  # atno 17321 bound_to 7965
  139.5228  144.3152  152.0959 LP  0  0  0  0  0  0  0  0  0  0  0  0  # atno 17342 bound_to 10162
  140.2316  144.4362  150.6297 LP  0  0  0  0  0  0  0  0  0  0  0  0  # atno 17343 bound_to 10162
  156.6089  130.4374  149.5867 LP  0  0  0  0  0  0  0  0  0  0  0  0  # atno 17370 bound_to 10713
  156.2447  130.6871  151.1588 LP  0  0  0  0  0  0  0  0  0  0  0  0  # atno 17371 bound_to 10713
  140.0666  134.9726  157.1396 LP  0  0  0  0  0  0  0  0  0  0  0  0  # atno 17394 bound_to 11000
  140.3771  134.2327  155.7173 LP  0  0  0  0  0  0  0  0  0  0  0  0  # atno 17395 bound_to 11000

$$$$
