AV-unprocessed.smi:2409|AV-procd|sdf|9525|dock3
  -GOLD-   2272013153D 1   1.00000     0.00000
 Structure written by MMmdl.
 35 36  0  0  0  0  0  0  0  0  1 V2000
  147.3481  140.4125  154.1779 C   0  0  0  0  0  0  0  0  0  0  0  0
  147.9430  139.4647  155.0477 O   0  0  0  0  0  0  0  0  0  0  0  0
  149.2875  139.4045  154.9395 C   0  0  0  0  0  0  0  0  0  0  0  0
  150.1314  138.3910  154.5788 C   0  0  0  0  0  0  0  0  0  0  0  0
  149.8442  137.0542  154.2039 N   0  0  0  0  0  0  0  0  0  0  0  0
  149.8084  135.9676  154.9971 C   0  0  0  0  0  0  0  0  0  0  0  0
  149.9835  135.9910  156.2134 O   0  0  0  0  0  0  0  0  0  0  0  0
  149.4977  134.8256  154.3585 N   0  0  0  0  0  0  0  0  0  0  0  0
  149.3804  133.5127  154.9181 C   0  0  1  0  0  0  0  0  0  0  0  0
  148.0690  132.7946  154.6889 C   0  0  0  0  0  0  0  0  0  0  0  0
  149.3097  132.3317  153.9724 C   0  0  2  0  0  0  0  0  0  0  0  0
  149.9457  131.0082  154.3375 C   0  0  0  0  0  0  0  0  0  0  0  0
  151.4391  138.9332  154.7154 C   0  0  0  0  0  0  0  0  0  0  0  0
  152.7698  138.2761  154.4850 C   0  0  0  0  0  0  0  0  0  0  0  0
  151.3932  140.2071  155.0887 N   0  0  0  0  0  0  0  0  0  0  0  0
  150.0765  140.5008  155.2193 N   0  0  0  0  0  0  0  0  0  0  0  0
  149.6795  141.8300  155.6357 C   0  0  0  0  0  0  0  0  0  0  0  0
  146.2667  140.4031  154.3124 H   0  0  0  0  0  0  0  0  0  0  0  0
  147.5600  140.1723  153.1350 H   0  0  0  0  0  0  0  0  0  0  0  0
  147.7026  141.4236  154.3813 H   0  0  0  0  0  0  0  0  0  0  0  0
  149.5659  136.9173  153.2434 H   0  0  0  0  0  0  0  0  0  0  0  0
  149.2472  134.9102  153.3839 H   0  0  0  0  0  0  0  0  0  0  0  0
  149.8299  133.3377  155.8946 H   0  0  0  0  0  0  0  0  0  0  0  0
  147.6906  132.1760  155.5004 H   0  0  0  0  0  0  0  0  0  0  0  0
  147.3072  133.2975  154.0959 H   0  0  0  0  0  0  0  0  0  0  0  0
  149.3606  132.5617  152.9094 H   0  0  0  0  0  0  0  0  0  0  0  0
  149.8621  130.8194  155.4083 H   0  0  0  0  0  0  0  0  0  0  0  0
  151.0020  131.0149  154.0681 H   0  0  0  0  0  0  0  0  0  0  0  0
  149.4543  130.1962  153.8015 H   0  0  0  0  0  0  0  0  0  0  0  0
  152.6547  137.2377  154.1734 H   0  0  0  0  0  0  0  0  0  0  0  0
  153.3723  138.2832  155.3935 H   0  0  0  0  0  0  0  0  0  0  0  0
  153.3321  138.7932  153.7075 H   0  0  0  0  0  0  0  0  0  0  0  0
  148.6405  142.0148  155.3619 H   0  0  0  0  0  0  0  0  0  0  0  0
  150.3083  142.5771  155.1500 H   0  0  0  0  0  0  0  0  0  0  0  0
  149.7843  141.9211  156.7169 H   0  0  0  0  0  0  0  0  0  0  0  0
  1  2  1  0  0  0  0
  1 18  1  0  0  0  0
  1 19  1  0  0  0  0
  1 20  1  0  0  0  0
  2  3  1  0  0  0  0
  3 16  1  0  0  0  0
  3  4  2  0  0  0  0
  4  5  1  0  0  0  0
  4 13  1  0  0  0  0
  5  6  1  0  0  0  0
  5 21  1  0  0  0  0
  6  7  2  0  0  0  0
  6  8  1  0  0  0  0
  8  9  1  0  0  0  0
  8 22  1  0  0  0  0
  9 11  1  0  0  0  0
  9 10  1  0  0  0  0
  9 23  1  0  0  0  0
 10 11  1  0  0  0  0
 10 24  1  0  0  0  0
 10 25  1  0  0  0  0
 11 12  1  0  0  0  0
 11 26  1  0  0  0  0
 12 27  1  0  0  0  0
 12 28  1  0  0  0  0
 12 29  1  0  0  0  0
 13 14  1  0  0  0  0
 13 15  2  0  0  0  0
 14 30  1  0  0  0  0
 14 31  1  0  0  0  0
 14 32  1  0  0  0  0
 15 16  1  0  0  0  0
 16 17  1  0  0  0  0
 17 33  1  0  0  0  0
 17 34  1  0  0  0  0
 17 35  1  0  0  0  0
M  END
> <s_m_source_file>
AV-unprocessed.smi

> <i_m_source_file_index>
2409

> <i_lp_mmshare_version>
43012

> <i_f3d_flags>
0

> <s_epik_input>
W0NIM11uMW5jKFtDSDNdKWMoYzFPW0NIM10pW05IXUMoPU8pW05IXVtDQEBIXTJbQ0gyXVtDQEhdMltDSDNd

> <s_epik_cmdline>
J2VwaWtfcHl0aG9uJywgJy1waCcsICc3LjAnLCAnLXRuJywgJzgnLCAnLW1hJywgJzIwMCcsICctbWV0YWxfYmluZGluZycsICctaW1hZScsICc8aW5maWxlLm1hZT4nLCAnLW9tYWUnLCAnPG91dGZpbGUubWFlPic=

> <r_lp_tautomer_probability>
1

> <r_epik_Ionization_Penalty>
0.000417804

> <r_epik_Ionization_Penalty_Charging>
0

> <r_epik_Ionization_Penalty_Neutral>
0.000417804

> <r_epik_State_Penalty>
-0

> <r_epik_Charging_Adjusted_Penalty>
0

> <i_epik_Tot_Q>
0

> <i_epik_Tot_abs_Q>
0

> <r_epik_Metal_State_Penalty>
-0

> <b_epik_Metal_Only>
0

> <s_lp_Force_Field>
OPLS_2005

> <r_lp_Energy>
34.5155

> <b_lp_Chiralities_Consistent>
1

> <s_lp_Variant>
AV-unprocessed.smi:2409-4

> <Gold.Version>
5.8.1

> <Gold.Id.Protein>
6NUR|6NUR_protein|mol2

> <Gold.PLP.Fitness>
34.2381

> <Gold.PLP.PLP>
-28.2422

> <Gold.PLP.part.hbond>
-3.3754

> <Gold.PLP.part.metal>
0.0000

> <Gold.PLP.part.buried>
-1.2302

> <Gold.PLP.part.nonpolar>
-24.6227

> <Gold.PLP.part.repulsive>
0.1793

> <Gold.PLP.ligand.clash>
0.0000

> <Gold.PLP.ligand.torsion>
0.8281

> <Gold.PLP.Chemscore.Hbond>
2.5371

> <Gold.PLP.Chemscore.CHOScore>
0.0000

> <Gold.PLP.Chemscore.Metal>
0.0000

> <Gold.Chemscore.Hbonds>
donor molecule, donor type, donor heavy atom, donor atom, acceptor molecule, acceptor atom, score
      L1  H     5    21       P1  7948  1.00
      L1  H     8    22       P1  7948  0.63
      P1  H  7989  7998       L1    15  0.76

> <Gold.PLP.Chemscore.Internal.Correction>
0.0409

> <Gold.Rescore>
     Score         DG    S(hbond)    S(metal)    S(lipo)     H(rot)  DE(clash)    DE(int)     intcor
     12.96     -13.86       1.39        0.00      58.69       1.23       0.06       0.84       ----

> <Gold.Chemscore.Fitness>
12.9567

> <Gold.Chemscore.DG>
-13.8574

> <Gold.Chemscore.ZeroCoef>
-5.4800

> <Gold.Chemscore.Hbond>
1.3945

> <Gold.Chemscore.Metal>
0.0000

> <Gold.Chemscore.Lipo>
58.6874

> <Gold.Chemscore.Internal_Hbond>
0.0000

> <Gold.Chemscore.DEClash>
0.0596

> <Gold.Chemscore.DEInternal>
0.8410

> <Gold.Chemscore.Rot>
1.2292

> <Gold.Chemscore.Internal.Correction>
   9.000000E+99

> <Gold.Chemscore.Hbonds>
donor molecule, donor type, donor heavy atom, donor atom, acceptor molecule, acceptor atom, score
      L1  H     5    21       P1  7948  0.69
      L1  H     8    22       P1  7948  0.06
      P1  H  7989  7998       L1    15  0.02

> <Gold.Chemscore.Hbond.Weighted>
-4.6576

> <Gold.Chemscore.Metal.Weighted>
-0.0000

> <Gold.Chemscore.Lipo.Weighted>
-6.8664

> <Gold.Chemscore.Internal_Hbond.Weighted>
0.0000

> <Gold.Chemscore.DEClash.Weighted>
0.0596

> <Gold.Chemscore.DEInternal.Weighted>
0.8410

> <Gold.Chemscore.Rot.Weighted>
3.1467

> <Gold.Chemscore.Internal.Correction.Weighted>
   9.000000E+99

> <Gold.Protein.RotatedTorsions>
[ 6907 6896 6895 6894 ] final  132.17 input  -60.11 | X-H torsion
[ 7974 7965 7964 7962 ] final  -99.54 input  175.53 | X-H torsion
[ 8008 7997 7996 7995 ] final -144.30 input   59.86 | X-H torsion
[ 10167 10162 10161 10158 ] final -150.22 input  -65.29 | X-H torsion
[ 10718 10713 10712 10709 ] final  -45.06 input   66.30 | X-H torsion
[ 10763 10752 10751 10750 ] final   57.32 input  -60.55 | X-H torsion
[ 11005 11000 10999 10996 ] final   15.89 input  -57.11 | X-H torsion

> <Gold.Protein.ActiveResidues>
 VAL166  LYS551  ARG553  GLY616  TRP617  ASP618  TYR619  PRO620  LYS621  CYS622 
 ASP623  PHE694  ASN695  SER759  ASP760  ASP761  ALA762  ILE779  LEU786  VAL792 
 PHE793  MET794  SER795  GLU796  ALA797  LYS798  CYS799  TRP800  GLU811  SER814 

> <Gold.Protein.RotatedAtoms>
  152.3351  133.6002  159.5836 H   0  0  0  0  0  0  0  0  0  0  0  0  # atno 6907 bound_to 6896
  150.7445  133.9808  159.3584 H   0  0  0  0  0  0  0  0  0  0  0  0  # atno 6908 bound_to 6896
  151.7679  135.0794  160.0406 H   0  0  0  0  0  0  0  0  0  0  0  0  # atno 6909 bound_to 6896
  145.3062  140.9389  143.2795 H   0  0  0  0  0  0  0  0  0  0  0  0  # atno 7974 bound_to 7965
  155.5247  140.0594  157.2900 H   0  0  0  0  0  0  0  0  0  0  0  0  # atno 8008 bound_to 7997
  154.4505  140.1946  156.0479 H   0  0  0  0  0  0  0  0  0  0  0  0  # atno 8009 bound_to 7997
  156.0694  140.3262  155.7561 H   0  0  0  0  0  0  0  0  0  0  0  0  # atno 8010 bound_to 7997
  139.7374  143.8715  152.2552 H   0  0  0  0  0  0  0  0  0  0  0  0  # atno 10167 bound_to 10162
  156.2322  130.4173  149.8861 H   0  0  0  0  0  0  0  0  0  0  0  0  # atno 10718 bound_to 10713
  152.9848  135.5646  154.5371 H   0  0  0  0  0  0  0  0  0  0  0  0  # atno 10763 bound_to 10752
  154.4832  135.2789  155.1556 H   0  0  0  0  0  0  0  0  0  0  0  0  # atno 10764 bound_to 10752
  154.3056  135.6298  153.5496 H   0  0  0  0  0  0  0  0  0  0  0  0  # atno 10765 bound_to 10752
  140.4533  134.1202  155.7705 H   0  0  0  0  0  0  0  0  0  0  0  0  # atno 11005 bound_to 11000
  144.9053  139.4597  143.6613 LP  0  0  0  0  0  0  0  0  0  0  0  0  # atno 17320 bound_to 7965
  146.3134  139.7830  142.9002 LP  0  0  0  0  0  0  0  0  0  0  0  0  # atno 17321 bound_to 7965
  139.8655  144.7095  150.9048 LP  0  0  0  0  0  0  0  0  0  0  0  0  # atno 17342 bound_to 10162
  140.7781  143.3781  151.1526 LP  0  0  0  0  0  0  0  0  0  0  0  0  # atno 17343 bound_to 10162
  156.6471  130.8728  151.3524 LP  0  0  0  0  0  0  0  0  0  0  0  0  # atno 17370 bound_to 10713
  157.7138  130.9472  150.1182 LP  0  0  0  0  0  0  0  0  0  0  0  0  # atno 17371 bound_to 10713
  141.1654  133.8712  157.1729 LP  0  0  0  0  0  0  0  0  0  0  0  0  # atno 17394 bound_to 11000
  139.9993  135.0034  157.0153 LP  0  0  0  0  0  0  0  0  0  0  0  0  # atno 17395 bound_to 11000

$$$$
