AV-unprocessed.smi:101|AV-procd|sdf|915|dock6
  -GOLD-   2262017413D 1   1.00000     0.00000
 Structure written by MMmdl.
 44 46  0  0  0  0  0  0  0  0  1 V2000
  148.1001  136.6790  159.1767 C   0  0  0  0  0  0  0  0  0  0  0  0
  147.3176  137.2236  157.9930 C   0  0  0  0  0  0  0  0  0  0  0  0
  147.9245  137.7202  156.8844 C   0  0  0  0  0  0  0  0  0  0  0  0
  147.2352  138.2107  155.7812 N   0  0  0  0  0  0  0  0  0  0  0  0
  147.9407  138.7416  154.5492 C   0  0  2  0  0  0  0  0  0  0  0  0
  149.3227  138.5740  154.6938 O   0  0  0  0  0  0  0  0  0  0  0  0
  149.9948  139.8187  154.5356 C   0  0  2  0  0  0  0  0  0  0  0  0
  151.2824  139.8458  155.3747 C   0  0  0  0  0  0  0  0  0  0  0  0
  151.1736  140.8257  156.3951 O   0  0  0  0  0  0  0  0  0  0  0  0
  151.9959  140.8123  157.4585 C   0  0  0  0  0  0  0  0  0  0  0  0
  152.6801  139.8404  157.7844 O   0  0  0  0  0  0  0  0  0  0  0  0
  151.9822  142.1023  158.2064 C   0  0  0  0  0  0  0  0  0  0  0  0
  151.2835  143.2085  157.6697 C   0  0  0  0  0  0  0  0  0  0  0  0
  151.2596  144.4405  158.3518 C   0  0  0  0  0  0  0  0  0  0  0  0
  151.9308  144.5802  159.5804 C   0  0  0  0  0  0  0  0  0  0  0  0
  152.6243  143.4857  160.1279 C   0  0  0  0  0  0  0  0  0  0  0  0
  152.6519  142.2535  159.4462 C   0  0  0  0  0  0  0  0  0  0  0  0
  148.9480  140.8770  154.8861 C   0  0  1  0  0  0  0  0  0  0  0  0
  149.2256  142.1429  154.3176 O   0  0  0  0  0  0  0  0  0  0  0  0
  147.6622  140.2480  154.3668 C   0  0  1  0  0  0  0  0  0  0  0  0
  147.4046  140.5544  153.0084 O   0  0  0  0  0  0  0  0  0  0  0  0
  145.8250  138.2007  155.7922 C   0  0  0  0  0  0  0  0  0  0  0  0
  145.1501  138.6154  154.8503 O   0  0  0  0  0  0  0  0  0  0  0  0
  145.2012  137.6996  156.9329 N   0  0  0  0  0  0  0  0  0  0  0  0
  145.8540  137.2005  158.0622 C   0  0  0  0  0  0  0  0  0  0  0  0
  145.1920  136.7864  159.0124 O   0  0  0  0  0  0  0  0  0  0  0  0
  144.1916  137.6949  156.9441 H   0  0  0  0  0  0  0  0  0  0  0  0
  149.1757  136.7046  158.9996 H   0  0  0  0  0  0  0  0  0  0  0  0
  147.8224  135.6431  159.3745 H   0  0  0  0  0  0  0  0  0  0  0  0
  147.8937  137.2657  160.0723 H   0  0  0  0  0  0  0  0  0  0  0  0
  149.0030  137.7199  156.8754 H   0  0  0  0  0  0  0  0  0  0  0  0
  147.5861  138.1173  153.7261 H   0  0  0  0  0  0  0  0  0  0  0  0
  150.2531  139.9021  153.4785 H   0  0  0  0  0  0  0  0  0  0  0  0
  151.4602  138.8578  155.8018 H   0  0  0  0  0  0  0  0  0  0  0  0
  152.1379  140.0880  154.7436 H   0  0  0  0  0  0  0  0  0  0  0  0
  150.7611  143.1246  156.7274 H   0  0  0  0  0  0  0  0  0  0  0  0
  150.7251  145.2793  157.9308 H   0  0  0  0  0  0  0  0  0  0  0  0
  151.9121  145.5254  160.1027 H   0  0  0  0  0  0  0  0  0  0  0  0
  153.1397  143.5910  161.0711 H   0  0  0  0  0  0  0  0  0  0  0  0
  153.1978  141.4356  159.8932 H   0  0  0  0  0  0  0  0  0  0  0  0
  148.8600  140.9881  155.9672 H   0  0  0  0  0  0  0  0  0  0  0  0
  149.0727  142.8064  154.9730 H   0  0  0  0  0  0  0  0  0  0  0  0
  146.8005  140.5708  154.9525 H   0  0  0  0  0  0  0  0  0  0  0  0
  148.2204  140.5137  152.5328 H   0  0  0  0  0  0  0  0  0  0  0  0
  1  2  1  0  0  0  0
  1 28  1  0  0  0  0
  1 29  1  0  0  0  0
  1 30  1  0  0  0  0
  2 25  1  0  0  0  0
  2  3  2  0  0  0  0
  3  4  1  0  0  0  0
  3 31  1  0  0  0  0
  4  5  1  0  0  0  0
  4 22  1  0  0  0  0
  5 20  1  0  0  0  0
  5  6  1  0  0  0  0
  5 32  1  0  0  0  0
  6  7  1  0  0  0  0
  7  8  1  0  0  0  0
  7 18  1  0  0  0  0
  7 33  1  0  0  0  0
  8  9  1  0  0  0  0
  8 34  1  0  0  0  0
  8 35  1  0  0  0  0
  9 10  1  0  0  0  0
 10 11  2  0  0  0  0
 10 12  1  0  0  0  0
 12 17  1  0  0  0  0
 12 13  2  0  0  0  0
 13 14  1  0  0  0  0
 13 36  1  0  0  0  0
 14 15  2  0  0  0  0
 14 37  1  0  0  0  0
 15 16  1  0  0  0  0
 15 38  1  0  0  0  0
 16 17  2  0  0  0  0
 16 39  1  0  0  0  0
 17 40  1  0  0  0  0
 18 19  1  0  0  0  0
 18 20  1  0  0  0  0
 18 41  1  0  0  0  0
 19 42  1  0  0  0  0
 20 21  1  0  0  0  0
 20 43  1  0  0  0  0
 21 44  1  0  0  0  0
 22 23  2  0  0  0  0
 22 24  1  0  0  0  0
 24 27  1  0  0  0  0
 24 25  1  0  0  0  0
 25 26  2  0  0  0  0
M  END
> <s_m_source_file>
AV-unprocessed.smi

> <i_m_source_file_index>
101

> <i_lp_mmshare_version>
43012

> <i_f3d_flags>
0

> <s_epik_input>
Tz1jMVtuSF1jKD1PKW4oW2NIXWMxW0NIM10pW0NAQEhdMk9bQ0BIXShbQ0BASF0oW09IXSlbQ0BIXTJbT0hdKVtDSDJdT0MoPU8pYzNbY0hdW2NIXVtjSF1bY0hdW2NIXTM=

> <s_epik_cmdline>
J2VwaWtfcHl0aG9uJywgJy1waCcsICc3LjAnLCAnLXRuJywgJzgnLCAnLW1hJywgJzIwMCcsICctbWV0YWxfYmluZGluZycsICctaW1hZScsICc8aW5maWxlLm1hZT4nLCAnLW9tYWUnLCAnPG91dGZpbGUubWFlPic=

> <r_lp_tautomer_probability>
0.999537

> <r_epik_Ionization_Penalty>
0.00263537

> <r_epik_Ionization_Penalty_Charging>
0.00263428

> <r_epik_Ionization_Penalty_Neutral>
1.09111e-06

> <r_epik_State_Penalty>
0.00183335

> <r_epik_Charging_Adjusted_Penalty>
0.00446763

> <i_epik_Tot_Q>
0

> <i_epik_Tot_abs_Q>
0

> <r_epik_Metal_State_Penalty>
1.00528

> <b_epik_Metal_Only>
0

> <s_epik_Chemistry_Notes>
This compound has an ester and may undergo hydrolysis at high or low pH. This compound contains an acetal/aminal-like group ( X-CH(R)-Y where X, Y are N, S, or O) that may be acid/base labile, releasing an aldehyde.

> <s_lp_Force_Field>
OPLS_2005

> <r_lp_Energy>
35.2309

> <b_lp_Chiralities_Consistent>
1

> <s_lp_Variant>
AV-unprocessed.smi:101-3

> <Gold.Version>
5.8.1

> <Gold.Id.Protein>
6NUR|6NUR_protein|mol2

> <Gold.PLP.Fitness>
45.6213

> <Gold.PLP.PLP>
-37.9001

> <Gold.PLP.part.hbond>
-4.4350

> <Gold.PLP.part.metal>
0.0000

> <Gold.PLP.part.buried>
-3.1877

> <Gold.PLP.part.nonpolar>
-29.6155

> <Gold.PLP.part.repulsive>
0.2608

> <Gold.PLP.ligand.clash>
0.0000

> <Gold.PLP.ligand.torsion>
1.0887

> <Gold.PLP.Chemscore.Hbond>
3.2865

> <Gold.PLP.Chemscore.CHOScore>
0.0000

> <Gold.PLP.Chemscore.Metal>
0.0000

> <Gold.Chemscore.Hbonds>
donor molecule, donor type, donor heavy atom, donor atom, acceptor molecule, acceptor atom, score
      L1  H    19    42       P1  8028  1.00
      L1  H    21    44       P1  7957  1.00
      P1  H  7997  8010       L1    11  0.96
      P1  H  8011  8017       L1    19  0.27

> <Gold.PLP.Chemscore.Internal.Correction>
0.0390

> <Gold.Rescore>
     Score         DG    S(hbond)    S(metal)    S(lipo)     H(rot)  DE(clash)    DE(int)     intcor
     17.53     -18.68       3.13        0.00      96.15       3.32       0.04       1.11       ----

> <Gold.Chemscore.Fitness>
17.5277

> <Gold.Chemscore.DG>
-18.6790

> <Gold.Chemscore.ZeroCoef>
-5.4800

> <Gold.Chemscore.Hbond>
3.1260

> <Gold.Chemscore.Metal>
0.0000

> <Gold.Chemscore.Lipo>
96.1547

> <Gold.Chemscore.Internal_Hbond>
0.0000

> <Gold.Chemscore.DEClash>
0.0429

> <Gold.Chemscore.DEInternal>
1.1084

> <Gold.Chemscore.Rot>
3.3172

> <Gold.Chemscore.Internal.Correction>
   9.000000E+99

> <Gold.Chemscore.Hbonds>
donor molecule, donor type, donor heavy atom, donor atom, acceptor molecule, acceptor atom, score
      L1  H    19    42       P1  8028  0.91
      L1  H    21    44       P1  7957  0.96
      P1  H  7997  8010       L1    11  0.35
      P1  H  8011  8017       L1    19  0.26

> <Gold.Chemscore.Hbond.Weighted>
-10.4410

> <Gold.Chemscore.Metal.Weighted>
-0.0000

> <Gold.Chemscore.Lipo.Weighted>
-11.2501

> <Gold.Chemscore.Internal_Hbond.Weighted>
0.0000

> <Gold.Chemscore.DEClash.Weighted>
0.0429

> <Gold.Chemscore.DEInternal.Weighted>
1.1084

> <Gold.Chemscore.Rot.Weighted>
8.4920

> <Gold.Chemscore.Internal.Correction.Weighted>
   9.000000E+99

> <Gold.Protein.RotatedTorsions>
[ 6907 6896 6895 6894 ] final    7.35 input  -60.11 | X-H torsion
[ 7974 7965 7964 7962 ] final  -85.75 input  175.53 | X-H torsion
[ 8008 7997 7996 7995 ] final   57.93 input   59.86 | X-H torsion
[ 10167 10162 10161 10158 ] final -168.35 input  -65.29 | X-H torsion
[ 10718 10713 10712 10709 ] final  131.65 input   66.30 | X-H torsion
[ 10763 10752 10751 10750 ] final -163.23 input  -60.55 | X-H torsion
[ 11005 11000 10999 10996 ] final   76.09 input  -57.11 | X-H torsion

> <Gold.Protein.ActiveResidues>
 VAL166  LYS551  ARG553  GLY616  TRP617  ASP618  TYR619  PRO620  LYS621  CYS622 
 ASP623  PHE694  ASN695  SER759  ASP760  ASP761  ALA762  ILE779  LEU786  VAL792 
 PHE793  MET794  SER795  GLU796  ALA797  LYS798  CYS799  TRP800  GLU811  SER814 

> <Gold.Protein.RotatedAtoms>
  151.6885  135.0950  160.0228 H   0  0  0  0  0  0  0  0  0  0  0  0  # atno 6907 bound_to 6896
  152.3793  133.6519  159.6157 H   0  0  0  0  0  0  0  0  0  0  0  0  # atno 6908 bound_to 6896
  150.7734  133.9057  159.3396 H   0  0  0  0  0  0  0  0  0  0  0  0  # atno 6909 bound_to 6896
  145.4891  140.9553  143.1822 H   0  0  0  0  0  0  0  0  0  0  0  0  # atno 7974 bound_to 7965
  155.5418  140.3484  155.4448 H   0  0  0  0  0  0  0  0  0  0  0  0  # atno 8008 bound_to 7997
  156.0646  140.1348  156.9928 H   0  0  0  0  0  0  0  0  0  0  0  0  # atno 8009 bound_to 7997
  154.4496  140.0978  156.6552 H   0  0  0  0  0  0  0  0  0  0  0  0  # atno 8010 bound_to 7997
  139.5991  144.1049  152.1723 H   0  0  0  0  0  0  0  0  0  0  0  0  # atno 10167 bound_to 10162
  157.4947  131.1092  150.9509 H   0  0  0  0  0  0  0  0  0  0  0  0  # atno 10718 bound_to 10713
  154.7142  135.3012  154.9150 H   0  0  0  0  0  0  0  0  0  0  0  0  # atno 10763 bound_to 10752
  154.0042  135.6703  153.4765 H   0  0  0  0  0  0  0  0  0  0  0  0  # atno 10764 bound_to 10752
  153.0779  135.5024  154.8358 H   0  0  0  0  0  0  0  0  0  0  0  0  # atno 10765 bound_to 10752
  139.9314  134.7572  156.1353 H   0  0  0  0  0  0  0  0  0  0  0  0  # atno 11005 bound_to 11000
  144.7844  139.6458  143.7140 LP  0  0  0  0  0  0  0  0  0  0  0  0  # atno 17320 bound_to 7965
  146.2295  139.5786  142.9565 LP  0  0  0  0  0  0  0  0  0  0  0  0  # atno 17321 bound_to 7965
  140.0641  144.5833  150.7241 LP  0  0  0  0  0  0  0  0  0  0  0  0  # atno 17342 bound_to 10162
  140.7235  143.2613  151.4198 LP  0  0  0  0  0  0  0  0  0  0  0  0  # atno 17343 bound_to 10162
  157.0200  130.5670  149.5330 LP  0  0  0  0  0  0  0  0  0  0  0  0  # atno 17370 bound_to 10713
  156.0193  130.5288  150.8229 LP  0  0  0  0  0  0  0  0  0  0  0  0  # atno 17371 bound_to 10713
  141.0904  133.6717  156.2528 LP  0  0  0  0  0  0  0  0  0  0  0  0  # atno 17394 bound_to 11000
  140.6193  134.5378  157.5545 LP  0  0  0  0  0  0  0  0  0  0  0  0  # atno 17395 bound_to 11000

$$$$
