AV-unprocessed.smi:1056|AV-procd|sdf|4648|dock2
  -GOLD-   22720 3153D 1   1.00000     0.00000
 Structure written by MMmdl.
 45 47  0  0  0  0  0  0  0  0  4 V2000
  152.5418  145.0200  160.3259 C   0  0  0  0  0  0  0  0  0  0  0  0
  152.2078  143.8320  159.4396 C   0  0  0  0  0  0  0  0  0  0  0  0
  151.4215  144.0510  158.2861 C   0  0  0  0  0  0  0  0  0  0  0  0
  151.1324  142.9448  157.4959 C   0  0  0  0  0  0  0  0  0  0  0  0
  150.3926  142.8322  156.3170 N   0  3  0  0  0  0  0  0  0  0  0  0
  150.3867  141.5339  155.9061 C   0  0  0  0  0  0  0  0  0  0  0  0
  151.1124  140.8146  156.8050 N   0  0  0  0  0  0  0  0  0  0  0  0
  151.4224  139.3769  156.8251 C   0  0  0  0  0  0  0  0  0  0  0  0
  151.7431  138.8070  155.4285 C   0  0  2  0  0  0  0  0  0  0  0  0
  152.7975  139.5504  154.8470 O   0  0  0  0  0  0  0  0  0  0  0  0
  150.5134  138.8717  154.4993 C   0  0  0  0  0  0  0  0  0  0  0  0
  149.2763  138.3637  155.1439 N   0  3  1  0  0  0  0  0  0  0  0  0
  148.0359  138.6771  154.3867 C   0  0  0  0  0  0  0  0  0  0  0  0
  146.7959  138.4005  155.2583 C   0  0  0  0  0  0  0  0  0  0  0  0
  146.9068  137.0854  155.9007 N   0  5  0  0  0  0  0  0  0  0  0  0
  148.0620  136.3874  156.1344 C   0  0  0  0  0  0  0  0  0  0  0  0
  148.1490  135.3517  156.7902 O   0  0  0  0  0  0  0  0  0  0  0  0
  149.3661  136.9150  155.4773 C   0  0  0  0  0  0  0  0  0  0  0  0
  151.5977  141.6542  157.8157 C   0  0  0  0  0  0  0  0  0  0  0  0
  152.3736  141.4220  158.9493 C   0  0  0  0  0  0  0  0  0  0  0  0
  152.6776  142.5339  159.7669 C   0  0  0  0  0  0  0  0  0  0  0  0
  153.5213  142.3096  161.0103 C   0  0  0  0  0  0  0  0  0  0  0  0
  152.0800  145.9360  159.9564 H   0  0  0  0  0  0  0  0  0  0  0  0
  153.6197  145.1802  160.3595 H   0  0  0  0  0  0  0  0  0  0  0  0
  152.1840  144.8541  161.3423 H   0  0  0  0  0  0  0  0  0  0  0  0
  151.0606  145.0366  158.0308 H   0  0  0  0  0  0  0  0  0  0  0  0
  149.8967  141.1468  155.0243 H   0  0  0  0  0  0  0  0  0  0  0  0
  152.2835  139.2477  157.4821 H   0  0  0  0  0  0  0  0  0  0  0  0
  150.5996  138.8379  157.2957 H   0  0  0  0  0  0  0  0  0  0  0  0
  152.0808  137.7778  155.5478 H   0  0  0  0  0  0  0  0  0  0  0  0
  152.5354  139.8318  153.9836 H   0  0  0  0  0  0  0  0  0  0  0  0
  150.3401  139.8946  154.1614 H   0  0  0  0  0  0  0  0  0  0  0  0
  150.7276  138.2895  153.6014 H   0  0  0  0  0  0  0  0  0  0  0  0
  148.0204  139.7194  154.0708 H   0  0  0  0  0  0  0  0  0  0  0  0
  148.0042  138.0748  153.4772 H   0  0  0  0  0  0  0  0  0  0  0  0
  146.7169  139.1895  156.0064 H   0  0  0  0  0  0  0  0  0  0  0  0
  145.8987  138.4811  154.6450 H   0  0  0  0  0  0  0  0  0  0  0  0
  149.5622  136.3366  154.5733 H   0  0  0  0  0  0  0  0  0  0  0  0
  150.2006  136.7477  156.1595 H   0  0  0  0  0  0  0  0  0  0  0  0
  152.7273  140.4339  159.2034 H   0  0  0  0  0  0  0  0  0  0  0  0
  153.8184  141.2651  161.1083 H   0  0  0  0  0  0  0  0  0  0  0  0
  152.9628  142.5825  161.9060 H   0  0  0  0  0  0  0  0  0  0  0  0
  154.4295  142.9112  160.9704 H   0  0  0  0  0  0  0  0  0  0  0  0
  149.1920  138.8384  156.0309 H   0  0  0  0  0  0  0  0  0  0  0  0
  149.9271  143.5852  155.8262 H   0  0  0  0  0  0  0  0  0  0  0  0
  1  2  1  0  0  0  0
  1 23  1  0  0  0  0
  1 24  1  0  0  0  0
  1 25  1  0  0  0  0
  2 21  1  0  0  0  0
  2  3  2  0  0  0  0
  3  4  1  0  0  0  0
  3 26  1  0  0  0  0
  4 19  2  0  0  0  0
  4  5  1  0  0  0  0
  5  6  2  0  0  0  0
  5 45  1  0  0  0  0
  6  7  1  0  0  0  0
  6 27  1  0  0  0  0
  7  8  1  0  0  0  0
  7 19  1  0  0  0  0
  8  9  1  0  0  0  0
  8 28  1  0  0  0  0
  8 29  1  0  0  0  0
  9 10  1  0  0  0  0
  9 11  1  0  0  0  0
  9 30  1  0  0  0  0
 10 31  1  0  0  0  0
 11 12  1  0  0  0  0
 11 32  1  0  0  0  0
 11 33  1  0  0  0  0
 12 18  1  0  0  0  0
 12 13  1  0  0  0  0
 12 44  1  0  0  0  0
 13 14  1  0  0  0  0
 13 34  1  0  0  0  0
 13 35  1  0  0  0  0
 14 15  1  0  0  0  0
 14 36  1  0  0  0  0
 14 37  1  0  0  0  0
 15 16  1  0  0  0  0
 16 17  2  0  0  0  0
 16 18  1  0  0  0  0
 18 38  1  0  0  0  0
 18 39  1  0  0  0  0
 19 20  1  0  0  0  0
 20 21  2  0  0  0  0
 20 40  1  0  0  0  0
 21 22  1  0  0  0  0
 22 41  1  0  0  0  0
 22 42  1  0  0  0  0
 22 43  1  0  0  0  0
M  CHG  1   5   1
M  CHG  1  12   1
M  CHG  1  15  -1
M  END
> <s_m_source_file>
AV-unprocessed.smi

> <i_m_source_file_index>
1056

> <i_lp_mmshare_version>
43012

> <i_f3d_flags>
0

> <s_epik_input>
W0NIM11jKFtjSF0xKWMoW0NIM10pW2NIXWMoYzEyKW4oW2NIXW4yKVtDSDJdW0NASF0oW09IXSlbQ0gyXU4zW0NIMl1bQ0gyXVtOSF1DKD1PKVtDSDJdMw==

> <s_epik_cmdline>
J2VwaWtfcHl0aG9uJywgJy1waCcsICc3LjAnLCAnLXRuJywgJzgnLCAnLW1hJywgJzIwMCcsICctbWV0YWxfYmluZGluZycsICctaW1hZScsICc8aW5maWxlLm1hZT4nLCAnLW9tYWUnLCAnPG91dGZpbGUubWFlPic=

> <r_epik_Ionization_Penalty>
6.22415

> <r_epik_Ionization_Penalty_Charging>
6.22415

> <r_epik_Ionization_Penalty_Neutral>
4.02797e-07

> <r_epik_State_Penalty>
6.37716

> <r_epik_Charging_Adjusted_Penalty>
12.6013

> <i_epik_Tot_Q>
1

> <i_epik_Tot_abs_Q>
3

> <r_epik_Metal_State_Penalty>
2.53509

> <b_epik_Metal_Only>
1

> <s_lp_Force_Field>
OPLS_2005

> <r_lp_Energy>
27.8537

> <b_lp_Chiralities_Consistent>
1

> <s_lp_Variant>
AV-unprocessed.smi:1056-19

> <Gold.Version>
5.8.1

> <Gold.Id.Protein>
6NUR|6NUR_protein|mol2

> <Gold.PLP.Fitness>
50.8202

> <Gold.PLP.PLP>
-42.5916

> <Gold.PLP.part.hbond>
-2.8856

> <Gold.PLP.part.metal>
0.0000

> <Gold.PLP.part.buried>
-7.2467

> <Gold.PLP.part.nonpolar>
-34.5366

> <Gold.PLP.part.repulsive>
0.1758

> <Gold.PLP.ligand.clash>
0.0000

> <Gold.PLP.ligand.torsion>
0.4042

> <Gold.PLP.Chemscore.Hbond>
3.0000

> <Gold.PLP.Chemscore.CHOScore>
0.0000

> <Gold.PLP.Chemscore.Metal>
0.0000

> <Gold.Chemscore.Hbonds>
donor molecule, donor type, donor heavy atom, donor atom, acceptor molecule, acceptor atom, score
      L1  H     5    45       P1  8028  2.00
      P1  H  7997  8009       L1    10  0.91

> <Gold.PLP.Chemscore.Internal.Correction>
0.0370

> <Gold.Rescore>
     Score         DG    S(hbond)    S(metal)    S(lipo)     H(rot)  DE(clash)    DE(int)     intcor
     18.36     -19.01       1.99        0.00     110.82       2.37       0.37       0.28       ----

> <Gold.Chemscore.Fitness>
18.3630

> <Gold.Chemscore.DG>
-19.0139

> <Gold.Chemscore.ZeroCoef>
-5.4800

> <Gold.Chemscore.Hbond>
1.9884

> <Gold.Chemscore.Metal>
0.0000

> <Gold.Chemscore.Lipo>
110.8199

> <Gold.Chemscore.Internal_Hbond>
0.0000

> <Gold.Chemscore.DEClash>
0.3716

> <Gold.Chemscore.DEInternal>
0.2794

> <Gold.Chemscore.Rot>
2.3724

> <Gold.Chemscore.Internal.Correction>
   9.000000E+99

> <Gold.Chemscore.Hbonds>
donor molecule, donor type, donor heavy atom, donor atom, acceptor molecule, acceptor atom, score
      L1  H     5    45       P1  8028  0.93
      P1  H  7997  8009       L1    10  0.86

> <Gold.Chemscore.Hbond.Weighted>
-6.6414

> <Gold.Chemscore.Metal.Weighted>
-0.0000

> <Gold.Chemscore.Lipo.Weighted>
-12.9659

> <Gold.Chemscore.Internal_Hbond.Weighted>
0.0000

> <Gold.Chemscore.DEClash.Weighted>
0.3716

> <Gold.Chemscore.DEInternal.Weighted>
0.2794

> <Gold.Chemscore.Rot.Weighted>
6.0734

> <Gold.Chemscore.Internal.Correction.Weighted>
   9.000000E+99

> <Gold.Protein.RotatedTorsions>
[ 6907 6896 6895 6894 ] final   64.85 input  -60.11 | X-H torsion
[ 7974 7965 7964 7962 ] final   -2.49 input  175.53 | X-H torsion
[ 8008 7997 7996 7995 ] final -143.21 input   59.86 | X-H torsion
[ 10167 10162 10161 10158 ] final  117.85 input  -65.29 | X-H torsion
[ 10718 10713 10712 10709 ] final  122.87 input   66.30 | X-H torsion
[ 10763 10752 10751 10750 ] final  121.87 input  -60.55 | X-H torsion
[ 11005 11000 10999 10996 ] final  103.32 input  -57.11 | X-H torsion

> <Gold.Protein.ActiveResidues>
 VAL166  LYS551  ARG553  GLY616  TRP617  ASP618  TYR619  PRO620  LYS621  CYS622 
 ASP623  PHE694  ASN695  SER759  ASP760  ASP761  ALA762  ILE779  LEU786  VAL792 
 PHE793  MET794  SER795  GLU796  ALA797  LYS798  CYS799  TRP800  GLU811  SER814 

> <Gold.Protein.RotatedAtoms>
  152.4363  134.5680  159.9912 H   0  0  0  0  0  0  0  0  0  0  0  0  # atno 6907 bound_to 6896
  151.5789  133.3374  159.3012 H   0  0  0  0  0  0  0  0  0  0  0  0  # atno 6908 bound_to 6896
  150.8262  134.7529  159.6879 H   0  0  0  0  0  0  0  0  0  0  0  0  # atno 6909 bound_to 6896
  146.2403  140.1579  142.8333 H   0  0  0  0  0  0  0  0  0  0  0  0  # atno 7974 bound_to 7965
  155.5068  140.0580  157.2930 H   0  0  0  0  0  0  0  0  0  0  0  0  # atno 8008 bound_to 7997
  154.4566  140.1976  156.0310 H   0  0  0  0  0  0  0  0  0  0  0  0  # atno 8009 bound_to 7997
  156.0811  140.3247  155.7699 H   0  0  0  0  0  0  0  0  0  0  0  0  # atno 8010 bound_to 7997
  139.6151  144.7090  151.2757 H   0  0  0  0  0  0  0  0  0  0  0  0  # atno 10167 bound_to 10162
  157.5709  131.1083  150.8368 H   0  0  0  0  0  0  0  0  0  0  0  0  # atno 10718 bound_to 10713
  153.6208  135.3413  155.3010 H   0  0  0  0  0  0  0  0  0  0  0  0  # atno 10763 bound_to 10752
  154.8600  135.4272  154.2209 H   0  0  0  0  0  0  0  0  0  0  0  0  # atno 10764 bound_to 10752
  153.3082  135.7029  153.7213 H   0  0  0  0  0  0  0  0  0  0  0  0  # atno 10765 bound_to 10752
  139.8783  134.9258  156.5192 H   0  0  0  0  0  0  0  0  0  0  0  0  # atno 11005 bound_to 11000
  145.0113  140.8717  143.5222 LP  0  0  0  0  0  0  0  0  0  0  0  0  # atno 17320 bound_to 7965
  145.1613  139.2457  143.5390 LP  0  0  0  0  0  0  0  0  0  0  0  0  # atno 17321 bound_to 7965
  140.7345  143.6763  150.8039 LP  0  0  0  0  0  0  0  0  0  0  0  0  # atno 17342 bound_to 10162
  140.0364  143.5390  152.2737 LP  0  0  0  0  0  0  0  0  0  0  0  0  # atno 17343 bound_to 10162
  156.8840  130.5189  149.5289 LP  0  0  0  0  0  0  0  0  0  0  0  0  # atno 17370 bound_to 10713
  156.0755  130.5778  150.9465 LP  0  0  0  0  0  0  0  0  0  0  0  0  # atno 17371 bound_to 10713
  140.8463  133.8166  155.9124 LP  0  0  0  0  0  0  0  0  0  0  0  0  # atno 17394 bound_to 11000
  140.9188  134.2168  157.4939 LP  0  0  0  0  0  0  0  0  0  0  0  0  # atno 17395 bound_to 11000

$$$$
