AV-unprocessed.smi:1295|AV-procd|sdf|5409|dock7
  -GOLD-   22720 4563D 1   1.00000     0.00000
 Structure written by MMmdl.
 42 43  0  0  0  0  0  0  0  0  2 V2000
  150.6056  134.7210  154.9495 C   0  0  0  0  0  0  0  0  0  0  0  0
  150.8851  136.1936  155.1589 C   0  0  0  0  0  0  0  0  0  0  0  0
  150.1104  137.0594  154.6254 N   0  0  0  0  0  0  0  0  0  0  0  0
  150.3639  138.4276  154.8211 C   0  0  0  0  0  0  0  0  0  0  0  0
  149.3937  139.3846  154.1500 C   0  0  0  0  0  0  0  0  0  0  0  0
  151.4213  138.8491  155.5725 C   0  0  0  0  0  0  0  0  0  0  0  0
  151.7371  140.3246  155.8146 C   0  0  0  0  0  0  0  0  0  0  0  0
  151.4683  140.8351  157.2317 C   0  0  0  0  0  0  0  0  0  0  0  0
  151.1487  140.0507  158.1247 O   0  0  0  0  0  0  0  0  0  0  0  0
  151.5994  142.1578  157.4179 N   0  0  0  0  0  0  0  0  0  0  0  0
  151.3526  142.8793  158.6653 C   0  0  2  0  0  0  0  0  0  0  0  0
  150.7952  144.2744  158.3206 C   0  0  0  0  0  0  0  0  0  0  0  0
  150.5713  145.1266  159.5779 C   0  0  0  0  0  0  0  0  0  0  0  0
  151.8617  145.2416  160.3998 C   0  0  0  0  0  0  0  0  0  0  0  0
  152.4059  143.8526  160.7645 C   0  0  0  0  0  0  0  0  0  0  0  0
  152.6458  142.9807  159.5152 C   0  0  1  0  0  0  0  0  0  0  0  0
  153.2011  141.6039  159.9219 C   0  0  0  0  0  0  0  0  0  0  0  0
  152.2888  137.8192  156.1717 C   0  0  0  0  0  0  0  0  0  0  0  0
  153.2503  138.1436  156.8673 O   0  0  0  0  0  0  0  0  0  0  0  0
  151.9818  136.5132  155.9273 N   0  5  0  0  0  0  0  0  0  0  0  0
  149.6237  134.5673  154.4999 H   0  0  0  0  0  0  0  0  0  0  0  0
  150.6303  134.1896  155.9014 H   0  0  0  0  0  0  0  0  0  0  0  0
  151.3575  134.2862  154.2907 H   0  0  0  0  0  0  0  0  0  0  0  0
  149.9123  140.0052  153.4191 H   0  0  0  0  0  0  0  0  0  0  0  0
  148.9225  140.0349  154.8874 H   0  0  0  0  0  0  0  0  0  0  0  0
  148.6027  138.8437  153.6290 H   0  0  0  0  0  0  0  0  0  0  0  0
  152.7750  140.5473  155.5658 H   0  0  0  0  0  0  0  0  0  0  0  0
  151.1533  140.9160  155.1085 H   0  0  0  0  0  0  0  0  0  0  0  0
  151.8711  142.7159  156.6217 H   0  0  0  0  0  0  0  0  0  0  0  0
  150.5955  142.3591  159.2553 H   0  0  0  0  0  0  0  0  0  0  0  0
  151.4846  144.7940  157.6533 H   0  0  0  0  0  0  0  0  0  0  0  0
  149.8555  144.1749  157.7753 H   0  0  0  0  0  0  0  0  0  0  0  0
  150.2195  146.1194  159.2964 H   0  0  0  0  0  0  0  0  0  0  0  0
  149.7856  144.6800  160.1887 H   0  0  0  0  0  0  0  0  0  0  0  0
  152.6123  145.7927  159.8317 H   0  0  0  0  0  0  0  0  0  0  0  0
  151.6748  145.8175  161.3066 H   0  0  0  0  0  0  0  0  0  0  0  0
  153.3345  143.9639  161.3253 H   0  0  0  0  0  0  0  0  0  0  0  0
  151.7025  143.3526  161.4318 H   0  0  0  0  0  0  0  0  0  0  0  0
  153.4090  143.4751  158.9120 H   0  0  0  0  0  0  0  0  0  0  0  0
  152.4655  141.0340  160.4900 H   0  0  0  0  0  0  0  0  0  0  0  0
  154.0917  141.7078  160.5421 H   0  0  0  0  0  0  0  0  0  0  0  0
  153.4832  141.0096  159.0528 H   0  0  0  0  0  0  0  0  0  0  0  0
  1  2  1  0  0  0  0
  1 21  1  0  0  0  0
  1 22  1  0  0  0  0
  1 23  1  0  0  0  0
  2 20  1  0  0  0  0
  2  3  2  0  0  0  0
  3  4  1  0  0  0  0
  4  5  1  0  0  0  0
  4  6  2  0  0  0  0
  5 24  1  0  0  0  0
  5 25  1  0  0  0  0
  5 26  1  0  0  0  0
  6  7  1  0  0  0  0
  6 18  1  0  0  0  0
  7  8  1  0  0  0  0
  7 27  1  0  0  0  0
  7 28  1  0  0  0  0
  8  9  2  0  0  0  0
  8 10  1  0  0  0  0
 10 11  1  0  0  0  0
 10 29  1  0  0  0  0
 11 16  1  0  0  0  0
 11 12  1  0  0  0  0
 11 30  1  0  0  0  0
 12 13  1  0  0  0  0
 12 31  1  0  0  0  0
 12 32  1  0  0  0  0
 13 14  1  0  0  0  0
 13 33  1  0  0  0  0
 13 34  1  0  0  0  0
 14 15  1  0  0  0  0
 14 35  1  0  0  0  0
 14 36  1  0  0  0  0
 15 16  1  0  0  0  0
 15 37  1  0  0  0  0
 15 38  1  0  0  0  0
 16 17  1  0  0  0  0
 16 39  1  0  0  0  0
 17 40  1  0  0  0  0
 17 41  1  0  0  0  0
 17 42  1  0  0  0  0
 18 19  2  0  0  0  0
 18 20  1  0  0  0  0
M  CHG  1  20  -1
M  END
> <s_m_source_file>
AV-unprocessed.smi

> <i_m_source_file_index>
1295

> <i_lp_mmshare_version>
43012

> <i_f3d_flags>
0

> <s_epik_input>
W0NIM11jMW5jKFtDSDNdKWMoYyg9TylbbkhdMSlbQ0gyXUMoPU8pW05IXVtDQEBIXTJbQ0gyXVtDSDJdW0NIMl1bQ0gyXVtDQEhdMltDSDNd

> <s_epik_cmdline>
J2VwaWtfcHl0aG9uJywgJy1waCcsICc3LjAnLCAnLXRuJywgJzgnLCAnLW1hJywgJzIwMCcsICctbWV0YWxfYmluZGluZycsICctaW1hZScsICc8aW5maWxlLm1hZT4nLCAnLW9tYWUnLCAnPG91dGZpbGUubWFlPic=

> <r_lp_tautomer_probability>
0.839158

> <r_epik_Ionization_Penalty>
6.67742

> <r_epik_Ionization_Penalty_Charging>
7.78154e-08

> <r_epik_Ionization_Penalty_Neutral>
6.67742

> <r_epik_State_Penalty>
4.51991

> <r_epik_Charging_Adjusted_Penalty>
4.51991

> <i_epik_Tot_Q>
-1

> <i_epik_Tot_abs_Q>
1

> <r_epik_Metal_State_Penalty>
0.853272

> <b_epik_Metal_Only>
1

> <s_lp_Force_Field>
OPLS_2005

> <r_lp_Energy>
15.3241

> <b_lp_Chiralities_Consistent>
1

> <s_lp_Variant>
AV-unprocessed.smi:1295-9

> <Gold.Version>
5.8.1

> <Gold.Id.Protein>
6NUR|6NUR_protein|mol2

> <Gold.PLP.Fitness>
43.9081

> <Gold.PLP.PLP>
-38.9766

> <Gold.PLP.part.hbond>
-1.0000

> <Gold.PLP.part.metal>
0.0000

> <Gold.PLP.part.buried>
-4.4304

> <Gold.PLP.part.nonpolar>
-34.4124

> <Gold.PLP.part.repulsive>
0.3740

> <Gold.PLP.ligand.clash>
0.0000

> <Gold.PLP.ligand.torsion>
0.5368

> <Gold.PLP.Chemscore.Hbond>
2.0000

> <Gold.PLP.Chemscore.CHOScore>
0.0000

> <Gold.PLP.Chemscore.Metal>
0.0000

> <Gold.Chemscore.Hbonds>
donor molecule, donor type, donor heavy atom, donor atom, acceptor molecule, acceptor atom, score
      P1  H  7997  8008       L1    19  0.22
      P1  H 10752 10765       L1    20  1.86

> <Gold.PLP.Chemscore.Internal.Correction>
0.0052

> <Gold.Rescore>
     Score         DG    S(hbond)    S(metal)    S(lipo)     H(rot)  DE(clash)    DE(int)     intcor
     17.36     -18.01       1.09        0.00     107.49       1.45       0.12       0.52       ----

> <Gold.Chemscore.Fitness>
17.3622

> <Gold.Chemscore.DG>
-18.0055

> <Gold.Chemscore.ZeroCoef>
-5.4800

> <Gold.Chemscore.Hbond>
1.0922

> <Gold.Chemscore.Metal>
0.0000

> <Gold.Chemscore.Lipo>
107.4932

> <Gold.Chemscore.Internal_Hbond>
0.0000

> <Gold.Chemscore.DEClash>
0.1213

> <Gold.Chemscore.DEInternal>
0.5220

> <Gold.Chemscore.Rot>
1.4450

> <Gold.Chemscore.Internal.Correction>
   9.000000E+99

> <Gold.Chemscore.Hbonds>
donor molecule, donor type, donor heavy atom, donor atom, acceptor molecule, acceptor atom, score
      P1  H  7997  8008       L1    19  0.21
      P1  H 10752 10765       L1    20  0.34

> <Gold.Chemscore.Hbond.Weighted>
-3.6480

> <Gold.Chemscore.Metal.Weighted>
-0.0000

> <Gold.Chemscore.Lipo.Weighted>
-12.5767

> <Gold.Chemscore.Internal_Hbond.Weighted>
0.0000

> <Gold.Chemscore.DEClash.Weighted>
0.1213

> <Gold.Chemscore.DEInternal.Weighted>
0.5220

> <Gold.Chemscore.Rot.Weighted>
3.6992

> <Gold.Chemscore.Internal.Correction.Weighted>
   9.000000E+99

> <Gold.Protein.RotatedTorsions>
[ 6907 6896 6895 6894 ] final   94.45 input  -60.11 | X-H torsion
[ 7974 7965 7964 7962 ] final  131.04 input  175.53 | X-H torsion
[ 8008 7997 7996 7995 ] final  -87.57 input   59.86 | X-H torsion
[ 10167 10162 10161 10158 ] final -112.43 input  -65.29 | X-H torsion
[ 10718 10713 10712 10709 ] final  160.55 input   66.30 | X-H torsion
[ 10763 10752 10751 10750 ] final -135.53 input  -60.55 | X-H torsion
[ 11005 11000 10999 10996 ] final  -61.82 input  -57.11 | X-H torsion

> <Gold.Protein.ActiveResidues>
 VAL166  LYS551  ARG553  GLY616  TRP617  ASP618  TYR619  PRO620  LYS621  CYS622 
 ASP623  PHE694  ASN695  SER759  ASP760  ASP761  ALA762  ILE779  LEU786  VAL792 
 PHE793  MET794  SER795  GLU796  ALA797  LYS798  CYS799  TRP800  GLU811  SER814 

> <Gold.Protein.RotatedAtoms>
  152.5449  134.1192  159.8391 H   0  0  0  0  0  0  0  0  0  0  0  0  # atno 6907 bound_to 6896
  151.1250  133.5070  159.2608 H   0  0  0  0  0  0  0  0  0  0  0  0  # atno 6908 bound_to 6896
  151.1737  135.0339  159.8817 H   0  0  0  0  0  0  0  0  0  0  0  0  # atno 6909 bound_to 6896
  145.0115  139.4216  143.5242 H   0  0  0  0  0  0  0  0  0  0  0  0  # atno 7974 bound_to 7965
  154.6647  140.0564  157.0101 H   0  0  0  0  0  0  0  0  0  0  0  0  # atno 8008 bound_to 7997
  155.1176  140.3244  155.4487 H   0  0  0  0  0  0  0  0  0  0  0  0  # atno 8009 bound_to 7997
  156.2633  140.2003  156.6299 H   0  0  0  0  0  0  0  0  0  0  0  0  # atno 8010 bound_to 7997
  140.1228  143.4429  152.1680 H   0  0  0  0  0  0  0  0  0  0  0  0  # atno 10167 bound_to 10162
  157.1488  131.0559  151.2290 H   0  0  0  0  0  0  0  0  0  0  0  0  # atno 10718 bound_to 10713
  154.8701  135.3700  154.4914 H   0  0  0  0  0  0  0  0  0  0  0  0  # atno 10763 bound_to 10752
  153.5560  135.7024  153.5574 H   0  0  0  0  0  0  0  0  0  0  0  0  # atno 10764 bound_to 10752
  153.3671  135.4031  155.1725 H   0  0  0  0  0  0  0  0  0  0  0  0  # atno 10765 bound_to 10752
  141.1338  133.6634  156.5433 H   0  0  0  0  0  0  0  0  0  0  0  0  # atno 11005 bound_to 11000
  146.3471  139.9562  142.8723 LP  0  0  0  0  0  0  0  0  0  0  0  0  # atno 17320 bound_to 7965
  145.2016  140.9857  143.4152 LP  0  0  0  0  0  0  0  0  0  0  0  0  # atno 17321 bound_to 7965
  139.5560  144.7373  151.4294 LP  0  0  0  0  0  0  0  0  0  0  0  0  # atno 17342 bound_to 10162
  140.6862  143.7968  150.7190 LP  0  0  0  0  0  0  0  0  0  0  0  0  # atno 17343 bound_to 10162
  157.4240  130.7453  149.6936 LP  0  0  0  0  0  0  0  0  0  0  0  0  # atno 17370 bound_to 10713
  155.9774  130.4063  150.3712 LP  0  0  0  0  0  0  0  0  0  0  0  0  # atno 17371 bound_to 10713
  140.4122  134.7262  157.4842 LP  0  0  0  0  0  0  0  0  0  0  0  0  # atno 17394 bound_to 11000
  140.0419  134.6255  155.8970 LP  0  0  0  0  0  0  0  0  0  0  0  0  # atno 17395 bound_to 11000

$$$$
