AV-unprocessed.smi:1628|AV-procd|sdf|6520|dock6
  -GOLD-   22720 7193D 1   1.00000     0.00000
 Structure written by MMmdl.
 55 57  0  0  0  0  0  0  0  0  2 V2000
  146.3418  139.2276  153.9881 O   0  0  0  0  0  0  0  0  0  0  0  0
  147.1516  138.4346  153.5085 C   0  0  0  0  0  0  0  0  0  0  0  0
  146.8134  137.4776  152.6341 N   0  0  0  0  0  0  0  0  0  0  0  0
  145.4560  137.2455  152.1586 C   0  0  0  0  0  0  0  0  0  0  0  0
  144.8291  136.0366  152.8806 C   0  0  0  0  0  0  0  0  0  0  0  0
  145.0118  134.7471  152.1626 N   0  3  0  0  0  0  0  0  0  0  0  0
  143.7721  133.9274  152.1133 C   0  0  0  0  0  0  0  0  0  0  0  0
  143.7333  132.9679  150.9134 C   0  0  0  0  0  0  0  0  0  0  0  0
  144.8928  131.9587  150.8506 C   0  0  0  0  0  0  0  0  0  0  0  0
  146.2121  132.6046  150.3968 C   0  0  0  0  0  0  0  0  0  0  0  0
  147.0042  133.3511  151.4869 C   0  0  0  0  0  0  0  0  0  0  0  0
  146.1915  133.9755  152.6346 C   0  0  0  0  0  0  0  0  0  0  0  0
  148.4711  138.4195  153.7641 N   0  0  0  0  0  0  0  0  0  0  0  0
  149.2018  139.2304  154.6743 C   0  0  0  0  0  0  0  0  0  0  0  0
  150.6084  139.1909  154.6186 C   0  0  0  0  0  0  0  0  0  0  0  0
  151.3560  139.9656  155.5254 C   0  0  0  0  0  0  0  0  0  0  0  0
  150.6765  140.7610  156.4778 C   0  0  0  0  0  0  0  0  0  0  0  0
  151.4042  141.5459  157.3988 N   0  0  0  0  0  0  0  0  0  0  0  0
  151.1385  142.9818  157.3584 C   0  0  0  0  0  0  0  0  0  0  0  0
  152.1976  143.7459  158.1718 C   0  0  0  0  0  0  0  0  0  0  0  0
  152.2536  143.2309  159.4978 O   0  0  0  0  0  0  0  0  0  0  0  0
  152.6254  141.8571  159.5162 C   0  0  0  0  0  0  0  0  0  0  0  0
  151.5788  141.0270  158.7544 C   0  0  0  0  0  0  0  0  0  0  0  0
  149.3228  140.7830  156.5436 N   0  0  0  0  0  0  0  0  0  0  0  0
  148.6092  140.0413  155.6707 C   0  0  0  0  0  0  0  0  0  0  0  0
  147.5391  136.8716  152.2802 H   0  0  0  0  0  0  0  0  0  0  0  0
  144.8590  138.1432  152.3263 H   0  0  0  0  0  0  0  0  0  0  0  0
  145.4912  137.0794  151.0813 H   0  0  0  0  0  0  0  0  0  0  0  0
  145.2533  135.9432  153.8813 H   0  0  0  0  0  0  0  0  0  0  0  0
  143.7609  136.2047  153.0259 H   0  0  0  0  0  0  0  0  0  0  0  0
  143.6400  133.3768  153.0458 H   0  0  0  0  0  0  0  0  0  0  0  0
  142.9085  134.5888  152.0315 H   0  0  0  0  0  0  0  0  0  0  0  0
  142.7960  132.4122  150.9581 H   0  0  0  0  0  0  0  0  0  0  0  0
  143.6897  133.5395  149.9853 H   0  0  0  0  0  0  0  0  0  0  0  0
  145.0144  131.4341  151.7990 H   0  0  0  0  0  0  0  0  0  0  0  0
  144.6268  131.1936  150.1202 H   0  0  0  0  0  0  0  0  0  0  0  0
  146.8596  131.8338  149.9770 H   0  0  0  0  0  0  0  0  0  0  0  0
  146.0083  133.2852  149.5693 H   0  0  0  0  0  0  0  0  0  0  0  0
  147.7241  132.6621  151.9297 H   0  0  0  0  0  0  0  0  0  0  0  0
  147.6037  134.1250  151.0061 H   0  0  0  0  0  0  0  0  0  0  0  0
  146.8687  134.6260  153.1903 H   0  0  0  0  0  0  0  0  0  0  0  0
  145.8830  133.2081  153.3460 H   0  0  0  0  0  0  0  0  0  0  0  0
  149.0246  137.7741  153.2201 H   0  0  0  0  0  0  0  0  0  0  0  0
  151.1140  138.5741  153.8900 H   0  0  0  0  0  0  0  0  0  0  0  0
  152.4344  139.9267  155.4908 H   0  0  0  0  0  0  0  0  0  0  0  0
  151.1329  143.3639  156.3387 H   0  0  0  0  0  0  0  0  0  0  0  0
  150.1460  143.1666  157.7715 H   0  0  0  0  0  0  0  0  0  0  0  0
  153.1786  143.6719  157.6992 H   0  0  0  0  0  0  0  0  0  0  0  0
  151.9448  144.8055  158.2142 H   0  0  0  0  0  0  0  0  0  0  0  0
  153.6165  141.7309  159.0777 H   0  0  0  0  0  0  0  0  0  0  0  0
  152.6903  141.5203  160.5509 H   0  0  0  0  0  0  0  0  0  0  0  0
  150.6230  141.0584  159.2795 H   0  0  0  0  0  0  0  0  0  0  0  0
  151.8999  139.9852  158.7217 H   0  0  0  0  0  0  0  0  0  0  0  0
  147.5400  140.0932  155.8049 H   0  0  0  0  0  0  0  0  0  0  0  0
  145.2139  135.0119  151.2090 H   0  0  0  0  0  0  0  0  0  0  0  0
  1  2  2  0  0  0  0
  2  3  1  0  0  0  0
  2 13  1  0  0  0  0
  3  4  1  0  0  0  0
  3 26  1  0  0  0  0
  4  5  1  0  0  0  0
  4 27  1  0  0  0  0
  4 28  1  0  0  0  0
  5  6  1  0  0  0  0
  5 29  1  0  0  0  0
  5 30  1  0  0  0  0
  6 12  1  0  0  0  0
  6  7  1  0  0  0  0
  6 55  1  0  0  0  0
  7  8  1  0  0  0  0
  7 31  1  0  0  0  0
  7 32  1  0  0  0  0
  8  9  1  0  0  0  0
  8 33  1  0  0  0  0
  8 34  1  0  0  0  0
  9 10  1  0  0  0  0
  9 35  1  0  0  0  0
  9 36  1  0  0  0  0
 10 11  1  0  0  0  0
 10 37  1  0  0  0  0
 10 38  1  0  0  0  0
 11 12  1  0  0  0  0
 11 39  1  0  0  0  0
 11 40  1  0  0  0  0
 12 41  1  0  0  0  0
 12 42  1  0  0  0  0
 13 14  1  0  0  0  0
 13 43  1  0  0  0  0
 14 25  1  0  0  0  0
 14 15  2  0  0  0  0
 15 16  1  0  0  0  0
 15 44  1  0  0  0  0
 16 17  2  0  0  0  0
 16 45  1  0  0  0  0
 17 18  1  0  0  0  0
 17 24  1  0  0  0  0
 18 23  1  0  0  0  0
 18 19  1  0  0  0  0
 19 20  1  0  0  0  0
 19 46  1  0  0  0  0
 19 47  1  0  0  0  0
 20 21  1  0  0  0  0
 20 48  1  0  0  0  0
 20 49  1  0  0  0  0
 21 22  1  0  0  0  0
 22 23  1  0  0  0  0
 22 50  1  0  0  0  0
 22 51  1  0  0  0  0
 23 52  1  0  0  0  0
 23 53  1  0  0  0  0
 24 25  2  0  0  0  0
 25 54  1  0  0  0  0
M  CHG  1   6   1
M  END
> <s_m_source_file>
AV-unprocessed.smi

> <i_m_source_file_index>
1628

> <i_lp_mmshare_version>
43012

> <i_f3d_flags>
0

> <s_epik_input>
W0NIMl0xW0NIMl1bQ0gyXVtDSDJdW0NIMl1bQ0gyXU4xW0NIMl1bQ0gyXVtOSF1DKD1PKVtOSF1jMltjSF1bY0hdYyhuW2NIXTIpTjNbQ0gyXVtDSDJdT1tDSDJdW0NIMl0z

> <s_epik_cmdline>
J2VwaWtfcHl0aG9uJywgJy1waCcsICc3LjAnLCAnLXRuJywgJzgnLCAnLW1hJywgJzIwMCcsICctbWV0YWxfYmluZGluZycsICctaW1hZScsICc8aW5maWxlLm1hZT4nLCAnLW9tYWUnLCAnPG91dGZpbGUubWFlPic=

> <r_lp_tautomer_probability>
1

> <r_epik_Ionization_Penalty>
0.00380107

> <r_epik_Ionization_Penalty_Charging>
0.00211816

> <r_epik_Ionization_Penalty_Neutral>
0.00168291

> <r_epik_State_Penalty>
-0

> <r_epik_Charging_Adjusted_Penalty>
0.00211816

> <i_epik_Tot_Q>
1

> <i_epik_Tot_abs_Q>
1

> <r_epik_Metal_State_Penalty>
-0

> <b_epik_Metal_Only>
0

> <s_lp_Force_Field>
OPLS_2005

> <r_lp_Energy>
41.9459

> <b_lp_Chiralities_Consistent>
1

> <s_lp_Variant>
AV-unprocessed.smi:1628-1

> <Gold.Version>
5.8.1

> <Gold.Id.Protein>
6NUR|6NUR_protein|mol2

> <Gold.PLP.Fitness>
47.0672

> <Gold.PLP.PLP>
-43.1985

> <Gold.PLP.part.hbond>
-2.3118

> <Gold.PLP.part.metal>
0.0000

> <Gold.PLP.part.buried>
-5.7689

> <Gold.PLP.part.nonpolar>
-36.2725

> <Gold.PLP.part.repulsive>
0.2845

> <Gold.PLP.ligand.clash>
0.0000

> <Gold.PLP.ligand.torsion>
1.1985

> <Gold.PLP.Chemscore.Hbond>
1.9440

> <Gold.PLP.Chemscore.CHOScore>
0.0000

> <Gold.PLP.Chemscore.Metal>
0.0000

> <Gold.Chemscore.Hbonds>
donor molecule, donor type, donor heavy atom, donor atom, acceptor molecule, acceptor atom, score
      L1  H     3    26       P1  7948  1.00
      L1  H    13    43       P1  7948  0.90

> <Gold.PLP.Chemscore.Internal.Correction>
0.4338

> <Gold.Rescore>
     Score         DG    S(hbond)    S(metal)    S(lipo)     H(rot)  DE(clash)    DE(int)     intcor
     18.73     -21.29       1.92        0.00     115.34       1.60       0.21       2.35       ----

> <Gold.Chemscore.Fitness>
18.7257

> <Gold.Chemscore.DG>
-21.2868

> <Gold.Chemscore.ZeroCoef>
-5.4800

> <Gold.Chemscore.Hbond>
1.9168

> <Gold.Chemscore.Metal>
0.0000

> <Gold.Chemscore.Lipo>
115.3393

> <Gold.Chemscore.Internal_Hbond>
0.0000

> <Gold.Chemscore.DEClash>
0.2085

> <Gold.Chemscore.DEInternal>
2.3526

> <Gold.Chemscore.Rot>
1.5976

> <Gold.Chemscore.Internal.Correction>
   9.000000E+99

> <Gold.Chemscore.Hbonds>
donor molecule, donor type, donor heavy atom, donor atom, acceptor molecule, acceptor atom, score
      L1  H     3    26       P1  7948  0.98
      L1  H    13    43       P1  7948  0.83

> <Gold.Chemscore.Hbond.Weighted>
-6.4021

> <Gold.Chemscore.Metal.Weighted>
-0.0000

> <Gold.Chemscore.Lipo.Weighted>
-13.4947

> <Gold.Chemscore.Internal_Hbond.Weighted>
0.0000

> <Gold.Chemscore.DEClash.Weighted>
0.2085

> <Gold.Chemscore.DEInternal.Weighted>
2.3526

> <Gold.Chemscore.Rot.Weighted>
4.0899

> <Gold.Chemscore.Internal.Correction.Weighted>
   9.000000E+99

> <Gold.Protein.RotatedTorsions>
[ 6907 6896 6895 6894 ] final  172.88 input  -60.11 | X-H torsion
[ 7974 7965 7964 7962 ] final -121.89 input  175.53 | X-H torsion
[ 8008 7997 7996 7995 ] final -163.04 input   59.86 | X-H torsion
[ 10167 10162 10161 10158 ] final   19.80 input  -65.29 | X-H torsion
[ 10718 10713 10712 10709 ] final  158.30 input   66.30 | X-H torsion
[ 10763 10752 10751 10750 ] final   68.54 input  -60.55 | X-H torsion
[ 11005 11000 10999 10996 ] final -149.75 input  -57.11 | X-H torsion

> <Gold.Protein.ActiveResidues>
 VAL166  LYS551  ARG553  GLY616  TRP617  ASP618  TYR619  PRO620  LYS621  CYS622 
 ASP623  PHE694  ASN695  SER759  ASP760  ASP761  ALA762  ILE779  LEU786  VAL792 
 PHE793  MET794  SER795  GLU796  ALA797  LYS798  CYS799  TRP800  GLU811  SER814 

> <Gold.Protein.RotatedAtoms>
  151.7772  133.3346  159.3460 H   0  0  0  0  0  0  0  0  0  0  0  0  # atno 6907 bound_to 6896
  150.7439  134.5964  159.6023 H   0  0  0  0  0  0  0  0  0  0  0  0  # atno 6908 bound_to 6896
  152.3301  134.7272  160.0343 H   0  0  0  0  0  0  0  0  0  0  0  0  # atno 6909 bound_to 6896
  145.0354  140.8101  143.4298 H   0  0  0  0  0  0  0  0  0  0  0  0  # atno 7974 bound_to 7965
  155.8155  140.0912  157.1879 H   0  0  0  0  0  0  0  0  0  0  0  0  # atno 8008 bound_to 7997
  154.3979  140.1446  156.3497 H   0  0  0  0  0  0  0  0  0  0  0  0  # atno 8009 bound_to 7997
  155.8321  140.3442  155.5581 H   0  0  0  0  0  0  0  0  0  0  0  0  # atno 8010 bound_to 7997
  140.5551  143.9438  150.6604 H   0  0  0  0  0  0  0  0  0  0  0  0  # atno 10167 bound_to 10162
  157.1797  131.0629  151.2138 H   0  0  0  0  0  0  0  0  0  0  0  0  # atno 10718 bound_to 10713
  153.0240  135.5243  154.7150 H   0  0  0  0  0  0  0  0  0  0  0  0  # atno 10763 bound_to 10752
  154.6222  135.2890  155.0315 H   0  0  0  0  0  0  0  0  0  0  0  0  # atno 10764 bound_to 10752
  154.1298  135.6594  153.4972 H   0  0  0  0  0  0  0  0  0  0  0  0  # atno 10765 bound_to 10752
  140.7475  134.3444  157.5133 H   0  0  0  0  0  0  0  0  0  0  0  0  # atno 11005 bound_to 11000
  145.1716  139.2401  143.5339 LP  0  0  0  0  0  0  0  0  0  0  0  0  # atno 17320 bound_to 7965
  146.3503  140.1469  142.8593 LP  0  0  0  0  0  0  0  0  0  0  0  0  # atno 17321 bound_to 7965
  140.2874  143.3347  152.1094 LP  0  0  0  0  0  0  0  0  0  0  0  0  # atno 17342 bound_to 10162
  139.5044  144.6775  151.6091 LP  0  0  0  0  0  0  0  0  0  0  0  0  # atno 17343 bound_to 10162
  157.3964  130.7309  149.6735 LP  0  0  0  0  0  0  0  0  0  0  0  0  # atno 17370 bound_to 10713
  155.9726  130.4132  150.4073 LP  0  0  0  0  0  0  0  0  0  0  0  0  # atno 17371 bound_to 10713
  139.8794  134.9120  156.3051 LP  0  0  0  0  0  0  0  0  0  0  0  0  # atno 17394 bound_to 11000
  140.9781  133.7285  156.0632 LP  0  0  0  0  0  0  0  0  0  0  0  0  # atno 17395 bound_to 11000

$$$$
