AV-unprocessed.smi:136|AV-procd|sdf|1171|dock3
  -GOLD-   2262018313D 1   1.00000     0.00000
 Structure written by MMmdl.
 54 58  0  0  0  0  0  0  0  0  1 V2000
  156.1074  136.9655  160.3051 O   0  0  0  0  0  0  0  0  0  0  0  0
  155.2875  137.8005  159.9182 C   0  0  0  0  0  0  0  0  0  0  0  0
  154.6070  137.6272  158.5436 C   0  0  0  0  0  0  0  0  0  0  0  0
  154.9600  136.3574  157.8706 N   0  0  0  0  0  0  0  0  0  0  0  0
  154.4501  135.1457  158.3999 C   0  0  0  0  0  0  0  0  0  0  0  0
  153.7136  135.1401  159.3874 O   0  0  0  0  0  0  0  0  0  0  0  0
  154.8643  133.9315  157.7061 C   0  0  0  0  0  0  0  0  0  0  0  0
  154.4270  132.7364  158.1383 F   0  0  0  0  0  0  0  0  0  0  0  0
  155.6835  133.9871  156.6359 C   0  0  0  0  0  0  0  0  0  0  0  0
  156.1771  135.1774  156.1322 N   0  0  0  0  0  0  0  0  0  0  0  0
  157.1020  135.2220  154.9347 C   0  0  2  0  0  0  0  0  0  0  0  0
  156.5089  136.1125  153.8274 C   0  0  0  0  0  0  0  0  0  0  0  0
  156.6121  135.2294  152.6004 C   0  0  0  0  0  0  0  0  0  0  0  0
  156.4829  133.8386  153.2032 C   0  0  0  0  0  0  0  0  0  0  0  0
  157.2479  133.9377  154.3974 O   0  0  0  0  0  0  0  0  0  0  0  0
  155.8249  136.3963  156.7514 C   0  0  0  0  0  0  0  0  0  0  0  0
  156.2659  137.4663  156.3255 O   0  0  0  0  0  0  0  0  0  0  0  0
  154.9654  138.8818  160.6626 N   0  0  0  0  0  0  0  0  0  0  0  0
  154.1600  139.8801  160.2192 N   0  0  0  0  0  0  0  0  0  0  0  0
  154.1171  140.8197  161.0900 C   0  0  0  0  0  0  0  0  0  0  0  0
  153.3258  142.0619  160.9468 C   0  0  0  0  0  0  0  0  0  0  0  0
  153.1699  142.9190  162.0599 C   0  0  0  0  0  0  0  0  0  0  0  0
  152.4226  144.1052  161.9216 C   0  0  0  0  0  0  0  0  0  0  0  0
  151.8348  144.4319  160.6830 C   0  0  0  0  0  0  0  0  0  0  0  0
  150.9226  145.8871  160.5195 Cl  0  0  0  0  0  0  0  0  0  0  0  0
  151.9913  143.5721  159.5771 C   0  0  0  0  0  0  0  0  0  0  0  0
  152.7369  142.3837  159.7029 C   0  0  0  0  0  0  0  0  0  0  0  0
  154.9413  140.5536  162.3043 C   0  0  0  0  0  0  0  0  0  0  0  0
  155.5030  139.1631  161.9995 C   0  0  1  0  0  0  0  0  0  0  0  0
  155.1112  138.1356  163.0207 C   0  0  0  0  0  0  0  0  0  0  0  0
  153.9070  137.6453  163.4439 C   0  0  0  0  0  0  0  0  0  0  0  0
  154.1972  136.6728  164.4403 C   0  0  0  0  0  0  0  0  0  0  0  0
  155.5583  136.6366  164.5467 C   0  0  0  0  0  0  0  0  0  0  0  0
  156.1313  137.5186  163.6844 O   0  0  0  0  0  0  0  0  0  0  0  0
  153.5255  137.6984  158.6716 H   0  0  0  0  0  0  0  0  0  0  0  0
  154.8596  138.4857  157.9196 H   0  0  0  0  0  0  0  0  0  0  0  0
  155.9549  133.0522  156.1704 H   0  0  0  0  0  0  0  0  0  0  0  0
  158.0671  135.5623  155.3141 H   0  0  0  0  0  0  0  0  0  0  0  0
  155.4638  136.3392  154.0450 H   0  0  0  0  0  0  0  0  0  0  0  0
  157.0632  137.0469  153.7359 H   0  0  0  0  0  0  0  0  0  0  0  0
  155.8476  135.4438  151.8532 H   0  0  0  0  0  0  0  0  0  0  0  0
  157.5914  135.3456  152.1343 H   0  0  0  0  0  0  0  0  0  0  0  0
  155.4420  133.6144  153.4397 H   0  0  0  0  0  0  0  0  0  0  0  0
  156.8637  133.0561  152.5467 H   0  0  0  0  0  0  0  0  0  0  0  0
  153.6140  142.6872  163.0172 H   0  0  0  0  0  0  0  0  0  0  0  0
  152.3025  144.7656  162.7677 H   0  0  0  0  0  0  0  0  0  0  0  0
  151.5398  143.8241  158.6286 H   0  0  0  0  0  0  0  0  0  0  0  0
  152.8419  141.7427  158.8403 H   0  0  0  0  0  0  0  0  0  0  0  0
  155.7368  141.2916  162.4128 H   0  0  0  0  0  0  0  0  0  0  0  0
  154.3272  140.5641  163.2061 H   0  0  0  0  0  0  0  0  0  0  0  0
  156.5913  139.2165  161.9351 H   0  0  0  0  0  0  0  0  0  0  0  0
  152.9367  137.9528  163.0832 H   0  0  0  0  0  0  0  0  0  0  0  0
  153.4989  136.0749  165.0073 H   0  0  0  0  0  0  0  0  0  0  0  0
  156.2493  136.0704  165.1535 H   0  0  0  0  0  0  0  0  0  0  0  0
  1  2  2  0  0  0  0
  2  3  1  0  0  0  0
  2 18  1  0  0  0  0
  3  4  1  0  0  0  0
  3 35  1  0  0  0  0
  3 36  1  0  0  0  0
  4 16  1  0  0  0  0
  4  5  1  0  0  0  0
  5  6  2  0  0  0  0
  5  7  1  0  0  0  0
  7  8  1  0  0  0  0
  7  9  2  0  0  0  0
  9 10  1  0  0  0  0
  9 37  1  0  0  0  0
 10 11  1  0  0  0  0
 10 16  1  0  0  0  0
 11 15  1  0  0  0  0
 11 12  1  0  0  0  0
 11 38  1  0  0  0  0
 12 13  1  0  0  0  0
 12 39  1  0  0  0  0
 12 40  1  0  0  0  0
 13 14  1  0  0  0  0
 13 41  1  0  0  0  0
 13 42  1  0  0  0  0
 14 15  1  0  0  0  0
 14 43  1  0  0  0  0
 14 44  1  0  0  0  0
 16 17  2  0  0  0  0
 18 29  1  0  0  0  0
 18 19  1  0  0  0  0
 19 20  2  0  0  0  0
 20 21  1  0  0  0  0
 20 28  1  0  0  0  0
 21 27  1  0  0  0  0
 21 22  2  0  0  0  0
 22 23  1  0  0  0  0
 22 45  1  0  0  0  0
 23 24  2  0  0  0  0
 23 46  1  0  0  0  0
 24 25  1  0  0  0  0
 24 26  1  0  0  0  0
 26 27  2  0  0  0  0
 26 47  1  0  0  0  0
 27 48  1  0  0  0  0
 28 29  1  0  0  0  0
 28 49  1  0  0  0  0
 28 50  1  0  0  0  0
 29 30  1  0  0  0  0
 29 51  1  0  0  0  0
 30 34  1  0  0  0  0
 30 31  2  0  0  0  0
 31 32  1  0  0  0  0
 31 52  1  0  0  0  0
 32 33  2  0  0  0  0
 32 53  1  0  0  0  0
 33 34  1  0  0  0  0
 33 54  1  0  0  0  0
M  END
> <s_m_source_file>
AV-unprocessed.smi

> <i_m_source_file_index>
136

> <i_lp_mmshare_version>
43012

> <i_f3d_flags>
0

> <s_epik_input>
bzFbY0hdW2NIXVtjSF1jMVtDQEBIXTJbQ0gyXUMoYzNbY0hdW2NIXWMoQ2wpW2NIXVtjSF0zKT1OTjJDKD1PKVtDSDJdbjRjKD1PKWMoRilbY0hdbihjND1PKVtDQEBIXTVbQ0gyXVtDSDJdW0NIMl1PNQ==

> <s_epik_cmdline>
J2VwaWtfcHl0aG9uJywgJy1waCcsICc3LjAnLCAnLXRuJywgJzgnLCAnLW1hJywgJzIwMCcsICctbWV0YWxfYmluZGluZycsICctaW1hZScsICc8aW5maWxlLm1hZT4nLCAnLW9tYWUnLCAnPG91dGZpbGUubWFlPic=

> <r_lp_tautomer_probability>
1

> <r_epik_Ionization_Penalty>
2.55467e-08

> <r_epik_Ionization_Penalty_Charging>
4.85705e-09

> <r_epik_Ionization_Penalty_Neutral>
2.06897e-08

> <r_epik_State_Penalty>
-0

> <r_epik_Charging_Adjusted_Penalty>
4.85705e-09

> <i_epik_Tot_Q>
0

> <i_epik_Tot_abs_Q>
0

> <r_epik_Metal_State_Penalty>
-0

> <b_epik_Metal_Only>
0

> <s_epik_Chemistry_Notes>
This compound has an imine and may undergo hydrolysis. This compound contains an acetal/aminal-like group ( X-CH(R)-Y where X, Y are N, S, or O) that may be acid/base labile, releasing an aldehyde.

> <s_lp_Force_Field>
OPLS_2005

> <r_lp_Energy>
40.8333

> <b_lp_Chiralities_Consistent>
1

> <s_lp_Variant>
AV-unprocessed.smi:136-1

> <Gold.Version>
5.8.1

> <Gold.Id.Protein>
6NUR|6NUR_protein|mol2

> <Gold.PLP.Fitness>
59.7225

> <Gold.PLP.PLP>
-57.1643

> <Gold.PLP.part.hbond>
-1.0000

> <Gold.PLP.part.metal>
0.0000

> <Gold.PLP.part.buried>
-7.6760

> <Gold.PLP.part.nonpolar>
-48.6563

> <Gold.PLP.part.repulsive>
0.1079

> <Gold.PLP.ligand.clash>
0.0000

> <Gold.PLP.ligand.torsion>
0.2533

> <Gold.PLP.Chemscore.Hbond>
0.9913

> <Gold.PLP.Chemscore.CHOScore>
0.0000

> <Gold.PLP.Chemscore.Metal>
0.0000

> <Gold.Chemscore.Hbonds>
donor molecule, donor type, donor heavy atom, donor atom, acceptor molecule, acceptor atom, score
      P1  H  6896  6909       L1     6  0.84

> <Gold.PLP.Chemscore.Internal.Correction>
0.0911

> <Gold.Rescore>
     Score         DG    S(hbond)    S(metal)    S(lipo)     H(rot)  DE(clash)    DE(int)     intcor
     21.63     -23.17       0.96        0.00     163.19       1.81       0.03       1.51       ----

> <Gold.Chemscore.Fitness>
21.6342

> <Gold.Chemscore.DG>
-23.1736

> <Gold.Chemscore.ZeroCoef>
-5.4800

> <Gold.Chemscore.Hbond>
0.9647

> <Gold.Chemscore.Metal>
0.0000

> <Gold.Chemscore.Lipo>
163.1942

> <Gold.Chemscore.Internal_Hbond>
0.0000

> <Gold.Chemscore.DEClash>
0.0323

> <Gold.Chemscore.DEInternal>
1.5071

> <Gold.Chemscore.Rot>
1.8056

> <Gold.Chemscore.Internal.Correction>
   9.000000E+99

> <Gold.Chemscore.Hbonds>
donor molecule, donor type, donor heavy atom, donor atom, acceptor molecule, acceptor atom, score
      P1  H  6896  6909       L1     6  0.79

> <Gold.Chemscore.Hbond.Weighted>
-3.2222

> <Gold.Chemscore.Metal.Weighted>
-0.0000

> <Gold.Chemscore.Lipo.Weighted>
-19.0937

> <Gold.Chemscore.Internal_Hbond.Weighted>
0.0000

> <Gold.Chemscore.DEClash.Weighted>
0.0323

> <Gold.Chemscore.DEInternal.Weighted>
1.5071

> <Gold.Chemscore.Rot.Weighted>
4.6223

> <Gold.Chemscore.Internal.Correction.Weighted>
   9.000000E+99

> <Gold.Protein.RotatedTorsions>
[ 6907 6896 6895 6894 ] final -158.15 input  -60.11 | X-H torsion
[ 7974 7965 7964 7962 ] final  -68.15 input  175.53 | X-H torsion
[ 8008 7997 7996 7995 ] final  150.51 input   59.86 | X-H torsion
[ 10167 10162 10161 10158 ] final   76.87 input  -65.29 | X-H torsion
[ 10718 10713 10712 10709 ] final  145.04 input   66.30 | X-H torsion
[ 10763 10752 10751 10750 ] final -115.96 input  -60.55 | X-H torsion
[ 11005 11000 10999 10996 ] final  134.51 input  -57.11 | X-H torsion

> <Gold.Protein.ActiveResidues>
 VAL166  LYS551  ARG553  GLY616  TRP617  ASP618  TYR619  PRO620  LYS621  CYS622 
 ASP623  PHE694  ASN695  SER759  ASP760  ASP761  ALA762  ILE779  LEU786  VAL792 
 PHE793  MET794  SER795  GLU796  ALA797  LYS798  CYS799  TRP800  GLU811  SER814 

> <Gold.Protein.RotatedAtoms>
  151.3138  133.4069  159.2648 H   0  0  0  0  0  0  0  0  0  0  0  0  # atno 6907 bound_to 6896
  151.0092  134.9384  159.8008 H   0  0  0  0  0  0  0  0  0  0  0  0  # atno 6908 bound_to 6896
  152.5296  134.3103  159.9163 H   0  0  0  0  0  0  0  0  0  0  0  0  # atno 6909 bound_to 6896
  145.7201  140.9042  143.0635 H   0  0  0  0  0  0  0  0  0  0  0  0  # atno 7974 bound_to 7965
  156.2713  140.2073  156.6028 H   0  0  0  0  0  0  0  0  0  0  0  0  # atno 8008 bound_to 7997
  154.6893  140.0532  157.0370 H   0  0  0  0  0  0  0  0  0  0  0  0  # atno 8009 bound_to 7997
  155.0889  140.3194  155.4582 H   0  0  0  0  0  0  0  0  0  0  0  0  # atno 8010 bound_to 7997
  139.9876  144.5781  150.7846 H   0  0  0  0  0  0  0  0  0  0  0  0  # atno 10167 bound_to 10162
  157.3500  131.0949  151.1008 H   0  0  0  0  0  0  0  0  0  0  0  0  # atno 10718 bound_to 10713
  154.8501  135.4363  154.1745 H   0  0  0  0  0  0  0  0  0  0  0  0  # atno 10763 bound_to 10752
  153.2850  135.6957  153.7354 H   0  0  0  0  0  0  0  0  0  0  0  0  # atno 10764 bound_to 10752
  153.6543  135.3446  155.3084 H   0  0  0  0  0  0  0  0  0  0  0  0  # atno 10765 bound_to 10752
  139.9920  134.9511  156.9877 H   0  0  0  0  0  0  0  0  0  0  0  0  # atno 11005 bound_to 11000
  144.6919  139.9191  143.7467 LP  0  0  0  0  0  0  0  0  0  0  0  0  # atno 17320 bound_to 7965
  146.0633  139.3625  143.0568 LP  0  0  0  0  0  0  0  0  0  0  0  0  # atno 17321 bound_to 7965
  140.7466  143.2894  151.3372 LP  0  0  0  0  0  0  0  0  0  0  0  0  # atno 17342 bound_to 10162
  139.6364  144.0623  152.2519 LP  0  0  0  0  0  0  0  0  0  0  0  0  # atno 17343 bound_to 10162
  157.2187  130.6471  149.5802 LP  0  0  0  0  0  0  0  0  0  0  0  0  # atno 17370 bound_to 10713
  155.9720  130.4636  150.6188 LP  0  0  0  0  0  0  0  0  0  0  0  0  # atno 17371 bound_to 10713
  140.4891  134.1211  155.7229 LP  0  0  0  0  0  0  0  0  0  0  0  0  # atno 17394 bound_to 11000
  141.1573  133.8858  157.1942 LP  0  0  0  0  0  0  0  0  0  0  0  0  # atno 17395 bound_to 11000

$$$$
