AV-unprocessed.smi:2374|AV-procd|sdf|9441|dock10
  -GOLD-   2272013 73D 1   1.00000     0.00000
 Structure written by MMmdl.
 38 39  0  0  0  0  0  0  0  0  1 V2000
  149.7639  134.6608  156.5620 C   0  0  0  0  0  0  0  0  0  0  0  0
  149.7211  133.2141  156.1604 C   0  0  0  0  0  0  0  0  0  0  0  0
  149.8455  132.2781  157.0862 N   0  0  0  0  0  0  0  0  0  0  0  0
  149.7772  131.0569  156.4085 O   0  0  0  0  0  0  0  0  0  0  0  0
  149.6158  131.3092  155.0847 C   0  0  0  0  0  0  0  0  0  0  0  0
  149.5278  130.1267  154.1803 C   0  0  0  0  0  0  0  0  0  0  0  0
  149.5708  132.6569  154.8573 C   0  0  0  0  0  0  0  0  0  0  0  0
  149.4105  133.3798  153.5449 C   0  0  0  0  0  0  0  0  0  0  0  0
  148.0904  132.9664  152.8967 C   0  0  0  0  0  0  0  0  0  0  0  0
  147.7059  131.8004  152.9745 O   0  0  0  0  0  0  0  0  0  0  0  0
  147.4204  133.9323  152.2463 N   0  0  0  0  0  0  0  0  0  0  0  0
  146.1709  133.7892  151.4975 C   0  0  0  0  0  0  0  0  0  0  0  0
  145.7579  135.0768  150.9037 C   0  0  0  0  0  0  0  0  0  0  0  0
  145.4341  136.0852  150.4372 N   0  0  0  0  0  0  0  0  0  0  0  0
  146.4322  132.7645  150.3703 C   0  0  0  0  0  0  0  0  0  0  0  0
  145.1550  132.4129  149.5882 C   0  0  0  0  0  0  0  0  0  0  0  0
  144.0615  131.8872  150.5287 C   0  0  0  0  0  0  0  0  0  0  0  0
  143.7765  132.8838  151.6611 C   0  0  0  0  0  0  0  0  0  0  0  0
  145.0624  133.2359  152.4285 C   0  0  0  0  0  0  0  0  0  0  0  0
  150.7593  135.0775  156.4071 H   0  0  0  0  0  0  0  0  0  0  0  0
  149.5077  134.7939  157.6137 H   0  0  0  0  0  0  0  0  0  0  0  0
  149.0609  135.2524  155.9755 H   0  0  0  0  0  0  0  0  0  0  0  0
  149.7749  129.2061  154.7095 H   0  0  0  0  0  0  0  0  0  0  0  0
  150.2187  130.2301  153.3433 H   0  0  0  0  0  0  0  0  0  0  0  0
  148.5204  130.0255  153.7765 H   0  0  0  0  0  0  0  0  0  0  0  0
  149.4111  134.4615  153.6842 H   0  0  0  0  0  0  0  0  0  0  0  0
  150.2356  133.1641  152.8652 H   0  0  0  0  0  0  0  0  0  0  0  0
  147.8278  134.8558  152.2516 H   0  0  0  0  0  0  0  0  0  0  0  0
  147.1843  133.1512  149.6811 H   0  0  0  0  0  0  0  0  0  0  0  0
  146.8497  131.8487  150.7928 H   0  0  0  0  0  0  0  0  0  0  0  0
  144.7907  133.2918  149.0552 H   0  0  0  0  0  0  0  0  0  0  0  0
  145.3803  131.6647  148.8278 H   0  0  0  0  0  0  0  0  0  0  0  0
  143.1483  131.6915  149.9660 H   0  0  0  0  0  0  0  0  0  0  0  0
  144.3737  130.9324  150.9538 H   0  0  0  0  0  0  0  0  0  0  0  0
  143.3313  133.7902  151.2491 H   0  0  0  0  0  0  0  0  0  0  0  0
  143.0396  132.4644  152.3465 H   0  0  0  0  0  0  0  0  0  0  0  0
  145.4247  132.3441  152.9425 H   0  0  0  0  0  0  0  0  0  0  0  0
  144.8226  133.9588  153.2087 H   0  0  0  0  0  0  0  0  0  0  0  0
  1  2  1  0  0  0  0
  1 20  1  0  0  0  0
  1 21  1  0  0  0  0
  1 22  1  0  0  0  0
  2  7  1  0  0  0  0
  2  3  2  0  0  0  0
  3  4  1  0  0  0  0
  4  5  1  0  0  0  0
  5  6  1  0  0  0  0
  5  7  2  0  0  0  0
  6 23  1  0  0  0  0
  6 24  1  0  0  0  0
  6 25  1  0  0  0  0
  7  8  1  0  0  0  0
  8  9  1  0  0  0  0
  8 26  1  0  0  0  0
  8 27  1  0  0  0  0
  9 10  2  0  0  0  0
  9 11  1  0  0  0  0
 11 12  1  0  0  0  0
 11 28  1  0  0  0  0
 12 19  1  0  0  0  0
 12 13  1  0  0  0  0
 12 15  1  0  0  0  0
 13 14  3  0  0  0  0
 15 16  1  0  0  0  0
 15 29  1  0  0  0  0
 15 30  1  0  0  0  0
 16 17  1  0  0  0  0
 16 31  1  0  0  0  0
 16 32  1  0  0  0  0
 17 18  1  0  0  0  0
 17 33  1  0  0  0  0
 17 34  1  0  0  0  0
 18 19  1  0  0  0  0
 18 35  1  0  0  0  0
 18 36  1  0  0  0  0
 19 37  1  0  0  0  0
 19 38  1  0  0  0  0
M  END
> <s_m_source_file>
AV-unprocessed.smi

> <i_m_source_file_index>
2374

> <i_lp_mmshare_version>
43012

> <i_f3d_flags>
0

> <s_epik_input>
W0NIM11jMW5vYyhbQ0gzXSljMVtDSDJdQyg9TylbTkhdQzIoQyNOKVtDSDJdW0NIMl1bQ0gyXVtDSDJdW0NIMl0y

> <s_epik_cmdline>
J2VwaWtfcHl0aG9uJywgJy1waCcsICc3LjAnLCAnLXRuJywgJzgnLCAnLW1hJywgJzIwMCcsICctbWV0YWxfYmluZGluZycsICctaW1hZScsICc8aW5maWxlLm1hZT4nLCAnLW9tYWUnLCAnPG91dGZpbGUubWFlPic=

> <r_lp_tautomer_probability>
1

> <r_epik_Ionization_Penalty>
5.32351e-07

> <r_epik_Ionization_Penalty_Charging>
0

> <r_epik_Ionization_Penalty_Neutral>
5.32351e-07

> <r_epik_State_Penalty>
-0

> <r_epik_Charging_Adjusted_Penalty>
0

> <i_epik_Tot_Q>
0

> <i_epik_Tot_abs_Q>
0

> <r_epik_Metal_State_Penalty>
-0

> <b_epik_Metal_Only>
0

> <s_lp_Force_Field>
OPLS_2005

> <r_lp_Energy>
1.24433

> <b_lp_Chiralities_Consistent>
1

> <s_lp_Variant>
AV-unprocessed.smi:2374-1

> <Gold.Version>
5.8.1

> <Gold.Id.Protein>
6NUR|6NUR_protein|mol2

> <Gold.PLP.Fitness>
35.6849

> <Gold.PLP.PLP>
-33.3179

> <Gold.PLP.part.hbond>
-1.0000

> <Gold.PLP.part.metal>
0.0000

> <Gold.PLP.part.buried>
-4.0630

> <Gold.PLP.part.nonpolar>
-28.3976

> <Gold.PLP.part.repulsive>
1.5636

> <Gold.PLP.ligand.clash>
0.0000

> <Gold.PLP.ligand.torsion>
0.3191

> <Gold.PLP.Chemscore.Hbond>
1.0000

> <Gold.PLP.Chemscore.CHOScore>
0.0000

> <Gold.PLP.Chemscore.Metal>
0.0000

> <Gold.Chemscore.Hbonds>
donor molecule, donor type, donor heavy atom, donor atom, acceptor molecule, acceptor atom, score
      L1  H    11    28       P1  7948  1.00

> <Gold.PLP.Chemscore.Internal.Correction>
0.0053

> <Gold.Rescore>
     Score         DG    S(hbond)    S(metal)    S(lipo)     H(rot)  DE(clash)    DE(int)     intcor
     10.46     -15.27       1.57        0.00      69.53       1.40       0.42       4.39       ----

> <Gold.Chemscore.Fitness>
10.4618

> <Gold.Chemscore.DG>
-15.2705

> <Gold.Chemscore.ZeroCoef>
-5.4800

> <Gold.Chemscore.Hbond>
1.5694

> <Gold.Chemscore.Metal>
0.0000

> <Gold.Chemscore.Lipo>
69.5298

> <Gold.Chemscore.Internal_Hbond>
0.0000

> <Gold.Chemscore.DEClash>
0.4194

> <Gold.Chemscore.DEInternal>
4.3893

> <Gold.Chemscore.Rot>
1.4009

> <Gold.Chemscore.Internal.Correction>
   9.000000E+99

> <Gold.Chemscore.Hbonds>
donor molecule, donor type, donor heavy atom, donor atom, acceptor molecule, acceptor atom, score
      L1  H    11    28       P1  7948  0.74

> <Gold.Chemscore.Hbond.Weighted>
-5.2418

> <Gold.Chemscore.Metal.Weighted>
-0.0000

> <Gold.Chemscore.Lipo.Weighted>
-8.1350

> <Gold.Chemscore.Internal_Hbond.Weighted>
0.0000

> <Gold.Chemscore.DEClash.Weighted>
0.4194

> <Gold.Chemscore.DEInternal.Weighted>
4.3893

> <Gold.Chemscore.Rot.Weighted>
3.5863

> <Gold.Chemscore.Internal.Correction.Weighted>
   9.000000E+99

> <Gold.Protein.RotatedTorsions>
[ 6907 6896 6895 6894 ] final  -38.00 input  -60.11 | X-H torsion
[ 7974 7965 7964 7962 ] final  108.97 input  175.53 | X-H torsion
[ 8008 7997 7996 7995 ] final   49.46 input   59.86 | X-H torsion
[ 10167 10162 10161 10158 ] final  107.46 input  -65.29 | X-H torsion
[ 10718 10713 10712 10709 ] final   66.87 input   66.30 | X-H torsion
[ 10763 10752 10751 10750 ] final  -53.40 input  -60.55 | X-H torsion
[ 11005 11000 10999 10996 ] final  -88.15 input  -57.11 | X-H torsion

> <Gold.Protein.ActiveResidues>
 VAL166  LYS551  ARG553  GLY616  TRP617  ASP618  TYR619  PRO620  LYS621  CYS622 
 ASP623  PHE694  ASN695  SER759  ASP760  ASP761  ALA762  ILE779  LEU786  VAL792 
 PHE793  MET794  SER795  GLU796  ALA797  LYS798  CYS799  TRP800  GLU811  SER814 

> <Gold.Protein.RotatedAtoms>
  151.0078  134.9373  159.7990 H   0  0  0  0  0  0  0  0  0  0  0  0  # atno 6907 bound_to 6896
  152.5295  134.3068  159.9109 H   0  0  0  0  0  0  0  0  0  0  0  0  # atno 6908 bound_to 6896
  151.3074  133.4054  159.2678 H   0  0  0  0  0  0  0  0  0  0  0  0  # atno 6909 bound_to 6896
  145.2739  139.2657  143.3952 H   0  0  0  0  0  0  0  0  0  0  0  0  # atno 7974 bound_to 7965
  155.4025  140.3438  155.4258 H   0  0  0  0  0  0  0  0  0  0  0  0  # atno 8008 bound_to 7997
  156.1495  140.1566  156.8824 H   0  0  0  0  0  0  0  0  0  0  0  0  # atno 8009 bound_to 7997
  154.5040  140.0807  156.7837 H   0  0  0  0  0  0  0  0  0  0  0  0  # atno 8010 bound_to 7997
  139.6925  144.7106  151.1323 H   0  0  0  0  0  0  0  0  0  0  0  0  # atno 10167 bound_to 10162
  157.6195  130.9290  150.0166 H   0  0  0  0  0  0  0  0  0  0  0  0  # atno 10718 bound_to 10713
  154.1583  135.6479  153.4979 H   0  0  0  0  0  0  0  0  0  0  0  0  # atno 10763 bound_to 10752
  153.0118  135.5354  154.6737 H   0  0  0  0  0  0  0  0  0  0  0  0  # atno 10764 bound_to 10752
  154.6044  135.2947  155.0472 H   0  0  0  0  0  0  0  0  0  0  0  0  # atno 10765 bound_to 10752
  141.1606  133.7553  156.9410 H   0  0  0  0  0  0  0  0  0  0  0  0  # atno 11005 bound_to 11000
  146.3238  140.3188  142.8632 LP  0  0  0  0  0  0  0  0  0  0  0  0  # atno 17320 bound_to 7965
  144.9311  140.7976  143.5688 LP  0  0  0  0  0  0  0  0  0  0  0  0  # atno 17321 bound_to 7965
  140.7687  143.5539  150.9174 LP  0  0  0  0  0  0  0  0  0  0  0  0  # atno 17342 bound_to 10162
  139.9217  143.6598  152.3095 LP  0  0  0  0  0  0  0  0  0  0  0  0  # atno 17343 bound_to 10162
  156.1334  130.3643  149.9696 LP  0  0  0  0  0  0  0  0  0  0  0  0  # atno 17370 bound_to 10713
  156.7752  130.9201  151.3645 LP  0  0  0  0  0  0  0  0  0  0  0  0  # atno 17371 bound_to 10713
  140.1321  134.9349  157.2352 LP  0  0  0  0  0  0  0  0  0  0  0  0  # atno 17394 bound_to 11000
  140.2940  134.3208  155.7307 LP  0  0  0  0  0  0  0  0  0  0  0  0  # atno 17395 bound_to 11000

$$$$
