AV-unprocessed.smi:1971|AV-procd|sdf|7962|dock10
  -GOLD-   2272010133D 1   1.00000     0.00000
 Structure written by MMmdl.
 44 45  0  0  0  0  0  0  0  0  2 V2000
  147.0905  128.6455  152.3652 C   0  0  0  0  0  0  0  0  0  0  0  0
  146.0402  129.6201  151.8134 C   0  0  0  0  0  0  0  0  0  0  0  0
  146.5950  130.9703  151.5445 N   0  3  0  0  0  0  0  0  0  0  0  0
  146.6659  131.8001  152.7724 C   0  0  0  0  0  0  0  0  0  0  0  0
  147.2702  133.1842  152.4571 C   0  0  0  0  0  0  0  0  0  0  0  0
  146.4644  133.9164  151.4693 N   0  0  0  0  0  0  0  0  0  0  0  0
  145.1065  134.3097  151.9086 C   0  0  2  0  0  0  0  0  0  0  0  0
  144.3151  134.9175  150.7265 C   0  0  0  0  0  0  0  0  0  0  0  0
  145.1421  135.3090  153.0985 C   0  0  0  0  0  0  0  0  0  0  0  0
  146.2989  136.1986  153.0488 N   0  0  0  0  0  0  0  0  0  0  0  0
  146.3448  137.4196  153.6023 C   0  0  0  0  0  0  0  0  0  0  0  0
  145.4029  137.9168  154.2214 O   0  0  0  0  0  0  0  0  0  0  0  0
  147.5334  138.0105  153.3883 N   0  0  0  0  0  0  0  0  0  0  0  0
  147.9515  139.3075  153.7872 C   0  0  0  0  0  0  0  0  0  0  0  0
  149.2022  139.6195  154.1472 N   0  0  0  0  0  0  0  0  0  0  0  0
  149.3264  140.9667  154.4960 C   0  0  0  0  0  0  0  0  0  0  0  0
  148.1519  141.6703  154.3963 C   0  0  0  0  0  0  0  0  0  0  0  0
  146.8353  140.6632  153.8558 S   0  0  0  0  0  0  0  0  0  0  0  0
  146.4999  133.1012  150.2456 C   0  0  0  0  0  0  0  0  0  0  0  0
  145.8864  131.6987  150.4606 C   0  0  0  0  0  0  0  0  0  0  0  0
  146.6278  127.6929  152.6244 H   0  0  0  0  0  0  0  0  0  0  0  0
  147.5608  129.0393  153.2668 H   0  0  0  0  0  0  0  0  0  0  0  0
  147.8743  128.4345  151.6384 H   0  0  0  0  0  0  0  0  0  0  0  0
  145.5818  129.2178  150.9087 H   0  0  0  0  0  0  0  0  0  0  0  0
  145.2421  129.7047  152.5522 H   0  0  0  0  0  0  0  0  0  0  0  0
  145.6781  131.8936  153.2259 H   0  0  0  0  0  0  0  0  0  0  0  0
  147.2963  131.2977  153.5067 H   0  0  0  0  0  0  0  0  0  0  0  0
  147.4113  133.7642  153.3666 H   0  0  0  0  0  0  0  0  0  0  0  0
  148.2773  133.0535  152.0583 H   0  0  0  0  0  0  0  0  0  0  0  0
  144.5704  133.4235  152.2430 H   0  0  0  0  0  0  0  0  0  0  0  0
  143.3434  135.2962  151.0423 H   0  0  0  0  0  0  0  0  0  0  0  0
  144.1015  134.1860  149.9488 H   0  0  0  0  0  0  0  0  0  0  0  0
  144.8557  135.7486  150.2723 H   0  0  0  0  0  0  0  0  0  0  0  0
  144.2627  135.9507  153.1244 H   0  0  0  0  0  0  0  0  0  0  0  0
  145.1618  134.7682  154.0452 H   0  0  0  0  0  0  0  0  0  0  0  0
  147.1141  135.8621  152.5571 H   0  0  0  0  0  0  0  0  0  0  0  0
  148.2154  137.4759  152.8709 H   0  0  0  0  0  0  0  0  0  0  0  0
  150.2904  141.3426  154.8056 H   0  0  0  0  0  0  0  0  0  0  0  0
  147.9828  142.7156  154.6078 H   0  0  0  0  0  0  0  0  0  0  0  0
  146.0099  133.6083  149.4167 H   0  0  0  0  0  0  0  0  0  0  0  0
  147.5388  132.9929  149.9301 H   0  0  0  0  0  0  0  0  0  0  0  0
  145.9714  131.1400  149.5292 H   0  0  0  0  0  0  0  0  0  0  0  0
  144.8206  131.7628  150.6810 H   0  0  0  0  0  0  0  0  0  0  0  0
  147.5485  130.8417  151.2375 H   0  0  0  0  0  0  0  0  0  0  0  0
  1  2  1  0  0  0  0
  1 21  1  0  0  0  0
  1 22  1  0  0  0  0
  1 23  1  0  0  0  0
  2  3  1  0  0  0  0
  2 24  1  0  0  0  0
  2 25  1  0  0  0  0
  3 20  1  0  0  0  0
  3  4  1  0  0  0  0
  3 44  1  0  0  0  0
  4  5  1  0  0  0  0
  4 26  1  0  0  0  0
  4 27  1  0  0  0  0
  5  6  1  0  0  0  0
  5 28  1  0  0  0  0
  5 29  1  0  0  0  0
  6  7  1  0  0  0  0
  6 19  1  0  0  0  0
  7  8  1  0  0  0  0
  7  9  1  0  0  0  0
  7 30  1  0  0  0  0
  8 31  1  0  0  0  0
  8 32  1  0  0  0  0
  8 33  1  0  0  0  0
  9 10  1  0  0  0  0
  9 34  1  0  0  0  0
  9 35  1  0  0  0  0
 10 11  1  0  0  0  0
 10 36  1  0  0  0  0
 11 12  2  0  0  0  0
 11 13  1  0  0  0  0
 13 14  1  0  0  0  0
 13 37  1  0  0  0  0
 14 18  1  0  0  0  0
 14 15  2  0  0  0  0
 15 16  1  0  0  0  0
 16 17  2  0  0  0  0
 16 38  1  0  0  0  0
 17 18  1  0  0  0  0
 17 39  1  0  0  0  0
 19 20  1  0  0  0  0
 19 40  1  0  0  0  0
 19 41  1  0  0  0  0
 20 42  1  0  0  0  0
 20 43  1  0  0  0  0
M  CHG  1   3   1
M  END
> <s_m_source_file>
AV-unprocessed.smi

> <i_m_source_file_index>
1971

> <i_lp_mmshare_version>
43012

> <i_f3d_flags>
0

> <s_epik_input>
W0NIM11bQ0gyXU4xW0NIMl1bQ0gyXU4oW0NIMl1bQ0gyXTEpW0NASF0oW0NIM10pW0NIMl1bTkhdQyg9TylbTkhdYzJuW2NIXVtjSF1zMg==

> <s_epik_cmdline>
J2VwaWtfcHl0aG9uJywgJy1waCcsICc3LjAnLCAnLXRuJywgJzgnLCAnLW1hJywgJzIwMCcsICctbWV0YWxfYmluZGluZycsICctaW1hZScsICc8aW5maWxlLm1hZT4nLCAnLW9tYWUnLCAnPG91dGZpbGUubWFlPic=

> <r_lp_tautomer_probability>
0.999

> <r_epik_Ionization_Penalty>
0.0459519

> <r_epik_Ionization_Penalty_Charging>
0.0451959

> <r_epik_Ionization_Penalty_Neutral>
0.000756076

> <r_epik_State_Penalty>
0.165541

> <r_epik_Charging_Adjusted_Penalty>
0.210737

> <i_epik_Tot_Q>
1

> <i_epik_Tot_abs_Q>
1

> <r_epik_Metal_State_Penalty>
0.198809

> <b_epik_Metal_Only>
0

> <s_lp_Force_Field>
OPLS_2005

> <r_lp_Energy>
18.3118

> <b_lp_Chiralities_Consistent>
1

> <s_lp_Variant>
AV-unprocessed.smi:1971-1

> <Gold.Version>
5.8.1

> <Gold.Id.Protein>
6NUR|6NUR_protein|mol2

> <Gold.PLP.Fitness>
42.9330

> <Gold.PLP.PLP>
-33.1177

> <Gold.PLP.part.hbond>
-3.0000

> <Gold.PLP.part.metal>
0.0000

> <Gold.PLP.part.buried>
-3.5414

> <Gold.PLP.part.nonpolar>
-26.6139

> <Gold.PLP.part.repulsive>
1.3482

> <Gold.PLP.ligand.clash>
0.0000

> <Gold.PLP.ligand.torsion>
1.1010

> <Gold.PLP.Chemscore.Hbond>
2.9920

> <Gold.PLP.Chemscore.CHOScore>
1.0000

> <Gold.PLP.Chemscore.Metal>
0.0000

> <Gold.Chemscore.Hbonds>
donor molecule, donor type, donor heavy atom, donor atom, acceptor molecule, acceptor atom, score
      L1  H     3    44       P1 10747  1.00
      L1  H    10    36       P1  7948  0.98
      L1  H    13    37       P1  7948  1.00
      L1  C    17    39       P1  8028  1.00

> <Gold.PLP.Chemscore.Internal.Correction>
0.0412

> <Gold.Rescore>
     Score         DG    S(hbond)    S(metal)    S(lipo)     H(rot)  DE(clash)    DE(int)     intcor
     18.80     -20.03       2.95        0.00      79.41       1.79       0.04       1.20       ----

> <Gold.Chemscore.Fitness>
18.7956

> <Gold.Chemscore.DG>
-20.0303

> <Gold.Chemscore.ZeroCoef>
-5.4800

> <Gold.Chemscore.Hbond>
2.9494

> <Gold.Chemscore.Metal>
0.0000

> <Gold.Chemscore.Lipo>
79.4135

> <Gold.Chemscore.Internal_Hbond>
0.0000

> <Gold.Chemscore.DEClash>
0.0370

> <Gold.Chemscore.DEInternal>
1.1977

> <Gold.Chemscore.Rot>
1.7937

> <Gold.Chemscore.Internal.Correction>
   9.000000E+99

> <Gold.Chemscore.Hbonds>
donor molecule, donor type, donor heavy atom, donor atom, acceptor molecule, acceptor atom, score
      L1  H     3    44       P1 10747  1.00
      L1  H    10    36       P1  7948  0.91
      L1  H    13    37       P1  7948  1.00

> <Gold.Chemscore.Hbond.Weighted>
-9.8509

> <Gold.Chemscore.Metal.Weighted>
-0.0000

> <Gold.Chemscore.Lipo.Weighted>
-9.2914

> <Gold.Chemscore.Internal_Hbond.Weighted>
0.0000

> <Gold.Chemscore.DEClash.Weighted>
0.0370

> <Gold.Chemscore.DEInternal.Weighted>
1.1977

> <Gold.Chemscore.Rot.Weighted>
4.5919

> <Gold.Chemscore.Internal.Correction.Weighted>
   9.000000E+99

> <Gold.Protein.RotatedTorsions>
[ 6907 6896 6895 6894 ] final  -52.55 input  -60.11 | X-H torsion
[ 7974 7965 7964 7962 ] final  159.02 input  175.53 | X-H torsion
[ 8008 7997 7996 7995 ] final -160.65 input   59.86 | X-H torsion
[ 10167 10162 10161 10158 ] final  152.08 input  -65.29 | X-H torsion
[ 10718 10713 10712 10709 ] final  -41.39 input   66.30 | X-H torsion
[ 10763 10752 10751 10750 ] final -162.55 input  -60.55 | X-H torsion
[ 11005 11000 10999 10996 ] final  -24.46 input  -57.11 | X-H torsion

> <Gold.Protein.ActiveResidues>
 VAL166  LYS551  ARG553  GLY616  TRP617  ASP618  TYR619  PRO620  LYS621  CYS622 
 ASP623  PHE694  ASN695  SER759  ASP760  ASP761  ALA762  ILE779  LEU786  VAL792 
 PHE793  MET794  SER795  GLU796  ALA797  LYS798  CYS799  TRP800  GLU811  SER814 

> <Gold.Protein.RotatedAtoms>
  150.8507  134.7831  159.7006 H   0  0  0  0  0  0  0  0  0  0  0  0  # atno 6907 bound_to 6896
  152.4573  134.5260  159.9807 H   0  0  0  0  0  0  0  0  0  0  0  0  # atno 6908 bound_to 6896
  151.5382  133.3399  159.2966 H   0  0  0  0  0  0  0  0  0  0  0  0  # atno 6909 bound_to 6896
  144.7813  139.7559  143.6258 H   0  0  0  0  0  0  0  0  0  0  0  0  # atno 7974 bound_to 7965
  155.7806  140.0864  157.2061 H   0  0  0  0  0  0  0  0  0  0  0  0  # atno 8008 bound_to 7997
  154.3990  140.1508  156.3106 H   0  0  0  0  0  0  0  0  0  0  0  0  # atno 8009 bound_to 7997
  155.8657  140.3428  155.5789 H   0  0  0  0  0  0  0  0  0  0  0  0  # atno 8010 bound_to 7997
  139.4835  144.5387  151.7600 H   0  0  0  0  0  0  0  0  0  0  0  0  # atno 10167 bound_to 10162
  156.2709  130.4206  149.8439 H   0  0  0  0  0  0  0  0  0  0  0  0  # atno 10718 bound_to 10713
  154.7204  135.3024  154.9057 H   0  0  0  0  0  0  0  0  0  0  0  0  # atno 10763 bound_to 10752
  153.9931  135.6716  153.4759 H   0  0  0  0  0  0  0  0  0  0  0  0  # atno 10764 bound_to 10752
  153.0829  135.4999  154.8455 H   0  0  0  0  0  0  0  0  0  0  0  0  # atno 10765 bound_to 10752
  140.8848  133.7629  156.0346 H   0  0  0  0  0  0  0  0  0  0  0  0  # atno 11005 bound_to 11000
  146.2023  139.5325  142.9735 LP  0  0  0  0  0  0  0  0  0  0  0  0  # atno 17320 bound_to 7965
  145.6042  141.0350  143.2002 LP  0  0  0  0  0  0  0  0  0  0  0  0  # atno 17321 bound_to 7965
  140.4924  144.1291  150.5953 LP  0  0  0  0  0  0  0  0  0  0  0  0  # atno 17342 bound_to 10162
  140.4156  143.2636  151.9779 LP  0  0  0  0  0  0  0  0  0  0  0  0  # atno 17343 bound_to 10162
  156.5920  130.8510  151.3410 LP  0  0  0  0  0  0  0  0  0  0  0  0  # atno 17370 bound_to 10713
  157.7283  130.9655  150.1738 LP  0  0  0  0  0  0  0  0  0  0  0  0  # atno 17371 bound_to 10713
  140.8418  134.3057  157.5310 LP  0  0  0  0  0  0  0  0  0  0  0  0  # atno 17394 bound_to 11000
  139.8723  134.9420  156.3813 LP  0  0  0  0  0  0  0  0  0  0  0  0  # atno 17395 bound_to 11000

$$$$
