AV-unprocessed.smi:2147|AV-procd|sdf|8742|dock9
  -GOLD-   2272011513D 1   1.00000     0.00000
 Structure written by MMmdl.
 41 43  0  0  0  0  0  0  0  0  1 V2000
  153.8583  131.7979  165.2629 C   0  0  0  0  0  0  0  0  0  0  0  0
  154.5310  132.3137  163.9918 C   0  0  0  0  0  0  0  0  0  0  0  0
  154.8790  131.5009  163.1359 O   0  0  0  0  0  0  0  0  0  0  0  0
  154.7308  133.7849  163.8585 C   0  0  0  0  0  0  0  0  0  0  0  0
  154.4010  134.6808  164.9017 C   0  0  0  0  0  0  0  0  0  0  0  0
  154.6047  136.0653  164.7446 C   0  0  0  0  0  0  0  0  0  0  0  0
  155.1390  136.5885  163.5508 C   0  0  0  0  0  0  0  0  0  0  0  0
  155.3079  137.9548  163.4843 O   0  0  0  0  0  0  0  0  0  0  0  0
  155.7580  138.5172  162.2585 C   0  0  0  0  0  0  0  0  0  0  0  0
  155.9280  140.0334  162.4325 C   0  0  2  0  0  0  0  0  0  0  0  0
  156.6332  140.2648  163.6360 O   0  0  0  0  0  0  0  0  0  0  0  0
  154.5779  140.7763  162.4647 C   0  0  0  0  0  0  0  0  0  0  0  0
  154.0143  140.9667  161.1399 N   0  0  0  0  0  0  0  0  0  0  0  0
  154.1917  140.1768  160.0634 C   0  0  0  0  0  0  0  0  0  0  0  0
  153.5789  140.5335  158.9382 N   0  0  0  0  0  0  0  0  0  0  0  0
  152.9255  141.6894  159.3301 C   0  0  0  0  0  0  0  0  0  0  0  0
  152.0907  142.5643  158.5985 C   0  0  0  0  0  0  0  0  0  0  0  0
  151.5285  143.6999  159.2182 C   0  0  0  0  0  0  0  0  0  0  0  0
  151.7929  143.9790  160.5749 C   0  0  0  0  0  0  0  0  0  0  0  0
  152.6215  143.1220  161.3242 C   0  0  0  0  0  0  0  0  0  0  0  0
  153.1785  141.9887  160.7030 C   0  0  0  0  0  0  0  0  0  0  0  0
  155.4670  135.6925  162.5040 C   0  0  0  0  0  0  0  0  0  0  0  0
  155.2649  134.3075  162.6594 C   0  0  0  0  0  0  0  0  0  0  0  0
  154.4435  132.0681  166.1421 H   0  0  0  0  0  0  0  0  0  0  0  0
  153.7699  130.7116  165.2335 H   0  0  0  0  0  0  0  0  0  0  0  0
  152.8576  132.2180  165.3636 H   0  0  0  0  0  0  0  0  0  0  0  0
  153.9897  134.3284  165.8358 H   0  0  0  0  0  0  0  0  0  0  0  0
  154.3479  136.7346  165.5527 H   0  0  0  0  0  0  0  0  0  0  0  0
  156.7049  138.0697  161.9512 H   0  0  0  0  0  0  0  0  0  0  0  0
  155.0203  138.3179  161.4790 H   0  0  0  0  0  0  0  0  0  0  0  0
  156.5384  140.4195  161.6151 H   0  0  0  0  0  0  0  0  0  0  0  0
  156.9997  141.1356  163.6056 H   0  0  0  0  0  0  0  0  0  0  0  0
  153.8555  140.2203  163.0637 H   0  0  0  0  0  0  0  0  0  0  0  0
  154.6885  141.7516  162.9404 H   0  0  0  0  0  0  0  0  0  0  0  0
  154.8062  139.2894  160.1087 H   0  0  0  0  0  0  0  0  0  0  0  0
  151.8820  142.3612  157.5585 H   0  0  0  0  0  0  0  0  0  0  0  0
  150.8912  144.3609  158.6492 H   0  0  0  0  0  0  0  0  0  0  0  0
  151.3591  144.8520  161.0402 H   0  0  0  0  0  0  0  0  0  0  0  0
  152.8279  143.3338  162.3630 H   0  0  0  0  0  0  0  0  0  0  0  0
  155.8763  136.0414  161.5682 H   0  0  0  0  0  0  0  0  0  0  0  0
  155.5272  133.6506  161.8426 H   0  0  0  0  0  0  0  0  0  0  0  0
  1  2  1  0  0  0  0
  1 24  1  0  0  0  0
  1 25  1  0  0  0  0
  1 26  1  0  0  0  0
  2  3  2  0  0  0  0
  2  4  1  0  0  0  0
  4 23  1  0  0  0  0
  4  5  2  0  0  0  0
  5  6  1  0  0  0  0
  5 27  1  0  0  0  0
  6  7  2  0  0  0  0
  6 28  1  0  0  0  0
  7  8  1  0  0  0  0
  7 22  1  0  0  0  0
  8  9  1  0  0  0  0
  9 10  1  0  0  0  0
  9 29  1  0  0  0  0
  9 30  1  0  0  0  0
 10 11  1  0  0  0  0
 10 12  1  0  0  0  0
 10 31  1  0  0  0  0
 11 32  1  0  0  0  0
 12 13  1  0  0  0  0
 12 33  1  0  0  0  0
 12 34  1  0  0  0  0
 13 21  1  0  0  0  0
 13 14  1  0  0  0  0
 14 15  2  0  0  0  0
 14 35  1  0  0  0  0
 15 16  1  0  0  0  0
 16 21  2  0  0  0  0
 16 17  1  0  0  0  0
 17 18  2  0  0  0  0
 17 36  1  0  0  0  0
 18 19  1  0  0  0  0
 18 37  1  0  0  0  0
 19 20  2  0  0  0  0
 19 38  1  0  0  0  0
 20 21  1  0  0  0  0
 20 39  1  0  0  0  0
 22 23  2  0  0  0  0
 22 40  1  0  0  0  0
 23 41  1  0  0  0  0
M  END
> <s_m_source_file>
AV-unprocessed.smi

> <i_m_source_file_index>
2147

> <i_lp_mmshare_version>
43012

> <i_f3d_flags>
0

> <s_epik_input>
W0NIM11DKD1PKWMxW2NIXVtjSF1jKFtjSF1bY0hdMSlPW0NIMl1bQ0BIXShbT0hdKVtDSDJdbihbY0hdbjIpYyhjMjMpW2NIXVtjSF1bY0hdW2NIXTM=

> <s_epik_cmdline>
J2VwaWtfcHl0aG9uJywgJy1waCcsICc3LjAnLCAnLXRuJywgJzgnLCAnLW1hJywgJzIwMCcsICctbWV0YWxfYmluZGluZycsICctaW1hZScsICc8aW5maWxlLm1hZT4nLCAnLW9tYWUnLCAnPG91dGZpbGUubWFlPic=

> <r_lp_tautomer_probability>
0.99995

> <r_epik_Ionization_Penalty>
0.0583018

> <r_epik_Ionization_Penalty_Charging>
0

> <r_epik_Ionization_Penalty_Neutral>
0.0583018

> <r_epik_State_Penalty>
0.0504087

> <r_epik_Charging_Adjusted_Penalty>
0.0504087

> <i_epik_Tot_Q>
0

> <i_epik_Tot_abs_Q>
0

> <r_epik_Metal_State_Penalty>
5.26129e-05

> <b_epik_Metal_Only>
0

> <s_lp_Force_Field>
OPLS_2005

> <r_lp_Energy>
19.9149

> <b_lp_Chiralities_Consistent>
1

> <s_lp_Variant>
AV-unprocessed.smi:2147-1

> <Gold.Version>
5.8.1

> <Gold.Id.Protein>
6NUR|6NUR_protein|mol2

> <Gold.PLP.Fitness>
48.6378

> <Gold.PLP.PLP>
-48.5650

> <Gold.PLP.part.hbond>
-1.1065

> <Gold.PLP.part.metal>
0.0000

> <Gold.PLP.part.buried>
-0.6917

> <Gold.PLP.part.nonpolar>
-45.5558

> <Gold.PLP.part.repulsive>
0.0020

> <Gold.PLP.ligand.clash>
0.0000

> <Gold.PLP.ligand.torsion>
0.6756

> <Gold.PLP.Chemscore.Hbond>
0.4584

> <Gold.PLP.Chemscore.CHOScore>
0.0000

> <Gold.PLP.Chemscore.Metal>
0.0000

> <Gold.Chemscore.Hbonds>
donor molecule, donor type, donor heavy atom, donor atom, acceptor molecule, acceptor atom, score
      P1  H  7997  8010       L1    15  0.50

> <Gold.PLP.Chemscore.Internal.Correction>
0.0489

> <Gold.Rescore>
     Score         DG    S(hbond)    S(metal)    S(lipo)     H(rot)  DE(clash)    DE(int)     intcor
     17.18     -18.08       0.84        0.00     136.06       2.40       0.25       0.64       ----

> <Gold.Chemscore.Fitness>
17.1803

> <Gold.Chemscore.DG>
-18.0756

> <Gold.Chemscore.ZeroCoef>
-5.4800

> <Gold.Chemscore.Hbond>
0.8447

> <Gold.Chemscore.Metal>
0.0000

> <Gold.Chemscore.Lipo>
136.0638

> <Gold.Chemscore.Internal_Hbond>
0.0000

> <Gold.Chemscore.DEClash>
0.2516

> <Gold.Chemscore.DEInternal>
0.6437

> <Gold.Chemscore.Rot>
2.4005

> <Gold.Chemscore.Internal.Correction>
   9.000000E+99

> <Gold.Chemscore.Hbonds>
donor molecule, donor type, donor heavy atom, donor atom, acceptor molecule, acceptor atom, score
      P1  H  7997  8010       L1    15  0.39

> <Gold.Chemscore.Hbond.Weighted>
-2.8214

> <Gold.Chemscore.Metal.Weighted>
-0.0000

> <Gold.Chemscore.Lipo.Weighted>
-15.9195

> <Gold.Chemscore.Internal_Hbond.Weighted>
0.0000

> <Gold.Chemscore.DEClash.Weighted>
0.2516

> <Gold.Chemscore.DEInternal.Weighted>
0.6437

> <Gold.Chemscore.Rot.Weighted>
6.1453

> <Gold.Chemscore.Internal.Correction.Weighted>
   9.000000E+99

> <Gold.Protein.RotatedTorsions>
[ 6907 6896 6895 6894 ] final   64.33 input  -60.11 | X-H torsion
[ 7974 7965 7964 7962 ] final   19.44 input  175.53 | X-H torsion
[ 8008 7997 7996 7995 ] final   19.53 input   59.86 | X-H torsion
[ 10167 10162 10161 10158 ] final  -16.28 input  -65.29 | X-H torsion
[ 10718 10713 10712 10709 ] final  135.62 input   66.30 | X-H torsion
[ 10763 10752 10751 10750 ] final   73.66 input  -60.55 | X-H torsion
[ 11005 11000 10999 10996 ] final  -81.73 input  -57.11 | X-H torsion

> <Gold.Protein.ActiveResidues>
 VAL166  LYS551  ARG553  GLY616  TRP617  ASP618  TYR619  PRO620  LYS621  CYS622 
 ASP623  PHE694  ASN695  SER759  ASP760  ASP761  ALA762  ILE779  LEU786  VAL792 
 PHE793  MET794  SER795  GLU796  ALA797  LYS798  CYS799  TRP800  GLU811  SER814 

> <Gold.Protein.RotatedAtoms>
  152.4323  134.5753  159.9932 H   0  0  0  0  0  0  0  0  0  0  0  0  # atno 6907 bound_to 6896
  151.5873  133.3365  159.3028 H   0  0  0  0  0  0  0  0  0  0  0  0  # atno 6908 bound_to 6896
  150.8217  134.7464  159.6843 H   0  0  0  0  0  0  0  0  0  0  0  0  # atno 6909 bound_to 6896
  146.2149  139.8312  142.8659 H   0  0  0  0  0  0  0  0  0  0  0  0  # atno 7974 bound_to 7965
  154.9221  140.3029  155.5211 H   0  0  0  0  0  0  0  0  0  0  0  0  # atno 8008 bound_to 7997
  156.3009  140.2369  156.4208 H   0  0  0  0  0  0  0  0  0  0  0  0  # atno 8009 bound_to 7997
  154.8320  140.0418  157.1472 H   0  0  0  0  0  0  0  0  0  0  0  0  # atno 8010 bound_to 7997
  140.7231  143.5132  150.9724 H   0  0  0  0  0  0  0  0  0  0  0  0  # atno 10167 bound_to 10162
  157.4551  131.1069  150.9987 H   0  0  0  0  0  0  0  0  0  0  0  0  # atno 10718 bound_to 10713
  153.0536  135.5054  154.7927 H   0  0  0  0  0  0  0  0  0  0  0  0  # atno 10763 bound_to 10752
  154.6770  135.2962  154.9667 H   0  0  0  0  0  0  0  0  0  0  0  0  # atno 10764 bound_to 10752
  154.0466  135.6709  153.4848 H   0  0  0  0  0  0  0  0  0  0  0  0  # atno 10765 bound_to 10752
  141.1665  133.7210  156.8466 H   0  0  0  0  0  0  0  0  0  0  0  0  # atno 11005 bound_to 11000
  145.2995  141.0190  143.3617 LP  0  0  0  0  0  0  0  0  0  0  0  0  # atno 17320 bound_to 7965
  144.9017  139.4641  143.6629 LP  0  0  0  0  0  0  0  0  0  0  0  0  # atno 17321 bound_to 7965
  139.8846  143.7029  152.3153 LP  0  0  0  0  0  0  0  0  0  0  0  0  # atno 17342 bound_to 10162
  139.7323  144.7579  151.0782 LP  0  0  0  0  0  0  0  0  0  0  0  0  # atno 17343 bound_to 10162
  157.0803  130.5900  149.5419 LP  0  0  0  0  0  0  0  0  0  0  0  0  # atno 17370 bound_to 10713
  156.0004  130.5082  150.7640 LP  0  0  0  0  0  0  0  0  0  0  0  0  # atno 17371 bound_to 10713
  140.1945  134.8941  157.3099 LP  0  0  0  0  0  0  0  0  0  0  0  0  # atno 17394 bound_to 11000
  140.2254  134.3973  155.7546 LP  0  0  0  0  0  0  0  0  0  0  0  0  # atno 17395 bound_to 11000

$$$$
