AV-unprocessed.smi:1848|AV-procd|sdf|7519|dock9
  -GOLD-   22720 9223D 1   1.00000     0.00000
 Structure written by MMmdl.
 31 31  0  0  0  0  0  0  0  0  1 V2000
  152.7686  143.3373  162.3792 C   0  0  0  0  0  0  0  0  0  0  0  0
  152.9649  142.5451  161.4709 C   0  0  0  0  0  0  0  0  0  0  0  0
  153.2153  141.5987  160.3704 C   0  0  0  0  0  0  0  0  0  0  0  0
  152.7200  142.0830  159.0869 N   0  0  0  0  0  0  0  0  0  0  0  0
  151.7973  141.4702  158.3285 C   0  0  0  0  0  0  0  0  0  0  0  0
  151.2692  140.4020  158.6406 O   0  0  0  0  0  0  0  0  0  0  0  0
  151.4421  142.1684  157.0079 C   0  0  0  0  0  0  0  0  0  0  0  0
  150.8094  141.2704  156.0267 N   0  0  0  0  0  0  0  0  0  0  0  0
  149.5805  141.6868  155.4766 C   0  0  0  0  0  0  0  0  0  0  0  0
  148.9123  140.9474  154.5636 C   0  0  0  0  0  0  0  0  0  0  0  0
  147.6376  141.3553  153.9657 C   0  0  0  0  0  0  0  0  0  0  0  0
  146.9288  140.6181  153.2790 O   0  0  0  0  0  0  0  0  0  0  0  0
  147.2861  142.6267  154.2254 N   0  0  0  0  0  0  0  0  0  0  0  0
  146.0698  143.2617  153.7411 C   0  0  0  0  0  0  0  0  0  0  0  0
  149.5098  139.6878  154.1636 C   0  0  0  0  0  0  0  0  0  0  0  0
  150.6872  139.2871  154.6815 C   0  0  0  0  0  0  0  0  0  0  0  0
  151.4107  140.0963  155.6658 C   0  0  0  0  0  0  0  0  0  0  0  0
  152.4910  139.7404  156.1372 O   0  0  0  0  0  0  0  0  0  0  0  0
  152.6014  144.0292  163.1739 H   0  0  0  0  0  0  0  0  0  0  0  0
  154.2846  141.3854  160.3284 H   0  0  0  0  0  0  0  0  0  0  0  0
  152.7116  140.6627  160.6118 H   0  0  0  0  0  0  0  0  0  0  0  0
  153.1069  142.9529  158.7506 H   0  0  0  0  0  0  0  0  0  0  0  0
  150.7925  143.0216  157.2127 H   0  0  0  0  0  0  0  0  0  0  0  0
  152.3551  142.6012  156.5968 H   0  0  0  0  0  0  0  0  0  0  0  0
  149.2417  142.6438  155.8468 H   0  0  0  0  0  0  0  0  0  0  0  0
  147.9055  143.1876  154.7921 H   0  0  0  0  0  0  0  0  0  0  0  0
  146.0265  144.2941  154.0876 H   0  0  0  0  0  0  0  0  0  0  0  0
  145.1858  142.7403  154.1104 H   0  0  0  0  0  0  0  0  0  0  0  0
  146.0421  143.2668  152.6507 H   0  0  0  0  0  0  0  0  0  0  0  0
  149.0168  139.0539  153.4404 H   0  0  0  0  0  0  0  0  0  0  0  0
  151.1104  138.3455  154.3640 H   0  0  0  0  0  0  0  0  0  0  0  0
  1  2  3  0  0  0  0
  1 19  1  0  0  0  0
  2  3  1  0  0  0  0
  3  4  1  0  0  0  0
  3 20  1  0  0  0  0
  3 21  1  0  0  0  0
  4  5  1  0  0  0  0
  4 22  1  0  0  0  0
  5  6  2  0  0  0  0
  5  7  1  0  0  0  0
  7  8  1  0  0  0  0
  7 23  1  0  0  0  0
  7 24  1  0  0  0  0
  8 17  1  0  0  0  0
  8  9  1  0  0  0  0
  9 10  2  0  0  0  0
  9 25  1  0  0  0  0
 10 11  1  0  0  0  0
 10 15  1  0  0  0  0
 11 12  2  0  0  0  0
 11 13  1  0  0  0  0
 13 14  1  0  0  0  0
 13 26  1  0  0  0  0
 14 27  1  0  0  0  0
 14 28  1  0  0  0  0
 14 29  1  0  0  0  0
 15 16  2  0  0  0  0
 15 30  1  0  0  0  0
 16 17  1  0  0  0  0
 16 31  1  0  0  0  0
 17 18  2  0  0  0  0
M  END
> <s_m_source_file>
AV-unprocessed.smi

> <i_m_source_file_index>
1848

> <i_lp_mmshare_version>
43012

> <i_f3d_flags>
0

> <s_epik_input>
W0NIXSNDW0NIMl1bTkhdQyg9TylbQ0gyXW4xW2NIXWMoQyg9TylbTkhdW0NIM10pW2NIXVtjSF1jMT1P

> <s_epik_cmdline>
J2VwaWtfcHl0aG9uJywgJy1waCcsICc3LjAnLCAnLXRuJywgJzgnLCAnLW1hJywgJzIwMCcsICctbWV0YWxfYmluZGluZycsICctaW1hZScsICc8aW5maWxlLm1hZT4nLCAnLW9tYWUnLCAnPG91dGZpbGUubWFlPic=

> <r_lp_tautomer_probability>
1

> <r_epik_Ionization_Penalty>
5.04952e-07

> <r_epik_Ionization_Penalty_Charging>
3.86163e-08

> <r_epik_Ionization_Penalty_Neutral>
4.66336e-07

> <r_epik_State_Penalty>
-0

> <r_epik_Charging_Adjusted_Penalty>
3.86163e-08

> <i_epik_Tot_Q>
0

> <i_epik_Tot_abs_Q>
0

> <r_epik_Metal_State_Penalty>
-0

> <b_epik_Metal_Only>
0

> <s_lp_Force_Field>
OPLS_2005

> <r_lp_Energy>
14.316

> <b_lp_Chiralities_Consistent>
1

> <s_lp_Variant>
AV-unprocessed.smi:1848-1

> <Gold.Version>
5.8.1

> <Gold.Id.Protein>
6NUR|6NUR_protein|mol2

> <Gold.PLP.Fitness>
50.4151

> <Gold.PLP.PLP>
-42.1346

> <Gold.PLP.part.hbond>
-2.0000

> <Gold.PLP.part.metal>
0.0000

> <Gold.PLP.part.buried>
-3.6745

> <Gold.PLP.part.nonpolar>
-35.9263

> <Gold.PLP.part.repulsive>
0.4140

> <Gold.PLP.ligand.clash>
0.0000

> <Gold.PLP.ligand.torsion>
0.3621

> <Gold.PLP.Chemscore.Hbond>
2.0000

> <Gold.PLP.Chemscore.CHOScore>
1.0000

> <Gold.PLP.Chemscore.Metal>
0.0000

> <Gold.Chemscore.Hbonds>
donor molecule, donor type, donor heavy atom, donor atom, acceptor molecule, acceptor atom, score
      L1  H    13    26       P1  8028  1.00
      P1  H  7997  8008       L1    18  1.00
      L1  C     9    25       P1  8028  1.00

> <Gold.PLP.Chemscore.Internal.Correction>
0.0046

> <Gold.Rescore>
     Score         DG    S(hbond)    S(metal)    S(lipo)     H(rot)  DE(clash)    DE(int)     intcor
     15.60     -16.75       1.86        0.00      78.67       1.62       0.14       1.02       ----

> <Gold.Chemscore.Fitness>
15.5974

> <Gold.Chemscore.DG>
-16.7530

> <Gold.Chemscore.ZeroCoef>
-5.4800

> <Gold.Chemscore.Hbond>
1.8635

> <Gold.Chemscore.Metal>
0.0000

> <Gold.Chemscore.Lipo>
78.6719

> <Gold.Chemscore.Internal_Hbond>
0.0000

> <Gold.Chemscore.DEClash>
0.1357

> <Gold.Chemscore.DEInternal>
1.0200

> <Gold.Chemscore.Rot>
1.6233

> <Gold.Chemscore.Internal.Correction>
   9.000000E+99

> <Gold.Chemscore.Hbonds>
donor molecule, donor type, donor heavy atom, donor atom, acceptor molecule, acceptor atom, score
      L1  H    13    26       P1  8028  0.80
      P1  H  7997  8008       L1    18  0.99

> <Gold.Chemscore.Hbond.Weighted>
-6.2241

> <Gold.Chemscore.Metal.Weighted>
-0.0000

> <Gold.Chemscore.Lipo.Weighted>
-9.2046

> <Gold.Chemscore.Internal_Hbond.Weighted>
0.0000

> <Gold.Chemscore.DEClash.Weighted>
0.1357

> <Gold.Chemscore.DEInternal.Weighted>
1.0200

> <Gold.Chemscore.Rot.Weighted>
4.1557

> <Gold.Chemscore.Internal.Correction.Weighted>
   9.000000E+99

> <Gold.Protein.RotatedTorsions>
[ 6907 6896 6895 6894 ] final  -84.31 input  -60.11 | X-H torsion
[ 7974 7965 7964 7962 ] final   -8.64 input  175.53 | X-H torsion
[ 8008 7997 7996 7995 ] final  -28.89 input   59.86 | X-H torsion
[ 10167 10162 10161 10158 ] final  179.48 input  -65.29 | X-H torsion
[ 10718 10713 10712 10709 ] final   71.26 input   66.30 | X-H torsion
[ 10763 10752 10751 10750 ] final  121.66 input  -60.55 | X-H torsion
[ 11005 11000 10999 10996 ] final  -78.28 input  -57.11 | X-H torsion

> <Gold.Protein.ActiveResidues>
 VAL166  LYS551  ARG553  GLY616  TRP617  ASP618  TYR619  PRO620  LYS621  CYS622 
 ASP623  PHE694  ASN695  SER759  ASP760  ASP761  ALA762  ILE779  LEU786  VAL792 
 PHE793  MET794  SER795  GLU796  ALA797  LYS798  CYS799  TRP800  GLU811  SER814 

> <Gold.Protein.RotatedAtoms>
  150.6877  134.3378  159.4854 H   0  0  0  0  0  0  0  0  0  0  0  0  # atno 6907 bound_to 6896
  152.1235  134.9185  160.0571 H   0  0  0  0  0  0  0  0  0  0  0  0  # atno 6908 bound_to 6896
  152.0382  133.3931  159.4363 H   0  0  0  0  0  0  0  0  0  0  0  0  # atno 6909 bound_to 6896
  146.2274  140.2498  142.8347 H   0  0  0  0  0  0  0  0  0  0  0  0  # atno 7974 bound_to 7965
  154.4313  140.1833  156.1162 H   0  0  0  0  0  0  0  0  0  0  0  0  # atno 8008 bound_to 7997
  156.0179  140.3344  155.6983 H   0  0  0  0  0  0  0  0  0  0  0  0  # atno 8009 bound_to 7997
  155.6018  140.0641  157.2721 H   0  0  0  0  0  0  0  0  0  0  0  0  # atno 8010 bound_to 7997
  139.5338  144.2556  152.0749 H   0  0  0  0  0  0  0  0  0  0  0  0  # atno 10167 bound_to 10162
  157.6442  130.9519  150.0764 H   0  0  0  0  0  0  0  0  0  0  0  0  # atno 10718 bound_to 10713
  153.6176  135.3419  155.3000 H   0  0  0  0  0  0  0  0  0  0  0  0  # atno 10763 bound_to 10752
  154.8606  135.4265  154.2242 H   0  0  0  0  0  0  0  0  0  0  0  0  # atno 10764 bound_to 10752
  153.3107  135.7031  153.7190 H   0  0  0  0  0  0  0  0  0  0  0  0  # atno 10765 bound_to 10752
  141.1664  133.7057  156.7948 H   0  0  0  0  0  0  0  0  0  0  0  0  # atno 11005 bound_to 11000
  144.9420  140.8088  143.5624 LP  0  0  0  0  0  0  0  0  0  0  0  0  # atno 17320 bound_to 7965
  145.2451  139.2055  143.4972 LP  0  0  0  0  0  0  0  0  0  0  0  0  # atno 17321 bound_to 7965
  140.2023  144.4645  150.6425 LP  0  0  0  0  0  0  0  0  0  0  0  0  # atno 17342 bound_to 10162
  140.6533  143.2230  151.6027 LP  0  0  0  0  0  0  0  0  0  0  0  0  # atno 17343 bound_to 10162
  156.1753  130.3648  149.9109 LP  0  0  0  0  0  0  0  0  0  0  0  0  # atno 17370 bound_to 10713
  156.7074  130.8957  151.3606 LP  0  0  0  0  0  0  0  0  0  0  0  0  # atno 17371 bound_to 10713
  140.2299  134.8693  157.3466 LP  0  0  0  0  0  0  0  0  0  0  0  0  # atno 17394 bound_to 11000
  140.1901  134.4382  155.7720 LP  0  0  0  0  0  0  0  0  0  0  0  0  # atno 17395 bound_to 11000

$$$$
