AV-unprocessed.smi:2158|AV-procd|sdf|8789|dock8
  -GOLD-   2272011573D 1   1.00000     0.00000
 Structure written by MMmdl.
 30 30  0  0  0  0  0  0  0  0  2 V2000
  151.1860  145.2205  159.2032 C   0  0  0  0  0  0  0  0  0  0  0  0
  152.2374  144.3158  159.8628 C   0  0  0  0  0  0  0  0  0  0  0  0
  152.0195  142.8154  159.5913 C   0  0  2  0  0  0  0  0  0  0  0  0
  153.1780  141.9650  160.1348 C   0  0  0  0  0  0  0  0  0  0  0  0
  151.8591  142.5813  158.1583 N   0  0  0  0  0  0  0  0  0  0  0  0
  150.9115  141.8173  157.5936 C   0  0  0  0  0  0  0  0  0  0  0  0
  150.0767  141.1839  158.2410 O   0  0  0  0  0  0  0  0  0  0  0  0
  150.9329  141.7363  156.0621 C   0  0  0  0  0  0  0  0  0  0  0  0
  151.0450  140.3529  155.5737 N   0  0  0  0  0  0  0  0  0  0  0  0
  150.1563  139.9394  154.5655 C   0  0  0  0  0  0  0  0  0  0  0  0
  150.1919  138.6938  154.0548 C   0  0  0  0  0  0  0  0  0  0  0  0
  151.1857  137.7626  154.5745 C   0  0  0  0  0  0  0  0  0  0  0  0
  151.2294  136.6198  154.1228 O   0  0  0  0  0  0  0  0  0  0  0  0
  152.0283  138.2125  155.5499 N   0  5  0  0  0  0  0  0  0  0  0  0
  151.9827  139.4833  156.0577 C   0  0  0  0  0  0  0  0  0  0  0  0
  152.7553  139.8703  156.9357 O   0  0  0  0  0  0  0  0  0  0  0  0
  151.3576  146.2652  159.4626 H   0  0  0  0  0  0  0  0  0  0  0  0
  150.1802  144.9576  159.5314 H   0  0  0  0  0  0  0  0  0  0  0  0
  151.2132  145.1428  158.1159 H   0  0  0  0  0  0  0  0  0  0  0  0
  153.2308  144.6130  159.5243 H   0  0  0  0  0  0  0  0  0  0  0  0
  152.2196  144.4908  160.9391 H   0  0  0  0  0  0  0  0  0  0  0  0
  151.1063  142.5151  160.1087 H   0  0  0  0  0  0  0  0  0  0  0  0
  153.3004  142.1096  161.2085 H   0  0  0  0  0  0  0  0  0  0  0  0
  154.1214  142.2258  159.6542 H   0  0  0  0  0  0  0  0  0  0  0  0
  153.0004  140.9021  159.9664 H   0  0  0  0  0  0  0  0  0  0  0  0
  152.5026  143.0608  157.5453 H   0  0  0  0  0  0  0  0  0  0  0  0
  150.0409  142.2101  155.6470 H   0  0  0  0  0  0  0  0  0  0  0  0
  151.7690  142.3371  155.7027 H   0  0  0  0  0  0  0  0  0  0  0  0
  149.4569  140.6916  154.2317 H   0  0  0  0  0  0  0  0  0  0  0  0
  149.5048  138.3926  153.2780 H   0  0  0  0  0  0  0  0  0  0  0  0
  1  2  1  0  0  0  0
  1 17  1  0  0  0  0
  1 18  1  0  0  0  0
  1 19  1  0  0  0  0
  2  3  1  0  0  0  0
  2 20  1  0  0  0  0
  2 21  1  0  0  0  0
  3  4  1  0  0  0  0
  3  5  1  0  0  0  0
  3 22  1  0  0  0  0
  4 23  1  0  0  0  0
  4 24  1  0  0  0  0
  4 25  1  0  0  0  0
  5  6  1  0  0  0  0
  5 26  1  0  0  0  0
  6  7  2  0  0  0  0
  6  8  1  0  0  0  0
  8  9  1  0  0  0  0
  8 27  1  0  0  0  0
  8 28  1  0  0  0  0
  9 15  1  0  0  0  0
  9 10  1  0  0  0  0
 10 11  2  0  0  0  0
 10 29  1  0  0  0  0
 11 12  1  0  0  0  0
 11 30  1  0  0  0  0
 12 13  2  0  0  0  0
 12 14  1  0  0  0  0
 14 15  1  0  0  0  0
 15 16  2  0  0  0  0
M  CHG  1  14  -1
M  END
> <s_m_source_file>
AV-unprocessed.smi

> <i_m_source_file_index>
2158

> <i_lp_mmshare_version>
43012

> <i_f3d_flags>
0

> <s_epik_input>
W0NIM11bQ0gyXVtDQEhdKFtDSDNdKVtOSF1DKD1PKVtDSDJdbjFbY0hdW2NIXWMoPU8pW25IXWMxPU8=

> <s_epik_cmdline>
J2VwaWtfcHl0aG9uJywgJy1waCcsICc3LjAnLCAnLXRuJywgJzgnLCAnLW1hJywgJzIwMCcsICctbWV0YWxfYmluZGluZycsICctaW1hZScsICc8aW5maWxlLm1hZT4nLCAnLW9tYWUnLCAnPG91dGZpbGUubWFlPic=

> <r_lp_tautomer_probability>
0.999537

> <r_epik_Ionization_Penalty>
3.08395

> <r_epik_Ionization_Penalty_Charging>
2.76809e-08

> <r_epik_Ionization_Penalty_Neutral>
3.08395

> <r_epik_State_Penalty>
3.08299

> <r_epik_Charging_Adjusted_Penalty>
3.08299

> <i_epik_Tot_Q>
-1

> <i_epik_Tot_abs_Q>
1

> <r_epik_Metal_State_Penalty>
0.460296

> <b_epik_Metal_Only>
1

> <s_lp_Force_Field>
OPLS_2005

> <r_lp_Energy>
12.2606

> <b_lp_Chiralities_Consistent>
1

> <s_lp_Variant>
AV-unprocessed.smi:2158-3

> <Gold.Version>
5.8.1

> <Gold.Id.Protein>
6NUR|6NUR_protein|mol2

> <Gold.PLP.Fitness>
41.2307

> <Gold.PLP.PLP>
-35.9356

> <Gold.PLP.part.hbond>
-2.0000

> <Gold.PLP.part.metal>
0.0000

> <Gold.PLP.part.buried>
-3.5455

> <Gold.PLP.part.nonpolar>
-31.0330

> <Gold.PLP.part.repulsive>
1.2387

> <Gold.PLP.ligand.clash>
0.0000

> <Gold.PLP.ligand.torsion>
0.3595

> <Gold.PLP.Chemscore.Hbond>
2.0000

> <Gold.PLP.Chemscore.CHOScore>
0.0000

> <Gold.PLP.Chemscore.Metal>
0.0000

> <Gold.Chemscore.Hbonds>
donor molecule, donor type, donor heavy atom, donor atom, acceptor molecule, acceptor atom, score
      P1  H  7997  8009       L1    16  1.00
      P1  H 10752 10763       L1    13  1.00

> <Gold.PLP.Chemscore.Internal.Correction>
0.0140

> <Gold.Rescore>
     Score         DG    S(hbond)    S(metal)    S(lipo)     H(rot)  DE(clash)    DE(int)     intcor
     12.80     -14.52       1.88        0.00      66.07       1.94       0.08       1.65       ----

> <Gold.Chemscore.Fitness>
12.7962

> <Gold.Chemscore.DG>
-14.5222

> <Gold.Chemscore.ZeroCoef>
-5.4800

> <Gold.Chemscore.Hbond>
1.8835

> <Gold.Chemscore.Metal>
0.0000

> <Gold.Chemscore.Lipo>
66.0722

> <Gold.Chemscore.Internal_Hbond>
0.0000

> <Gold.Chemscore.DEClash>
0.0779

> <Gold.Chemscore.DEInternal>
1.6481

> <Gold.Chemscore.Rot>
1.9449

> <Gold.Chemscore.Internal.Correction>
   9.000000E+99

> <Gold.Chemscore.Hbonds>
donor molecule, donor type, donor heavy atom, donor atom, acceptor molecule, acceptor atom, score
      P1  H  7997  8009       L1    16  0.98
      P1  H 10752 10763       L1    13  0.93

> <Gold.Chemscore.Hbond.Weighted>
-6.2908

> <Gold.Chemscore.Metal.Weighted>
-0.0000

> <Gold.Chemscore.Lipo.Weighted>
-7.7304

> <Gold.Chemscore.Internal_Hbond.Weighted>
0.0000

> <Gold.Chemscore.DEClash.Weighted>
0.0779

> <Gold.Chemscore.DEInternal.Weighted>
1.6481

> <Gold.Chemscore.Rot.Weighted>
4.9791

> <Gold.Chemscore.Internal.Correction.Weighted>
   9.000000E+99

> <Gold.Protein.RotatedTorsions>
[ 6907 6896 6895 6894 ] final  -37.31 input  -60.11 | X-H torsion
[ 7974 7965 7964 7962 ] final   49.15 input  175.53 | X-H torsion
[ 8008 7997 7996 7995 ] final -178.14 input   59.86 | X-H torsion
[ 10167 10162 10161 10158 ] final   15.22 input  -65.29 | X-H torsion
[ 10718 10713 10712 10709 ] final  160.33 input   66.30 | X-H torsion
[ 10763 10752 10751 10750 ] final   27.20 input  -60.55 | X-H torsion
[ 11005 11000 10999 10996 ] final  -89.35 input  -57.11 | X-H torsion

> <Gold.Protein.ActiveResidues>
 VAL166  LYS551  ARG553  GLY616  TRP617  ASP618  TYR619  PRO620  LYS621  CYS622 
 ASP623  PHE694  ASN695  SER759  ASP760  ASP761  ALA762  ILE779  LEU786  VAL792 
 PHE793  MET794  SER795  GLU796  ALA797  LYS798  CYS799  TRP800  GLU811  SER814 

> <Gold.Protein.RotatedAtoms>
  151.0162  134.9435  159.8034 H   0  0  0  0  0  0  0  0  0  0  0  0  # atno 6907 bound_to 6896
  152.5314  134.2963  159.9072 H   0  0  0  0  0  0  0  0  0  0  0  0  # atno 6908 bound_to 6896
  151.2969  133.4098  159.2671 H   0  0  0  0  0  0  0  0  0  0  0  0  # atno 6909 bound_to 6896
  146.0137  139.4572  142.9940 H   0  0  0  0  0  0  0  0  0  0  0  0  # atno 7974 bound_to 7965
  156.0154  140.1249  157.0412 H   0  0  0  0  0  0  0  0  0  0  0  0  # atno 8008 bound_to 7997
  154.4291  140.1079  156.5957 H   0  0  0  0  0  0  0  0  0  0  0  0  # atno 8009 bound_to 7997
  155.6021  140.3470  155.4599 H   0  0  0  0  0  0  0  0  0  0  0  0  # atno 8010 bound_to 7997
  140.5882  143.8848  150.6849 H   0  0  0  0  0  0  0  0  0  0  0  0  # atno 10167 bound_to 10162
  157.1519  131.0566  151.2275 H   0  0  0  0  0  0  0  0  0  0  0  0  # atno 10718 bound_to 10713
  153.0572  135.6542  154.0550 H   0  0  0  0  0  0  0  0  0  0  0  0  # atno 10763 bound_to 10752
  154.0225  135.2918  155.3380 H   0  0  0  0  0  0  0  0  0  0  0  0  # atno 10764 bound_to 10752
  154.6892  135.5289  153.8437 H   0  0  0  0  0  0  0  0  0  0  0  0  # atno 10765 bound_to 10752
  141.1586  133.7625  156.9582 H   0  0  0  0  0  0  0  0  0  0  0  0  # atno 11005 bound_to 11000
  145.7302  141.0045  143.1355 LP  0  0  0  0  0  0  0  0  0  0  0  0  # atno 17320 bound_to 7965
  144.6962  139.8976  143.7456 LP  0  0  0  0  0  0  0  0  0  0  0  0  # atno 17321 bound_to 7965
  140.2364  143.3696  152.1523 LP  0  0  0  0  0  0  0  0  0  0  0  0  # atno 17342 bound_to 10162
  139.5211  144.7041  151.5407 LP  0  0  0  0  0  0  0  0  0  0  0  0  # atno 17343 bound_to 10162
  157.4212  130.7438  149.6915 LP  0  0  0  0  0  0  0  0  0  0  0  0  # atno 17370 bound_to 10713
  155.9769  130.4070  150.3749 LP  0  0  0  0  0  0  0  0  0  0  0  0  # atno 17371 bound_to 10713
  140.1211  134.9416  157.2204 LP  0  0  0  0  0  0  0  0  0  0  0  0  # atno 17394 bound_to 11000
  140.3071  134.3066  155.7275 LP  0  0  0  0  0  0  0  0  0  0  0  0  # atno 17395 bound_to 11000

$$$$
