AV-unprocessed.smi:263|AV-procd|sdf|2006|dock2
  -GOLD-   2262021203D 1   1.00000     0.00000
 Structure written by MMmdl.
 57 61  0  0  0  0  0  0  0  0  1 V2000
  149.4480  137.6653  153.5586 O   0  0  0  0  0  0  0  0  0  0  0  0
  148.0985  138.0815  153.4408 C   0  0  0  0  0  0  0  0  0  0  0  0
  148.0837  139.6259  153.3207 C   0  0  0  0  0  0  0  0  0  0  0  0
  148.6001  140.3177  154.4920 N   0  0  0  0  0  0  0  0  0  0  0  0
  147.9160  141.1980  155.2997 C   0  0  0  0  0  0  0  0  0  0  0  0
  148.6043  141.6925  156.2921 N   0  0  0  0  0  0  0  0  0  0  0  0
  149.8605  141.1122  156.1582 C   0  0  0  0  0  0  0  0  0  0  0  0
  151.0813  141.2107  156.8845 C   0  0  0  0  0  0  0  0  0  0  0  0
  151.2178  141.9829  157.9933 N   0  0  0  0  0  0  0  0  0  0  0  0
  150.7962  143.3824  157.8997 C   0  0  0  0  0  0  0  0  0  0  0  0
  150.6791  144.0272  159.2941 C   0  0  0  0  0  0  0  0  0  0  0  0
  151.9685  143.8491  160.1228 C   0  0  1  0  0  0  0  0  0  0  0  0
  152.9937  144.5926  159.4834 O   0  0  0  0  0  0  0  0  0  0  0  0
  151.8091  144.4074  161.5546 C   0  0  0  0  0  0  0  0  0  0  0  0
  153.0466  144.1346  162.4313 C   0  0  0  0  0  0  0  0  0  0  0  0
  153.4109  142.6413  162.4492 C   0  0  0  0  0  0  0  0  0  0  0  0
  153.5934  142.0893  161.0257 C   0  0  0  0  0  0  0  0  0  0  0  0
  152.3377  142.3435  160.1693 C   0  0  2  0  0  0  0  0  0  0  0  0
  152.4462  141.7467  158.7526 C   0  0  0  0  0  0  0  0  0  0  0  0
  152.1397  140.4894  156.4259 N   0  0  0  0  0  0  0  0  0  0  0  0
  152.0149  139.7203  155.3405 C   0  0  0  0  0  0  0  0  0  0  0  0
  150.9412  139.5298  154.5717 N   0  0  0  0  0  0  0  0  0  0  0  0
  149.8767  140.2531  155.0228 C   0  0  0  0  0  0  0  0  0  0  0  0
  147.4996  137.4386  152.1735 C   0  0  0  0  0  0  0  0  0  0  0  0
  147.3352  135.9152  152.3172 C   0  0  0  0  0  0  0  0  0  0  0  0
  146.5501  135.6179  153.4651 O   0  0  0  0  0  0  0  0  0  0  0  0
  147.1653  136.0441  154.6747 C   0  0  0  0  0  0  0  0  0  0  0  0
  147.3246  137.5752  154.6779 C   0  0  0  0  0  0  0  0  0  0  0  0
  149.9990  138.3039  153.1318 H   0  0  0  0  0  0  0  0  0  0  0  0
  148.6640  139.9435  152.4532 H   0  0  0  0  0  0  0  0  0  0  0  0
  147.0655  139.9764  153.1465 H   0  0  0  0  0  0  0  0  0  0  0  0
  146.8816  141.4607  155.1310 H   0  0  0  0  0  0  0  0  0  0  0  0
  151.5133  143.9350  157.2911 H   0  0  0  0  0  0  0  0  0  0  0  0
  149.8319  143.4475  157.3939 H   0  0  0  0  0  0  0  0  0  0  0  0
  150.4304  145.0845  159.1943 H   0  0  0  0  0  0  0  0  0  0  0  0
  149.8429  143.5680  159.8233 H   0  0  0  0  0  0  0  0  0  0  0  0
  152.6605  145.4554  159.2901 H   0  0  0  0  0  0  0  0  0  0  0  0
  151.6069  145.4790  161.5239 H   0  0  0  0  0  0  0  0  0  0  0  0
  150.9390  143.9489  162.0264 H   0  0  0  0  0  0  0  0  0  0  0  0
  153.8950  144.7119  162.0622 H   0  0  0  0  0  0  0  0  0  0  0  0
  152.8616  144.4823  163.4479 H   0  0  0  0  0  0  0  0  0  0  0  0
  154.3229  142.4881  163.0269 H   0  0  0  0  0  0  0  0  0  0  0  0
  152.6256  142.0820  162.9592 H   0  0  0  0  0  0  0  0  0  0  0  0
  154.4658  142.5499  160.5602 H   0  0  0  0  0  0  0  0  0  0  0  0
  153.8000  141.0197  161.0745 H   0  0  0  0  0  0  0  0  0  0  0  0
  151.5151  141.8215  160.6618 H   0  0  0  0  0  0  0  0  0  0  0  0
  152.6626  140.6820  158.8302 H   0  0  0  0  0  0  0  0  0  0  0  0
  153.2839  142.1929  158.2152 H   0  0  0  0  0  0  0  0  0  0  0  0
  152.9024  139.1796  155.0466 H   0  0  0  0  0  0  0  0  0  0  0  0
  146.5177  137.8727  151.9790 H   0  0  0  0  0  0  0  0  0  0  0  0
  148.1118  137.6680  151.3003 H   0  0  0  0  0  0  0  0  0  0  0  0
  146.8347  135.5109  151.4373 H   0  0  0  0  0  0  0  0  0  0  0  0
  148.3040  135.4178  152.3845 H   0  0  0  0  0  0  0  0  0  0  0  0
  146.5416  135.7334  155.5129 H   0  0  0  0  0  0  0  0  0  0  0  0
  148.1294  135.5489  154.8005 H   0  0  0  0  0  0  0  0  0  0  0  0
  147.8163  137.8873  155.5997 H   0  0  0  0  0  0  0  0  0  0  0  0
  146.3322  138.0277  154.6907 H   0  0  0  0  0  0  0  0  0  0  0  0
  1  2  1  0  0  0  0
  1 29  1  0  0  0  0
  2 28  1  0  0  0  0
  2  3  1  0  0  0  0
  2 24  1  0  0  0  0
  3  4  1  0  0  0  0
  3 30  1  0  0  0  0
  3 31  1  0  0  0  0
  4 23  1  0  0  0  0
  4  5  1  0  0  0  0
  5  6  2  0  0  0  0
  5 32  1  0  0  0  0
  6  7  1  0  0  0  0
  7 23  2  0  0  0  0
  7  8  1  0  0  0  0
  8  9  1  0  0  0  0
  8 20  2  0  0  0  0
  9 19  1  0  0  0  0
  9 10  1  0  0  0  0
 10 11  1  0  0  0  0
 10 33  1  0  0  0  0
 10 34  1  0  0  0  0
 11 12  1  0  0  0  0
 11 35  1  0  0  0  0
 11 36  1  0  0  0  0
 12 18  1  0  0  0  0
 12 13  1  0  0  0  0
 12 14  1  0  0  0  0
 13 37  1  0  0  0  0
 14 15  1  0  0  0  0
 14 38  1  0  0  0  0
 14 39  1  0  0  0  0
 15 16  1  0  0  0  0
 15 40  1  0  0  0  0
 15 41  1  0  0  0  0
 16 17  1  0  0  0  0
 16 42  1  0  0  0  0
 16 43  1  0  0  0  0
 17 18  1  0  0  0  0
 17 44  1  0  0  0  0
 17 45  1  0  0  0  0
 18 19  1  0  0  0  0
 18 46  1  0  0  0  0
 19 47  1  0  0  0  0
 19 48  1  0  0  0  0
 20 21  1  0  0  0  0
 21 22  2  0  0  0  0
 21 49  1  0  0  0  0
 22 23  1  0  0  0  0
 24 25  1  0  0  0  0
 24 50  1  0  0  0  0
 24 51  1  0  0  0  0
 25 26  1  0  0  0  0
 25 52  1  0  0  0  0
 25 53  1  0  0  0  0
 26 27  1  0  0  0  0
 27 28  1  0  0  0  0
 27 54  1  0  0  0  0
 27 55  1  0  0  0  0
 28 56  1  0  0  0  0
 28 57  1  0  0  0  0
M  END
> <s_m_source_file>
AV-unprocessed.smi

> <i_m_source_file_index>
263

> <i_lp_mmshare_version>
43012

> <i_f3d_flags>
0

> <s_epik_input>
W0NIMl0xW0NIMl1PW0NIMl1bQ0gyXUMxKFtPSF0pW0NIMl1uKFtjSF1uMiljKGMyMyluW2NIXW5jM04oW0NIMl1bQ0gyXTQpW0NIMl1bQ0BASF0oW0NAXTQ1W09IXSlbQ0gyXVtDSDJdW0NIMl1bQ0gyXTU=

> <s_epik_cmdline>
J2VwaWtfcHl0aG9uJywgJy1waCcsICc3LjAnLCAnLXRuJywgJzgnLCAnLW1hJywgJzIwMCcsICctbWV0YWxfYmluZGluZycsICctaW1hZScsICc8aW5maWxlLm1hZT4nLCAnLW9tYWUnLCAnPG91dGZpbGUubWFlPic=

> <r_lp_tautomer_probability>
1

> <r_epik_Ionization_Penalty>
0.00747493

> <r_epik_Ionization_Penalty_Charging>
0

> <r_epik_Ionization_Penalty_Neutral>
0.00747493

> <r_epik_State_Penalty>
0.00549307

> <r_epik_Charging_Adjusted_Penalty>
0.00549307

> <i_epik_Tot_Q>
0

> <i_epik_Tot_abs_Q>
0

> <r_epik_Metal_State_Penalty>
-0

> <b_epik_Metal_Only>
0

> <s_lp_Force_Field>
OPLS_2005

> <r_lp_Energy>
38.115

> <b_lp_Chiralities_Consistent>
1

> <s_lp_Variant>
AV-unprocessed.smi:263-4

> <Gold.Version>
5.8.1

> <Gold.Id.Protein>
6NUR|6NUR_protein|mol2

> <Gold.PLP.Fitness>
50.4798

> <Gold.PLP.PLP>
-47.4952

> <Gold.PLP.part.hbond>
-2.4805

> <Gold.PLP.part.metal>
0.0000

> <Gold.PLP.part.buried>
1.6086

> <Gold.PLP.part.nonpolar>
-50.4844

> <Gold.PLP.part.repulsive>
4.5929

> <Gold.PLP.ligand.clash>
0.0000

> <Gold.PLP.ligand.torsion>
0.2080

> <Gold.PLP.Chemscore.Hbond>
1.0000

> <Gold.PLP.Chemscore.CHOScore>
0.0000

> <Gold.PLP.Chemscore.Metal>
0.0000

> <Gold.Chemscore.Hbonds>
donor molecule, donor type, donor heavy atom, donor atom, acceptor molecule, acceptor atom, score
      P1  H  7989  7998       L1    22  0.24

> <Gold.PLP.Chemscore.Internal.Correction>
0.4005

> <Gold.Rescore>
     Score         DG    S(hbond)    S(metal)    S(lipo)     H(rot)  DE(clash)    DE(int)     intcor
     11.93     -16.84       0.98        0.00     126.44       2.62       2.89       2.02       ----

> <Gold.Chemscore.Fitness>
11.9342

> <Gold.Chemscore.DG>
-16.8388

> <Gold.Chemscore.ZeroCoef>
-5.4800

> <Gold.Chemscore.Hbond>
0.9824

> <Gold.Chemscore.Metal>
0.0000

> <Gold.Chemscore.Lipo>
126.4368

> <Gold.Chemscore.Internal_Hbond>
0.0000

> <Gold.Chemscore.DEClash>
2.8875

> <Gold.Chemscore.DEInternal>
2.0172

> <Gold.Chemscore.Rot>
2.6232

> <Gold.Chemscore.Internal.Correction>
   9.000000E+99

> <Gold.Chemscore.Hbond.Weighted>
-3.2812

> <Gold.Chemscore.Metal.Weighted>
-0.0000

> <Gold.Chemscore.Lipo.Weighted>
-14.7931

> <Gold.Chemscore.Internal_Hbond.Weighted>
0.0000

> <Gold.Chemscore.DEClash.Weighted>
2.8875

> <Gold.Chemscore.DEInternal.Weighted>
2.0172

> <Gold.Chemscore.Rot.Weighted>
6.7155

> <Gold.Chemscore.Internal.Correction.Weighted>
   9.000000E+99

> <Gold.Protein.RotatedTorsions>
[ 6907 6896 6895 6894 ] final   94.71 input  -60.11 | X-H torsion
[ 7974 7965 7964 7962 ] final   98.09 input  175.53 | X-H torsion
[ 8008 7997 7996 7995 ] final  124.19 input   59.86 | X-H torsion
[ 10167 10162 10161 10158 ] final  148.42 input  -65.29 | X-H torsion
[ 10718 10713 10712 10709 ] final  -72.56 input   66.30 | X-H torsion
[ 10763 10752 10751 10750 ] final  -95.22 input  -60.55 | X-H torsion
[ 11005 11000 10999 10996 ] final  -23.41 input  -57.11 | X-H torsion

> <Gold.Protein.ActiveResidues>
 VAL166  LYS551  ARG553  GLY616  TRP617  ASP618  TYR619  PRO620  LYS621  CYS622 
 ASP623  PHE694  ASN695  SER759  ASP760  ASP761  ALA762  ILE779  LEU786  VAL792 
 PHE793  MET794  SER795  GLU796  ALA797  LYS798  CYS799  TRP800  GLU811  SER814 

> <Gold.Protein.RotatedAtoms>
  152.5448  134.1152  159.8375 H   0  0  0  0  0  0  0  0  0  0  0  0  # atno 6907 bound_to 6896
  151.1214  133.5094  159.2609 H   0  0  0  0  0  0  0  0  0  0  0  0  # atno 6908 bound_to 6896
  151.1774  135.0355  159.8832 H   0  0  0  0  0  0  0  0  0  0  0  0  # atno 6909 bound_to 6896
  145.4167  139.2326  143.3218 H   0  0  0  0  0  0  0  0  0  0  0  0  # atno 7974 bound_to 7965
  156.2792  140.2745  156.1748 H   0  0  0  0  0  0  0  0  0  0  0  0  # atno 8008 bound_to 7997
  155.0618  140.0386  157.2597 H   0  0  0  0  0  0  0  0  0  0  0  0  # atno 8009 bound_to 7997
  154.7111  140.2669  155.6634 H   0  0  0  0  0  0  0  0  0  0  0  0  # atno 8010 bound_to 7997
  139.4875  144.5681  151.7107 H   0  0  0  0  0  0  0  0  0  0  0  0  # atno 10167 bound_to 10162
  156.0315  130.4375  150.2611 H   0  0  0  0  0  0  0  0  0  0  0  0  # atno 10718 bound_to 10713
  154.7128  135.5128  153.8693 H   0  0  0  0  0  0  0  0  0  0  0  0  # atno 10763 bound_to 10752
  153.0795  135.6627  154.0083 H   0  0  0  0  0  0  0  0  0  0  0  0  # atno 10764 bound_to 10752
  153.9922  135.3019  155.3390 H   0  0  0  0  0  0  0  0  0  0  0  0  # atno 10765 bound_to 10752
  140.8749  133.7694  156.0231 H   0  0  0  0  0  0  0  0  0  0  0  0  # atno 11005 bound_to 11000
  146.2677  140.4886  142.8827 LP  0  0  0  0  0  0  0  0  0  0  0  0  # atno 17320 bound_to 7965
  144.8272  140.6648  143.6314 LP  0  0  0  0  0  0  0  0  0  0  0  0  # atno 17321 bound_to 7965
  140.5263  144.0801  150.6038 LP  0  0  0  0  0  0  0  0  0  0  0  0  # atno 17342 bound_to 10162
  140.3776  143.2820  152.0207 LP  0  0  0  0  0  0  0  0  0  0  0  0  # atno 17343 bound_to 10162
  157.0713  131.0117  151.3189 LP  0  0  0  0  0  0  0  0  0  0  0  0  # atno 17370 bound_to 10713
  157.4997  130.7872  149.7592 LP  0  0  0  0  0  0  0  0  0  0  0  0  # atno 17371 bound_to 10713
  140.8530  134.2932  157.5267 LP  0  0  0  0  0  0  0  0  0  0  0  0  # atno 17394 bound_to 11000
  139.8715  134.9477  156.3976 LP  0  0  0  0  0  0  0  0  0  0  0  0  # atno 17395 bound_to 11000

$$$$
