AV-unprocessed.smi:21|AV-procd|sdf|137|dock8
  -GOLD-   2262015333D 1   1.00000     0.00000
 Structure written by MMmdl.
 62 65  0  0  0  0  0  0  0  0  2 V2000
  145.8006  131.9778  149.6250 C   0  0  0  0  0  0  0  0  0  0  0  0
  144.7077  132.8233  149.9451 O   0  0  0  0  0  0  0  0  0  0  0  0
  144.5875  133.0962  151.3334 C   0  0  1  0  0  0  0  0  0  0  0  0
  145.1453  134.4592  151.7296 C   0  0  0  0  0  0  0  0  0  0  0  0
  144.4071  134.7910  153.0347 C   0  0  1  0  0  0  0  0  0  0  0  0
  144.3204  136.3084  153.3326 C   0  0  0  0  0  0  0  0  0  0  0  0
  144.1817  136.5911  154.7643 N   0  0  0  0  0  0  0  0  0  0  0  0
  143.3812  135.6735  155.5658 C   0  0  0  0  0  0  0  0  0  0  0  0
  144.9800  137.5155  155.3744 C   0  0  0  0  0  0  0  0  0  0  0  0
  144.9059  137.6354  156.7271 N   0  0  0  0  0  0  0  0  0  0  0  0
  145.6575  138.5229  157.3819 C   0  0  0  0  0  0  0  0  0  0  0  0
  146.5463  139.3827  156.8882 N   0  0  0  0  0  0  0  0  0  0  0  0
  146.6411  139.2746  155.5335 C   0  0  0  0  0  0  0  0  0  0  0  0
  145.8991  138.3824  154.7031 C   0  0  0  0  0  0  0  0  0  0  0  0
  146.2566  138.5910  153.3747 N   0  0  0  0  0  0  0  0  0  0  0  0
  147.1564  139.5334  153.4193 C   0  0  0  0  0  0  0  0  0  0  0  0
  147.4632  139.9911  154.6795 N   0  0  0  0  0  0  0  0  0  0  0  0
  148.4307  141.0282  155.0115 C   0  0  0  0  0  0  0  0  0  0  0  0
  149.5831  140.5582  155.9429 C   0  0  2  0  0  0  0  0  0  0  0  0
  150.1041  141.6922  156.8580 C   0  0  0  0  0  0  0  0  0  0  0  0
  150.6707  142.7395  156.0979 O   0  0  0  0  0  0  0  0  0  0  0  0
  150.7422  139.8952  155.1537 C   0  0  2  0  0  0  0  0  0  0  0  0
  150.3805  138.5803  154.4819 C   0  0  0  0  0  0  0  0  0  0  0  0
  151.7502  137.9761  154.1963 C   0  0  0  0  0  0  0  0  0  0  0  0
  152.5922  138.4225  155.2530 O   0  0  0  0  0  0  0  0  0  0  0  0
  151.9295  139.4330  156.0061 C   0  0  0  0  0  0  0  0  0  0  0  0
  143.1037  134.0662  152.9542 N   0  3  1  0  0  0  0  0  0  0  0  0
  141.8603  134.8581  153.1069 C   0  0  0  0  0  0  0  0  0  0  0  0
  143.1193  133.2357  151.7284 C   0  0  0  0  0  0  0  0  0  0  0  0
  145.0499  132.3074  151.9298 H   0  0  0  0  0  0  0  0  0  0  0  0
  144.9460  134.3119  153.8534 H   0  0  0  0  0  0  0  0  0  0  0  0
  145.8045  131.7797  148.5531 H   0  0  0  0  0  0  0  0  0  0  0  0
  145.7252  131.0209  150.1425 H   0  0  0  0  0  0  0  0  0  0  0  0
  146.7542  132.4403  149.8806 H   0  0  0  0  0  0  0  0  0  0  0  0
  146.2294  134.4581  151.8488 H   0  0  0  0  0  0  0  0  0  0  0  0
  144.8931  135.1891  150.9590 H   0  0  0  0  0  0  0  0  0  0  0  0
  145.1676  136.8358  152.8954 H   0  0  0  0  0  0  0  0  0  0  0  0
  143.4398  136.7258  152.8442 H   0  0  0  0  0  0  0  0  0  0  0  0
  144.0177  134.9497  156.0752 H   0  0  0  0  0  0  0  0  0  0  0  0
  142.6811  135.1192  154.9406 H   0  0  0  0  0  0  0  0  0  0  0  0
  142.7957  136.2161  156.3088 H   0  0  0  0  0  0  0  0  0  0  0  0
  145.5290  138.5467  158.4541 H   0  0  0  0  0  0  0  0  0  0  0  0
  147.6300  139.9175  152.5273 H   0  0  0  0  0  0  0  0  0  0  0  0
  148.8469  141.4046  154.0764 H   0  0  0  0  0  0  0  0  0  0  0  0
  147.8978  141.8728  155.4477 H   0  0  0  0  0  0  0  0  0  0  0  0
  149.1655  139.7908  156.5966 H   0  0  0  0  0  0  0  0  0  0  0  0
  149.2915  142.1274  157.4386 H   0  0  0  0  0  0  0  0  0  0  0  0
  150.8364  141.3216  157.5755 H   0  0  0  0  0  0  0  0  0  0  0  0
  149.9701  143.2566  155.7300 H   0  0  0  0  0  0  0  0  0  0  0  0
  151.1187  140.5876  154.3996 H   0  0  0  0  0  0  0  0  0  0  0  0
  149.8288  137.9399  155.1718 H   0  0  0  0  0  0  0  0  0  0  0  0
  149.7829  138.6932  153.5784 H   0  0  0  0  0  0  0  0  0  0  0  0
  151.7221  136.8878  154.1384 H   0  0  0  0  0  0  0  0  0  0  0  0
  152.1441  138.3568  153.2531 H   0  0  0  0  0  0  0  0  0  0  0  0
  152.6134  140.2462  156.2490 H   0  0  0  0  0  0  0  0  0  0  0  0
  151.5845  138.9902  156.9416 H   0  0  0  0  0  0  0  0  0  0  0  0
  141.7691  135.6161  152.3279 H   0  0  0  0  0  0  0  0  0  0  0  0
  141.8205  135.3456  154.0808 H   0  0  0  0  0  0  0  0  0  0  0  0
  140.9908  134.2031  153.0389 H   0  0  0  0  0  0  0  0  0  0  0  0
  142.5798  133.7530  150.9325 H   0  0  0  0  0  0  0  0  0  0  0  0
  142.6344  132.2722  151.8872 H   0  0  0  0  0  0  0  0  0  0  0  0
  143.1158  133.4174  153.7284 H   0  0  0  0  0  0  0  0  0  0  0  0
  1  2  1  0  0  0  0
  1 32  1  0  0  0  0
  1 33  1  0  0  0  0
  1 34  1  0  0  0  0
  2  3  1  0  0  0  0
  3 30  1  0  0  0  0
  3 29  1  0  0  0  0
  3  4  1  0  0  0  0
  4  5  1  0  0  0  0
  4 35  1  0  0  0  0
  4 36  1  0  0  0  0
  5 31  1  0  0  0  0
  5  6  1  0  0  0  0
  5 27  1  0  0  0  0
  6  7  1  0  0  0  0
  6 37  1  0  0  0  0
  6 38  1  0  0  0  0
  7  8  1  0  0  0  0
  7  9  1  0  0  0  0
  8 39  1  0  0  0  0
  8 40  1  0  0  0  0
  8 41  1  0  0  0  0
  9 14  1  0  0  0  0
  9 10  2  0  0  0  0
 10 11  1  0  0  0  0
 11 12  2  0  0  0  0
 11 42  1  0  0  0  0
 12 13  1  0  0  0  0
 13 17  1  0  0  0  0
 13 14  2  0  0  0  0
 14 15  1  0  0  0  0
 15 16  2  0  0  0  0
 16 17  1  0  0  0  0
 16 43  1  0  0  0  0
 17 18  1  0  0  0  0
 18 19  1  0  0  0  0
 18 44  1  0  0  0  0
 18 45  1  0  0  0  0
 19 20  1  0  0  0  0
 19 22  1  0  0  0  0
 19 46  1  0  0  0  0
 20 21  1  0  0  0  0
 20 47  1  0  0  0  0
 20 48  1  0  0  0  0
 21 49  1  0  0  0  0
 22 26  1  0  0  0  0
 22 23  1  0  0  0  0
 22 50  1  0  0  0  0
 23 24  1  0  0  0  0
 23 51  1  0  0  0  0
 23 52  1  0  0  0  0
 24 25  1  0  0  0  0
 24 53  1  0  0  0  0
 24 54  1  0  0  0  0
 25 26  1  0  0  0  0
 26 55  1  0  0  0  0
 26 56  1  0  0  0  0
 27 28  1  0  0  0  0
 27 29  1  0  0  0  0
 27 62  1  0  0  0  0
 28 57  1  0  0  0  0
 28 58  1  0  0  0  0
 28 59  1  0  0  0  0
 29 60  1  0  0  0  0
 29 61  1  0  0  0  0
M  CHG  1  27   1
M  END
> <s_m_source_file>
AV-unprocessed.smi

> <i_m_source_file_index>
21

> <i_lp_mmshare_version>
43012

> <i_f3d_flags>
0

> <s_epik_input>
W0NIM11PW0NASF0xW0NIMl1bQ0BIXShOKFtDSDNdKVtDSDJdMSlbQ0gyXU4oW0NIM10pYyhuW2NIXW4yKWMoYzIzKW5bY0hdbjNbQ0gyXVtDQEhdKFtDSDJdW09IXSlbQ0BASF00W0NIMl1bQ0gyXU9bQ0gyXTQ=

> <s_epik_cmdline>
J2VwaWtfcHl0aG9uJywgJy1waCcsICc3LjAnLCAnLXRuJywgJzgnLCAnLW1hJywgJzIwMCcsICctbWV0YWxfYmluZGluZycsICctaW1hZScsICc8aW5maWxlLm1hZT4nLCAnLW9tYWUnLCAnPG91dGZpbGUubWFlPic=

> <r_lp_tautomer_probability>
1

> <r_epik_Ionization_Penalty>
0.0157465

> <r_epik_Ionization_Penalty_Charging>
0.015354

> <r_epik_Ionization_Penalty_Neutral>
0.000392529

> <r_epik_State_Penalty>
0.0120612

> <r_epik_Charging_Adjusted_Penalty>
0.0274152

> <i_epik_Tot_Q>
1

> <i_epik_Tot_abs_Q>
1

> <r_epik_Metal_State_Penalty>
0.0121253

> <b_epik_Metal_Only>
0

> <s_lp_Force_Field>
OPLS_2005

> <r_lp_Energy>
60.1072

> <b_lp_Chiralities_Consistent>
1

> <s_lp_Variant>
AV-unprocessed.smi:21-17

> <Gold.Version>
5.8.1

> <Gold.Id.Protein>
6NUR|6NUR_protein|mol2

> <Gold.PLP.Fitness>
48.0360

> <Gold.PLP.PLP>
-38.4592

> <Gold.PLP.part.hbond>
-2.0000

> <Gold.PLP.part.metal>
0.0000

> <Gold.PLP.part.buried>
-7.2105

> <Gold.PLP.part.nonpolar>
-29.6709

> <Gold.PLP.part.repulsive>
0.3982

> <Gold.PLP.ligand.clash>
0.0000

> <Gold.PLP.ligand.torsion>
1.4250

> <Gold.PLP.Chemscore.Hbond>
3.0000

> <Gold.PLP.Chemscore.CHOScore>
1.0000

> <Gold.PLP.Chemscore.Metal>
0.0000

> <Gold.Chemscore.Hbonds>
donor molecule, donor type, donor heavy atom, donor atom, acceptor molecule, acceptor atom, score
      L1  H    21    49       P1  8028  1.00
      L1  H    27    62       P1 10957  2.00
      L1  C    16    43       P1  7957  1.00

> <Gold.PLP.Chemscore.Internal.Correction>
0.4268

> <Gold.Rescore>
     Score         DG    S(hbond)    S(metal)    S(lipo)     H(rot)  DE(clash)    DE(int)     intcor
     12.36     -14.81       1.98        0.00      90.62       3.08       0.04       2.40       ----

> <Gold.Chemscore.Fitness>
12.3643

> <Gold.Chemscore.DG>
-14.8094

> <Gold.Chemscore.ZeroCoef>
-5.4800

> <Gold.Chemscore.Hbond>
1.9762

> <Gold.Chemscore.Metal>
0.0000

> <Gold.Chemscore.Lipo>
90.6249

> <Gold.Chemscore.Internal_Hbond>
0.0000

> <Gold.Chemscore.DEClash>
0.0411

> <Gold.Chemscore.DEInternal>
2.4040

> <Gold.Chemscore.Rot>
3.0758

> <Gold.Chemscore.Internal.Correction>
   9.000000E+99

> <Gold.Chemscore.Hbonds>
donor molecule, donor type, donor heavy atom, donor atom, acceptor molecule, acceptor atom, score
      L1  H    21    49       P1  8028  0.97
      L1  H    27    62       P1 10957  0.94

> <Gold.Chemscore.Hbond.Weighted>
-6.6005

> <Gold.Chemscore.Metal.Weighted>
-0.0000

> <Gold.Chemscore.Lipo.Weighted>
-10.6031

> <Gold.Chemscore.Internal_Hbond.Weighted>
0.0000

> <Gold.Chemscore.DEClash.Weighted>
0.0411

> <Gold.Chemscore.DEInternal.Weighted>
2.4040

> <Gold.Chemscore.Rot.Weighted>
7.8741

> <Gold.Chemscore.Internal.Correction.Weighted>
   9.000000E+99

> <Gold.Protein.RotatedTorsions>
[ 6907 6896 6895 6894 ] final -111.41 input  -60.11 | X-H torsion
[ 7974 7965 7964 7962 ] final -101.44 input  175.53 | X-H torsion
[ 8008 7997 7996 7995 ] final  136.62 input   59.86 | X-H torsion
[ 10167 10162 10161 10158 ] final   64.82 input  -65.29 | X-H torsion
[ 10718 10713 10712 10709 ] final  -11.15 input   66.30 | X-H torsion
[ 10763 10752 10751 10750 ] final  153.04 input  -60.55 | X-H torsion
[ 11005 11000 10999 10996 ] final   16.99 input  -57.11 | X-H torsion

> <Gold.Protein.ActiveResidues>
 VAL166  LYS551  ARG553  GLY616  TRP617  ASP618  TYR619  PRO620  LYS621  CYS622 
 ASP623  PHE694  ASN695  SER759  ASP760  ASP761  ALA762  ILE779  LEU786  VAL792 
 PHE793  MET794  SER795  GLU796  ALA797  LYS798  CYS799  TRP800  GLU811  SER814 

> <Gold.Protein.RotatedAtoms>
  150.7688  133.9240  159.3406 H   0  0  0  0  0  0  0  0  0  0  0  0  # atno 6907 bound_to 6896
  151.7131  135.0907  160.0280 H   0  0  0  0  0  0  0  0  0  0  0  0  # atno 6908 bound_to 6896
  152.3697  133.6364  159.6113 H   0  0  0  0  0  0  0  0  0  0  0  0  # atno 6909 bound_to 6896
  145.2816  140.9328  143.2928 H   0  0  0  0  0  0  0  0  0  0  0  0  # atno 7974 bound_to 7965
  156.3004  140.2440  156.3775 H   0  0  0  0  0  0  0  0  0  0  0  0  # atno 8008 bound_to 7997
  154.8732  140.0415  157.1757 H   0  0  0  0  0  0  0  0  0  0  0  0  # atno 8009 bound_to 7997
  154.8774  140.2944  155.5449 H   0  0  0  0  0  0  0  0  0  0  0  0  # atno 8010 bound_to 7997
  140.1180  144.4757  150.6937 H   0  0  0  0  0  0  0  0  0  0  0  0  # atno 10167 bound_to 10162
  156.6631  130.4987  149.6024 H   0  0  0  0  0  0  0  0  0  0  0  0  # atno 10718 bound_to 10713
  154.1298  135.2827  155.3188 H   0  0  0  0  0  0  0  0  0  0  0  0  # atno 10763 bound_to 10752
  154.6364  135.5418  153.7742 H   0  0  0  0  0  0  0  0  0  0  0  0  # atno 10764 bound_to 10752
  153.0285  135.6475  154.1449 H   0  0  0  0  0  0  0  0  0  0  0  0  # atno 10765 bound_to 10752
  140.4409  134.1323  155.7690 H   0  0  0  0  0  0  0  0  0  0  0  0  # atno 11005 bound_to 11000
  144.9248  139.4368  143.6524 LP  0  0  0  0  0  0  0  0  0  0  0  0  # atno 17320 bound_to 7965
  146.3214  139.8128  142.8942 LP  0  0  0  0  0  0  0  0  0  0  0  0  # atno 17321 bound_to 7965
  140.6888  143.2364  151.5187 LP  0  0  0  0  0  0  0  0  0  0  0  0  # atno 17342 bound_to 10162
  139.5584  144.2218  152.1650 LP  0  0  0  0  0  0  0  0  0  0  0  0  # atno 17343 bound_to 10162
  156.1995  130.6611  151.1152 LP  0  0  0  0  0  0  0  0  0  0  0  0  # atno 17370 bound_to 10713
  157.7103  131.0737  150.6525 LP  0  0  0  0  0  0  0  0  0  0  0  0  # atno 17371 bound_to 10713
  141.1706  133.8616  157.1582 LP  0  0  0  0  0  0  0  0  0  0  0  0  # atno 17394 bound_to 11000
  140.0070  135.0004  157.0315 LP  0  0  0  0  0  0  0  0  0  0  0  0  # atno 17395 bound_to 11000

$$$$
