AV-unprocessed.smi:1346|AV-procd|sdf|5514|dock10
  -GOLD-   22720 5103D 1   1.00000     0.00000
 Structure written by MMmdl.
 47 48  0  0  0  0  0  0  0  0  1 V2000
  151.8533  138.1890  155.2373 C   0  0  0  0  0  0  0  0  0  0  0  0
  151.3717  139.4744  155.8470 C   0  0  0  0  0  0  0  0  0  0  0  0
  150.9738  140.4613  155.0619 N   0  0  0  0  0  0  0  0  0  0  0  0
  150.5946  141.5010  155.9161 O   0  0  0  0  0  0  0  0  0  0  0  0
  150.7816  141.0947  157.1975 C   0  0  0  0  0  0  0  0  0  0  0  0
  150.4316  142.0751  158.2653 C   0  0  0  0  0  0  0  0  0  0  0  0
  151.2747  139.8187  157.2260 C   0  0  0  0  0  0  0  0  0  0  0  0
  151.6342  138.9715  158.4191 C   0  0  0  0  0  0  0  0  0  0  0  0
  150.6423  137.8158  158.5490 C   0  0  0  0  0  0  0  0  0  0  0  0
  151.0509  136.6556  158.5922 O   0  0  0  0  0  0  0  0  0  0  0  0
  149.3434  138.1457  158.6120 N   0  0  0  0  0  0  0  0  0  0  0  0
  148.2397  137.2018  158.7476 C   0  0  0  0  0  0  0  0  0  0  0  0
  148.3446  136.3877  160.0447 C   0  0  0  0  0  0  0  0  0  0  0  0
  147.0575  135.8985  160.3906 O   0  0  0  0  0  0  0  0  0  0  0  0
  146.8463  135.7420  161.7895 C   0  0  2  0  0  0  0  0  0  0  0  0
  147.2912  134.3200  162.1796 C   0  0  0  0  0  0  0  0  0  0  0  0
  146.3904  133.2414  161.5543 C   0  0  0  0  0  0  0  0  0  0  0  0
  144.9128  133.4788  161.8996 C   0  0  0  0  0  0  0  0  0  0  0  0
  144.4645  134.8902  161.4881 C   0  0  0  0  0  0  0  0  0  0  0  0
  145.3546  135.9737  162.1286 C   0  0  2  0  0  0  0  0  0  0  0  0
  144.8776  137.3885  161.7665 C   0  0  0  0  0  0  0  0  0  0  0  0
  151.4257  137.3286  155.7517 H   0  0  0  0  0  0  0  0  0  0  0  0
  152.9384  138.1103  155.3039 H   0  0  0  0  0  0  0  0  0  0  0  0
  151.5782  138.1124  154.1848 H   0  0  0  0  0  0  0  0  0  0  0  0
  150.1534  141.5656  159.1876 H   0  0  0  0  0  0  0  0  0  0  0  0
  149.5910  142.6987  157.9608 H   0  0  0  0  0  0  0  0  0  0  0  0
  151.2773  142.7279  158.4811 H   0  0  0  0  0  0  0  0  0  0  0  0
  152.6391  138.5585  158.3247 H   0  0  0  0  0  0  0  0  0  0  0  0
  151.6372  139.5592  159.3382 H   0  0  0  0  0  0  0  0  0  0  0  0
  149.1010  139.1253  158.5759 H   0  0  0  0  0  0  0  0  0  0  0  0
  147.3037  137.7607  158.7344 H   0  0  0  0  0  0  0  0  0  0  0  0
  148.2156  136.5343  157.8847 H   0  0  0  0  0  0  0  0  0  0  0  0
  149.0249  135.5472  159.9013 H   0  0  0  0  0  0  0  0  0  0  0  0
  148.7546  137.0023  160.8472 H   0  0  0  0  0  0  0  0  0  0  0  0
  147.4553  136.4496  162.3563 H   0  0  0  0  0  0  0  0  0  0  0  0
  148.3276  134.1588  161.8810 H   0  0  0  0  0  0  0  0  0  0  0  0
  147.2673  134.2209  163.2655 H   0  0  0  0  0  0  0  0  0  0  0  0
  146.5164  133.2399  160.4707 H   0  0  0  0  0  0  0  0  0  0  0  0
  146.6986  132.2546  161.9008 H   0  0  0  0  0  0  0  0  0  0  0  0
  144.2909  132.7318  161.4058 H   0  0  0  0  0  0  0  0  0  0  0  0
  144.7620  133.3462  162.9717 H   0  0  0  0  0  0  0  0  0  0  0  0
  144.4933  134.9809  160.4013 H   0  0  0  0  0  0  0  0  0  0  0  0
  143.4249  135.0403  161.7812 H   0  0  0  0  0  0  0  0  0  0  0  0
  145.2533  135.8779  163.2106 H   0  0  0  0  0  0  0  0  0  0  0  0
  144.9015  137.5539  160.6895 H   0  0  0  0  0  0  0  0  0  0  0  0
  145.5040  138.1475  162.2356 H   0  0  0  0  0  0  0  0  0  0  0  0
  143.8534  137.5540  162.1016 H   0  0  0  0  0  0  0  0  0  0  0  0
  1  2  1  0  0  0  0
  1 22  1  0  0  0  0
  1 23  1  0  0  0  0
  1 24  1  0  0  0  0
  2  7  1  0  0  0  0
  2  3  2  0  0  0  0
  3  4  1  0  0  0  0
  4  5  1  0  0  0  0
  5  6  1  0  0  0  0
  5  7  2  0  0  0  0
  6 25  1  0  0  0  0
  6 26  1  0  0  0  0
  6 27  1  0  0  0  0
  7  8  1  0  0  0  0
  8  9  1  0  0  0  0
  8 28  1  0  0  0  0
  8 29  1  0  0  0  0
  9 10  2  0  0  0  0
  9 11  1  0  0  0  0
 11 12  1  0  0  0  0
 11 30  1  0  0  0  0
 12 13  1  0  0  0  0
 12 31  1  0  0  0  0
 12 32  1  0  0  0  0
 13 14  1  0  0  0  0
 13 33  1  0  0  0  0
 13 34  1  0  0  0  0
 14 15  1  0  0  0  0
 15 20  1  0  0  0  0
 15 16  1  0  0  0  0
 15 35  1  0  0  0  0
 16 17  1  0  0  0  0
 16 36  1  0  0  0  0
 16 37  1  0  0  0  0
 17 18  1  0  0  0  0
 17 38  1  0  0  0  0
 17 39  1  0  0  0  0
 18 19  1  0  0  0  0
 18 40  1  0  0  0  0
 18 41  1  0  0  0  0
 19 20  1  0  0  0  0
 19 42  1  0  0  0  0
 19 43  1  0  0  0  0
 20 21  1  0  0  0  0
 20 44  1  0  0  0  0
 21 45  1  0  0  0  0
 21 46  1  0  0  0  0
 21 47  1  0  0  0  0
M  END
> <s_m_source_file>
AV-unprocessed.smi

> <i_m_source_file_index>
1346

> <i_lp_mmshare_version>
43012

> <i_f3d_flags>
0

> <s_epik_input>
W0NIM11jMW5vYyhbQ0gzXSljMVtDSDJdQyg9TylbTkhdW0NIMl1bQ0gyXU9bQ0BASF0yW0NIMl1bQ0gyXVtDSDJdW0NIMl1bQ0BIXTJbQ0gzXQ==

> <s_epik_cmdline>
J2VwaWtfcHl0aG9uJywgJy1waCcsICc3LjAnLCAnLXRuJywgJzgnLCAnLW1hJywgJzIwMCcsICctbWV0YWxfYmluZGluZycsICctaW1hZScsICc8aW5maWxlLm1hZT4nLCAnLW9tYWUnLCAnPG91dGZpbGUubWFlPic=

> <r_lp_tautomer_probability>
1

> <r_epik_Ionization_Penalty>
3.26154e-08

> <r_epik_Ionization_Penalty_Charging>
0

> <r_epik_Ionization_Penalty_Neutral>
3.26154e-08

> <r_epik_State_Penalty>
-0

> <r_epik_Charging_Adjusted_Penalty>
0

> <i_epik_Tot_Q>
0

> <i_epik_Tot_abs_Q>
0

> <r_epik_Metal_State_Penalty>
-0

> <b_epik_Metal_Only>
0

> <s_lp_Force_Field>
OPLS_2005

> <r_lp_Energy>
6.35262

> <b_lp_Chiralities_Consistent>
1

> <s_lp_Variant>
AV-unprocessed.smi:1346-3

> <Gold.Version>
5.8.1

> <Gold.Id.Protein>
6NUR|6NUR_protein|mol2

> <Gold.PLP.Fitness>
43.1987

> <Gold.PLP.PLP>
-39.1339

> <Gold.PLP.part.hbond>
-2.9638

> <Gold.PLP.part.metal>
0.0000

> <Gold.PLP.part.buried>
-5.4951

> <Gold.PLP.part.nonpolar>
-30.7280

> <Gold.PLP.part.repulsive>
0.3219

> <Gold.PLP.ligand.clash>
0.0000

> <Gold.PLP.ligand.torsion>
0.7899

> <Gold.PLP.Chemscore.Hbond>
1.8480

> <Gold.PLP.Chemscore.CHOScore>
0.0000

> <Gold.PLP.Chemscore.Metal>
0.0000

> <Gold.Chemscore.Hbonds>
donor molecule, donor type, donor heavy atom, donor atom, acceptor molecule, acceptor atom, score
      P1  H  6896  6908       L1    10  0.86
      P1  H  7989  7998       L1     3  1.00

> <Gold.PLP.Chemscore.Internal.Correction>
0.1006

> <Gold.Rescore>
     Score         DG    S(hbond)    S(metal)    S(lipo)     H(rot)  DE(clash)    DE(int)     intcor
     16.90     -18.12       1.87        0.00      92.62       1.74       0.06       1.16       ----

> <Gold.Chemscore.Fitness>
16.9033

> <Gold.Chemscore.DG>
-18.1249

> <Gold.Chemscore.ZeroCoef>
-5.4800

> <Gold.Chemscore.Hbond>
1.8714

> <Gold.Chemscore.Metal>
0.0000

> <Gold.Chemscore.Lipo>
92.6196

> <Gold.Chemscore.Internal_Hbond>
0.0000

> <Gold.Chemscore.DEClash>
0.0595

> <Gold.Chemscore.DEInternal>
1.1621

> <Gold.Chemscore.Rot>
1.7352

> <Gold.Chemscore.Internal.Correction>
   9.000000E+99

> <Gold.Chemscore.Hbonds>
donor molecule, donor type, donor heavy atom, donor atom, acceptor molecule, acceptor atom, score
      P1  H  6896  6908       L1    10  0.82
      P1  H  7989  7998       L1     3  0.92

> <Gold.Chemscore.Hbond.Weighted>
-6.2504

> <Gold.Chemscore.Metal.Weighted>
-0.0000

> <Gold.Chemscore.Lipo.Weighted>
-10.8365

> <Gold.Chemscore.Internal_Hbond.Weighted>
0.0000

> <Gold.Chemscore.DEClash.Weighted>
0.0595

> <Gold.Chemscore.DEInternal.Weighted>
1.1621

> <Gold.Chemscore.Rot.Weighted>
4.4420

> <Gold.Chemscore.Internal.Correction.Weighted>
   9.000000E+99

> <Gold.Protein.RotatedTorsions>
[ 6907 6896 6895 6894 ] final -143.08 input  -60.11 | X-H torsion
[ 7974 7965 7964 7962 ] final -156.32 input  175.53 | X-H torsion
[ 8008 7997 7996 7995 ] final    4.61 input   59.86 | X-H torsion
[ 10167 10162 10161 10158 ] final  -44.39 input  -65.29 | X-H torsion
[ 10718 10713 10712 10709 ] final   39.57 input   66.30 | X-H torsion
[ 10763 10752 10751 10750 ] final  -78.06 input  -60.55 | X-H torsion
[ 11005 11000 10999 10996 ] final   24.08 input  -57.11 | X-H torsion

> <Gold.Protein.ActiveResidues>
 VAL166  LYS551  ARG553  GLY616  TRP617  ASP618  TYR619  PRO620  LYS621  CYS622 
 ASP623  PHE694  ASN695  SER759  ASP760  ASP761  ALA762  ILE779  LEU786  VAL792 
 PHE793  MET794  SER795  GLU796  ALA797  LYS798  CYS799  TRP800  GLU811  SER814 

> <Gold.Protein.RotatedAtoms>
  151.0957  133.5282  159.2612 H   0  0  0  0  0  0  0  0  0  0  0  0  # atno 6907 bound_to 6896
  151.2132  135.0489  159.8929 H   0  0  0  0  0  0  0  0  0  0  0  0  # atno 6908 bound_to 6896
  152.5438  134.0770  159.8272 H   0  0  0  0  0  0  0  0  0  0  0  0  # atno 6909 bound_to 6896
  144.7598  140.4126  143.5985 H   0  0  0  0  0  0  0  0  0  0  0  0  # atno 7974 bound_to 7965
  154.7180  140.2706  155.6567 H   0  0  0  0  0  0  0  0  0  0  0  0  # atno 8008 bound_to 7997
  156.2815  140.2740  156.1768 H   0  0  0  0  0  0  0  0  0  0  0  0  # atno 8009 bound_to 7997
  155.0545  140.0371  157.2545 H   0  0  0  0  0  0  0  0  0  0  0  0  # atno 8010 bound_to 7997
  140.6899  143.2933  151.3488 H   0  0  0  0  0  0  0  0  0  0  0  0  # atno 10167 bound_to 10162
  157.3721  130.7707  149.7127 H   0  0  0  0  0  0  0  0  0  0  0  0  # atno 10718 bound_to 10713
  154.5210  135.5743  153.6681 H   0  0  0  0  0  0  0  0  0  0  0  0  # atno 10763 bound_to 10752
  152.9917  135.6182  154.2754 H   0  0  0  0  0  0  0  0  0  0  0  0  # atno 10764 bound_to 10752
  154.2675  135.2854  155.2732 H   0  0  0  0  0  0  0  0  0  0  0  0  # atno 10765 bound_to 10752
  140.3626  134.2109  155.7671 H   0  0  0  0  0  0  0  0  0  0  0  0  # atno 11005 bound_to 11000
  145.6656  139.1589  143.2784 LP  0  0  0  0  0  0  0  0  0  0  0  0  # atno 17320 bound_to 7965
  146.1650  140.6732  142.9260 LP  0  0  0  0  0  0  0  0  0  0  0  0  # atno 17321 bound_to 7965
  139.6291  144.0756  152.2460 LP  0  0  0  0  0  0  0  0  0  0  0  0  # atno 17342 bound_to 10162
  140.0225  144.6142  150.7555 LP  0  0  0  0  0  0  0  0  0  0  0  0  # atno 17343 bound_to 10162
  155.9757  130.4084  150.3827 LP  0  0  0  0  0  0  0  0  0  0  0  0  # atno 17370 bound_to 10713
  157.1919  131.0417  151.2696 LP  0  0  0  0  0  0  0  0  0  0  0  0  # atno 17371 bound_to 10713
  141.1979  133.8047  157.0605 LP  0  0  0  0  0  0  0  0  0  0  0  0  # atno 17394 bound_to 11000
  140.0615  134.9752  157.1312 LP  0  0  0  0  0  0  0  0  0  0  0  0  # atno 17395 bound_to 11000

$$$$
