AV-unprocessed.smi:104|AV-procd|sdf|997|dock9
  -GOLD-   2262017583D 1   1.00000     0.00000
 Structure written by MMmdl.
 47 49  0  0  0  0  0  0  0  0  1 V2000
  144.5573  133.0371  158.4143 C   0  0  0  0  0  0  0  0  0  0  0  0
  143.7951  134.2254  157.8418 C   0  0  0  0  0  0  0  0  0  0  0  0
  142.5802  134.3447  158.0011 O   0  0  0  0  0  0  0  0  0  0  0  0
  144.5905  135.0767  157.1767 O   0  0  0  0  0  0  0  0  0  0  0  0
  144.0126  136.1206  156.4112 C   0  0  0  0  0  0  0  0  0  0  0  0
  143.5783  135.5738  155.0450 C   0  0  2  0  0  0  0  0  0  0  0  0
  144.5609  134.6594  154.5664 O   0  0  0  0  0  0  0  0  0  0  0  0
  145.3370  135.3017  153.6140 C   0  0  1  0  0  0  0  0  0  0  0  0
  145.9239  134.2869  152.6915 N   0  0  0  0  0  0  0  0  0  0  0  0
  147.1287  133.6284  152.7787 C   0  0  0  0  0  0  0  0  0  0  0  0
  148.3553  133.9346  154.2032 Br  0  0  0  0  0  0  0  0  0  0  0  0
  147.4167  132.7868  151.8255 N   0  0  0  0  0  0  0  0  0  0  0  0
  146.3079  132.8772  150.9925 C   0  0  0  0  0  0  0  0  0  0  0  0
  145.9392  132.2576  149.7720 C   0  0  0  0  0  0  0  0  0  0  0  0
  146.7113  131.3585  149.1461 N   0  0  0  0  0  0  0  0  0  0  0  0
  144.7540  132.5906  149.2095 N   0  0  0  0  0  0  0  0  0  0  0  0
  143.9667  133.4881  149.8118 C   0  0  0  0  0  0  0  0  0  0  0  0
  144.1749  134.1510  150.9527 N   0  0  0  0  0  0  0  0  0  0  0  0
  145.3697  133.8118  151.5207 C   0  0  0  0  0  0  0  0  0  0  0  0
  144.3997  136.2312  152.8618 C   0  0  2  0  0  0  0  0  0  0  0  0
  145.1361  137.3090  152.3020 O   0  0  0  0  0  0  0  0  0  0  0  0
  145.9790  138.0180  153.0693 C   0  0  0  0  0  0  0  0  0  0  0  0
  146.8072  139.0071  152.2601 C   0  0  0  0  0  0  0  0  0  0  0  0
  146.1070  137.9188  154.2897 O   0  0  0  0  0  0  0  0  0  0  0  0
  143.4734  136.6846  153.9803 C   0  0  1  0  0  0  0  0  0  0  0  0
  142.1505  136.7966  153.4721 O   0  0  0  0  0  0  0  0  0  0  0  0
  141.1131  136.9471  154.3119 C   0  0  0  0  0  0  0  0  0  0  0  0
  139.7916  137.1247  153.5762 C   0  0  0  0  0  0  0  0  0  0  0  0
  141.1695  136.9461  155.5415 O   0  0  0  0  0  0  0  0  0  0  0  0
  145.5459  132.9538  157.9618 H   0  0  0  0  0  0  0  0  0  0  0  0
  144.0126  132.1124  158.2234 H   0  0  0  0  0  0  0  0  0  0  0  0
  144.6782  133.1509  159.4917 H   0  0  0  0  0  0  0  0  0  0  0  0
  143.1437  136.5064  156.9463 H   0  0  0  0  0  0  0  0  0  0  0  0
  144.7159  136.9459  156.2902 H   0  0  0  0  0  0  0  0  0  0  0  0
  142.6306  135.0418  155.1427 H   0  0  0  0  0  0  0  0  0  0  0  0
  146.1735  135.8101  154.0948 H   0  0  0  0  0  0  0  0  0  0  0  0
  147.6012  131.0954  149.5445 H   0  0  0  0  0  0  0  0  0  0  0  0
  146.4031  130.9477  148.2767 H   0  0  0  0  0  0  0  0  0  0  0  0
  143.0376  133.7076  149.3067 H   0  0  0  0  0  0  0  0  0  0  0  0
  143.8583  135.6512  152.1119 H   0  0  0  0  0  0  0  0  0  0  0  0
  146.2016  139.8721  151.9896 H   0  0  0  0  0  0  0  0  0  0  0  0
  147.1744  138.5406  151.3457 H   0  0  0  0  0  0  0  0  0  0  0  0
  147.6640  139.3516  152.8391 H   0  0  0  0  0  0  0  0  0  0  0  0
  143.8313  137.6339  154.3837 H   0  0  0  0  0  0  0  0  0  0  0  0
  139.6917  138.1508  153.2222 H   0  0  0  0  0  0  0  0  0  0  0  0
  138.9538  136.9026  154.2372 H   0  0  0  0  0  0  0  0  0  0  0  0
  139.7395  136.4547  152.7177 H   0  0  0  0  0  0  0  0  0  0  0  0
  1  2  1  0  0  0  0
  1 30  1  0  0  0  0
  1 31  1  0  0  0  0
  1 32  1  0  0  0  0
  2  3  2  0  0  0  0
  2  4  1  0  0  0  0
  4  5  1  0  0  0  0
  5  6  1  0  0  0  0
  5 33  1  0  0  0  0
  5 34  1  0  0  0  0
  6 25  1  0  0  0  0
  6  7  1  0  0  0  0
  6 35  1  0  0  0  0
  7  8  1  0  0  0  0
  8  9  1  0  0  0  0
  8 20  1  0  0  0  0
  8 36  1  0  0  0  0
  9 19  1  0  0  0  0
  9 10  1  0  0  0  0
 10 11  1  0  0  0  0
 10 12  2  0  0  0  0
 12 13  1  0  0  0  0
 13 19  2  0  0  0  0
 13 14  1  0  0  0  0
 14 15  1  0  0  0  0
 14 16  2  0  0  0  0
 15 37  1  0  0  0  0
 15 38  1  0  0  0  0
 16 17  1  0  0  0  0
 17 18  2  0  0  0  0
 17 39  1  0  0  0  0
 18 19  1  0  0  0  0
 20 21  1  0  0  0  0
 20 25  1  0  0  0  0
 20 40  1  0  0  0  0
 21 22  1  0  0  0  0
 22 23  1  0  0  0  0
 22 24  2  0  0  0  0
 23 41  1  0  0  0  0
 23 42  1  0  0  0  0
 23 43  1  0  0  0  0
 25 26  1  0  0  0  0
 25 44  1  0  0  0  0
 26 27  1  0  0  0  0
 27 28  1  0  0  0  0
 27 29  2  0  0  0  0
 28 45  1  0  0  0  0
 28 46  1  0  0  0  0
 28 47  1  0  0  0  0
M  END
> <s_m_source_file>
AV-unprocessed.smi

> <i_m_source_file_index>
104

> <i_lp_mmshare_version>
43012

> <i_f3d_flags>
0

> <s_epik_input>
W0NIM11DKD1PKU9bQ0gyXVtDQEBIXTFPW0NASF0oW0NAQEhdKE9DKD1PKVtDSDNdKVtDQEhdMU9DKD1PKVtDSDNdKW4oYyhCciluMiljKGMyMyluW2NIXW5jM1tOSDJd

> <s_epik_cmdline>
J2VwaWtfcHl0aG9uJywgJy1waCcsICc3LjAnLCAnLXRuJywgJzgnLCAnLW1hJywgJzIwMCcsICctbWV0YWxfYmluZGluZycsICctaW1hZScsICc8aW5maWxlLm1hZT4nLCAnLW9tYWUnLCAnPG91dGZpbGUubWFlPic=

> <r_lp_tautomer_probability>
1

> <r_epik_Ionization_Penalty>
7.36622e-05

> <r_epik_Ionization_Penalty_Charging>
0

> <r_epik_Ionization_Penalty_Neutral>
7.36622e-05

> <r_epik_State_Penalty>
-0

> <r_epik_Charging_Adjusted_Penalty>
0

> <i_epik_Tot_Q>
0

> <i_epik_Tot_abs_Q>
0

> <r_epik_Metal_State_Penalty>
-0

> <b_epik_Metal_Only>
0

> <s_epik_Chemistry_Notes>
This compound has an ester and may undergo hydrolysis at high or low pH. This compound contains an acetal/aminal-like group ( X-CH(R)-Y where X, Y are N, S, or O) that may be acid/base labile, releasing an aldehyde.

> <s_lp_Force_Field>
OPLS_2005

> <r_lp_Energy>
16.3368

> <b_lp_Chiralities_Consistent>
1

> <s_lp_Variant>
AV-unprocessed.smi:104-5

> <Gold.Version>
5.8.1

> <Gold.Id.Protein>
6NUR|6NUR_protein|mol2

> <Gold.PLP.Fitness>
37.8540

> <Gold.PLP.PLP>
-31.2484

> <Gold.PLP.part.hbond>
-2.8677

> <Gold.PLP.part.metal>
0.0000

> <Gold.PLP.part.buried>
-7.6371

> <Gold.PLP.part.nonpolar>
-24.4943

> <Gold.PLP.part.repulsive>
3.7029

> <Gold.PLP.ligand.clash>
0.0000

> <Gold.PLP.ligand.torsion>
1.2883

> <Gold.PLP.Chemscore.Hbond>
2.0000

> <Gold.PLP.Chemscore.CHOScore>
1.0000

> <Gold.PLP.Chemscore.Metal>
0.0000

> <Gold.Chemscore.Hbonds>
donor molecule, donor type, donor heavy atom, donor atom, acceptor molecule, acceptor atom, score
      L1  H    15    37       P1 10747  1.00
      P1  H 11000 11005       L1     3  1.00
      L1  C    17    39       P1 10186  1.00

> <Gold.PLP.Chemscore.Internal.Correction>
0.1822

> <Gold.Rescore>
     Score         DG    S(hbond)    S(metal)    S(lipo)     H(rot)  DE(clash)    DE(int)     intcor
     -1.40      -5.54       1.96        0.00      38.83       4.31       0.57       6.37       ----

> <Gold.Chemscore.Fitness>
-1.4007

> <Gold.Chemscore.DG>
-5.5407

> <Gold.Chemscore.ZeroCoef>
-5.4800

> <Gold.Chemscore.Hbond>
1.9591

> <Gold.Chemscore.Metal>
0.0000

> <Gold.Chemscore.Lipo>
38.8306

> <Gold.Chemscore.Internal_Hbond>
0.0000

> <Gold.Chemscore.DEClash>
0.5714

> <Gold.Chemscore.DEInternal>
6.3700

> <Gold.Chemscore.Rot>
4.3070

> <Gold.Chemscore.Internal.Correction>
   9.000000E+99

> <Gold.Chemscore.Hbonds>
donor molecule, donor type, donor heavy atom, donor atom, acceptor molecule, acceptor atom, score
      L1  H    15    37       P1 10747  0.94
      P1  H 11000 11005       L1     3  0.97

> <Gold.Chemscore.Hbond.Weighted>
-6.5434

> <Gold.Chemscore.Metal.Weighted>
-0.0000

> <Gold.Chemscore.Lipo.Weighted>
-4.5432

> <Gold.Chemscore.Internal_Hbond.Weighted>
0.0000

> <Gold.Chemscore.DEClash.Weighted>
0.5714

> <Gold.Chemscore.DEInternal.Weighted>
6.3700

> <Gold.Chemscore.Rot.Weighted>
11.0259

> <Gold.Chemscore.Internal.Correction.Weighted>
   9.000000E+99

> <Gold.Protein.RotatedTorsions>
[ 6907 6896 6895 6894 ] final   17.65 input  -60.11 | X-H torsion
[ 7974 7965 7964 7962 ] final  -45.96 input  175.53 | X-H torsion
[ 8008 7997 7996 7995 ] final   20.71 input   59.86 | X-H torsion
[ 10167 10162 10161 10158 ] final -119.82 input  -65.29 | X-H torsion
[ 10718 10713 10712 10709 ] final -177.88 input   66.30 | X-H torsion
[ 10763 10752 10751 10750 ] final -139.98 input  -60.55 | X-H torsion
[ 11005 11000 10999 10996 ] final -124.50 input  -57.11 | X-H torsion

> <Gold.Protein.ActiveResidues>
 VAL166  LYS551  ARG553  GLY616  TRP617  ASP618  TYR619  PRO620  LYS621  CYS622 
 ASP623  PHE694  ASN695  SER759  ASP760  ASP761  ALA762  ILE779  LEU786  VAL792 
 PHE793  MET794  SER795  GLU796  ALA797  LYS798  CYS799  TRP800  GLU811  SER814 

> <Gold.Protein.RotatedAtoms>
  151.8529  135.0551  160.0460 H   0  0  0  0  0  0  0  0  0  0  0  0  # atno 6907 bound_to 6896
  152.2722  133.5388  159.5454 H   0  0  0  0  0  0  0  0  0  0  0  0  # atno 6908 bound_to 6896
  150.7156  134.0598  159.3869 H   0  0  0  0  0  0  0  0  0  0  0  0  # atno 6909 bound_to 6896
  145.9767  140.7326  142.9383 H   0  0  0  0  0  0  0  0  0  0  0  0  # atno 7974 bound_to 7965
  154.9396  140.3051  155.5127 H   0  0  0  0  0  0  0  0  0  0  0  0  # atno 8008 bound_to 7997
  156.2997  140.2339  156.4401 H   0  0  0  0  0  0  0  0  0  0  0  0  # atno 8009 bound_to 7997
  154.8158  140.0426  157.1364 H   0  0  0  0  0  0  0  0  0  0  0  0  # atno 8010 bound_to 7997
  140.0425  143.5139  152.2123 H   0  0  0  0  0  0  0  0  0  0  0  0  # atno 10167 bound_to 10162
  156.8360  130.9670  151.3103 H   0  0  0  0  0  0  0  0  0  0  0  0  # atno 10718 bound_to 10713
  154.8593  135.3566  154.5633 H   0  0  0  0  0  0  0  0  0  0  0  0  # atno 10763 bound_to 10752
  153.6248  135.7004  153.5302 H   0  0  0  0  0  0  0  0  0  0  0  0  # atno 10764 bound_to 10752
  153.3098  135.4182  155.1286 H   0  0  0  0  0  0  0  0  0  0  0  0  # atno 10765 bound_to 10752
  140.9836  134.0638  157.3737 H   0  0  0  0  0  0  0  0  0  0  0  0  # atno 11005 bound_to 11000
  144.6851  140.2840  143.7288 LP  0  0  0  0  0  0  0  0  0  0  0  0  # atno 17320 bound_to 7965
  145.7828  139.1897  143.2148 LP  0  0  0  0  0  0  0  0  0  0  0  0  # atno 17321 bound_to 7965
  139.6005  144.7581  151.3184 LP  0  0  0  0  0  0  0  0  0  0  0  0  # atno 17342 bound_to 10162
  140.7254  143.7019  150.7838 LP  0  0  0  0  0  0  0  0  0  0  0  0  # atno 17343 bound_to 10162
  157.6381  130.8783  149.9397 LP  0  0  0  0  0  0  0  0  0  0  0  0  # atno 17370 bound_to 10713
  156.0907  130.3663  150.0400 LP  0  0  0  0  0  0  0  0  0  0  0  0  # atno 17371 bound_to 10713
  139.8961  135.0144  156.7033 LP  0  0  0  0  0  0  0  0  0  0  0  0  # atno 17394 bound_to 11000
  140.7149  133.9191  155.8108 LP  0  0  0  0  0  0  0  0  0  0  0  0  # atno 17395 bound_to 11000

$$$$
