AV-unprocessed.smi:2516|AV-procd|sdf|9898|dock2
  -GOLD-   2272013533D 1   1.00000     0.00000
 Structure written by MMmdl.
 47 48  0  0  0  0  0  0  0  0  1 V2000
  148.1538  128.5473  152.4057 C   0  0  0  0  0  0  0  0  0  0  0  0
  147.0857  129.5299  152.8995 C   0  0  0  0  0  0  0  0  0  0  0  0
  147.6771  130.7724  153.3681 N   0  0  0  0  0  0  0  0  0  0  0  0
  148.6575  130.7094  154.3016 N   0  0  0  0  0  0  0  0  0  0  0  0
  149.0003  131.9647  154.5374 C   0  0  0  0  0  0  0  0  0  0  0  0
  150.0887  132.2648  155.5273 C   0  0  0  0  0  0  0  0  0  0  0  0
  148.2065  132.8563  153.7683 C   0  0  0  0  0  0  0  0  0  0  0  0
  148.3396  134.2672  153.7872 N   0  0  0  0  0  0  0  0  0  0  0  0
  148.4072  135.0496  154.8752 C   0  0  0  0  0  0  0  0  0  0  0  0
  148.3042  134.6521  156.0357 O   0  0  0  0  0  0  0  0  0  0  0  0
  148.6222  136.3300  154.5409 N   0  0  0  0  0  0  0  0  0  0  0  0
  148.7829  137.4403  155.4791 C   0  0  2  0  0  0  0  0  0  0  0  0
  147.4635  138.2323  155.5358 C   0  0  0  0  0  0  0  0  0  0  0  0
  150.0051  138.3054  155.0739 C   0  0  0  0  0  0  0  0  0  0  0  0
  151.2807  137.4606  154.8652 C   0  0  0  0  0  0  0  0  0  0  0  0
  152.4919  138.3475  154.5354 C   0  0  0  0  0  0  0  0  0  0  0  0
  152.6895  139.3039  155.5691 O   0  0  0  0  0  0  0  0  0  0  0  0
  151.5871  140.1907  155.7130 C   0  0  0  0  0  0  0  0  0  0  0  0
  150.3249  139.4059  156.1061 C   0  0  0  0  0  0  0  0  0  0  0  0
  147.3863  132.0770  152.9955 C   0  0  0  0  0  0  0  0  0  0  0  0
  146.3736  132.4128  151.9442 C   0  0  0  0  0  0  0  0  0  0  0  0
  147.6958  127.6281  152.0407 H   0  0  0  0  0  0  0  0  0  0  0  0
  148.8452  128.2796  153.2050 H   0  0  0  0  0  0  0  0  0  0  0  0
  148.7350  128.9771  151.5892 H   0  0  0  0  0  0  0  0  0  0  0  0
  146.3836  129.7500  152.0937 H   0  0  0  0  0  0  0  0  0  0  0  0
  146.4986  129.0868  153.7034 H   0  0  0  0  0  0  0  0  0  0  0  0
  150.2083  133.3378  155.6768 H   0  0  0  0  0  0  0  0  0  0  0  0
  151.0461  131.8695  155.1871 H   0  0  0  0  0  0  0  0  0  0  0  0
  149.8695  131.8194  156.4981 H   0  0  0  0  0  0  0  0  0  0  0  0
  148.5460  134.7044  152.9010 H   0  0  0  0  0  0  0  0  0  0  0  0
  148.6937  136.5554  153.5596 H   0  0  0  0  0  0  0  0  0  0  0  0
  148.9775  137.0375  156.4749 H   0  0  0  0  0  0  0  0  0  0  0  0
  147.4824  138.9952  156.3132 H   0  0  0  0  0  0  0  0  0  0  0  0
  146.6219  137.5762  155.7612 H   0  0  0  0  0  0  0  0  0  0  0  0
  147.2541  138.7247  154.5856 H   0  0  0  0  0  0  0  0  0  0  0  0
  149.7728  138.7954  154.1266 H   0  0  0  0  0  0  0  0  0  0  0  0
  151.4918  136.8833  155.7664 H   0  0  0  0  0  0  0  0  0  0  0  0
  151.1423  136.7384  154.0603 H   0  0  0  0  0  0  0  0  0  0  0  0
  153.3899  137.7359  154.4475 H   0  0  0  0  0  0  0  0  0  0  0  0
  152.3560  138.8519  153.5774 H   0  0  0  0  0  0  0  0  0  0  0  0
  151.8258  140.9240  156.4835 H   0  0  0  0  0  0  0  0  0  0  0  0
  151.4281  140.7444  154.7862 H   0  0  0  0  0  0  0  0  0  0  0  0
  149.4940  140.1046  156.1975 H   0  0  0  0  0  0  0  0  0  0  0  0
  150.4689  138.9592  157.0906 H   0  0  0  0  0  0  0  0  0  0  0  0
  146.5997  133.3705  151.4759 H   0  0  0  0  0  0  0  0  0  0  0  0
  145.3749  132.4742  152.3765 H   0  0  0  0  0  0  0  0  0  0  0  0
  146.3538  131.6675  151.1502 H   0  0  0  0  0  0  0  0  0  0  0  0
  1  2  1  0  0  0  0
  1 22  1  0  0  0  0
  1 23  1  0  0  0  0
  1 24  1  0  0  0  0
  2  3  1  0  0  0  0
  2 25  1  0  0  0  0
  2 26  1  0  0  0  0
  3 20  1  0  0  0  0
  3  4  1  0  0  0  0
  4  5  2  0  0  0  0
  5  6  1  0  0  0  0
  5  7  1  0  0  0  0
  6 27  1  0  0  0  0
  6 28  1  0  0  0  0
  6 29  1  0  0  0  0
  7  8  1  0  0  0  0
  7 20  2  0  0  0  0
  8  9  1  0  0  0  0
  8 30  1  0  0  0  0
  9 10  2  0  0  0  0
  9 11  1  0  0  0  0
 11 12  1  0  0  0  0
 11 31  1  0  0  0  0
 12 13  1  0  0  0  0
 12 14  1  0  0  0  0
 12 32  1  0  0  0  0
 13 33  1  0  0  0  0
 13 34  1  0  0  0  0
 13 35  1  0  0  0  0
 14 19  1  0  0  0  0
 14 15  1  0  0  0  0
 14 36  1  0  0  0  0
 15 16  1  0  0  0  0
 15 37  1  0  0  0  0
 15 38  1  0  0  0  0
 16 17  1  0  0  0  0
 16 39  1  0  0  0  0
 16 40  1  0  0  0  0
 17 18  1  0  0  0  0
 18 19  1  0  0  0  0
 18 41  1  0  0  0  0
 18 42  1  0  0  0  0
 19 43  1  0  0  0  0
 19 44  1  0  0  0  0
 20 21  1  0  0  0  0
 21 45  1  0  0  0  0
 21 46  1  0  0  0  0
 21 47  1  0  0  0  0
M  END
> <s_m_source_file>
AV-unprocessed.smi

> <i_m_source_file_index>
2516

> <i_lp_mmshare_version>
43012

> <i_f3d_flags>
0

> <s_epik_input>
W0NIM11bQ0gyXW4xbmMoW0NIM10pYyhjMVtDSDNdKVtOSF1DKD1PKVtOSF1bQ0BIXShbQ0gzXSlbQ0hdMltDSDJdW0NIMl1PW0NIMl1bQ0gyXTI=

> <s_epik_cmdline>
J2VwaWtfcHl0aG9uJywgJy1waCcsICc3LjAnLCAnLXRuJywgJzgnLCAnLW1hJywgJzIwMCcsICctbWV0YWxfYmluZGluZycsICctaW1hZScsICc8aW5maWxlLm1hZT4nLCAnLW9tYWUnLCAnPG91dGZpbGUubWFlPic=

> <r_lp_tautomer_probability>
1

> <r_epik_Ionization_Penalty>
0.00383358

> <r_epik_Ionization_Penalty_Charging>
0

> <r_epik_Ionization_Penalty_Neutral>
0.00383358

> <r_epik_State_Penalty>
0.00270714

> <r_epik_Charging_Adjusted_Penalty>
0.00270714

> <i_epik_Tot_Q>
0

> <i_epik_Tot_abs_Q>
0

> <r_epik_Metal_State_Penalty>
-0

> <b_epik_Metal_Only>
0

> <s_lp_Force_Field>
OPLS_2005

> <r_lp_Energy>
15.1794

> <b_lp_Chiralities_Consistent>
1

> <s_lp_Variant>
AV-unprocessed.smi:2516-1

> <Gold.Version>
5.8.1

> <Gold.Id.Protein>
6NUR|6NUR_protein|mol2

> <Gold.PLP.Fitness>
40.3968

> <Gold.PLP.PLP>
-32.3092

> <Gold.PLP.part.hbond>
-3.0000

> <Gold.PLP.part.metal>
0.0000

> <Gold.PLP.part.buried>
-1.8964

> <Gold.PLP.part.nonpolar>
-26.9820

> <Gold.PLP.part.repulsive>
0.0826

> <Gold.PLP.ligand.clash>
0.0000

> <Gold.PLP.ligand.torsion>
0.6854

> <Gold.PLP.Chemscore.Hbond>
3.0000

> <Gold.PLP.Chemscore.CHOScore>
0.0000

> <Gold.PLP.Chemscore.Metal>
0.0000

> <Gold.Chemscore.Hbonds>
donor molecule, donor type, donor heavy atom, donor atom, acceptor molecule, acceptor atom, score
      L1  H     8    30       P1  7948  1.00
      L1  H    11    31       P1  7948  1.00
      P1  H  7997  8009       L1    17  1.00

> <Gold.PLP.Chemscore.Internal.Correction>
0.4583

> <Gold.Rescore>
     Score         DG    S(hbond)    S(metal)    S(lipo)     H(rot)  DE(clash)    DE(int)     intcor
     18.63     -19.37       2.58        0.00      73.34       1.30       0.07       0.67       ----

> <Gold.Chemscore.Fitness>
18.6300

> <Gold.Chemscore.DG>
-19.3667

> <Gold.Chemscore.ZeroCoef>
-5.4800

> <Gold.Chemscore.Hbond>
2.5841

> <Gold.Chemscore.Metal>
0.0000

> <Gold.Chemscore.Lipo>
73.3444

> <Gold.Chemscore.Internal_Hbond>
0.0000

> <Gold.Chemscore.DEClash>
0.0664

> <Gold.Chemscore.DEInternal>
0.6704

> <Gold.Chemscore.Rot>
1.2990

> <Gold.Chemscore.Internal.Correction>
   9.000000E+99

> <Gold.Chemscore.Hbonds>
donor molecule, donor type, donor heavy atom, donor atom, acceptor molecule, acceptor atom, score
      L1  H     8    30       P1  7948  0.29
      L1  H    11    31       P1  7948  0.99
      P1  H  7997  8009       L1    17  0.81

> <Gold.Chemscore.Hbond.Weighted>
-8.6308

> <Gold.Chemscore.Metal.Weighted>
-0.0000

> <Gold.Chemscore.Lipo.Weighted>
-8.5813

> <Gold.Chemscore.Internal_Hbond.Weighted>
0.0000

> <Gold.Chemscore.DEClash.Weighted>
0.0664

> <Gold.Chemscore.DEInternal.Weighted>
0.6704

> <Gold.Chemscore.Rot.Weighted>
3.3254

> <Gold.Chemscore.Internal.Correction.Weighted>
   9.000000E+99

> <Gold.Protein.RotatedTorsions>
[ 6907 6896 6895 6894 ] final  155.33 input  -60.11 | X-H torsion
[ 7974 7965 7964 7962 ] final   17.67 input  175.53 | X-H torsion
[ 8008 7997 7996 7995 ] final -145.45 input   59.86 | X-H torsion
[ 10167 10162 10161 10158 ] final -159.17 input  -65.29 | X-H torsion
[ 10718 10713 10712 10709 ] final   17.20 input   66.30 | X-H torsion
[ 10763 10752 10751 10750 ] final -167.24 input  -60.55 | X-H torsion
[ 11005 11000 10999 10996 ] final   65.44 input  -57.11 | X-H torsion

> <Gold.Protein.ActiveResidues>
 VAL166  LYS551  ARG553  GLY616  TRP617  ASP618  TYR619  PRO620  LYS621  CYS622 
 ASP623  PHE694  ASN695  SER759  ASP760  ASP761  ALA762  ILE779  LEU786  VAL792 
 PHE793  MET794  SER795  GLU796  ALA797  LYS798  CYS799  TRP800  GLU811  SER814 

> <Gold.Protein.RotatedAtoms>
  152.0456  133.3996  159.4355 H   0  0  0  0  0  0  0  0  0  0  0  0  # atno 6907 bound_to 6896
  150.6873  134.3365  159.4859 H   0  0  0  0  0  0  0  0  0  0  0  0  # atno 6908 bound_to 6896
  152.1169  134.9233  160.0615 H   0  0  0  0  0  0  0  0  0  0  0  0  # atno 6909 bound_to 6896
  146.2210  139.8568  142.8612 H   0  0  0  0  0  0  0  0  0  0  0  0  # atno 7974 bound_to 7965
  155.5433  140.0610  157.2865 H   0  0  0  0  0  0  0  0  0  0  0  0  # atno 8008 bound_to 7997
  154.4445  140.1915  156.0657 H   0  0  0  0  0  0  0  0  0  0  0  0  # atno 8009 bound_to 7997
  156.0569  140.3277  155.7419 H   0  0  0  0  0  0  0  0  0  0  0  0  # atno 8010 bound_to 7997
  139.6636  143.9869  152.2241 H   0  0  0  0  0  0  0  0  0  0  0  0  # atno 10167 bound_to 10162
  157.0787  130.6378  149.5821 H   0  0  0  0  0  0  0  0  0  0  0  0  # atno 10718 bound_to 10713
  154.6752  135.2945  154.9688 H   0  0  0  0  0  0  0  0  0  0  0  0  # atno 10763 bound_to 10752
  154.0701  135.6619  153.4827 H   0  0  0  0  0  0  0  0  0  0  0  0  # atno 10764 bound_to 10752
  153.0512  135.5173  154.7768 H   0  0  0  0  0  0  0  0  0  0  0  0  # atno 10765 bound_to 10752
  139.9894  134.6615  156.0118 H   0  0  0  0  0  0  0  0  0  0  0  0  # atno 11005 bound_to 11000
  145.2745  141.0119  143.3753 LP  0  0  0  0  0  0  0  0  0  0  0  0  # atno 17320 bound_to 7965
  144.9198  139.4426  143.6547 LP  0  0  0  0  0  0  0  0  0  0  0  0  # atno 17321 bound_to 7965
  139.9614  144.6555  150.8075 LP  0  0  0  0  0  0  0  0  0  0  0  0  # atno 17342 bound_to 10162
  140.7590  143.3119  151.2824 LP  0  0  0  0  0  0  0  0  0  0  0  0  # atno 17343 bound_to 10162
  155.9930  130.4989  150.7361 LP  0  0  0  0  0  0  0  0  0  0  0  0  # atno 17370 bound_to 10713
  157.4818  131.0903  151.0527 LP  0  0  0  0  0  0  0  0  0  0  0  0  # atno 17371 bound_to 10713
  141.1553  133.6543  156.4141 LP  0  0  0  0  0  0  0  0  0  0  0  0  # atno 17394 bound_to 11000
  140.4938  134.6550  157.5221 LP  0  0  0  0  0  0  0  0  0  0  0  0  # atno 17395 bound_to 11000

$$$$
