AV-unprocessed.smi:1668|AV-procd|sdf|6681|dock5
  -GOLD-   22720 7393D 1   1.00000     0.00000
 Structure written by MMmdl.
 44 46  0  0  0  0  0  0  0  0  1 V2000
  146.4821  142.2844  153.8154 C   0  0  0  0  0  0  0  0  0  0  0  0
  147.8623  142.3215  154.1471 O   0  0  0  0  0  0  0  0  0  0  0  0
  148.5157  141.1232  154.3383 C   0  0  0  0  0  0  0  0  0  0  0  0
  148.0148  139.8675  153.9221 C   0  0  0  0  0  0  0  0  0  0  0  0
  148.7555  138.6935  154.1503 C   0  0  0  0  0  0  0  0  0  0  0  0
  150.0134  138.7424  154.7997 C   0  0  0  0  0  0  0  0  0  0  0  0
  150.7875  137.6233  155.0280 O   0  0  0  0  0  0  0  0  0  0  0  0
  150.1660  136.3484  154.9675 C   0  0  0  0  0  0  0  0  0  0  0  0
  150.5148  139.9974  155.2255 C   0  0  0  0  0  0  0  0  0  0  0  0
  151.8869  140.1073  155.8922 C   0  0  2  0  0  0  0  0  0  0  0  0
  152.9299  139.6142  155.0753 O   0  0  0  0  0  0  0  0  0  0  0  0
  151.9491  139.3696  157.2487 C   0  0  0  0  0  0  0  0  0  0  0  0
  152.4054  140.2388  158.3342 N   0  0  0  0  0  0  0  0  0  0  0  0
  153.2758  139.9003  159.3149 C   0  0  0  0  0  0  0  0  0  0  0  0
  153.7868  138.7920  159.4751 O   0  0  0  0  0  0  0  0  0  0  0  0
  153.5141  141.0019  160.0636 N   0  0  0  0  0  0  0  0  0  0  0  0
  154.4256  141.1074  161.1961 C   0  0  0  0  0  0  0  0  0  0  0  0
  152.7893  142.0798  159.5396 C   0  0  0  0  0  0  0  0  0  0  0  0
  152.7228  143.4263  159.9365 C   0  0  0  0  0  0  0  0  0  0  0  0
  151.8967  144.2844  159.1734 C   0  0  0  0  0  0  0  0  0  0  0  0
  151.1726  143.7925  158.0567 C   0  0  0  0  0  0  0  0  0  0  0  0
  151.2574  142.4320  157.6804 C   0  0  0  0  0  0  0  0  0  0  0  0
  152.0853  141.6003  158.4551 C   0  0  0  0  0  0  0  0  0  0  0  0
  149.7635  141.1699  154.9878 C   0  0  0  0  0  0  0  0  0  0  0  0
  146.1133  143.3030  153.6961 H   0  0  0  0  0  0  0  0  0  0  0  0
  145.8952  141.8115  154.6039 H   0  0  0  0  0  0  0  0  0  0  0  0
  146.3120  141.7603  152.8738 H   0  0  0  0  0  0  0  0  0  0  0  0
  147.0635  139.7768  153.4205 H   0  0  0  0  0  0  0  0  0  0  0  0
  148.3324  137.7601  153.8126 H   0  0  0  0  0  0  0  0  0  0  0  0
  150.9289  135.5752  155.0585 H   0  0  0  0  0  0  0  0  0  0  0  0
  149.6591  136.1976  154.0130 H   0  0  0  0  0  0  0  0  0  0  0  0
  149.4557  136.2099  155.7833 H   0  0  0  0  0  0  0  0  0  0  0  0
  152.1226  141.1592  156.0542 H   0  0  0  0  0  0  0  0  0  0  0  0
  152.8260  138.6788  154.9905 H   0  0  0  0  0  0  0  0  0  0  0  0
  150.9716  138.9559  157.4979 H   0  0  0  0  0  0  0  0  0  0  0  0
  152.6234  138.5145  157.1759 H   0  0  0  0  0  0  0  0  0  0  0  0
  153.9766  141.6970  161.9960 H   0  0  0  0  0  0  0  0  0  0  0  0
  155.3503  141.5955  160.8873 H   0  0  0  0  0  0  0  0  0  0  0  0
  154.6781  140.1285  161.6060 H   0  0  0  0  0  0  0  0  0  0  0  0
  153.2806  143.7943  160.7846 H   0  0  0  0  0  0  0  0  0  0  0  0
  151.8180  145.3273  159.4431 H   0  0  0  0  0  0  0  0  0  0  0  0
  150.5506  144.4656  157.4850 H   0  0  0  0  0  0  0  0  0  0  0  0
  150.7135  142.0561  156.8267 H   0  0  0  0  0  0  0  0  0  0  0  0
  150.1541  142.1293  155.2945 H   0  0  0  0  0  0  0  0  0  0  0  0
  1  2  1  0  0  0  0
  1 25  1  0  0  0  0
  1 26  1  0  0  0  0
  1 27  1  0  0  0  0
  2  3  1  0  0  0  0
  3 24  1  0  0  0  0
  3  4  2  0  0  0  0
  4  5  1  0  0  0  0
  4 28  1  0  0  0  0
  5  6  2  0  0  0  0
  5 29  1  0  0  0  0
  6  7  1  0  0  0  0
  6  9  1  0  0  0  0
  7  8  1  0  0  0  0
  8 30  1  0  0  0  0
  8 31  1  0  0  0  0
  8 32  1  0  0  0  0
  9 10  1  0  0  0  0
  9 24  2  0  0  0  0
 10 11  1  0  0  0  0
 10 12  1  0  0  0  0
 10 33  1  0  0  0  0
 11 34  1  0  0  0  0
 12 13  1  0  0  0  0
 12 35  1  0  0  0  0
 12 36  1  0  0  0  0
 13 23  1  0  0  0  0
 13 14  1  0  0  0  0
 14 15  2  0  0  0  0
 14 16  1  0  0  0  0
 16 17  1  0  0  0  0
 16 18  1  0  0  0  0
 17 37  1  0  0  0  0
 17 38  1  0  0  0  0
 17 39  1  0  0  0  0
 18 23  2  0  0  0  0
 18 19  1  0  0  0  0
 19 20  2  0  0  0  0
 19 40  1  0  0  0  0
 20 21  1  0  0  0  0
 20 41  1  0  0  0  0
 21 22  2  0  0  0  0
 21 42  1  0  0  0  0
 22 23  1  0  0  0  0
 22 43  1  0  0  0  0
 24 44  1  0  0  0  0
M  END
> <s_m_source_file>
AV-unprocessed.smi

> <i_m_source_file_index>
1668

> <i_lp_mmshare_version>
43012

> <i_f3d_flags>
0

> <s_epik_input>
W0NIM11PYzFbY0hdW2NIXWMoT1tDSDNdKWMoW2NIXTEpW0NASF0oW09IXSlbQ0gyXW4oYyg9TyluMltDSDNdKWMoYzIzKVtjSF1bY0hdW2NIXVtjSF0z

> <s_epik_cmdline>
J2VwaWtfcHl0aG9uJywgJy1waCcsICc3LjAnLCAnLXRuJywgJzgnLCAnLW1hJywgJzIwMCcsICctbWV0YWxfYmluZGluZycsICctaW1hZScsICc8aW5maWxlLm1hZT4nLCAnLW9tYWUnLCAnPG91dGZpbGUubWFlPic=

> <r_lp_tautomer_probability>
1

> <r_epik_Ionization_Penalty>
1.34538e-06

> <r_epik_Ionization_Penalty_Charging>
1.76928e-09

> <r_epik_Ionization_Penalty_Neutral>
1.34362e-06

> <r_epik_State_Penalty>
-0

> <r_epik_Charging_Adjusted_Penalty>
1.76928e-09

> <i_epik_Tot_Q>
0

> <i_epik_Tot_abs_Q>
0

> <r_epik_Metal_State_Penalty>
-0

> <b_epik_Metal_Only>
0

> <s_lp_Force_Field>
OPLS_2005

> <r_lp_Energy>
46.5536

> <b_lp_Chiralities_Consistent>
1

> <s_lp_Variant>
AV-unprocessed.smi:1668-1

> <Gold.Version>
5.8.1

> <Gold.Id.Protein>
6NUR|6NUR_protein|mol2

> <Gold.PLP.Fitness>
53.3393

> <Gold.PLP.PLP>
-53.2178

> <Gold.PLP.part.hbond>
-2.5678

> <Gold.PLP.part.metal>
0.0000

> <Gold.PLP.part.buried>
-4.0604

> <Gold.PLP.part.nonpolar>
-47.6098

> <Gold.PLP.part.repulsive>
1.2195

> <Gold.PLP.ligand.clash>
0.0103

> <Gold.PLP.ligand.torsion>
1.4707

> <Gold.PLP.Chemscore.Hbond>
1.0000

> <Gold.PLP.Chemscore.CHOScore>
0.0000

> <Gold.PLP.Chemscore.Metal>
0.0000

> <Gold.Chemscore.Hbonds>
donor molecule, donor type, donor heavy atom, donor atom, acceptor molecule, acceptor atom, score
      P1  H  7997  8010       L1    11  1.00

> <Gold.PLP.Chemscore.Internal.Correction>
0.0732

> <Gold.Rescore>
     Score         DG    S(hbond)    S(metal)    S(lipo)     H(rot)  DE(clash)    DE(int)     intcor
     16.21     -18.19       0.59        0.00     140.93       2.24       0.10       1.88       ----

> <Gold.Chemscore.Fitness>
16.2129

> <Gold.Chemscore.DG>
-18.1924

> <Gold.Chemscore.ZeroCoef>
-5.4800

> <Gold.Chemscore.Hbond>
0.5898

> <Gold.Chemscore.Metal>
0.0000

> <Gold.Chemscore.Lipo>
140.9347

> <Gold.Chemscore.Internal_Hbond>
0.0000

> <Gold.Chemscore.DEClash>
0.0969

> <Gold.Chemscore.DEInternal>
1.8826

> <Gold.Chemscore.Rot>
2.2448

> <Gold.Chemscore.Internal.Correction>
   9.000000E+99

> <Gold.Chemscore.Hbonds>
donor molecule, donor type, donor heavy atom, donor atom, acceptor molecule, acceptor atom, score
      P1  H  7997  8010       L1    11  0.47

> <Gold.Chemscore.Hbond.Weighted>
-1.9698

> <Gold.Chemscore.Metal.Weighted>
-0.0000

> <Gold.Chemscore.Lipo.Weighted>
-16.4894

> <Gold.Chemscore.Internal_Hbond.Weighted>
0.0000

> <Gold.Chemscore.DEClash.Weighted>
0.0969

> <Gold.Chemscore.DEInternal.Weighted>
1.8826

> <Gold.Chemscore.Rot.Weighted>
5.7467

> <Gold.Chemscore.Internal.Correction.Weighted>
   9.000000E+99

> <Gold.Protein.RotatedTorsions>
[ 6907 6896 6895 6894 ] final  128.24 input  -60.11 | X-H torsion
[ 7974 7965 7964 7962 ] final    2.23 input  175.53 | X-H torsion
[ 8008 7997 7996 7995 ] final  106.03 input   59.86 | X-H torsion
[ 10167 10162 10161 10158 ] final  -15.72 input  -65.29 | X-H torsion
[ 10718 10713 10712 10709 ] final   19.41 input   66.30 | X-H torsion
[ 10763 10752 10751 10750 ] final  -70.40 input  -60.55 | X-H torsion
[ 11005 11000 10999 10996 ] final  138.84 input  -57.11 | X-H torsion

> <Gold.Protein.ActiveResidues>
 VAL166  LYS551  ARG553  GLY616  TRP617  ASP618  TYR619  PRO620  LYS621  CYS622 
 ASP623  PHE694  ASN695  SER759  ASP760  ASP761  ALA762  ILE779  LEU786  VAL792 
 PHE793  MET794  SER795  GLU796  ALA797  LYS798  CYS799  TRP800  GLU811  SER814 

> <Gold.Protein.RotatedAtoms>
  152.3738  133.6454  159.6107 H   0  0  0  0  0  0  0  0  0  0  0  0  # atno 6907 bound_to 6896
  150.7688  133.9227  159.3411 H   0  0  0  0  0  0  0  0  0  0  0  0  # atno 6908 bound_to 6896
  151.7045  135.0925  160.0308 H   0  0  0  0  0  0  0  0  0  0  0  0  # atno 6909 bound_to 6896
  146.2443  140.0868  142.8354 H   0  0  0  0  0  0  0  0  0  0  0  0  # atno 7974 bound_to 7965
  156.1709  140.3120  155.8972 H   0  0  0  0  0  0  0  0  0  0  0  0  # atno 8008 bound_to 7997
  155.3588  140.0475  157.3063 H   0  0  0  0  0  0  0  0  0  0  0  0  # atno 8009 bound_to 7997
  154.5240  140.2208  155.8934 H   0  0  0  0  0  0  0  0  0  0  0  0  # atno 8010 bound_to 7997
  140.7223  143.5189  150.9657 H   0  0  0  0  0  0  0  0  0  0  0  0  # atno 10167 bound_to 10162
  157.1101  130.6505  149.5895 H   0  0  0  0  0  0  0  0  0  0  0  0  # atno 10718 bound_to 10713
  154.4172  135.5995  153.5988 H   0  0  0  0  0  0  0  0  0  0  0  0  # atno 10763 bound_to 10752
  152.9792  135.5943  154.3999 H   0  0  0  0  0  0  0  0  0  0  0  0  # atno 10764 bound_to 10752
  154.3820  135.2841  155.2184 H   0  0  0  0  0  0  0  0  0  0  0  0  # atno 10765 bound_to 10752
  140.0212  134.9396  157.0477 H   0  0  0  0  0  0  0  0  0  0  0  0  # atno 11005 bound_to 11000
  145.0685  140.9139  143.4896 LP  0  0  0  0  0  0  0  0  0  0  0  0  # atno 17320 bound_to 7965
  145.0997  139.2831  143.5692 LP  0  0  0  0  0  0  0  0  0  0  0  0  # atno 17321 bound_to 7965
  139.8906  143.6958  152.3146 LP  0  0  0  0  0  0  0  0  0  0  0  0  # atno 17342 bound_to 10162
  139.7273  144.7590  151.0859 LP  0  0  0  0  0  0  0  0  0  0  0  0  # atno 17343 bound_to 10162
  155.9852  130.4881  150.7022 LP  0  0  0  0  0  0  0  0  0  0  0  0  # atno 17370 bound_to 10713
  157.4566  131.0878  151.0789 LP  0  0  0  0  0  0  0  0  0  0  0  0  # atno 17371 bound_to 10713
  140.4384  134.1706  155.7172 LP  0  0  0  0  0  0  0  0  0  0  0  0  # atno 17394 bound_to 11000
  141.1775  133.8484  157.1373 LP  0  0  0  0  0  0  0  0  0  0  0  0  # atno 17395 bound_to 11000

$$$$
