AV-unprocessed.smi:3141|AV-procd|sdf|11964|dock8
  -GOLD-   2272017363D 1   1.00000     0.00000
 Structure written by MMmdl.
 36 38  0  0  0  0  0  0  0  0  2 V2000
  151.2711  141.5298  158.6014 O   0  0  0  0  0  0  0  0  0  0  0  0
  150.6563  142.1382  157.7254 C   0  0  0  0  0  0  0  0  0  0  0  0
  150.6296  143.4719  157.6096 N   0  0  0  0  0  0  0  0  0  0  0  0
  151.2952  144.3901  158.4754 C   0  0  0  0  0  0  0  0  0  0  0  0
  152.6658  144.8780  158.0585 C   0  0  0  0  0  0  0  0  0  0  0  0
  152.5337  143.9044  159.1968 C   0  0  0  0  0  0  0  0  0  0  0  0
  149.9150  141.5437  156.7795 N   0  0  0  0  0  0  0  0  0  0  0  0
  149.7545  140.0982  156.6053 C   0  0  2  0  0  0  0  0  0  0  0  0
  151.1424  139.4384  156.4766 C   0  0  0  0  0  0  0  0  0  0  0  0
  151.3057  139.0072  155.0087 C   0  0  0  0  0  0  0  0  0  0  0  0
  150.1448  139.6486  154.2468 C   0  0  0  0  0  0  0  0  0  0  0  0
  149.0311  139.7162  155.2965 C   0  0  2  0  0  0  0  0  0  0  0  0
  147.8531  140.5345  154.9503 N   0  0  0  0  0  0  0  0  0  0  0  0
  147.8720  141.8627  154.6062 C   0  0  0  0  0  0  0  0  0  0  0  0
  146.5796  142.2166  154.3187 C   0  0  0  0  0  0  0  0  0  0  0  0
  145.8238  141.0892  154.4893 N   0  3  0  0  0  0  0  0  0  0  0  0
  146.5979  140.0668  154.8667 C   0  0  0  0  0  0  0  0  0  0  0  0
  150.0966  143.8722  156.8513 H   0  0  0  0  0  0  0  0  0  0  0  0
  150.6774  145.1063  159.0157 H   0  0  0  0  0  0  0  0  0  0  0  0
  153.0778  144.5033  157.1233 H   0  0  0  0  0  0  0  0  0  0  0  0
  152.9289  145.9048  158.3041 H   0  0  0  0  0  0  0  0  0  0  0  0
  152.7084  144.2814  160.2026 H   0  0  0  0  0  0  0  0  0  0  0  0
  152.8568  142.8798  159.0221 H   0  0  0  0  0  0  0  0  0  0  0  0
  149.4468  142.1334  156.1068 H   0  0  0  0  0  0  0  0  0  0  0  0
  149.2254  139.6852  157.4663 H   0  0  0  0  0  0  0  0  0  0  0  0
  151.9442  140.1154  156.7758 H   0  0  0  0  0  0  0  0  0  0  0  0
  151.2126  138.5660  157.1274 H   0  0  0  0  0  0  0  0  0  0  0  0
  152.2735  139.2960  154.5977 H   0  0  0  0  0  0  0  0  0  0  0  0
  151.2331  137.9211  154.9386 H   0  0  0  0  0  0  0  0  0  0  0  0
  150.4466  140.6445  153.9229 H   0  0  0  0  0  0  0  0  0  0  0  0
  149.8588  139.0779  153.3628 H   0  0  0  0  0  0  0  0  0  0  0  0
  148.6549  138.6988  155.4203 H   0  0  0  0  0  0  0  0  0  0  0  0
  148.7836  142.4425  154.5861 H   0  0  0  0  0  0  0  0  0  0  0  0
  146.1542  143.1595  154.0072 H   0  0  0  0  0  0  0  0  0  0  0  0
  146.2647  139.0624  155.0537 H   0  0  0  0  0  0  0  0  0  0  0  0
  144.8239  141.0324  154.3423 H   0  0  0  0  0  0  0  0  0  0  0  0
  1  2  2  0  0  0  0
  2  3  1  0  0  0  0
  2  7  1  0  0  0  0
  3  4  1  0  0  0  0
  3 18  1  0  0  0  0
  4  6  1  0  0  0  0
  4  5  1  0  0  0  0
  4 19  1  0  0  0  0
  5  6  1  0  0  0  0
  5 20  1  0  0  0  0
  5 21  1  0  0  0  0
  6 22  1  0  0  0  0
  6 23  1  0  0  0  0
  7  8  1  0  0  0  0
  7 24  1  0  0  0  0
  8 12  1  0  0  0  0
  8  9  1  0  0  0  0
  8 25  1  0  0  0  0
  9 10  1  0  0  0  0
  9 26  1  0  0  0  0
  9 27  1  0  0  0  0
 10 11  1  0  0  0  0
 10 28  1  0  0  0  0
 10 29  1  0  0  0  0
 11 12  1  0  0  0  0
 11 30  1  0  0  0  0
 11 31  1  0  0  0  0
 12 13  1  0  0  0  0
 12 32  1  0  0  0  0
 13 17  1  0  0  0  0
 13 14  1  0  0  0  0
 14 15  2  0  0  0  0
 14 33  1  0  0  0  0
 15 16  1  0  0  0  0
 15 34  1  0  0  0  0
 16 17  2  0  0  0  0
 16 36  1  0  0  0  0
 17 35  1  0  0  0  0
M  CHG  1  16   1
M  END
> <s_m_source_file>
AV-unprocessed.smi

> <i_m_source_file_index>
3141

> <i_lp_mmshare_version>
43012

> <i_f3d_flags>
0

> <s_epik_input>
W0NIMl0xW0NIMl1bQ0hdMVtOSF1DKD1PKVtOSF1bQ0BASF0yW0NIMl1bQ0gyXVtDSDJdW0NASF0ybjNbY0hdW2NIXW5bY0hdMw==

> <s_epik_cmdline>
J2VwaWtfcHl0aG9uJywgJy1waCcsICc3LjAnLCAnLXRuJywgJzgnLCAnLW1hJywgJzIwMCcsICctbWV0YWxfYmluZGluZycsICctaW1hZScsICc8aW5maWxlLm1hZT4nLCAnLW9tYWUnLCAnPG91dGZpbGUubWFlPic=

> <r_lp_tautomer_probability>
1

> <r_epik_Ionization_Penalty>
0.205063

> <r_epik_Ionization_Penalty_Charging>
0

> <r_epik_Ionization_Penalty_Neutral>
0.205063

> <r_epik_State_Penalty>
0.194948

> <r_epik_Charging_Adjusted_Penalty>
0.194948

> <i_epik_Tot_Q>
1

> <i_epik_Tot_abs_Q>
1

> <r_epik_Metal_State_Penalty>
0.500882

> <b_epik_Metal_Only>
0

> <s_lp_Force_Field>
OPLS_2005

> <r_lp_Energy>
37.736

> <b_lp_Chiralities_Consistent>
1

> <s_lp_Variant>
AV-unprocessed.smi:3141-3

> <Gold.Version>
5.8.1

> <Gold.Id.Protein>
6NUR|6NUR_protein|mol2

> <Gold.PLP.Fitness>
43.0828

> <Gold.PLP.PLP>
-32.7670

> <Gold.PLP.part.hbond>
-2.0000

> <Gold.PLP.part.metal>
0.0000

> <Gold.PLP.part.buried>
-1.2157

> <Gold.PLP.part.nonpolar>
-29.9675

> <Gold.PLP.part.repulsive>
0.0449

> <Gold.PLP.ligand.clash>
0.0081

> <Gold.PLP.ligand.torsion>
0.4483

> <Gold.PLP.Chemscore.Hbond>
2.9840

> <Gold.PLP.Chemscore.CHOScore>
0.7339

> <Gold.PLP.Chemscore.Metal>
0.0000

> <Gold.Chemscore.Hbonds>
donor molecule, donor type, donor heavy atom, donor atom, acceptor molecule, acceptor atom, score
      L1  H     3    18       P1  8028  1.00
      L1  H    16    36       P1 10175  0.57
      L1  C    14    33       P1  8028  0.81

> <Gold.PLP.Chemscore.Internal.Correction>
0.0669

> <Gold.Rescore>
     Score         DG    S(hbond)    S(metal)    S(lipo)     H(rot)  DE(clash)    DE(int)     intcor
     11.75     -17.26       1.80        0.00      84.49       1.61       1.74       3.77       ----

> <Gold.Chemscore.Fitness>
11.7480

> <Gold.Chemscore.DG>
-17.2618

> <Gold.Chemscore.ZeroCoef>
-5.4800

> <Gold.Chemscore.Hbond>
1.8009

> <Gold.Chemscore.Metal>
0.0000

> <Gold.Chemscore.Lipo>
84.4913

> <Gold.Chemscore.Internal_Hbond>
0.0000

> <Gold.Chemscore.DEClash>
1.7428

> <Gold.Chemscore.DEInternal>
3.7710

> <Gold.Chemscore.Rot>
1.6088

> <Gold.Chemscore.Internal.Correction>
   9.000000E+99

> <Gold.Chemscore.Hbonds>
donor molecule, donor type, donor heavy atom, donor atom, acceptor molecule, acceptor atom, score
      L1  H     3    18       P1  8028  0.99
      L1  H    16    36       P1 10175  0.26

> <Gold.Chemscore.Hbond.Weighted>
-6.0149

> <Gold.Chemscore.Metal.Weighted>
-0.0000

> <Gold.Chemscore.Lipo.Weighted>
-9.8855

> <Gold.Chemscore.Internal_Hbond.Weighted>
0.0000

> <Gold.Chemscore.DEClash.Weighted>
1.7428

> <Gold.Chemscore.DEInternal.Weighted>
3.7710

> <Gold.Chemscore.Rot.Weighted>
4.1186

> <Gold.Chemscore.Internal.Correction.Weighted>
   9.000000E+99

> <Gold.Protein.RotatedTorsions>
[ 6907 6896 6895 6894 ] final   79.33 input  -60.11 | X-H torsion
[ 7974 7965 7964 7962 ] final  -49.91 input  175.53 | X-H torsion
[ 8008 7997 7996 7995 ] final  -79.56 input   59.86 | X-H torsion
[ 10167 10162 10161 10158 ] final   31.13 input  -65.29 | X-H torsion
[ 10718 10713 10712 10709 ] final -125.62 input   66.30 | X-H torsion
[ 10763 10752 10751 10750 ] final -179.34 input  -60.55 | X-H torsion
[ 11005 11000 10999 10996 ] final  -90.83 input  -57.11 | X-H torsion

> <Gold.Protein.ActiveResidues>
 VAL166  LYS551  ARG553  GLY616  TRP617  ASP618  TYR619  PRO620  LYS621  CYS622 
 ASP623  PHE694  ASN695  SER759  ASP760  ASP761  ALA762  ILE779  LEU786  VAL792 
 PHE793  MET794  SER795  GLU796  ALA797  LYS798  CYS799  TRP800  GLU811  SER814 

> <Gold.Protein.RotatedAtoms>
  152.5194  134.3527  159.9256 H   0  0  0  0  0  0  0  0  0  0  0  0  # atno 6907 bound_to 6896
  151.3478  133.3930  159.2685 H   0  0  0  0  0  0  0  0  0  0  0  0  # atno 6908 bound_to 6896
  150.9751  134.9135  159.7869 H   0  0  0  0  0  0  0  0  0  0  0  0  # atno 6909 bound_to 6896
  145.9355  140.7710  142.9578 H   0  0  0  0  0  0  0  0  0  0  0  0  # atno 7974 bound_to 7965
  154.5797  140.0676  156.9086 H   0  0  0  0  0  0  0  0  0  0  0  0  # atno 8008 bound_to 7997
  155.2485  140.3350  155.4266 H   0  0  0  0  0  0  0  0  0  0  0  0  # atno 8009 bound_to 7997
  156.2180  140.1786  156.7528 H   0  0  0  0  0  0  0  0  0  0  0  0  # atno 8010 bound_to 7997
  140.4616  144.0898  150.6214 H   0  0  0  0  0  0  0  0  0  0  0  0  # atno 10167 bound_to 10162
  156.1691  130.6655  151.0155 H   0  0  0  0  0  0  0  0  0  0  0  0  # atno 10718 bound_to 10713
  154.5363  135.2803  155.1135 H   0  0  0  0  0  0  0  0  0  0  0  0  # atno 10763 bound_to 10752
  154.2636  135.6317  153.5287 H   0  0  0  0  0  0  0  0  0  0  0  0  # atno 10764 bound_to 10752
  152.9968  135.5611  154.5890 H   0  0  0  0  0  0  0  0  0  0  0  0  # atno 10765 bound_to 10752
  141.1557  133.7717  156.9793 H   0  0  0  0  0  0  0  0  0  0  0  0  # atno 11005 bound_to 11000
  144.6771  140.2196  143.7368 LP  0  0  0  0  0  0  0  0  0  0  0  0  # atno 17320 bound_to 7965
  145.8369  139.2112  143.1850 LP  0  0  0  0  0  0  0  0  0  0  0  0  # atno 17321 bound_to 7965
  140.4087  143.2668  151.9860 LP  0  0  0  0  0  0  0  0  0  0  0  0  # atno 17342 bound_to 10162
  139.4807  144.5935  151.7731 LP  0  0  0  0  0  0  0  0  0  0  0  0  # atno 17343 bound_to 10162
  157.6790  131.0843  150.7420 LP  0  0  0  0  0  0  0  0  0  0  0  0  # atno 17370 bound_to 10713
  156.7480  130.4760  149.5463 LP  0  0  0  0  0  0  0  0  0  0  0  0  # atno 17371 bound_to 10713
  140.1076  134.9496  157.2018 LP  0  0  0  0  0  0  0  0  0  0  0  0  # atno 17394 bound_to 11000
  140.3235  134.2889  155.7241 LP  0  0  0  0  0  0  0  0  0  0  0  0  # atno 17395 bound_to 11000

$$$$
