AV-unprocessed.smi:1463|AV-procd|sdf|5934|dock6
  -GOLD-   22720 6 13D 1   1.00000     0.00000
 Structure written by MMmdl.
 46 47  0  0  0  0  0  0  0  0  1 V2000
  152.5913  143.5194  159.7546 C   0  0  0  0  0  0  0  0  0  0  0  0
  151.2618  143.0563  159.9085 O   0  0  0  0  0  0  0  0  0  0  0  0
  150.6272  142.7981  158.6669 C   0  0  0  0  0  0  0  0  0  0  0  0
  151.4631  141.7767  157.8915 C   0  0  0  0  0  0  0  0  0  0  0  0
  150.7454  141.4309  156.7131 O   0  0  0  0  0  0  0  0  0  0  0  0
  151.0433  140.2456  156.0705 C   0  0  0  0  0  0  0  0  0  0  0  0
  152.2774  139.7106  156.2499 N   0  0  0  0  0  0  0  0  0  0  0  0
  152.5659  138.5410  155.6422 C   0  0  0  0  0  0  0  0  0  0  0  0
  151.6473  137.8433  154.8359 C   0  0  0  0  0  0  0  0  0  0  0  0
  150.3677  138.3978  154.6474 C   0  0  0  0  0  0  0  0  0  0  0  0
  150.0567  139.6314  155.2577 C   0  0  0  0  0  0  0  0  0  0  0  0
  148.6853  140.2242  155.0878 C   0  0  0  0  0  0  0  0  0  0  0  0
  148.4577  140.8909  154.0776 O   0  0  0  0  0  0  0  0  0  0  0  0
  147.7501  139.9870  156.0426 N   0  0  0  0  0  0  0  0  0  0  0  0
  148.0147  139.5143  157.4100 C   0  0  0  0  0  0  0  0  0  0  0  0
  147.7694  140.6689  158.3982 C   0  0  0  0  0  0  0  0  0  0  0  0
  146.3419  141.2418  158.2658 C   0  0  0  0  0  0  0  0  0  0  0  0
  146.1430  142.4498  159.2094 C   0  0  0  0  0  0  0  0  0  0  0  0
  145.9679  142.0716  160.6852 C   0  0  0  0  0  0  0  0  0  0  0  0
  144.7677  141.6190  161.0556 N   0  0  0  0  0  0  0  0  0  0  0  0
  146.8965  142.1903  161.4823 O   0  0  0  0  0  0  0  0  0  0  0  0
  146.0327  141.5735  156.7865 C   0  0  0  0  0  0  0  0  0  0  0  0
  146.3459  140.3774  155.8712 C   0  0  0  0  0  0  0  0  0  0  0  0
  153.0306  143.7027  160.7352 H   0  0  0  0  0  0  0  0  0  0  0  0
  152.6213  144.4529  159.1914 H   0  0  0  0  0  0  0  0  0  0  0  0
  153.2090  142.7804  159.2427 H   0  0  0  0  0  0  0  0  0  0  0  0
  149.6290  142.3967  158.8474 H   0  0  0  0  0  0  0  0  0  0  0  0
  150.5143  143.7154  158.0866 H   0  0  0  0  0  0  0  0  0  0  0  0
  152.4419  142.1981  157.6560 H   0  0  0  0  0  0  0  0  0  0  0  0
  151.6147  140.8847  158.5011 H   0  0  0  0  0  0  0  0  0  0  0  0
  153.5574  138.1465  155.8086 H   0  0  0  0  0  0  0  0  0  0  0  0
  151.9174  136.9049  154.3745 H   0  0  0  0  0  0  0  0  0  0  0  0
  149.6403  137.8836  154.0360 H   0  0  0  0  0  0  0  0  0  0  0  0
  147.3535  138.6761  157.6352 H   0  0  0  0  0  0  0  0  0  0  0  0
  149.0266  139.1432  157.5596 H   0  0  0  0  0  0  0  0  0  0  0  0
  147.9379  140.3198  159.4174 H   0  0  0  0  0  0  0  0  0  0  0  0
  148.5017  141.4574  158.2176 H   0  0  0  0  0  0  0  0  0  0  0  0
  145.6563  140.4509  158.5752 H   0  0  0  0  0  0  0  0  0  0  0  0
  147.0092  143.1094  159.1452 H   0  0  0  0  0  0  0  0  0  0  0  0
  145.2860  143.0376  158.8766 H   0  0  0  0  0  0  0  0  0  0  0  0
  144.6009  141.3557  162.0160 H   0  0  0  0  0  0  0  0  0  0  0  0
  144.0294  141.5411  160.3712 H   0  0  0  0  0  0  0  0  0  0  0  0
  144.9855  141.8519  156.6670 H   0  0  0  0  0  0  0  0  0  0  0  0
  146.6202  142.4363  156.4692 H   0  0  0  0  0  0  0  0  0  0  0  0
  146.1027  140.6255  154.8370 H   0  0  0  0  0  0  0  0  0  0  0  0
  145.7059  139.5320  156.1283 H   0  0  0  0  0  0  0  0  0  0  0  0
  1  2  1  0  0  0  0
  1 24  1  0  0  0  0
  1 25  1  0  0  0  0
  1 26  1  0  0  0  0
  2  3  1  0  0  0  0
  3  4  1  0  0  0  0
  3 27  1  0  0  0  0
  3 28  1  0  0  0  0
  4  5  1  0  0  0  0
  4 29  1  0  0  0  0
  4 30  1  0  0  0  0
  5  6  1  0  0  0  0
  6 11  1  0  0  0  0
  6  7  2  0  0  0  0
  7  8  1  0  0  0  0
  8  9  2  0  0  0  0
  8 31  1  0  0  0  0
  9 10  1  0  0  0  0
  9 32  1  0  0  0  0
 10 11  2  0  0  0  0
 10 33  1  0  0  0  0
 11 12  1  0  0  0  0
 12 13  2  0  0  0  0
 12 14  1  0  0  0  0
 14 23  1  0  0  0  0
 14 15  1  0  0  0  0
 15 16  1  0  0  0  0
 15 34  1  0  0  0  0
 15 35  1  0  0  0  0
 16 17  1  0  0  0  0
 16 36  1  0  0  0  0
 16 37  1  0  0  0  0
 17 18  1  0  0  0  0
 17 22  1  0  0  0  0
 17 38  1  0  0  0  0
 18 19  1  0  0  0  0
 18 39  1  0  0  0  0
 18 40  1  0  0  0  0
 19 20  1  0  0  0  0
 19 21  2  0  0  0  0
 20 41  1  0  0  0  0
 20 42  1  0  0  0  0
 22 23  1  0  0  0  0
 22 43  1  0  0  0  0
 22 44  1  0  0  0  0
 23 45  1  0  0  0  0
 23 46  1  0  0  0  0
M  END
> <s_m_source_file>
AV-unprocessed.smi

> <i_m_source_file_index>
1463

> <i_lp_mmshare_version>
43012

> <i_f3d_flags>
0

> <s_epik_input>
W0NIM11PW0NIMl1bQ0gyXU9jMW5bY0hdW2NIXVtjSF1jMUMoPU8pTjJbQ0gyXVtDSDJdW0NIXShbQ0gyXVtDSDJdMilbQ0gyXUMoPU8pW05IMl0=

> <s_epik_cmdline>
J2VwaWtfcHl0aG9uJywgJy1waCcsICc3LjAnLCAnLXRuJywgJzgnLCAnLW1hJywgJzIwMCcsICctbWV0YWxfYmluZGluZycsICctaW1hZScsICc8aW5maWxlLm1hZT4nLCAnLW9tYWUnLCAnPG91dGZpbGUubWFlPic=

> <r_lp_tautomer_probability>
1

> <r_epik_Ionization_Penalty>
2.54873e-06

> <r_epik_Ionization_Penalty_Charging>
0

> <r_epik_Ionization_Penalty_Neutral>
2.54873e-06

> <r_epik_State_Penalty>
-0

> <r_epik_Charging_Adjusted_Penalty>
0

> <i_epik_Tot_Q>
0

> <i_epik_Tot_abs_Q>
0

> <r_epik_Metal_State_Penalty>
-0

> <b_epik_Metal_Only>
0

> <s_lp_Force_Field>
OPLS_2005

> <r_lp_Energy>
26.7295

> <b_lp_Chiralities_Consistent>
1

> <s_lp_Variant>
AV-unprocessed.smi:1463-1

> <Gold.Version>
5.8.1

> <Gold.Id.Protein>
6NUR|6NUR_protein|mol2

> <Gold.PLP.Fitness>
44.3575

> <Gold.PLP.PLP>
-37.6230

> <Gold.PLP.part.hbond>
-5.2666

> <Gold.PLP.part.metal>
0.0000

> <Gold.PLP.part.buried>
-3.2732

> <Gold.PLP.part.nonpolar>
-29.5046

> <Gold.PLP.part.repulsive>
1.7088

> <Gold.PLP.ligand.clash>
0.0000

> <Gold.PLP.ligand.torsion>
2.4089

> <Gold.PLP.Chemscore.Hbond>
3.2791

> <Gold.PLP.Chemscore.CHOScore>
0.0000

> <Gold.PLP.Chemscore.Metal>
0.0000

> <Gold.Chemscore.Hbonds>
donor molecule, donor type, donor heavy atom, donor atom, acceptor molecule, acceptor atom, score
      P1  H  6933  6944       L1    21  0.40
      P1  H  7997  8008       L1     7  0.37

> <Gold.PLP.Chemscore.Internal.Correction>
1.7151

> <Gold.Rescore>
     Score         DG    S(hbond)    S(metal)    S(lipo)     H(rot)  DE(clash)    DE(int)     intcor
     12.96     -15.59       2.48        0.00      71.57       2.55       0.13       2.50       ----

> <Gold.Chemscore.Fitness>
12.9581

> <Gold.Chemscore.DG>
-15.5939

> <Gold.Chemscore.ZeroCoef>
-5.4800

> <Gold.Chemscore.Hbond>
2.4782

> <Gold.Chemscore.Metal>
0.0000

> <Gold.Chemscore.Lipo>
71.5716

> <Gold.Chemscore.Internal_Hbond>
0.0000

> <Gold.Chemscore.DEClash>
0.1325

> <Gold.Chemscore.DEInternal>
2.5034

> <Gold.Chemscore.Rot>
2.5536

> <Gold.Chemscore.Internal.Correction>
   9.000000E+99

> <Gold.Chemscore.Hbonds>
donor molecule, donor type, donor heavy atom, donor atom, acceptor molecule, acceptor atom, score
      P1  H  6933  6944       L1    21  0.39
      P1  H  7997  8008       L1     7  0.01

> <Gold.Chemscore.Hbond.Weighted>
-8.2773

> <Gold.Chemscore.Metal.Weighted>
-0.0000

> <Gold.Chemscore.Lipo.Weighted>
-8.3739

> <Gold.Chemscore.Internal_Hbond.Weighted>
0.0000

> <Gold.Chemscore.DEClash.Weighted>
0.1325

> <Gold.Chemscore.DEInternal.Weighted>
2.5034

> <Gold.Chemscore.Rot.Weighted>
6.5373

> <Gold.Chemscore.Internal.Correction.Weighted>
   9.000000E+99

> <Gold.Protein.RotatedTorsions>
[ 6907 6896 6895 6894 ] final -124.96 input  -60.11 | X-H torsion
[ 7974 7965 7964 7962 ] final  -42.60 input  175.53 | X-H torsion
[ 8008 7997 7996 7995 ] final  -43.62 input   59.86 | X-H torsion
[ 10167 10162 10161 10158 ] final -142.02 input  -65.29 | X-H torsion
[ 10718 10713 10712 10709 ] final  -34.41 input   66.30 | X-H torsion
[ 10763 10752 10751 10750 ] final  -82.16 input  -60.55 | X-H torsion
[ 11005 11000 10999 10996 ] final  -58.18 input  -57.11 | X-H torsion

> <Gold.Protein.ActiveResidues>
 VAL166  LYS551  ARG553  GLY616  TRP617  ASP618  TYR619  PRO620  LYS621  CYS622 
 ASP623  PHE694  ASN695  SER759  ASP760  ASP761  ALA762  ILE779  LEU786  VAL792 
 PHE793  MET794  SER795  GLU796  ALA797  LYS798  CYS799  TRP800  GLU811  SER814 

> <Gold.Protein.RotatedAtoms>
  150.8820  133.7359  159.2929 H   0  0  0  0  0  0  0  0  0  0  0  0  # atno 6907 bound_to 6896
  151.4938  135.1057  159.9820 H   0  0  0  0  0  0  0  0  0  0  0  0  # atno 6908 bound_to 6896
  152.4765  133.8106  159.7057 H   0  0  0  0  0  0  0  0  0  0  0  0  # atno 6909 bound_to 6896
  146.0100  140.6975  142.9229 H   0  0  0  0  0  0  0  0  0  0  0  0  # atno 7974 bound_to 7965
  154.3997  140.1443  156.3549 H   0  0  0  0  0  0  0  0  0  0  0  0  # atno 8008 bound_to 7997
  155.8235  140.3468  155.5507 H   0  0  0  0  0  0  0  0  0  0  0  0  # atno 8009 bound_to 7997
  155.8263  140.0905  157.1809 H   0  0  0  0  0  0  0  0  0  0  0  0  # atno 8010 bound_to 7997
  139.8129  143.7679  152.2664 H   0  0  0  0  0  0  0  0  0  0  0  0  # atno 10167 bound_to 10162
  156.3509  130.4308  149.7705 H   0  0  0  0  0  0  0  0  0  0  0  0  # atno 10718 bound_to 10713
  154.5723  135.5601  153.7107 H   0  0  0  0  0  0  0  0  0  0  0  0  # atno 10763 bound_to 10752
  153.0053  135.6300  154.2097 H   0  0  0  0  0  0  0  0  0  0  0  0  # atno 10764 bound_to 10752
  154.2036  135.2877  155.2962 H   0  0  0  0  0  0  0  0  0  0  0  0  # atno 10765 bound_to 10752
  141.1196  133.6611  156.4882 H   0  0  0  0  0  0  0  0  0  0  0  0  # atno 11005 bound_to 11000
  144.6949  140.3382  143.7204 LP  0  0  0  0  0  0  0  0  0  0  0  0  # atno 17320 bound_to 7965
  145.7357  139.1749  143.2405 LP  0  0  0  0  0  0  0  0  0  0  0  0  # atno 17321 bound_to 7965
  139.7833  144.7437  151.0057 LP  0  0  0  0  0  0  0  0  0  0  0  0  # atno 17342 bound_to 10162
  140.7817  143.4519  151.0401 LP  0  0  0  0  0  0  0  0  0  0  0  0  # atno 17343 bound_to 10162
  156.4906  130.8083  151.3093 LP  0  0  0  0  0  0  0  0  0  0  0  0  # atno 17370 bound_to 10713
  157.7461  130.9976  150.2823 LP  0  0  0  0  0  0  0  0  0  0  0  0  # atno 17371 bound_to 10713
  140.4545  134.6898  157.5056 LP  0  0  0  0  0  0  0  0  0  0  0  0  # atno 17394 bound_to 11000
  140.0144  134.6642  155.9332 LP  0  0  0  0  0  0  0  0  0  0  0  0  # atno 17395 bound_to 11000

$$$$
