AV-unprocessed.smi:1944|AV-procd|sdf|7854|dock1
  -GOLD-   2272010 03D 1   1.00000     0.00000
 Structure written by MMmdl.
 46 47  0  0  0  0  0  0  0  0  2 V2000
  152.8509  138.8452  154.6280 C   0  0  0  0  0  0  0  0  0  0  0  0
  151.5016  139.1544  154.2956 O   0  0  0  0  0  0  0  0  0  0  0  0
  150.7986  140.0106  155.1218 C   0  0  0  0  0  0  0  0  0  0  0  0
  151.4379  140.5420  156.1940 N   0  0  0  0  0  0  0  0  0  0  0  0
  150.7545  141.3804  156.9998 C   0  0  0  0  0  0  0  0  0  0  0  0
  149.4117  141.7373  156.7792 C   0  0  0  0  0  0  0  0  0  0  0  0
  148.7462  141.1873  155.6682 C   0  0  0  0  0  0  0  0  0  0  0  0
  149.4454  140.2930  154.8218 C   0  0  0  0  0  0  0  0  0  0  0  0
  148.8715  139.7010  153.6631 N   0  0  0  0  0  0  0  0  0  0  0  0
  147.6084  139.2792  153.4832 C   0  0  0  0  0  0  0  0  0  0  0  0
  146.7215  139.3016  154.3367 O   0  0  0  0  0  0  0  0  0  0  0  0
  147.4256  138.7985  152.2451 N   0  0  0  0  0  0  0  0  0  0  0  0
  146.1635  138.2740  151.7362 C   0  0  0  0  0  0  0  0  0  0  0  0
  145.6289  137.1323  152.6234 C   0  0  0  0  0  0  0  0  0  0  0  0
  146.2280  135.8082  152.3036 N   0  3  1  0  0  0  0  0  0  0  0  0
  146.2154  134.8921  153.4762 C   0  0  0  0  0  0  0  0  0  0  0  0
  147.0294  133.6177  153.2018 C   0  0  0  0  0  0  0  0  0  0  0  0
  146.5234  132.9006  151.9458 C   0  0  0  0  0  0  0  0  0  0  0  0
  146.5288  133.8702  150.7562 C   0  0  0  0  0  0  0  0  0  0  0  0
  145.7295  135.1581  151.0494 C   0  0  1  0  0  0  0  0  0  0  0  0
  144.2050  134.9123  151.0401 C   0  0  0  0  0  0  0  0  0  0  0  0
  153.2555  138.1567  153.8865 H   0  0  0  0  0  0  0  0  0  0  0  0
  152.9211  138.3593  155.6023 H   0  0  0  0  0  0  0  0  0  0  0  0
  153.4777  139.7380  154.6267 H   0  0  0  0  0  0  0  0  0  0  0  0
  151.2965  141.7845  157.8419 H   0  0  0  0  0  0  0  0  0  0  0  0
  148.9052  142.4214  157.4440 H   0  0  0  0  0  0  0  0  0  0  0  0
  147.7231  141.4725  155.4784 H   0  0  0  0  0  0  0  0  0  0  0  0
  149.5152  139.5271  152.9049 H   0  0  0  0  0  0  0  0  0  0  0  0
  148.2086  138.8097  151.6077 H   0  0  0  0  0  0  0  0  0  0  0  0
  145.4502  139.0953  151.6634 H   0  0  0  0  0  0  0  0  0  0  0  0
  146.3287  137.9120  150.7211 H   0  0  0  0  0  0  0  0  0  0  0  0
  145.8680  137.3776  153.6592 H   0  0  0  0  0  0  0  0  0  0  0  0
  144.5413  137.0744  152.5788 H   0  0  0  0  0  0  0  0  0  0  0  0
  146.6434  135.3991  154.3418 H   0  0  0  0  0  0  0  0  0  0  0  0
  145.1889  134.6393  153.7436 H   0  0  0  0  0  0  0  0  0  0  0  0
  148.0820  133.8757  153.0764 H   0  0  0  0  0  0  0  0  0  0  0  0
  146.9752  132.9482  154.0608 H   0  0  0  0  0  0  0  0  0  0  0  0
  147.1513  132.0361  151.7282 H   0  0  0  0  0  0  0  0  0  0  0  0
  145.5169  132.5170  152.1153 H   0  0  0  0  0  0  0  0  0  0  0  0
  147.5606  134.1354  150.5212 H   0  0  0  0  0  0  0  0  0  0  0  0
  146.1367  133.3742  149.8676 H   0  0  0  0  0  0  0  0  0  0  0  0
  145.9443  135.8283  150.2184 H   0  0  0  0  0  0  0  0  0  0  0  0
  143.9035  134.4113  150.1200 H   0  0  0  0  0  0  0  0  0  0  0  0
  143.6433  135.8452  151.0836 H   0  0  0  0  0  0  0  0  0  0  0  0
  143.8788  134.2861  151.8699 H   0  0  0  0  0  0  0  0  0  0  0  0
  147.2059  135.9957  152.1338 H   0  0  0  0  0  0  0  0  0  0  0  0
  1  2  1  0  0  0  0
  1 22  1  0  0  0  0
  1 23  1  0  0  0  0
  1 24  1  0  0  0  0
  2  3  1  0  0  0  0
  3  8  1  0  0  0  0
  3  4  2  0  0  0  0
  4  5  1  0  0  0  0
  5  6  2  0  0  0  0
  5 25  1  0  0  0  0
  6  7  1  0  0  0  0
  6 26  1  0  0  0  0
  7  8  2  0  0  0  0
  7 27  1  0  0  0  0
  8  9  1  0  0  0  0
  9 10  1  0  0  0  0
  9 28  1  0  0  0  0
 10 11  2  0  0  0  0
 10 12  1  0  0  0  0
 12 13  1  0  0  0  0
 12 29  1  0  0  0  0
 13 14  1  0  0  0  0
 13 30  1  0  0  0  0
 13 31  1  0  0  0  0
 14 15  1  0  0  0  0
 14 32  1  0  0  0  0
 14 33  1  0  0  0  0
 15 20  1  0  0  0  0
 15 16  1  0  0  0  0
 15 46  1  0  0  0  0
 16 17  1  0  0  0  0
 16 34  1  0  0  0  0
 16 35  1  0  0  0  0
 17 18  1  0  0  0  0
 17 36  1  0  0  0  0
 17 37  1  0  0  0  0
 18 19  1  0  0  0  0
 18 38  1  0  0  0  0
 18 39  1  0  0  0  0
 19 20  1  0  0  0  0
 19 40  1  0  0  0  0
 19 41  1  0  0  0  0
 20 21  1  0  0  0  0
 20 42  1  0  0  0  0
 21 43  1  0  0  0  0
 21 44  1  0  0  0  0
 21 45  1  0  0  0  0
M  CHG  1  15   1
M  END
> <s_m_source_file>
AV-unprocessed.smi

> <i_m_source_file_index>
1944

> <i_lp_mmshare_version>
43012

> <i_f3d_flags>
0

> <s_epik_input>
W0NIM11PYzFuW2NIXVtjSF1bY0hdYzFbTkhdQyg9TylbTkhdW0NIMl1bQ0gyXU4yW0NIMl1bQ0gyXVtDSDJdW0NIMl1bQ0BIXTJbQ0gzXQ==

> <s_epik_cmdline>
J2VwaWtfcHl0aG9uJywgJy1waCcsICc3LjAnLCAnLXRuJywgJzgnLCAnLW1hJywgJzIwMCcsICctbWV0YWxfYmluZGluZycsICctaW1hZScsICc8aW5maWxlLm1hZT4nLCAnLW9tYWUnLCAnPG91dGZpbGUubWFlPic=

> <r_lp_tautomer_probability>
1

> <r_epik_Ionization_Penalty>
0.00219525

> <r_epik_Ionization_Penalty_Charging>
0.00211816

> <r_epik_Ionization_Penalty_Neutral>
7.7088e-05

> <r_epik_State_Penalty>
0.00145254

> <r_epik_Charging_Adjusted_Penalty>
0.0035707

> <i_epik_Tot_Q>
1

> <i_epik_Tot_abs_Q>
1

> <r_epik_Metal_State_Penalty>
-0

> <b_epik_Metal_Only>
0

> <s_lp_Force_Field>
OPLS_2005

> <r_lp_Energy>
22.8304

> <b_lp_Chiralities_Consistent>
1

> <s_lp_Variant>
AV-unprocessed.smi:1944-2

> <Gold.Version>
5.8.1

> <Gold.Id.Protein>
6NUR|6NUR_protein|mol2

> <Gold.PLP.Fitness>
45.5631

> <Gold.PLP.PLP>
-36.4712

> <Gold.PLP.part.hbond>
-5.0000

> <Gold.PLP.part.metal>
0.0000

> <Gold.PLP.part.buried>
-3.0884

> <Gold.PLP.part.nonpolar>
-28.7244

> <Gold.PLP.part.repulsive>
0.4523

> <Gold.PLP.ligand.clash>
0.0000

> <Gold.PLP.ligand.torsion>
0.5921

> <Gold.PLP.Chemscore.Hbond>
3.3920

> <Gold.PLP.Chemscore.CHOScore>
0.0000

> <Gold.PLP.Chemscore.Metal>
0.0000

> <Gold.Chemscore.Hbonds>
donor molecule, donor type, donor heavy atom, donor atom, acceptor molecule, acceptor atom, score
      L1  H     9    28       P1  7957  0.70
      L1  H    12    29       P1  7957  0.75
      L1  H    15    46       P1  7948  2.00

> <Gold.PLP.Chemscore.Internal.Correction>
0.1002

> <Gold.Rescore>
     Score         DG    S(hbond)    S(metal)    S(lipo)     H(rot)  DE(clash)    DE(int)     intcor
     15.72     -18.08       2.52        0.00      73.30       1.71       0.03       2.33       ----

> <Gold.Chemscore.Fitness>
15.7228

> <Gold.Chemscore.DG>
-18.0814

> <Gold.Chemscore.ZeroCoef>
-5.4800

> <Gold.Chemscore.Hbond>
2.5165

> <Gold.Chemscore.Metal>
0.0000

> <Gold.Chemscore.Lipo>
73.2962

> <Gold.Chemscore.Internal_Hbond>
0.0000

> <Gold.Chemscore.DEClash>
0.0312

> <Gold.Chemscore.DEInternal>
2.3274

> <Gold.Chemscore.Rot>
1.7107

> <Gold.Chemscore.Internal.Correction>
   9.000000E+99

> <Gold.Chemscore.Hbonds>
donor molecule, donor type, donor heavy atom, donor atom, acceptor molecule, acceptor atom, score
      L1  H     9    28       P1  7957  0.70
      L1  H    12    29       P1  7957  0.53
      L1  H    15    46       P1  7948  1.00

> <Gold.Chemscore.Hbond.Weighted>
-8.4052

> <Gold.Chemscore.Metal.Weighted>
-0.0000

> <Gold.Chemscore.Lipo.Weighted>
-8.5757

> <Gold.Chemscore.Internal_Hbond.Weighted>
0.0000

> <Gold.Chemscore.DEClash.Weighted>
0.0312

> <Gold.Chemscore.DEInternal.Weighted>
2.3274

> <Gold.Chemscore.Rot.Weighted>
4.3794

> <Gold.Chemscore.Internal.Correction.Weighted>
   9.000000E+99

> <Gold.Protein.RotatedTorsions>
[ 6907 6896 6895 6894 ] final  115.57 input  -60.11 | X-H torsion
[ 7974 7965 7964 7962 ] final  -91.14 input  175.53 | X-H torsion
[ 8008 7997 7996 7995 ] final   66.13 input   59.86 | X-H torsion
[ 10167 10162 10161 10158 ] final   76.12 input  -65.29 | X-H torsion
[ 10718 10713 10712 10709 ] final  -46.91 input   66.30 | X-H torsion
[ 10763 10752 10751 10750 ] final  126.73 input  -60.55 | X-H torsion
[ 11005 11000 10999 10996 ] final  145.80 input  -57.11 | X-H torsion

> <Gold.Protein.ActiveResidues>
 VAL166  LYS551  ARG553  GLY616  TRP617  ASP618  TYR619  PRO620  LYS621  CYS622 
 ASP623  PHE694  ASN695  SER759  ASP760  ASP761  ALA762  ILE779  LEU786  VAL792 
 PHE793  MET794  SER795  GLU796  ALA797  LYS798  CYS799  TRP800  GLU811  SER814 

> <Gold.Protein.RotatedAtoms>
  152.4733  133.8079  159.6987 H   0  0  0  0  0  0  0  0  0  0  0  0  # atno 6907 bound_to 6896
  150.8734  133.7463  159.2960 H   0  0  0  0  0  0  0  0  0  0  0  0  # atno 6908 bound_to 6896
  151.4990  135.1064  159.9876 H   0  0  0  0  0  0  0  0  0  0  0  0  # atno 6909 bound_to 6896
  145.4170  140.9549  143.2202 H   0  0  0  0  0  0  0  0  0  0  0  0  # atno 7974 bound_to 7965
  155.6725  140.3497  155.4824 H   0  0  0  0  0  0  0  0  0  0  0  0  # atno 8008 bound_to 7997
  155.9676  140.1149  157.0864 H   0  0  0  0  0  0  0  0  0  0  0  0  # atno 8009 bound_to 7997
  154.4158  140.1163  156.5249 H   0  0  0  0  0  0  0  0  0  0  0  0  # atno 8010 bound_to 7997
  139.9956  144.5724  150.7780 H   0  0  0  0  0  0  0  0  0  0  0  0  # atno 10167 bound_to 10162
  156.2136  130.4162  149.9083 H   0  0  0  0  0  0  0  0  0  0  0  0  # atno 10718 bound_to 10713
  153.6980  135.3288  155.3218 H   0  0  0  0  0  0  0  0  0  0  0  0  # atno 10763 bound_to 10752
  154.8421  135.4447  154.1440 H   0  0  0  0  0  0  0  0  0  0  0  0  # atno 10764 bound_to 10752
  153.2500  135.6980  153.7768 H   0  0  0  0  0  0  0  0  0  0  0  0  # atno 10765 bound_to 10752
  140.0742  134.9134  157.1394 H   0  0  0  0  0  0  0  0  0  0  0  0  # atno 11005 bound_to 11000
  144.8270  139.5692  143.6961 LP  0  0  0  0  0  0  0  0  0  0  0  0  # atno 17320 bound_to 7965
  146.2676  139.6556  142.9319 LP  0  0  0  0  0  0  0  0  0  0  0  0  # atno 17321 bound_to 7965
  140.7438  143.2852  151.3485 LP  0  0  0  0  0  0  0  0  0  0  0  0  # atno 17342 bound_to 10162
  139.6308  144.0724  152.2475 LP  0  0  0  0  0  0  0  0  0  0  0  0  # atno 17343 bound_to 10162
  156.6753  130.8836  151.3568 LP  0  0  0  0  0  0  0  0  0  0  0  0  # atno 17370 bound_to 10713
  157.7051  130.9376  150.0907 LP  0  0  0  0  0  0  0  0  0  0  0  0  # atno 17371 bound_to 10713
  140.3583  134.2522  155.7190 LP  0  0  0  0  0  0  0  0  0  0  0  0  # atno 17394 bound_to 11000
  141.2023  133.7941  157.0397 LP  0  0  0  0  0  0  0  0  0  0  0  0  # atno 17395 bound_to 11000

$$$$
