AV-unprocessed.smi:1137|AV-procd|sdf|4866|dock2
  -GOLD-   22720 3433D 1   1.00000     0.00000
 Structure written by MMmdl.
 18 18  0  0  0  0  0  0  0  0  3 V2000
  152.2563  137.5492  154.0785 O   0  0  0  0  0  0  0  0  0  0  0  0
  152.0927  138.6614  154.6264 C   0  0  0  0  0  0  0  0  0  0  0  0
  152.9791  139.5330  154.7727 O   0  5  0  0  0  0  0  0  0  0  0  0
  150.6748  138.9837  155.1187 C   0  0  1  0  0  0  0  0  0  0  0  0
  150.1295  137.8901  155.8348 O   0  0  0  0  0  0  0  0  0  0  0  0
  150.7751  140.2524  155.9537 C   0  0  0  0  0  0  0  0  0  0  0  0
  151.5877  140.2827  157.1095 C   0  0  0  0  0  0  0  0  0  0  0  0
  151.6575  141.4628  157.8786 C   0  0  0  0  0  0  0  0  0  0  0  0
  150.9095  142.5885  157.4779 C   0  0  0  0  0  0  0  0  0  0  0  0
  150.1399  142.5242  156.3695 N   0  3  0  0  0  0  0  0  0  0  0  0
  150.0479  141.4140  155.6056 C   0  0  0  0  0  0  0  0  0  0  0  0
  150.0318  139.1647  154.2560 H   0  0  0  0  0  0  0  0  0  0  0  0
  149.2783  138.1382  156.1602 H   0  0  0  0  0  0  0  0  0  0  0  0
  152.1480  139.4082  157.4076 H   0  0  0  0  0  0  0  0  0  0  0  0
  152.2729  141.5012  158.7654 H   0  0  0  0  0  0  0  0  0  0  0  0
  150.9003  143.5296  158.0082 H   0  0  0  0  0  0  0  0  0  0  0  0
  149.3920  141.4830  154.7496 H   0  0  0  0  0  0  0  0  0  0  0  0
  149.6012  143.3473  156.0989 H   0  0  0  0  0  0  0  0  0  0  0  0
  1  2  2  0  0  0  0
  2  3  1  0  0  0  0
  2  4  1  0  0  0  0
  4  5  1  0  0  0  0
  4  6  1  0  0  0  0
  4 12  1  0  0  0  0
  5 13  1  0  0  0  0
  6 11  1  0  0  0  0
  6  7  2  0  0  0  0
  7  8  1  0  0  0  0
  7 14  1  0  0  0  0
  8  9  2  0  0  0  0
  8 15  1  0  0  0  0
  9 10  1  0  0  0  0
  9 16  1  0  0  0  0
 10 11  2  0  0  0  0
 10 18  1  0  0  0  0
 11 17  1  0  0  0  0
M  CHG  1   3  -1
M  CHG  1  10   1
M  END
> <s_m_source_file>
AV-unprocessed.smi

> <i_m_source_file_index>
1137

> <i_lp_mmshare_version>
43012

> <i_f3d_flags>
0

> <s_epik_input>
Tz1DKFtPSF0pW0NASF0oW09IXSljMVtjSF1bY0hdW2NIXW5bY0hdMQ==

> <s_epik_cmdline>
J2VwaWtfcHl0aG9uJywgJy1waCcsICc3LjAnLCAnLXRuJywgJzgnLCAnLW1hJywgJzIwMCcsICctbWV0YWxfYmluZGluZycsICctaW1hZScsICc8aW5maWxlLm1hZT4nLCAnLW9tYWUnLCAnPG91dGZpbGUubWFlPic=

> <r_epik_Ionization_Penalty>
2.03958

> <r_epik_Ionization_Penalty_Charging>
2.03958

> <r_epik_Ionization_Penalty_Neutral>
5.11681e-08

> <r_epik_State_Penalty>
2.1712

> <r_epik_Charging_Adjusted_Penalty>
4.21078

> <i_epik_Tot_Q>
0

> <i_epik_Tot_abs_Q>
2

> <r_epik_Metal_State_Penalty>
6.24859

> <b_epik_Metal_Only>
0

> <s_lp_Force_Field>
OPLS_2005

> <r_lp_Energy>
7.29674

> <b_lp_Chiralities_Consistent>
1

> <s_lp_Variant>
AV-unprocessed.smi:1137-4

> <Gold.Version>
5.8.1

> <Gold.Id.Protein>
6NUR|6NUR_protein|mol2

> <Gold.PLP.Fitness>
39.3015

> <Gold.PLP.PLP>
-22.7631

> <Gold.PLP.part.hbond>
-4.0000

> <Gold.PLP.part.metal>
0.0000

> <Gold.PLP.part.buried>
-4.3944

> <Gold.PLP.part.nonpolar>
-15.4635

> <Gold.PLP.part.repulsive>
0.2795

> <Gold.PLP.ligand.clash>
0.0000

> <Gold.PLP.ligand.torsion>
0.2821

> <Gold.PLP.Chemscore.Hbond>
5.6935

> <Gold.PLP.Chemscore.CHOScore>
0.0000

> <Gold.PLP.Chemscore.Metal>
0.0000

> <Gold.Chemscore.Hbonds>
donor molecule, donor type, donor heavy atom, donor atom, acceptor molecule, acceptor atom, score
      L1  H    10    18       P1  8028  2.00
      P1  H  7989  7998       L1     3  0.07
      P1  H  7997  8009       L1     3  2.00
      P1  H 10752 10763       L1     1  1.60

> <Gold.PLP.Chemscore.Internal.Correction>
0.0219

> <Gold.Rescore>
     Score         DG    S(hbond)    S(metal)    S(lipo)     H(rot)  DE(clash)    DE(int)     intcor
     12.88     -14.51       2.85        0.00      43.01       2.16       0.00       1.63       ----

> <Gold.Chemscore.Fitness>
12.8774

> <Gold.Chemscore.DG>
-14.5078

> <Gold.Chemscore.ZeroCoef>
-5.4800

> <Gold.Chemscore.Hbond>
2.8506

> <Gold.Chemscore.Metal>
0.0000

> <Gold.Chemscore.Lipo>
43.0111

> <Gold.Chemscore.Internal_Hbond>
0.0000

> <Gold.Chemscore.DEClash>
0.0015

> <Gold.Chemscore.DEInternal>
1.6289

> <Gold.Chemscore.Rot>
2.1584

> <Gold.Chemscore.Internal.Correction>
   9.000000E+99

> <Gold.Chemscore.Hbonds>
donor molecule, donor type, donor heavy atom, donor atom, acceptor molecule, acceptor atom, score
      L1  H    10    18       P1  8028  0.99
      P1  H  7997  8009       L1     3  0.98
      P1  H 10752 10763       L1     1  0.77

> <Gold.Chemscore.Hbond.Weighted>
-9.5210

> <Gold.Chemscore.Metal.Weighted>
-0.0000

> <Gold.Chemscore.Lipo.Weighted>
-5.0323

> <Gold.Chemscore.Internal_Hbond.Weighted>
0.0000

> <Gold.Chemscore.DEClash.Weighted>
0.0015

> <Gold.Chemscore.DEInternal.Weighted>
1.6289

> <Gold.Chemscore.Rot.Weighted>
5.5256

> <Gold.Chemscore.Internal.Correction.Weighted>
   9.000000E+99

> <Gold.Protein.RotatedTorsions>
[ 6907 6896 6895 6894 ] final   65.79 input  -60.11 | X-H torsion
[ 7974 7965 7964 7962 ] final -131.09 input  175.53 | X-H torsion
[ 8008 7997 7996 7995 ] final -126.18 input   59.86 | X-H torsion
[ 10167 10162 10161 10158 ] final  -88.40 input  -65.29 | X-H torsion
[ 10718 10713 10712 10709 ] final  112.57 input   66.30 | X-H torsion
[ 10763 10752 10751 10750 ] final   32.86 input  -60.55 | X-H torsion
[ 11005 11000 10999 10996 ] final   30.19 input  -57.11 | X-H torsion

> <Gold.Protein.ActiveResidues>
 VAL166  LYS551  ARG553  GLY616  TRP617  ASP618  TYR619  PRO620  LYS621  CYS622 
 ASP623  PHE694  ASN695  SER759  ASP760  ASP761  ALA762  ILE779  LEU786  VAL792 
 PHE793  MET794  SER795  GLU796  ALA797  LYS798  CYS799  TRP800  GLU811  SER814 

> <Gold.Protein.RotatedAtoms>
  152.4434  134.5545  159.9876 H   0  0  0  0  0  0  0  0  0  0  0  0  # atno 6907 bound_to 6896
  151.5636  133.3394  159.2984 H   0  0  0  0  0  0  0  0  0  0  0  0  # atno 6908 bound_to 6896
  150.8345  134.7645  159.6945 H   0  0  0  0  0  0  0  0  0  0  0  0  # atno 6909 bound_to 6896
  144.9413  140.7241  143.4845 H   0  0  0  0  0  0  0  0  0  0  0  0  # atno 7974 bound_to 7965
  155.2254  140.0423  157.2954 H   0  0  0  0  0  0  0  0  0  0  0  0  # atno 8008 bound_to 7997
  154.5922  140.2430  155.7875 H   0  0  0  0  0  0  0  0  0  0  0  0  # atno 8009 bound_to 7997
  156.2267  140.2952  156.0093 H   0  0  0  0  0  0  0  0  0  0  0  0  # atno 8010 bound_to 7997
  140.3750  143.2776  151.9453 H   0  0  0  0  0  0  0  0  0  0  0  0  # atno 10167 bound_to 10162
  157.6385  131.0970  150.6914 H   0  0  0  0  0  0  0  0  0  0  0  0  # atno 10718 bound_to 10713
  153.0240  135.6402  154.1422 H   0  0  0  0  0  0  0  0  0  0  0  0  # atno 10763 bound_to 10752
  154.1153  135.2850  155.3223 H   0  0  0  0  0  0  0  0  0  0  0  0  # atno 10764 bound_to 10752
  154.6302  135.5495  153.7735 H   0  0  0  0  0  0  0  0  0  0  0  0  # atno 10765 bound_to 10752
  140.2970  134.2800  155.7762 H   0  0  0  0  0  0  0  0  0  0  0  0  # atno 11005 bound_to 11000
  145.2987  139.1858  143.4701 LP  0  0  0  0  0  0  0  0  0  0  0  0  # atno 17320 bound_to 7965
  146.3286  140.2975  142.8619 LP  0  0  0  0  0  0  0  0  0  0  0  0  # atno 17321 bound_to 7965
  139.4800  144.5871  151.7834 LP  0  0  0  0  0  0  0  0  0  0  0  0  # atno 17342 bound_to 10162
  140.4995  144.1191  150.5968 LP  0  0  0  0  0  0  0  0  0  0  0  0  # atno 17343 bound_to 10162
  156.7242  130.4690  149.5515 LP  0  0  0  0  0  0  0  0  0  0  0  0  # atno 17370 bound_to 10713
  156.1645  130.6396  151.0761 LP  0  0  0  0  0  0  0  0  0  0  0  0  # atno 17371 bound_to 10713
  141.2135  133.7621  156.9710 LP  0  0  0  0  0  0  0  0  0  0  0  0  # atno 17394 bound_to 11000
  140.1144  134.9457  157.2112 LP  0  0  0  0  0  0  0  0  0  0  0  0  # atno 17395 bound_to 11000

$$$$
