AV-unprocessed.smi:1082|AV-procd|sdf|4714|dock1
  -GOLD-   22720 3243D 1   1.00000     0.00000
 Structure written by MMmdl.
 48 50  0  0  0  0  0  0  0  0  4 V2000
  151.7283  138.5987  158.2023 O   0  0  0  0  0  0  0  0  0  0  0  0
  151.4720  139.7137  157.7339 C   0  0  0  0  0  0  0  0  0  0  0  0
  150.7386  140.0041  156.6267 N   0  5  0  0  0  0  0  0  0  0  0  0
  150.4054  139.0453  155.5706 C   0  0  0  0  0  0  0  0  0  0  0  0
  150.9400  139.5519  154.2153 C   0  0  0  0  0  0  0  0  0  0  0  0
  149.9342  140.3405  153.4538 N   0  3  0  0  0  0  0  0  0  0  0  0
  148.6677  139.6198  153.1807 C   0  0  0  0  0  0  0  0  0  0  0  0
  147.5288  140.6381  153.3318 C   0  0  0  0  0  0  0  0  0  0  0  0
  148.2229  141.9950  153.3907 C   0  0  0  0  0  0  0  0  0  0  0  0
  149.5721  141.6620  154.0170 C   0  0  0  0  0  0  0  0  0  0  0  0
  151.9519  140.8201  158.3269 N   0  0  0  0  0  0  0  0  0  0  0  0
  152.8286  140.9033  159.4432 C   0  0  0  0  0  0  0  0  0  0  0  0
  153.5850  139.7771  159.8539 C   0  0  0  0  0  0  0  0  0  0  0  0
  154.3907  139.8549  161.0053 C   0  0  0  0  0  0  0  0  0  0  0  0
  154.4135  141.0539  161.7386 C   0  0  0  0  0  0  0  0  0  0  0  0
  153.6704  142.1030  161.3294 N   0  3  0  0  0  0  0  0  0  0  0  0
  152.8867  142.0949  160.2218 C   0  0  0  0  0  0  0  0  0  0  0  0
  152.1722  143.2739  159.9092 N   0  0  0  0  0  0  0  0  0  0  0  0
  152.3051  143.8574  158.5775 C   0  0  0  0  0  0  0  0  0  0  0  0
  152.2330  145.3769  158.7633 C   0  0  0  0  0  0  0  0  0  0  0  0
  151.5305  145.5449  160.1074 C   0  0  0  0  0  0  0  0  0  0  0  0
  152.0364  144.3395  160.8952 C   0  0  0  0  0  0  0  0  0  0  0  0
  150.8390  138.0665  155.7754 H   0  0  0  0  0  0  0  0  0  0  0  0
  149.3314  138.8786  155.4785 H   0  0  0  0  0  0  0  0  0  0  0  0
  151.8097  140.1815  154.4108 H   0  0  0  0  0  0  0  0  0  0  0  0
  151.2989  138.7200  153.6083 H   0  0  0  0  0  0  0  0  0  0  0  0
  148.7061  139.2110  152.1706 H   0  0  0  0  0  0  0  0  0  0  0  0
  148.5180  138.7874  153.8699 H   0  0  0  0  0  0  0  0  0  0  0  0
  146.8001  140.5768  152.5230 H   0  0  0  0  0  0  0  0  0  0  0  0
  146.9994  140.4576  154.2683 H   0  0  0  0  0  0  0  0  0  0  0  0
  148.3683  142.3824  152.3813 H   0  0  0  0  0  0  0  0  0  0  0  0
  147.6615  142.7363  153.9601 H   0  0  0  0  0  0  0  0  0  0  0  0
  149.4654  141.5883  155.1005 H   0  0  0  0  0  0  0  0  0  0  0  0
  150.3263  142.4196  153.8006 H   0  0  0  0  0  0  0  0  0  0  0  0
  151.7869  141.6843  157.8320 H   0  0  0  0  0  0  0  0  0  0  0  0
  153.5398  138.8462  159.3082 H   0  0  0  0  0  0  0  0  0  0  0  0
  154.9719  139.0030  161.3261 H   0  0  0  0  0  0  0  0  0  0  0  0
  154.9952  141.2041  162.6365 H   0  0  0  0  0  0  0  0  0  0  0  0
  153.2346  143.5616  158.0886 H   0  0  0  0  0  0  0  0  0  0  0  0
  151.4733  143.5173  157.9596 H   0  0  0  0  0  0  0  0  0  0  0  0
  153.2422  145.7869  158.8249 H   0  0  0  0  0  0  0  0  0  0  0  0
  151.7160  145.8794  157.9453 H   0  0  0  0  0  0  0  0  0  0  0  0
  151.7543  146.4955  160.5924 H   0  0  0  0  0  0  0  0  0  0  0  0
  150.4499  145.4771  159.9727 H   0  0  0  0  0  0  0  0  0  0  0  0
  151.3483  144.0595  161.6936 H   0  0  0  0  0  0  0  0  0  0  0  0
  153.0051  144.5721  161.3395 H   0  0  0  0  0  0  0  0  0  0  0  0
  150.3475  140.5182  152.5488 H   0  0  0  0  0  0  0  0  0  0  0  0
  153.7069  142.9588  161.8832 H   0  0  0  0  0  0  0  0  0  0  0  0
  1  2  2  0  0  0  0
  2  3  1  0  0  0  0
  2 11  1  0  0  0  0
  3  4  1  0  0  0  0
  4  5  1  0  0  0  0
  4 23  1  0  0  0  0
  4 24  1  0  0  0  0
  5  6  1  0  0  0  0
  5 25  1  0  0  0  0
  5 26  1  0  0  0  0
  6 10  1  0  0  0  0
  6  7  1  0  0  0  0
  6 47  1  0  0  0  0
  7  8  1  0  0  0  0
  7 27  1  0  0  0  0
  7 28  1  0  0  0  0
  8  9  1  0  0  0  0
  8 29  1  0  0  0  0
  8 30  1  0  0  0  0
  9 10  1  0  0  0  0
  9 31  1  0  0  0  0
  9 32  1  0  0  0  0
 10 33  1  0  0  0  0
 10 34  1  0  0  0  0
 11 12  1  0  0  0  0
 11 35  1  0  0  0  0
 12 17  1  0  0  0  0
 12 13  2  0  0  0  0
 13 14  1  0  0  0  0
 13 36  1  0  0  0  0
 14 15  2  0  0  0  0
 14 37  1  0  0  0  0
 15 16  1  0  0  0  0
 15 38  1  0  0  0  0
 16 17  2  0  0  0  0
 16 48  1  0  0  0  0
 17 18  1  0  0  0  0
 18 22  1  0  0  0  0
 18 19  1  0  0  0  0
 19 20  1  0  0  0  0
 19 39  1  0  0  0  0
 19 40  1  0  0  0  0
 20 21  1  0  0  0  0
 20 41  1  0  0  0  0
 20 42  1  0  0  0  0
 21 22  1  0  0  0  0
 21 43  1  0  0  0  0
 21 44  1  0  0  0  0
 22 45  1  0  0  0  0
 22 46  1  0  0  0  0
M  CHG  1   3  -1
M  CHG  1   6   1
M  CHG  1  16   1
M  END
> <s_m_source_file>
AV-unprocessed.smi

> <i_m_source_file_index>
1082

> <i_lp_mmshare_version>
43012

> <i_f3d_flags>
0

> <s_epik_input>
W0NIMl0xW0NIMl1bQ0gyXVtDSDJdTjFbQ0gyXVtDSDJdW05IXUMoPU8pW05IXWMyW2NIXVtjSF1bY0hdbmMyTjNbQ0gyXVtDSDJdW0NIMl1bQ0gyXTM=

> <s_epik_cmdline>
J2VwaWtfcHl0aG9uJywgJy1waCcsICc3LjAnLCAnLXRuJywgJzgnLCAnLW1hJywgJzIwMCcsICctbWV0YWxfYmluZGluZycsICctaW1hZScsICc8aW5maWxlLm1hZT4nLCAnLW9tYWUnLCAnPG91dGZpbGUubWFlPic=

> <r_lp_tautomer_probability>
0.999994

> <r_epik_Ionization_Penalty>
8.55934

> <r_epik_Ionization_Penalty_Charging>
8.55934

> <r_epik_Ionization_Penalty_Neutral>
3.77642e-06

> <r_epik_State_Penalty>
8.06887

> <r_epik_Charging_Adjusted_Penalty>
16.6282

> <i_epik_Tot_Q>
1

> <i_epik_Tot_abs_Q>
3

> <r_epik_Metal_State_Penalty>
4.05607

> <b_epik_Metal_Only>
1

> <s_lp_Force_Field>
OPLS_2005

> <r_lp_Energy>
53.4939

> <b_lp_Chiralities_Consistent>
1

> <s_lp_Variant>
AV-unprocessed.smi:1082-3

> <Gold.Version>
5.8.1

> <Gold.Id.Protein>
6NUR|6NUR_protein|mol2

> <Gold.PLP.Fitness>
50.0305

> <Gold.PLP.PLP>
-47.3796

> <Gold.PLP.part.hbond>
-1.0796

> <Gold.PLP.part.metal>
0.0000

> <Gold.PLP.part.buried>
-5.0661

> <Gold.PLP.part.nonpolar>
-39.9404

> <Gold.PLP.part.repulsive>
0.2946

> <Gold.PLP.ligand.clash>
0.0000

> <Gold.PLP.ligand.torsion>
0.6010

> <Gold.PLP.Chemscore.Hbond>
1.0000

> <Gold.PLP.Chemscore.CHOScore>
0.0000

> <Gold.PLP.Chemscore.Metal>
0.0000

> <Gold.Chemscore.Hbonds>
donor molecule, donor type, donor heavy atom, donor atom, acceptor molecule, acceptor atom, score
      L1  H     6    47       P1  7957  0.46

> <Gold.PLP.Chemscore.Internal.Correction>
0.8530

> <Gold.Rescore>
     Score         DG    S(hbond)    S(metal)    S(lipo)     H(rot)  DE(clash)    DE(int)     intcor
     16.30     -18.57       1.00        0.00     118.44       1.60       0.12       2.15       ----

> <Gold.Chemscore.Fitness>
16.2962

> <Gold.Chemscore.DG>
-18.5710

> <Gold.Chemscore.ZeroCoef>
-5.4800

> <Gold.Chemscore.Hbond>
0.9968

> <Gold.Chemscore.Metal>
0.0000

> <Gold.Chemscore.Lipo>
118.4398

> <Gold.Chemscore.Internal_Hbond>
0.0000

> <Gold.Chemscore.DEClash>
0.1224

> <Gold.Chemscore.DEInternal>
2.1525

> <Gold.Chemscore.Rot>
1.5998

> <Gold.Chemscore.Internal.Correction>
   9.000000E+99

> <Gold.Chemscore.Hbonds>
donor molecule, donor type, donor heavy atom, donor atom, acceptor molecule, acceptor atom, score
      L1  H     6    47       P1  7957  0.46

> <Gold.Chemscore.Hbond.Weighted>
-3.3292

> <Gold.Chemscore.Metal.Weighted>
-0.0000

> <Gold.Chemscore.Lipo.Weighted>
-13.8575

> <Gold.Chemscore.Internal_Hbond.Weighted>
0.0000

> <Gold.Chemscore.DEClash.Weighted>
0.1224

> <Gold.Chemscore.DEInternal.Weighted>
2.1525

> <Gold.Chemscore.Rot.Weighted>
4.0956

> <Gold.Chemscore.Internal.Correction.Weighted>
   9.000000E+99

> <Gold.Protein.RotatedTorsions>
[ 6907 6896 6895 6894 ] final   -7.46 input  -60.11 | X-H torsion
[ 7974 7965 7964 7962 ] final   58.09 input  175.53 | X-H torsion
[ 8008 7997 7996 7995 ] final  177.21 input   59.86 | X-H torsion
[ 10167 10162 10161 10158 ] final   87.76 input  -65.29 | X-H torsion
[ 10718 10713 10712 10709 ] final  -30.77 input   66.30 | X-H torsion
[ 10763 10752 10751 10750 ] final   99.64 input  -60.55 | X-H torsion
[ 11005 11000 10999 10996 ] final  127.96 input  -57.11 | X-H torsion

> <Gold.Protein.ActiveResidues>
 VAL166  LYS551  ARG553  GLY616  TRP617  ASP618  TYR619  PRO620  LYS621  CYS622 
 ASP623  PHE694  ASN695  SER759  ASP760  ASP761  ALA762  ILE779  LEU786  VAL792 
 PHE793  MET794  SER795  GLU796  ALA797  LYS798  CYS799  TRP800  GLU811  SER814 

> <Gold.Protein.RotatedAtoms>
  151.4492  135.1028  159.9692 H   0  0  0  0  0  0  0  0  0  0  0  0  # atno 6907 bound_to 6896
  152.4894  133.8456  159.7185 H   0  0  0  0  0  0  0  0  0  0  0  0  # atno 6908 bound_to 6896
  150.9034  133.7030  159.2900 H   0  0  0  0  0  0  0  0  0  0  0  0  # atno 6909 bound_to 6896
  145.9220  139.3737  143.0473 H   0  0  0  0  0  0  0  0  0  0  0  0  # atno 7974 bound_to 7965
  156.0681  140.1364  156.9861 H   0  0  0  0  0  0  0  0  0  0  0  0  # atno 8008 bound_to 7997
  154.4517  140.0977  156.6690 H   0  0  0  0  0  0  0  0  0  0  0  0  # atno 8009 bound_to 7997
  155.5271  140.3457  155.4421 H   0  0  0  0  0  0  0  0  0  0  0  0  # atno 8010 bound_to 7997
  139.8741  144.6476  150.8916 H   0  0  0  0  0  0  0  0  0  0  0  0  # atno 10167 bound_to 10162
  156.3957  130.4381  149.7361 H   0  0  0  0  0  0  0  0  0  0  0  0  # atno 10718 bound_to 10713
  153.3039  135.4106  155.1277 H   0  0  0  0  0  0  0  0  0  0  0  0  # atno 10763 bound_to 10752
  154.8557  135.3548  154.5814 H   0  0  0  0  0  0  0  0  0  0  0  0  # atno 10764 bound_to 10752
  153.6240  135.7063  153.5358 H   0  0  0  0  0  0  0  0  0  0  0  0  # atno 10765 bound_to 10752
  139.9535  134.9617  156.8932 H   0  0  0  0  0  0  0  0  0  0  0  0  # atno 11005 bound_to 11000
  145.8538  140.9514  143.0736 LP  0  0  0  0  0  0  0  0  0  0  0  0  # atno 17320 bound_to 7965
  144.6754  140.0441  143.7480 LP  0  0  0  0  0  0  0  0  0  0  0  0  # atno 17321 bound_to 7965
  140.7756  143.3639  151.1776 LP  0  0  0  0  0  0  0  0  0  0  0  0  # atno 17342 bound_to 10162
  139.7256  143.9153  152.3001 LP  0  0  0  0  0  0  0  0  0  0  0  0  # atno 17343 bound_to 10162
  156.4397  130.7855  151.2876 LP  0  0  0  0  0  0  0  0  0  0  0  0  # atno 17370 bound_to 10713
  157.7501  131.0129  150.3401 LP  0  0  0  0  0  0  0  0  0  0  0  0  # atno 17371 bound_to 10713
  140.5663  134.0486  155.7415 LP  0  0  0  0  0  0  0  0  0  0  0  0  # atno 17394 bound_to 11000
  141.1202  133.9473  157.2744 LP  0  0  0  0  0  0  0  0  0  0  0  0  # atno 17395 bound_to 11000

$$$$
