AV-unprocessed.smi:2152|AV-procd|sdf|8764|dock10
  -GOLD-   2272011543D 1   1.00000     0.00000
 Structure written by MMmdl.
 41 42  0  0  0  0  0  0  0  0  1 V2000
  153.9871  141.2300  160.9076 C   0  0  0  0  0  0  0  0  0  0  0  0
  153.4870  142.6181  160.4716 C   0  0  2  0  0  0  0  0  0  0  0  0
  152.5302  143.2291  161.5164 C   0  0  0  0  0  0  0  0  0  0  0  0
  152.0808  144.6428  161.1130 C   0  0  0  0  0  0  0  0  0  0  0  0
  151.4393  144.6491  159.7176 C   0  0  0  0  0  0  0  0  0  0  0  0
  152.3852  144.0413  158.6669 C   0  0  0  0  0  0  0  0  0  0  0  0
  152.8559  142.6250  159.0546 C   0  0  2  0  0  0  0  0  0  0  0  0
  151.7370  141.6865  158.9471 N   0  0  0  0  0  0  0  0  0  0  0  0
  151.7038  140.5744  158.1968 C   0  0  0  0  0  0  0  0  0  0  0  0
  152.6521  140.1891  157.5115 O   0  0  0  0  0  0  0  0  0  0  0  0
  150.4004  139.7667  158.2596 C   0  0  0  0  0  0  0  0  0  0  0  0
  149.3063  140.3733  157.4908 N   0  0  0  0  0  0  0  0  0  0  0  0
  149.4751  140.6269  156.1417 C   0  0  0  0  0  0  0  0  0  0  0  0
  148.5268  141.1972  155.3665 C   0  0  0  0  0  0  0  0  0  0  0  0
  147.2368  141.5855  155.9241 C   0  0  0  0  0  0  0  0  0  0  0  0
  146.3521  142.1209  155.2555 O   0  0  0  0  0  0  0  0  0  0  0  0
  147.0865  141.3044  157.3038 N   0  0  0  0  0  0  0  0  0  0  0  0
  145.8474  141.6634  157.9618 C   0  0  0  0  0  0  0  0  0  0  0  0
  148.0867  140.7191  158.1114 C   0  0  0  0  0  0  0  0  0  0  0  0
  147.9146  140.5182  159.3164 O   0  0  0  0  0  0  0  0  0  0  0  0
  153.1643  140.5281  161.0456 H   0  0  0  0  0  0  0  0  0  0  0  0
  154.5283  141.2897  161.8520 H   0  0  0  0  0  0  0  0  0  0  0  0
  154.6656  140.8074  160.1661 H   0  0  0  0  0  0  0  0  0  0  0  0
  154.3663  143.2628  160.4282 H   0  0  0  0  0  0  0  0  0  0  0  0
  151.6558  142.5890  161.6408 H   0  0  0  0  0  0  0  0  0  0  0  0
  153.0197  143.2698  162.4901 H   0  0  0  0  0  0  0  0  0  0  0  0
  151.3758  145.0323  161.8479 H   0  0  0  0  0  0  0  0  0  0  0  0
  152.9396  145.3153  161.1222 H   0  0  0  0  0  0  0  0  0  0  0  0
  150.5038  144.0890  159.7424 H   0  0  0  0  0  0  0  0  0  0  0  0
  151.1779  145.6693  159.4349 H   0  0  0  0  0  0  0  0  0  0  0  0
  151.8978  144.0231  157.6912 H   0  0  0  0  0  0  0  0  0  0  0  0
  153.2559  144.6890  158.5564 H   0  0  0  0  0  0  0  0  0  0  0  0
  153.6296  142.3401  158.3393 H   0  0  0  0  0  0  0  0  0  0  0  0
  150.9115  141.9127  159.4823 H   0  0  0  0  0  0  0  0  0  0  0  0
  150.6056  138.7627  157.8859 H   0  0  0  0  0  0  0  0  0  0  0  0
  150.0979  139.6369  159.3005 H   0  0  0  0  0  0  0  0  0  0  0  0
  150.4160  140.3620  155.6816 H   0  0  0  0  0  0  0  0  0  0  0  0
  148.7267  141.3713  154.3194 H   0  0  0  0  0  0  0  0  0  0  0  0
  145.5246  140.8100  158.5611 H   0  0  0  0  0  0  0  0  0  0  0  0
  145.0693  141.8908  157.2333 H   0  0  0  0  0  0  0  0  0  0  0  0
  146.0601  142.5322  158.5867 H   0  0  0  0  0  0  0  0  0  0  0  0
  1  2  1  0  0  0  0
  1 21  1  0  0  0  0
  1 22  1  0  0  0  0
  1 23  1  0  0  0  0
  2  7  1  0  0  0  0
  2  3  1  0  0  0  0
  2 24  1  0  0  0  0
  3  4  1  0  0  0  0
  3 25  1  0  0  0  0
  3 26  1  0  0  0  0
  4  5  1  0  0  0  0
  4 27  1  0  0  0  0
  4 28  1  0  0  0  0
  5  6  1  0  0  0  0
  5 29  1  0  0  0  0
  5 30  1  0  0  0  0
  6  7  1  0  0  0  0
  6 31  1  0  0  0  0
  6 32  1  0  0  0  0
  7  8  1  0  0  0  0
  7 33  1  0  0  0  0
  8  9  1  0  0  0  0
  8 34  1  0  0  0  0
  9 10  2  0  0  0  0
  9 11  1  0  0  0  0
 11 12  1  0  0  0  0
 11 35  1  0  0  0  0
 11 36  1  0  0  0  0
 12 19  1  0  0  0  0
 12 13  1  0  0  0  0
 13 14  2  0  0  0  0
 13 37  1  0  0  0  0
 14 15  1  0  0  0  0
 14 38  1  0  0  0  0
 15 16  2  0  0  0  0
 15 17  1  0  0  0  0
 17 18  1  0  0  0  0
 17 19  1  0  0  0  0
 18 39  1  0  0  0  0
 18 40  1  0  0  0  0
 18 41  1  0  0  0  0
 19 20  2  0  0  0  0
M  END
> <s_m_source_file>
AV-unprocessed.smi

> <i_m_source_file_index>
2152

> <i_lp_mmshare_version>
43012

> <i_f3d_flags>
0

> <s_epik_input>
W0NIM11bQ0BASF0xW0NIMl1bQ0gyXVtDSDJdW0NIMl1bQ0BIXTFbTkhdQyg9TylbQ0gyXW4yW2NIXVtjSF1jKD1PKW4oW0NIM10pYzI9Tw==

> <s_epik_cmdline>
J2VwaWtfcHl0aG9uJywgJy1waCcsICc3LjAnLCAnLXRuJywgJzgnLCAnLW1hJywgJzIwMCcsICctbWV0YWxfYmluZGluZycsICctaW1hZScsICc8aW5maWxlLm1hZT4nLCAnLW9tYWUnLCAnPG91dGZpbGUubWFlPic=

> <r_lp_tautomer_probability>
1

> <r_epik_Ionization_Penalty>
3.20555e-08

> <r_epik_Ionization_Penalty_Charging>
1.30086e-08

> <r_epik_Ionization_Penalty_Neutral>
1.90469e-08

> <r_epik_State_Penalty>
-0

> <r_epik_Charging_Adjusted_Penalty>
1.30086e-08

> <i_epik_Tot_Q>
0

> <i_epik_Tot_abs_Q>
0

> <r_epik_Metal_State_Penalty>
-0

> <b_epik_Metal_Only>
0

> <s_lp_Force_Field>
OPLS_2005

> <r_lp_Energy>
17.3754

> <b_lp_Chiralities_Consistent>
1

> <s_lp_Variant>
AV-unprocessed.smi:2152-3

> <Gold.Version>
5.8.1

> <Gold.Id.Protein>
6NUR|6NUR_protein|mol2

> <Gold.PLP.Fitness>
47.5330

> <Gold.PLP.PLP>
-44.9757

> <Gold.PLP.part.hbond>
-2.0000

> <Gold.PLP.part.metal>
0.0000

> <Gold.PLP.part.buried>
-4.5938

> <Gold.PLP.part.nonpolar>
-38.6380

> <Gold.PLP.part.repulsive>
0.2774

> <Gold.PLP.ligand.clash>
0.0000

> <Gold.PLP.ligand.torsion>
0.2258

> <Gold.PLP.Chemscore.Hbond>
1.0000

> <Gold.PLP.Chemscore.CHOScore>
0.0000

> <Gold.PLP.Chemscore.Metal>
0.0000

> <Gold.Chemscore.Hbonds>
donor molecule, donor type, donor heavy atom, donor atom, acceptor molecule, acceptor atom, score
      P1  H  7997  8009       L1    10  1.00

> <Gold.PLP.Chemscore.Internal.Correction>
0.0089

> <Gold.Rescore>
     Score         DG    S(hbond)    S(metal)    S(lipo)     H(rot)  DE(clash)    DE(int)     intcor
     16.53     -16.86       0.98        0.00     102.50       1.52       0.00       0.33       ----

> <Gold.Chemscore.Fitness>
16.5322

> <Gold.Chemscore.DG>
-16.8594

> <Gold.Chemscore.ZeroCoef>
-5.4800

> <Gold.Chemscore.Hbond>
0.9848

> <Gold.Chemscore.Metal>
0.0000

> <Gold.Chemscore.Lipo>
102.4965

> <Gold.Chemscore.Internal_Hbond>
0.0000

> <Gold.Chemscore.DEClash>
0.0000

> <Gold.Chemscore.DEInternal>
0.3272

> <Gold.Chemscore.Rot>
1.5242

> <Gold.Chemscore.Internal.Correction>
   9.000000E+99

> <Gold.Chemscore.Hbonds>
donor molecule, donor type, donor heavy atom, donor atom, acceptor molecule, acceptor atom, score
      P1  H  7997  8009       L1    10  0.95

> <Gold.Chemscore.Hbond.Weighted>
-3.2892

> <Gold.Chemscore.Metal.Weighted>
-0.0000

> <Gold.Chemscore.Lipo.Weighted>
-11.9921

> <Gold.Chemscore.Internal_Hbond.Weighted>
0.0000

> <Gold.Chemscore.DEClash.Weighted>
0.0000

> <Gold.Chemscore.DEInternal.Weighted>
0.3272

> <Gold.Chemscore.Rot.Weighted>
3.9019

> <Gold.Chemscore.Internal.Correction.Weighted>
   9.000000E+99

> <Gold.Protein.RotatedTorsions>
[ 6907 6896 6895 6894 ] final -164.70 input  -60.11 | X-H torsion
[ 7974 7965 7964 7962 ] final   88.82 input  175.53 | X-H torsion
[ 8008 7997 7996 7995 ] final  170.84 input   59.86 | X-H torsion
[ 10167 10162 10161 10158 ] final  -39.29 input  -65.29 | X-H torsion
[ 10718 10713 10712 10709 ] final  120.45 input   66.30 | X-H torsion
[ 10763 10752 10751 10750 ] final  -12.52 input  -60.55 | X-H torsion
[ 11005 11000 10999 10996 ] final -127.07 input  -57.11 | X-H torsion

> <Gold.Protein.ActiveResidues>
 VAL166  LYS551  ARG553  GLY616  TRP617  ASP618  TYR619  PRO620  LYS621  CYS622 
 ASP623  PHE694  ASN695  SER759  ASP760  ASP761  ALA762  ILE779  LEU786  VAL792 
 PHE793  MET794  SER795  GLU796  ALA797  LYS798  CYS799  TRP800  GLU811  SER814 

> <Gold.Protein.RotatedAtoms>
  151.4160  133.3712  159.2749 H   0  0  0  0  0  0  0  0  0  0  0  0  # atno 6907 bound_to 6896
  150.9328  134.8743  159.7573 H   0  0  0  0  0  0  0  0  0  0  0  0  # atno 6908 bound_to 6896
  152.5036  134.4106  159.9499 H   0  0  0  0  0  0  0  0  0  0  0  0  # atno 6909 bound_to 6896
  145.5405  139.2288  143.2568 H   0  0  0  0  0  0  0  0  0  0  0  0  # atno 7974 bound_to 7965
  156.1327  140.1527  156.9040 H   0  0  0  0  0  0  0  0  0  0  0  0  # atno 8008 bound_to 7997
  154.4922  140.0848  156.7659 H   0  0  0  0  0  0  0  0  0  0  0  0  # atno 8009 bound_to 7997
  155.4225  140.3423  155.4275 H   0  0  0  0  0  0  0  0  0  0  0  0  # atno 8010 bound_to 7997
  140.7068  143.3224  151.2761 H   0  0  0  0  0  0  0  0  0  0  0  0  # atno 10167 bound_to 10162
  157.5890  131.1066  150.8037 H   0  0  0  0  0  0  0  0  0  0  0  0  # atno 10718 bound_to 10713
  153.4997  135.7017  153.5838 H   0  0  0  0  0  0  0  0  0  0  0  0  # atno 10763 bound_to 10752
  153.3975  135.3880  155.1965 H   0  0  0  0  0  0  0  0  0  0  0  0  # atno 10764 bound_to 10752
  154.8711  135.3873  154.4466 H   0  0  0  0  0  0  0  0  0  0  0  0  # atno 10765 bound_to 10752
  140.9630  134.0911  157.3949 H   0  0  0  0  0  0  0  0  0  0  0  0  # atno 11005 bound_to 11000
  146.1984  140.6225  142.9113 LP  0  0  0  0  0  0  0  0  0  0  0  0  # atno 17320 bound_to 7965
  144.7579  140.5352  143.6756 LP  0  0  0  0  0  0  0  0  0  0  0  0  # atno 17321 bound_to 7965
  139.6681  144.0068  152.2736 LP  0  0  0  0  0  0  0  0  0  0  0  0  # atno 17342 bound_to 10162
  139.9658  144.6527  150.8036 LP  0  0  0  0  0  0  0  0  0  0  0  0  # atno 17343 bound_to 10162
  156.8464  130.5065  149.5316 LP  0  0  0  0  0  0  0  0  0  0  0  0  # atno 17370 bound_to 10713
  156.0942  130.5919  150.9785 LP  0  0  0  0  0  0  0  0  0  0  0  0  # atno 17371 bound_to 10713
  139.8884  135.0098  156.6621 LP  0  0  0  0  0  0  0  0  0  0  0  0  # atno 17394 bound_to 11000
  140.7440  133.8953  155.8299 LP  0  0  0  0  0  0  0  0  0  0  0  0  # atno 17395 bound_to 11000

$$$$
