AV-unprocessed.smi:2083|AV-procd|sdf|8499|dock5
  -GOLD-   2272011213D 1   1.00000     0.00000
 Structure written by MMmdl.
 44 45  0  0  0  0  0  0  0  0  3 V2000
  147.1042  135.4117  163.2369 C   0  0  0  0  0  0  0  0  0  0  0  0
  147.6501  135.4588  161.8509 C   0  0  0  0  0  0  0  0  0  0  0  0
  148.0525  134.4876  160.9785 C   0  0  0  0  0  0  0  0  0  0  0  0
  148.4692  135.2276  159.8384 C   0  0  0  0  0  0  0  0  0  0  0  0
  148.9453  134.7136  158.6940 N   0  5  0  0  0  0  0  0  0  0  0  0
  148.3567  135.0170  157.5151 C   0  0  0  0  0  0  0  0  0  0  0  0
  147.2081  135.4371  157.3561 O   0  0  0  0  0  0  0  0  0  0  0  0
  149.1517  134.8282  156.4522 N   0  0  0  0  0  0  0  0  0  0  0  0
  148.7915  135.0898  155.0619 C   0  0  0  0  0  0  0  0  0  0  0  0
  148.3011  133.8171  154.3156 C   0  0  1  0  0  0  0  0  0  0  0  0
  147.4902  132.9153  155.2736 C   0  0  0  0  0  0  0  0  0  0  0  0
  147.4983  134.0965  153.0792 N   0  3  1  0  0  0  0  0  0  0  0  0
  147.0576  132.9013  152.3021 C   0  0  0  0  0  0  0  0  0  0  0  0
  146.3533  133.3023  150.9951 C   0  0  0  0  0  0  0  0  0  0  0  0
  145.1699  134.2364  151.2619 C   0  0  0  0  0  0  0  0  0  0  0  0
  145.6403  135.4570  152.0657 C   0  0  1  0  0  0  0  0  0  0  0  0
  144.4760  136.4112  152.3668 C   0  0  0  0  0  0  0  0  0  0  0  0
  146.3422  134.9972  153.3583 C   0  0  0  0  0  0  0  0  0  0  0  0
  148.3163  136.5314  159.9982 N   0  0  0  0  0  0  0  0  0  0  0  0
  147.7965  136.6884  161.2886 O   0  0  0  0  0  0  0  0  0  0  0  0
  146.1072  134.9715  163.2427 H   0  0  0  0  0  0  0  0  0  0  0  0
  147.0350  136.4112  163.6668 H   0  0  0  0  0  0  0  0  0  0  0  0
  147.7444  134.8109  163.8828 H   0  0  0  0  0  0  0  0  0  0  0  0
  148.0532  133.4190  161.1319 H   0  0  0  0  0  0  0  0  0  0  0  0
  150.0821  134.4772  156.6273 H   0  0  0  0  0  0  0  0  0  0  0  0
  148.0120  135.8523  155.0592 H   0  0  0  0  0  0  0  0  0  0  0  0
  149.6647  135.5287  154.5774 H   0  0  0  0  0  0  0  0  0  0  0  0
  149.1915  133.2686  154.0043 H   0  0  0  0  0  0  0  0  0  0  0  0
  148.0728  132.6304  156.1498 H   0  0  0  0  0  0  0  0  0  0  0  0
  147.1733  131.9840  154.8076 H   0  0  0  0  0  0  0  0  0  0  0  0
  146.5942  133.4262  155.6274 H   0  0  0  0  0  0  0  0  0  0  0  0
  147.9101  132.2846  152.0206 H   0  0  0  0  0  0  0  0  0  0  0  0
  146.3973  132.2869  152.9166 H   0  0  0  0  0  0  0  0  0  0  0  0
  147.0660  133.7952  150.3325 H   0  0  0  0  0  0  0  0  0  0  0  0
  146.0104  132.4106  150.4692 H   0  0  0  0  0  0  0  0  0  0  0  0
  144.7242  134.5506  150.3174 H   0  0  0  0  0  0  0  0  0  0  0  0
  144.3947  133.7008  151.8122 H   0  0  0  0  0  0  0  0  0  0  0  0
  146.3656  136.0047  151.4620 H   0  0  0  0  0  0  0  0  0  0  0  0
  143.7113  135.9258  152.9742 H   0  0  0  0  0  0  0  0  0  0  0  0
  144.0016  136.7545  151.4470 H   0  0  0  0  0  0  0  0  0  0  0  0
  144.8199  137.2933  152.9075 H   0  0  0  0  0  0  0  0  0  0  0  0
  145.6316  134.4792  154.0051 H   0  0  0  0  0  0  0  0  0  0  0  0
  146.6685  135.8795  153.9063 H   0  0  0  0  0  0  0  0  0  0  0  0
  148.1180  134.6012  152.4620 H   0  0  0  0  0  0  0  0  0  0  0  0
  1  2  1  0  0  0  0
  1 21  1  0  0  0  0
  1 22  1  0  0  0  0
  1 23  1  0  0  0  0
  2 20  1  0  0  0  0
  2  3  2  0  0  0  0
  3  4  1  0  0  0  0
  3 24  1  0  0  0  0
  4  5  1  0  0  0  0
  4 19  2  0  0  0  0
  5  6  1  0  0  0  0
  6  7  2  0  0  0  0
  6  8  1  0  0  0  0
  8  9  1  0  0  0  0
  8 25  1  0  0  0  0
  9 10  1  0  0  0  0
  9 26  1  0  0  0  0
  9 27  1  0  0  0  0
 10 11  1  0  0  0  0
 10 12  1  0  0  0  0
 10 28  1  0  0  0  0
 11 29  1  0  0  0  0
 11 30  1  0  0  0  0
 11 31  1  0  0  0  0
 12 18  1  0  0  0  0
 12 13  1  0  0  0  0
 12 44  1  0  0  0  0
 13 14  1  0  0  0  0
 13 32  1  0  0  0  0
 13 33  1  0  0  0  0
 14 15  1  0  0  0  0
 14 34  1  0  0  0  0
 14 35  1  0  0  0  0
 15 16  1  0  0  0  0
 15 36  1  0  0  0  0
 15 37  1  0  0  0  0
 16 17  1  0  0  0  0
 16 18  1  0  0  0  0
 16 38  1  0  0  0  0
 17 39  1  0  0  0  0
 17 40  1  0  0  0  0
 17 41  1  0  0  0  0
 18 42  1  0  0  0  0
 18 43  1  0  0  0  0
 19 20  1  0  0  0  0
M  CHG  1   5  -1
M  CHG  1  12   1
M  END
> <s_m_source_file>
AV-unprocessed.smi

> <i_m_source_file_index>
2083

> <i_lp_mmshare_version>
43012

> <i_f3d_flags>
0

> <s_epik_input>
W0NIM11jMVtjSF1jKG5vMSlbTkhdQyg9TylbTkhdW0NIMl1bQ0BIXShbQ0gzXSlOMltDSDJdW0NIMl1bQ0gyXVtDQEBIXShbQ0gzXSlbQ0gyXTI=

> <s_epik_cmdline>
J2VwaWtfcHl0aG9uJywgJy1waCcsICc3LjAnLCAnLXRuJywgJzgnLCAnLW1hJywgJzIwMCcsICctbWV0YWxfYmluZGluZycsICctaW1hZScsICc8aW5maWxlLm1hZT4nLCAnLW9tYWUnLCAnPG91dGZpbGUubWFlPic=

> <r_epik_Ionization_Penalty>
6.22434

> <r_epik_Ionization_Penalty_Charging>
6.22425

> <r_epik_Ionization_Penalty_Neutral>
9.62407e-05

> <r_epik_State_Penalty>
6.22423

> <r_epik_Charging_Adjusted_Penalty>
12.4485

> <i_epik_Tot_Q>
0

> <i_epik_Tot_abs_Q>
2

> <r_epik_Metal_State_Penalty>
2.16764

> <b_epik_Metal_Only>
1

> <s_lp_Force_Field>
OPLS_2005

> <r_lp_Energy>
9.18004

> <b_lp_Chiralities_Consistent>
1

> <s_lp_Variant>
AV-unprocessed.smi:2083-10

> <Gold.Version>
5.8.1

> <Gold.Id.Protein>
6NUR|6NUR_protein|mol2

> <Gold.PLP.Fitness>
42.6544

> <Gold.PLP.PLP>
-27.4751

> <Gold.PLP.part.hbond>
-4.5602

> <Gold.PLP.part.metal>
0.0000

> <Gold.PLP.part.buried>
-3.5169

> <Gold.PLP.part.nonpolar>
-19.7844

> <Gold.PLP.part.repulsive>
0.0352

> <Gold.PLP.ligand.clash>
0.0000

> <Gold.PLP.ligand.torsion>
1.0247

> <Gold.PLP.Chemscore.Hbond>
5.6928

> <Gold.PLP.Chemscore.CHOScore>
0.0000

> <Gold.PLP.Chemscore.Metal>
0.0000

> <Gold.Chemscore.Hbonds>
donor molecule, donor type, donor heavy atom, donor atom, acceptor molecule, acceptor atom, score
      L1  H    12    44       P1  7948  2.00
      P1  H  6896  6907       L1     5  1.30
      P1  H  6931  6943       L1    20  0.78

> <Gold.PLP.Chemscore.Internal.Correction>
0.1504

> <Gold.Rescore>
     Score         DG    S(hbond)    S(metal)    S(lipo)     H(rot)  DE(clash)    DE(int)     intcor
     15.35     -16.64       2.29        0.00      63.41       1.52       0.07       1.22       ----

> <Gold.Chemscore.Fitness>
15.3528

> <Gold.Chemscore.DG>
-16.6424

> <Gold.Chemscore.ZeroCoef>
-5.4800

> <Gold.Chemscore.Hbond>
2.2851

> <Gold.Chemscore.Metal>
0.0000

> <Gold.Chemscore.Lipo>
63.4092

> <Gold.Chemscore.Internal_Hbond>
0.0000

> <Gold.Chemscore.DEClash>
0.0689

> <Gold.Chemscore.DEInternal>
1.2207

> <Gold.Chemscore.Rot>
1.5190

> <Gold.Chemscore.Internal.Correction>
   9.000000E+99

> <Gold.Chemscore.Hbonds>
donor molecule, donor type, donor heavy atom, donor atom, acceptor molecule, acceptor atom, score
      L1  H    12    44       P1  7948  0.38
      P1  H  6896  6907       L1     5  0.06
      P1  H  6931  6943       L1    20  0.15

> <Gold.Chemscore.Hbond.Weighted>
-7.6322

> <Gold.Chemscore.Metal.Weighted>
-0.0000

> <Gold.Chemscore.Lipo.Weighted>
-7.4189

> <Gold.Chemscore.Internal_Hbond.Weighted>
0.0000

> <Gold.Chemscore.DEClash.Weighted>
0.0689

> <Gold.Chemscore.DEInternal.Weighted>
1.2207

> <Gold.Chemscore.Rot.Weighted>
3.8886

> <Gold.Chemscore.Internal.Correction.Weighted>
   9.000000E+99

> <Gold.Protein.RotatedTorsions>
[ 6907 6896 6895 6894 ] final  -85.22 input  -60.11 | X-H torsion
[ 7974 7965 7964 7962 ] final    6.76 input  175.53 | X-H torsion
[ 8008 7997 7996 7995 ] final   33.05 input   59.86 | X-H torsion
[ 10167 10162 10161 10158 ] final -158.11 input  -65.29 | X-H torsion
[ 10718 10713 10712 10709 ] final  -51.26 input   66.30 | X-H torsion
[ 10763 10752 10751 10750 ] final  -56.65 input  -60.55 | X-H torsion
[ 11005 11000 10999 10996 ] final   69.65 input  -57.11 | X-H torsion

> <Gold.Protein.ActiveResidues>
 VAL166  LYS551  ARG553  GLY616  TRP617  ASP618  TYR619  PRO620  LYS621  CYS622 
 ASP623  PHE694  ASN695  SER759  ASP760  ASP761  ALA762  ILE779  LEU786  VAL792 
 PHE793  MET794  SER795  GLU796  ALA797  LYS798  CYS799  TRP800  GLU811  SER814 

> <Gold.Protein.RotatedAtoms>
  150.6871  134.3238  159.4797 H   0  0  0  0  0  0  0  0  0  0  0  0  # atno 6907 bound_to 6896
  152.1110  134.9271  160.0576 H   0  0  0  0  0  0  0  0  0  0  0  0  # atno 6908 bound_to 6896
  152.0514  133.3986  159.4415 H   0  0  0  0  0  0  0  0  0  0  0  0  # atno 6909 bound_to 6896
  146.2432  140.0185  142.8400 H   0  0  0  0  0  0  0  0  0  0  0  0  # atno 7974 bound_to 7965
  155.1324  140.3258  155.4471 H   0  0  0  0  0  0  0  0  0  0  0  0  # atno 8008 bound_to 7997
  156.2630  140.2008  156.6392 H   0  0  0  0  0  0  0  0  0  0  0  0  # atno 8009 bound_to 7997
  154.6603  140.0548  157.0041 H   0  0  0  0  0  0  0  0  0  0  0  0  # atno 8010 bound_to 7997
  139.6718  143.9732  152.2288 H   0  0  0  0  0  0  0  0  0  0  0  0  # atno 10167 bound_to 10162
  156.1726  130.4149  149.9624 H   0  0  0  0  0  0  0  0  0  0  0  0  # atno 10718 bound_to 10713
  154.2099  135.6396  153.5112 H   0  0  0  0  0  0  0  0  0  0  0  0  # atno 10763 bound_to 10752
  152.9992  135.5471  154.6226 H   0  0  0  0  0  0  0  0  0  0  0  0  # atno 10764 bound_to 10752
  154.5660  135.2913  155.0847 H   0  0  0  0  0  0  0  0  0  0  0  0  # atno 10765 bound_to 10752
  139.9642  134.7009  156.0581 H   0  0  0  0  0  0  0  0  0  0  0  0  # atno 11005 bound_to 11000
  145.1263  140.9492  143.4571 LP  0  0  0  0  0  0  0  0  0  0  0  0  # atno 17320 bound_to 7965
  145.0431  139.3243  143.5966 LP  0  0  0  0  0  0  0  0  0  0  0  0  # atno 17321 bound_to 7965
  139.9498  144.6627  150.8183 LP  0  0  0  0  0  0  0  0  0  0  0  0  # atno 17342 bound_to 10162
  140.7621  143.3189  151.2667 LP  0  0  0  0  0  0  0  0  0  0  0  0  # atno 17343 bound_to 10162
  156.7420  130.9083  151.3632 LP  0  0  0  0  0  0  0  0  0  0  0  0  # atno 17370 bound_to 10713
  157.6813  130.9143  150.0275 LP  0  0  0  0  0  0  0  0  0  0  0  0  # atno 17371 bound_to 10713
  141.1321  133.6584  156.3492 LP  0  0  0  0  0  0  0  0  0  0  0  0  # atno 17394 bound_to 11000
  140.5433  134.6099  157.5386 LP  0  0  0  0  0  0  0  0  0  0  0  0  # atno 17395 bound_to 11000

$$$$
