AV-unprocessed.smi:2988|AV-procd|sdf|11389|dock1
  -GOLD-   2272016313D 1   1.00000     0.00000
 Structure written by MMmdl.
 37 38  0  0  0  0  0  0  0  0  1 V2000
  152.1578  140.3309  158.4910 C   0  0  0  0  0  0  0  0  0  0  0  0
  151.6667  140.5181  157.0449 C   0  0  2  0  0  0  0  0  0  0  0  0
  150.2260  141.0686  157.0046 C   0  0  0  0  0  0  0  0  0  0  0  0
  149.7604  141.3286  155.5631 C   0  0  0  0  0  0  0  0  0  0  0  0
  149.8887  140.0670  154.6964 C   0  0  0  0  0  0  0  0  0  0  0  0
  151.3222  139.5079  154.7335 C   0  0  0  0  0  0  0  0  0  0  0  0
  151.8072  139.2419  156.1730 C   0  0  2  0  0  0  0  0  0  0  0  0
  151.0733  138.1070  156.7357 N   0  0  0  0  0  0  0  0  0  0  0  0
  151.0707  136.8506  156.2647 C   0  0  0  0  0  0  0  0  0  0  0  0
  151.6850  136.4995  155.2567 O   0  0  0  0  0  0  0  0  0  0  0  0
  150.2353  135.8355  157.0550 C   0  0  0  0  0  0  0  0  0  0  0  0
  149.9504  134.6209  156.2782 N   0  0  0  0  0  0  0  0  0  0  0  0
  150.5283  133.4719  156.7889 N   0  0  0  0  0  0  0  0  0  0  0  0
  150.3261  132.3446  156.1987 C   0  0  0  0  0  0  0  0  0  0  0  0
  149.5141  132.2332  155.0070 C   0  0  0  0  0  0  0  0  0  0  0  0
  149.2767  130.6928  154.2599 Cl  0  0  0  0  0  0  0  0  0  0  0  0
  148.9602  133.3672  154.5092 C   0  0  0  0  0  0  0  0  0  0  0  0
  147.9786  133.3150  153.0851 Cl  0  0  0  0  0  0  0  0  0  0  0  0
  149.1700  134.6705  155.1545 C   0  0  0  0  0  0  0  0  0  0  0  0
  148.6893  135.7226  154.7308 O   0  0  0  0  0  0  0  0  0  0  0  0
  151.5176  139.6492  159.0514 H   0  0  0  0  0  0  0  0  0  0  0  0
  152.1679  141.2813  159.0250 H   0  0  0  0  0  0  0  0  0  0  0  0
  153.1720  139.9311  158.5127 H   0  0  0  0  0  0  0  0  0  0  0  0
  152.3112  141.2766  156.5978 H   0  0  0  0  0  0  0  0  0  0  0  0
  149.5451  140.3672  157.4889 H   0  0  0  0  0  0  0  0  0  0  0  0
  150.1661  141.9954  157.5761 H   0  0  0  0  0  0  0  0  0  0  0  0
  148.7266  141.6752  155.5634 H   0  0  0  0  0  0  0  0  0  0  0  0
  150.3554  142.1323  155.1271 H   0  0  0  0  0  0  0  0  0  0  0  0
  149.1863  139.3100  155.0468 H   0  0  0  0  0  0  0  0  0  0  0  0
  149.6059  140.2937  153.6681 H   0  0  0  0  0  0  0  0  0  0  0  0
  151.3821  138.5947  154.1401 H   0  0  0  0  0  0  0  0  0  0  0  0
  151.9942  140.2221  154.2559 H   0  0  0  0  0  0  0  0  0  0  0  0
  152.8659  138.9834  156.1131 H   0  0  0  0  0  0  0  0  0  0  0  0
  150.5356  138.2929  157.5698 H   0  0  0  0  0  0  0  0  0  0  0  0
  150.7398  135.5723  157.9869 H   0  0  0  0  0  0  0  0  0  0  0  0
  149.3061  136.3237  157.3543 H   0  0  0  0  0  0  0  0  0  0  0  0
  150.7570  131.4132  156.5665 H   0  0  0  0  0  0  0  0  0  0  0  0
  1  2  1  0  0  0  0
  1 21  1  0  0  0  0
  1 22  1  0  0  0  0
  1 23  1  0  0  0  0
  2  7  1  0  0  0  0
  2  3  1  0  0  0  0
  2 24  1  0  0  0  0
  3  4  1  0  0  0  0
  3 25  1  0  0  0  0
  3 26  1  0  0  0  0
  4  5  1  0  0  0  0
  4 27  1  0  0  0  0
  4 28  1  0  0  0  0
  5  6  1  0  0  0  0
  5 29  1  0  0  0  0
  5 30  1  0  0  0  0
  6  7  1  0  0  0  0
  6 31  1  0  0  0  0
  6 32  1  0  0  0  0
  7  8  1  0  0  0  0
  7 33  1  0  0  0  0
  8  9  1  0  0  0  0
  8 34  1  0  0  0  0
  9 10  2  0  0  0  0
  9 11  1  0  0  0  0
 11 12  1  0  0  0  0
 11 35  1  0  0  0  0
 11 36  1  0  0  0  0
 12 19  1  0  0  0  0
 12 13  1  0  0  0  0
 13 14  2  0  0  0  0
 14 15  1  0  0  0  0
 14 37  1  0  0  0  0
 15 16  1  0  0  0  0
 15 17  2  0  0  0  0
 17 18  1  0  0  0  0
 17 19  1  0  0  0  0
 19 20  2  0  0  0  0
M  END
> <s_m_source_file>
AV-unprocessed.smi

> <i_m_source_file_index>
2988

> <i_lp_mmshare_version>
43012

> <i_f3d_flags>
0

> <s_epik_input>
W0NIM11bQ0BASF0xW0NIMl1bQ0gyXVtDSDJdW0NIMl1bQ0BIXTFbTkhdQyg9TylbQ0gyXW4ybltjSF1jKENsKWMoQ2wpYzI9Tw==

> <s_epik_cmdline>
J2VwaWtfcHl0aG9uJywgJy1waCcsICc3LjAnLCAnLXRuJywgJzgnLCAnLW1hJywgJzIwMCcsICctbWV0YWxfYmluZGluZycsICctaW1hZScsICc8aW5maWxlLm1hZT4nLCAnLW9tYWUnLCAnPG91dGZpbGUubWFlPic=

> <r_lp_tautomer_probability>
1

> <r_epik_Ionization_Penalty>
1.90782e-08

> <r_epik_Ionization_Penalty_Charging>
3.13143e-11

> <r_epik_Ionization_Penalty_Neutral>
1.90469e-08

> <r_epik_State_Penalty>
-0

> <r_epik_Charging_Adjusted_Penalty>
3.13143e-11

> <i_epik_Tot_Q>
0

> <i_epik_Tot_abs_Q>
0

> <r_epik_Metal_State_Penalty>
-0

> <b_epik_Metal_Only>
0

> <s_lp_Force_Field>
OPLS_2005

> <r_lp_Energy>
23.4163

> <b_lp_Chiralities_Consistent>
1

> <s_lp_Variant>
AV-unprocessed.smi:2988-3

> <Gold.Version>
5.8.1

> <Gold.Id.Protein>
6NUR|6NUR_protein|mol2

> <Gold.PLP.Fitness>
37.1760

> <Gold.PLP.PLP>
-32.3292

> <Gold.PLP.part.hbond>
-2.0000

> <Gold.PLP.part.metal>
0.0000

> <Gold.PLP.part.buried>
-0.5841

> <Gold.PLP.part.nonpolar>
-30.9462

> <Gold.PLP.part.repulsive>
1.4846

> <Gold.PLP.ligand.clash>
0.0000

> <Gold.PLP.ligand.torsion>
0.2694

> <Gold.PLP.Chemscore.Hbond>
1.7930

> <Gold.PLP.Chemscore.CHOScore>
0.0000

> <Gold.PLP.Chemscore.Metal>
0.0000

> <Gold.Chemscore.Hbonds>
donor molecule, donor type, donor heavy atom, donor atom, acceptor molecule, acceptor atom, score
      P1  H 10752 10764       L1    10  1.00

> <Gold.PLP.Chemscore.Internal.Correction>
0.0067

> <Gold.Rescore>
     Score         DG    S(hbond)    S(metal)    S(lipo)     H(rot)  DE(clash)    DE(int)     intcor
     15.43     -16.03       1.81        0.00      71.41       1.50       0.08       0.52       ----

> <Gold.Chemscore.Fitness>
15.4342

> <Gold.Chemscore.DG>
-16.0346

> <Gold.Chemscore.ZeroCoef>
-5.4800

> <Gold.Chemscore.Hbond>
1.8065

> <Gold.Chemscore.Metal>
0.0000

> <Gold.Chemscore.Lipo>
71.4090

> <Gold.Chemscore.Internal_Hbond>
0.0000

> <Gold.Chemscore.DEClash>
0.0757

> <Gold.Chemscore.DEInternal>
0.5247

> <Gold.Chemscore.Rot>
1.4977

> <Gold.Chemscore.Internal.Correction>
   9.000000E+99

> <Gold.Chemscore.Hbonds>
donor molecule, donor type, donor heavy atom, donor atom, acceptor molecule, acceptor atom, score
      P1  H  6896  6907       L1    13  0.02
      P1  H 10752 10764       L1    10  0.99

> <Gold.Chemscore.Hbond.Weighted>
-6.0338

> <Gold.Chemscore.Metal.Weighted>
-0.0000

> <Gold.Chemscore.Lipo.Weighted>
-8.3549

> <Gold.Chemscore.Internal_Hbond.Weighted>
0.0000

> <Gold.Chemscore.DEClash.Weighted>
0.0757

> <Gold.Chemscore.DEInternal.Weighted>
0.5247

> <Gold.Chemscore.Rot.Weighted>
3.8341

> <Gold.Chemscore.Internal.Correction.Weighted>
   9.000000E+99

> <Gold.Protein.RotatedTorsions>
[ 6907 6896 6895 6894 ] final -142.41 input  -60.11 | X-H torsion
[ 7974 7965 7964 7962 ] final   39.87 input  175.53 | X-H torsion
[ 8008 7997 7996 7995 ] final   70.68 input   59.86 | X-H torsion
[ 10167 10162 10161 10158 ] final   68.90 input  -65.29 | X-H torsion
[ 10718 10713 10712 10709 ] final   99.27 input   66.30 | X-H torsion
[ 10763 10752 10751 10750 ] final  -41.26 input  -60.55 | X-H torsion
[ 11005 11000 10999 10996 ] final  -85.14 input  -57.11 | X-H torsion

> <Gold.Protein.ActiveResidues>
 VAL166  LYS551  ARG553  GLY616  TRP617  ASP618  TYR619  PRO620  LYS621  CYS622 
 ASP623  PHE694  ASN695  SER759  ASP760  ASP761  ALA762  ILE779  LEU786  VAL792 
 PHE793  MET794  SER795  GLU796  ALA797  LYS798  CYS799  TRP800  GLU811  SER814 

> <Gold.Protein.RotatedAtoms>
  151.0866  133.5348  159.2617 H   0  0  0  0  0  0  0  0  0  0  0  0  # atno 6907 bound_to 6896
  151.2231  135.0525  159.8967 H   0  0  0  0  0  0  0  0  0  0  0  0  # atno 6908 bound_to 6896
  152.5430  134.0666  159.8229 H   0  0  0  0  0  0  0  0  0  0  0  0  # atno 6909 bound_to 6896
  146.0950  139.5600  142.9451 H   0  0  0  0  0  0  0  0  0  0  0  0  # atno 7974 bound_to 7965
  155.7425  140.3490  155.5111 H   0  0  0  0  0  0  0  0  0  0  0  0  # atno 8008 bound_to 7997
  155.9080  140.1045  157.1322 H   0  0  0  0  0  0  0  0  0  0  0  0  # atno 8009 bound_to 7997
  154.4052  140.1273  156.4508 H   0  0  0  0  0  0  0  0  0  0  0  0  # atno 8010 bound_to 7997
  140.0737  144.5131  150.7210 H   0  0  0  0  0  0  0  0  0  0  0  0  # atno 10167 bound_to 10162
  157.6879  131.0665  150.4923 H   0  0  0  0  0  0  0  0  0  0  0  0  # atno 10718 bound_to 10713
  153.9595  135.6741  153.4745 H   0  0  0  0  0  0  0  0  0  0  0  0  # atno 10763 bound_to 10752
  153.0845  135.4906  154.8565 H   0  0  0  0  0  0  0  0  0  0  0  0  # atno 10764 bound_to 10752
  154.7280  135.3132  154.8898 H   0  0  0  0  0  0  0  0  0  0  0  0  # atno 10765 bound_to 10752
  141.1644  133.7383  156.8971 H   0  0  0  0  0  0  0  0  0  0  0  0  # atno 11005 bound_to 11000
  145.5966  141.0361  143.2041 LP  0  0  0  0  0  0  0  0  0  0  0  0  # atno 17320 bound_to 7965
  144.7388  139.7507  143.7319 LP  0  0  0  0  0  0  0  0  0  0  0  0  # atno 17321 bound_to 7965
  140.7113  143.2507  151.4573 LP  0  0  0  0  0  0  0  0  0  0  0  0  # atno 17342 bound_to 10162
  139.5821  144.1687  152.1981 LP  0  0  0  0  0  0  0  0  0  0  0  0  # atno 17343 bound_to 10162
  156.5249  130.4170  149.6231 LP  0  0  0  0  0  0  0  0  0  0  0  0  # atno 17370 bound_to 10713
  156.3121  130.7235  151.2130 LP  0  0  0  0  0  0  0  0  0  0  0  0  # atno 17371 bound_to 10713
  140.1608  134.9167  157.2712 LP  0  0  0  0  0  0  0  0  0  0  0  0  # atno 17394 bound_to 11000
  140.2613  134.3567  155.7405 LP  0  0  0  0  0  0  0  0  0  0  0  0  # atno 17395 bound_to 11000

$$$$
