AV-unprocessed.smi:2248|AV-procd|sdf|9095|dock2
  -GOLD-   2272012293D 1   1.00000     0.00000
 Structure written by MMmdl.
 35 36  0  0  0  0  0  0  0  0  1 V2000
  153.1805  141.6838  160.6301 C   0  0  0  0  0  0  0  0  0  0  0  0
  152.4527  142.7732  159.8709 C   0  0  0  0  0  0  0  0  0  0  0  0
  152.5349  144.1186  160.2798 C   0  0  0  0  0  0  0  0  0  0  0  0
  151.8376  145.0827  159.5300 C   0  0  0  0  0  0  0  0  0  0  0  0
  151.0942  144.6651  158.4092 C   0  0  0  0  0  0  0  0  0  0  0  0
  151.0661  143.2950  158.0648 C   0  0  0  0  0  0  0  0  0  0  0  0
  150.2956  142.9789  156.9141 N   0  0  0  0  0  0  0  0  0  0  0  0
  150.2757  141.8288  156.2177 C   0  0  0  0  0  0  0  0  0  0  0  0
  150.9148  140.8138  156.4977 O   0  0  0  0  0  0  0  0  0  0  0  0
  149.4600  141.9170  155.1571 N   0  0  0  0  0  0  0  0  0  0  0  0
  149.2308  140.8477  154.1917 C   0  0  1  0  0  0  0  0  0  0  0  0
  149.0736  139.5264  154.8928 C   0  0  0  0  0  0  0  0  0  0  0  0
  147.9002  138.9488  154.6451 C   0  0  0  0  0  0  0  0  0  0  0  0
  147.0172  139.7748  153.7470 C   0  0  2  0  0  0  0  0  0  0  0  0
  146.5568  138.9882  152.5084 C   0  0  0  0  0  0  0  0  0  0  0  0
  147.6729  138.5845  151.7438 O   0  0  0  0  0  0  0  0  0  0  0  0
  147.8959  141.0103  153.4177 C   0  0  0  0  0  0  0  0  0  0  0  0
  151.7411  142.3727  158.7954 N   0  0  0  0  0  0  0  0  0  0  0  0
  150.0739  140.7762  153.5022 H   0  0  0  0  0  0  0  0  0  0  0  0
  146.1495  140.0805  154.3334 H   0  0  0  0  0  0  0  0  0  0  0  0
  153.4837  142.0291  161.6189 H   0  0  0  0  0  0  0  0  0  0  0  0
  154.0738  141.3776  160.0854 H   0  0  0  0  0  0  0  0  0  0  0  0
  152.5399  140.8106  160.7586 H   0  0  0  0  0  0  0  0  0  0  0  0
  153.1162  144.4066  161.1434 H   0  0  0  0  0  0  0  0  0  0  0  0
  151.8731  146.1255  159.8081 H   0  0  0  0  0  0  0  0  0  0  0  0
  150.5539  145.3936  157.8222 H   0  0  0  0  0  0  0  0  0  0  0  0
  149.7033  143.7208  156.5719 H   0  0  0  0  0  0  0  0  0  0  0  0
  148.9723  142.7864  154.9984 H   0  0  0  0  0  0  0  0  0  0  0  0
  149.8516  139.1088  155.5149 H   0  0  0  0  0  0  0  0  0  0  0  0
  147.5815  137.9976  155.0455 H   0  0  0  0  0  0  0  0  0  0  0  0
  145.9779  138.1096  152.7956 H   0  0  0  0  0  0  0  0  0  0  0  0
  145.9157  139.6078  151.8805 H   0  0  0  0  0  0  0  0  0  0  0  0
  148.3542  139.2322  151.8413 H   0  0  0  0  0  0  0  0  0  0  0  0
  147.3730  141.9280  153.6907 H   0  0  0  0  0  0  0  0  0  0  0  0
  148.0989  141.0779  152.3480 H   0  0  0  0  0  0  0  0  0  0  0  0
  1  2  1  0  0  0  0
  1 21  1  0  0  0  0
  1 22  1  0  0  0  0
  1 23  1  0  0  0  0
  2 18  1  0  0  0  0
  2  3  2  0  0  0  0
  3  4  1  0  0  0  0
  3 24  1  0  0  0  0
  4  5  2  0  0  0  0
  4 25  1  0  0  0  0
  5  6  1  0  0  0  0
  5 26  1  0  0  0  0
  6  7  1  0  0  0  0
  6 18  2  0  0  0  0
  7  8  1  0  0  0  0
  7 27  1  0  0  0  0
  8  9  2  0  0  0  0
  8 10  1  0  0  0  0
 10 11  1  0  0  0  0
 10 28  1  0  0  0  0
 11 19  1  0  0  0  0
 11 17  1  0  0  0  0
 11 12  1  0  0  0  0
 12 13  2  0  0  0  0
 12 29  1  0  0  0  0
 13 14  1  0  0  0  0
 13 30  1  0  0  0  0
 14 20  1  0  0  0  0
 14 15  1  0  0  0  0
 14 17  1  0  0  0  0
 15 16  1  0  0  0  0
 15 31  1  0  0  0  0
 15 32  1  0  0  0  0
 16 33  1  0  0  0  0
 17 34  1  0  0  0  0
 17 35  1  0  0  0  0
M  END
> <s_m_source_file>
AV-unprocessed.smi

> <i_m_source_file_index>
2248

> <i_lp_mmshare_version>
43012

> <i_f3d_flags>
0

> <s_epik_input>
W0NIM11jMVtjSF1bY0hdW2NIXWMobjEpW05IXUMoPU8pW05IXVtDQEBIXTJbQ0hdPVtDSF1bQ0BASF0oW0NIMl0yKVtDSDJdW09IXQ==

> <s_epik_cmdline>
J2VwaWtfcHl0aG9uJywgJy1waCcsICc3LjAnLCAnLXRuJywgJzgnLCAnLW1hJywgJzIwMCcsICctbWV0YWxfYmluZGluZycsICctaW1hZScsICc8aW5maWxlLm1hZT4nLCAnLW9tYWUnLCAnPG91dGZpbGUubWFlPic=

> <r_lp_tautomer_probability>
1

> <r_epik_Ionization_Penalty>
8.36606e-05

> <r_epik_Ionization_Penalty_Charging>
0

> <r_epik_Ionization_Penalty_Neutral>
8.36606e-05

> <r_epik_State_Penalty>
-0

> <r_epik_Charging_Adjusted_Penalty>
0

> <i_epik_Tot_Q>
0

> <i_epik_Tot_abs_Q>
0

> <r_epik_Metal_State_Penalty>
-0

> <b_epik_Metal_Only>
0

> <s_lp_Force_Field>
OPLS_2005

> <r_lp_Energy>
17.7077

> <b_lp_Chiralities_Consistent>
1

> <s_lp_Variant>
AV-unprocessed.smi:2248-2

> <Gold.Version>
5.8.1

> <Gold.Id.Protein>
6NUR|6NUR_protein|mol2

> <Gold.PLP.Fitness>
51.0567

> <Gold.PLP.PLP>
-40.5476

> <Gold.PLP.part.hbond>
-4.6255

> <Gold.PLP.part.metal>
0.0000

> <Gold.PLP.part.buried>
-2.1220

> <Gold.PLP.part.nonpolar>
-33.6235

> <Gold.PLP.part.repulsive>
0.2507

> <Gold.PLP.ligand.clash>
0.0000

> <Gold.PLP.ligand.torsion>
0.3103

> <Gold.PLP.Chemscore.Hbond>
3.7040

> <Gold.PLP.Chemscore.CHOScore>
0.0000

> <Gold.PLP.Chemscore.Metal>
0.0000

> <Gold.Chemscore.Hbonds>
donor molecule, donor type, donor heavy atom, donor atom, acceptor molecule, acceptor atom, score
      L1  H     7    27       P1  8028  1.00
      L1  H    10    28       P1  8028  0.84
      L1  H    16    33       P1  7957  0.91
      P1  H  7954  7966       L1    16  0.86

> <Gold.PLP.Chemscore.Internal.Correction>
0.0176

> <Gold.Rescore>
     Score         DG    S(hbond)    S(metal)    S(lipo)     H(rot)  DE(clash)    DE(int)     intcor
     18.74     -21.89       2.92        0.00      96.79       1.82       0.10       3.05       ----

> <Gold.Chemscore.Fitness>
18.7424

> <Gold.Chemscore.DG>
-21.8917

> <Gold.Chemscore.ZeroCoef>
-5.4800

> <Gold.Chemscore.Hbond>
2.9168

> <Gold.Chemscore.Metal>
0.0000

> <Gold.Chemscore.Lipo>
96.7916

> <Gold.Chemscore.Internal_Hbond>
0.0000

> <Gold.Chemscore.DEClash>
0.0969

> <Gold.Chemscore.DEInternal>
3.0524

> <Gold.Chemscore.Rot>
1.8184

> <Gold.Chemscore.Internal.Correction>
   9.000000E+99

> <Gold.Chemscore.Hbonds>
donor molecule, donor type, donor heavy atom, donor atom, acceptor molecule, acceptor atom, score
      L1  H     7    27       P1  8028  0.97
      L1  H    10    28       P1  8028  0.78
      L1  H    16    33       P1  7957  0.88
      P1  H  7954  7966       L1    16  0.15

> <Gold.Chemscore.Hbond.Weighted>
-9.7421

> <Gold.Chemscore.Metal.Weighted>
-0.0000

> <Gold.Chemscore.Lipo.Weighted>
-11.3246

> <Gold.Chemscore.Internal_Hbond.Weighted>
0.0000

> <Gold.Chemscore.DEClash.Weighted>
0.0969

> <Gold.Chemscore.DEInternal.Weighted>
3.0524

> <Gold.Chemscore.Rot.Weighted>
4.6551

> <Gold.Chemscore.Internal.Correction.Weighted>
   9.000000E+99

> <Gold.Protein.RotatedTorsions>
[ 6907 6896 6895 6894 ] final  -93.19 input  -60.11 | X-H torsion
[ 7974 7965 7964 7962 ] final   93.73 input  175.53 | X-H torsion
[ 8008 7997 7996 7995 ] final   71.76 input   59.86 | X-H torsion
[ 10167 10162 10161 10158 ] final  108.66 input  -65.29 | X-H torsion
[ 10718 10713 10712 10709 ] final  148.71 input   66.30 | X-H torsion
[ 10763 10752 10751 10750 ] final  -94.96 input  -60.55 | X-H torsion
[ 11005 11000 10999 10996 ] final  -60.83 input  -57.11 | X-H torsion

> <Gold.Protein.ActiveResidues>
 VAL166  LYS551  ARG553  GLY616  TRP617  ASP618  TYR619  PRO620  LYS621  CYS622 
 ASP623  PHE694  ASN695  SER759  ASP760  ASP761  ALA762  ILE779  LEU786  VAL792 
 PHE793  MET794  SER795  GLU796  ALA797  LYS798  CYS799  TRP800  GLU811  SER814 

> <Gold.Protein.RotatedAtoms>
  150.6918  134.2005  159.4320 H   0  0  0  0  0  0  0  0  0  0  0  0  # atno 6907 bound_to 6896
  151.9972  134.9945  160.0573 H   0  0  0  0  0  0  0  0  0  0  0  0  # atno 6908 bound_to 6896
  152.1613  133.4548  159.4899 H   0  0  0  0  0  0  0  0  0  0  0  0  # atno 6909 bound_to 6896
  145.4750  139.2280  143.2914 H   0  0  0  0  0  0  0  0  0  0  0  0  # atno 7974 bound_to 7965
  155.7588  140.3487  155.5187 H   0  0  0  0  0  0  0  0  0  0  0  0  # atno 8008 bound_to 7997
  155.8934  140.1022  157.1423 H   0  0  0  0  0  0  0  0  0  0  0  0  # atno 8009 bound_to 7997
  154.4036  140.1300  156.4332 H   0  0  0  0  0  0  0  0  0  0  0  0  # atno 8010 bound_to 7997
  139.6829  144.7116  151.1484 H   0  0  0  0  0  0  0  0  0  0  0  0  # atno 10167 bound_to 10162
  157.3053  131.0878  151.1359 H   0  0  0  0  0  0  0  0  0  0  0  0  # atno 10718 bound_to 10713
  154.7104  135.5138  153.8658 H   0  0  0  0  0  0  0  0  0  0  0  0  # atno 10763 bound_to 10752
  153.0776  135.6621  154.0122 H   0  0  0  0  0  0  0  0  0  0  0  0  # atno 10764 bound_to 10752
  153.9964  135.3015  155.3386 H   0  0  0  0  0  0  0  0  0  0  0  0  # atno 10765 bound_to 10752
  141.1302  133.6625  156.5282 H   0  0  0  0  0  0  0  0  0  0  0  0  # atno 11005 bound_to 11000
  146.2375  140.5531  142.8948 LP  0  0  0  0  0  0  0  0  0  0  0  0  # atno 17320 bound_to 7965
  144.7923  140.6055  143.6533 LP  0  0  0  0  0  0  0  0  0  0  0  0  # atno 17321 bound_to 7965
  140.7658  143.5673  150.9034 LP  0  0  0  0  0  0  0  0  0  0  0  0  # atno 17342 bound_to 10162
  139.9346  143.6453  152.3068 LP  0  0  0  0  0  0  0  0  0  0  0  0  # atno 17343 bound_to 10162
  157.2702  130.6701  149.6016 LP  0  0  0  0  0  0  0  0  0  0  0  0  # atno 17370 bound_to 10713
  155.9674  130.4481  150.5607 LP  0  0  0  0  0  0  0  0  0  0  0  0  # atno 17371 bound_to 10713
  140.4237  134.7164  157.4904 LP  0  0  0  0  0  0  0  0  0  0  0  0  # atno 17394 bound_to 11000
  140.0342  134.6361  155.9065 LP  0  0  0  0  0  0  0  0  0  0  0  0  # atno 17395 bound_to 11000

$$$$
