AV-unprocessed.smi:2976|AV-procd|sdf|11361|dock2
  -GOLD-   2272016273D 1   1.00000     0.00000
 Structure written by MMmdl.
 40 41  0  0  0  0  0  0  0  0  1 V2000
  153.6330  141.4775  161.0276 C   0  0  0  0  0  0  0  0  0  0  0  0
  153.1895  142.1054  159.6932 C   0  0  2  0  0  0  0  0  0  0  0  0
  152.7998  143.5794  159.9243 C   0  0  0  0  0  0  0  0  0  0  0  0
  152.3767  144.2708  158.6238 C   0  0  0  0  0  0  0  0  0  0  0  0
  151.2145  143.5188  157.9690 C   0  0  0  0  0  0  0  0  0  0  0  0
  151.5799  142.0477  157.7043 C   0  0  2  0  0  0  0  0  0  0  0  0
  150.4199  141.3811  157.1130 N   0  0  0  0  0  0  0  0  0  0  0  0
  150.4157  140.6648  155.9778 C   0  0  0  0  0  0  0  0  0  0  0  0
  151.4114  140.5056  155.2705 O   0  0  0  0  0  0  0  0  0  0  0  0
  149.0701  140.0435  155.5781 C   0  0  0  0  0  0  0  0  0  0  0  0
  148.0098  141.0458  155.3969 N   0  0  0  0  0  0  0  0  0  0  0  0
  147.6834  141.2913  154.0745 N   0  0  0  0  0  0  0  0  0  0  0  0
  146.7480  142.1330  153.7979 C   0  0  0  0  0  0  0  0  0  0  0  0
  146.0216  142.8436  154.8272 C   0  0  0  0  0  0  0  0  0  0  0  0
  144.7749  143.9602  154.3947 Cl  0  0  0  0  0  0  0  0  0  0  0  0
  146.3555  142.6024  156.1201 C   0  0  0  0  0  0  0  0  0  0  0  0
  145.5326  143.4161  157.4068 Cl  0  0  0  0  0  0  0  0  0  0  0  0
  147.4166  141.6488  156.4733 C   0  0  0  0  0  0  0  0  0  0  0  0
  147.7501  141.4032  157.6336 O   0  0  0  0  0  0  0  0  0  0  0  0
  152.0389  141.3215  158.9990 C   0  0  1  0  0  0  0  0  0  0  0  0
  152.4318  139.8560  158.7071 C   0  0  0  0  0  0  0  0  0  0  0  0
  152.7937  141.3731  161.7157 H   0  0  0  0  0  0  0  0  0  0  0  0
  154.3866  142.0947  161.5178 H   0  0  0  0  0  0  0  0  0  0  0  0
  154.0795  140.4937  160.8876 H   0  0  0  0  0  0  0  0  0  0  0  0
  154.0527  142.0957  159.0257 H   0  0  0  0  0  0  0  0  0  0  0  0
  151.9852  143.6374  160.6477 H   0  0  0  0  0  0  0  0  0  0  0  0
  153.6384  144.1222  160.3621 H   0  0  0  0  0  0  0  0  0  0  0  0
  152.0853  145.3015  158.8274 H   0  0  0  0  0  0  0  0  0  0  0  0
  153.2223  144.3164  157.9363 H   0  0  0  0  0  0  0  0  0  0  0  0
  150.3372  143.5744  158.6154 H   0  0  0  0  0  0  0  0  0  0  0  0
  150.9424  144.0107  157.0343 H   0  0  0  0  0  0  0  0  0  0  0  0
  152.4161  142.0380  157.0023 H   0  0  0  0  0  0  0  0  0  0  0  0
  149.5507  141.4578  157.6210 H   0  0  0  0  0  0  0  0  0  0  0  0
  149.1868  139.4576  154.6642 H   0  0  0  0  0  0  0  0  0  0  0  0
  148.7877  139.3267  156.3513 H   0  0  0  0  0  0  0  0  0  0  0  0
  146.4538  142.3547  152.7720 H   0  0  0  0  0  0  0  0  0  0  0  0
  151.1912  141.3004  159.6860 H   0  0  0  0  0  0  0  0  0  0  0  0
  153.3010  139.8045  158.0508 H   0  0  0  0  0  0  0  0  0  0  0  0
  151.6237  139.3054  158.2260 H   0  0  0  0  0  0  0  0  0  0  0  0
  152.6669  139.3081  159.6184 H   0  0  0  0  0  0  0  0  0  0  0  0
  1  2  1  0  0  0  0
  1 22  1  0  0  0  0
  1 23  1  0  0  0  0
  1 24  1  0  0  0  0
  2 20  1  0  0  0  0
  2  3  1  0  0  0  0
  2 25  1  0  0  0  0
  3  4  1  0  0  0  0
  3 26  1  0  0  0  0
  3 27  1  0  0  0  0
  4  5  1  0  0  0  0
  4 28  1  0  0  0  0
  4 29  1  0  0  0  0
  5  6  1  0  0  0  0
  5 30  1  0  0  0  0
  5 31  1  0  0  0  0
  6  7  1  0  0  0  0
  6 20  1  0  0  0  0
  6 32  1  0  0  0  0
  7  8  1  0  0  0  0
  7 33  1  0  0  0  0
  8  9  2  0  0  0  0
  8 10  1  0  0  0  0
 10 11  1  0  0  0  0
 10 34  1  0  0  0  0
 10 35  1  0  0  0  0
 11 18  1  0  0  0  0
 11 12  1  0  0  0  0
 12 13  2  0  0  0  0
 13 14  1  0  0  0  0
 13 36  1  0  0  0  0
 14 15  1  0  0  0  0
 14 16  2  0  0  0  0
 16 17  1  0  0  0  0
 16 18  1  0  0  0  0
 18 19  2  0  0  0  0
 20 21  1  0  0  0  0
 20 37  1  0  0  0  0
 21 38  1  0  0  0  0
 21 39  1  0  0  0  0
 21 40  1  0  0  0  0
M  END
> <s_m_source_file>
AV-unprocessed.smi

> <i_m_source_file_index>
2976

> <i_lp_mmshare_version>
43012

> <i_f3d_flags>
0

> <s_epik_input>
W0NIM11bQ0BASF0xW0NIMl1bQ0gyXVtDSDJdW0NASF0oW0NASF0xW0NIM10pW05IXUMoPU8pW0NIMl1uMm5bY0hdYyhDbCljKENsKWMyPU8=

> <s_epik_cmdline>
J2VwaWtfcHl0aG9uJywgJy1waCcsICc3LjAnLCAnLXRuJywgJzgnLCAnLW1hJywgJzIwMCcsICctbWV0YWxfYmluZGluZycsICctaW1hZScsICc8aW5maWxlLm1hZT4nLCAnLW9tYWUnLCAnPG91dGZpbGUubWFlPic=

> <r_lp_tautomer_probability>
1

> <r_epik_Ionization_Penalty>
1.90777e-08

> <r_epik_Ionization_Penalty_Charging>
3.07942e-11

> <r_epik_Ionization_Penalty_Neutral>
1.90469e-08

> <r_epik_State_Penalty>
-0

> <r_epik_Charging_Adjusted_Penalty>
3.07942e-11

> <i_epik_Tot_Q>
0

> <i_epik_Tot_abs_Q>
0

> <r_epik_Metal_State_Penalty>
-0

> <b_epik_Metal_Only>
0

> <s_lp_Force_Field>
OPLS_2005

> <r_lp_Energy>
26.5415

> <b_lp_Chiralities_Consistent>
1

> <s_lp_Variant>
AV-unprocessed.smi:2976-3

> <Gold.Version>
5.8.1

> <Gold.Id.Protein>
6NUR|6NUR_protein|mol2

> <Gold.PLP.Fitness>
44.3573

> <Gold.PLP.PLP>
-42.2462

> <Gold.PLP.part.hbond>
-1.0000

> <Gold.PLP.part.metal>
0.0000

> <Gold.PLP.part.buried>
-6.7316

> <Gold.PLP.part.nonpolar>
-34.8012

> <Gold.PLP.part.repulsive>
0.2843

> <Gold.PLP.ligand.clash>
0.0000

> <Gold.PLP.ligand.torsion>
0.2678

> <Gold.PLP.Chemscore.Hbond>
0.8800

> <Gold.PLP.Chemscore.CHOScore>
0.0000

> <Gold.PLP.Chemscore.Metal>
0.0000

> <Gold.Chemscore.Hbonds>
donor molecule, donor type, donor heavy atom, donor atom, acceptor molecule, acceptor atom, score
      P1  H  7989  7998       L1     9  0.88

> <Gold.PLP.Chemscore.Internal.Correction>
0.0067

> <Gold.Rescore>
     Score         DG    S(hbond)    S(metal)    S(lipo)     H(rot)  DE(clash)    DE(int)     intcor
     16.29     -17.98       0.93        0.00     112.70       1.49       0.05       1.64       ----

> <Gold.Chemscore.Fitness>
16.2898

> <Gold.Chemscore.DG>
-17.9787

> <Gold.Chemscore.ZeroCoef>
-5.4800

> <Gold.Chemscore.Hbond>
0.9336

> <Gold.Chemscore.Metal>
0.0000

> <Gold.Chemscore.Lipo>
112.7021

> <Gold.Chemscore.Internal_Hbond>
0.0000

> <Gold.Chemscore.DEClash>
0.0535

> <Gold.Chemscore.DEInternal>
1.6354

> <Gold.Chemscore.Rot>
1.4866

> <Gold.Chemscore.Internal.Correction>
   9.000000E+99

> <Gold.Chemscore.Hbonds>
donor molecule, donor type, donor heavy atom, donor atom, acceptor molecule, acceptor atom, score
      P1  H  7989  7998       L1     9  0.87

> <Gold.Chemscore.Hbond.Weighted>
-3.1182

> <Gold.Chemscore.Metal.Weighted>
-0.0000

> <Gold.Chemscore.Lipo.Weighted>
-13.1861

> <Gold.Chemscore.Internal_Hbond.Weighted>
0.0000

> <Gold.Chemscore.DEClash.Weighted>
0.0535

> <Gold.Chemscore.DEInternal.Weighted>
1.6354

> <Gold.Chemscore.Rot.Weighted>
3.8057

> <Gold.Chemscore.Internal.Correction.Weighted>
   9.000000E+99

> <Gold.Protein.RotatedTorsions>
[ 6907 6896 6895 6894 ] final  142.28 input  -60.11 | X-H torsion
[ 7974 7965 7964 7962 ] final   -9.83 input  175.53 | X-H torsion
[ 8008 7997 7996 7995 ] final  -74.52 input   59.86 | X-H torsion
[ 10167 10162 10161 10158 ] final  -46.00 input  -65.29 | X-H torsion
[ 10718 10713 10712 10709 ] final -153.84 input   66.30 | X-H torsion
[ 10763 10752 10751 10750 ] final -143.06 input  -60.55 | X-H torsion
[ 11005 11000 10999 10996 ] final   -0.55 input  -57.11 | X-H torsion

> <Gold.Protein.ActiveResidues>
 VAL166  LYS551  ARG553  GLY616  TRP617  ASP618  TYR619  PRO620  LYS621  CYS622 
 ASP623  PHE694  ASN695  SER759  ASP760  ASP761  ALA762  ILE779  LEU786  VAL792 
 PHE793  MET794  SER795  GLU796  ALA797  LYS798  CYS799  TRP800  GLU811  SER814 

> <Gold.Protein.RotatedAtoms>
  152.2206  133.4981  159.5160 H   0  0  0  0  0  0  0  0  0  0  0  0  # atno 6907 bound_to 6896
  150.7012  134.1347  159.4092 H   0  0  0  0  0  0  0  0  0  0  0  0  # atno 6908 bound_to 6896
  151.9268  135.0274  160.0577 H   0  0  0  0  0  0  0  0  0  0  0  0  # atno 6909 bound_to 6896
  146.2240  140.2674  142.8355 H   0  0  0  0  0  0  0  0  0  0  0  0  # atno 7974 bound_to 7965
  154.5337  140.0760  156.8390 H   0  0  0  0  0  0  0  0  0  0  0  0  # atno 8008 bound_to 7997
  155.3321  140.3402  155.4221 H   0  0  0  0  0  0  0  0  0  0  0  0  # atno 8009 bound_to 7997
  156.1807  140.1651  156.8266 H   0  0  0  0  0  0  0  0  0  0  0  0  # atno 8010 bound_to 7997
  140.6835  143.2852  151.3720 H   0  0  0  0  0  0  0  0  0  0  0  0  # atno 10167 bound_to 10162
  156.4912  130.8348  151.2571 H   0  0  0  0  0  0  0  0  0  0  0  0  # atno 10718 bound_to 10713
  154.8485  135.3478  154.6126 H   0  0  0  0  0  0  0  0  0  0  0  0  # atno 10763 bound_to 10752
  153.6735  135.6984  153.5144 H   0  0  0  0  0  0  0  0  0  0  0  0  # atno 10764 bound_to 10752
  153.2724  135.4289  155.0957 H   0  0  0  0  0  0  0  0  0  0  0  0  # atno 10765 bound_to 10752
  140.6375  133.9519  155.8308 H   0  0  0  0  0  0  0  0  0  0  0  0  # atno 11005 bound_to 11000
  144.9294  140.7957  143.5699 LP  0  0  0  0  0  0  0  0  0  0  0  0  # atno 17320 bound_to 7965
  145.2616  139.1990  143.4889 LP  0  0  0  0  0  0  0  0  0  0  0  0  # atno 17321 bound_to 7965
  139.6175  144.0973  152.2360 LP  0  0  0  0  0  0  0  0  0  0  0  0  # atno 17342 bound_to 10162
  140.0406  144.6010  150.7414 LP  0  0  0  0  0  0  0  0  0  0  0  0  # atno 17343 bound_to 10162
  157.7473  131.0013  150.2957 LP  0  0  0  0  0  0  0  0  0  0  0  0  # atno 17370 bound_to 10713
  156.3424  130.3817  149.7397 LP  0  0  0  0  0  0  0  0  0  0  0  0  # atno 17371 bound_to 10713
  141.0631  134.0317  157.3631 LP  0  0  0  0  0  0  0  0  0  0  0  0  # atno 17394 bound_to 11000
  139.9092  135.0186  156.7621 LP  0  0  0  0  0  0  0  0  0  0  0  0  # atno 17395 bound_to 11000

$$$$
