AV-unprocessed.smi:1824|AV-procd|sdf|7406|dock10
  -GOLD-   22720 9 83D 1   1.00000     0.00000
 Structure written by MMmdl.
 45 47  0  0  0  0  0  0  0  0  2 V2000
  147.6668  134.2676  153.8656 C   0  0  0  0  0  0  0  0  0  0  0  0
  146.1620  134.4395  153.5918 C   0  0  1  0  0  0  0  0  0  0  0  0
  145.8007  135.8063  152.9787 C   0  0  0  0  0  0  0  0  0  0  0  0
  146.2207  135.8787  151.5578 N   0  3  2  0  0  0  0  0  0  0  0  0
  145.9693  137.2000  150.9275 C   0  0  0  0  0  0  0  0  0  0  0  0
  146.7435  138.3372  151.6231 C   0  0  1  0  0  0  0  0  0  0  0  0
  146.8683  139.4210  150.7214 O   0  0  0  0  0  0  0  0  0  0  0  0
  146.0366  138.8144  152.9066 C   0  0  0  0  0  0  0  0  0  0  0  0
  146.7831  139.8509  153.5979 N   0  0  0  0  0  0  0  0  0  0  0  0
  146.3796  141.1129  153.8408 C   0  0  0  0  0  0  0  0  0  0  0  0
  147.2202  141.9056  154.4988 N   0  0  0  0  0  0  0  0  0  0  0  0
  148.2960  141.0604  154.7087 C   0  0  0  0  0  0  0  0  0  0  0  0
  149.5289  141.2895  155.3604 C   0  0  0  0  0  0  0  0  0  0  0  0
  150.4881  140.2600  155.4578 C   0  0  0  0  0  0  0  0  0  0  0  0
  151.6631  140.4956  156.0884 F   0  0  0  0  0  0  0  0  0  0  0  0
  150.2301  138.9884  154.9041 C   0  0  0  0  0  0  0  0  0  0  0  0
  151.1558  138.0053  155.0031 F   0  0  0  0  0  0  0  0  0  0  0  0
  149.0097  138.7373  154.2482 C   0  0  0  0  0  0  0  0  0  0  0  0
  148.0548  139.7666  154.1554 C   0  0  0  0  0  0  0  0  0  0  0  0
  145.6324  134.7561  150.7922 C   0  0  0  0  0  0  0  0  0  0  0  0
  146.0364  133.4101  151.4211 C   0  0  2  0  0  0  0  0  0  0  0  0
  145.3769  132.2221  150.7117 C   0  0  0  0  0  0  0  0  0  0  0  0
  145.6327  133.3848  152.7881 O   0  0  0  0  0  0  0  0  0  0  0  0
  148.0157  135.0086  154.5852 H   0  0  0  0  0  0  0  0  0  0  0  0
  148.2695  134.3839  152.9652 H   0  0  0  0  0  0  0  0  0  0  0  0
  147.8753  133.2822  154.2832 H   0  0  0  0  0  0  0  0  0  0  0  0
  145.6578  134.3662  154.5559 H   0  0  0  0  0  0  0  0  0  0  0  0
  144.7216  135.9588  153.0384 H   0  0  0  0  0  0  0  0  0  0  0  0
  146.2605  136.6020  153.5639 H   0  0  0  0  0  0  0  0  0  0  0  0
  146.2647  137.1711  149.8773 H   0  0  0  0  0  0  0  0  0  0  0  0
  144.8974  137.4033  150.9351 H   0  0  0  0  0  0  0  0  0  0  0  0
  147.7464  138.0040  151.8886 H   0  0  0  0  0  0  0  0  0  0  0  0
  147.6647  139.8907  150.9182 H   0  0  0  0  0  0  0  0  0  0  0  0
  145.0386  139.1926  152.6804 H   0  0  0  0  0  0  0  0  0  0  0  0
  145.9030  137.9777  153.5937 H   0  0  0  0  0  0  0  0  0  0  0  0
  145.4120  141.4692  153.5182 H   0  0  0  0  0  0  0  0  0  0  0  0
  149.7376  142.2589  155.7882 H   0  0  0  0  0  0  0  0  0  0  0  0
  148.8109  137.7643  153.8246 H   0  0  0  0  0  0  0  0  0  0  0  0
  144.5459  134.8580  150.7712 H   0  0  0  0  0  0  0  0  0  0  0  0
  145.9782  134.7922  149.7583 H   0  0  0  0  0  0  0  0  0  0  0  0
  147.1173  133.2845  151.3537 H   0  0  0  0  0  0  0  0  0  0  0  0
  145.6606  132.1855  149.6596 H   0  0  0  0  0  0  0  0  0  0  0  0
  144.2894  132.2834  150.7631 H   0  0  0  0  0  0  0  0  0  0  0  0
  145.6782  131.2792  151.1689 H   0  0  0  0  0  0  0  0  0  0  0  0
  147.2216  135.7421  151.5355 H   0  0  0  0  0  0  0  0  0  0  0  0
  1  2  1  0  0  0  0
  1 24  1  0  0  0  0
  1 25  1  0  0  0  0
  1 26  1  0  0  0  0
  2 23  1  0  0  0  0
  2  3  1  0  0  0  0
  2 27  1  0  0  0  0
  3  4  1  0  0  0  0
  3 28  1  0  0  0  0
  3 29  1  0  0  0  0
  4  5  1  0  0  0  0
  4 20  1  0  0  0  0
  4 45  1  0  0  0  0
  5  6  1  0  0  0  0
  5 30  1  0  0  0  0
  5 31  1  0  0  0  0
  6  7  1  0  0  0  0
  6  8  1  0  0  0  0
  6 32  1  0  0  0  0
  7 33  1  0  0  0  0
  8  9  1  0  0  0  0
  8 34  1  0  0  0  0
  8 35  1  0  0  0  0
  9 19  1  0  0  0  0
  9 10  1  0  0  0  0
 10 11  2  0  0  0  0
 10 36  1  0  0  0  0
 11 12  1  0  0  0  0
 12 19  2  0  0  0  0
 12 13  1  0  0  0  0
 13 14  2  0  0  0  0
 13 37  1  0  0  0  0
 14 15  1  0  0  0  0
 14 16  1  0  0  0  0
 16 17  1  0  0  0  0
 16 18  2  0  0  0  0
 18 19  1  0  0  0  0
 18 38  1  0  0  0  0
 20 21  1  0  0  0  0
 20 39  1  0  0  0  0
 20 40  1  0  0  0  0
 21 22  1  0  0  0  0
 21 23  1  0  0  0  0
 21 41  1  0  0  0  0
 22 42  1  0  0  0  0
 22 43  1  0  0  0  0
 22 44  1  0  0  0  0
M  CHG  1   4   1
M  END
> <s_m_source_file>
AV-unprocessed.smi

> <i_m_source_file_index>
1824

> <i_lp_mmshare_version>
43012

> <i_f3d_flags>
0

> <s_epik_input>
W0NIM11bQ0BASF0xW0NIMl1OKFtDSDJdW0NASF0oTzEpW0NIM10pW0NIMl1bQ0BIXShbT0hdKVtDSDJdbihbY0hdbjIpYyhjMjMpW2NIXWMoRiljKEYpW2NIXTM=

> <s_epik_cmdline>
J2VwaWtfcHl0aG9uJywgJy1waCcsICc3LjAnLCAnLXRuJywgJzgnLCAnLW1hJywgJzIwMCcsICctbWV0YWxfYmluZGluZycsICctaW1hZScsICc8aW5maWxlLm1hZT4nLCAnLW9tYWUnLCAnPG91dGZpbGUubWFlPic=

> <r_epik_Ionization_Penalty>
0.61967

> <r_epik_Ionization_Penalty_Charging>
0.608065

> <r_epik_Ionization_Penalty_Neutral>
0.0116057

> <r_epik_State_Penalty>
0.664205

> <r_epik_Charging_Adjusted_Penalty>
1.27227

> <i_epik_Tot_Q>
1

> <i_epik_Tot_abs_Q>
1

> <r_epik_Metal_State_Penalty>
0.654947

> <b_epik_Metal_Only>
0

> <s_lp_Force_Field>
OPLS_2005

> <r_lp_Energy>
22.8883

> <b_lp_Chiralities_Consistent>
1

> <s_lp_Variant>
AV-unprocessed.smi:1824-14

> <Gold.Version>
5.8.1

> <Gold.Id.Protein>
6NUR|6NUR_protein|mol2

> <Gold.PLP.Fitness>
49.2364

> <Gold.PLP.PLP>
-37.6634

> <Gold.PLP.part.hbond>
-3.5449

> <Gold.PLP.part.metal>
0.0000

> <Gold.PLP.part.buried>
7.1475

> <Gold.PLP.part.nonpolar>
-40.6709

> <Gold.PLP.part.repulsive>
0.2992

> <Gold.PLP.ligand.clash>
0.0000

> <Gold.PLP.ligand.torsion>
0.2282

> <Gold.PLP.Chemscore.Hbond>
3.0000

> <Gold.PLP.Chemscore.CHOScore>
1.0000

> <Gold.PLP.Chemscore.Metal>
0.0000

> <Gold.Chemscore.Hbonds>
donor molecule, donor type, donor heavy atom, donor atom, acceptor molecule, acceptor atom, score
      L1  H     4    45       P1  7948  2.00
      L1  H     7    33       P1  7957  1.00
      L1  C    10    36       P1 10175  0.87

> <Gold.PLP.Chemscore.Internal.Correction>
0.0294

> <Gold.Rescore>
     Score         DG    S(hbond)    S(metal)    S(lipo)     H(rot)  DE(clash)    DE(int)     intcor
     13.78     -16.53       1.94        0.00      90.00       2.33       2.42       0.33       ----

> <Gold.Chemscore.Fitness>
13.7799

> <Gold.Chemscore.DG>
-16.5273

> <Gold.Chemscore.ZeroCoef>
-5.4800

> <Gold.Chemscore.Hbond>
1.9369

> <Gold.Chemscore.Metal>
0.0000

> <Gold.Chemscore.Lipo>
90.0041

> <Gold.Chemscore.Internal_Hbond>
0.0000

> <Gold.Chemscore.DEClash>
2.4170

> <Gold.Chemscore.DEInternal>
0.3304

> <Gold.Chemscore.Rot>
2.3251

> <Gold.Chemscore.Internal.Correction>
   9.000000E+99

> <Gold.Chemscore.Hbonds>
donor molecule, donor type, donor heavy atom, donor atom, acceptor molecule, acceptor atom, score
      L1  H     4    45       P1  7948  0.98
      L1  H     7    33       P1  7957  0.83

> <Gold.Chemscore.Hbond.Weighted>
-6.4692

> <Gold.Chemscore.Metal.Weighted>
-0.0000

> <Gold.Chemscore.Lipo.Weighted>
-10.5305

> <Gold.Chemscore.Internal_Hbond.Weighted>
0.0000

> <Gold.Chemscore.DEClash.Weighted>
2.4170

> <Gold.Chemscore.DEInternal.Weighted>
0.3304

> <Gold.Chemscore.Rot.Weighted>
5.9523

> <Gold.Chemscore.Internal.Correction.Weighted>
   9.000000E+99

> <Gold.Protein.RotatedTorsions>
[ 6907 6896 6895 6894 ] final   23.25 input  -60.11 | X-H torsion
[ 7974 7965 7964 7962 ] final  -55.96 input  175.53 | X-H torsion
[ 8008 7997 7996 7995 ] final  -17.19 input   59.86 | X-H torsion
[ 10167 10162 10161 10158 ] final    5.86 input  -65.29 | X-H torsion
[ 10718 10713 10712 10709 ] final  -26.33 input   66.30 | X-H torsion
[ 10763 10752 10751 10750 ] final   23.91 input  -60.55 | X-H torsion
[ 11005 11000 10999 10996 ] final  -21.82 input  -57.11 | X-H torsion

> <Gold.Protein.ActiveResidues>
 VAL166  LYS551  ARG553  GLY616  TRP617  ASP618  TYR619  PRO620  LYS621  CYS622 
 ASP623  PHE694  ASN695  SER759  ASP760  ASP761  ALA762  ILE779  LEU786  VAL792 
 PHE793  MET794  SER795  GLU796  ALA797  LYS798  CYS799  TRP800  GLU811  SER814 

> <Gold.Protein.RotatedAtoms>
  151.9396  135.0219  160.0534 H   0  0  0  0  0  0  0  0  0  0  0  0  # atno 6907 bound_to 6896
  152.2048  133.4863  159.5086 H   0  0  0  0  0  0  0  0  0  0  0  0  # atno 6908 bound_to 6896
  150.6962  134.1461  159.4165 H   0  0  0  0  0  0  0  0  0  0  0  0  # atno 6909 bound_to 6896
  145.8682  140.8236  142.9902 H   0  0  0  0  0  0  0  0  0  0  0  0  # atno 7974 bound_to 7965
  154.4997  140.2149  155.9373 H   0  0  0  0  0  0  0  0  0  0  0  0  # atno 8008 bound_to 7997
  156.1417  140.3178  155.8473 H   0  0  0  0  0  0  0  0  0  0  0  0  # atno 8009 bound_to 7997
  155.4108  140.0490  157.3022 H   0  0  0  0  0  0  0  0  0  0  0  0  # atno 8010 bound_to 7997
  140.6459  143.7662  150.7498 H   0  0  0  0  0  0  0  0  0  0  0  0  # atno 10167 bound_to 10162
  156.4527  130.4487  149.6979 H   0  0  0  0  0  0  0  0  0  0  0  0  # atno 10718 bound_to 10713
  153.0803  135.6617  154.0060 H   0  0  0  0  0  0  0  0  0  0  0  0  # atno 10763 bound_to 10752
  153.9683  135.2967  155.3430 H   0  0  0  0  0  0  0  0  0  0  0  0  # atno 10764 bound_to 10752
  154.7200  135.5168  153.8869 H   0  0  0  0  0  0  0  0  0  0  0  0  # atno 10765 bound_to 10752
  140.8598  133.7796  156.0061 H   0  0  0  0  0  0  0  0  0  0  0  0  # atno 11005 bound_to 11000
  144.6726  140.1198  143.7450 LP  0  0  0  0  0  0  0  0  0  0  0  0  # atno 17320 bound_to 7965
  145.9168  139.2521  143.1405 LP  0  0  0  0  0  0  0  0  0  0  0  0  # atno 17321 bound_to 7965
  140.1303  143.4531  152.2258 LP  0  0  0  0  0  0  0  0  0  0  0  0  # atno 17342 bound_to 10162
  139.5670  144.7441  151.3995 LP  0  0  0  0  0  0  0  0  0  0  0  0  # atno 17343 bound_to 10162
  156.3799  130.7574  151.2566 LP  0  0  0  0  0  0  0  0  0  0  0  0  # atno 17370 bound_to 10713
  157.7502  131.0298  150.4111 LP  0  0  0  0  0  0  0  0  0  0  0  0  # atno 17371 bound_to 10713
  140.8696  134.2742  157.5197 LP  0  0  0  0  0  0  0  0  0  0  0  0  # atno 17394 bound_to 11000
  139.8706  134.9560  156.4225 LP  0  0  0  0  0  0  0  0  0  0  0  0  # atno 17395 bound_to 11000

$$$$
