AV-unprocessed.smi:1011|AV-procd|sdf|4421|dock9
  -GOLD-   22720 2373D 1   1.00000     0.00000
 Structure written by MMmdl.
 44 46  0  0  0  0  0  0  0  0  2 V2000
  143.5069  145.7151  154.4221 C   0  0  0  0  0  0  0  0  0  0  0  0
  144.4779  144.5700  154.4011 C   0  0  0  0  0  0  0  0  0  0  0  0
  144.7559  143.6401  155.4431 C   0  0  0  0  0  0  0  0  0  0  0  0
  145.6727  142.7479  155.1052 N   0  0  0  0  0  0  0  0  0  0  0  0
  146.0091  143.0731  153.8389 N   0  0  0  0  0  0  0  0  0  0  0  0
  147.0151  142.2980  153.1390 C   0  0  0  0  0  0  0  0  0  0  0  0
  147.7258  141.3101  154.0754 C   0  0  0  0  0  0  0  0  0  0  0  0
  149.1532  141.3207  153.7996 N   0  0  0  0  0  0  0  0  0  0  0  0
  149.8301  140.3792  154.6761 C   0  0  0  0  0  0  0  0  0  0  0  0
  150.4663  141.0596  155.8446 C   0  0  0  0  0  0  0  0  0  0  0  0
  150.2866  142.3659  156.1906 N   0  3  0  0  0  0  0  0  0  0  0  0
  151.0202  142.6576  157.3404 C   0  0  0  0  0  0  0  0  0  0  0  0
  151.1515  143.8397  158.0624 C   0  0  0  0  0  0  0  0  0  0  0  0
  151.9797  143.7977  159.2035 C   0  0  0  0  0  0  0  0  0  0  0  0
  152.1882  145.2248  160.1498 Cl  0  0  0  0  0  0  0  0  0  0  0  0
  152.6386  142.6106  159.5856 C   0  0  0  0  0  0  0  0  0  0  0  0
  152.4991  141.4183  158.8448 C   0  0  0  0  0  0  0  0  0  0  0  0
  151.6797  141.4705  157.7176 C   0  0  0  0  0  0  0  0  0  0  0  0
  151.3141  140.5127  156.7649 N   0  0  0  0  0  0  0  0  0  0  0  0
  151.8440  139.1451  156.8885 C   0  0  0  0  0  0  0  0  0  0  0  0
  152.3849  138.5990  155.5568 C   0  0  0  0  0  0  0  0  0  0  0  0
  153.0889  139.6007  154.8524 O   0  0  0  0  0  0  0  0  0  0  0  0
  145.3038  144.1692  153.3893 C   0  0  0  0  0  0  0  0  0  0  0  0
  143.2292  145.9916  155.4395 H   0  0  0  0  0  0  0  0  0  0  0  0
  142.5862  145.4705  153.8924 H   0  0  0  0  0  0  0  0  0  0  0  0
  143.9234  146.6056  153.9510 H   0  0  0  0  0  0  0  0  0  0  0  0
  144.3220  143.5889  156.4309 H   0  0  0  0  0  0  0  0  0  0  0  0
  146.5322  141.7659  152.3180 H   0  0  0  0  0  0  0  0  0  0  0  0
  147.7327  142.9878  152.6921 H   0  0  0  0  0  0  0  0  0  0  0  0
  147.5510  141.5871  155.1160 H   0  0  0  0  0  0  0  0  0  0  0  0
  147.3291  140.3040  153.9314 H   0  0  0  0  0  0  0  0  0  0  0  0
  149.2898  141.0337  152.8407 H   0  0  0  0  0  0  0  0  0  0  0  0
  149.1126  139.6523  155.0595 H   0  0  0  0  0  0  0  0  0  0  0  0
  150.5766  139.8233  154.1093 H   0  0  0  0  0  0  0  0  0  0  0  0
  150.6458  144.7485  157.7703 H   0  0  0  0  0  0  0  0  0  0  0  0
  153.2647  142.6130  160.4659 H   0  0  0  0  0  0  0  0  0  0  0  0
  153.0079  140.5159  159.1491 H   0  0  0  0  0  0  0  0  0  0  0  0
  152.6302  139.1529  157.6433 H   0  0  0  0  0  0  0  0  0  0  0  0
  151.0591  138.4980  157.2810 H   0  0  0  0  0  0  0  0  0  0  0  0
  153.0549  137.7581  155.7381 H   0  0  0  0  0  0  0  0  0  0  0  0
  151.5706  138.2324  154.9314 H   0  0  0  0  0  0  0  0  0  0  0  0
  152.4685  140.1110  154.3543 H   0  0  0  0  0  0  0  0  0  0  0  0
  145.4474  144.5711  152.3968 H   0  0  0  0  0  0  0  0  0  0  0  0
  149.7010  143.0074  155.6710 H   0  0  0  0  0  0  0  0  0  0  0  0
  1  2  1  0  0  0  0
  1 24  1  0  0  0  0
  1 25  1  0  0  0  0
  1 26  1  0  0  0  0
  2 23  2  0  0  0  0
  2  3  1  0  0  0  0
  3  4  2  0  0  0  0
  3 27  1  0  0  0  0
  4  5  1  0  0  0  0
  5  6  1  0  0  0  0
  5 23  1  0  0  0  0
  6  7  1  0  0  0  0
  6 28  1  0  0  0  0
  6 29  1  0  0  0  0
  7  8  1  0  0  0  0
  7 30  1  0  0  0  0
  7 31  1  0  0  0  0
  8  9  1  0  0  0  0
  8 32  1  0  0  0  0
  9 10  1  0  0  0  0
  9 33  1  0  0  0  0
  9 34  1  0  0  0  0
 10 19  1  0  0  0  0
 10 11  2  0  0  0  0
 11 12  1  0  0  0  0
 11 44  1  0  0  0  0
 12 18  2  0  0  0  0
 12 13  1  0  0  0  0
 13 14  2  0  0  0  0
 13 35  1  0  0  0  0
 14 15  1  0  0  0  0
 14 16  1  0  0  0  0
 16 17  2  0  0  0  0
 16 36  1  0  0  0  0
 17 18  1  0  0  0  0
 17 37  1  0  0  0  0
 18 19  1  0  0  0  0
 19 20  1  0  0  0  0
 20 21  1  0  0  0  0
 20 38  1  0  0  0  0
 20 39  1  0  0  0  0
 21 22  1  0  0  0  0
 21 40  1  0  0  0  0
 21 41  1  0  0  0  0
 22 42  1  0  0  0  0
 23 43  1  0  0  0  0
M  CHG  1  11   1
M  END
> <s_m_source_file>
AV-unprocessed.smi

> <i_m_source_file_index>
1011

> <i_lp_mmshare_version>
43012

> <i_f3d_flags>
0

> <s_epik_input>
W0NIM11jMVtjSF1ubihbY0hdMSlbQ0gyXVtDSDJdW05IXVtDSDJdYyhuMiluKFtDSDJdW0NIMl1bT0hdKWMoYzIzKVtjSF1bY0hdYyhDbClbY0hdMw==

> <s_epik_cmdline>
J2VwaWtfcHl0aG9uJywgJy1waCcsICc3LjAnLCAnLXRuJywgJzgnLCAnLW1hJywgJzIwMCcsICctbWV0YWxfYmluZGluZycsICctaW1hZScsICc8aW5maWxlLm1hZT4nLCAnLW9tYWUnLCAnPG91dGZpbGUubWFlPic=

> <r_epik_Ionization_Penalty>
1.62414

> <r_epik_Ionization_Penalty_Charging>
1.50824

> <r_epik_Ionization_Penalty_Neutral>
0.115896

> <r_epik_State_Penalty>
2.25317

> <r_epik_Charging_Adjusted_Penalty>
3.76141

> <i_epik_Tot_Q>
1

> <i_epik_Tot_abs_Q>
1

> <r_epik_Metal_State_Penalty>
2.26539

> <b_epik_Metal_Only>
0

> <s_lp_Force_Field>
OPLS_2005

> <r_lp_Energy>
12.3838

> <b_lp_Chiralities_Consistent>
1

> <s_lp_Variant>
AV-unprocessed.smi:1011-3

> <Gold.Version>
5.8.1

> <Gold.Id.Protein>
6NUR|6NUR_protein|mol2

> <Gold.PLP.Fitness>
64.9638

> <Gold.PLP.PLP>
-55.3028

> <Gold.PLP.part.hbond>
-6.0000

> <Gold.PLP.part.metal>
0.0000

> <Gold.PLP.part.buried>
-8.8439

> <Gold.PLP.part.nonpolar>
-41.8222

> <Gold.PLP.part.repulsive>
0.2918

> <Gold.PLP.ligand.clash>
0.0000

> <Gold.PLP.ligand.torsion>
0.9833

> <Gold.PLP.Chemscore.Hbond>
3.8560

> <Gold.PLP.Chemscore.CHOScore>
0.0000

> <Gold.PLP.Chemscore.Metal>
0.0000

> <Gold.Chemscore.Hbonds>
donor molecule, donor type, donor heavy atom, donor atom, acceptor molecule, acceptor atom, score
      L1  H     8    32       P1  7957  1.00
      L1  H    11    44       P1  8028  1.82
      P1  H  7997  8009       L1    22  1.00

> <Gold.PLP.Chemscore.Internal.Correction>
0.0596

> <Gold.Rescore>
     Score         DG    S(hbond)    S(metal)    S(lipo)     H(rot)  DE(clash)    DE(int)     intcor
     20.41     -22.91       2.80        0.00     133.38       2.93       1.54       0.96       ----

> <Gold.Chemscore.Fitness>
20.4081

> <Gold.Chemscore.DG>
-22.9114

> <Gold.Chemscore.ZeroCoef>
-5.4800

> <Gold.Chemscore.Hbond>
2.7957

> <Gold.Chemscore.Metal>
0.0000

> <Gold.Chemscore.Lipo>
133.3760

> <Gold.Chemscore.Internal_Hbond>
0.0000

> <Gold.Chemscore.DEClash>
1.5421

> <Gold.Chemscore.DEInternal>
0.9612

> <Gold.Chemscore.Rot>
2.9340

> <Gold.Chemscore.Internal.Correction>
   9.000000E+99

> <Gold.Chemscore.Hbonds>
donor molecule, donor type, donor heavy atom, donor atom, acceptor molecule, acceptor atom, score
      L1  H     8    32       P1  7957  0.98
      L1  H    11    44       P1  8028  0.89
      P1  H  7997  8009       L1    22  0.92

> <Gold.Chemscore.Hbond.Weighted>
-9.3375

> <Gold.Chemscore.Metal.Weighted>
-0.0000

> <Gold.Chemscore.Lipo.Weighted>
-15.6050

> <Gold.Chemscore.Internal_Hbond.Weighted>
0.0000

> <Gold.Chemscore.DEClash.Weighted>
1.5421

> <Gold.Chemscore.DEInternal.Weighted>
0.9612

> <Gold.Chemscore.Rot.Weighted>
7.5111

> <Gold.Chemscore.Internal.Correction.Weighted>
   9.000000E+99

> <Gold.Protein.RotatedTorsions>
[ 6907 6896 6895 6894 ] final  142.95 input  -60.11 | X-H torsion
[ 7974 7965 7964 7962 ] final   -6.69 input  175.53 | X-H torsion
[ 8008 7997 7996 7995 ] final -119.26 input   59.86 | X-H torsion
[ 10167 10162 10161 10158 ] final   55.00 input  -65.29 | X-H torsion
[ 10718 10713 10712 10709 ] final   49.84 input   66.30 | X-H torsion
[ 10763 10752 10751 10750 ] final  -65.57 input  -60.55 | X-H torsion
[ 11005 11000 10999 10996 ] final   72.09 input  -57.11 | X-H torsion

> <Gold.Protein.ActiveResidues>
 VAL166  LYS551  ARG553  GLY616  TRP617  ASP618  TYR619  PRO620  LYS621  CYS622 
 ASP623  PHE694  ASN695  SER759  ASP760  ASP761  ALA762  ILE779  LEU786  VAL792 
 PHE793  MET794  SER795  GLU796  ALA797  LYS798  CYS799  TRP800  GLU811  SER814 

> <Gold.Protein.RotatedAtoms>
  152.2124  133.4921  159.5116 H   0  0  0  0  0  0  0  0  0  0  0  0  # atno 6907 bound_to 6896
  150.6993  134.1450  159.4128 H   0  0  0  0  0  0  0  0  0  0  0  0  # atno 6908 bound_to 6896
  151.9369  135.0231  160.0584 H   0  0  0  0  0  0  0  0  0  0  0  0  # atno 6909 bound_to 6896
  146.2325  140.2208  142.8337 H   0  0  0  0  0  0  0  0  0  0  0  0  # atno 7974 bound_to 7965
  155.1128  140.0397  157.2729 H   0  0  0  0  0  0  0  0  0  0  0  0  # atno 8008 bound_to 7997
  154.6672  140.2604  155.7020 H   0  0  0  0  0  0  0  0  0  0  0  0  # atno 8009 bound_to 7997
  156.2643  140.2805  156.1167 H   0  0  0  0  0  0  0  0  0  0  0  0  # atno 8010 bound_to 7997
  140.2242  144.3756  150.6439 H   0  0  0  0  0  0  0  0  0  0  0  0  # atno 10167 bound_to 10162
  157.4826  130.8325  149.8110 H   0  0  0  0  0  0  0  0  0  0  0  0  # atno 10718 bound_to 10713
  154.3469  135.6145  153.5623 H   0  0  0  0  0  0  0  0  0  0  0  0  # atno 10763 bound_to 10752
  152.9800  135.5783  154.4788 H   0  0  0  0  0  0  0  0  0  0  0  0  # atno 10764 bound_to 10752
  154.4502  135.2852  155.1763 H   0  0  0  0  0  0  0  0  0  0  0  0  # atno 10765 bound_to 10752
  139.9509  134.7229  156.0865 H   0  0  0  0  0  0  0  0  0  0  0  0  # atno 11005 bound_to 11000
  144.9633  140.8297  143.5500 LP  0  0  0  0  0  0  0  0  0  0  0  0  # atno 17320 bound_to 7965
  145.2181  139.2172  143.5107 LP  0  0  0  0  0  0  0  0  0  0  0  0  # atno 17321 bound_to 7965
  140.6233  143.2178  151.6649 LP  0  0  0  0  0  0  0  0  0  0  0  0  # atno 17342 bound_to 10162
  139.5133  144.3447  152.0708 LP  0  0  0  0  0  0  0  0  0  0  0  0  # atno 17343 bound_to 10162
  156.0130  130.3825  150.2203 LP  0  0  0  0  0  0  0  0  0  0  0  0  # atno 17370 bound_to 10713
  157.0390  131.0029  151.3289 LP  0  0  0  0  0  0  0  0  0  0  0  0  # atno 17371 bound_to 10713
  141.1171  133.6624  156.3122 LP  0  0  0  0  0  0  0  0  0  0  0  0  # atno 17394 bound_to 11000
  140.5722  134.5829  157.5460 LP  0  0  0  0  0  0  0  0  0  0  0  0  # atno 17395 bound_to 11000

$$$$
