AV-unprocessed.smi:50|AV-procd|sdf|491|dock5
  -GOLD-   2262016353D 1   1.00000     0.00000
 Structure written by MMmdl.
 44 45  0  0  0  0  0  0  0  0  2 V2000
  146.6559  133.4865  151.8816 C   0  0  0  0  0  0  0  0  0  0  0  0
  145.1563  133.4252  151.5349 C   0  0  0  0  0  0  0  0  0  0  0  0
  144.9232  132.3397  150.4658 C   0  0  0  0  0  0  0  0  0  0  0  0
  144.6041  134.8178  151.1229 C   0  0  2  0  0  0  0  0  0  0  0  0
  145.4457  135.4488  150.0875 N   0  3  0  0  0  0  0  0  0  0  0  0
  144.5256  135.8129  152.2939 C   0  0  0  0  0  0  0  0  0  0  0  0
  143.5074  136.0396  152.9506 O   0  0  0  0  0  0  0  0  0  0  0  0
  145.7143  136.4101  152.4783 O   0  0  0  0  0  0  0  0  0  0  0  0
  145.8527  137.4147  153.4701 C   0  0  0  0  0  0  0  0  0  0  0  0
  146.6472  138.5911  152.8964 C   0  0  0  0  0  0  0  0  0  0  0  0
  147.1067  139.4010  153.9667 O   0  0  0  0  0  0  0  0  0  0  0  0
  147.7915  140.5332  153.5417 C   0  0  0  0  0  0  0  0  0  0  0  0
  148.8901  140.7600  154.4637 N   0  0  0  0  0  0  0  0  0  0  0  0
  149.3570  141.9538  154.9555 C   0  0  0  0  0  0  0  0  0  0  0  0
  150.3696  141.8340  155.7679 N   0  0  0  0  0  0  0  0  0  0  0  0
  150.6060  140.4633  155.8175 C   0  0  0  0  0  0  0  0  0  0  0  0
  151.5996  139.7224  156.5418 C   0  0  0  0  0  0  0  0  0  0  0  0
  152.4712  140.1510  157.2951 O   0  0  0  0  0  0  0  0  0  0  0  0
  151.5028  138.3441  156.3111 N   0  0  0  0  0  0  0  0  0  0  0  0
  150.5545  137.7554  155.4780 C   0  0  0  0  0  0  0  0  0  0  0  0
  150.5981  136.4218  155.3616 N   0  0  0  0  0  0  0  0  0  0  0  0
  149.6381  138.4385  154.8150 N   0  0  0  0  0  0  0  0  0  0  0  0
  149.7025  139.7917  155.0163 C   0  0  0  0  0  0  0  0  0  0  0  0
  143.6075  134.6913  150.6981 H   0  0  0  0  0  0  0  0  0  0  0  0
  152.1711  137.7544  156.7851 H   0  0  0  0  0  0  0  0  0  0  0  0
  147.2451  133.8252  151.0287 H   0  0  0  0  0  0  0  0  0  0  0  0
  147.0318  132.5051  152.1727 H   0  0  0  0  0  0  0  0  0  0  0  0
  146.8555  134.1607  152.7145 H   0  0  0  0  0  0  0  0  0  0  0  0
  144.6316  133.1055  152.4368 H   0  0  0  0  0  0  0  0  0  0  0  0
  145.3623  132.6255  149.5093 H   0  0  0  0  0  0  0  0  0  0  0  0
  143.8627  132.1468  150.3037 H   0  0  0  0  0  0  0  0  0  0  0  0
  145.3724  131.3920  150.7649 H   0  0  0  0  0  0  0  0  0  0  0  0
  145.6887  134.7614  149.3887 H   0  0  0  0  0  0  0  0  0  0  0  0
  146.2864  135.8150  150.5107 H   0  0  0  0  0  0  0  0  0  0  0  0
  144.8619  137.7580  153.7712 H   0  0  0  0  0  0  0  0  0  0  0  0
  146.3453  137.0132  154.3568 H   0  0  0  0  0  0  0  0  0  0  0  0
  147.4798  138.2328  152.2888 H   0  0  0  0  0  0  0  0  0  0  0  0
  145.9977  139.1809  152.2481 H   0  0  0  0  0  0  0  0  0  0  0  0
  148.1802  140.3850  152.5328 H   0  0  0  0  0  0  0  0  0  0  0  0
  147.1426  141.4102  153.5590 H   0  0  0  0  0  0  0  0  0  0  0  0
  148.9241  142.9094  154.6975 H   0  0  0  0  0  0  0  0  0  0  0  0
  151.2978  135.8979  155.8672 H   0  0  0  0  0  0  0  0  0  0  0  0
  149.9352  135.9393  154.7723 H   0  0  0  0  0  0  0  0  0  0  0  0
  144.9302  136.2006  149.6522 H   0  0  0  0  0  0  0  0  0  0  0  0
  1  2  1  0  0  0  0
  1 26  1  0  0  0  0
  1 27  1  0  0  0  0
  1 28  1  0  0  0  0
  2  3  1  0  0  0  0
  2  4  1  0  0  0  0
  2 29  1  0  0  0  0
  3 30  1  0  0  0  0
  3 31  1  0  0  0  0
  3 32  1  0  0  0  0
  4 24  1  0  0  0  0
  4  5  1  0  0  0  0
  4  6  1  0  0  0  0
  5 33  1  0  0  0  0
  5 34  1  0  0  0  0
  5 44  1  0  0  0  0
  6  7  2  0  0  0  0
  6  8  1  0  0  0  0
  8  9  1  0  0  0  0
  9 10  1  0  0  0  0
  9 35  1  0  0  0  0
  9 36  1  0  0  0  0
 10 11  1  0  0  0  0
 10 37  1  0  0  0  0
 10 38  1  0  0  0  0
 11 12  1  0  0  0  0
 12 13  1  0  0  0  0
 12 39  1  0  0  0  0
 12 40  1  0  0  0  0
 13 23  1  0  0  0  0
 13 14  1  0  0  0  0
 14 15  2  0  0  0  0
 14 41  1  0  0  0  0
 15 16  1  0  0  0  0
 16 23  2  0  0  0  0
 16 17  1  0  0  0  0
 17 18  2  0  0  0  0
 17 19  1  0  0  0  0
 19 25  1  0  0  0  0
 19 20  1  0  0  0  0
 20 21  1  0  0  0  0
 20 22  2  0  0  0  0
 21 42  1  0  0  0  0
 21 43  1  0  0  0  0
 22 23  1  0  0  0  0
M  CHG  1   5   1
M  END
> <s_m_source_file>
AV-unprocessed.smi

> <i_m_source_file_index>
50

> <i_lp_mmshare_version>
43012

> <i_f3d_flags>
0

> <s_epik_input>
W0NIM11bQ0hdKFtDSDNdKVtDQEhdKFtOSDJdKUMoPU8pT1tDSDJdW0NIMl1PW0NIMl1uKFtjSF1uMSljKGMxMiluYyhbTkgyXSlbbkhdYzI9Tw==

> <s_epik_cmdline>
J2VwaWtfcHl0aG9uJywgJy1waCcsICc3LjAnLCAnLXRuJywgJzgnLCAnLW1hJywgJzIwMCcsICctbWV0YWxfYmluZGluZycsICctaW1hZScsICc8aW5maWxlLm1hZT4nLCAnLW9tYWUnLCAnPG91dGZpbGUubWFlPic=

> <r_lp_tautomer_probability>
0.99994

> <r_epik_Ionization_Penalty>
0.217551

> <r_epik_Ionization_Penalty_Charging>
0.217477

> <r_epik_Ionization_Penalty_Neutral>
7.42487e-05

> <r_epik_State_Penalty>
0.206211

> <r_epik_Charging_Adjusted_Penalty>
0.423688

> <i_epik_Tot_Q>
1

> <i_epik_Tot_abs_Q>
1

> <r_epik_Metal_State_Penalty>
0.526339

> <b_epik_Metal_Only>
0

> <s_epik_Chemistry_Notes>
This compound has an ester and may undergo hydrolysis at high or low pH. This compound contains an acetal/aminal-like group ( X-CH(R)-Y where X, Y are N, S, or O) that may be acid/base labile, releasing an aldehyde.

> <s_lp_Force_Field>
OPLS_2005

> <r_lp_Energy>
8.83135

> <b_lp_Chiralities_Consistent>
1

> <s_lp_Variant>
AV-unprocessed.smi:50-1

> <Gold.Version>
5.8.1

> <Gold.Id.Protein>
6NUR|6NUR_protein|mol2

> <Gold.PLP.Fitness>
49.8985

> <Gold.PLP.PLP>
-39.9130

> <Gold.PLP.part.hbond>
-5.6402

> <Gold.PLP.part.metal>
0.0000

> <Gold.PLP.part.buried>
-4.5229

> <Gold.PLP.part.nonpolar>
-31.8121

> <Gold.PLP.part.repulsive>
1.1830

> <Gold.PLP.ligand.clash>
0.0000

> <Gold.PLP.ligand.torsion>
1.6905

> <Gold.PLP.Chemscore.Hbond>
3.3582

> <Gold.PLP.Chemscore.CHOScore>
1.0000

> <Gold.PLP.Chemscore.Metal>
0.0000

> <Gold.Chemscore.Hbonds>
donor molecule, donor type, donor heavy atom, donor atom, acceptor molecule, acceptor atom, score
      L1  H     5    33       P1  7921  0.70
      P1  H  7997  8010       L1    18  1.00
      L1  C    14    41       P1  8028  1.00

> <Gold.PLP.Chemscore.Internal.Correction>
0.2920

> <Gold.Rescore>
     Score         DG    S(hbond)    S(metal)    S(lipo)     H(rot)  DE(clash)    DE(int)     intcor
      5.06      -8.49       3.11        0.00      43.06       4.86       0.06       3.36       ----

> <Gold.Chemscore.Fitness>
5.0604

> <Gold.Chemscore.DG>
-8.4863

> <Gold.Chemscore.ZeroCoef>
-5.4800

> <Gold.Chemscore.Hbond>
3.1144

> <Gold.Chemscore.Metal>
0.0000

> <Gold.Chemscore.Lipo>
43.0629

> <Gold.Chemscore.Internal_Hbond>
0.0000

> <Gold.Chemscore.DEClash>
0.0638

> <Gold.Chemscore.DEInternal>
3.3621

> <Gold.Chemscore.Rot>
4.8571

> <Gold.Chemscore.Internal.Correction>
   9.000000E+99

> <Gold.Chemscore.Hbonds>
donor molecule, donor type, donor heavy atom, donor atom, acceptor molecule, acceptor atom, score
      L1  H     5    33       P1  7921  0.66
      P1  H  7997  8010       L1    18  0.89

> <Gold.Chemscore.Hbond.Weighted>
-10.4022

> <Gold.Chemscore.Metal.Weighted>
-0.0000

> <Gold.Chemscore.Lipo.Weighted>
-5.0384

> <Gold.Chemscore.Internal_Hbond.Weighted>
0.0000

> <Gold.Chemscore.DEClash.Weighted>
0.0638

> <Gold.Chemscore.DEInternal.Weighted>
3.3621

> <Gold.Chemscore.Rot.Weighted>
12.4343

> <Gold.Chemscore.Internal.Correction.Weighted>
   9.000000E+99

> <Gold.Protein.RotatedTorsions>
[ 6907 6896 6895 6894 ] final   59.08 input  -60.11 | X-H torsion
[ 7974 7965 7964 7962 ] final -168.39 input  175.53 | X-H torsion
[ 8008 7997 7996 7995 ] final   55.88 input   59.86 | X-H torsion
[ 10167 10162 10161 10158 ] final   85.33 input  -65.29 | X-H torsion
[ 10718 10713 10712 10709 ] final  -93.76 input   66.30 | X-H torsion
[ 10763 10752 10751 10750 ] final -135.65 input  -60.55 | X-H torsion
[ 11005 11000 10999 10996 ] final -172.53 input  -57.11 | X-H torsion

> <Gold.Protein.ActiveResidues>
 VAL166  LYS551  ARG553  GLY616  TRP617  ASP618  TYR619  PRO620  LYS621  CYS622 
 ASP623  PHE694  ASN695  SER759  ASP760  ASP761  ALA762  ILE779  LEU786  VAL792 
 PHE793  MET794  SER795  GLU796  ALA797  LYS798  CYS799  TRP800  GLU811  SER814 

> <Gold.Protein.RotatedAtoms>
  152.3882  134.6483  160.0117 H   0  0  0  0  0  0  0  0  0  0  0  0  # atno 6907 bound_to 6896
  151.6725  133.3308  159.3208 H   0  0  0  0  0  0  0  0  0  0  0  0  # atno 6908 bound_to 6896
  150.7804  134.6787  159.6476 H   0  0  0  0  0  0  0  0  0  0  0  0  # atno 6909 bound_to 6896
  144.7204  140.2377  143.6296 H   0  0  0  0  0  0  0  0  0  0  0  0  # atno 7974 bound_to 7965
  155.5083  140.3476  155.4384 H   0  0  0  0  0  0  0  0  0  0  0  0  # atno 8008 bound_to 7997
  156.0867  140.1400  156.9672 H   0  0  0  0  0  0  0  0  0  0  0  0  # atno 8009 bound_to 7997
  154.4610  140.0935  156.6870 H   0  0  0  0  0  0  0  0  0  0  0  0  # atno 8010 bound_to 7997
  139.8988  144.6342  150.8659 H   0  0  0  0  0  0  0  0  0  0  0  0  # atno 10167 bound_to 10162
  156.0017  130.5040  150.5825 H   0  0  0  0  0  0  0  0  0  0  0  0  # atno 10718 bound_to 10713
  154.8699  135.3696  154.4934 H   0  0  0  0  0  0  0  0  0  0  0  0  # atno 10763 bound_to 10752
  153.5579  135.7023  153.5566 H   0  0  0  0  0  0  0  0  0  0  0  0  # atno 10764 bound_to 10752
  153.3655  135.4035  155.1714 H   0  0  0  0  0  0  0  0  0  0  0  0  # atno 10765 bound_to 10752
  140.4959  134.5940  157.4971 H   0  0  0  0  0  0  0  0  0  0  0  0  # atno 11005 bound_to 11000
  145.8350  139.2103  143.1861 LP  0  0  0  0  0  0  0  0  0  0  0  0  # atno 17320 bound_to 7965
  146.0397  140.8177  142.9834 LP  0  0  0  0  0  0  0  0  0  0  0  0  # atno 17321 bound_to 7965
  140.7711  143.3452  151.2125 LP  0  0  0  0  0  0  0  0  0  0  0  0  # atno 17342 bound_to 10162
  139.7043  143.9480  152.2920 LP  0  0  0  0  0  0  0  0  0  0  0  0  # atno 17343 bound_to 10162
  157.3703  131.0764  151.1563 LP  0  0  0  0  0  0  0  0  0  0  0  0  # atno 17370 bound_to 10713
  157.2319  130.6529  149.5853 LP  0  0  0  0  0  0  0  0  0  0  0  0  # atno 17371 bound_to 10713
  139.9742  134.7243  155.9983 LP  0  0  0  0  0  0  0  0  0  0  0  0  # atno 17394 bound_to 11000
  141.1460  133.6556  156.3870 LP  0  0  0  0  0  0  0  0  0  0  0  0  # atno 17395 bound_to 11000

$$$$
