AV-unprocessed.smi:720|AV-procd|sdf|3497|dock3
  -GOLD-   22720 0493D 1   1.00000     0.00000
 Structure written by MMmdl.
 47 49  0  0  0  0  0  0  0  0  2 V2000
  146.0605  135.4796  153.6579 C   0  0  0  0  0  0  0  0  0  0  0  0
  146.1212  136.3270  152.4447 N   0  3  0  0  0  0  0  0  0  0  0  0
  145.0501  135.9775  151.4853 C   0  0  0  0  0  0  0  0  0  0  0  0
  146.1508  137.7813  152.7394 C   0  0  0  0  0  0  0  0  0  0  0  0
  147.5399  138.2681  153.1936 C   0  0  0  0  0  0  0  0  0  0  0  0
  147.5100  139.6554  153.6138 N   0  0  0  0  0  0  0  0  0  0  0  0
  146.8145  140.7109  153.0581 C   0  0  0  0  0  0  0  0  0  0  0  0
  147.0938  141.8231  153.8012 C   0  0  0  0  0  0  0  0  0  0  0  0
  147.9794  141.3348  154.8008 C   0  0  0  0  0  0  0  0  0  0  0  0
  148.5048  142.2025  155.7912 N   0  0  0  0  0  0  0  0  0  0  0  0
  149.3475  141.8920  156.7962 C   0  0  0  0  0  0  0  0  0  0  0  0
  149.8231  140.7741  156.9878 O   0  0  0  0  0  0  0  0  0  0  0  0
  149.6543  142.9274  157.5982 N   0  0  0  0  0  0  0  0  0  0  0  0
  150.5329  142.9303  158.7702 C   0  0  2  0  0  0  0  0  0  0  0  0
  150.4682  144.2516  159.5725 C   0  0  0  0  0  0  0  0  0  0  0  0
  151.9296  144.7371  159.5526 C   0  0  1  0  0  0  0  0  0  0  0  0
  152.7956  143.8047  160.4213 C   0  0  0  0  0  0  0  0  0  0  0  0
  152.8726  142.5200  159.5728 C   0  0  0  0  0  0  0  0  0  0  0  0
  152.0160  142.8779  158.3439 C   0  0  2  0  0  0  0  0  0  0  0  0
  152.3653  144.3502  158.1460 C   0  0  0  0  0  0  0  0  0  0  0  0
  148.2280  140.0374  154.6911 N   0  0  0  0  0  0  0  0  0  0  0  0
  145.1624  135.6918  154.2394 H   0  0  0  0  0  0  0  0  0  0  0  0
  146.9291  135.6346  154.2970 H   0  0  0  0  0  0  0  0  0  0  0  0
  146.0466  134.4235  153.3866 H   0  0  0  0  0  0  0  0  0  0  0  0
  144.0652  136.1826  151.9071 H   0  0  0  0  0  0  0  0  0  0  0  0
  145.0964  134.9198  151.2236 H   0  0  0  0  0  0  0  0  0  0  0  0
  145.1527  136.5485  150.5617 H   0  0  0  0  0  0  0  0  0  0  0  0
  145.8747  138.3210  151.8319 H   0  0  0  0  0  0  0  0  0  0  0  0
  145.3944  138.0266  153.4866 H   0  0  0  0  0  0  0  0  0  0  0  0
  147.9138  137.6697  154.0246 H   0  0  0  0  0  0  0  0  0  0  0  0
  148.2626  138.1723  152.3818 H   0  0  0  0  0  0  0  0  0  0  0  0
  146.1844  140.5851  152.1899 H   0  0  0  0  0  0  0  0  0  0  0  0
  146.7213  142.8259  153.6529 H   0  0  0  0  0  0  0  0  0  0  0  0
  148.2042  143.1645  155.7373 H   0  0  0  0  0  0  0  0  0  0  0  0
  149.2421  143.8181  157.3596 H   0  0  0  0  0  0  0  0  0  0  0  0
  150.2950  142.0705  159.3993 H   0  0  0  0  0  0  0  0  0  0  0  0
  149.8193  144.9842  159.0900 H   0  0  0  0  0  0  0  0  0  0  0  0
  150.0972  144.1002  160.5869 H   0  0  0  0  0  0  0  0  0  0  0  0
  152.0427  145.7938  159.7961 H   0  0  0  0  0  0  0  0  0  0  0  0
  153.7909  144.2252  160.5696 H   0  0  0  0  0  0  0  0  0  0  0  0
  152.3562  143.6295  161.4041 H   0  0  0  0  0  0  0  0  0  0  0  0
  153.9036  142.3164  159.2801 H   0  0  0  0  0  0  0  0  0  0  0  0
  152.4978  141.6446  160.1041 H   0  0  0  0  0  0  0  0  0  0  0  0
  152.2095  142.2367  157.4831 H   0  0  0  0  0  0  0  0  0  0  0  0
  151.7805  144.8350  157.3622 H   0  0  0  0  0  0  0  0  0  0  0  0
  153.4266  144.5221  157.9579 H   0  0  0  0  0  0  0  0  0  0  0  0
  146.9921  136.1114  151.9800 H   0  0  0  0  0  0  0  0  0  0  0  0
  1  2  1  0  0  0  0
  1 22  1  0  0  0  0
  1 23  1  0  0  0  0
  1 24  1  0  0  0  0
  2  3  1  0  0  0  0
  2  4  1  0  0  0  0
  2 47  1  0  0  0  0
  3 25  1  0  0  0  0
  3 26  1  0  0  0  0
  3 27  1  0  0  0  0
  4  5  1  0  0  0  0
  4 28  1  0  0  0  0
  4 29  1  0  0  0  0
  5  6  1  0  0  0  0
  5 30  1  0  0  0  0
  5 31  1  0  0  0  0
  6 21  1  0  0  0  0
  6  7  1  0  0  0  0
  7  8  2  0  0  0  0
  7 32  1  0  0  0  0
  8  9  1  0  0  0  0
  8 33  1  0  0  0  0
  9 10  1  0  0  0  0
  9 21  2  0  0  0  0
 10 11  1  0  0  0  0
 10 34  1  0  0  0  0
 11 12  2  0  0  0  0
 11 13  1  0  0  0  0
 13 14  1  0  0  0  0
 13 35  1  0  0  0  0
 14 19  1  0  0  0  0
 14 15  1  0  0  0  0
 14 36  1  0  0  0  0
 15 16  1  0  0  0  0
 15 37  1  0  0  0  0
 15 38  1  0  0  0  0
 16 20  1  0  0  0  0
 16 17  1  0  0  0  0
 16 39  1  0  0  0  0
 17 18  1  0  0  0  0
 17 40  1  0  0  0  0
 17 41  1  0  0  0  0
 18 19  1  0  0  0  0
 18 42  1  0  0  0  0
 18 43  1  0  0  0  0
 19 20  1  0  0  0  0
 19 44  1  0  0  0  0
 20 45  1  0  0  0  0
 20 46  1  0  0  0  0
M  CHG  1   2   1
M  END
> <s_m_source_file>
AV-unprocessed.smi

> <i_m_source_file_index>
720

> <i_lp_mmshare_version>
43012

> <i_f3d_flags>
0

> <s_epik_input>
W0NIM11OKFtDSDNdKVtDSDJdW0NIMl1uMVtjSF1bY0hdYyhuMSlbTkhdQyg9TylbTkhdW0NASF0oW0NIMl1bQ0BIXTIzKVtDQEhdKFtDSDJdMylbQ0gyXVtDSDJdMg==

> <s_epik_cmdline>
J2VwaWtfcHl0aG9uJywgJy1waCcsICc3LjAnLCAnLXRuJywgJzgnLCAnLW1hJywgJzIwMCcsICctbWV0YWxfYmluZGluZycsICctaW1hZScsICc8aW5maWxlLm1hZT4nLCAnLW9tYWUnLCAnPG91dGZpbGUubWFlPic=

> <r_lp_tautomer_probability>
1

> <r_epik_Ionization_Penalty>
0.0272832

> <r_epik_Ionization_Penalty_Charging>
0.027243

> <r_epik_Ionization_Penalty_Neutral>
4.01867e-05

> <r_epik_State_Penalty>
0.0222865

> <r_epik_Charging_Adjusted_Penalty>
0.0495295

> <i_epik_Tot_Q>
1

> <i_epik_Tot_abs_Q>
1

> <r_epik_Metal_State_Penalty>
0.0222866

> <b_epik_Metal_Only>
0

> <s_lp_Force_Field>
OPLS_2005

> <r_lp_Energy>
59.8817

> <b_lp_Chiralities_Consistent>
1

> <s_lp_Variant>
AV-unprocessed.smi:720-3

> <Gold.Version>
5.8.1

> <Gold.Id.Protein>
6NUR|6NUR_protein|mol2

> <Gold.PLP.Fitness>
51.0318

> <Gold.PLP.PLP>
-39.6724

> <Gold.PLP.part.hbond>
-3.0000

> <Gold.PLP.part.metal>
0.0000

> <Gold.PLP.part.buried>
-0.7899

> <Gold.PLP.part.nonpolar>
-36.3285

> <Gold.PLP.part.repulsive>
0.2703

> <Gold.PLP.ligand.clash>
0.0000

> <Gold.PLP.ligand.torsion>
0.6539

> <Gold.PLP.Chemscore.Hbond>
3.4560

> <Gold.PLP.Chemscore.CHOScore>
0.7386

> <Gold.PLP.Chemscore.Metal>
0.0000

> <Gold.Chemscore.Hbonds>
donor molecule, donor type, donor heavy atom, donor atom, acceptor molecule, acceptor atom, score
      L1  H     2    47       P1  7948  2.00
      L1  H    10    34       P1  8028  0.82
      L1  H    13    35       P1  8028  0.69
      L1  C     7    32       P1 10175  0.77

> <Gold.PLP.Chemscore.Internal.Correction>
0.0834

> <Gold.Rescore>
     Score         DG    S(hbond)    S(metal)    S(lipo)     H(rot)  DE(clash)    DE(int)     intcor
     18.19     -21.28       1.99        0.00     113.78       1.62       1.06       2.02       ----

> <Gold.Chemscore.Fitness>
18.1936

> <Gold.Chemscore.DG>
-21.2753

> <Gold.Chemscore.ZeroCoef>
-5.4800

> <Gold.Chemscore.Hbond>
1.9861

> <Gold.Chemscore.Metal>
0.0000

> <Gold.Chemscore.Lipo>
113.7769

> <Gold.Chemscore.Internal_Hbond>
0.0000

> <Gold.Chemscore.DEClash>
1.0649

> <Gold.Chemscore.DEInternal>
2.0168

> <Gold.Chemscore.Rot>
1.6212

> <Gold.Chemscore.Internal.Correction>
   9.000000E+99

> <Gold.Chemscore.Hbonds>
donor molecule, donor type, donor heavy atom, donor atom, acceptor molecule, acceptor atom, score
      L1  H     2    47       P1  7948  0.95
      L1  H    10    34       P1  8028  0.69
      L1  H    13    35       P1  8028  0.21

> <Gold.Chemscore.Hbond.Weighted>
-6.6336

> <Gold.Chemscore.Metal.Weighted>
-0.0000

> <Gold.Chemscore.Lipo.Weighted>
-13.3119

> <Gold.Chemscore.Internal_Hbond.Weighted>
0.0000

> <Gold.Chemscore.DEClash.Weighted>
1.0649

> <Gold.Chemscore.DEInternal.Weighted>
2.0168

> <Gold.Chemscore.Rot.Weighted>
4.1502

> <Gold.Chemscore.Internal.Correction.Weighted>
   9.000000E+99

> <Gold.Protein.RotatedTorsions>
[ 6907 6896 6895 6894 ] final  -44.11 input  -60.11 | X-H torsion
[ 7974 7965 7964 7962 ] final  168.54 input  175.53 | X-H torsion
[ 8008 7997 7996 7995 ] final  -56.31 input   59.86 | X-H torsion
[ 10167 10162 10161 10158 ] final  106.27 input  -65.29 | X-H torsion
[ 10718 10713 10712 10709 ] final -123.36 input   66.30 | X-H torsion
[ 10763 10752 10751 10750 ] final -164.16 input  -60.55 | X-H torsion
[ 11005 11000 10999 10996 ] final  148.43 input  -57.11 | X-H torsion

> <Gold.Protein.ActiveResidues>
 VAL166  LYS551  ARG553  GLY616  TRP617  ASP618  TYR619  PRO620  LYS621  CYS622 
 ASP623  PHE694  ASN695  SER759  ASP760  ASP761  ALA762  ILE779  LEU786  VAL792 
 PHE793  MET794  SER795  GLU796  ALA797  LYS798  CYS799  TRP800  GLU811  SER814 

> <Gold.Protein.RotatedAtoms>
  150.9365  134.8777  159.7584 H   0  0  0  0  0  0  0  0  0  0  0  0  # atno 6907 bound_to 6896
  152.5061  134.4003  159.9424 H   0  0  0  0  0  0  0  0  0  0  0  0  # atno 6908 bound_to 6896
  151.4027  133.3712  159.2769 H   0  0  0  0  0  0  0  0  0  0  0  0  # atno 6909 bound_to 6896
  144.7385  139.8922  143.6404 H   0  0  0  0  0  0  0  0  0  0  0  0  # atno 7974 bound_to 7965
  154.4226  140.1132  156.5618 H   0  0  0  0  0  0  0  0  0  0  0  0  # atno 8008 bound_to 7997
  155.6304  140.3495  155.4662 H   0  0  0  0  0  0  0  0  0  0  0  0  # atno 8009 bound_to 7997
  155.9953  140.1188  157.0589 H   0  0  0  0  0  0  0  0  0  0  0  0  # atno 8010 bound_to 7997
  139.7023  144.7092  151.1164 H   0  0  0  0  0  0  0  0  0  0  0  0  # atno 10167 bound_to 10162
  156.1496  130.6525  150.9894 H   0  0  0  0  0  0  0  0  0  0  0  0  # atno 10718 bound_to 10713
  154.7054  135.2996  154.9278 H   0  0  0  0  0  0  0  0  0  0  0  0  # atno 10763 bound_to 10752
  154.0196  135.6684  153.4775 H   0  0  0  0  0  0  0  0  0  0  0  0  # atno 10764 bound_to 10752
  153.0713  135.5059  154.8222 H   0  0  0  0  0  0  0  0  0  0  0  0  # atno 10765 bound_to 10752
  140.0959  134.9013  157.1722 H   0  0  0  0  0  0  0  0  0  0  0  0  # atno 11005 bound_to 11000
  146.1133  139.4141  143.0274 LP  0  0  0  0  0  0  0  0  0  0  0  0  # atno 17320 bound_to 7965
  145.7411  141.0007  143.1300 LP  0  0  0  0  0  0  0  0  0  0  0  0  # atno 17321 bound_to 7965
  140.7713  143.5406  150.9317 LP  0  0  0  0  0  0  0  0  0  0  0  0  # atno 17342 bound_to 10162
  139.9088  143.6745  152.3119 LP  0  0  0  0  0  0  0  0  0  0  0  0  # atno 17343 bound_to 10162
  157.6646  131.0874  150.7759 LP  0  0  0  0  0  0  0  0  0  0  0  0  # atno 17370 bound_to 10713
  156.7828  130.4865  149.5398 LP  0  0  0  0  0  0  0  0  0  0  0  0  # atno 17371 bound_to 10713
  140.3287  134.2834  155.7232 LP  0  0  0  0  0  0  0  0  0  0  0  0  # atno 17394 bound_to 11000
  141.2092  133.7756  157.0013 LP  0  0  0  0  0  0  0  0  0  0  0  0  # atno 17395 bound_to 11000

$$$$
