AV-unprocessed.smi:226|AV-procd|sdf|1725|dock7
  -GOLD-   2262020213D 1   1.00000     0.00000
 Structure written by MMmdl.
 54 58  0  0  0  0  0  0  0  0  1 V2000
  145.4933  135.7793  158.3435 O   0  0  0  0  0  0  0  0  0  0  0  0
  146.4527  136.5118  158.5902 C   0  0  0  0  0  0  0  0  0  0  0  0
  147.0216  136.5985  159.8013 N   0  0  0  0  0  0  0  0  0  0  0  0
  146.6272  135.8627  160.9580 C   0  0  0  0  0  0  0  0  0  0  0  0
  146.0246  136.6338  162.1124 C   0  0  0  0  0  0  0  0  0  0  0  0
  147.4187  136.0819  162.2288 C   0  0  0  0  0  0  0  0  0  0  0  0
  147.0693  137.4002  157.4941 C   0  0  2  0  0  0  0  0  0  0  0  0
  147.1494  138.8722  157.9353 C   0  0  0  0  0  0  0  0  0  0  0  0
  145.8319  139.4850  157.4639 C   0  0  0  0  0  0  0  0  0  0  0  0
  145.5491  138.7374  156.1613 C   0  0  0  0  0  0  0  0  0  0  0  0
  146.2368  137.4564  156.2924 N   0  0  0  0  0  0  0  0  0  0  0  0
  146.1535  136.4814  155.3444 C   0  0  0  0  0  0  0  0  0  0  0  0
  146.8597  135.3379  155.5505 N   0  0  0  0  0  0  0  0  0  0  0  0
  146.8253  134.3417  154.6626 C   0  0  0  0  0  0  0  0  0  0  0  0
  146.1603  134.2772  153.5099 N   0  0  0  0  0  0  0  0  0  0  0  0
  145.4473  135.4174  153.2874 C   0  0  0  0  0  0  0  0  0  0  0  0
  145.3794  136.5552  154.1450 C   0  0  0  0  0  0  0  0  0  0  0  0
  144.5301  137.5023  153.5807 N   0  0  0  0  0  0  0  0  0  0  0  0
  144.1244  136.9602  152.4663 C   0  0  0  0  0  0  0  0  0  0  0  0
  144.6501  135.7187  152.1967 N   0  0  0  0  0  0  0  0  0  0  0  0
  144.3476  134.8824  151.0716 C   0  0  0  0  0  0  0  0  0  0  0  0
  143.8126  133.4610  151.2675 C   0  0  0  0  0  0  0  0  0  0  0  0
  144.6208  132.9733  150.0448 C   0  0  0  0  0  0  0  0  0  0  0  0
  145.4046  131.6693  150.2595 C   0  0  0  0  0  0  0  0  0  0  0  0
  146.5346  131.6017  149.4135 O   0  0  0  0  0  0  0  0  0  0  0  0
  143.8599  132.8305  148.7076 C   0  0  0  0  0  0  0  0  0  0  0  0
  143.5721  134.0699  148.0922 O   0  0  0  0  0  0  0  0  0  0  0  0
  145.4597  134.2592  150.2213 C   0  0  0  0  0  0  0  0  0  0  0  0
  147.8042  137.2275  159.9088 H   0  0  0  0  0  0  0  0  0  0  0  0
  146.2424  134.8555  160.8036 H   0  0  0  0  0  0  0  0  0  0  0  0
  145.9179  137.7115  162.0050 H   0  0  0  0  0  0  0  0  0  0  0  0
  145.2409  136.1441  162.6870 H   0  0  0  0  0  0  0  0  0  0  0  0
  147.5671  135.2232  162.8803 H   0  0  0  0  0  0  0  0  0  0  0  0
  148.2440  136.7910  162.1985 H   0  0  0  0  0  0  0  0  0  0  0  0
  148.0736  137.0508  157.2521 H   0  0  0  0  0  0  0  0  0  0  0  0
  147.3079  138.9994  159.0073 H   0  0  0  0  0  0  0  0  0  0  0  0
  147.9806  139.3607  157.4248 H   0  0  0  0  0  0  0  0  0  0  0  0
  145.0466  139.2744  158.1912 H   0  0  0  0  0  0  0  0  0  0  0  0
  145.8861  140.5658  157.3302 H   0  0  0  0  0  0  0  0  0  0  0  0
  144.4767  138.6132  156.0049 H   0  0  0  0  0  0  0  0  0  0  0  0
  145.9616  139.2806  155.3098 H   0  0  0  0  0  0  0  0  0  0  0  0
  147.4166  133.4727  154.9112 H   0  0  0  0  0  0  0  0  0  0  0  0
  143.4307  137.4591  151.8053 H   0  0  0  0  0  0  0  0  0  0  0  0
  143.6672  135.4637  150.4483 H   0  0  0  0  0  0  0  0  0  0  0  0
  144.1535  133.0178  152.2047 H   0  0  0  0  0  0  0  0  0  0  0  0
  142.7305  133.3716  151.1666 H   0  0  0  0  0  0  0  0  0  0  0  0
  145.7313  131.5697  151.2951 H   0  0  0  0  0  0  0  0  0  0  0  0
  144.7808  130.7999  150.0488 H   0  0  0  0  0  0  0  0  0  0  0  0
  147.2113  131.1123  149.8564 H   0  0  0  0  0  0  0  0  0  0  0  0
  144.4362  132.2363  147.9977 H   0  0  0  0  0  0  0  0  0  0  0  0
  142.9115  132.3116  148.8509 H   0  0  0  0  0  0  0  0  0  0  0  0
  144.3814  134.4458  147.7807 H   0  0  0  0  0  0  0  0  0  0  0  0
  145.6727  134.7986  149.2979 H   0  0  0  0  0  0  0  0  0  0  0  0
  146.3751  134.0934  150.7919 H   0  0  0  0  0  0  0  0  0  0  0  0
  1  2  2  0  0  0  0
  2  3  1  0  0  0  0
  2  7  1  0  0  0  0
  3  4  1  0  0  0  0
  3 29  1  0  0  0  0
  4  6  1  0  0  0  0
  4  5  1  0  0  0  0
  4 30  1  0  0  0  0
  5  6  1  0  0  0  0
  5 31  1  0  0  0  0
  5 32  1  0  0  0  0
  6 33  1  0  0  0  0
  6 34  1  0  0  0  0
  7 11  1  0  0  0  0
  7  8  1  0  0  0  0
  7 35  1  0  0  0  0
  8  9  1  0  0  0  0
  8 36  1  0  0  0  0
  8 37  1  0  0  0  0
  9 10  1  0  0  0  0
  9 38  1  0  0  0  0
  9 39  1  0  0  0  0
 10 11  1  0  0  0  0
 10 40  1  0  0  0  0
 10 41  1  0  0  0  0
 11 12  1  0  0  0  0
 12 17  1  0  0  0  0
 12 13  2  0  0  0  0
 13 14  1  0  0  0  0
 14 15  2  0  0  0  0
 14 42  1  0  0  0  0
 15 16  1  0  0  0  0
 16 20  1  0  0  0  0
 16 17  2  0  0  0  0
 17 18  1  0  0  0  0
 18 19  2  0  0  0  0
 19 20  1  0  0  0  0
 19 43  1  0  0  0  0
 20 21  1  0  0  0  0
 21 28  1  0  0  0  0
 21 22  1  0  0  0  0
 21 44  1  0  0  0  0
 22 23  1  0  0  0  0
 22 45  1  0  0  0  0
 22 46  1  0  0  0  0
 23 24  1  0  0  0  0
 23 26  1  0  0  0  0
 23 28  1  0  0  0  0
 24 25  1  0  0  0  0
 24 47  1  0  0  0  0
 24 48  1  0  0  0  0
 25 49  1  0  0  0  0
 26 27  1  0  0  0  0
 26 50  1  0  0  0  0
 26 51  1  0  0  0  0
 27 52  1  0  0  0  0
 28 53  1  0  0  0  0
 28 54  1  0  0  0  0
M  END
> <s_m_source_file>
AV-unprocessed.smi

> <i_m_source_file_index>
226

> <i_lp_mmshare_version>
43012

> <i_f3d_flags>
0

> <s_epik_input>
W0NIMl0xW0NIMl1bQ0hdMVtOSF1DKD1PKVtDQEBIXTJbQ0gyXVtDSDJdW0NIMl1OMmMobltjSF1uMyljKGMzNCluW2NIXW40W0NIXShbQ0gyXTUpW0NIMl1DNShbQ0gyXVtPSF0pW0NIMl1bT0hd

> <s_epik_cmdline>
J2VwaWtfcHl0aG9uJywgJy1waCcsICc3LjAnLCAnLXRuJywgJzgnLCAnLW1hJywgJzIwMCcsICctbWV0YWxfYmluZGluZycsICctaW1hZScsICc8aW5maWxlLm1hZT4nLCAnLW9tYWUnLCAnPG91dGZpbGUubWFlPic=

> <r_lp_tautomer_probability>
1

> <r_epik_Ionization_Penalty>
0.000818715

> <r_epik_Ionization_Penalty_Charging>
0

> <r_epik_Ionization_Penalty_Neutral>
0.000818715

> <r_epik_State_Penalty>
0.000426447

> <r_epik_Charging_Adjusted_Penalty>
0.000426447

> <i_epik_Tot_Q>
0

> <i_epik_Tot_abs_Q>
0

> <r_epik_Metal_State_Penalty>
-0

> <b_epik_Metal_Only>
0

> <s_lp_Force_Field>
OPLS_2005

> <r_lp_Energy>
61.6174

> <b_lp_Chiralities_Consistent>
1

> <s_lp_Variant>
AV-unprocessed.smi:226-1

> <Gold.Version>
5.8.1

> <Gold.Id.Protein>
6NUR|6NUR_protein|mol2

> <Gold.PLP.Fitness>
44.6651

> <Gold.PLP.PLP>
-34.4344

> <Gold.PLP.part.hbond>
-4.3661

> <Gold.PLP.part.metal>
0.0000

> <Gold.PLP.part.buried>
-3.5542

> <Gold.PLP.part.nonpolar>
-26.4524

> <Gold.PLP.part.repulsive>
0.3751

> <Gold.PLP.ligand.clash>
0.0000

> <Gold.PLP.ligand.torsion>
0.9329

> <Gold.PLP.Chemscore.Hbond>
2.9913

> <Gold.PLP.Chemscore.CHOScore>
0.8735

> <Gold.PLP.Chemscore.Metal>
0.0000

> <Gold.Chemscore.Hbonds>
donor molecule, donor type, donor heavy atom, donor atom, acceptor molecule, acceptor atom, score
      L1  H    25    49       P1 10747  0.99
      L1  H    27    52       P1  7921  1.00
      P1  H 10192 10197       L1    27  0.78
      L1  C    19    43       P1 10171  1.00

> <Gold.PLP.Chemscore.Internal.Correction>
0.5022

> <Gold.Rescore>
     Score         DG    S(hbond)    S(metal)    S(lipo)     H(rot)  DE(clash)    DE(int)     intcor
     11.58     -15.07       2.85        0.00      77.67       3.52       1.62       1.87       ----

> <Gold.Chemscore.Fitness>
11.5765

> <Gold.Chemscore.DG>
-15.0697

> <Gold.Chemscore.ZeroCoef>
-5.4800

> <Gold.Chemscore.Hbond>
2.8517

> <Gold.Chemscore.Metal>
0.0000

> <Gold.Chemscore.Lipo>
77.6730

> <Gold.Chemscore.Internal_Hbond>
0.0000

> <Gold.Chemscore.DEClash>
1.6240

> <Gold.Chemscore.DEInternal>
1.8692

> <Gold.Chemscore.Rot>
3.5244

> <Gold.Chemscore.Internal.Correction>
   9.000000E+99

> <Gold.Chemscore.Hbonds>
donor molecule, donor type, donor heavy atom, donor atom, acceptor molecule, acceptor atom, score
      L1  H    25    49       P1 10747  0.94
      L1  H    27    52       P1  7921  1.00
      P1  H 10192 10197       L1    27  0.42

> <Gold.Chemscore.Hbond.Weighted>
-9.5245

> <Gold.Chemscore.Metal.Weighted>
-0.0000

> <Gold.Chemscore.Lipo.Weighted>
-9.0877

> <Gold.Chemscore.Internal_Hbond.Weighted>
0.0000

> <Gold.Chemscore.DEClash.Weighted>
1.6240

> <Gold.Chemscore.DEInternal.Weighted>
1.8692

> <Gold.Chemscore.Rot.Weighted>
9.0225

> <Gold.Chemscore.Internal.Correction.Weighted>
   9.000000E+99

> <Gold.Protein.RotatedTorsions>
[ 6907 6896 6895 6894 ] final  135.92 input  -60.11 | X-H torsion
[ 7974 7965 7964 7962 ] final -142.11 input  175.53 | X-H torsion
[ 8008 7997 7996 7995 ] final  175.73 input   59.86 | X-H torsion
[ 10167 10162 10161 10158 ] final -121.30 input  -65.29 | X-H torsion
[ 10718 10713 10712 10709 ] final  -79.30 input   66.30 | X-H torsion
[ 10763 10752 10751 10750 ] final  -55.35 input  -60.55 | X-H torsion
[ 11005 11000 10999 10996 ] final   55.58 input  -57.11 | X-H torsion

> <Gold.Protein.ActiveResidues>
 VAL166  LYS551  ARG553  GLY616  TRP617  ASP618  TYR619  PRO620  LYS621  CYS622 
 ASP623  PHE694  ASN695  SER759  ASP760  ASP761  ALA762  ILE779  LEU786  VAL792 
 PHE793  MET794  SER795  GLU796  ALA797  LYS798  CYS799  TRP800  GLU811  SER814 

> <Gold.Protein.RotatedAtoms>
  152.2951  133.5600  159.5582 H   0  0  0  0  0  0  0  0  0  0  0  0  # atno 6907 bound_to 6896
  150.7252  134.0372  159.3762 H   0  0  0  0  0  0  0  0  0  0  0  0  # atno 6908 bound_to 6896
  151.8276  135.0632  160.0483 H   0  0  0  0  0  0  0  0  0  0  0  0  # atno 6909 bound_to 6896
  144.8468  140.5998  143.5416 H   0  0  0  0  0  0  0  0  0  0  0  0  # atno 7974 bound_to 7965
  156.0839  140.1401  156.9677 H   0  0  0  0  0  0  0  0  0  0  0  0  # atno 8008 bound_to 7997
  154.4601  140.0946  156.6918 H   0  0  0  0  0  0  0  0  0  0  0  0  # atno 8009 bound_to 7997
  155.5030  140.3451  155.4377 H   0  0  0  0  0  0  0  0  0  0  0  0  # atno 8010 bound_to 7997
  140.0265  143.5291  152.2196 H   0  0  0  0  0  0  0  0  0  0  0  0  # atno 10167 bound_to 10162
  156.0096  130.4542  150.3628 H   0  0  0  0  0  0  0  0  0  0  0  0  # atno 10718 bound_to 10713
  154.1894  135.6430  153.5055 H   0  0  0  0  0  0  0  0  0  0  0  0  # atno 10763 bound_to 10752
  153.0039  135.5425  154.6431 H   0  0  0  0  0  0  0  0  0  0  0  0  # atno 10764 bound_to 10752
  154.5816  135.2926  155.0700 H   0  0  0  0  0  0  0  0  0  0  0  0  # atno 10765 bound_to 10752
  140.0596  134.5621  155.9167 H   0  0  0  0  0  0  0  0  0  0  0  0  # atno 11005 bound_to 11000
  145.4580  139.1516  143.3882 LP  0  0  0  0  0  0  0  0  0  0  0  0  # atno 17320 bound_to 7965
  146.2751  140.4709  142.8799 LP  0  0  0  0  0  0  0  0  0  0  0  0  # atno 17321 bound_to 7965
  139.6104  144.7607  151.2965 LP  0  0  0  0  0  0  0  0  0  0  0  0  # atno 17342 bound_to 10162
  140.7320  143.6835  150.7981 LP  0  0  0  0  0  0  0  0  0  0  0  0  # atno 17343 bound_to 10162
  157.1716  131.0370  151.2793 LP  0  0  0  0  0  0  0  0  0  0  0  0  # atno 17370 bound_to 10713
  157.4224  130.7445  149.6924 LP  0  0  0  0  0  0  0  0  0  0  0  0  # atno 17371 bound_to 10713
  141.1967  133.6593  156.5706 LP  0  0  0  0  0  0  0  0  0  0  0  0  # atno 17394 bound_to 11000
  140.3791  134.7539  157.4649 LP  0  0  0  0  0  0  0  0  0  0  0  0  # atno 17395 bound_to 11000

$$$$
