AV-unprocessed.smi:3116|AV-procd|sdf|11873|dock3
  -GOLD-   2272017253D 1   1.00000     0.00000
 Structure written by MMmdl.
 33 33  0  0  0  0  0  0  0  0  1 V2000
  149.5299  141.3998  155.0706 C   0  0  0  0  0  0  0  0  0  0  0  0
  149.7882  141.0478  156.5502 C   0  0  1  0  0  0  0  0  0  0  0  0
  150.9534  141.7765  157.0753 N   0  0  0  0  0  0  0  0  0  0  0  0
  151.4813  141.2287  158.3244 C   0  0  1  0  0  0  0  0  0  0  0  0
  152.0842  139.8543  157.9859 C   0  0  0  0  0  0  0  0  0  0  0  0
  152.5173  142.2214  158.9197 C   0  0  2  0  0  0  0  0  0  0  0  0
  153.2516  141.6599  160.1524 C   0  0  0  0  0  0  0  0  0  0  0  0
  151.9056  143.5058  159.2472 N   0  0  0  0  0  0  0  0  0  0  0  0
  152.5080  144.6194  159.7954 C   0  0  0  0  0  0  0  0  0  0  0  0
  151.5537  145.5898  159.9044 C   0  0  0  0  0  0  0  0  0  0  0  0
  150.3814  144.9696  159.3904 C   0  0  0  0  0  0  0  0  0  0  0  0
  150.5944  143.7250  158.9967 N   0  0  0  0  0  0  0  0  0  0  0  0
  148.5635  141.3285  157.4313 C   0  0  0  0  0  0  0  0  0  0  0  0
  148.1391  142.5940  157.4784 N   0  0  0  0  0  0  0  0  0  0  0  0
  147.9970  140.4286  158.0498 O   0  0  0  0  0  0  0  0  0  0  0  0
  148.6400  140.8940  154.6935 H   0  0  0  0  0  0  0  0  0  0  0  0
  150.3617  141.0947  154.4359 H   0  0  0  0  0  0  0  0  0  0  0  0
  149.3877  142.4723  154.9316 H   0  0  0  0  0  0  0  0  0  0  0  0
  149.9742  139.9748  156.6230 H   0  0  0  0  0  0  0  0  0  0  0  0
  151.6906  141.8436  156.3885 H   0  0  0  0  0  0  0  0  0  0  0  0
  150.6833  141.0751  159.0529 H   0  0  0  0  0  0  0  0  0  0  0  0
  152.4160  139.3316  158.8826 H   0  0  0  0  0  0  0  0  0  0  0  0
  152.9405  139.9467  157.3166 H   0  0  0  0  0  0  0  0  0  0  0  0
  151.3502  139.2106  157.4995 H   0  0  0  0  0  0  0  0  0  0  0  0
  153.2738  142.4188  158.1582 H   0  0  0  0  0  0  0  0  0  0  0  0
  153.8683  140.7995  159.8949 H   0  0  0  0  0  0  0  0  0  0  0  0
  152.5519  141.3486  160.9285 H   0  0  0  0  0  0  0  0  0  0  0  0
  153.9156  142.4087  160.5854 H   0  0  0  0  0  0  0  0  0  0  0  0
  153.5564  144.6301  160.0552 H   0  0  0  0  0  0  0  0  0  0  0  0
  151.6750  146.5906  160.2914 H   0  0  0  0  0  0  0  0  0  0  0  0
  149.3891  145.3843  159.2911 H   0  0  0  0  0  0  0  0  0  0  0  0
  147.3394  142.8323  158.0474 H   0  0  0  0  0  0  0  0  0  0  0  0
  148.6217  143.3057  156.9494 H   0  0  0  0  0  0  0  0  0  0  0  0
  1  2  1  0  0  0  0
  1 16  1  0  0  0  0
  1 17  1  0  0  0  0
  1 18  1  0  0  0  0
  2  3  1  0  0  0  0
  2 13  1  0  0  0  0
  2 19  1  0  0  0  0
  3  4  1  0  0  0  0
  3 20  1  0  0  0  0
  4  5  1  0  0  0  0
  4  6  1  0  0  0  0
  4 21  1  0  0  0  0
  5 22  1  0  0  0  0
  5 23  1  0  0  0  0
  5 24  1  0  0  0  0
  6  7  1  0  0  0  0
  6  8  1  0  0  0  0
  6 25  1  0  0  0  0
  7 26  1  0  0  0  0
  7 27  1  0  0  0  0
  7 28  1  0  0  0  0
  8 12  1  0  0  0  0
  8  9  1  0  0  0  0
  9 10  2  0  0  0  0
  9 29  1  0  0  0  0
 10 11  1  0  0  0  0
 10 30  1  0  0  0  0
 11 12  2  0  0  0  0
 11 31  1  0  0  0  0
 13 14  1  0  0  0  0
 13 15  2  0  0  0  0
 14 32  1  0  0  0  0
 14 33  1  0  0  0  0
M  END
> <s_m_source_file>
AV-unprocessed.smi

> <i_m_source_file_index>
3116

> <i_lp_mmshare_version>
43012

> <i_f3d_flags>
0

> <s_epik_input>
W05IMl1DKD1PKVtDQEhdKFtDSDNdKVtOSF1bQ0BIXShbQ0gzXSlbQ0BIXShbQ0gzXSluMVtjSF1bY0hdW2NIXW4x

> <s_epik_cmdline>
J2VwaWtfcHl0aG9uJywgJy1waCcsICc3LjAnLCAnLXRuJywgJzgnLCAnLW1hJywgJzIwMCcsICctbWV0YWxfYmluZGluZycsICctaW1hZScsICc8aW5maWxlLm1hZT4nLCAnLW9tYWUnLCAnPG91dGZpbGUubWFlPic=

> <r_lp_tautomer_probability>
1

> <r_epik_Ionization_Penalty>
0.865977

> <r_epik_Ionization_Penalty_Charging>
0

> <r_epik_Ionization_Penalty_Neutral>
0.865977

> <r_epik_State_Penalty>
0.901888

> <r_epik_Charging_Adjusted_Penalty>
0.901888

> <i_epik_Tot_Q>
0

> <i_epik_Tot_abs_Q>
0

> <r_epik_Metal_State_Penalty>
0.901181

> <b_epik_Metal_Only>
0

> <s_lp_Force_Field>
OPLS_2005

> <r_lp_Energy>
8.51746

> <b_lp_Chiralities_Consistent>
1

> <s_lp_Variant>
AV-unprocessed.smi:3116-12

> <Gold.Version>
5.8.1

> <Gold.Id.Protein>
6NUR|6NUR_protein|mol2

> <Gold.PLP.Fitness>
38.0954

> <Gold.PLP.PLP>
-32.4603

> <Gold.PLP.part.hbond>
-1.9443

> <Gold.PLP.part.metal>
0.0000

> <Gold.PLP.part.buried>
-4.8622

> <Gold.PLP.part.nonpolar>
-25.5509

> <Gold.PLP.part.repulsive>
0.1712

> <Gold.PLP.ligand.clash>
0.0000

> <Gold.PLP.ligand.torsion>
0.2264

> <Gold.PLP.Chemscore.Hbond>
1.0000

> <Gold.PLP.Chemscore.CHOScore>
0.9953

> <Gold.PLP.Chemscore.Metal>
0.0000

> <Gold.Chemscore.Hbonds>
donor molecule, donor type, donor heavy atom, donor atom, acceptor molecule, acceptor atom, score
      L1  H    14    33       P1  8028  1.00
      L1  C    11    31       P1  8029  0.92

> <Gold.PLP.Chemscore.Internal.Correction>
0.1021

> <Gold.Rescore>
     Score         DG    S(hbond)    S(metal)    S(lipo)     H(rot)  DE(clash)    DE(int)     intcor
      9.57     -11.29       0.88        0.00      76.72       2.38       0.01       1.72       ----

> <Gold.Chemscore.Fitness>
9.5658

> <Gold.Chemscore.DG>
-11.2899

> <Gold.Chemscore.ZeroCoef>
-5.4800

> <Gold.Chemscore.Hbond>
0.8789

> <Gold.Chemscore.Metal>
0.0000

> <Gold.Chemscore.Lipo>
76.7218

> <Gold.Chemscore.Internal_Hbond>
0.0000

> <Gold.Chemscore.DEClash>
0.0089

> <Gold.Chemscore.DEInternal>
1.7152

> <Gold.Chemscore.Rot>
2.3836

> <Gold.Chemscore.Internal.Correction>
   9.000000E+99

> <Gold.Chemscore.Hbonds>
donor molecule, donor type, donor heavy atom, donor atom, acceptor molecule, acceptor atom, score
      L1  H    14    33       P1  8028  0.44

> <Gold.Chemscore.Hbond.Weighted>
-2.9354

> <Gold.Chemscore.Metal.Weighted>
-0.0000

> <Gold.Chemscore.Lipo.Weighted>
-8.9765

> <Gold.Chemscore.Internal_Hbond.Weighted>
0.0000

> <Gold.Chemscore.DEClash.Weighted>
0.0089

> <Gold.Chemscore.DEInternal.Weighted>
1.7152

> <Gold.Chemscore.Rot.Weighted>
6.1020

> <Gold.Chemscore.Internal.Correction.Weighted>
   9.000000E+99

> <Gold.Protein.RotatedTorsions>
[ 6907 6896 6895 6894 ] final  142.55 input  -60.11 | X-H torsion
[ 7974 7965 7964 7962 ] final  -64.51 input  175.53 | X-H torsion
[ 8008 7997 7996 7995 ] final -177.84 input   59.86 | X-H torsion
[ 10167 10162 10161 10158 ] final  -44.79 input  -65.29 | X-H torsion
[ 10718 10713 10712 10709 ] final -115.36 input   66.30 | X-H torsion
[ 10763 10752 10751 10750 ] final  162.66 input  -60.55 | X-H torsion
[ 11005 11000 10999 10996 ] final -106.43 input  -57.11 | X-H torsion

> <Gold.Protein.ActiveResidues>
 VAL166  LYS551  ARG553  GLY616  TRP617  ASP618  TYR619  PRO620  LYS621  CYS622 
 ASP623  PHE694  ASN695  SER759  ASP760  ASP761  ALA762  ILE779  LEU786  VAL792 
 PHE793  MET794  SER795  GLU796  ALA797  LYS798  CYS799  TRP800  GLU811  SER814 

> <Gold.Protein.RotatedAtoms>
  152.2174  133.4957  159.5143 H   0  0  0  0  0  0  0  0  0  0  0  0  # atno 6907 bound_to 6896
  150.7004  134.1388  159.4106 H   0  0  0  0  0  0  0  0  0  0  0  0  # atno 6908 bound_to 6896
  151.9308  135.0257  160.0579 H   0  0  0  0  0  0  0  0  0  0  0  0  # atno 6909 bound_to 6896
  145.7658  140.8838  143.0406 H   0  0  0  0  0  0  0  0  0  0  0  0  # atno 7974 bound_to 7965
  156.0118  140.1242  157.0446 H   0  0  0  0  0  0  0  0  0  0  0  0  # atno 8008 bound_to 7997
  154.4278  140.1086  156.5909 H   0  0  0  0  0  0  0  0  0  0  0  0  # atno 8009 bound_to 7997
  155.6069  140.3471  155.4613 H   0  0  0  0  0  0  0  0  0  0  0  0  # atno 8010 bound_to 7997
  140.6883  143.2912  151.3546 H   0  0  0  0  0  0  0  0  0  0  0  0  # atno 10167 bound_to 10162
  156.0890  130.6076  150.8896 H   0  0  0  0  0  0  0  0  0  0  0  0  # atno 10718 bound_to 10713
  154.2817  135.2763  155.2694 H   0  0  0  0  0  0  0  0  0  0  0  0  # atno 10763 bound_to 10752
  154.5212  135.5756  153.6686 H   0  0  0  0  0  0  0  0  0  0  0  0  # atno 10764 bound_to 10752
  152.9928  135.6205  154.2977 H   0  0  0  0  0  0  0  0  0  0  0  0  # atno 10765 bound_to 10752
  141.1005  133.8893  157.1854 H   0  0  0  0  0  0  0  0  0  0  0  0  # atno 11005 bound_to 11000
  144.6822  139.9786  143.7483 LP  0  0  0  0  0  0  0  0  0  0  0  0  # atno 17320 bound_to 7965
  146.0219  139.3259  143.0807 LP  0  0  0  0  0  0  0  0  0  0  0  0  # atno 17321 bound_to 7965
  139.6261  144.0811  152.2436 LP  0  0  0  0  0  0  0  0  0  0  0  0  # atno 17342 bound_to 10162
  140.0271  144.6109  150.7519 LP  0  0  0  0  0  0  0  0  0  0  0  0  # atno 17343 bound_to 10162
  157.6034  131.0940  150.8921 LP  0  0  0  0  0  0  0  0  0  0  0  0  # atno 17370 bound_to 10713
  156.9074  130.5268  149.5281 LP  0  0  0  0  0  0  0  0  0  0  0  0  # atno 17371 bound_to 10713
  139.9855  135.0083  156.9852 LP  0  0  0  0  0  0  0  0  0  0  0  0  # atno 17394 bound_to 11000
  140.5034  134.1075  155.7255 LP  0  0  0  0  0  0  0  0  0  0  0  0  # atno 17395 bound_to 11000

$$$$
