AV-unprocessed.smi:24|AV-procd|sdf|178|dock9
  -GOLD-   2262015443D 1   1.00000     0.00000
 Structure written by MMmdl.
 61 65  0  0  0  0  0  0  0  0  1 V2000
  152.5449  128.5875  161.1361 C   0  0  0  0  0  0  0  0  0  0  0  0
  151.2989  129.0676  160.6524 O   0  0  0  0  0  0  0  0  0  0  0  0
  151.2912  129.7681  159.4654 C   0  0  0  0  0  0  0  0  0  0  0  0
  150.0476  130.2586  159.0187 C   0  0  0  0  0  0  0  0  0  0  0  0
  149.9459  130.9774  157.8123 C   0  0  0  0  0  0  0  0  0  0  0  0
  151.0915  131.2169  157.0272 C   0  0  0  0  0  0  0  0  0  0  0  0
  150.9558  131.9931  155.7177 C   0  0  1  0  0  0  0  0  0  0  0  0
  150.1142  131.2413  154.6827 C   0  0  0  0  0  0  0  0  0  0  0  0
  149.0501  132.2414  154.3757 C   0  0  0  0  0  0  0  0  0  0  0  0
  147.9747  131.9598  153.3986 C   0  0  0  0  0  0  0  0  0  0  0  0
  147.5690  130.6235  153.1788 C   0  0  0  0  0  0  0  0  0  0  0  0
  146.5402  130.3548  152.2549 C   0  0  0  0  0  0  0  0  0  0  0  0
  145.9217  131.4110  151.5571 C   0  0  0  0  0  0  0  0  0  0  0  0
  146.3301  132.7412  151.7791 C   0  0  0  0  0  0  0  0  0  0  0  0
  147.3583  133.0229  152.7004 C   0  0  0  0  0  0  0  0  0  0  0  0
  149.1655  133.3373  155.0299 N   0  0  0  0  0  0  0  0  0  0  0  0
  150.2589  133.2815  155.8308 N   0  0  0  0  0  0  0  0  0  0  0  0
  150.6998  134.3335  156.5557 C   0  0  0  0  0  0  0  0  0  0  0  0
  151.7697  134.3008  157.1667 O   0  0  0  0  0  0  0  0  0  0  0  0
  149.8280  135.6061  156.6020 C   0  0  0  0  0  0  0  0  0  0  0  0
  150.6079  136.8437  156.8209 N   0  0  0  0  0  0  0  0  0  0  0  0
  151.1288  137.5319  155.6975 C   0  0  0  0  0  0  0  0  0  0  0  0
  150.9371  137.1226  154.5516 O   0  0  0  0  0  0  0  0  0  0  0  0
  151.9001  138.7331  155.9975 C   0  0  0  0  0  0  0  0  0  0  0  0
  152.4218  139.4570  154.9927 F   0  0  0  0  0  0  0  0  0  0  0  0
  152.0996  139.1320  157.2707 C   0  0  0  0  0  0  0  0  0  0  0  0
  151.5983  138.4403  158.3589 N   0  0  0  0  0  0  0  0  0  0  0  0
  151.8450  138.8913  159.7824 C   0  0  1  0  0  0  0  0  0  0  0  0
  152.6372  137.8225  160.5576 C   0  0  0  0  0  0  0  0  0  0  0  0
  153.7617  138.6275  161.1772 C   0  0  0  0  0  0  0  0  0  0  0  0
  153.9514  139.7386  160.1556 C   0  0  0  0  0  0  0  0  0  0  0  0
  152.6166  140.0592  159.7851 O   0  0  0  0  0  0  0  0  0  0  0  0
  150.8340  137.2722  158.1506 C   0  0  0  0  0  0  0  0  0  0  0  0
  150.3836  136.6376  159.1076 O   0  0  0  0  0  0  0  0  0  0  0  0
  152.3437  130.7420  157.4758 C   0  0  0  0  0  0  0  0  0  0  0  0
  152.4444  130.0206  158.6809 C   0  0  0  0  0  0  0  0  0  0  0  0
  152.3832  128.0416  162.0654 H   0  0  0  0  0  0  0  0  0  0  0  0
  153.2315  129.4076  161.3506 H   0  0  0  0  0  0  0  0  0  0  0  0
  153.0106  127.9011  160.4276 H   0  0  0  0  0  0  0  0  0  0  0  0
  149.1596  130.0783  159.6066 H   0  0  0  0  0  0  0  0  0  0  0  0
  148.9812  131.3400  157.4886 H   0  0  0  0  0  0  0  0  0  0  0  0
  151.9511  132.1807  155.3099 H   0  0  0  0  0  0  0  0  0  0  0  0
  150.6990  130.9945  153.7959 H   0  0  0  0  0  0  0  0  0  0  0  0
  149.6809  130.3242  155.0847 H   0  0  0  0  0  0  0  0  0  0  0  0
  148.0297  129.7998  153.7047 H   0  0  0  0  0  0  0  0  0  0  0  0
  146.2243  129.3365  152.0819 H   0  0  0  0  0  0  0  0  0  0  0  0
  145.1324  131.2003  150.8506 H   0  0  0  0  0  0  0  0  0  0  0  0
  145.8528  133.5478  151.2421 H   0  0  0  0  0  0  0  0  0  0  0  0
  147.6518  134.0506  152.8541 H   0  0  0  0  0  0  0  0  0  0  0  0
  149.2466  135.6590  155.6805 H   0  0  0  0  0  0  0  0  0  0  0  0
  149.0766  135.4989  157.3865 H   0  0  0  0  0  0  0  0  0  0  0  0
  152.6774  140.0304  157.4236 H   0  0  0  0  0  0  0  0  0  0  0  0
  150.8611  139.1103  160.2010 H   0  0  0  0  0  0  0  0  0  0  0  0
  152.0062  137.3231  161.2933 H   0  0  0  0  0  0  0  0  0  0  0  0
  153.0384  137.0767  159.8693 H   0  0  0  0  0  0  0  0  0  0  0  0
  153.4423  139.0473  162.1318 H   0  0  0  0  0  0  0  0  0  0  0  0
  154.6662  138.0418  161.3442 H   0  0  0  0  0  0  0  0  0  0  0  0
  154.4732  140.6042  160.5639 H   0  0  0  0  0  0  0  0  0  0  0  0
  154.5066  139.3774  159.2890 H   0  0  0  0  0  0  0  0  0  0  0  0
  153.2367  130.9239  156.8958 H   0  0  0  0  0  0  0  0  0  0  0  0
  153.4202  129.6709  158.9816 H   0  0  0  0  0  0  0  0  0  0  0  0
  1  2  1  0  0  0  0
  1 37  1  0  0  0  0
  1 38  1  0  0  0  0
  1 39  1  0  0  0  0
  2  3  1  0  0  0  0
  3 36  1  0  0  0  0
  3  4  2  0  0  0  0
  4  5  1  0  0  0  0
  4 40  1  0  0  0  0
  5  6  2  0  0  0  0
  5 41  1  0  0  0  0
  6  7  1  0  0  0  0
  6 35  1  0  0  0  0
  7 17  1  0  0  0  0
  7  8  1  0  0  0  0
  7 42  1  0  0  0  0
  8  9  1  0  0  0  0
  8 43  1  0  0  0  0
  8 44  1  0  0  0  0
  9 10  1  0  0  0  0
  9 16  2  0  0  0  0
 10 15  1  0  0  0  0
 10 11  2  0  0  0  0
 11 12  1  0  0  0  0
 11 45  1  0  0  0  0
 12 13  2  0  0  0  0
 12 46  1  0  0  0  0
 13 14  1  0  0  0  0
 13 47  1  0  0  0  0
 14 15  2  0  0  0  0
 14 48  1  0  0  0  0
 15 49  1  0  0  0  0
 16 17  1  0  0  0  0
 17 18  1  0  0  0  0
 18 19  2  0  0  0  0
 18 20  1  0  0  0  0
 20 21  1  0  0  0  0
 20 50  1  0  0  0  0
 20 51  1  0  0  0  0
 21 33  1  0  0  0  0
 21 22  1  0  0  0  0
 22 23  2  0  0  0  0
 22 24  1  0  0  0  0
 24 25  1  0  0  0  0
 24 26  2  0  0  0  0
 26 27  1  0  0  0  0
 26 52  1  0  0  0  0
 27 28  1  0  0  0  0
 27 33  1  0  0  0  0
 28 32  1  0  0  0  0
 28 29  1  0  0  0  0
 28 53  1  0  0  0  0
 29 30  1  0  0  0  0
 29 54  1  0  0  0  0
 29 55  1  0  0  0  0
 30 31  1  0  0  0  0
 30 56  1  0  0  0  0
 30 57  1  0  0  0  0
 31 32  1  0  0  0  0
 31 58  1  0  0  0  0
 31 59  1  0  0  0  0
 33 34  2  0  0  0  0
 35 36  2  0  0  0  0
 35 60  1  0  0  0  0
 36 61  1  0  0  0  0
M  END
> <s_m_source_file>
AV-unprocessed.smi

> <i_m_source_file_index>
24

> <i_lp_mmshare_version>
43012

> <i_f3d_flags>
0

> <s_epik_input>
W0NIM11PYzFbY0hdW2NIXWMoW2NIXVtjSF0xKVtDQEBIXTJbQ0gyXUMoYzNbY0hdW2NIXVtjSF1bY0hdW2NIXTMpPU5OMkMoPU8pW0NIMl1uNGMoPU8pYyhGKVtjSF1uKGM0PU8pW0NAQEhdNVtDSDJdW0NIMl1bQ0gyXU81

> <s_epik_cmdline>
J2VwaWtfcHl0aG9uJywgJy1waCcsICc3LjAnLCAnLXRuJywgJzgnLCAnLW1hJywgJzIwMCcsICctbWV0YWxfYmluZGluZycsICctaW1hZScsICc8aW5maWxlLm1hZT4nLCAnLW9tYWUnLCAnPG91dGZpbGUubWFlPic=

> <r_lp_tautomer_probability>
1

> <r_epik_Ionization_Penalty>
1.46326e-08

> <r_epik_Ionization_Penalty_Charging>
4.53232e-09

> <r_epik_Ionization_Penalty_Neutral>
1.01002e-08

> <r_epik_State_Penalty>
-0

> <r_epik_Charging_Adjusted_Penalty>
4.53232e-09

> <i_epik_Tot_Q>
0

> <i_epik_Tot_abs_Q>
0

> <r_epik_Metal_State_Penalty>
-0

> <b_epik_Metal_Only>
0

> <s_epik_Chemistry_Notes>
This compound has an imine and may undergo hydrolysis. This compound contains an acetal/aminal-like group ( X-CH(R)-Y where X, Y are N, S, or O) that may be acid/base labile, releasing an aldehyde.

> <s_lp_Force_Field>
OPLS_2005

> <r_lp_Energy>
49.9994

> <b_lp_Chiralities_Consistent>
1

> <s_lp_Variant>
AV-unprocessed.smi:24-4

> <Gold.Version>
5.8.1

> <Gold.Id.Protein>
6NUR|6NUR_protein|mol2

> <Gold.PLP.Fitness>
50.2649

> <Gold.PLP.PLP>
-46.1429

> <Gold.PLP.part.hbond>
-3.0000

> <Gold.PLP.part.metal>
0.0000

> <Gold.PLP.part.buried>
-5.7386

> <Gold.PLP.part.nonpolar>
-39.3682

> <Gold.PLP.part.repulsive>
1.3011

> <Gold.PLP.ligand.clash>
0.0000

> <Gold.PLP.ligand.torsion>
1.1648

> <Gold.PLP.Chemscore.Hbond>
2.1238

> <Gold.PLP.Chemscore.CHOScore>
0.0000

> <Gold.PLP.Chemscore.Metal>
0.0000

> <Gold.Chemscore.Hbonds>
donor molecule, donor type, donor heavy atom, donor atom, acceptor molecule, acceptor atom, score
      P1  H  6896  6907       L1    34  1.00
      P1  H  6896  6909       L1    19  0.07

> <Gold.PLP.Chemscore.Internal.Correction>
0.0805

> <Gold.Rescore>
     Score         DG    S(hbond)    S(metal)    S(lipo)     H(rot)  DE(clash)    DE(int)     intcor
     16.59     -19.23       1.94        0.00     105.24       1.98       0.35       2.29       ----

> <Gold.Chemscore.Fitness>
16.5903

> <Gold.Chemscore.DG>
-19.2288

> <Gold.Chemscore.ZeroCoef>
-5.4800

> <Gold.Chemscore.Hbond>
1.9437

> <Gold.Chemscore.Metal>
0.0000

> <Gold.Chemscore.Lipo>
105.2394

> <Gold.Chemscore.Internal_Hbond>
0.0000

> <Gold.Chemscore.DEClash>
0.3521

> <Gold.Chemscore.DEInternal>
2.2864

> <Gold.Chemscore.Rot>
1.9750

> <Gold.Chemscore.Internal.Correction>
   9.000000E+99

> <Gold.Chemscore.Hbonds>
donor molecule, donor type, donor heavy atom, donor atom, acceptor molecule, acceptor atom, score
      P1  H  6896  6907       L1    34  1.00
      P1  H  6896  6909       L1    19  0.04

> <Gold.Chemscore.Hbond.Weighted>
-6.4919

> <Gold.Chemscore.Metal.Weighted>
-0.0000

> <Gold.Chemscore.Lipo.Weighted>
-12.3130

> <Gold.Chemscore.Internal_Hbond.Weighted>
0.0000

> <Gold.Chemscore.DEClash.Weighted>
0.3521

> <Gold.Chemscore.DEInternal.Weighted>
2.2864

> <Gold.Chemscore.Rot.Weighted>
5.0561

> <Gold.Chemscore.Internal.Correction.Weighted>
   9.000000E+99

> <Gold.Protein.RotatedTorsions>
[ 6907 6896 6895 6894 ] final  -35.27 input  -60.11 | X-H torsion
[ 7974 7965 7964 7962 ] final   33.03 input  175.53 | X-H torsion
[ 8008 7997 7996 7995 ] final -170.10 input   59.86 | X-H torsion
[ 10167 10162 10161 10158 ] final   29.41 input  -65.29 | X-H torsion
[ 10718 10713 10712 10709 ] final   22.21 input   66.30 | X-H torsion
[ 10763 10752 10751 10750 ] final   28.53 input  -60.55 | X-H torsion
[ 11005 11000 10999 10996 ] final   15.05 input  -57.11 | X-H torsion

> <Gold.Protein.ActiveResidues>
 VAL166  LYS551  ARG553  GLY616  TRP617  ASP618  TYR619  PRO620  LYS621  CYS622 
 ASP623  PHE694  ASN695  SER759  ASP760  ASP761  ALA762  ILE779  LEU786  VAL792 
 PHE793  MET794  SER795  GLU796  ALA797  LYS798  CYS799  TRP800  GLU811  SER814 

> <Gold.Protein.RotatedAtoms>
  151.0419  134.9613  159.8165 H   0  0  0  0  0  0  0  0  0  0  0  0  # atno 6907 bound_to 6896
  152.5365  134.2647  159.8959 H   0  0  0  0  0  0  0  0  0  0  0  0  # atno 6908 bound_to 6896
  151.2660  133.4236  159.2652 H   0  0  0  0  0  0  0  0  0  0  0  0  # atno 6909 bound_to 6896
  146.1447  139.6449  142.9139 H   0  0  0  0  0  0  0  0  0  0  0  0  # atno 7974 bound_to 7965
  155.9138  140.1062  157.1259 H   0  0  0  0  0  0  0  0  0  0  0  0  # atno 8008 bound_to 7997
  154.4043  140.1269  156.4656 H   0  0  0  0  0  0  0  0  0  0  0  0  # atno 8009 bound_to 7997
  155.7278  140.3469  155.5048 H   0  0  0  0  0  0  0  0  0  0  0  0  # atno 8010 bound_to 7997
  140.4768  144.0678  150.6253 H   0  0  0  0  0  0  0  0  0  0  0  0  # atno 10167 bound_to 10162
  157.1492  130.6667  149.6006 H   0  0  0  0  0  0  0  0  0  0  0  0  # atno 10718 bound_to 10713
  153.0486  135.6511  154.0752 H   0  0  0  0  0  0  0  0  0  0  0  0  # atno 10763 bound_to 10752
  154.0445  135.2900  155.3351 H   0  0  0  0  0  0  0  0  0  0  0  0  # atno 10764 bound_to 10752
  154.6760  135.5338  153.8266 H   0  0  0  0  0  0  0  0  0  0  0  0  # atno 10765 bound_to 10752
  140.4627  134.1111  155.7719 H   0  0  0  0  0  0  0  0  0  0  0  0  # atno 11005 bound_to 11000
  145.4965  141.0438  143.2564 LP  0  0  0  0  0  0  0  0  0  0  0  0  # atno 17320 bound_to 7965
  144.7833  139.6480  143.7145 LP  0  0  0  0  0  0  0  0  0  0  0  0  # atno 17321 bound_to 7965
  140.3908  143.2753  152.0062 LP  0  0  0  0  0  0  0  0  0  0  0  0  # atno 17342 bound_to 10162
  139.4827  144.6078  151.7489 LP  0  0  0  0  0  0  0  0  0  0  0  0  # atno 17343 bound_to 10162
  155.9774  130.4750  150.6589 LP  0  0  0  0  0  0  0  0  0  0  0  0  # atno 17370 bound_to 10713
  157.4236  131.0840  151.1107 LP  0  0  0  0  0  0  0  0  0  0  0  0  # atno 17371 bound_to 10713
  141.1614  133.8786  157.1837 LP  0  0  0  0  0  0  0  0  0  0  0  0  # atno 17394 bound_to 11000
  139.9935  135.0055  157.0030 LP  0  0  0  0  0  0  0  0  0  0  0  0  # atno 17395 bound_to 11000

$$$$
