AV-unprocessed.smi:21|AV-procd|sdf|139|dock10
  -GOLD-   2262015343D 1   1.00000     0.00000
 Structure written by MMmdl.
 62 65  0  0  0  0  0  0  0  0  2 V2000
  144.0212  132.6243  150.4789 C   0  0  0  0  0  0  0  0  0  0  0  0
  144.1156  133.8986  151.0959 O   0  0  0  0  0  0  0  0  0  0  0  0
  145.3311  134.5813  150.8164 C   0  0  1  0  0  0  0  0  0  0  0  0
  145.1925  136.0218  151.2918 C   0  0  0  0  0  0  0  0  0  0  0  0
  145.5277  135.9453  152.7844 C   0  0  2  0  0  0  0  0  0  0  0  0
  145.9982  137.2839  153.3914 C   0  0  0  0  0  0  0  0  0  0  0  0
  145.5165  137.4840  154.7596 N   0  0  0  0  0  0  0  0  0  0  0  0
  144.0857  137.6725  154.9620 C   0  0  0  0  0  0  0  0  0  0  0  0
  146.3928  137.8904  155.7198 C   0  0  0  0  0  0  0  0  0  0  0  0
  146.7622  136.9873  156.6661 N   0  0  0  0  0  0  0  0  0  0  0  0
  147.6255  137.3206  157.6282 C   0  0  0  0  0  0  0  0  0  0  0  0
  148.2429  138.4849  157.8243 N   0  0  0  0  0  0  0  0  0  0  0  0
  147.8915  139.3991  156.8770 C   0  0  0  0  0  0  0  0  0  0  0  0
  146.9741  139.1928  155.8049 C   0  0  0  0  0  0  0  0  0  0  0  0
  146.8760  140.3583  155.0520 N   0  0  0  0  0  0  0  0  0  0  0  0
  147.6770  141.1991  155.6449 C   0  0  0  0  0  0  0  0  0  0  0  0
  148.3476  140.6996  156.7372 N   0  0  0  0  0  0  0  0  0  0  0  0
  149.3105  141.4155  157.5629 C   0  0  0  0  0  0  0  0  0  0  0  0
  150.6331  141.7830  156.8333 C   0  0  2  0  0  0  0  0  0  0  0  0
  151.2597  140.5738  156.0982 C   0  0  0  0  0  0  0  0  0  0  0  0
  150.5084  140.2311  154.9520 O   0  0  0  0  0  0  0  0  0  0  0  0
  151.6582  142.4568  157.7828 C   0  0  2  0  0  0  0  0  0  0  0  0
  151.9247  141.6926  159.0695 C   0  0  0  0  0  0  0  0  0  0  0  0
  152.5717  142.7562  159.9489 C   0  0  0  0  0  0  0  0  0  0  0  0
  151.9785  143.9889  159.5571 O   0  0  0  0  0  0  0  0  0  0  0  0
  151.2210  143.8054  158.3655 C   0  0  0  0  0  0  0  0  0  0  0  0
  146.5773  134.9046  152.8789 N   0  3  1  0  0  0  0  0  0  0  0  0
  146.5813  134.1616  154.1585 C   0  0  0  0  0  0  0  0  0  0  0  0
  146.4747  134.0318  151.6841 C   0  0  0  0  0  0  0  0  0  0  0  0
  145.5591  134.5448  149.7496 H   0  0  0  0  0  0  0  0  0  0  0  0
  144.6425  135.5872  153.3136 H   0  0  0  0  0  0  0  0  0  0  0  0
  143.0758  132.1567  150.7534 H   0  0  0  0  0  0  0  0  0  0  0  0
  144.8262  131.9596  150.7931 H   0  0  0  0  0  0  0  0  0  0  0  0
  144.0464  132.7128  149.3920 H   0  0  0  0  0  0  0  0  0  0  0  0
  145.9247  136.6441  150.7749 H   0  0  0  0  0  0  0  0  0  0  0  0
  144.2043  136.4396  151.0957 H   0  0  0  0  0  0  0  0  0  0  0  0
  147.0878  137.3010  153.4250 H   0  0  0  0  0  0  0  0  0  0  0  0
  145.7221  138.1132  152.7398 H   0  0  0  0  0  0  0  0  0  0  0  0
  143.7894  137.3663  155.9659 H   0  0  0  0  0  0  0  0  0  0  0  0
  143.5156  137.0707  154.2538 H   0  0  0  0  0  0  0  0  0  0  0  0
  143.8081  138.7165  154.8146 H   0  0  0  0  0  0  0  0  0  0  0  0
  147.8576  136.5426  158.3408 H   0  0  0  0  0  0  0  0  0  0  0  0
  147.8129  142.2104  155.2893 H   0  0  0  0  0  0  0  0  0  0  0  0
  148.8267  142.3236  157.9237 H   0  0  0  0  0  0  0  0  0  0  0  0
  149.5099  140.8234  158.4557 H   0  0  0  0  0  0  0  0  0  0  0  0
  150.3771  142.5193  156.0698 H   0  0  0  0  0  0  0  0  0  0  0  0
  152.2681  140.8060  155.7571 H   0  0  0  0  0  0  0  0  0  0  0  0
  151.3438  139.7075  156.7543 H   0  0  0  0  0  0  0  0  0  0  0  0
  149.6140  140.5060  155.0856 H   0  0  0  0  0  0  0  0  0  0  0  0
  152.6023  142.6097  157.2583 H   0  0  0  0  0  0  0  0  0  0  0  0
  150.9862  141.3613  159.5168 H   0  0  0  0  0  0  0  0  0  0  0  0
  152.5620  140.8189  158.9414 H   0  0  0  0  0  0  0  0  0  0  0  0
  152.4275  142.5624  161.0119 H   0  0  0  0  0  0  0  0  0  0  0  0
  153.6437  142.8084  159.7548 H   0  0  0  0  0  0  0  0  0  0  0  0
  151.3820  144.6324  157.6736 H   0  0  0  0  0  0  0  0  0  0  0  0
  150.1631  143.7876  158.6318 H   0  0  0  0  0  0  0  0  0  0  0  0
  145.6515  133.6072  154.2937 H   0  0  0  0  0  0  0  0  0  0  0  0
  146.7002  134.8422  155.0018 H   0  0  0  0  0  0  0  0  0  0  0  0
  147.4088  133.4520  154.1830 H   0  0  0  0  0  0  0  0  0  0  0  0
  146.3307  132.9821  151.9436 H   0  0  0  0  0  0  0  0  0  0  0  0
  147.4195  134.1011  151.1439 H   0  0  0  0  0  0  0  0  0  0  0  0
  147.4645  135.3817  152.8031 H   0  0  0  0  0  0  0  0  0  0  0  0
  1  2  1  0  0  0  0
  1 32  1  0  0  0  0
  1 33  1  0  0  0  0
  1 34  1  0  0  0  0
  2  3  1  0  0  0  0
  3 30  1  0  0  0  0
  3 29  1  0  0  0  0
  3  4  1  0  0  0  0
  4  5  1  0  0  0  0
  4 35  1  0  0  0  0
  4 36  1  0  0  0  0
  5 31  1  0  0  0  0
  5  6  1  0  0  0  0
  5 27  1  0  0  0  0
  6  7  1  0  0  0  0
  6 37  1  0  0  0  0
  6 38  1  0  0  0  0
  7  8  1  0  0  0  0
  7  9  1  0  0  0  0
  8 39  1  0  0  0  0
  8 40  1  0  0  0  0
  8 41  1  0  0  0  0
  9 14  1  0  0  0  0
  9 10  2  0  0  0  0
 10 11  1  0  0  0  0
 11 12  2  0  0  0  0
 11 42  1  0  0  0  0
 12 13  1  0  0  0  0
 13 17  1  0  0  0  0
 13 14  2  0  0  0  0
 14 15  1  0  0  0  0
 15 16  2  0  0  0  0
 16 17  1  0  0  0  0
 16 43  1  0  0  0  0
 17 18  1  0  0  0  0
 18 19  1  0  0  0  0
 18 44  1  0  0  0  0
 18 45  1  0  0  0  0
 19 20  1  0  0  0  0
 19 22  1  0  0  0  0
 19 46  1  0  0  0  0
 20 21  1  0  0  0  0
 20 47  1  0  0  0  0
 20 48  1  0  0  0  0
 21 49  1  0  0  0  0
 22 26  1  0  0  0  0
 22 23  1  0  0  0  0
 22 50  1  0  0  0  0
 23 24  1  0  0  0  0
 23 51  1  0  0  0  0
 23 52  1  0  0  0  0
 24 25  1  0  0  0  0
 24 53  1  0  0  0  0
 24 54  1  0  0  0  0
 25 26  1  0  0  0  0
 26 55  1  0  0  0  0
 26 56  1  0  0  0  0
 27 28  1  0  0  0  0
 27 29  1  0  0  0  0
 27 62  1  0  0  0  0
 28 57  1  0  0  0  0
 28 58  1  0  0  0  0
 28 59  1  0  0  0  0
 29 60  1  0  0  0  0
 29 61  1  0  0  0  0
M  CHG  1  27   1
M  END
> <s_m_source_file>
AV-unprocessed.smi

> <i_m_source_file_index>
21

> <i_lp_mmshare_version>
43012

> <i_f3d_flags>
0

> <s_epik_input>
W0NIM11PW0NASF0xW0NIMl1bQ0BIXShOKFtDSDNdKVtDSDJdMSlbQ0gyXU4oW0NIM10pYyhuW2NIXW4yKWMoYzIzKW5bY0hdbjNbQ0gyXVtDQEhdKFtDSDJdW09IXSlbQ0BASF00W0NIMl1bQ0gyXU9bQ0gyXTQ=

> <s_epik_cmdline>
J2VwaWtfcHl0aG9uJywgJy1waCcsICc3LjAnLCAnLXRuJywgJzgnLCAnLW1hJywgJzIwMCcsICctbWV0YWxfYmluZGluZycsICctaW1hZScsICc8aW5maWxlLm1hZT4nLCAnLW9tYWUnLCAnPG91dGZpbGUubWFlPic=

> <r_lp_tautomer_probability>
1

> <r_epik_Ionization_Penalty>
0.0157465

> <r_epik_Ionization_Penalty_Charging>
0.015354

> <r_epik_Ionization_Penalty_Neutral>
0.000392529

> <r_epik_State_Penalty>
0.0120612

> <r_epik_Charging_Adjusted_Penalty>
0.0274152

> <i_epik_Tot_Q>
1

> <i_epik_Tot_abs_Q>
1

> <r_epik_Metal_State_Penalty>
0.0121253

> <b_epik_Metal_Only>
0

> <s_lp_Force_Field>
OPLS_2005

> <r_lp_Energy>
57.752

> <b_lp_Chiralities_Consistent>
1

> <s_lp_Variant>
AV-unprocessed.smi:21-19

> <Gold.Version>
5.8.1

> <Gold.Id.Protein>
6NUR|6NUR_protein|mol2

> <Gold.PLP.Fitness>
46.2670

> <Gold.PLP.PLP>
-38.6201

> <Gold.PLP.part.hbond>
-2.0000

> <Gold.PLP.part.metal>
0.0000

> <Gold.PLP.part.buried>
-6.4860

> <Gold.PLP.part.nonpolar>
-29.9479

> <Gold.PLP.part.repulsive>
0.2870

> <Gold.PLP.ligand.clash>
0.0000

> <Gold.PLP.ligand.torsion>
2.4479

> <Gold.PLP.Chemscore.Hbond>
3.0000

> <Gold.PLP.Chemscore.CHOScore>
1.0000

> <Gold.PLP.Chemscore.Metal>
0.0000

> <Gold.Chemscore.Hbonds>
donor molecule, donor type, donor heavy atom, donor atom, acceptor molecule, acceptor atom, score
      L1  H    27    62       P1  7948  2.00
      P1  H  7989  7998       L1    21  1.00
      L1  C    16    43       P1  8028  0.50

> <Gold.PLP.Chemscore.Internal.Correction>
0.5427

> <Gold.Rescore>
     Score         DG    S(hbond)    S(metal)    S(lipo)     H(rot)  DE(clash)    DE(int)     intcor
     11.35     -15.44       1.88        0.00      98.85       3.08       0.00       4.08       ----

> <Gold.Chemscore.Fitness>
11.3543

> <Gold.Chemscore.DG>
-15.4437

> <Gold.Chemscore.ZeroCoef>
-5.4800

> <Gold.Chemscore.Hbond>
1.8781

> <Gold.Chemscore.Metal>
0.0000

> <Gold.Chemscore.Lipo>
98.8460

> <Gold.Chemscore.Internal_Hbond>
0.0000

> <Gold.Chemscore.DEClash>
0.0048

> <Gold.Chemscore.DEInternal>
4.0846

> <Gold.Chemscore.Rot>
3.0758

> <Gold.Chemscore.Internal.Correction>
   9.000000E+99

> <Gold.Chemscore.Hbonds>
donor molecule, donor type, donor heavy atom, donor atom, acceptor molecule, acceptor atom, score
      L1  H    27    62       P1  7948  0.97
      P1  H  7989  7998       L1    21  0.39

> <Gold.Chemscore.Hbond.Weighted>
-6.2729

> <Gold.Chemscore.Metal.Weighted>
-0.0000

> <Gold.Chemscore.Lipo.Weighted>
-11.5650

> <Gold.Chemscore.Internal_Hbond.Weighted>
0.0000

> <Gold.Chemscore.DEClash.Weighted>
0.0048

> <Gold.Chemscore.DEInternal.Weighted>
4.0846

> <Gold.Chemscore.Rot.Weighted>
7.8741

> <Gold.Chemscore.Internal.Correction.Weighted>
   9.000000E+99

> <Gold.Protein.RotatedTorsions>
[ 6907 6896 6895 6894 ] final -121.85 input  -60.11 | X-H torsion
[ 7974 7965 7964 7962 ] final  136.70 input  175.53 | X-H torsion
[ 8008 7997 7996 7995 ] final -154.58 input   59.86 | X-H torsion
[ 10167 10162 10161 10158 ] final  125.32 input  -65.29 | X-H torsion
[ 10718 10713 10712 10709 ] final  120.28 input   66.30 | X-H torsion
[ 10763 10752 10751 10750 ] final  146.98 input  -60.55 | X-H torsion
[ 11005 11000 10999 10996 ] final  132.11 input  -57.11 | X-H torsion

> <Gold.Protein.ActiveResidues>
 VAL166  LYS551  ARG553  GLY616  TRP617  ASP618  TYR619  PRO620  LYS621  CYS622 
 ASP623  PHE694  ASN695  SER759  ASP760  ASP761  ALA762  ILE779  LEU786  VAL792 
 PHE793  MET794  SER795  GLU796  ALA797  LYS798  CYS799  TRP800  GLU811  SER814 

> <Gold.Protein.RotatedAtoms>
  150.8521  133.7771  159.3021 H   0  0  0  0  0  0  0  0  0  0  0  0  # atno 6907 bound_to 6896
  151.5440  135.1066  159.9943 H   0  0  0  0  0  0  0  0  0  0  0  0  # atno 6908 bound_to 6896
  152.4561  133.7682  159.6840 H   0  0  0  0  0  0  0  0  0  0  0  0  # atno 6909 bound_to 6896
  144.9539  139.4786  143.5512 H   0  0  0  0  0  0  0  0  0  0  0  0  # atno 7974 bound_to 7965
  155.6885  140.0752  157.2457 H   0  0  0  0  0  0  0  0  0  0  0  0  # atno 8008 bound_to 7997
  154.4093  140.1669  156.2113 H   0  0  0  0  0  0  0  0  0  0  0  0  # atno 8009 bound_to 7997
  155.9472  140.3380  155.6380 H   0  0  0  0  0  0  0  0  0  0  0  0  # atno 8010 bound_to 7997
  139.5692  144.6929  151.3825 H   0  0  0  0  0  0  0  0  0  0  0  0  # atno 10167 bound_to 10162
  157.5902  131.1065  150.8013 H   0  0  0  0  0  0  0  0  0  0  0  0  # atno 10718 bound_to 10713
  154.0308  135.2898  155.3368 H   0  0  0  0  0  0  0  0  0  0  0  0  # atno 10763 bound_to 10752
  154.6989  135.5196  153.8501 H   0  0  0  0  0  0  0  0  0  0  0  0  # atno 10764 bound_to 10752
  153.0641  135.6624  154.0521 H   0  0  0  0  0  0  0  0  0  0  0  0  # atno 10765 bound_to 10752
  139.9770  134.9560  156.9535 H   0  0  0  0  0  0  0  0  0  0  0  0  # atno 11005 bound_to 11000
  146.3330  139.8644  142.8851 LP  0  0  0  0  0  0  0  0  0  0  0  0  # atno 17320 bound_to 7965
  145.2801  141.0136  143.3722 LP  0  0  0  0  0  0  0  0  0  0  0  0  # atno 17321 bound_to 7965
  140.6976  143.7710  150.7352 LP  0  0  0  0  0  0  0  0  0  0  0  0  # atno 17342 bound_to 10162
  140.1211  143.4611  152.2312 LP  0  0  0  0  0  0  0  0  0  0  0  0  # atno 17343 bound_to 10162
  156.8437  130.5057  149.5318 LP  0  0  0  0  0  0  0  0  0  0  0  0  # atno 17370 bound_to 10713
  156.0956  130.5929  150.9807 LP  0  0  0  0  0  0  0  0  0  0  0  0  # atno 17371 bound_to 10713
  140.5174  134.0941  155.7284 LP  0  0  0  0  0  0  0  0  0  0  0  0  # atno 17394 bound_to 11000
  141.1446  133.9077  157.2245 LP  0  0  0  0  0  0  0  0  0  0  0  0  # atno 17395 bound_to 11000

$$$$
