AV-unprocessed.smi:46|AV-procd|sdf|421|dock3
  -GOLD-   2262016303D 1   1.00000     0.00000
 Structure written by MMmdl.
 35 36  0  0  0  0  0  0  0  0  2 V2000
  152.2333  143.4323  160.3356 C   0  0  0  0  0  0  0  0  0  0  0  0
  152.5534  143.4214  158.8328 C   0  0  0  0  0  0  0  0  0  0  0  0
  152.1973  144.7539  158.1578 C   0  0  0  0  0  0  0  0  0  0  0  0
  151.8880  142.3132  158.1644 N   0  0  0  0  0  0  0  0  0  0  0  0
  151.0211  142.3450  157.0919 C   0  0  0  0  0  0  0  0  0  0  0  0
  150.6626  141.0559  156.8056 C   0  0  0  0  0  0  0  0  0  0  0  0
  149.7260  140.5176  155.7438 C   0  0  2  0  0  0  0  0  0  0  0  0
  149.3889  141.5473  154.6591 C   0  0  0  0  0  0  0  0  0  0  0  0
  148.2278  142.3073  155.1571 N   0  3  0  0  0  0  0  0  0  0  0  0
  147.5674  141.5043  156.2058 C   0  0  0  0  0  0  0  0  0  0  0  0
  148.3267  140.1702  156.2877 C   0  0  2  0  0  0  0  0  0  0  0  0
  148.2572  139.5137  157.6811 C   0  0  0  0  0  0  0  0  0  0  0  0
  146.9116  139.3767  158.0851 O   0  0  0  0  0  0  0  0  0  0  0  0
  151.3905  140.2977  157.7666 C   0  0  0  0  0  0  0  0  0  0  0  0
  152.1213  141.0485  158.5724 N   0  0  0  0  0  0  0  0  0  0  0  0
  150.1704  139.6347  155.2821 H   0  0  0  0  0  0  0  0  0  0  0  0
  147.8567  139.4965  155.5684 H   0  0  0  0  0  0  0  0  0  0  0  0
  152.7858  144.2218  160.8456 H   0  0  0  0  0  0  0  0  0  0  0  0
  152.5078  142.4855  160.8016 H   0  0  0  0  0  0  0  0  0  0  0  0
  151.1719  143.6009  160.5201 H   0  0  0  0  0  0  0  0  0  0  0  0
  153.6303  143.2752  158.7295 H   0  0  0  0  0  0  0  0  0  0  0  0
  152.7370  145.5816  158.6186 H   0  0  0  0  0  0  0  0  0  0  0  0
  151.1310  144.9685  158.2346 H   0  0  0  0  0  0  0  0  0  0  0  0
  152.4597  144.7389  157.0994 H   0  0  0  0  0  0  0  0  0  0  0  0
  150.7304  143.2765  156.6295 H   0  0  0  0  0  0  0  0  0  0  0  0
  150.2271  142.1926  154.3937 H   0  0  0  0  0  0  0  0  0  0  0  0
  149.0731  141.0287  153.7528 H   0  0  0  0  0  0  0  0  0  0  0  0
  148.5467  143.1736  155.5668 H   0  0  0  0  0  0  0  0  0  0  0  0
  147.6361  142.0519  157.1466 H   0  0  0  0  0  0  0  0  0  0  0  0
  146.5106  141.3574  155.9813 H   0  0  0  0  0  0  0  0  0  0  0  0
  148.7447  138.5384  157.6973 H   0  0  0  0  0  0  0  0  0  0  0  0
  148.7728  140.1359  158.4133 H   0  0  0  0  0  0  0  0  0  0  0  0
  146.8497  139.5811  159.0061 H   0  0  0  0  0  0  0  0  0  0  0  0
  151.4041  139.2265  157.9039 H   0  0  0  0  0  0  0  0  0  0  0  0
  147.5895  142.5042  154.3995 H   0  0  0  0  0  0  0  0  0  0  0  0
  1  2  1  0  0  0  0
  1 18  1  0  0  0  0
  1 19  1  0  0  0  0
  1 20  1  0  0  0  0
  2  3  1  0  0  0  0
  2  4  1  0  0  0  0
  2 21  1  0  0  0  0
  3 22  1  0  0  0  0
  3 23  1  0  0  0  0
  3 24  1  0  0  0  0
  4 15  1  0  0  0  0
  4  5  1  0  0  0  0
  5  6  2  0  0  0  0
  5 25  1  0  0  0  0
  6  7  1  0  0  0  0
  6 14  1  0  0  0  0
  7 16  1  0  0  0  0
  7 11  1  0  0  0  0
  7  8  1  0  0  0  0
  8  9  1  0  0  0  0
  8 26  1  0  0  0  0
  8 27  1  0  0  0  0
  9 10  1  0  0  0  0
  9 28  1  0  0  0  0
  9 35  1  0  0  0  0
 10 11  1  0  0  0  0
 10 29  1  0  0  0  0
 10 30  1  0  0  0  0
 11 17  1  0  0  0  0
 11 12  1  0  0  0  0
 12 13  1  0  0  0  0
 12 31  1  0  0  0  0
 12 32  1  0  0  0  0
 13 33  1  0  0  0  0
 14 15  2  0  0  0  0
 14 34  1  0  0  0  0
M  CHG  1   9   1
M  END
> <s_m_source_file>
AV-unprocessed.smi

> <i_m_source_file_index>
46

> <i_lp_mmshare_version>
43012

> <i_f3d_flags>
0

> <s_epik_input>
W0NIM11bQ0hdKFtDSDNdKW4xW2NIXWMoW2NIXW4xKVtDQEBIXTJbQ0gyXVtOSF1bQ0gyXVtDQEhdMltDSDJdW09IXQ==

> <s_epik_cmdline>
J2VwaWtfcHl0aG9uJywgJy1waCcsICc3LjAnLCAnLXRuJywgJzgnLCAnLW1hJywgJzIwMCcsICctbWV0YWxfYmluZGluZycsICctaW1hZScsICc8aW5maWxlLm1hZT4nLCAnLW9tYWUnLCAnPG91dGZpbGUubWFlPic=

> <r_lp_tautomer_probability>
1

> <r_epik_Ionization_Penalty>
0.000236226

> <r_epik_Ionization_Penalty_Charging>
0.00021985

> <r_epik_Ionization_Penalty_Neutral>
1.63752e-05

> <r_epik_State_Penalty>
-0

> <r_epik_Charging_Adjusted_Penalty>
0.00021985

> <i_epik_Tot_Q>
1

> <i_epik_Tot_abs_Q>
1

> <r_epik_Metal_State_Penalty>
-0

> <b_epik_Metal_Only>
0

> <s_lp_Force_Field>
OPLS_2005

> <r_lp_Energy>
33.6612

> <b_lp_Chiralities_Consistent>
1

> <s_lp_Variant>
AV-unprocessed.smi:46-3

> <Gold.Version>
5.8.1

> <Gold.Id.Protein>
6NUR|6NUR_protein|mol2

> <Gold.PLP.Fitness>
37.2840

> <Gold.PLP.PLP>
-29.2184

> <Gold.PLP.part.hbond>
-2.0000

> <Gold.PLP.part.metal>
0.0000

> <Gold.PLP.part.buried>
-3.3153

> <Gold.PLP.part.nonpolar>
-23.6540

> <Gold.PLP.part.repulsive>
0.1478

> <Gold.PLP.ligand.clash>
0.0000

> <Gold.PLP.ligand.torsion>
0.4960

> <Gold.PLP.Chemscore.Hbond>
2.0000

> <Gold.PLP.Chemscore.CHOScore>
1.0000

> <Gold.PLP.Chemscore.Metal>
0.0000

> <Gold.Chemscore.Hbonds>
donor molecule, donor type, donor heavy atom, donor atom, acceptor molecule, acceptor atom, score
      L1  H     9    28       P1  8028  2.00
      L1  C     5    25       P1  8028  1.00

> <Gold.PLP.Chemscore.Internal.Correction>
0.0577

> <Gold.Rescore>
     Score         DG    S(hbond)    S(metal)    S(lipo)     H(rot)  DE(clash)    DE(int)     intcor
     12.92     -13.17       0.98        0.00      79.16       1.90       0.08       0.18       ----

> <Gold.Chemscore.Fitness>
12.9172

> <Gold.Chemscore.DG>
-13.1705

> <Gold.Chemscore.ZeroCoef>
-5.4800

> <Gold.Chemscore.Hbond>
0.9841

> <Gold.Chemscore.Metal>
0.0000

> <Gold.Chemscore.Lipo>
79.1582

> <Gold.Chemscore.Internal_Hbond>
0.0000

> <Gold.Chemscore.DEClash>
0.0781

> <Gold.Chemscore.DEInternal>
0.1752

> <Gold.Chemscore.Rot>
1.8976

> <Gold.Chemscore.Internal.Correction>
   9.000000E+99

> <Gold.Chemscore.Hbonds>
donor molecule, donor type, donor heavy atom, donor atom, acceptor molecule, acceptor atom, score
      L1  H     9    28       P1  8028  0.96

> <Gold.Chemscore.Hbond.Weighted>
-3.2869

> <Gold.Chemscore.Metal.Weighted>
-0.0000

> <Gold.Chemscore.Lipo.Weighted>
-9.2615

> <Gold.Chemscore.Internal_Hbond.Weighted>
0.0000

> <Gold.Chemscore.DEClash.Weighted>
0.0781

> <Gold.Chemscore.DEInternal.Weighted>
0.1752

> <Gold.Chemscore.Rot.Weighted>
4.8579

> <Gold.Chemscore.Internal.Correction.Weighted>
   9.000000E+99

> <Gold.Protein.RotatedTorsions>
[ 6907 6896 6895 6894 ] final   86.23 input  -60.11 | X-H torsion
[ 7974 7965 7964 7962 ] final  147.30 input  175.53 | X-H torsion
[ 8008 7997 7996 7995 ] final -109.96 input   59.86 | X-H torsion
[ 10167 10162 10161 10158 ] final -127.68 input  -65.29 | X-H torsion
[ 10718 10713 10712 10709 ] final -126.49 input   66.30 | X-H torsion
[ 10763 10752 10751 10750 ] final  117.95 input  -60.55 | X-H torsion
[ 11005 11000 10999 10996 ] final   44.05 input  -57.11 | X-H torsion

> <Gold.Protein.ActiveResidues>
 VAL166  LYS551  ARG553  GLY616  TRP617  ASP618  TYR619  PRO620  LYS621  CYS622 
 ASP623  PHE694  ASN695  SER759  ASP760  ASP761  ALA762  ILE779  LEU786  VAL792 
 PHE793  MET794  SER795  GLU796  ALA797  LYS798  CYS799  TRP800  GLU811  SER814 

> <Gold.Protein.RotatedAtoms>
  152.5390  134.2463  159.8881 H   0  0  0  0  0  0  0  0  0  0  0  0  # atno 6907 bound_to 6896
  151.2428  133.4384  159.2615 H   0  0  0  0  0  0  0  0  0  0  0  0  # atno 6908 bound_to 6896
  151.0610  134.9751  159.8317 H   0  0  0  0  0  0  0  0  0  0  0  0  # atno 6909 bound_to 6896
  144.8602  139.6011  143.5934 H   0  0  0  0  0  0  0  0  0  0  0  0  # atno 7974 bound_to 7965
  154.9673  140.0398  157.2218 H   0  0  0  0  0  0  0  0  0  0  0  0  # atno 8008 bound_to 7997
  154.7833  140.2822  155.6024 H   0  0  0  0  0  0  0  0  0  0  0  0  # atno 8009 bound_to 7997
  156.2939  140.2587  156.2664 H   0  0  0  0  0  0  0  0  0  0  0  0  # atno 8010 bound_to 7997
  139.9583  143.5979  152.2453 H   0  0  0  0  0  0  0  0  0  0  0  0  # atno 10167 bound_to 10162
  156.1770  130.6706  151.0255 H   0  0  0  0  0  0  0  0  0  0  0  0  # atno 10718 bound_to 10713
  153.5602  135.3522  155.2796 H   0  0  0  0  0  0  0  0  0  0  0  0  # atno 10763 bound_to 10752
  154.8696  135.4135  154.2839 H   0  0  0  0  0  0  0  0  0  0  0  0  # atno 10764 bound_to 10752
  153.3584  135.7058  153.6801 H   0  0  0  0  0  0  0  0  0  0  0  0  # atno 10765 bound_to 10752
  140.1588  134.4367  155.8331 H   0  0  0  0  0  0  0  0  0  0  0  0  # atno 11005 bound_to 11000
  146.2855  139.6992  142.9199 LP  0  0  0  0  0  0  0  0  0  0  0  0  # atno 17320 bound_to 7965
  145.4326  141.0416  143.2902 LP  0  0  0  0  0  0  0  0  0  0  0  0  # atno 17321 bound_to 7965
  139.6574  144.7662  151.2029 LP  0  0  0  0  0  0  0  0  0  0  0  0  # atno 17342 bound_to 10162
  140.7561  143.6064  150.8649 LP  0  0  0  0  0  0  0  0  0  0  0  0  # atno 17343 bound_to 10162
  157.6842  131.0829  150.7287 LP  0  0  0  0  0  0  0  0  0  0  0  0  # atno 17370 bound_to 10713
  156.7345  130.4720  149.5492 LP  0  0  0  0  0  0  0  0  0  0  0  0  # atno 17371 bound_to 10713
  141.2207  133.6904  156.7556 LP  0  0  0  0  0  0  0  0  0  0  0  0  # atno 17394 bound_to 11000
  140.2515  134.8537  157.3671 LP  0  0  0  0  0  0  0  0  0  0  0  0  # atno 17395 bound_to 11000

$$$$
