AV-unprocessed.smi:2822|AV-procd|sdf|10879|dock4
  -GOLD-   2272015323D 1   1.00000     0.00000
 Structure written by MMmdl.
 40 42  0  0  0  0  0  0  0  0  2 V2000
  147.1634  142.3938  154.2821 Cl  0  0  0  0  0  0  0  0  0  0  0  0
  148.2472  141.0486  154.2057 C   0  0  0  0  0  0  0  0  0  0  0  0
  147.9090  139.9368  153.4069 C   0  0  0  0  0  0  0  0  0  0  0  0
  148.7429  138.8777  153.3344 N   0  3  0  0  0  0  0  0  0  0  0  0
  149.9136  138.8249  154.0042 C   0  0  0  0  0  0  0  0  0  0  0  0
  150.3066  139.9054  154.8196 C   0  0  0  0  0  0  0  0  0  0  0  0
  149.4663  141.0419  154.9282 C   0  0  0  0  0  0  0  0  0  0  0  0
  149.8005  142.1482  155.7241 N   0  0  0  0  0  0  0  0  0  0  0  0
  151.0970  142.2418  156.3780 C   0  0  0  0  0  0  0  0  0  0  0  0
  150.9580  142.6830  157.8411 C   0  0  1  0  0  0  0  0  0  0  0  0
  152.0645  142.0806  158.7265 C   0  0  0  0  0  0  0  0  0  0  0  0
  151.9762  142.5536  160.1019 N   0  0  0  0  0  0  0  0  0  0  0  0
  153.0328  141.9772  160.9317 C   0  0  0  0  0  0  0  0  0  0  0  0
  152.9411  142.4323  162.3967 C   0  0  0  0  0  0  0  0  0  0  0  0
  152.9728  143.9650  162.4823 C   0  0  0  0  0  0  0  0  0  0  0  0
  151.8971  144.5684  161.5655 C   0  0  0  0  0  0  0  0  0  0  0  0
  152.0235  144.0188  160.1294 C   0  0  2  0  0  0  0  0  0  0  0  0
  150.9342  144.6205  159.2179 C   0  0  0  0  0  0  0  0  0  0  0  0
  151.0649  144.1032  157.8974 O   0  0  0  0  0  0  0  0  0  0  0  0
  147.0005  139.8638  152.8269 H   0  0  0  0  0  0  0  0  0  0  0  0
  150.4972  137.9257  153.8701 H   0  0  0  0  0  0  0  0  0  0  0  0
  151.2451  139.8436  155.3500 H   0  0  0  0  0  0  0  0  0  0  0  0
  149.2258  142.9787  155.6826 H   0  0  0  0  0  0  0  0  0  0  0  0
  151.5732  141.2613  156.3410 H   0  0  0  0  0  0  0  0  0  0  0  0
  151.7387  142.9371  155.8352 H   0  0  0  0  0  0  0  0  0  0  0  0
  149.9826  142.3744  158.2228 H   0  0  0  0  0  0  0  0  0  0  0  0
  151.9925  140.9925  158.7081 H   0  0  0  0  0  0  0  0  0  0  0  0
  153.0409  142.3352  158.3109 H   0  0  0  0  0  0  0  0  0  0  0  0
  152.9743  140.8888  160.8936 H   0  0  0  0  0  0  0  0  0  0  0  0
  154.0098  142.2481  160.5285 H   0  0  0  0  0  0  0  0  0  0  0  0
  152.0179  142.0567  162.8402 H   0  0  0  0  0  0  0  0  0  0  0  0
  153.7616  142.0065  162.9747 H   0  0  0  0  0  0  0  0  0  0  0  0
  152.8211  144.2912  163.5116 H   0  0  0  0  0  0  0  0  0  0  0  0
  153.9560  144.3276  162.1800 H   0  0  0  0  0  0  0  0  0  0  0  0
  150.9082  144.3366  161.9636 H   0  0  0  0  0  0  0  0  0  0  0  0
  151.9842  145.6554  161.5629 H   0  0  0  0  0  0  0  0  0  0  0  0
  152.9903  144.3396  159.7370 H   0  0  0  0  0  0  0  0  0  0  0  0
  149.9373  144.3974  159.6015 H   0  0  0  0  0  0  0  0  0  0  0  0
  151.0258  145.7061  159.1791 H   0  0  0  0  0  0  0  0  0  0  0  0
  148.4768  138.0849  152.7497 H   0  0  0  0  0  0  0  0  0  0  0  0
  1  2  1  0  0  0  0
  2  7  1  0  0  0  0
  2  3  2  0  0  0  0
  3  4  1  0  0  0  0
  3 20  1  0  0  0  0
  4  5  2  0  0  0  0
  4 40  1  0  0  0  0
  5  6  1  0  0  0  0
  5 21  1  0  0  0  0
  6  7  2  0  0  0  0
  6 22  1  0  0  0  0
  7  8  1  0  0  0  0
  8  9  1  0  0  0  0
  8 23  1  0  0  0  0
  9 10  1  0  0  0  0
  9 24  1  0  0  0  0
  9 25  1  0  0  0  0
 10 19  1  0  0  0  0
 10 11  1  0  0  0  0
 10 26  1  0  0  0  0
 11 12  1  0  0  0  0
 11 27  1  0  0  0  0
 11 28  1  0  0  0  0
 12 17  1  0  0  0  0
 12 13  1  0  0  0  0
 13 14  1  0  0  0  0
 13 29  1  0  0  0  0
 13 30  1  0  0  0  0
 14 15  1  0  0  0  0
 14 31  1  0  0  0  0
 14 32  1  0  0  0  0
 15 16  1  0  0  0  0
 15 33  1  0  0  0  0
 15 34  1  0  0  0  0
 16 17  1  0  0  0  0
 16 35  1  0  0  0  0
 16 36  1  0  0  0  0
 17 18  1  0  0  0  0
 17 37  1  0  0  0  0
 18 19  1  0  0  0  0
 18 38  1  0  0  0  0
 18 39  1  0  0  0  0
M  CHG  1   4   1
M  END
> <s_m_source_file>
AV-unprocessed.smi

> <i_m_source_file_index>
2822

> <i_lp_mmshare_version>
43012

> <i_f3d_flags>
0

> <s_epik_input>
Q2xjMVtjSF1uW2NIXVtjSF1jMVtOSF1bQ0gyXVtDQEhdKFtDSDJdMilPW0NIMl1bQ0BASF0oTjIzKVtDSDJdW0NIMl1bQ0gyXVtDSDJdMw==

> <s_epik_cmdline>
J2VwaWtfcHl0aG9uJywgJy1waCcsICc3LjAnLCAnLXRuJywgJzgnLCAnLW1hJywgJzIwMCcsICctbWV0YWxfYmluZGluZycsICctaW1hZScsICc8aW5maWxlLm1hZT4nLCAnLW9tYWUnLCAnPG91dGZpbGUubWFlPic=

> <r_epik_Ionization_Penalty>
1.37653

> <r_epik_Ionization_Penalty_Charging>
0.152973

> <r_epik_Ionization_Penalty_Neutral>
1.22356

> <r_epik_State_Penalty>
1.42693

> <r_epik_Charging_Adjusted_Penalty>
1.5799

> <i_epik_Tot_Q>
1

> <i_epik_Tot_abs_Q>
1

> <r_epik_Metal_State_Penalty>
4.59822

> <b_epik_Metal_Only>
0

> <s_lp_Force_Field>
OPLS_2005

> <r_lp_Energy>
43.1838

> <b_lp_Chiralities_Consistent>
1

> <s_lp_Variant>
AV-unprocessed.smi:2822-20

> <Gold.Version>
5.8.1

> <Gold.Id.Protein>
6NUR|6NUR_protein|mol2

> <Gold.PLP.Fitness>
52.6655

> <Gold.PLP.PLP>
-44.6738

> <Gold.PLP.part.hbond>
-3.0000

> <Gold.PLP.part.metal>
0.0000

> <Gold.PLP.part.buried>
-2.5217

> <Gold.PLP.part.nonpolar>
-38.8404

> <Gold.PLP.part.repulsive>
0.3829

> <Gold.PLP.ligand.clash>
0.0000

> <Gold.PLP.ligand.torsion>
0.5045

> <Gold.PLP.Chemscore.Hbond>
3.0000

> <Gold.PLP.Chemscore.CHOScore>
0.0000

> <Gold.PLP.Chemscore.Metal>
0.0000

> <Gold.Chemscore.Hbonds>
donor molecule, donor type, donor heavy atom, donor atom, acceptor molecule, acceptor atom, score
      L1  H     4    40       P1  7948  1.71
      L1  H     8    23       P1  8028  1.00

> <Gold.PLP.Chemscore.Internal.Correction>
0.0006

> <Gold.Rescore>
     Score         DG    S(hbond)    S(metal)    S(lipo)     H(rot)  DE(clash)    DE(int)     intcor
     21.56     -23.86       1.74        0.00     133.34       1.18       1.77       0.53       ----

> <Gold.Chemscore.Fitness>
21.5643

> <Gold.Chemscore.DG>
-23.8644

> <Gold.Chemscore.ZeroCoef>
-5.4800

> <Gold.Chemscore.Hbond>
1.7370

> <Gold.Chemscore.Metal>
0.0000

> <Gold.Chemscore.Lipo>
133.3382

> <Gold.Chemscore.Internal_Hbond>
0.0000

> <Gold.Chemscore.DEClash>
1.7733

> <Gold.Chemscore.DEInternal>
0.5268

> <Gold.Chemscore.Rot>
1.1788

> <Gold.Chemscore.Internal.Correction>
   9.000000E+99

> <Gold.Chemscore.Hbonds>
donor molecule, donor type, donor heavy atom, donor atom, acceptor molecule, acceptor atom, score
      L1  H     4    40       P1  7948  0.78
      L1  H     8    23       P1  8028  0.99

> <Gold.Chemscore.Hbond.Weighted>
-5.8015

> <Gold.Chemscore.Metal.Weighted>
-0.0000

> <Gold.Chemscore.Lipo.Weighted>
-15.6006

> <Gold.Chemscore.Internal_Hbond.Weighted>
0.0000

> <Gold.Chemscore.DEClash.Weighted>
1.7733

> <Gold.Chemscore.DEInternal.Weighted>
0.5268

> <Gold.Chemscore.Rot.Weighted>
3.0177

> <Gold.Chemscore.Internal.Correction.Weighted>
   9.000000E+99

> <Gold.Protein.RotatedTorsions>
[ 6907 6896 6895 6894 ] final  -93.78 input  -60.11 | X-H torsion
[ 7974 7965 7964 7962 ] final -163.60 input  175.53 | X-H torsion
[ 8008 7997 7996 7995 ] final  179.28 input   59.86 | X-H torsion
[ 10167 10162 10161 10158 ] final   56.46 input  -65.29 | X-H torsion
[ 10718 10713 10712 10709 ] final -156.95 input   66.30 | X-H torsion
[ 10763 10752 10751 10750 ] final   25.94 input  -60.55 | X-H torsion
[ 11005 11000 10999 10996 ] final  141.94 input  -57.11 | X-H torsion

> <Gold.Protein.ActiveResidues>
 VAL166  LYS551  ARG553  GLY616  TRP617  ASP618  TYR619  PRO620  LYS621  CYS622 
 ASP623  PHE694  ASN695  SER759  ASP760  ASP761  ALA762  ILE779  LEU786  VAL792 
 PHE793  MET794  SER795  GLU796  ALA797  LYS798  CYS799  TRP800  GLU811  SER814 

> <Gold.Protein.RotatedAtoms>
  150.6929  134.1915  159.4286 H   0  0  0  0  0  0  0  0  0  0  0  0  # atno 6907 bound_to 6896
  151.9885  134.9989  160.0570 H   0  0  0  0  0  0  0  0  0  0  0  0  # atno 6908 bound_to 6896
  152.1689  133.4595  159.4936 H   0  0  0  0  0  0  0  0  0  0  0  0  # atno 6909 bound_to 6896
  144.7321  140.3083  143.6192 H   0  0  0  0  0  0  0  0  0  0  0  0  # atno 7974 bound_to 7965
  156.0452  140.1312  157.0111 H   0  0  0  0  0  0  0  0  0  0  0  0  # atno 8008 bound_to 7997
  154.4409  140.1022  156.6366 H   0  0  0  0  0  0  0  0  0  0  0  0  # atno 8009 bound_to 7997
  155.5606  140.3464  155.4493 H   0  0  0  0  0  0  0  0  0  0  0  0  # atno 8010 bound_to 7997
  140.2085  144.3914  150.6498 H   0  0  0  0  0  0  0  0  0  0  0  0  # atno 10167 bound_to 10162
  156.5335  130.8531  151.2724 H   0  0  0  0  0  0  0  0  0  0  0  0  # atno 10718 bound_to 10713
  153.0656  135.6571  154.0361 H   0  0  0  0  0  0  0  0  0  0  0  0  # atno 10763 bound_to 10752
  154.0019  135.2936  155.3403 H   0  0  0  0  0  0  0  0  0  0  0  0  # atno 10764 bound_to 10752
  154.7013  135.5243  153.8599 H   0  0  0  0  0  0  0  0  0  0  0  0  # atno 10765 bound_to 10752
  140.0439  134.9290  157.0894 H   0  0  0  0  0  0  0  0  0  0  0  0  # atno 11005 bound_to 11000
  145.7690  139.1850  143.2223 LP  0  0  0  0  0  0  0  0  0  0  0  0  # atno 17320 bound_to 7965
  146.0926  140.7638  142.9588 LP  0  0  0  0  0  0  0  0  0  0  0  0  # atno 17321 bound_to 7965
  140.6340  143.2192  151.6434 LP  0  0  0  0  0  0  0  0  0  0  0  0  # atno 17342 bound_to 10162
  139.5189  144.3270  152.0860 LP  0  0  0  0  0  0  0  0  0  0  0  0  # atno 17343 bound_to 10162
  157.7417  130.9876  150.2468 LP  0  0  0  0  0  0  0  0  0  0  0  0  # atno 17370 bound_to 10713
  156.3037  130.3762  149.7726 LP  0  0  0  0  0  0  0  0  0  0  0  0  # atno 17371 bound_to 10713
  140.4024  134.2068  155.7163 LP  0  0  0  0  0  0  0  0  0  0  0  0  # atno 17394 bound_to 11000
  141.1897  133.8232  157.0946 LP  0  0  0  0  0  0  0  0  0  0  0  0  # atno 17395 bound_to 11000

$$$$
