AV-unprocessed.smi:2593|AV-procd|sdf|10164|dock6
  -GOLD-   2272014183D 1   1.00000     0.00000
 Structure written by MMmdl.
 41 43  0  0  0  0  0  0  0  0  2 V2000
  151.0777  137.3394  154.7222 C   0  0  0  0  0  0  0  0  0  0  0  0
  152.2927  137.8943  155.1939 O   0  0  0  0  0  0  0  0  0  0  0  0
  152.2182  139.3001  155.3680 C   0  0  0  0  0  0  0  0  0  0  0  0
  151.5356  139.6149  156.7064 C   0  0  0  0  0  0  0  0  0  0  0  0
  151.2891  141.0535  156.8793 N   0  0  0  0  0  0  0  0  0  0  0  0
  150.5529  141.9251  156.1343 C   0  0  0  0  0  0  0  0  0  0  0  0
  149.5987  141.5504  154.7005 S   0  0  0  0  0  0  0  0  0  0  0  0
  148.0286  140.9113  155.3511 C   0  0  0  0  0  0  0  0  0  0  0  0
  146.9345  141.9446  155.1629 C   0  0  0  0  0  0  0  0  0  0  0  0
  146.6150  142.4268  153.8763 C   0  0  0  0  0  0  0  0  0  0  0  0
  145.6132  143.4094  153.7589 C   0  0  0  0  0  0  0  0  0  0  0  0
  144.9777  143.8737  154.9271 C   0  0  0  0  0  0  0  0  0  0  0  0
  145.3693  143.3287  156.1668 C   0  0  0  0  0  0  0  0  0  0  0  0
  144.7703  143.7673  157.3446 N   0  0  0  0  0  0  0  0  0  0  0  0
  146.3241  142.3825  156.2877 N   0  0  0  0  0  0  0  0  0  0  0  0
  150.6560  143.1538  156.7101 N   0  3  0  0  0  0  0  0  0  0  0  0
  151.4647  143.0690  157.8442 C   0  0  0  0  0  0  0  0  0  0  0  0
  151.8575  144.0424  158.7576 C   0  0  0  0  0  0  0  0  0  0  0  0
  152.6963  143.6207  159.8100 C   0  0  0  0  0  0  0  0  0  0  0  0
  153.1133  142.2787  159.9246 C   0  0  0  0  0  0  0  0  0  0  0  0
  152.7087  141.2999  158.9928 C   0  0  0  0  0  0  0  0  0  0  0  0
  151.8772  141.7242  157.9570 C   0  0  0  0  0  0  0  0  0  0  0  0
  151.1865  136.2605  154.6115 H   0  0  0  0  0  0  0  0  0  0  0  0
  150.8075  137.7521  153.7495 H   0  0  0  0  0  0  0  0  0  0  0  0
  150.2616  137.5254  155.4213 H   0  0  0  0  0  0  0  0  0  0  0  0
  153.2192  139.7338  155.3535 H   0  0  0  0  0  0  0  0  0  0  0  0
  151.6572  139.7473  154.5461 H   0  0  0  0  0  0  0  0  0  0  0  0
  150.5768  139.1004  156.7617 H   0  0  0  0  0  0  0  0  0  0  0  0
  152.1284  139.2530  157.5468 H   0  0  0  0  0  0  0  0  0  0  0  0
  147.7676  139.9916  154.8270 H   0  0  0  0  0  0  0  0  0  0  0  0
  148.1399  140.6611  156.4065 H   0  0  0  0  0  0  0  0  0  0  0  0
  147.1280  142.0567  153.0005 H   0  0  0  0  0  0  0  0  0  0  0  0
  145.3407  143.8036  152.7911 H   0  0  0  0  0  0  0  0  0  0  0  0
  144.2083  144.6299  154.8679 H   0  0  0  0  0  0  0  0  0  0  0  0
  144.0514  144.4765  157.3364 H   0  0  0  0  0  0  0  0  0  0  0  0
  144.9525  143.3100  158.2263 H   0  0  0  0  0  0  0  0  0  0  0  0
  151.5405  145.0715  158.6716 H   0  0  0  0  0  0  0  0  0  0  0  0
  153.0273  144.3415  160.5437 H   0  0  0  0  0  0  0  0  0  0  0  0
  153.7568  141.9935  160.7443 H   0  0  0  0  0  0  0  0  0  0  0  0
  153.0343  140.2747  159.0888 H   0  0  0  0  0  0  0  0  0  0  0  0
  150.1978  143.9836  156.3564 H   0  0  0  0  0  0  0  0  0  0  0  0
  1  2  1  0  0  0  0
  1 23  1  0  0  0  0
  1 24  1  0  0  0  0
  1 25  1  0  0  0  0
  2  3  1  0  0  0  0
  3  4  1  0  0  0  0
  3 26  1  0  0  0  0
  3 27  1  0  0  0  0
  4  5  1  0  0  0  0
  4 28  1  0  0  0  0
  4 29  1  0  0  0  0
  5 22  1  0  0  0  0
  5  6  1  0  0  0  0
  6  7  1  0  0  0  0
  6 16  2  0  0  0  0
  7  8  1  0  0  0  0
  8  9  1  0  0  0  0
  8 30  1  0  0  0  0
  8 31  1  0  0  0  0
  9 15  1  0  0  0  0
  9 10  2  0  0  0  0
 10 11  1  0  0  0  0
 10 32  1  0  0  0  0
 11 12  2  0  0  0  0
 11 33  1  0  0  0  0
 12 13  1  0  0  0  0
 12 34  1  0  0  0  0
 13 14  1  0  0  0  0
 13 15  2  0  0  0  0
 14 35  1  0  0  0  0
 14 36  1  0  0  0  0
 16 17  1  0  0  0  0
 16 41  1  0  0  0  0
 17 22  2  0  0  0  0
 17 18  1  0  0  0  0
 18 19  2  0  0  0  0
 18 37  1  0  0  0  0
 19 20  1  0  0  0  0
 19 38  1  0  0  0  0
 20 21  2  0  0  0  0
 20 39  1  0  0  0  0
 21 22  1  0  0  0  0
 21 40  1  0  0  0  0
M  CHG  1  16   1
M  END
> <s_m_source_file>
AV-unprocessed.smi

> <i_m_source_file_index>
2593

> <i_lp_mmshare_version>
43012

> <i_f3d_flags>
0

> <s_epik_input>
W2NIXTFbY0hdW2NIXVtjSF1jKGMxMiluKFtDSDJdW0NIMl1PW0NIM10pYyhuMilTW0NIMl1jM1tjSF1bY0hdW2NIXWMobjMpW05IMl0=

> <s_epik_cmdline>
J2VwaWtfcHl0aG9uJywgJy1waCcsICc3LjAnLCAnLXRuJywgJzgnLCAnLW1hJywgJzIwMCcsICctbWV0YWxfYmluZGluZycsICctaW1hZScsICc8aW5maWxlLm1hZT4nLCAnLW9tYWUnLCAnPG91dGZpbGUubWFlPic=

> <r_lp_tautomer_probability>
1

> <r_epik_Ionization_Penalty>
1.62501

> <r_epik_Ionization_Penalty_Charging>
1.62036

> <r_epik_Ionization_Penalty_Neutral>
0.00464699

> <r_epik_State_Penalty>
1.7318

> <r_epik_Charging_Adjusted_Penalty>
3.35216

> <i_epik_Tot_Q>
1

> <i_epik_Tot_abs_Q>
1

> <r_epik_Metal_State_Penalty>
1.7649

> <b_epik_Metal_Only>
0

> <s_lp_Force_Field>
OPLS_2005

> <r_lp_Energy>
8.46533

> <b_lp_Chiralities_Consistent>
1

> <s_lp_Variant>
AV-unprocessed.smi:2593-2

> <Gold.Version>
5.8.1

> <Gold.Id.Protein>
6NUR|6NUR_protein|mol2

> <Gold.PLP.Fitness>
53.9388

> <Gold.PLP.PLP>
-49.4150

> <Gold.PLP.part.hbond>
-1.3299

> <Gold.PLP.part.metal>
0.0000

> <Gold.PLP.part.buried>
-5.7809

> <Gold.PLP.part.nonpolar>
-41.3324

> <Gold.PLP.part.repulsive>
0.2222

> <Gold.PLP.ligand.clash>
0.0000

> <Gold.PLP.ligand.torsion>
0.7691

> <Gold.PLP.Chemscore.Hbond>
2.0000

> <Gold.PLP.Chemscore.CHOScore>
0.0000

> <Gold.PLP.Chemscore.Metal>
0.0000

> <Gold.Chemscore.Hbonds>
donor molecule, donor type, donor heavy atom, donor atom, acceptor molecule, acceptor atom, score
      L1  H    16    41       P1  8028  2.00

> <Gold.PLP.Chemscore.Internal.Correction>
0.0620

> <Gold.Rescore>
     Score         DG    S(hbond)    S(metal)    S(lipo)     H(rot)  DE(clash)    DE(int)     intcor
     16.31     -17.28       0.94        0.00     122.04       2.19       0.25       0.73       ----

> <Gold.Chemscore.Fitness>
16.3071

> <Gold.Chemscore.DG>
-17.2848

> <Gold.Chemscore.ZeroCoef>
-5.4800

> <Gold.Chemscore.Hbond>
0.9411

> <Gold.Chemscore.Metal>
0.0000

> <Gold.Chemscore.Lipo>
122.0385

> <Gold.Chemscore.Internal_Hbond>
0.0000

> <Gold.Chemscore.DEClash>
0.2475

> <Gold.Chemscore.DEInternal>
0.7301

> <Gold.Chemscore.Rot>
2.1941

> <Gold.Chemscore.Internal.Correction>
   9.000000E+99

> <Gold.Chemscore.Hbonds>
donor molecule, donor type, donor heavy atom, donor atom, acceptor molecule, acceptor atom, score
      L1  H    16    41       P1  8028  0.96

> <Gold.Chemscore.Hbond.Weighted>
-3.1432

> <Gold.Chemscore.Metal.Weighted>
-0.0000

> <Gold.Chemscore.Lipo.Weighted>
-14.2785

> <Gold.Chemscore.Internal_Hbond.Weighted>
0.0000

> <Gold.Chemscore.DEClash.Weighted>
0.2475

> <Gold.Chemscore.DEInternal.Weighted>
0.7301

> <Gold.Chemscore.Rot.Weighted>
5.6169

> <Gold.Chemscore.Internal.Correction.Weighted>
   9.000000E+99

> <Gold.Protein.RotatedTorsions>
[ 6907 6896 6895 6894 ] final   43.04 input  -60.11 | X-H torsion
[ 7974 7965 7964 7962 ] final  -83.78 input  175.53 | X-H torsion
[ 8008 7997 7996 7995 ] final  -75.90 input   59.86 | X-H torsion
[ 10167 10162 10161 10158 ] final  -37.73 input  -65.29 | X-H torsion
[ 10718 10713 10712 10709 ] final   -5.70 input   66.30 | X-H torsion
[ 10763 10752 10751 10750 ] final    9.17 input  -60.55 | X-H torsion
[ 11005 11000 10999 10996 ] final   18.10 input  -57.11 | X-H torsion

> <Gold.Protein.ActiveResidues>
 VAL166  LYS551  ARG553  GLY616  TRP617  ASP618  TYR619  PRO620  LYS621  CYS622 
 ASP623  PHE694  ASN695  SER759  ASP760  ASP761  ALA762  ILE779  LEU786  VAL792 
 PHE793  MET794  SER795  GLU796  ALA797  LYS798  CYS799  TRP800  GLU811  SER814 

> <Gold.Protein.RotatedAtoms>
  152.2153  134.8463  160.0492 H   0  0  0  0  0  0  0  0  0  0  0  0  # atno 6907 bound_to 6896
  151.9266  133.3595  159.3924 H   0  0  0  0  0  0  0  0  0  0  0  0  # atno 6908 bound_to 6896
  150.6986  134.4505  159.5378 H   0  0  0  0  0  0  0  0  0  0  0  0  # atno 6909 bound_to 6896
  145.5155  140.9536  143.1684 H   0  0  0  0  0  0  0  0  0  0  0  0  # atno 7974 bound_to 7965
  154.5457  140.0736  156.8585 H   0  0  0  0  0  0  0  0  0  0  0  0  # atno 8008 bound_to 7997
  155.3092  140.3389  155.4226 H   0  0  0  0  0  0  0  0  0  0  0  0  # atno 8009 bound_to 7997
  156.1916  140.1688  156.8067 H   0  0  0  0  0  0  0  0  0  0  0  0  # atno 8010 bound_to 7997
  140.7111  143.3323  151.2541 H   0  0  0  0  0  0  0  0  0  0  0  0  # atno 10167 bound_to 10162
  156.7428  130.5215  149.5820 H   0  0  0  0  0  0  0  0  0  0  0  0  # atno 10718 bound_to 10713
  153.2170  135.6876  153.8046 H   0  0  0  0  0  0  0  0  0  0  0  0  # atno 10763 bound_to 10752
  153.7258  135.3260  155.3277 H   0  0  0  0  0  0  0  0  0  0  0  0  # atno 10764 bound_to 10752
  154.8250  135.4624  154.1001 H   0  0  0  0  0  0  0  0  0  0  0  0  # atno 10765 bound_to 10752
  140.4285  134.1444  155.7678 H   0  0  0  0  0  0  0  0  0  0  0  0  # atno 11005 bound_to 11000
  144.7704  139.6747  143.7197 LP  0  0  0  0  0  0  0  0  0  0  0  0  # atno 17320 bound_to 7965
  146.2140  139.5516  142.9662 LP  0  0  0  0  0  0  0  0  0  0  0  0  # atno 17321 bound_to 7965
  139.6808  143.9857  152.2807 LP  0  0  0  0  0  0  0  0  0  0  0  0  # atno 17342 bound_to 10162
  139.9486  144.6635  150.8194 LP  0  0  0  0  0  0  0  0  0  0  0  0  # atno 17343 bound_to 10162
  156.1453  130.6273  151.0523 LP  0  0  0  0  0  0  0  0  0  0  0  0  # atno 17370 bound_to 10713
  157.6811  131.0838  150.7367 LP  0  0  0  0  0  0  0  0  0  0  0  0  # atno 17371 bound_to 10713
  141.1755  133.8522  157.1434 LP  0  0  0  0  0  0  0  0  0  0  0  0  # atno 17394 bound_to 11000
  140.0150  134.9971  157.0475 LP  0  0  0  0  0  0  0  0  0  0  0  0  # atno 17395 bound_to 11000

$$$$
