AV-unprocessed.smi:131|AV-procd|sdf|1162|dock7
  -GOLD-   2262018303D 1   1.00000     0.00000
 Structure written by MMmdl.
 55 58  0  0  0  0  0  0  0  0  1 V2000
  153.9246  140.6303  162.3083 O   0  0  0  0  0  0  0  0  0  0  0  0
  154.3253  140.3034  161.1921 C   0  0  0  0  0  0  0  0  0  0  0  0
  154.3316  141.3671  160.0787 C   0  0  0  0  0  0  0  0  0  0  0  0
  153.0692  141.4896  159.3128 N   0  0  0  0  0  0  0  0  0  0  0  0
  152.2657  142.6408  159.5063 C   0  0  0  0  0  0  0  0  0  0  0  0
  152.6048  143.5315  160.2864 O   0  0  0  0  0  0  0  0  0  0  0  0
  151.0398  142.6935  158.7177 C   0  0  0  0  0  0  0  0  0  0  0  0
  150.2183  143.7502  158.8352 F   0  0  0  0  0  0  0  0  0  0  0  0
  150.7177  141.6984  157.8658 C   0  0  0  0  0  0  0  0  0  0  0  0
  151.5119  140.5795  157.6862 N   0  0  0  0  0  0  0  0  0  0  0  0
  151.1429  139.4768  156.7147 C   0  0  1  0  0  0  0  0  0  0  0  0
  149.7436  138.9149  157.0343 C   0  0  0  0  0  0  0  0  0  0  0  0
  149.0294  139.0087  155.7002 C   0  0  0  0  0  0  0  0  0  0  0  0
  149.7293  140.1917  155.0492 C   0  0  0  0  0  0  0  0  0  0  0  0
  151.0881  139.9876  155.4131 O   0  0  0  0  0  0  0  0  0  0  0  0
  152.7212  140.4611  158.4051 C   0  0  0  0  0  0  0  0  0  0  0  0
  153.4576  139.4864  158.2381 O   0  0  0  0  0  0  0  0  0  0  0  0
  154.7402  139.0606  160.8749 N   0  0  0  0  0  0  0  0  0  0  0  0
  154.8367  137.9174  161.7115 C   0  0  0  0  0  0  0  0  0  0  0  0
  155.5996  136.8302  161.2340 C   0  0  0  0  0  0  0  0  0  0  0  0
  155.7547  135.6679  162.0140 C   0  0  0  0  0  0  0  0  0  0  0  0
  155.1556  135.6007  163.2867 C   0  0  0  0  0  0  0  0  0  0  0  0
  155.3267  134.1241  164.2802 S   0  0  0  0  0  0  0  0  0  0  0  0
  156.2021  133.1640  163.5895 O   0  0  0  0  0  0  0  0  0  0  0  0
  155.6296  134.5485  165.6561 O   0  0  0  0  0  0  0  0  0  0  0  0
  153.7203  133.4783  164.2757 N   0  0  0  0  0  0  0  0  0  0  0  0
  152.9490  133.4614  165.5248 C   0  0  0  0  0  0  0  0  0  0  0  0
  152.3281  132.0658  165.6057 C   0  0  0  0  0  0  0  0  0  0  0  0
  152.1964  131.6517  164.1465 C   0  0  0  0  0  0  0  0  0  0  0  0
  153.4340  132.2681  163.4957 C   0  0  0  0  0  0  0  0  0  0  0  0
  154.4060  136.6843  163.7831 C   0  0  0  0  0  0  0  0  0  0  0  0
  154.2512  137.8440  162.9994 C   0  0  0  0  0  0  0  0  0  0  0  0
  154.6034  142.3231  160.5288 H   0  0  0  0  0  0  0  0  0  0  0  0
  155.1682  141.1509  159.4125 H   0  0  0  0  0  0  0  0  0  0  0  0
  149.7991  141.8028  157.3090 H   0  0  0  0  0  0  0  0  0  0  0  0
  151.9471  138.7421  156.7849 H   0  0  0  0  0  0  0  0  0  0  0  0
  149.8097  137.8951  157.4143 H   0  0  0  0  0  0  0  0  0  0  0  0
  149.2445  139.5389  157.7776 H   0  0  0  0  0  0  0  0  0  0  0  0
  149.2035  138.1042  155.1160 H   0  0  0  0  0  0  0  0  0  0  0  0
  147.9530  139.1509  155.8000 H   0  0  0  0  0  0  0  0  0  0  0  0
  149.6025  140.2155  153.9667 H   0  0  0  0  0  0  0  0  0  0  0  0
  149.3646  141.1337  155.4611 H   0  0  0  0  0  0  0  0  0  0  0  0
  154.9456  138.9019  159.8992 H   0  0  0  0  0  0  0  0  0  0  0  0
  156.0641  136.8806  160.2598 H   0  0  0  0  0  0  0  0  0  0  0  0
  156.3326  134.8389  161.6335 H   0  0  0  0  0  0  0  0  0  0  0  0
  153.5834  133.6690  166.3874 H   0  0  0  0  0  0  0  0  0  0  0  0
  152.1793  134.2321  165.4731 H   0  0  0  0  0  0  0  0  0  0  0  0
  153.0087  131.3873  166.1219 H   0  0  0  0  0  0  0  0  0  0  0  0
  151.3759  132.0566  166.1369 H   0  0  0  0  0  0  0  0  0  0  0  0
  152.1435  130.5705  164.0155 H   0  0  0  0  0  0  0  0  0  0  0  0
  151.2939  132.0887  163.7171 H   0  0  0  0  0  0  0  0  0  0  0  0
  153.2791  132.5099  162.4439 H   0  0  0  0  0  0  0  0  0  0  0  0
  154.2771  131.5803  163.5683 H   0  0  0  0  0  0  0  0  0  0  0  0
  153.9545  136.6304  164.7631 H   0  0  0  0  0  0  0  0  0  0  0  0
  153.6915  138.6696  163.4109 H   0  0  0  0  0  0  0  0  0  0  0  0
  1  2  2  0  0  0  0
  2  3  1  0  0  0  0
  2 18  1  0  0  0  0
  3  4  1  0  0  0  0
  3 33  1  0  0  0  0
  3 34  1  0  0  0  0
  4 16  1  0  0  0  0
  4  5  1  0  0  0  0
  5  6  2  0  0  0  0
  5  7  1  0  0  0  0
  7  8  1  0  0  0  0
  7  9  2  0  0  0  0
  9 10  1  0  0  0  0
  9 35  1  0  0  0  0
 10 11  1  0  0  0  0
 10 16  1  0  0  0  0
 11 15  1  0  0  0  0
 11 12  1  0  0  0  0
 11 36  1  0  0  0  0
 12 13  1  0  0  0  0
 12 37  1  0  0  0  0
 12 38  1  0  0  0  0
 13 14  1  0  0  0  0
 13 39  1  0  0  0  0
 13 40  1  0  0  0  0
 14 15  1  0  0  0  0
 14 41  1  0  0  0  0
 14 42  1  0  0  0  0
 16 17  2  0  0  0  0
 18 19  1  0  0  0  0
 18 43  1  0  0  0  0
 19 32  1  0  0  0  0
 19 20  2  0  0  0  0
 20 21  1  0  0  0  0
 20 44  1  0  0  0  0
 21 22  2  0  0  0  0
 21 45  1  0  0  0  0
 22 23  1  0  0  0  0
 22 31  1  0  0  0  0
 23 24  2  0  0  0  0
 23 25  2  0  0  0  0
 23 26  1  0  0  0  0
 26 30  1  0  0  0  0
 26 27  1  0  0  0  0
 27 28  1  0  0  0  0
 27 46  1  0  0  0  0
 27 47  1  0  0  0  0
 28 29  1  0  0  0  0
 28 48  1  0  0  0  0
 28 49  1  0  0  0  0
 29 30  1  0  0  0  0
 29 50  1  0  0  0  0
 29 51  1  0  0  0  0
 30 52  1  0  0  0  0
 30 53  1  0  0  0  0
 31 32  2  0  0  0  0
 31 54  1  0  0  0  0
 32 55  1  0  0  0  0
M  END
> <s_m_source_file>
AV-unprocessed.smi

> <i_m_source_file_index>
131

> <i_lp_mmshare_version>
43012

> <i_f3d_flags>
0

> <s_epik_input>
W0NIMl0xW0NIMl1bQ0gyXVtDSDJdTjFTKD1PKSg9TyljKFtjSF1bY0hdMilbY0hdW2NIXWMyW05IXUMoPU8pW0NIMl1uM2MoPU8pYyhGKVtjSF1uKGMzPU8pW0NAQEhdNFtDSDJdW0NIMl1bQ0gyXU80

> <s_epik_cmdline>
J2VwaWtfcHl0aG9uJywgJy1waCcsICc3LjAnLCAnLXRuJywgJzgnLCAnLW1hJywgJzIwMCcsICctbWV0YWxfYmluZGluZycsICctaW1hZScsICc8aW5maWxlLm1hZT4nLCAnLW9tYWUnLCAnPG91dGZpbGUubWFlPic=

> <r_lp_tautomer_probability>
1

> <r_epik_Ionization_Penalty>
1.92533e-06

> <r_epik_Ionization_Penalty_Charging>
3.88729e-08

> <r_epik_Ionization_Penalty_Neutral>
1.88646e-06

> <r_epik_State_Penalty>
-0

> <r_epik_Charging_Adjusted_Penalty>
3.88729e-08

> <i_epik_Tot_Q>
0

> <i_epik_Tot_abs_Q>
0

> <r_epik_Metal_State_Penalty>
-0

> <b_epik_Metal_Only>
0

> <s_epik_Chemistry_Notes>
This compound contains an acetal/aminal-like group ( X-CH(R)-Y where X, Y are N, S, or O) that may be acid/base labile, releasing an aldehyde.

> <s_lp_Force_Field>
OPLS_2005

> <r_lp_Energy>
42.789

> <b_lp_Chiralities_Consistent>
1

> <s_lp_Variant>
AV-unprocessed.smi:131-2

> <Gold.Version>
5.8.1

> <Gold.Id.Protein>
6NUR|6NUR_protein|mol2

> <Gold.PLP.Fitness>
46.4447

> <Gold.PLP.PLP>
-43.2131

> <Gold.PLP.part.hbond>
-1.7460

> <Gold.PLP.part.metal>
0.0000

> <Gold.PLP.part.buried>
-5.7845

> <Gold.PLP.part.nonpolar>
-35.3731

> <Gold.PLP.part.repulsive>
0.1870

> <Gold.PLP.ligand.clash>
0.0000

> <Gold.PLP.ligand.torsion>
1.9076

> <Gold.PLP.Chemscore.Hbond>
1.4664

> <Gold.PLP.Chemscore.CHOScore>
0.0000

> <Gold.PLP.Chemscore.Metal>
0.0000

> <Gold.Chemscore.Hbonds>
donor molecule, donor type, donor heavy atom, donor atom, acceptor molecule, acceptor atom, score
      P1  H  7989  7998       L1    15  0.25
      P1  H  7997  8009       L1    17  1.00

> <Gold.PLP.Chemscore.Internal.Correction>
2.6476

> <Gold.Rescore>
     Score         DG    S(hbond)    S(metal)    S(lipo)     H(rot)  DE(clash)    DE(int)     intcor
     11.37     -14.72       0.83        0.00      97.20       1.92       0.03       3.32       ----

> <Gold.Chemscore.Fitness>
11.3685

> <Gold.Chemscore.DG>
-14.7180

> <Gold.Chemscore.ZeroCoef>
-5.4800

> <Gold.Chemscore.Hbond>
0.8299

> <Gold.Chemscore.Metal>
0.0000

> <Gold.Chemscore.Lipo>
97.2008

> <Gold.Chemscore.Internal_Hbond>
0.0000

> <Gold.Chemscore.DEClash>
0.0308

> <Gold.Chemscore.DEInternal>
3.3187

> <Gold.Chemscore.Rot>
1.9166

> <Gold.Chemscore.Internal.Correction>
   9.000000E+99

> <Gold.Chemscore.Hbonds>
donor molecule, donor type, donor heavy atom, donor atom, acceptor molecule, acceptor atom, score
      P1  H  7989  7998       L1    15  0.01
      P1  H  7997  8009       L1    17  0.64

> <Gold.Chemscore.Hbond.Weighted>
-2.7719

> <Gold.Chemscore.Metal.Weighted>
-0.0000

> <Gold.Chemscore.Lipo.Weighted>
-11.3725

> <Gold.Chemscore.Internal_Hbond.Weighted>
0.0000

> <Gold.Chemscore.DEClash.Weighted>
0.0308

> <Gold.Chemscore.DEInternal.Weighted>
3.3187

> <Gold.Chemscore.Rot.Weighted>
4.9064

> <Gold.Chemscore.Internal.Correction.Weighted>
   9.000000E+99

> <Gold.Protein.RotatedTorsions>
[ 6907 6896 6895 6894 ] final  110.15 input  -60.11 | X-H torsion
[ 7974 7965 7964 7962 ] final  135.16 input  175.53 | X-H torsion
[ 8008 7997 7996 7995 ] final  135.20 input   59.86 | X-H torsion
[ 10167 10162 10161 10158 ] final -121.52 input  -65.29 | X-H torsion
[ 10718 10713 10712 10709 ] final  -81.58 input   66.30 | X-H torsion
[ 10763 10752 10751 10750 ] final  117.83 input  -60.55 | X-H torsion
[ 11005 11000 10999 10996 ] final  -61.02 input  -57.11 | X-H torsion

> <Gold.Protein.ActiveResidues>
 VAL166  LYS551  ARG553  GLY616  TRP617  ASP618  TYR619  PRO620  LYS621  CYS622 
 ASP623  PHE694  ASN695  SER759  ASP760  ASP761  ALA762  ILE779  LEU786  VAL792 
 PHE793  MET794  SER795  GLU796  ALA797  LYS798  CYS799  TRP800  GLU811  SER814 

> <Gold.Protein.RotatedAtoms>
  152.5033  133.8842  159.7361 H   0  0  0  0  0  0  0  0  0  0  0  0  # atno 6907 bound_to 6896
  150.9297  133.6773  159.2820 H   0  0  0  0  0  0  0  0  0  0  0  0  # atno 6908 bound_to 6896
  151.4122  135.0991  159.9641 H   0  0  0  0  0  0  0  0  0  0  0  0  # atno 6909 bound_to 6896
  144.9691  139.4625  143.5441 H   0  0  0  0  0  0  0  0  0  0  0  0  # atno 7974 bound_to 7965
  156.3002  140.2477  156.3542 H   0  0  0  0  0  0  0  0  0  0  0  0  # atno 8008 bound_to 7997
  154.8937  140.0408  157.1873 H   0  0  0  0  0  0  0  0  0  0  0  0  # atno 8009 bound_to 7997
  154.8571  140.2915  155.5566 H   0  0  0  0  0  0  0  0  0  0  0  0  # atno 8010 bound_to 7997
  140.0241  143.5314  152.2207 H   0  0  0  0  0  0  0  0  0  0  0  0  # atno 10167 bound_to 10162
  156.0048  130.4608  150.3975 H   0  0  0  0  0  0  0  0  0  0  0  0  # atno 10718 bound_to 10713
  153.5584  135.3525  155.2789 H   0  0  0  0  0  0  0  0  0  0  0  0  # atno 10763 bound_to 10752
  154.8698  135.4130  154.2858 H   0  0  0  0  0  0  0  0  0  0  0  0  # atno 10764 bound_to 10752
  153.3599  135.7059  153.6790 H   0  0  0  0  0  0  0  0  0  0  0  0  # atno 10765 bound_to 10752
  141.1309  133.6626  156.5311 H   0  0  0  0  0  0  0  0  0  0  0  0  # atno 11005 bound_to 11000
  146.3377  139.8892  142.8812 LP  0  0  0  0  0  0  0  0  0  0  0  0  # atno 17320 bound_to 7965
  145.2585  141.0069  143.3840 LP  0  0  0  0  0  0  0  0  0  0  0  0  # atno 17321 bound_to 7965
  139.6120  144.7611  151.2931 LP  0  0  0  0  0  0  0  0  0  0  0  0  # atno 17342 bound_to 10162
  140.7330  143.6807  150.8003 LP  0  0  0  0  0  0  0  0  0  0  0  0  # atno 17343 bound_to 10162
  157.2046  131.0446  151.2632 LP  0  0  0  0  0  0  0  0  0  0  0  0  # atno 17370 bound_to 10713
  157.3944  130.7299  149.6721 LP  0  0  0  0  0  0  0  0  0  0  0  0  # atno 17371 bound_to 10713
  140.4215  134.7183  157.4892 LP  0  0  0  0  0  0  0  0  0  0  0  0  # atno 17394 bound_to 11000
  140.0357  134.6341  155.9047 LP  0  0  0  0  0  0  0  0  0  0  0  0  # atno 17395 bound_to 11000

$$$$
