AV-unprocessed.smi:1640|AV-procd|sdf|6554|dock8
  -GOLD-   22720 7233D 1   1.00000     0.00000
 Structure written by MMmdl.
 47 48  0  0  0  0  0  0  0  0  1 V2000
  154.2195  142.4737  163.4749 C   0  0  0  0  0  0  0  0  0  0  0  0
  153.3708  142.1124  162.2445 C   0  0  0  0  0  0  0  0  0  0  0  0
  154.1780  141.2346  161.2761 C   0  0  0  0  0  0  0  0  0  0  0  0
  152.8229  143.3593  161.5217 C   0  0  0  0  0  0  0  0  0  0  0  0
  152.2792  143.0774  160.1127 C   0  0  0  0  0  0  0  0  0  0  0  0
  151.0893  144.3840  159.5990 S   0  0  0  0  0  0  0  0  0  0  0  0
  149.8953  144.2923  160.4531 O   0  0  0  0  0  0  0  0  0  0  0  0
  151.8044  145.6631  159.4760 O   0  0  0  0  0  0  0  0  0  0  0  0
  150.6375  143.8839  158.0142 N   0  0  0  0  0  0  0  0  0  0  0  0
  149.8182  142.6819  157.8697 C   0  0  0  0  0  0  0  0  0  0  0  0
  150.5382  141.5723  157.1184 C   0  0  0  0  0  0  0  0  0  0  0  0
  151.7394  141.0454  157.6386 C   0  0  0  0  0  0  0  0  0  0  0  0
  152.4052  140.0272  156.9322 C   0  0  0  0  0  0  0  0  0  0  0  0
  151.8422  139.5758  155.7245 C   0  0  0  0  0  0  0  0  0  0  0  0
  150.6955  140.0701  155.2136 N   0  0  0  0  0  0  0  0  0  0  0  0
  150.0495  141.0499  155.8919 C   0  0  0  0  0  0  0  0  0  0  0  0
  148.8449  141.5283  155.3481 N   0  0  0  0  0  0  0  0  0  0  0  0
  148.5774  141.1496  153.9653 C   0  0  0  0  0  0  0  0  0  0  0  0
  147.3188  141.8748  153.4600 C   0  0  0  0  0  0  0  0  0  0  0  0
  146.2226  141.5782  154.3206 O   0  0  0  0  0  0  0  0  0  0  0  0
  146.4570  142.0120  155.6577 C   0  0  0  0  0  0  0  0  0  0  0  0
  147.7016  141.3060  156.2235 C   0  0  0  0  0  0  0  0  0  0  0  0
  155.0642  143.1070  163.2018 H   0  0  0  0  0  0  0  0  0  0  0  0
  154.6175  141.5776  163.9519 H   0  0  0  0  0  0  0  0  0  0  0  0
  153.6347  143.0025  164.2267 H   0  0  0  0  0  0  0  0  0  0  0  0
  152.5220  141.5190  162.5864 H   0  0  0  0  0  0  0  0  0  0  0  0
  155.0455  141.7682  160.8863 H   0  0  0  0  0  0  0  0  0  0  0  0
  153.5700  140.9225  160.4265 H   0  0  0  0  0  0  0  0  0  0  0  0
  154.5375  140.3314  161.7697 H   0  0  0  0  0  0  0  0  0  0  0  0
  152.0458  143.8269  162.1277 H   0  0  0  0  0  0  0  0  0  0  0  0
  153.6221  144.0969  161.4370 H   0  0  0  0  0  0  0  0  0  0  0  0
  153.0884  143.0513  159.3828 H   0  0  0  0  0  0  0  0  0  0  0  0
  151.7597  142.1205  160.0720 H   0  0  0  0  0  0  0  0  0  0  0  0
  150.2833  144.6565  157.4507 H   0  0  0  0  0  0  0  0  0  0  0  0
  149.5154  142.3417  158.8604 H   0  0  0  0  0  0  0  0  0  0  0  0
  148.9001  142.9315  157.3368 H   0  0  0  0  0  0  0  0  0  0  0  0
  152.1495  141.4160  158.5666 H   0  0  0  0  0  0  0  0  0  0  0  0
  153.3258  139.6041  157.3059 H   0  0  0  0  0  0  0  0  0  0  0  0
  152.3244  138.7959  155.1541 H   0  0  0  0  0  0  0  0  0  0  0  0
  149.4343  141.4036  153.3404 H   0  0  0  0  0  0  0  0  0  0  0  0
  148.4308  140.0710  153.8952 H   0  0  0  0  0  0  0  0  0  0  0  0
  147.4809  142.9528  153.4150 H   0  0  0  0  0  0  0  0  0  0  0  0
  147.0759  141.5463  152.4495 H   0  0  0  0  0  0  0  0  0  0  0  0
  146.5784  143.0955  155.6834 H   0  0  0  0  0  0  0  0  0  0  0  0
  145.5831  141.7765  156.2652 H   0  0  0  0  0  0  0  0  0  0  0  0
  147.5157  140.2343  156.3090 H   0  0  0  0  0  0  0  0  0  0  0  0
  147.9168  141.6754  157.2267 H   0  0  0  0  0  0  0  0  0  0  0  0
  1  2  1  0  0  0  0
  1 23  1  0  0  0  0
  1 24  1  0  0  0  0
  1 25  1  0  0  0  0
  2  3  1  0  0  0  0
  2  4  1  0  0  0  0
  2 26  1  0  0  0  0
  3 27  1  0  0  0  0
  3 28  1  0  0  0  0
  3 29  1  0  0  0  0
  4  5  1  0  0  0  0
  4 30  1  0  0  0  0
  4 31  1  0  0  0  0
  5  6  1  0  0  0  0
  5 32  1  0  0  0  0
  5 33  1  0  0  0  0
  6  7  2  0  0  0  0
  6  8  2  0  0  0  0
  6  9  1  0  0  0  0
  9 10  1  0  0  0  0
  9 34  1  0  0  0  0
 10 11  1  0  0  0  0
 10 35  1  0  0  0  0
 10 36  1  0  0  0  0
 11 16  1  0  0  0  0
 11 12  2  0  0  0  0
 12 13  1  0  0  0  0
 12 37  1  0  0  0  0
 13 14  2  0  0  0  0
 13 38  1  0  0  0  0
 14 15  1  0  0  0  0
 14 39  1  0  0  0  0
 15 16  2  0  0  0  0
 16 17  1  0  0  0  0
 17 22  1  0  0  0  0
 17 18  1  0  0  0  0
 18 19  1  0  0  0  0
 18 40  1  0  0  0  0
 18 41  1  0  0  0  0
 19 20  1  0  0  0  0
 19 42  1  0  0  0  0
 19 43  1  0  0  0  0
 20 21  1  0  0  0  0
 21 22  1  0  0  0  0
 21 44  1  0  0  0  0
 21 45  1  0  0  0  0
 22 46  1  0  0  0  0
 22 47  1  0  0  0  0
M  END
> <s_m_source_file>
AV-unprocessed.smi

> <i_m_source_file_index>
1640

> <i_lp_mmshare_version>
43012

> <i_f3d_flags>
0

> <s_epik_input>
W0NIM11bQ0hdKFtDSDNdKVtDSDJdW0NIMl1TKD1PKSg9TylbTkhdW0NIMl1jMVtjSF1bY0hdW2NIXW5jMU4yW0NIMl1bQ0gyXU9bQ0gyXVtDSDJdMg==

> <s_epik_cmdline>
J2VwaWtfcHl0aG9uJywgJy1waCcsICc3LjAnLCAnLXRuJywgJzgnLCAnLW1hJywgJzIwMCcsICctbWV0YWxfYmluZGluZycsICctaW1hZScsICc8aW5maWxlLm1hZT4nLCAnLW9tYWUnLCAnPG91dGZpbGUubWFlPic=

> <r_lp_tautomer_probability>
1

> <r_epik_Ionization_Penalty>
0.00729723

> <r_epik_Ionization_Penalty_Charging>
0

> <r_epik_Ionization_Penalty_Neutral>
0.00729723

> <r_epik_State_Penalty>
0.00542751

> <r_epik_Charging_Adjusted_Penalty>
0.00542751

> <i_epik_Tot_Q>
0

> <i_epik_Tot_abs_Q>
0

> <r_epik_Metal_State_Penalty>
0.0195039

> <b_epik_Metal_Only>
0

> <s_lp_Force_Field>
OPLS_2005

> <r_lp_Energy>
17.806

> <b_lp_Chiralities_Consistent>
1

> <s_lp_Variant>
AV-unprocessed.smi:1640-1

> <Gold.Version>
5.8.1

> <Gold.Id.Protein>
6NUR|6NUR_protein|mol2

> <Gold.PLP.Fitness>
45.6047

> <Gold.PLP.PLP>
-44.3091

> <Gold.PLP.part.hbond>
-3.4219

> <Gold.PLP.part.metal>
0.0000

> <Gold.PLP.part.buried>
-3.0433

> <Gold.PLP.part.nonpolar>
-36.1103

> <Gold.PLP.part.repulsive>
0.7076

> <Gold.PLP.ligand.clash>
0.0000

> <Gold.PLP.ligand.torsion>
0.9657

> <Gold.PLP.Chemscore.Hbond>
0.9705

> <Gold.PLP.Chemscore.CHOScore>
0.0000

> <Gold.PLP.Chemscore.Metal>
0.0000

> <Gold.Chemscore.Hbonds>
donor molecule, donor type, donor heavy atom, donor atom, acceptor molecule, acceptor atom, score
      L1  H     9    34       P1  8028  0.33
      P1  H  7989  7998       L1    15  0.56

> <Gold.PLP.Chemscore.Internal.Correction>
0.3154

> <Gold.Rescore>
     Score         DG    S(hbond)    S(metal)    S(lipo)     H(rot)  DE(clash)    DE(int)     intcor
      9.68     -12.91       0.01        0.00     106.74       1.99       0.43       2.79       ----

> <Gold.Chemscore.Fitness>
9.6814

> <Gold.Chemscore.DG>
-12.9098

> <Gold.Chemscore.ZeroCoef>
-5.4800

> <Gold.Chemscore.Hbond>
0.0072

> <Gold.Chemscore.Metal>
0.0000

> <Gold.Chemscore.Lipo>
106.7425

> <Gold.Chemscore.Internal_Hbond>
0.0000

> <Gold.Chemscore.DEClash>
0.4343

> <Gold.Chemscore.DEInternal>
2.7940

> <Gold.Chemscore.Rot>
1.9856

> <Gold.Chemscore.Internal.Correction>
   9.000000E+99

> <Gold.Chemscore.Hbonds>
donor molecule, donor type, donor heavy atom, donor atom, acceptor molecule, acceptor atom, score
      L1  H     9    34       P1  8028  0.10
      P1  H  7989  7998       L1    15  0.04

> <Gold.Chemscore.Hbond.Weighted>
-0.0239

> <Gold.Chemscore.Metal.Weighted>
-0.0000

> <Gold.Chemscore.Lipo.Weighted>
-12.4889

> <Gold.Chemscore.Internal_Hbond.Weighted>
0.0000

> <Gold.Chemscore.DEClash.Weighted>
0.4343

> <Gold.Chemscore.DEInternal.Weighted>
2.7940

> <Gold.Chemscore.Rot.Weighted>
5.0830

> <Gold.Chemscore.Internal.Correction.Weighted>
   9.000000E+99

> <Gold.Protein.RotatedTorsions>
[ 6907 6896 6895 6894 ] final   88.32 input  -60.11 | X-H torsion
[ 7974 7965 7964 7962 ] final -125.97 input  175.53 | X-H torsion
[ 8008 7997 7996 7995 ] final   79.29 input   59.86 | X-H torsion
[ 10167 10162 10161 10158 ] final  139.43 input  -65.29 | X-H torsion
[ 10718 10713 10712 10709 ] final  -59.74 input   66.30 | X-H torsion
[ 10763 10752 10751 10750 ] final   -5.65 input  -60.55 | X-H torsion
[ 11005 11000 10999 10996 ] final   63.59 input  -57.11 | X-H torsion

> <Gold.Protein.ActiveResidues>
 VAL166  LYS551  ARG553  GLY616  TRP617  ASP618  TYR619  PRO620  LYS621  CYS622 
 ASP623  PHE694  ASN695  SER759  ASP760  ASP761  ALA762  ILE779  LEU786  VAL792 
 PHE793  MET794  SER795  GLU796  ALA797  LYS798  CYS799  TRP800  GLU811  SER814 

> <Gold.Protein.RotatedAtoms>
  152.5423  134.2140  159.8761 H   0  0  0  0  0  0  0  0  0  0  0  0  # atno 6907 bound_to 6896
  151.2121  133.4543  159.2606 H   0  0  0  0  0  0  0  0  0  0  0  0  # atno 6908 bound_to 6896
  151.0887  134.9915  159.8447 H   0  0  0  0  0  0  0  0  0  0  0  0  # atno 6909 bound_to 6896
  144.9921  140.7741  143.4548 H   0  0  0  0  0  0  0  0  0  0  0  0  # atno 7974 bound_to 7965
  155.8676  140.3450  155.5799 H   0  0  0  0  0  0  0  0  0  0  0  0  # atno 8008 bound_to 7997
  155.7864  140.0865  157.2051 H   0  0  0  0  0  0  0  0  0  0  0  0  # atno 8009 bound_to 7997
  154.4015  140.1491  156.3099 H   0  0  0  0  0  0  0  0  0  0  0  0  # atno 8010 bound_to 7997
  139.5079  144.6295  151.5853 H   0  0  0  0  0  0  0  0  0  0  0  0  # atno 10167 bound_to 10162
  156.1040  130.4182  150.0756 H   0  0  0  0  0  0  0  0  0  0  0  0  # atno 10718 bound_to 10713
  153.4014  135.7005  153.6423 H   0  0  0  0  0  0  0  0  0  0  0  0  # atno 10763 bound_to 10752
  153.4955  135.3663  155.2514 H   0  0  0  0  0  0  0  0  0  0  0  0  # atno 10764 bound_to 10752
  154.8710  135.4099  154.3349 H   0  0  0  0  0  0  0  0  0  0  0  0  # atno 10765 bound_to 10752
  140.0014  134.6436  155.9924 H   0  0  0  0  0  0  0  0  0  0  0  0  # atno 11005 bound_to 11000
  145.2271  139.2132  143.5062 LP  0  0  0  0  0  0  0  0  0  0  0  0  # atno 17320 bound_to 7965
  146.3433  140.2141  142.8590 LP  0  0  0  0  0  0  0  0  0  0  0  0  # atno 17321 bound_to 7965
  140.6023  143.9587  150.6395 LP  0  0  0  0  0  0  0  0  0  0  0  0  # atno 17342 bound_to 10162
  140.2803  143.3394  152.1157 LP  0  0  0  0  0  0  0  0  0  0  0  0  # atno 17343 bound_to 10162
  156.8736  130.9533  151.3607 LP  0  0  0  0  0  0  0  0  0  0  0  0  # atno 17370 bound_to 10713
  157.6215  130.8658  149.9116 LP  0  0  0  0  0  0  0  0  0  0  0  0  # atno 17371 bound_to 10713
  141.1645  133.6537  156.4431 LP  0  0  0  0  0  0  0  0  0  0  0  0  # atno 17394 bound_to 11000
  140.4720  134.6744  157.5133 LP  0  0  0  0  0  0  0  0  0  0  0  0  # atno 17395 bound_to 11000

$$$$
