AV-unprocessed.smi:2095|AV-procd|sdf|8556|dock6
  -GOLD-   2272011283D 1   1.00000     0.00000
 Structure written by MMmdl.
 42 43  0  0  0  0  0  0  0  0  2 V2000
  153.2762  140.4137  159.6385 C   0  0  0  0  0  0  0  0  0  0  0  0
  154.1743  141.5613  160.1328 C   0  0  2  0  0  0  0  0  0  0  0  0
  154.1642  141.7099  161.6664 C   0  0  0  0  0  0  0  0  0  0  0  0
  152.8494  142.3317  162.1613 C   0  0  0  0  0  0  0  0  0  0  0  0
  152.5505  143.6498  161.4296 C   0  0  0  0  0  0  0  0  0  0  0  0
  152.5310  143.4426  159.9578 N   0  3  1  0  0  0  0  0  0  0  0  0
  151.9866  144.6070  159.2010 C   0  0  2  0  0  0  0  0  0  0  0  0
  150.7062  145.1429  159.8710 C   0  0  0  0  0  0  0  0  0  0  0  0
  151.7980  144.3182  157.6895 C   0  0  0  0  0  0  0  0  0  0  0  0
  150.4673  143.8010  157.3942 N   0  0  0  0  0  0  0  0  0  0  0  0
  149.9593  142.6612  157.8873 C   0  0  0  0  0  0  0  0  0  0  0  0
  150.5470  141.9557  158.7066 O   0  0  0  0  0  0  0  0  0  0  0  0
  148.5925  142.2380  157.3506 C   0  0  0  0  0  0  0  0  0  0  0  0
  147.6038  142.2605  158.4118 N   0  0  0  0  0  0  0  0  0  0  0  0
  147.1995  143.2486  159.2126 C   0  0  0  0  0  0  0  0  0  0  0  0
  146.2891  142.8327  160.0799 N   0  0  0  0  0  0  0  0  0  0  0  0
  146.1423  141.4921  159.7644 N   0  0  0  0  0  0  0  0  0  0  0  0
  146.9200  141.1465  158.7756 N   0  0  0  0  0  0  0  0  0  0  0  0
  153.8274  142.9049  159.4591 C   0  0  0  0  0  0  0  0  0  0  0  0
  152.2255  140.5883  159.8701 H   0  0  0  0  0  0  0  0  0  0  0  0
  153.5636  139.4671  160.0971 H   0  0  0  0  0  0  0  0  0  0  0  0
  153.3583  140.2913  158.5581 H   0  0  0  0  0  0  0  0  0  0  0  0
  155.1922  141.3020  159.8389 H   0  0  0  0  0  0  0  0  0  0  0  0
  154.3317  140.7453  162.1470 H   0  0  0  0  0  0  0  0  0  0  0  0
  154.9944  142.3492  161.9695 H   0  0  0  0  0  0  0  0  0  0  0  0
  152.0264  141.6326  162.0101 H   0  0  0  0  0  0  0  0  0  0  0  0
  152.9050  142.5085  163.2358 H   0  0  0  0  0  0  0  0  0  0  0  0
  151.5869  144.0324  161.7678 H   0  0  0  0  0  0  0  0  0  0  0  0
  153.2987  144.3991  161.6908 H   0  0  0  0  0  0  0  0  0  0  0  0
  152.7213  145.4075  159.2991 H   0  0  0  0  0  0  0  0  0  0  0  0
  150.4062  146.1004  159.4439 H   0  0  0  0  0  0  0  0  0  0  0  0
  150.8603  145.3038  160.9384 H   0  0  0  0  0  0  0  0  0  0  0  0
  149.8658  144.4591  159.7545 H   0  0  0  0  0  0  0  0  0  0  0  0
  151.9788  145.2127  157.0919 H   0  0  0  0  0  0  0  0  0  0  0  0
  152.5131  143.5691  157.3500 H   0  0  0  0  0  0  0  0  0  0  0  0
  149.9124  144.3183  156.7271 H   0  0  0  0  0  0  0  0  0  0  0  0
  148.2734  142.9153  156.5571 H   0  0  0  0  0  0  0  0  0  0  0  0
  148.6450  141.2361  156.9217 H   0  0  0  0  0  0  0  0  0  0  0  0
  147.5761  144.2599  159.1669 H   0  0  0  0  0  0  0  0  0  0  0  0
  154.6226  143.6222  159.6662 H   0  0  0  0  0  0  0  0  0  0  0  0
  153.8009  142.7729  158.3778 H   0  0  0  0  0  0  0  0  0  0  0  0
  151.8572  142.7047  159.8101 H   0  0  0  0  0  0  0  0  0  0  0  0
  1  2  1  0  0  0  0
  1 20  1  0  0  0  0
  1 21  1  0  0  0  0
  1 22  1  0  0  0  0
  2 19  1  0  0  0  0
  2  3  1  0  0  0  0
  2 23  1  0  0  0  0
  3  4  1  0  0  0  0
  3 24  1  0  0  0  0
  3 25  1  0  0  0  0
  4  5  1  0  0  0  0
  4 26  1  0  0  0  0
  4 27  1  0  0  0  0
  5  6  1  0  0  0  0
  5 28  1  0  0  0  0
  5 29  1  0  0  0  0
  6  7  1  0  0  0  0
  6 19  1  0  0  0  0
  6 42  1  0  0  0  0
  7  8  1  0  0  0  0
  7  9  1  0  0  0  0
  7 30  1  0  0  0  0
  8 31  1  0  0  0  0
  8 32  1  0  0  0  0
  8 33  1  0  0  0  0
  9 10  1  0  0  0  0
  9 34  1  0  0  0  0
  9 35  1  0  0  0  0
 10 11  1  0  0  0  0
 10 36  1  0  0  0  0
 11 12  2  0  0  0  0
 11 13  1  0  0  0  0
 13 14  1  0  0  0  0
 13 37  1  0  0  0  0
 13 38  1  0  0  0  0
 14 18  1  0  0  0  0
 14 15  1  0  0  0  0
 15 16  2  0  0  0  0
 15 39  1  0  0  0  0
 16 17  1  0  0  0  0
 17 18  2  0  0  0  0
 19 40  1  0  0  0  0
 19 41  1  0  0  0  0
M  CHG  1   6   1
M  END
> <s_m_source_file>
AV-unprocessed.smi

> <i_m_source_file_index>
2095

> <i_lp_mmshare_version>
43012

> <i_f3d_flags>
0

> <s_epik_input>
W0NIM11bQ0BASF0xW0NIMl1bQ0gyXVtDSDJdTihbQ0gyXTEpW0NASF0oW0NIM10pW0NIMl1bTkhdQyg9TylbQ0gyXW4yW2NIXW5ubjI=

> <s_epik_cmdline>
J2VwaWtfcHl0aG9uJywgJy1waCcsICc3LjAnLCAnLXRuJywgJzgnLCAnLW1hJywgJzIwMCcsICctbWV0YWxfYmluZGluZycsICctaW1hZScsICc8aW5maWxlLm1hZT4nLCAnLW9tYWUnLCAnPG91dGZpbGUubWFlPic=

> <r_lp_tautomer_probability>
1

> <r_epik_Ionization_Penalty>
0.00268321

> <r_epik_Ionization_Penalty_Charging>
0.00267875

> <r_epik_Ionization_Penalty_Neutral>
4.46125e-06

> <r_epik_State_Penalty>
0.00186642

> <r_epik_Charging_Adjusted_Penalty>
0.00454517

> <i_epik_Tot_Q>
1

> <i_epik_Tot_abs_Q>
1

> <r_epik_Metal_State_Penalty>
-0

> <b_epik_Metal_Only>
0

> <s_lp_Force_Field>
OPLS_2005

> <r_lp_Energy>
23.935

> <b_lp_Chiralities_Consistent>
1

> <s_lp_Variant>
AV-unprocessed.smi:2095-3

> <Gold.Version>
5.8.1

> <Gold.Id.Protein>
6NUR|6NUR_protein|mol2

> <Gold.PLP.Fitness>
46.3829

> <Gold.PLP.PLP>
-41.1425

> <Gold.PLP.part.hbond>
-3.7383

> <Gold.PLP.part.metal>
0.0000

> <Gold.PLP.part.buried>
-2.9435

> <Gold.PLP.part.nonpolar>
-33.9256

> <Gold.PLP.part.repulsive>
0.1089

> <Gold.PLP.ligand.clash>
0.0000

> <Gold.PLP.ligand.torsion>
0.4366

> <Gold.PLP.Chemscore.Hbond>
1.0000

> <Gold.PLP.Chemscore.CHOScore>
1.0000

> <Gold.PLP.Chemscore.Metal>
0.0000

> <Gold.Chemscore.Hbonds>
donor molecule, donor type, donor heavy atom, donor atom, acceptor molecule, acceptor atom, score
      L1  H    10    36       P1  8028  0.94
      P1  H  6934  6946       L1    17  0.38
      L1  C    15    39       P1  8029  0.96

> <Gold.PLP.Chemscore.Internal.Correction>
0.1136

> <Gold.Rescore>
     Score         DG    S(hbond)    S(metal)    S(lipo)     H(rot)  DE(clash)    DE(int)     intcor
     12.18     -14.20       0.97        0.00     104.66       2.64       0.05       1.97       ----

> <Gold.Chemscore.Fitness>
12.1776

> <Gold.Chemscore.DG>
-14.2017

> <Gold.Chemscore.ZeroCoef>
-5.4800

> <Gold.Chemscore.Hbond>
0.9716

> <Gold.Chemscore.Metal>
0.0000

> <Gold.Chemscore.Lipo>
104.6587

> <Gold.Chemscore.Internal_Hbond>
0.0000

> <Gold.Chemscore.DEClash>
0.0500

> <Gold.Chemscore.DEInternal>
1.9741

> <Gold.Chemscore.Rot>
2.6439

> <Gold.Chemscore.Internal.Correction>
   9.000000E+99

> <Gold.Chemscore.Hbonds>
donor molecule, donor type, donor heavy atom, donor atom, acceptor molecule, acceptor atom, score
      L1  H    10    36       P1  8028  0.81
      P1  H  6934  6946       L1    17  0.01

> <Gold.Chemscore.Hbond.Weighted>
-3.2451

> <Gold.Chemscore.Metal.Weighted>
-0.0000

> <Gold.Chemscore.Lipo.Weighted>
-12.2451

> <Gold.Chemscore.Internal_Hbond.Weighted>
0.0000

> <Gold.Chemscore.DEClash.Weighted>
0.0500

> <Gold.Chemscore.DEInternal.Weighted>
1.9741

> <Gold.Chemscore.Rot.Weighted>
6.7685

> <Gold.Chemscore.Internal.Correction.Weighted>
   9.000000E+99

> <Gold.Protein.RotatedTorsions>
[ 6907 6896 6895 6894 ] final   21.08 input  -60.11 | X-H torsion
[ 7974 7965 7964 7962 ] final   -1.83 input  175.53 | X-H torsion
[ 8008 7997 7996 7995 ] final   94.56 input   59.86 | X-H torsion
[ 10167 10162 10161 10158 ] final  166.99 input  -65.29 | X-H torsion
[ 10718 10713 10712 10709 ] final   71.38 input   66.30 | X-H torsion
[ 10763 10752 10751 10750 ] final  -37.24 input  -60.55 | X-H torsion
[ 11005 11000 10999 10996 ] final   29.48 input  -57.11 | X-H torsion

> <Gold.Protein.ActiveResidues>
 VAL166  LYS551  ARG553  GLY616  TRP617  ASP618  TYR619  PRO620  LYS621  CYS622 
 ASP623  PHE694  ASN695  SER759  ASP760  ASP761  ALA762  ILE779  LEU786  VAL792 
 PHE793  MET794  SER795  GLU796  ALA797  LYS798  CYS799  TRP800  GLU811  SER814 

> <Gold.Protein.RotatedAtoms>
  151.9063  135.0358  160.0510 H   0  0  0  0  0  0  0  0  0  0  0  0  # atno 6907 bound_to 6896
  152.2317  133.5059  159.5228 H   0  0  0  0  0  0  0  0  0  0  0  0  # atno 6908 bound_to 6896
  150.7027  134.1124  159.4047 H   0  0  0  0  0  0  0  0  0  0  0  0  # atno 6909 bound_to 6896
  146.2412  140.1479  142.8334 H   0  0  0  0  0  0  0  0  0  0  0  0  # atno 7974 bound_to 7965
  156.0593  140.3298  155.7442 H   0  0  0  0  0  0  0  0  0  0  0  0  # atno 8008 bound_to 7997
  155.5480  140.0607  157.2873 H   0  0  0  0  0  0  0  0  0  0  0  0  # atno 8009 bound_to 7997
  154.4473  140.1899  156.0646 H   0  0  0  0  0  0  0  0  0  0  0  0  # atno 8010 bound_to 7997
  139.4936  144.3969  151.9454 H   0  0  0  0  0  0  0  0  0  0  0  0  # atno 10167 bound_to 10162
  157.6448  130.9525  150.0781 H   0  0  0  0  0  0  0  0  0  0  0  0  # atno 10718 bound_to 10713
  153.8929  135.6810  153.4759 H   0  0  0  0  0  0  0  0  0  0  0  0  # atno 10763 bound_to 10752
  153.1171  135.4756  154.9131 H   0  0  0  0  0  0  0  0  0  0  0  0  # atno 10764 bound_to 10752
  154.7613  135.3211  154.8326 H   0  0  0  0  0  0  0  0  0  0  0  0  # atno 10765 bound_to 10752
  140.3045  134.2719  155.7747 H   0  0  0  0  0  0  0  0  0  0  0  0  # atno 11005 bound_to 11000
  145.0192  140.8779  143.5177 LP  0  0  0  0  0  0  0  0  0  0  0  0  # atno 17320 bound_to 7965
  145.1525  139.2506  143.5433 LP  0  0  0  0  0  0  0  0  0  0  0  0  # atno 17321 bound_to 7965
  140.3408  144.3206  150.5968 LP  0  0  0  0  0  0  0  0  0  0  0  0  # atno 17342 bound_to 10162
  140.5568  143.2198  151.7834 LP  0  0  0  0  0  0  0  0  0  0  0  0  # atno 17343 bound_to 10162
  156.1765  130.3648  149.9093 LP  0  0  0  0  0  0  0  0  0  0  0  0  # atno 17370 bound_to 10713
  156.7056  130.8950  151.3604 LP  0  0  0  0  0  0  0  0  0  0  0  0  # atno 17371 bound_to 10713
  141.2121  133.7667  156.9816 LP  0  0  0  0  0  0  0  0  0  0  0  0  # atno 17394 bound_to 11000
  140.1080  134.9495  157.2022 LP  0  0  0  0  0  0  0  0  0  0  0  0  # atno 17395 bound_to 11000

$$$$
