AV-unprocessed.smi:2636|AV-procd|sdf|10260|dock7
  -GOLD-   2272014273D 1   1.00000     0.00000
 Structure written by MMmdl.
 35 36  0  0  0  0  0  0  0  0  2 V2000
  147.8551  141.5631  156.5256 C   0  0  0  0  0  0  0  0  0  0  0  0
  149.2224  140.9328  156.3361 C   0  0  0  0  0  0  0  0  0  0  0  0
  149.9057  140.3548  157.3452 C   0  0  0  0  0  0  0  0  0  0  0  0
  151.1761  139.7839  157.1593 N   0  0  0  0  0  0  0  0  0  0  0  0
  151.8334  139.1440  158.2930 C   0  0  0  0  0  0  0  0  0  0  0  0
  152.2186  140.0765  159.2642 O   0  0  0  0  0  0  0  0  0  0  0  0
  153.6125  140.1869  159.5385 C   0  0  0  0  0  0  0  0  0  0  0  0
  153.8771  140.8115  160.8989 C   0  0  0  0  0  0  0  0  0  0  0  0
  153.5826  142.0591  161.3155 C   0  0  0  0  0  0  0  0  0  0  0  0
  152.8607  143.1276  160.6032 C   0  0  0  0  0  0  0  0  0  0  0  0
  152.0803  144.0988  161.2709 C   0  0  0  0  0  0  0  0  0  0  0  0
  151.3899  145.0873  160.5429 C   0  0  0  0  0  0  0  0  0  0  0  0
  151.4785  145.1199  159.1389 C   0  0  0  0  0  0  0  0  0  0  0  0
  152.2601  144.1633  158.4651 C   0  0  0  0  0  0  0  0  0  0  0  0
  152.9444  143.1721  159.1948 C   0  0  0  0  0  0  0  0  0  0  0  0
  151.7582  139.7863  155.9235 C   0  0  0  0  0  0  0  0  0  0  0  0
  152.8679  139.2717  155.7802 O   0  0  0  0  0  0  0  0  0  0  0  0
  151.0818  140.3651  154.8848 N   0  5  0  0  0  0  0  0  0  0  0  0
  149.8497  140.9390  155.0123 C   0  0  0  0  0  0  0  0  0  0  0  0
  149.2609  141.4527  154.0614 O   0  0  0  0  0  0  0  0  0  0  0  0
  147.5300  141.4908  157.5637 H   0  0  0  0  0  0  0  0  0  0  0  0
  147.1146  141.0633  155.9006 H   0  0  0  0  0  0  0  0  0  0  0  0
  147.8812  142.6183  156.2526 H   0  0  0  0  0  0  0  0  0  0  0  0
  149.5211  140.2954  158.3527 H   0  0  0  0  0  0  0  0  0  0  0  0
  151.1339  138.4368  158.7417 H   0  0  0  0  0  0  0  0  0  0  0  0
  152.6960  138.5717  157.9496 H   0  0  0  0  0  0  0  0  0  0  0  0
  154.0912  139.2179  159.4208 H   0  0  0  0  0  0  0  0  0  0  0  0
  154.0478  140.8397  158.7823 H   0  0  0  0  0  0  0  0  0  0  0  0
  154.3806  140.1587  161.5967 H   0  0  0  0  0  0  0  0  0  0  0  0
  153.8875  142.3166  162.3195 H   0  0  0  0  0  0  0  0  0  0  0  0
  152.0178  144.1081  162.3485 H   0  0  0  0  0  0  0  0  0  0  0  0
  150.7956  145.8236  161.0636 H   0  0  0  0  0  0  0  0  0  0  0  0
  150.9486  145.8774  158.5806 H   0  0  0  0  0  0  0  0  0  0  0  0
  152.3288  144.1842  157.3877 H   0  0  0  0  0  0  0  0  0  0  0  0
  153.5327  142.4370  158.6650 H   0  0  0  0  0  0  0  0  0  0  0  0
  1  2  1  0  0  0  0
  1 21  1  0  0  0  0
  1 22  1  0  0  0  0
  1 23  1  0  0  0  0
  2 19  1  0  0  0  0
  2  3  2  0  0  0  0
  3  4  1  0  0  0  0
  3 24  1  0  0  0  0
  4  5  1  0  0  0  0
  4 16  1  0  0  0  0
  5  6  1  0  0  0  0
  5 25  1  0  0  0  0
  5 26  1  0  0  0  0
  6  7  1  0  0  0  0
  7  8  1  0  0  0  0
  7 27  1  0  0  0  0
  7 28  1  0  0  0  0
  8  9  2  0  0  0  0
  8 29  1  0  0  0  0
  9 10  1  0  0  0  0
  9 30  1  0  0  0  0
 10 15  1  0  0  0  0
 10 11  2  0  0  0  0
 11 12  1  0  0  0  0
 11 31  1  0  0  0  0
 12 13  2  0  0  0  0
 12 32  1  0  0  0  0
 13 14  1  0  0  0  0
 13 33  1  0  0  0  0
 14 15  2  0  0  0  0
 14 34  1  0  0  0  0
 15 35  1  0  0  0  0
 16 17  2  0  0  0  0
 16 18  1  0  0  0  0
 18 19  1  0  0  0  0
 19 20  2  0  0  0  0
M  CHG  1  18  -1
M  END
> <s_m_source_file>
AV-unprocessed.smi

> <i_m_source_file_index>
2636

> <i_lp_mmshare_version>
43012

> <i_f3d_flags>
0

> <s_epik_input>
Tz1jMVtuSF1jKD1PKW4oW2NIXWMxW0NIM10pW0NIMl1PW0NIMl0vW0NIXT1bQ0hdL2MyW2NIXVtjSF1bY0hdW2NIXVtjSF0y

> <s_epik_cmdline>
J2VwaWtfcHl0aG9uJywgJy1waCcsICc3LjAnLCAnLXRuJywgJzgnLCAnLW1hJywgJzIwMCcsICctbWV0YWxfYmluZGluZycsICctaW1hZScsICc8aW5maWxlLm1hZT4nLCAnLW9tYWUnLCAnPG91dGZpbGUubWFlPic=

> <r_lp_tautomer_probability>
0.999537

> <r_epik_Ionization_Penalty>
3.43625

> <r_epik_Ionization_Penalty_Charging>
7.29021e-08

> <r_epik_Ionization_Penalty_Neutral>
3.43625

> <r_epik_State_Penalty>
3.43567

> <r_epik_Charging_Adjusted_Penalty>
3.43567

> <i_epik_Tot_Q>
-1

> <i_epik_Tot_abs_Q>
1

> <r_epik_Metal_State_Penalty>
0.168611

> <b_epik_Metal_Only>
1

> <s_epik_Chemistry_Notes>
This compound contains an acetal/aminal-like group ( X-CH(R)-Y where X, Y are N, S, or O) that may be acid/base labile, releasing an aldehyde.

> <s_lp_Force_Field>
OPLS_2005

> <r_lp_Energy>
10.6813

> <b_lp_Chiralities_Consistent>
1

> <s_lp_Variant>
AV-unprocessed.smi:2636-4

> <Gold.Version>
5.8.1

> <Gold.Id.Protein>
6NUR|6NUR_protein|mol2

> <Gold.PLP.Fitness>
56.1328

> <Gold.PLP.PLP>
-49.4151

> <Gold.PLP.part.hbond>
-4.0000

> <Gold.PLP.part.metal>
0.0000

> <Gold.PLP.part.buried>
-6.0895

> <Gold.PLP.part.nonpolar>
-40.4227

> <Gold.PLP.part.repulsive>
0.2547

> <Gold.PLP.ligand.clash>
0.0000

> <Gold.PLP.ligand.torsion>
0.7330

> <Gold.PLP.Chemscore.Hbond>
2.7200

> <Gold.PLP.Chemscore.CHOScore>
0.0000

> <Gold.PLP.Chemscore.Metal>
0.0000

> <Gold.Chemscore.Hbonds>
donor molecule, donor type, donor heavy atom, donor atom, acceptor molecule, acceptor atom, score
      P1  H  7989  7998       L1    18  1.00
      P1  H  7997  8008       L1    17  1.00
      P1  H  8011  8017       L1    20  0.66

> <Gold.PLP.Chemscore.Internal.Correction>
0.0237

> <Gold.Rescore>
     Score         DG    S(hbond)    S(metal)    S(lipo)     H(rot)  DE(clash)    DE(int)     intcor
     20.66     -21.75       2.40        0.00     111.76       1.88       0.14       0.95       ----

> <Gold.Chemscore.Fitness>
20.6602

> <Gold.Chemscore.DG>
-21.7457

> <Gold.Chemscore.ZeroCoef>
-5.4800

> <Gold.Chemscore.Hbond>
2.3960

> <Gold.Chemscore.Metal>
0.0000

> <Gold.Chemscore.Lipo>
111.7609

> <Gold.Chemscore.Internal_Hbond>
0.0000

> <Gold.Chemscore.DEClash>
0.1367

> <Gold.Chemscore.DEInternal>
0.9488

> <Gold.Chemscore.Rot>
1.8800

> <Gold.Chemscore.Internal.Correction>
   9.000000E+99

> <Gold.Chemscore.Hbonds>
donor molecule, donor type, donor heavy atom, donor atom, acceptor molecule, acceptor atom, score
      P1  H  7989  7998       L1    18  0.48
      P1  H  7997  8008       L1    17  0.99
      P1  H  8011  8017       L1    20  0.64

> <Gold.Chemscore.Hbond.Weighted>
-8.0025

> <Gold.Chemscore.Metal.Weighted>
-0.0000

> <Gold.Chemscore.Lipo.Weighted>
-13.0760

> <Gold.Chemscore.Internal_Hbond.Weighted>
0.0000

> <Gold.Chemscore.DEClash.Weighted>
0.1367

> <Gold.Chemscore.DEInternal.Weighted>
0.9488

> <Gold.Chemscore.Rot.Weighted>
4.8129

> <Gold.Chemscore.Internal.Correction.Weighted>
   9.000000E+99

> <Gold.Protein.RotatedTorsions>
[ 6907 6896 6895 6894 ] final   97.98 input  -60.11 | X-H torsion
[ 7974 7965 7964 7962 ] final    6.28 input  175.53 | X-H torsion
[ 8008 7997 7996 7995 ] final  -32.39 input   59.86 | X-H torsion
[ 10167 10162 10161 10158 ] final   86.50 input  -65.29 | X-H torsion
[ 10718 10713 10712 10709 ] final  -48.59 input   66.30 | X-H torsion
[ 10763 10752 10751 10750 ] final  -31.85 input  -60.55 | X-H torsion
[ 11005 11000 10999 10996 ] final  -74.00 input  -57.11 | X-H torsion

> <Gold.Protein.ActiveResidues>
 VAL166  LYS551  ARG553  GLY616  TRP617  ASP618  TYR619  PRO620  LYS621  CYS622 
 ASP623  PHE694  ASN695  SER759  ASP760  ASP761  ALA762  ILE779  LEU786  VAL792 
 PHE793  MET794  SER795  GLU796  ALA797  LYS798  CYS799  TRP800  GLU811  SER814 

> <Gold.Protein.RotatedAtoms>
  152.5416  134.0650  159.8168 H   0  0  0  0  0  0  0  0  0  0  0  0  # atno 6907 bound_to 6896
  151.0772  133.5411  159.2630 H   0  0  0  0  0  0  0  0  0  0  0  0  # atno 6908 bound_to 6896
  151.2252  135.0542  159.9019 H   0  0  0  0  0  0  0  0  0  0  0  0  # atno 6909 bound_to 6896
  146.2436  140.0257  142.8394 H   0  0  0  0  0  0  0  0  0  0  0  0  # atno 7974 bound_to 7965
  154.4182  140.1739  156.1719 H   0  0  0  0  0  0  0  0  0  0  0  0  # atno 8008 bound_to 7997
  155.9754  140.3382  155.6589 H   0  0  0  0  0  0  0  0  0  0  0  0  # atno 8009 bound_to 7997
  155.6571  140.0697  157.2558 H   0  0  0  0  0  0  0  0  0  0  0  0  # atno 8010 bound_to 7997
  139.8869  144.6408  150.8781 H   0  0  0  0  0  0  0  0  0  0  0  0  # atno 10167 bound_to 10162
  156.1973  130.4155  149.9288 H   0  0  0  0  0  0  0  0  0  0  0  0  # atno 10718 bound_to 10713
  153.8041  135.6888  153.4851 H   0  0  0  0  0  0  0  0  0  0  0  0  # atno 10763 bound_to 10752
  153.1670  135.4557  154.9849 H   0  0  0  0  0  0  0  0  0  0  0  0  # atno 10764 bound_to 10752
  154.7994  135.3332  154.7527 H   0  0  0  0  0  0  0  0  0  0  0  0  # atno 10765 bound_to 10752
  141.1630  133.6897  156.7298 H   0  0  0  0  0  0  0  0  0  0  0  0  # atno 11005 bound_to 11000
  145.1201  140.9457  143.4606 LP  0  0  0  0  0  0  0  0  0  0  0  0  # atno 17320 bound_to 7965
  145.0490  139.3197  143.5938 LP  0  0  0  0  0  0  0  0  0  0  0  0  # atno 17321 bound_to 7965
  140.7734  143.3541  151.1956 LP  0  0  0  0  0  0  0  0  0  0  0  0  # atno 17342 bound_to 10162
  139.7145  143.9323  152.2961 LP  0  0  0  0  0  0  0  0  0  0  0  0  # atno 17343 bound_to 10162
  156.7009  130.8933  151.3599 LP  0  0  0  0  0  0  0  0  0  0  0  0  # atno 17370 bound_to 10713
  157.6965  130.9287  150.0660 LP  0  0  0  0  0  0  0  0  0  0  0  0  # atno 17371 bound_to 10713
  140.2754  134.8359  157.3885 LP  0  0  0  0  0  0  0  0  0  0  0  0  # atno 17394 bound_to 11000
  140.1483  134.4883  155.7980 LP  0  0  0  0  0  0  0  0  0  0  0  0  # atno 17395 bound_to 11000

$$$$
