AV-unprocessed.smi:1047|AV-procd|sdf|4569|dock6
  -GOLD-   22720 3 23D 1   1.00000     0.00000
 Structure written by MMmdl.
 56 58  0  0  0  0  0  0  0  0  2 V2000
  144.2216  131.8505  150.8373 C   0  0  0  0  0  0  0  0  0  0  0  0
  144.9059  133.1745  150.4678 C   0  0  0  0  0  0  0  0  0  0  0  0
  145.0320  134.1311  151.5663 N   0  0  0  0  0  0  0  0  0  0  0  0
  143.7274  134.4407  152.1403 C   0  0  0  0  0  0  0  0  0  0  0  0
  143.8347  135.4477  153.2968 C   0  0  0  0  0  0  0  0  0  0  0  0
  144.4818  136.6293  152.8366 O   0  0  0  0  0  0  0  0  0  0  0  0
  145.7867  136.3843  152.3172 C   0  0  2  0  0  0  0  0  0  0  0  0
  146.3773  137.7238  151.8573 C   0  0  0  0  0  0  0  0  0  0  0  0
  146.1542  138.7809  152.8635 N   0  3  0  0  0  0  0  0  0  0  0  0
  147.1259  139.8894  152.7891 C   0  0  0  0  0  0  0  0  0  0  0  0
  147.1285  140.7282  154.0807 C   0  0  2  0  0  0  0  0  0  0  0  0
  145.9556  141.5185  154.1133 O   0  0  0  0  0  0  0  0  0  0  0  0
  148.3625  141.6476  154.2167 C   0  0  0  0  0  0  0  0  0  0  0  0
  149.4815  141.0218  154.9035 N   0  0  0  0  0  0  0  0  0  0  0  0
  150.0825  139.8594  154.5826 C   0  0  0  0  0  0  0  0  0  0  0  0
  151.0860  139.4580  155.3568 N   0  0  0  0  0  0  0  0  0  0  0  0
  151.1529  140.4848  156.2824 C   0  0  0  0  0  0  0  0  0  0  0  0
  152.0104  140.6664  157.3896 C   0  0  0  0  0  0  0  0  0  0  0  0
  151.8957  141.8070  158.2157 C   0  0  0  0  0  0  0  0  0  0  0  0
  152.8338  141.9581  159.4003 C   0  0  0  0  0  0  0  0  0  0  0  0
  150.9141  142.7913  157.9357 C   0  0  0  0  0  0  0  0  0  0  0  0
  150.7727  144.0251  158.8097 C   0  0  0  0  0  0  0  0  0  0  0  0
  150.0516  142.6270  156.8320 C   0  0  0  0  0  0  0  0  0  0  0  0
  150.1692  141.4833  156.0220 C   0  0  0  0  0  0  0  0  0  0  0  0
  145.6764  135.3762  151.1549 C   0  0  0  0  0  0  0  0  0  0  0  0
  144.0639  131.2410  149.9473 H   0  0  0  0  0  0  0  0  0  0  0  0
  143.2472  132.0256  151.2945 H   0  0  0  0  0  0  0  0  0  0  0  0
  144.8203  131.2602  151.5305 H   0  0  0  0  0  0  0  0  0  0  0  0
  145.8880  132.9690  150.0387 H   0  0  0  0  0  0  0  0  0  0  0  0
  144.3202  133.6318  149.6694 H   0  0  0  0  0  0  0  0  0  0  0  0
  143.0706  134.8468  151.3691 H   0  0  0  0  0  0  0  0  0  0  0  0
  143.2544  133.5268  152.5019 H   0  0  0  0  0  0  0  0  0  0  0  0
  142.8431  135.7055  153.6687 H   0  0  0  0  0  0  0  0  0  0  0  0
  144.3912  135.0204  154.1324 H   0  0  0  0  0  0  0  0  0  0  0  0
  146.4161  135.9616  153.1025 H   0  0  0  0  0  0  0  0  0  0  0  0
  147.4512  137.6187  151.6971 H   0  0  0  0  0  0  0  0  0  0  0  0
  145.9374  138.0216  150.9045 H   0  0  0  0  0  0  0  0  0  0  0  0
  145.2283  139.1621  152.7276 H   0  0  0  0  0  0  0  0  0  0  0  0
  148.1164  139.4621  152.6292 H   0  0  0  0  0  0  0  0  0  0  0  0
  146.9006  140.5122  151.9219 H   0  0  0  0  0  0  0  0  0  0  0  0
  147.1046  140.0598  154.9424 H   0  0  0  0  0  0  0  0  0  0  0  0
  145.2965  141.1046  153.5767 H   0  0  0  0  0  0  0  0  0  0  0  0
  148.7002  141.9734  153.2317 H   0  0  0  0  0  0  0  0  0  0  0  0
  148.0920  142.5536  154.7599 H   0  0  0  0  0  0  0  0  0  0  0  0
  149.7580  139.2693  153.7375 H   0  0  0  0  0  0  0  0  0  0  0  0
  152.7589  139.9173  157.6019 H   0  0  0  0  0  0  0  0  0  0  0  0
  153.4063  142.8826  159.3212 H   0  0  0  0  0  0  0  0  0  0  0  0
  153.5422  141.1312  159.4555 H   0  0  0  0  0  0  0  0  0  0  0  0
  152.2693  141.9779  160.3330 H   0  0  0  0  0  0  0  0  0  0  0  0
  149.9779  144.6793  158.4501 H   0  0  0  0  0  0  0  0  0  0  0  0
  151.6998  144.5987  158.8150 H   0  0  0  0  0  0  0  0  0  0  0  0
  150.5346  143.7415  159.8351 H   0  0  0  0  0  0  0  0  0  0  0  0
  149.3013  143.3707  156.6093 H   0  0  0  0  0  0  0  0  0  0  0  0
  146.6771  135.1719  150.7749 H   0  0  0  0  0  0  0  0  0  0  0  0
  145.1164  135.8269  150.3337 H   0  0  0  0  0  0  0  0  0  0  0  0
  146.2003  138.3689  153.7844 H   0  0  0  0  0  0  0  0  0  0  0  0
  1  2  1  0  0  0  0
  1 26  1  0  0  0  0
  1 27  1  0  0  0  0
  1 28  1  0  0  0  0
  2  3  1  0  0  0  0
  2 29  1  0  0  0  0
  2 30  1  0  0  0  0
  3 25  1  0  0  0  0
  3  4  1  0  0  0  0
  4  5  1  0  0  0  0
  4 31  1  0  0  0  0
  4 32  1  0  0  0  0
  5  6  1  0  0  0  0
  5 33  1  0  0  0  0
  5 34  1  0  0  0  0
  6  7  1  0  0  0  0
  7  8  1  0  0  0  0
  7 25  1  0  0  0  0
  7 35  1  0  0  0  0
  8  9  1  0  0  0  0
  8 36  1  0  0  0  0
  8 37  1  0  0  0  0
  9 10  1  0  0  0  0
  9 38  1  0  0  0  0
  9 56  1  0  0  0  0
 10 11  1  0  0  0  0
 10 39  1  0  0  0  0
 10 40  1  0  0  0  0
 11 12  1  0  0  0  0
 11 13  1  0  0  0  0
 11 41  1  0  0  0  0
 12 42  1  0  0  0  0
 13 14  1  0  0  0  0
 13 43  1  0  0  0  0
 13 44  1  0  0  0  0
 14 24  1  0  0  0  0
 14 15  1  0  0  0  0
 15 16  2  0  0  0  0
 15 45  1  0  0  0  0
 16 17  1  0  0  0  0
 17 24  2  0  0  0  0
 17 18  1  0  0  0  0
 18 19  2  0  0  0  0
 18 46  1  0  0  0  0
 19 20  1  0  0  0  0
 19 21  1  0  0  0  0
 20 47  1  0  0  0  0
 20 48  1  0  0  0  0
 20 49  1  0  0  0  0
 21 22  1  0  0  0  0
 21 23  2  0  0  0  0
 22 50  1  0  0  0  0
 22 51  1  0  0  0  0
 22 52  1  0  0  0  0
 23 24  1  0  0  0  0
 23 53  1  0  0  0  0
 25 54  1  0  0  0  0
 25 55  1  0  0  0  0
M  CHG  1   9   1
M  END
> <s_m_source_file>
AV-unprocessed.smi

> <i_m_source_file_index>
1047

> <i_lp_mmshare_version>
43012

> <i_f3d_flags>
0

> <s_epik_input>
W0NIM11bQ0gyXU4xW0NIMl1bQ0gyXU9bQ0BIXShbQ0gyXTEpW0NIMl1bTkhdW0NIMl1bQ0BIXShbT0hdKVtDSDJdbihbY0hdbjIpYyhjMjMpW2NIXWMoW0NIM10pYyhbY0hdMylbQ0gzXQ==

> <s_epik_cmdline>
J2VwaWtfcHl0aG9uJywgJy1waCcsICc3LjAnLCAnLXRuJywgJzgnLCAnLW1hJywgJzIwMCcsICctbWV0YWxfYmluZGluZycsICctaW1hZScsICc8aW5maWxlLm1hZT4nLCAnLW9tYWUnLCAnPG91dGZpbGUubWFlPic=

> <r_epik_Ionization_Penalty>
0.692425

> <r_epik_Ionization_Penalty_Charging>
0.0243549

> <r_epik_Ionization_Penalty_Neutral>
0.66807

> <r_epik_State_Penalty>
0.592789

> <r_epik_Charging_Adjusted_Penalty>
0.617144

> <i_epik_Tot_Q>
1

> <i_epik_Tot_abs_Q>
1

> <r_epik_Metal_State_Penalty>
0.508021

> <b_epik_Metal_Only>
0

> <s_lp_Force_Field>
OPLS_2005

> <r_lp_Energy>
30.0257

> <b_lp_Chiralities_Consistent>
1

> <s_lp_Variant>
AV-unprocessed.smi:1047-10

> <Gold.Version>
5.8.1

> <Gold.Id.Protein>
6NUR|6NUR_protein|mol2

> <Gold.PLP.Fitness>
58.2552

> <Gold.PLP.PLP>
-47.6705

> <Gold.PLP.part.hbond>
-2.1928

> <Gold.PLP.part.metal>
0.0000

> <Gold.PLP.part.buried>
1.6705

> <Gold.PLP.part.nonpolar>
-47.3575

> <Gold.PLP.part.repulsive>
0.3737

> <Gold.PLP.ligand.clash>
0.0000

> <Gold.PLP.ligand.torsion>
0.8397

> <Gold.PLP.Chemscore.Hbond>
2.9913

> <Gold.PLP.Chemscore.CHOScore>
0.9878

> <Gold.PLP.Chemscore.Metal>
0.0000

> <Gold.Chemscore.Hbonds>
donor molecule, donor type, donor heavy atom, donor atom, acceptor molecule, acceptor atom, score
      L1  H     9    38       P1 10175  1.95
      L1  H    12    42       P1 10175  0.98
      L1  C    15    45       P1  7957  0.58

> <Gold.PLP.Chemscore.Internal.Correction>
0.3269

> <Gold.Rescore>
     Score         DG    S(hbond)    S(metal)    S(lipo)     H(rot)  DE(clash)    DE(int)     intcor
     17.54     -19.38       1.81        0.00     124.13       2.60       0.56       1.28       ----

> <Gold.Chemscore.Fitness>
17.5428

> <Gold.Chemscore.DG>
-19.3811

> <Gold.Chemscore.ZeroCoef>
-5.4800

> <Gold.Chemscore.Hbond>
1.8103

> <Gold.Chemscore.Metal>
0.0000

> <Gold.Chemscore.Lipo>
124.1282

> <Gold.Chemscore.Internal_Hbond>
0.0000

> <Gold.Chemscore.DEClash>
0.5570

> <Gold.Chemscore.DEInternal>
1.2813

> <Gold.Chemscore.Rot>
2.6049

> <Gold.Chemscore.Internal.Correction>
   9.000000E+99

> <Gold.Chemscore.Hbonds>
donor molecule, donor type, donor heavy atom, donor atom, acceptor molecule, acceptor atom, score
      L1  H     9    38       P1 10175  0.92
      L1  H    12    42       P1 10175  0.51

> <Gold.Chemscore.Hbond.Weighted>
-6.0466

> <Gold.Chemscore.Metal.Weighted>
-0.0000

> <Gold.Chemscore.Lipo.Weighted>
-14.5230

> <Gold.Chemscore.Internal_Hbond.Weighted>
0.0000

> <Gold.Chemscore.DEClash.Weighted>
0.5570

> <Gold.Chemscore.DEInternal.Weighted>
1.2813

> <Gold.Chemscore.Rot.Weighted>
6.6685

> <Gold.Chemscore.Internal.Correction.Weighted>
   9.000000E+99

> <Gold.Protein.RotatedTorsions>
[ 6907 6896 6895 6894 ] final  -50.90 input  -60.11 | X-H torsion
[ 7974 7965 7964 7962 ] final  137.34 input  175.53 | X-H torsion
[ 8008 7997 7996 7995 ] final    6.58 input   59.86 | X-H torsion
[ 10167 10162 10161 10158 ] final  102.86 input  -65.29 | X-H torsion
[ 10718 10713 10712 10709 ] final   83.43 input   66.30 | X-H torsion
[ 10763 10752 10751 10750 ] final  163.68 input  -60.55 | X-H torsion
[ 11005 11000 10999 10996 ] final   28.88 input  -57.11 | X-H torsion

> <Gold.Protein.ActiveResidues>
 VAL166  LYS551  ARG553  GLY616  TRP617  ASP618  TYR619  PRO620  LYS621  CYS622 
 ASP623  PHE694  ASN695  SER759  ASP760  ASP761  ALA762  ILE779  LEU786  VAL792 
 PHE793  MET794  SER795  GLU796  ALA797  LYS798  CYS799  TRP800  GLU811  SER814 

> <Gold.Protein.RotatedAtoms>
  150.8662  134.8026  159.7120 H   0  0  0  0  0  0  0  0  0  0  0  0  # atno 6907 bound_to 6896
  152.4683  134.5019  159.9737 H   0  0  0  0  0  0  0  0  0  0  0  0  # atno 6908 bound_to 6896
  151.5115  133.3445  159.2921 H   0  0  0  0  0  0  0  0  0  0  0  0  # atno 6909 bound_to 6896
  144.9477  139.4855  143.5541 H   0  0  0  0  0  0  0  0  0  0  0  0  # atno 7974 bound_to 7965
  154.7428  140.2752  155.6358 H   0  0  0  0  0  0  0  0  0  0  0  0  # atno 8008 bound_to 7997
  156.2877  140.2693  156.2086 H   0  0  0  0  0  0  0  0  0  0  0  0  # atno 8009 bound_to 7997
  155.0236  140.0371  157.2437 H   0  0  0  0  0  0  0  0  0  0  0  0  # atno 8010 bound_to 7997
  139.7313  144.7035  151.0717 H   0  0  0  0  0  0  0  0  0  0  0  0  # atno 10167 bound_to 10162
  157.6878  131.0090  150.2522 H   0  0  0  0  0  0  0  0  0  0  0  0  # atno 10718 bound_to 10713
  154.2974  135.2759  155.2627 H   0  0  0  0  0  0  0  0  0  0  0  0  # atno 10763 bound_to 10752
  154.5078  135.5790  153.6585 H   0  0  0  0  0  0  0  0  0  0  0  0  # atno 10764 bound_to 10752
  152.9905  135.6174  154.3143 H   0  0  0  0  0  0  0  0  0  0  0  0  # atno 10765 bound_to 10752
  140.3108  134.2651  155.7734 H   0  0  0  0  0  0  0  0  0  0  0  0  # atno 11005 bound_to 11000
  146.3310  139.8541  142.8868 LP  0  0  0  0  0  0  0  0  0  0  0  0  # atno 17320 bound_to 7965
  145.2892  141.0162  143.3673 LP  0  0  0  0  0  0  0  0  0  0  0  0  # atno 17321 bound_to 7965
  140.7771  143.5039  150.9736 LP  0  0  0  0  0  0  0  0  0  0  0  0  # atno 17342 bound_to 10162
  139.8727  143.7171  152.3165 LP  0  0  0  0  0  0  0  0  0  0  0  0  # atno 17343 bound_to 10162
  156.3117  130.3773  149.7656 LP  0  0  0  0  0  0  0  0  0  0  0  0  # atno 17370 bound_to 10713
  156.5254  130.8234  151.3218 LP  0  0  0  0  0  0  0  0  0  0  0  0  # atno 17371 bound_to 10713
  141.2108  133.7707  156.9905 LP  0  0  0  0  0  0  0  0  0  0  0  0  # atno 17394 bound_to 11000
  140.1026  134.9526  157.1946 LP  0  0  0  0  0  0  0  0  0  0  0  0  # atno 17395 bound_to 11000

$$$$
