AV-unprocessed.smi:295|AV-procd|sdf|2254|dock5
  -GOLD-   2262022143D 1   1.00000     0.00000
 Structure written by MMmdl.
 35 36  0  0  0  0  0  0  0  0  1 V2000
  151.5946  140.5751  158.8575 C   0  0  0  0  0  0  0  0  0  0  0  0
  151.8925  142.0851  158.8039 C   0  0  2  0  0  0  0  0  0  0  0  0
  152.3624  142.5974  160.1800 C   0  0  0  0  0  0  0  0  0  0  0  0
  152.6805  144.1001  160.1509 C   0  0  0  0  0  0  0  0  0  0  0  0
  151.4720  144.9108  159.6629 C   0  0  0  0  0  0  0  0  0  0  0  0
  150.9991  144.4206  158.2868 C   0  0  0  0  0  0  0  0  0  0  0  0
  150.6831  142.9115  158.3007 C   0  0  1  0  0  0  0  0  0  0  0  0
  150.3051  142.4755  156.9603 N   0  0  0  0  0  0  0  0  0  0  0  0
  149.2451  141.7138  156.6492 C   0  0  0  0  0  0  0  0  0  0  0  0
  148.3983  141.3562  157.4670 O   0  0  0  0  0  0  0  0  0  0  0  0
  149.1343  141.2757  155.1878 C   0  0  0  0  0  0  0  0  0  0  0  0
  149.9967  140.1374  154.9223 N   0  0  0  0  0  0  0  0  0  0  0  0
  149.6942  138.8661  154.6384 C   0  0  0  0  0  0  0  0  0  0  0  0
  150.7533  138.0799  154.4898 N   0  0  0  0  0  0  0  0  0  0  0  0
  151.7344  139.0021  154.7114 C   0  0  0  0  0  0  0  0  0  0  0  0
  153.1407  138.6385  154.6771 C   0  0  0  0  0  0  0  0  0  0  0  0
  154.2609  138.3493  154.6503 N   0  0  0  0  0  0  0  0  0  0  0  0
  151.3473  140.2488  154.9717 N   0  0  0  0  0  0  0  0  0  0  0  0
  150.7523  140.3618  159.5162 H   0  0  0  0  0  0  0  0  0  0  0  0
  152.4559  140.0195  159.2291 H   0  0  0  0  0  0  0  0  0  0  0  0
  151.3557  140.1738  157.8721 H   0  0  0  0  0  0  0  0  0  0  0  0
  152.7157  142.2286  158.1019 H   0  0  0  0  0  0  0  0  0  0  0  0
  151.5916  142.4042  160.9274 H   0  0  0  0  0  0  0  0  0  0  0  0
  153.2468  142.0459  160.5013 H   0  0  0  0  0  0  0  0  0  0  0  0
  152.9774  144.4368  161.1446 H   0  0  0  0  0  0  0  0  0  0  0  0
  153.5330  144.2815  159.4950 H   0  0  0  0  0  0  0  0  0  0  0  0
  150.6567  144.8237  160.3825 H   0  0  0  0  0  0  0  0  0  0  0  0
  151.7295  145.9691  159.6129 H   0  0  0  0  0  0  0  0  0  0  0  0
  150.1175  144.9858  157.9817 H   0  0  0  0  0  0  0  0  0  0  0  0
  151.7714  144.6301  157.5452 H   0  0  0  0  0  0  0  0  0  0  0  0
  149.8505  142.7395  158.9859 H   0  0  0  0  0  0  0  0  0  0  0  0
  150.9366  142.7234  156.2121 H   0  0  0  0  0  0  0  0  0  0  0  0
  148.1055  140.9985  154.9539 H   0  0  0  0  0  0  0  0  0  0  0  0
  149.4059  142.1025  154.5297 H   0  0  0  0  0  0  0  0  0  0  0  0
  148.6791  138.5072  154.5501 H   0  0  0  0  0  0  0  0  0  0  0  0
  1  2  1  0  0  0  0
  1 19  1  0  0  0  0
  1 20  1  0  0  0  0
  1 21  1  0  0  0  0
  2  7  1  0  0  0  0
  2  3  1  0  0  0  0
  2 22  1  0  0  0  0
  3  4  1  0  0  0  0
  3 23  1  0  0  0  0
  3 24  1  0  0  0  0
  4  5  1  0  0  0  0
  4 25  1  0  0  0  0
  4 26  1  0  0  0  0
  5  6  1  0  0  0  0
  5 27  1  0  0  0  0
  5 28  1  0  0  0  0
  6  7  1  0  0  0  0
  6 29  1  0  0  0  0
  6 30  1  0  0  0  0
  7  8  1  0  0  0  0
  7 31  1  0  0  0  0
  8  9  1  0  0  0  0
  8 32  1  0  0  0  0
  9 10  2  0  0  0  0
  9 11  1  0  0  0  0
 11 12  1  0  0  0  0
 11 33  1  0  0  0  0
 11 34  1  0  0  0  0
 12 18  1  0  0  0  0
 12 13  1  0  0  0  0
 13 14  2  0  0  0  0
 13 35  1  0  0  0  0
 14 15  1  0  0  0  0
 15 16  1  0  0  0  0
 15 18  2  0  0  0  0
 16 17  3  0  0  0  0
M  END
> <s_m_source_file>
AV-unprocessed.smi

> <i_m_source_file_index>
295

> <i_lp_mmshare_version>
43012

> <i_f3d_flags>
0

> <s_epik_input>
W0NIM11bQ0BASF0xW0NIMl1bQ0gyXVtDSDJdW0NIMl1bQ0BIXTFbTkhdQyg9TylbQ0gyXW4yW2NIXW5jKG4yKUMjTg==

> <s_epik_cmdline>
J2VwaWtfcHl0aG9uJywgJy1waCcsICc3LjAnLCAnLXRuJywgJzgnLCAnLW1hJywgJzIwMCcsICctbWV0YWxfYmluZGluZycsICctaW1hZScsICc8aW5maWxlLm1hZT4nLCAnLW9tYWUnLCAnPG91dGZpbGUubWFlPic=

> <r_lp_tautomer_probability>
1

> <r_epik_Ionization_Penalty>
5.31112e-08

> <r_epik_Ionization_Penalty_Charging>
0

> <r_epik_Ionization_Penalty_Neutral>
5.31112e-08

> <r_epik_State_Penalty>
-0

> <r_epik_Charging_Adjusted_Penalty>
0

> <i_epik_Tot_Q>
0

> <i_epik_Tot_abs_Q>
0

> <r_epik_Metal_State_Penalty>
-0

> <b_epik_Metal_Only>
0

> <s_lp_Force_Field>
OPLS_2005

> <r_lp_Energy>
13.1712

> <b_lp_Chiralities_Consistent>
1

> <s_lp_Variant>
AV-unprocessed.smi:295-1

> <Gold.Version>
5.8.1

> <Gold.Id.Protein>
6NUR|6NUR_protein|mol2

> <Gold.PLP.Fitness>
42.5645

> <Gold.PLP.PLP>
-39.9259

> <Gold.PLP.part.hbond>
-3.6051

> <Gold.PLP.part.metal>
0.0000

> <Gold.PLP.part.buried>
-5.1556

> <Gold.PLP.part.nonpolar>
-31.0655

> <Gold.PLP.part.repulsive>
0.3415

> <Gold.PLP.ligand.clash>
0.0000

> <Gold.PLP.ligand.torsion>
0.5238

> <Gold.PLP.Chemscore.Hbond>
1.2261

> <Gold.PLP.Chemscore.CHOScore>
0.0000

> <Gold.PLP.Chemscore.Metal>
0.0000

> <Gold.Chemscore.Hbonds>
donor molecule, donor type, donor heavy atom, donor atom, acceptor molecule, acceptor atom, score
      P1  H  7989  7998       L1    18  0.90
      P1  H  7997  8010       L1    17  0.27

> <Gold.PLP.Chemscore.Internal.Correction>
0.0078

> <Gold.Rescore>
     Score         DG    S(hbond)    S(metal)    S(lipo)     H(rot)  DE(clash)    DE(int)     intcor
     11.64     -12.29       0.86        0.00      76.32       1.95       0.10       0.55       ----

> <Gold.Chemscore.Fitness>
11.6394

> <Gold.Chemscore.DG>
-12.2917

> <Gold.Chemscore.ZeroCoef>
-5.4800

> <Gold.Chemscore.Hbond>
0.8585

> <Gold.Chemscore.Metal>
0.0000

> <Gold.Chemscore.Lipo>
76.3222

> <Gold.Chemscore.Internal_Hbond>
0.0000

> <Gold.Chemscore.DEClash>
0.1042

> <Gold.Chemscore.DEInternal>
0.5481

> <Gold.Chemscore.Rot>
1.9474

> <Gold.Chemscore.Internal.Correction>
   9.000000E+99

> <Gold.Chemscore.Hbonds>
donor molecule, donor type, donor heavy atom, donor atom, acceptor molecule, acceptor atom, score
      P1  H  7989  7998       L1    18  0.05
      P1  H  7997  8010       L1    17  0.02

> <Gold.Chemscore.Hbond.Weighted>
-2.8672

> <Gold.Chemscore.Metal.Weighted>
-0.0000

> <Gold.Chemscore.Lipo.Weighted>
-8.9297

> <Gold.Chemscore.Internal_Hbond.Weighted>
0.0000

> <Gold.Chemscore.DEClash.Weighted>
0.1042

> <Gold.Chemscore.DEInternal.Weighted>
0.5481

> <Gold.Chemscore.Rot.Weighted>
4.9852

> <Gold.Chemscore.Internal.Correction.Weighted>
   9.000000E+99

> <Gold.Protein.RotatedTorsions>
[ 6907 6896 6895 6894 ] final    2.99 input  -60.11 | X-H torsion
[ 7974 7965 7964 7962 ] final  -16.86 input  175.53 | X-H torsion
[ 8008 7997 7996 7995 ] final  139.01 input   59.86 | X-H torsion
[ 10167 10162 10161 10158 ] final   79.08 input  -65.29 | X-H torsion
[ 10718 10713 10712 10709 ] final   25.81 input   66.30 | X-H torsion
[ 10763 10752 10751 10750 ] final -169.57 input  -60.55 | X-H torsion
[ 11005 11000 10999 10996 ] final  167.00 input  -57.11 | X-H torsion

> <Gold.Protein.ActiveResidues>
 VAL166  LYS551  ARG553  GLY616  TRP617  ASP618  TYR619  PRO620  LYS621  CYS622 
 ASP623  PHE694  ASN695  SER759  ASP760  ASP761  ALA762  ILE779  LEU786  VAL792 
 PHE793  MET794  SER795  GLU796  ALA797  LYS798  CYS799  TRP800  GLU811  SER814 

> <Gold.Protein.RotatedAtoms>
  151.6178  135.1035  160.0094 H   0  0  0  0  0  0  0  0  0  0  0  0  # atno 6907 bound_to 6896
  152.4174  133.7056  159.6460 H   0  0  0  0  0  0  0  0  0  0  0  0  # atno 6908 bound_to 6896
  150.8062  133.8433  159.3226 H   0  0  0  0  0  0  0  0  0  0  0  0  # atno 6909 bound_to 6896
  146.1968  140.3696  142.8438 H   0  0  0  0  0  0  0  0  0  0  0  0  # atno 7974 bound_to 7965
  156.2993  140.2379  156.4167 H   0  0  0  0  0  0  0  0  0  0  0  0  # atno 8008 bound_to 7997
  154.8392  140.0429  157.1550 H   0  0  0  0  0  0  0  0  0  0  0  0  # atno 8009 bound_to 7997
  154.9121  140.2992  155.5264 H   0  0  0  0  0  0  0  0  0  0  0  0  # atno 8010 bound_to 7997
  139.9641  144.5941  150.8045 H   0  0  0  0  0  0  0  0  0  0  0  0  # atno 10167 bound_to 10162
  157.1984  130.6878  149.6178 H   0  0  0  0  0  0  0  0  0  0  0  0  # atno 10718 bound_to 10713
  154.6509  135.2911  154.9988 H   0  0  0  0  0  0  0  0  0  0  0  0  # atno 10763 bound_to 10752
  154.1081  135.6566  153.4884 H   0  0  0  0  0  0  0  0  0  0  0  0  # atno 10764 bound_to 10752
  153.0376  135.5258  154.7417 H   0  0  0  0  0  0  0  0  0  0  0  0  # atno 10765 bound_to 10752
  140.2723  134.7817  157.3686 H   0  0  0  0  0  0  0  0  0  0  0  0  # atno 11005 bound_to 11000
  144.8597  140.7122  143.6115 LP  0  0  0  0  0  0  0  0  0  0  0  0  # atno 17320 bound_to 7965
  145.3617  139.1680  143.4380 LP  0  0  0  0  0  0  0  0  0  0  0  0  # atno 17321 bound_to 7965
  140.7544  143.3026  151.3043 LP  0  0  0  0  0  0  0  0  0  0  0  0  # atno 17342 bound_to 10162
  139.6531  144.0325  152.2641 LP  0  0  0  0  0  0  0  0  0  0  0  0  # atno 17343 bound_to 10162
  155.9703  130.4591  150.6024 LP  0  0  0  0  0  0  0  0  0  0  0  0  # atno 17370 bound_to 10713
  157.3792  131.0778  151.1492 LP  0  0  0  0  0  0  0  0  0  0  0  0  # atno 17371 bound_to 10713
  140.1361  134.5032  155.8067 LP  0  0  0  0  0  0  0  0  0  0  0  0  # atno 17394 bound_to 11000
  141.2175  133.6808  156.7127 LP  0  0  0  0  0  0  0  0  0  0  0  0  # atno 17395 bound_to 11000

$$$$
