AV-unprocessed.smi:265|AV-procd|sdf|2021|dock2
  -GOLD-   2262021223D 1   1.00000     0.00000
 Structure written by MMmdl.
 52 56  0  0  0  0  0  0  0  0  1 V2000
  151.1215  142.3939  156.9873 C   0  0  0  0  0  0  0  0  0  0  0  0
  150.6045  140.9457  156.9969 C   0  0  2  0  0  0  0  0  0  0  0  0
  151.6770  140.1039  157.4168 O   0  0  0  0  0  0  0  0  0  0  0  0
  151.6200  138.8800  156.7054 C   0  0  0  0  0  0  0  0  0  0  0  0
  151.1767  139.3243  155.3216 C   0  0  0  0  0  0  0  0  0  0  0  0
  150.1150  140.3771  155.6359 C   0  0  2  0  0  0  0  0  0  0  0  0
  150.1246  141.3465  154.6021 O   0  0  0  0  0  0  0  0  0  0  0  0
  148.6774  139.8037  155.7590 C   0  0  0  0  0  0  0  0  0  0  0  0
  148.4496  138.9946  156.9476 N   0  0  0  0  0  0  0  0  0  0  0  0
  147.6963  139.3441  158.0461 C   0  0  0  0  0  0  0  0  0  0  0  0
  147.6337  138.4439  158.9884 N   0  0  0  0  0  0  0  0  0  0  0  0
  148.3934  137.3874  158.4999 C   0  0  0  0  0  0  0  0  0  0  0  0
  148.7362  136.0994  159.0000 C   0  0  0  0  0  0  0  0  0  0  0  0
  148.3302  135.6546  160.2165 N   0  0  0  0  0  0  0  0  0  0  0  0
  147.6925  136.6157  161.1158 C   0  0  0  0  0  0  0  0  0  0  0  0
  147.6752  136.0824  162.5564 C   0  0  0  0  0  0  0  0  0  0  0  0
  147.0448  134.6826  162.6414 C   0  0  1  0  0  0  0  0  0  0  0  0
  145.6532  134.7501  162.3578 O   0  0  0  0  0  0  0  0  0  0  0  0
  144.9574  133.5246  162.5934 C   0  0  0  0  0  0  0  0  0  0  0  0
  145.6616  132.3171  161.9469 C   0  0  0  0  0  0  0  0  0  0  0  0
  145.0564  131.2567  161.8079 O   0  0  0  0  0  0  0  0  0  0  0  0
  146.9484  132.4529  161.5879 N   0  0  0  0  0  0  0  0  0  0  0  0
  147.6815  133.7141  161.6209 C   0  0  1  0  0  0  0  0  0  0  0  0
  147.7193  134.3270  160.2061 C   0  0  0  0  0  0  0  0  0  0  0  0
  149.5019  135.3042  158.2055 N   0  0  0  0  0  0  0  0  0  0  0  0
  149.9108  135.7376  157.0095 C   0  0  0  0  0  0  0  0  0  0  0  0
  149.6728  136.9115  156.4217 N   0  0  0  0  0  0  0  0  0  0  0  0
  148.9028  137.7133  157.2109 C   0  0  0  0  0  0  0  0  0  0  0  0
  147.1781  134.3033  163.6565 H   0  0  0  0  0  0  0  0  0  0  0  0
  148.7041  133.4985  161.9334 H   0  0  0  0  0  0  0  0  0  0  0  0
  150.3376  143.0925  156.6935 H   0  0  0  0  0  0  0  0  0  0  0  0
  151.9578  142.5122  156.2973 H   0  0  0  0  0  0  0  0  0  0  0  0
  151.4676  142.6872  157.9785 H   0  0  0  0  0  0  0  0  0  0  0  0
  149.8114  140.8671  157.7420 H   0  0  0  0  0  0  0  0  0  0  0  0
  152.5854  138.3739  156.6980 H   0  0  0  0  0  0  0  0  0  0  0  0
  150.8836  138.2176  157.1629 H   0  0  0  0  0  0  0  0  0  0  0  0
  152.0287  139.7818  154.8154 H   0  0  0  0  0  0  0  0  0  0  0  0
  150.8358  138.5002  154.6971 H   0  0  0  0  0  0  0  0  0  0  0  0
  149.4599  141.9918  154.7885 H   0  0  0  0  0  0  0  0  0  0  0  0
  147.9493  140.6159  155.7667 H   0  0  0  0  0  0  0  0  0  0  0  0
  148.4401  139.1970  154.8839 H   0  0  0  0  0  0  0  0  0  0  0  0
  147.1953  140.2978  158.1290 H   0  0  0  0  0  0  0  0  0  0  0  0
  148.2256  137.5673  161.0905 H   0  0  0  0  0  0  0  0  0  0  0  0
  146.6738  136.8072  160.7758 H   0  0  0  0  0  0  0  0  0  0  0  0
  148.6991  136.0350  162.9292 H   0  0  0  0  0  0  0  0  0  0  0  0
  147.1422  136.7755  163.2077 H   0  0  0  0  0  0  0  0  0  0  0  0
  144.8782  133.3531  163.6675 H   0  0  0  0  0  0  0  0  0  0  0  0
  143.9430  133.6121  162.2040 H   0  0  0  0  0  0  0  0  0  0  0  0
  147.4230  131.6515  161.1977 H   0  0  0  0  0  0  0  0  0  0  0  0
  146.7058  134.4224  159.8130 H   0  0  0  0  0  0  0  0  0  0  0  0
  148.2464  133.6506  159.5338 H   0  0  0  0  0  0  0  0  0  0  0  0
  150.5149  135.0446  156.4424 H   0  0  0  0  0  0  0  0  0  0  0  0
  1  2  1  0  0  0  0
  1 31  1  0  0  0  0
  1 32  1  0  0  0  0
  1 33  1  0  0  0  0
  2  6  1  0  0  0  0
  2  3  1  0  0  0  0
  2 34  1  0  0  0  0
  3  4  1  0  0  0  0
  4  5  1  0  0  0  0
  4 35  1  0  0  0  0
  4 36  1  0  0  0  0
  5  6  1  0  0  0  0
  5 37  1  0  0  0  0
  5 38  1  0  0  0  0
  6  7  1  0  0  0  0
  6  8  1  0  0  0  0
  7 39  1  0  0  0  0
  8  9  1  0  0  0  0
  8 40  1  0  0  0  0
  8 41  1  0  0  0  0
  9 28  1  0  0  0  0
  9 10  1  0  0  0  0
 10 11  2  0  0  0  0
 10 42  1  0  0  0  0
 11 12  1  0  0  0  0
 12 28  2  0  0  0  0
 12 13  1  0  0  0  0
 13 14  1  0  0  0  0
 13 25  2  0  0  0  0
 14 24  1  0  0  0  0
 14 15  1  0  0  0  0
 15 16  1  0  0  0  0
 15 43  1  0  0  0  0
 15 44  1  0  0  0  0
 16 17  1  0  0  0  0
 16 45  1  0  0  0  0
 16 46  1  0  0  0  0
 17 29  1  0  0  0  0
 17 23  1  0  0  0  0
 17 18  1  0  0  0  0
 18 19  1  0  0  0  0
 19 20  1  0  0  0  0
 19 47  1  0  0  0  0
 19 48  1  0  0  0  0
 20 21  2  0  0  0  0
 20 22  1  0  0  0  0
 22 23  1  0  0  0  0
 22 49  1  0  0  0  0
 23 30  1  0  0  0  0
 23 24  1  0  0  0  0
 24 50  1  0  0  0  0
 24 51  1  0  0  0  0
 25 26  1  0  0  0  0
 26 27  2  0  0  0  0
 26 52  1  0  0  0  0
 27 28  1  0  0  0  0
M  END
> <s_m_source_file>
AV-unprocessed.smi

> <i_m_source_file_index>
265

> <i_lp_mmshare_version>
43012

> <i_f3d_flags>
0

> <s_epik_input>
W0NIMl0xW0NIMl1PW0NAQEhdKFtDSDNdKVtDQEBdMShbT0hdKVtDSDJdbihbY0hdbjIpYyhjMjMpbltjSF1uYzNOKFtDSDJdW0NIMl00KVtDSDJdW0NAQEhdKFtDQEhdNDUpW05IXUMoPU8pW0NIMl1PNQ==

> <s_epik_cmdline>
J2VwaWtfcHl0aG9uJywgJy1waCcsICc3LjAnLCAnLXRuJywgJzgnLCAnLW1hJywgJzIwMCcsICctbWV0YWxfYmluZGluZycsICctaW1hZScsICc8aW5maWxlLm1hZT4nLCAnLW9tYWUnLCAnPG91dGZpbGUubWFlPic=

> <r_lp_tautomer_probability>
1

> <r_epik_Ionization_Penalty>
0.00221504

> <r_epik_Ionization_Penalty_Charging>
0

> <r_epik_Ionization_Penalty_Neutral>
0.00221504

> <r_epik_State_Penalty>
-0

> <r_epik_Charging_Adjusted_Penalty>
0

> <i_epik_Tot_Q>
0

> <i_epik_Tot_abs_Q>
0

> <r_epik_Metal_State_Penalty>
-0

> <b_epik_Metal_Only>
0

> <s_lp_Force_Field>
OPLS_2005

> <r_lp_Energy>
45.2978

> <b_lp_Chiralities_Consistent>
1

> <s_lp_Variant>
AV-unprocessed.smi:265-7

> <Gold.Version>
5.8.1

> <Gold.Id.Protein>
6NUR|6NUR_protein|mol2

> <Gold.PLP.Fitness>
42.1096

> <Gold.PLP.PLP>
-38.0338

> <Gold.PLP.part.hbond>
-3.6832

> <Gold.PLP.part.metal>
0.0000

> <Gold.PLP.part.buried>
-5.2684

> <Gold.PLP.part.nonpolar>
-29.4835

> <Gold.PLP.part.repulsive>
0.1506

> <Gold.PLP.ligand.clash>
0.0002

> <Gold.PLP.ligand.torsion>
0.4478

> <Gold.PLP.Chemscore.Hbond>
1.5313

> <Gold.PLP.Chemscore.CHOScore>
0.0000

> <Gold.PLP.Chemscore.Metal>
0.0000

> <Gold.Chemscore.Hbonds>
donor molecule, donor type, donor heavy atom, donor atom, acceptor molecule, acceptor atom, score
      P1  H  6896  6907       L1    25  1.00
      P1  H  6934  6947       L1    11  0.21
      P1  H  7989  7998       L1     7  0.45

> <Gold.PLP.Chemscore.Internal.Correction>
0.3777

> <Gold.Rescore>
     Score         DG    S(hbond)    S(metal)    S(lipo)     H(rot)  DE(clash)    DE(int)     intcor
      8.32     -12.32       0.91        0.00      81.48       2.25       0.21       3.79       ----

> <Gold.Chemscore.Fitness>
8.3158

> <Gold.Chemscore.DG>
-12.3161

> <Gold.Chemscore.ZeroCoef>
-5.4800

> <Gold.Chemscore.Hbond>
0.9133

> <Gold.Chemscore.Metal>
0.0000

> <Gold.Chemscore.Lipo>
81.4842

> <Gold.Chemscore.Internal_Hbond>
0.0000

> <Gold.Chemscore.DEClash>
0.2104

> <Gold.Chemscore.DEInternal>
3.7899

> <Gold.Chemscore.Rot>
2.2453

> <Gold.Chemscore.Internal.Correction>
   9.000000E+99

> <Gold.Chemscore.Hbonds>
donor molecule, donor type, donor heavy atom, donor atom, acceptor molecule, acceptor atom, score
      P1  H  6896  6907       L1    25  0.56
      P1  H  6934  6947       L1    11  0.18
      P1  H  7989  7998       L1     7  0.25

> <Gold.Chemscore.Hbond.Weighted>
-3.0503

> <Gold.Chemscore.Metal.Weighted>
-0.0000

> <Gold.Chemscore.Lipo.Weighted>
-9.5337

> <Gold.Chemscore.Internal_Hbond.Weighted>
0.0000

> <Gold.Chemscore.DEClash.Weighted>
0.2104

> <Gold.Chemscore.DEInternal.Weighted>
3.7899

> <Gold.Chemscore.Rot.Weighted>
5.7479

> <Gold.Chemscore.Internal.Correction.Weighted>
   9.000000E+99

> <Gold.Protein.RotatedTorsions>
[ 6907 6896 6895 6894 ] final  -92.58 input  -60.11 | X-H torsion
[ 7974 7965 7964 7962 ] final  162.23 input  175.53 | X-H torsion
[ 8008 7997 7996 7995 ] final   96.68 input   59.86 | X-H torsion
[ 10167 10162 10161 10158 ] final -121.50 input  -65.29 | X-H torsion
[ 10718 10713 10712 10709 ] final -115.04 input   66.30 | X-H torsion
[ 10763 10752 10751 10750 ] final   81.48 input  -60.55 | X-H torsion
[ 11005 11000 10999 10996 ] final -112.09 input  -57.11 | X-H torsion

> <Gold.Protein.ActiveResidues>
 VAL166  LYS551  ARG553  GLY616  TRP617  ASP618  TYR619  PRO620  LYS621  CYS622 
 ASP623  PHE694  ASN695  SER759  ASP760  ASP761  ALA762  ILE779  LEU786  VAL792 
 PHE793  MET794  SER795  GLU796  ALA797  LYS798  CYS799  TRP800  GLU811  SER814 

> <Gold.Protein.RotatedAtoms>
  150.6908  134.2100  159.4355 H   0  0  0  0  0  0  0  0  0  0  0  0  # atno 6907 bound_to 6896
  152.0062  134.9899  160.0576 H   0  0  0  0  0  0  0  0  0  0  0  0  # atno 6908 bound_to 6896
  152.1531  133.4500  159.4860 H   0  0  0  0  0  0  0  0  0  0  0  0  # atno 6909 bound_to 6896
  144.7647  139.8010  143.6319 H   0  0  0  0  0  0  0  0  0  0  0  0  # atno 7974 bound_to 7965
  156.0821  140.3269  155.7707 H   0  0  0  0  0  0  0  0  0  0  0  0  # atno 8008 bound_to 7997
  155.5135  140.0579  157.2936 H   0  0  0  0  0  0  0  0  0  0  0  0  # atno 8009 bound_to 7997
  154.4588  140.1956  156.0319 H   0  0  0  0  0  0  0  0  0  0  0  0  # atno 8010 bound_to 7997
  140.0244  143.5311  152.2206 H   0  0  0  0  0  0  0  0  0  0  0  0  # atno 10167 bound_to 10162
  156.0869  130.6059  150.8853 H   0  0  0  0  0  0  0  0  0  0  0  0  # atno 10718 bound_to 10713
  153.1120  135.4764  154.9052 H   0  0  0  0  0  0  0  0  0  0  0  0  # atno 10763 bound_to 10752
  154.7491  135.3101  154.8594 H   0  0  0  0  0  0  0  0  0  0  0  0  # atno 10764 bound_to 10752
  153.9180  135.6858  153.4802 H   0  0  0  0  0  0  0  0  0  0  0  0  # atno 10765 bound_to 10752
  141.0696  133.9402  157.2512 H   0  0  0  0  0  0  0  0  0  0  0  0  # atno 11005 bound_to 11000
  146.1743  139.4907  142.9907 LP  0  0  0  0  0  0  0  0  0  0  0  0  # atno 17320 bound_to 7965
  145.6508  141.0263  143.1761 LP  0  0  0  0  0  0  0  0  0  0  0  0  # atno 17321 bound_to 7965
  139.6118  144.7610  151.2935 LP  0  0  0  0  0  0  0  0  0  0  0  0  # atno 17342 bound_to 10162
  140.7329  143.6811  150.8000 LP  0  0  0  0  0  0  0  0  0  0  0  0  # atno 17343 bound_to 10162
  157.6006  131.0941  150.8966 LP  0  0  0  0  0  0  0  0  0  0  0  0  # atno 17370 bound_to 10713
  156.9124  130.5285  149.5280 LP  0  0  0  0  0  0  0  0  0  0  0  0  # atno 17371 bound_to 10713
  139.9510  135.0175  156.8993 LP  0  0  0  0  0  0  0  0  0  0  0  0  # atno 17394 bound_to 11000
  140.5702  134.0450  155.7428 LP  0  0  0  0  0  0  0  0  0  0  0  0  # atno 17395 bound_to 11000

$$$$
