AV-unprocessed.smi:1402|AV-procd|sdf|5696|dock6
  -GOLD-   22720 5323D 1   1.00000     0.00000
 Structure written by MMmdl.
 44 45  0  0  0  0  0  0  0  0  1 V2000
  143.4813  132.3024  150.0259 C   0  0  0  0  0  0  0  0  0  0  0  0
  144.5669  133.0727  150.7172 C   0  0  0  0  0  0  0  0  0  0  0  0
  144.6783  134.4847  150.8737 C   0  0  0  0  0  0  0  0  0  0  0  0
  145.8523  134.6201  151.5631 C   0  0  0  0  0  0  0  0  0  0  0  0
  146.4570  135.7592  151.9933 N   0  0  0  0  0  0  0  0  0  0  0  0
  145.8862  136.8855  152.4544 C   0  0  0  0  0  0  0  0  0  0  0  0
  144.6768  137.0609  152.6057 O   0  0  0  0  0  0  0  0  0  0  0  0
  146.8088  137.8215  152.7200 N   0  0  0  0  0  0  0  0  0  0  0  0
  146.5152  139.1880  153.1367 C   0  0  0  0  0  0  0  0  0  0  0  0
  147.2462  139.5452  154.4477 C   0  0  0  0  0  0  0  0  0  0  0  0
  148.6852  139.7403  154.2355 N   0  0  0  0  0  0  0  0  0  0  0  0
  149.1138  141.1146  153.9326 C   0  0  0  0  0  0  0  0  0  0  0  0
  149.9018  141.7889  155.0795 C   0  0  0  0  0  0  0  0  0  0  0  0
  150.7447  140.8533  155.9690 C   0  0  0  0  0  0  0  0  0  0  0  0
  151.6962  139.9075  155.2059 C   0  0  0  0  0  0  0  0  0  0  0  0
  151.0559  139.0104  154.1191 C   0  0  0  0  0  0  0  0  0  0  0  0
  149.5639  138.7131  154.3390 C   0  0  0  0  0  0  0  0  0  0  0  0
  149.2228  137.5606  154.6055 O   0  0  0  0  0  0  0  0  0  0  0  0
  146.3756  133.3670  151.8014 N   0  0  0  0  0  0  0  0  0  0  0  0
  147.5909  132.9738  152.4881 C   0  0  0  0  0  0  0  0  0  0  0  0
  145.5781  132.4144  151.2724 N   0  0  0  0  0  0  0  0  0  0  0  0
  142.6999  132.9668  149.6565 H   0  0  0  0  0  0  0  0  0  0  0  0
  143.0151  131.5859  150.7023 H   0  0  0  0  0  0  0  0  0  0  0  0
  143.8761  131.7495  149.1735 H   0  0  0  0  0  0  0  0  0  0  0  0
  144.0004  135.2516  150.5301 H   0  0  0  0  0  0  0  0  0  0  0  0
  147.4614  135.7775  151.8945 H   0  0  0  0  0  0  0  0  0  0  0  0
  147.7803  137.5890  152.5745 H   0  0  0  0  0  0  0  0  0  0  0  0
  146.7266  139.9096  152.3450 H   0  0  0  0  0  0  0  0  0  0  0  0
  145.4391  139.2444  153.3029 H   0  0  0  0  0  0  0  0  0  0  0  0
  146.8172  140.4598  154.8595 H   0  0  0  0  0  0  0  0  0  0  0  0
  147.0684  138.7943  155.2203 H   0  0  0  0  0  0  0  0  0  0  0  0
  149.7182  141.1081  153.0254 H   0  0  0  0  0  0  0  0  0  0  0  0
  148.2579  141.7383  153.6716 H   0  0  0  0  0  0  0  0  0  0  0  0
  150.5416  142.5648  154.6572 H   0  0  0  0  0  0  0  0  0  0  0  0
  149.1948  142.3111  155.7248 H   0  0  0  0  0  0  0  0  0  0  0  0
  151.3304  141.4604  156.6597 H   0  0  0  0  0  0  0  0  0  0  0  0
  150.0813  140.2653  156.6048 H   0  0  0  0  0  0  0  0  0  0  0  0
  152.4877  140.4991  154.7447 H   0  0  0  0  0  0  0  0  0  0  0  0
  152.1967  139.2690  155.9347 H   0  0  0  0  0  0  0  0  0  0  0  0
  151.1840  139.4624  153.1359 H   0  0  0  0  0  0  0  0  0  0  0  0
  151.6032  138.0683  154.0649 H   0  0  0  0  0  0  0  0  0  0  0  0
  148.1073  133.8456  152.8895 H   0  0  0  0  0  0  0  0  0  0  0  0
  148.2554  132.4616  151.7917 H   0  0  0  0  0  0  0  0  0  0  0  0
  147.3477  132.3000  153.3100 H   0  0  0  0  0  0  0  0  0  0  0  0
  1  2  1  0  0  0  0
  1 22  1  0  0  0  0
  1 23  1  0  0  0  0
  1 24  1  0  0  0  0
  2 21  2  0  0  0  0
  2  3  1  0  0  0  0
  3  4  2  0  0  0  0
  3 25  1  0  0  0  0
  4  5  1  0  0  0  0
  4 19  1  0  0  0  0
  5  6  1  0  0  0  0
  5 26  1  0  0  0  0
  6  7  2  0  0  0  0
  6  8  1  0  0  0  0
  8  9  1  0  0  0  0
  8 27  1  0  0  0  0
  9 10  1  0  0  0  0
  9 28  1  0  0  0  0
  9 29  1  0  0  0  0
 10 11  1  0  0  0  0
 10 30  1  0  0  0  0
 10 31  1  0  0  0  0
 11 17  1  0  0  0  0
 11 12  1  0  0  0  0
 12 13  1  0  0  0  0
 12 32  1  0  0  0  0
 12 33  1  0  0  0  0
 13 14  1  0  0  0  0
 13 34  1  0  0  0  0
 13 35  1  0  0  0  0
 14 15  1  0  0  0  0
 14 36  1  0  0  0  0
 14 37  1  0  0  0  0
 15 16  1  0  0  0  0
 15 38  1  0  0  0  0
 15 39  1  0  0  0  0
 16 17  1  0  0  0  0
 16 40  1  0  0  0  0
 16 41  1  0  0  0  0
 17 18  2  0  0  0  0
 19 20  1  0  0  0  0
 19 21  1  0  0  0  0
 20 42  1  0  0  0  0
 20 43  1  0  0  0  0
 20 44  1  0  0  0  0
M  END
> <s_m_source_file>
AV-unprocessed.smi

> <i_m_source_file_index>
1402

> <i_lp_mmshare_version>
43012

> <i_f3d_flags>
0

> <s_epik_input>
W0NIM11jMVtjSF1jKG4objEpW0NIM10pW05IXUMoPU8pW05IXVtDSDJdW0NIMl1OMltDSDJdW0NIMl1bQ0gyXVtDSDJdW0NIMl1DMj1P

> <s_epik_cmdline>
J2VwaWtfcHl0aG9uJywgJy1waCcsICc3LjAnLCAnLXRuJywgJzgnLCAnLW1hJywgJzIwMCcsICctbWV0YWxfYmluZGluZycsICctaW1hZScsICc8aW5maWxlLm1hZT4nLCAnLW9tYWUnLCAnPG91dGZpbGUubWFlPic=

> <r_lp_tautomer_probability>
1

> <r_epik_Ionization_Penalty>
9.00432e-05

> <r_epik_Ionization_Penalty_Charging>
0

> <r_epik_Ionization_Penalty_Neutral>
9.00432e-05

> <r_epik_State_Penalty>
-0

> <r_epik_Charging_Adjusted_Penalty>
0

> <i_epik_Tot_Q>
0

> <i_epik_Tot_abs_Q>
0

> <r_epik_Metal_State_Penalty>
-0

> <b_epik_Metal_Only>
0

> <s_lp_Force_Field>
OPLS_2005

> <r_lp_Energy>
25.7606

> <b_lp_Chiralities_Consistent>
1

> <s_lp_Variant>
AV-unprocessed.smi:1402-1

> <Gold.Version>
5.8.1

> <Gold.Id.Protein>
6NUR|6NUR_protein|mol2

> <Gold.PLP.Fitness>
41.9316

> <Gold.PLP.PLP>
-37.8454

> <Gold.PLP.part.hbond>
-1.9053

> <Gold.PLP.part.metal>
0.0000

> <Gold.PLP.part.buried>
-1.4294

> <Gold.PLP.part.nonpolar>
-35.0243

> <Gold.PLP.part.repulsive>
0.5933

> <Gold.PLP.ligand.clash>
0.0000

> <Gold.PLP.ligand.torsion>
0.6981

> <Gold.PLP.Chemscore.Hbond>
1.8230

> <Gold.PLP.Chemscore.CHOScore>
0.0000

> <Gold.PLP.Chemscore.Metal>
0.0000

> <Gold.Chemscore.Hbonds>
donor molecule, donor type, donor heavy atom, donor atom, acceptor molecule, acceptor atom, score
      L1  H     5    26       P1  7948  0.99
      L1  H     8    27       P1  7948  0.86

> <Gold.PLP.Chemscore.Internal.Correction>
0.0134

> <Gold.Rescore>
     Score         DG    S(hbond)    S(metal)    S(lipo)     H(rot)  DE(clash)    DE(int)     intcor
     15.89     -16.59       1.84        0.00      76.18       1.54       0.03       0.67       ----

> <Gold.Chemscore.Fitness>
15.8950

> <Gold.Chemscore.DG>
-16.5945

> <Gold.Chemscore.ZeroCoef>
-5.4800

> <Gold.Chemscore.Hbond>
1.8400

> <Gold.Chemscore.Metal>
0.0000

> <Gold.Chemscore.Lipo>
76.1800

> <Gold.Chemscore.Internal_Hbond>
0.0000

> <Gold.Chemscore.DEClash>
0.0323

> <Gold.Chemscore.DEInternal>
0.6672

> <Gold.Chemscore.Rot>
1.5407

> <Gold.Chemscore.Internal.Correction>
   9.000000E+99

> <Gold.Chemscore.Hbonds>
donor molecule, donor type, donor heavy atom, donor atom, acceptor molecule, acceptor atom, score
      L1  H     5    26       P1  7948  0.92
      L1  H     8    27       P1  7948  0.85

> <Gold.Chemscore.Hbond.Weighted>
-6.1455

> <Gold.Chemscore.Metal.Weighted>
-0.0000

> <Gold.Chemscore.Lipo.Weighted>
-8.9131

> <Gold.Chemscore.Internal_Hbond.Weighted>
0.0000

> <Gold.Chemscore.DEClash.Weighted>
0.0323

> <Gold.Chemscore.DEInternal.Weighted>
0.6672

> <Gold.Chemscore.Rot.Weighted>
3.9441

> <Gold.Chemscore.Internal.Correction.Weighted>
   9.000000E+99

> <Gold.Protein.RotatedTorsions>
[ 6907 6896 6895 6894 ] final  -39.26 input  -60.11 | X-H torsion
[ 7974 7965 7964 7962 ] final  -66.94 input  175.53 | X-H torsion
[ 8008 7997 7996 7995 ] final -128.79 input   59.86 | X-H torsion
[ 10167 10162 10161 10158 ] final  -40.23 input  -65.29 | X-H torsion
[ 10718 10713 10712 10709 ] final -143.97 input   66.30 | X-H torsion
[ 10763 10752 10751 10750 ] final   26.31 input  -60.55 | X-H torsion
[ 11005 11000 10999 10996 ] final -132.73 input  -57.11 | X-H torsion

> <Gold.Protein.ActiveResidues>
 VAL166  LYS551  ARG553  GLY616  TRP617  ASP618  TYR619  PRO620  LYS621  CYS622 
 ASP623  PHE694  ASN695  SER759  ASP760  ASP761  ALA762  ILE779  LEU786  VAL792 
 PHE793  MET794  SER795  GLU796  ALA797  LYS798  CYS799  TRP800  GLU811  SER814 

> <Gold.Protein.RotatedAtoms>
  150.9925  134.9256  159.7907 H   0  0  0  0  0  0  0  0  0  0  0  0  # atno 6907 bound_to 6896
  152.5255  134.3263  159.9176 H   0  0  0  0  0  0  0  0  0  0  0  0  # atno 6908 bound_to 6896
  151.3269  133.3975  159.2693 H   0  0  0  0  0  0  0  0  0  0  0  0  # atno 6909 bound_to 6896
  145.7355  140.8977  143.0557 H   0  0  0  0  0  0  0  0  0  0  0  0  # atno 7974 bound_to 7965
  155.2685  140.0439  157.3004 H   0  0  0  0  0  0  0  0  0  0  0  0  # atno 8008 bound_to 7997
  154.5668  140.2362  155.8221 H   0  0  0  0  0  0  0  0  0  0  0  0  # atno 8009 bound_to 7997
  156.2091  140.3004  155.9700 H   0  0  0  0  0  0  0  0  0  0  0  0  # atno 8010 bound_to 7997
  140.7041  143.3166  151.2894 H   0  0  0  0  0  0  0  0  0  0  0  0  # atno 10167 bound_to 10162
  156.3644  130.7755  151.1927 H   0  0  0  0  0  0  0  0  0  0  0  0  # atno 10718 bound_to 10713
  153.0631  135.6563  154.0417 H   0  0  0  0  0  0  0  0  0  0  0  0  # atno 10763 bound_to 10752
  154.0080  135.2931  155.3397 H   0  0  0  0  0  0  0  0  0  0  0  0  # atno 10764 bound_to 10752
  154.6978  135.5257  153.8551 H   0  0  0  0  0  0  0  0  0  0  0  0  # atno 10765 bound_to 10752
  140.9144  134.1526  157.4364 H   0  0  0  0  0  0  0  0  0  0  0  0  # atno 11005 bound_to 11000
  144.6883  139.9389  143.7474 LP  0  0  0  0  0  0  0  0  0  0  0  0  # atno 17320 bound_to 7965
  146.0497  139.3500  143.0647 LP  0  0  0  0  0  0  0  0  0  0  0  0  # atno 17321 bound_to 7965
  139.6607  144.0195  152.2690 LP  0  0  0  0  0  0  0  0  0  0  0  0  # atno 17342 bound_to 10162
  139.9761  144.6460  150.7943 LP  0  0  0  0  0  0  0  0  0  0  0  0  # atno 17343 bound_to 10162
  157.7477  131.0390  150.4532 LP  0  0  0  0  0  0  0  0  0  0  0  0  # atno 17370 bound_to 10713
  156.4748  130.4060  149.6496 LP  0  0  0  0  0  0  0  0  0  0  0  0  # atno 17371 bound_to 10713
  139.8763  134.9948  156.5711 LP  0  0  0  0  0  0  0  0  0  0  0  0  # atno 17394 bound_to 11000
  140.8069  133.8461  155.8775 LP  0  0  0  0  0  0  0  0  0  0  0  0  # atno 17395 bound_to 11000

$$$$
