AV-unprocessed.smi:255|AV-procd|sdf|1952|dock9
  -GOLD-   2262021 93D 1   1.00000     0.00000
 Structure written by MMmdl.
 44 47  0  0  0  0  0  0  0  0  1 V2000
  153.1780  139.1053  155.3676 O   0  0  0  0  0  0  0  0  0  0  0  0
  151.7705  139.1528  155.2787 C   0  0  0  0  0  0  0  0  0  0  0  0
  151.2394  140.4372  155.9524 C   0  0  1  0  0  0  0  0  0  0  0  0
  149.7341  140.6675  155.8061 C   0  0  0  0  0  0  0  0  0  0  0  0
  149.4575  141.7345  156.8673 C   0  0  1  0  0  0  0  0  0  0  0  0
  148.2858  141.5248  157.4676 F   0  0  0  0  0  0  0  0  0  0  0  0
  150.6349  141.6394  157.8539 C   0  0  0  0  0  0  0  0  0  0  0  0
  151.5020  140.5574  157.3885 N   0  0  0  0  0  0  0  0  0  0  0  0
  151.4471  139.4112  158.1137 C   0  0  0  0  0  0  0  0  0  0  0  0
  152.5577  138.9242  158.7298 N   0  0  0  0  0  0  0  0  0  0  0  0
  152.4803  137.8170  159.4734 C   0  0  0  0  0  0  0  0  0  0  0  0
  151.4134  137.0576  159.7312 N   0  0  0  0  0  0  0  0  0  0  0  0
  150.2991  137.5382  159.1080 C   0  0  0  0  0  0  0  0  0  0  0  0
  150.2300  138.7009  158.2909 C   0  0  0  0  0  0  0  0  0  0  0  0
  148.9294  138.8937  157.8447 N   0  0  0  0  0  0  0  0  0  0  0  0
  148.2644  137.9041  158.3753 C   0  0  0  0  0  0  0  0  0  0  0  0
  149.0111  137.0291  159.1336 N   0  0  0  0  0  0  0  0  0  0  0  0
  148.5243  135.8567  159.8476 C   0  0  0  0  0  0  0  0  0  0  0  0
  147.3998  136.1297  160.8803 C   0  0  1  0  0  0  0  0  0  0  0  0
  147.8581  137.1861  161.7046 O   0  0  0  0  0  0  0  0  0  0  0  0
  146.0555  136.5505  160.2861 C   0  0  0  0  0  0  0  0  0  0  0  0
  145.0538  136.0387  161.3121 C   0  0  0  0  0  0  0  0  0  0  0  0
  145.6084  134.7882  161.6794 O   0  0  0  0  0  0  0  0  0  0  0  0
  147.0189  134.9420  161.7922 C   0  0  0  0  0  0  0  0  0  0  0  0
  151.7563  141.2806  155.4913 H   0  0  0  0  0  0  0  0  0  0  0  0
  149.4184  142.7286  156.4208 H   0  0  0  0  0  0  0  0  0  0  0  0
  153.5056  138.5746  154.6574 H   0  0  0  0  0  0  0  0  0  0  0  0
  151.4821  139.1004  154.2281 H   0  0  0  0  0  0  0  0  0  0  0  0
  151.3704  138.2681  155.7748 H   0  0  0  0  0  0  0  0  0  0  0  0
  149.4477  140.9864  154.8038 H   0  0  0  0  0  0  0  0  0  0  0  0
  149.1881  139.7514  156.0359 H   0  0  0  0  0  0  0  0  0  0  0  0
  151.2063  142.5678  157.8472 H   0  0  0  0  0  0  0  0  0  0  0  0
  150.2910  141.4904  158.8787 H   0  0  0  0  0  0  0  0  0  0  0  0
  153.4048  137.4958  159.9300 H   0  0  0  0  0  0  0  0  0  0  0  0
  147.2009  137.7862  158.2269 H   0  0  0  0  0  0  0  0  0  0  0  0
  148.1773  135.1343  159.1072 H   0  0  0  0  0  0  0  0  0  0  0  0
  149.3770  135.3909  160.3435 H   0  0  0  0  0  0  0  0  0  0  0  0
  147.4241  137.1225  162.5417 H   0  0  0  0  0  0  0  0  0  0  0  0
  145.9715  137.6225  160.1027 H   0  0  0  0  0  0  0  0  0  0  0  0
  145.8606  136.0418  159.3442 H   0  0  0  0  0  0  0  0  0  0  0  0
  145.0085  136.6950  162.1826 H   0  0  0  0  0  0  0  0  0  0  0  0
  144.0483  135.9305  160.9052 H   0  0  0  0  0  0  0  0  0  0  0  0
  147.5001  134.0079  161.5126 H   0  0  0  0  0  0  0  0  0  0  0  0
  147.2761  135.1312  162.8356 H   0  0  0  0  0  0  0  0  0  0  0  0
  1  2  1  0  0  0  0
  1 27  1  0  0  0  0
  2  3  1  0  0  0  0
  2 28  1  0  0  0  0
  2 29  1  0  0  0  0
  3 25  1  0  0  0  0
  3  8  1  0  0  0  0
  3  4  1  0  0  0  0
  4  5  1  0  0  0  0
  4 30  1  0  0  0  0
  4 31  1  0  0  0  0
  5 26  1  0  0  0  0
  5  6  1  0  0  0  0
  5  7  1  0  0  0  0
  7  8  1  0  0  0  0
  7 32  1  0  0  0  0
  7 33  1  0  0  0  0
  8  9  1  0  0  0  0
  9 14  1  0  0  0  0
  9 10  2  0  0  0  0
 10 11  1  0  0  0  0
 11 12  2  0  0  0  0
 11 34  1  0  0  0  0
 12 13  1  0  0  0  0
 13 17  1  0  0  0  0
 13 14  2  0  0  0  0
 14 15  1  0  0  0  0
 15 16  2  0  0  0  0
 16 17  1  0  0  0  0
 16 35  1  0  0  0  0
 17 18  1  0  0  0  0
 18 19  1  0  0  0  0
 18 36  1  0  0  0  0
 18 37  1  0  0  0  0
 19 24  1  0  0  0  0
 19 20  1  0  0  0  0
 19 21  1  0  0  0  0
 20 38  1  0  0  0  0
 21 22  1  0  0  0  0
 21 39  1  0  0  0  0
 21 40  1  0  0  0  0
 22 23  1  0  0  0  0
 22 41  1  0  0  0  0
 22 42  1  0  0  0  0
 23 24  1  0  0  0  0
 24 43  1  0  0  0  0
 24 44  1  0  0  0  0
M  END
> <s_m_source_file>
AV-unprocessed.smi

> <i_m_source_file_index>
255

> <i_lp_mmshare_version>
43012

> <i_f3d_flags>
0

> <s_epik_input>
W09IXVtDSDJdW0NAQEhdMVtDSDJdW0NASF0oRilbQ0gyXU4xYyhuW2NIXW4yKWMoYzIzKW5bY0hdbjNbQ0gyXVtDQEBdNChbT0hdKVtDSDJdW0NIMl1PW0NIMl00

> <s_epik_cmdline>
J2VwaWtfcHl0aG9uJywgJy1waCcsICc3LjAnLCAnLXRuJywgJzgnLCAnLW1hJywgJzIwMCcsICctbWV0YWxfYmluZGluZycsICctaW1hZScsICc8aW5maWxlLm1hZT4nLCAnLW9tYWUnLCAnPG91dGZpbGUubWFlPic=

> <r_lp_tautomer_probability>
1

> <r_epik_Ionization_Penalty>
0.0058098

> <r_epik_Ionization_Penalty_Charging>
0

> <r_epik_Ionization_Penalty_Neutral>
0.0058098

> <r_epik_State_Penalty>
0.00411166

> <r_epik_Charging_Adjusted_Penalty>
0.00411166

> <i_epik_Tot_Q>
0

> <i_epik_Tot_abs_Q>
0

> <r_epik_Metal_State_Penalty>
-0

> <b_epik_Metal_Only>
0

> <s_lp_Force_Field>
OPLS_2005

> <r_lp_Energy>
52.3077

> <b_lp_Chiralities_Consistent>
1

> <s_lp_Variant>
AV-unprocessed.smi:255-4

> <Gold.Version>
5.8.1

> <Gold.Id.Protein>
6NUR|6NUR_protein|mol2

> <Gold.PLP.Fitness>
45.8492

> <Gold.PLP.PLP>
-35.2627

> <Gold.PLP.part.hbond>
-3.8949

> <Gold.PLP.part.metal>
0.0000

> <Gold.PLP.part.buried>
-6.3611

> <Gold.PLP.part.nonpolar>
-25.5558

> <Gold.PLP.part.repulsive>
0.0000

> <Gold.PLP.ligand.clash>
0.0000

> <Gold.PLP.ligand.torsion>
0.1013

> <Gold.PLP.Chemscore.Hbond>
3.5824

> <Gold.PLP.Chemscore.CHOScore>
0.0000

> <Gold.PLP.Chemscore.Metal>
0.0000

> <Gold.Chemscore.Hbonds>
donor molecule, donor type, donor heavy atom, donor atom, acceptor molecule, acceptor atom, score
      P1  H  6896  6908       L1    12  1.00
      P1  H  6931  6943       L1    20  1.00
      P1  H  6934  6947       L1    20  0.55
      P1  H  7997  8009       L1     1  1.00

> <Gold.PLP.Chemscore.Internal.Correction>
0.0418

> <Gold.Rescore>
     Score         DG    S(hbond)    S(metal)    S(lipo)     H(rot)  DE(clash)    DE(int)     intcor
     11.27     -14.28       3.26        0.00      55.02       3.33       0.03       2.98       ----

> <Gold.Chemscore.Fitness>
11.2660

> <Gold.Chemscore.DG>
-14.2750

> <Gold.Chemscore.ZeroCoef>
-5.4800

> <Gold.Chemscore.Hbond>
3.2562

> <Gold.Chemscore.Metal>
0.0000

> <Gold.Chemscore.Lipo>
55.0185

> <Gold.Chemscore.Internal_Hbond>
0.0000

> <Gold.Chemscore.DEClash>
0.0279

> <Gold.Chemscore.DEInternal>
2.9811

> <Gold.Chemscore.Rot>
3.3273

> <Gold.Chemscore.Internal.Correction>
   9.000000E+99

> <Gold.Chemscore.Hbonds>
donor molecule, donor type, donor heavy atom, donor atom, acceptor molecule, acceptor atom, score
      P1  H  6896  6908       L1    12  0.92
      P1  H  6931  6943       L1    20  0.48
      P1  H  6934  6947       L1    20  0.16
      P1  H  7997  8009       L1     1  0.88

> <Gold.Chemscore.Hbond.Weighted>
-10.8758

> <Gold.Chemscore.Metal.Weighted>
-0.0000

> <Gold.Chemscore.Lipo.Weighted>
-6.4372

> <Gold.Chemscore.Internal_Hbond.Weighted>
0.0000

> <Gold.Chemscore.DEClash.Weighted>
0.0279

> <Gold.Chemscore.DEInternal.Weighted>
2.9811

> <Gold.Chemscore.Rot.Weighted>
8.5179

> <Gold.Chemscore.Internal.Correction.Weighted>
   9.000000E+99

> <Gold.Protein.RotatedTorsions>
[ 6907 6896 6895 6894 ] final -126.16 input  -60.11 | X-H torsion
[ 7974 7965 7964 7962 ] final -152.52 input  175.53 | X-H torsion
[ 8008 7997 7996 7995 ] final -148.62 input   59.86 | X-H torsion
[ 10167 10162 10161 10158 ] final  114.86 input  -65.29 | X-H torsion
[ 10718 10713 10712 10709 ] final  -88.18 input   66.30 | X-H torsion
[ 10763 10752 10751 10750 ] final  -95.32 input  -60.55 | X-H torsion
[ 11005 11000 10999 10996 ] final  123.51 input  -57.11 | X-H torsion

> <Gold.Protein.ActiveResidues>
 VAL166  LYS551  ARG553  GLY616  TRP617  ASP618  TYR619  PRO620  LYS621  CYS622 
 ASP623  PHE694  ASN695  SER759  ASP760  ASP761  ALA762  ILE779  LEU786  VAL792 
 PHE793  MET794  SER795  GLU796  ALA797  LYS798  CYS799  TRP800  GLU811  SER814 

> <Gold.Protein.RotatedAtoms>
  150.8940  133.7205  159.2896 H   0  0  0  0  0  0  0  0  0  0  0  0  # atno 6907 bound_to 6896
  151.4745  135.1047  159.9770 H   0  0  0  0  0  0  0  0  0  0  0  0  # atno 6908 bound_to 6896
  152.4837  133.8272  159.7140 H   0  0  0  0  0  0  0  0  0  0  0  0  # atno 6909 bound_to 6896
  144.7789  140.4650  143.5853 H   0  0  0  0  0  0  0  0  0  0  0  0  # atno 7974 bound_to 7965
  155.5945  140.0656  157.2749 H   0  0  0  0  0  0  0  0  0  0  0  0  # atno 8008 bound_to 7997
  154.4296  140.1829  156.1156 H   0  0  0  0  0  0  0  0  0  0  0  0  # atno 8009 bound_to 7997
  156.0207  140.3317  155.7039 H   0  0  0  0  0  0  0  0  0  0  0  0  # atno 8010 bound_to 7997
  139.6358  144.7119  151.2338 H   0  0  0  0  0  0  0  0  0  0  0  0  # atno 10167 bound_to 10162
  155.9984  130.4826  150.4980 H   0  0  0  0  0  0  0  0  0  0  0  0  # atno 10718 bound_to 10713
  154.7137  135.5125  153.8706 H   0  0  0  0  0  0  0  0  0  0  0  0  # atno 10763 bound_to 10752
  153.0802  135.6629  154.0069 H   0  0  0  0  0  0  0  0  0  0  0  0  # atno 10764 bound_to 10752
  153.9906  135.3020  155.3392 H   0  0  0  0  0  0  0  0  0  0  0  0  # atno 10765 bound_to 10752
  139.9316  134.9641  156.8271 H   0  0  0  0  0  0  0  0  0  0  0  0  # atno 11005 bound_to 11000
  145.6105  139.1513  143.3078 LP  0  0  0  0  0  0  0  0  0  0  0  0  # atno 17320 bound_to 7965
  146.1986  140.6221  142.9112 LP  0  0  0  0  0  0  0  0  0  0  0  0  # atno 17321 bound_to 7965
  140.7464  143.6399  150.8345 LP  0  0  0  0  0  0  0  0  0  0  0  0  # atno 17342 bound_to 10162
  140.0030  143.5724  152.2868 LP  0  0  0  0  0  0  0  0  0  0  0  0  # atno 17343 bound_to 10162
  157.2968  131.0637  151.2096 LP  0  0  0  0  0  0  0  0  0  0  0  0  # atno 17370 bound_to 10713
  157.3089  130.6880  149.6205 LP  0  0  0  0  0  0  0  0  0  0  0  0  # atno 17371 bound_to 10713
  140.6187  134.0014  155.7608 LP  0  0  0  0  0  0  0  0  0  0  0  0  # atno 17394 bound_to 11000
  141.0908  133.9920  157.3241 LP  0  0  0  0  0  0  0  0  0  0  0  0  # atno 17395 bound_to 11000

$$$$
