AV-unprocessed.smi:3158|AV-procd|sdf|12048|dock5
  -GOLD-   2272017473D 1   1.00000     0.00000
 Structure written by MMmdl.
 39 39  0  0  0  0  0  0  0  0  1 V2000
  149.7963  138.8919  154.1485 C   0  0  0  0  0  0  0  0  0  0  0  0
  151.1114  138.1250  153.9481 C   0  0  0  0  0  0  0  0  0  0  0  0
  151.2620  136.8909  154.8591 C   0  0  1  0  0  0  0  0  0  0  0  0
  151.0168  137.2409  156.3333 C   0  0  0  0  0  0  0  0  0  0  0  0
  150.3331  135.8348  154.4614 N   0  0  0  0  0  0  0  0  0  0  0  0
  150.2505  134.6094  155.0045 C   0  0  0  0  0  0  0  0  0  0  0  0
  150.9773  134.2218  155.9199 O   0  0  0  0  0  0  0  0  0  0  0  0
  149.1550  133.6867  154.4442 C   0  0  1  0  0  0  0  0  0  0  0  0
  148.3497  133.0392  155.5829 C   0  0  0  0  0  0  0  0  0  0  0  0
  148.2399  134.3699  153.5120 N   0  0  0  0  0  0  0  0  0  0  0  0
  147.2586  133.4928  152.8828 C   0  0  0  0  0  0  0  0  0  0  0  0
  146.1935  134.3422  152.1760 C   0  0  0  0  0  0  0  0  0  0  0  0
  145.4002  133.5448  151.2611 N   0  0  0  0  0  0  0  0  0  0  0  0
  145.8342  132.6424  150.3131 C   0  0  0  0  0  0  0  0  0  0  0  0
  144.7254  132.1330  149.7002 C   0  0  0  0  0  0  0  0  0  0  0  0
  143.6459  132.7934  150.3511 C   0  0  0  0  0  0  0  0  0  0  0  0
  144.0530  133.6370  151.2857 N   0  0  0  0  0  0  0  0  0  0  0  0
  149.7157  139.7137  153.4368 H   0  0  0  0  0  0  0  0  0  0  0  0
  149.7283  139.3180  155.1497 H   0  0  0  0  0  0  0  0  0  0  0  0
  148.9348  138.2396  154.0024 H   0  0  0  0  0  0  0  0  0  0  0  0
  151.1683  137.8066  152.9066 H   0  0  0  0  0  0  0  0  0  0  0  0
  151.9511  138.8039  154.1023 H   0  0  0  0  0  0  0  0  0  0  0  0
  152.2905  136.5345  154.7806 H   0  0  0  0  0  0  0  0  0  0  0  0
  151.7133  138.0067  156.6757 H   0  0  0  0  0  0  0  0  0  0  0  0
  151.1507  136.3666  156.9716 H   0  0  0  0  0  0  0  0  0  0  0  0
  150.0052  137.6167  156.4906 H   0  0  0  0  0  0  0  0  0  0  0  0
  149.6868  136.0597  153.7190 H   0  0  0  0  0  0  0  0  0  0  0  0
  149.6436  132.8783  153.8970 H   0  0  0  0  0  0  0  0  0  0  0  0
  149.0023  132.5076  156.2766 H   0  0  0  0  0  0  0  0  0  0  0  0
  147.6340  132.3156  155.1913 H   0  0  0  0  0  0  0  0  0  0  0  0
  147.7889  133.7802  156.1544 H   0  0  0  0  0  0  0  0  0  0  0  0
  148.7451  134.8849  152.8051 H   0  0  0  0  0  0  0  0  0  0  0  0
  147.7377  132.8363  152.1555 H   0  0  0  0  0  0  0  0  0  0  0  0
  146.7919  132.8612  153.6402 H   0  0  0  0  0  0  0  0  0  0  0  0
  145.5256  134.8072  152.9032 H   0  0  0  0  0  0  0  0  0  0  0  0
  146.6617  135.1504  151.6124 H   0  0  0  0  0  0  0  0  0  0  0  0
  146.8835  132.4392  150.1568 H   0  0  0  0  0  0  0  0  0  0  0  0
  144.6905  131.4001  148.9081 H   0  0  0  0  0  0  0  0  0  0  0  0
  142.5860  132.6854  150.1737 H   0  0  0  0  0  0  0  0  0  0  0  0
  1  2  1  0  0  0  0
  1 18  1  0  0  0  0
  1 19  1  0  0  0  0
  1 20  1  0  0  0  0
  2  3  1  0  0  0  0
  2 21  1  0  0  0  0
  2 22  1  0  0  0  0
  3  4  1  0  0  0  0
  3  5  1  0  0  0  0
  3 23  1  0  0  0  0
  4 24  1  0  0  0  0
  4 25  1  0  0  0  0
  4 26  1  0  0  0  0
  5  6  1  0  0  0  0
  5 27  1  0  0  0  0
  6  7  2  0  0  0  0
  6  8  1  0  0  0  0
  8  9  1  0  0  0  0
  8 10  1  0  0  0  0
  8 28  1  0  0  0  0
  9 29  1  0  0  0  0
  9 30  1  0  0  0  0
  9 31  1  0  0  0  0
 10 11  1  0  0  0  0
 10 32  1  0  0  0  0
 11 12  1  0  0  0  0
 11 33  1  0  0  0  0
 11 34  1  0  0  0  0
 12 13  1  0  0  0  0
 12 35  1  0  0  0  0
 12 36  1  0  0  0  0
 13 17  1  0  0  0  0
 13 14  1  0  0  0  0
 14 15  2  0  0  0  0
 14 37  1  0  0  0  0
 15 16  1  0  0  0  0
 15 38  1  0  0  0  0
 16 17  2  0  0  0  0
 16 39  1  0  0  0  0
M  END
> <s_m_source_file>
AV-unprocessed.smi

> <i_m_source_file_index>
3158

> <i_lp_mmshare_version>
43012

> <i_f3d_flags>
0

> <s_epik_input>
W0NIM11bQ0gyXVtDQEhdKFtDSDNdKVtOSF1DKD1PKVtDQEhdKFtDSDNdKVtOSF1bQ0gyXVtDSDJdbjFbY0hdW2NIXVtjSF1uMQ==

> <s_epik_cmdline>
J2VwaWtfcHl0aG9uJywgJy1waCcsICc3LjAnLCAnLXRuJywgJzgnLCAnLW1hJywgJzIwMCcsICctbWV0YWxfYmluZGluZycsICctaW1hZScsICc8aW5maWxlLm1hZT4nLCAnLW9tYWUnLCAnPG91dGZpbGUubWFlPic=

> <r_lp_tautomer_probability>
1

> <r_epik_Ionization_Penalty>
0.724013

> <r_epik_Ionization_Penalty_Charging>
0

> <r_epik_Ionization_Penalty_Neutral>
0.724013

> <r_epik_State_Penalty>
0.74758

> <r_epik_Charging_Adjusted_Penalty>
0.74758

> <i_epik_Tot_Q>
0

> <i_epik_Tot_abs_Q>
0

> <r_epik_Metal_State_Penalty>
0.746846

> <b_epik_Metal_Only>
0

> <s_lp_Force_Field>
OPLS_2005

> <r_lp_Energy>
5.19136

> <b_lp_Chiralities_Consistent>
1

> <s_lp_Variant>
AV-unprocessed.smi:3158-8

> <Gold.Version>
5.8.1

> <Gold.Id.Protein>
6NUR|6NUR_protein|mol2

> <Gold.PLP.Fitness>
41.3998

> <Gold.PLP.PLP>
-30.3265

> <Gold.PLP.part.hbond>
-2.3736

> <Gold.PLP.part.metal>
0.0000

> <Gold.PLP.part.buried>
-4.3562

> <Gold.PLP.part.nonpolar>
-24.4608

> <Gold.PLP.part.repulsive>
0.2242

> <Gold.PLP.ligand.clash>
0.0000

> <Gold.PLP.ligand.torsion>
0.4810

> <Gold.PLP.Chemscore.Hbond>
2.0000

> <Gold.PLP.Chemscore.CHOScore>
1.9671

> <Gold.PLP.Chemscore.Metal>
0.0000

> <Gold.Chemscore.Hbonds>
donor molecule, donor type, donor heavy atom, donor atom, acceptor molecule, acceptor atom, score
      L1  H     5    27       P1  7948  1.00
      L1  H    10    32       P1  7948  0.90
      L1  C    14    37       P1 10747  0.79
      L1  C    16    39       P1 10186  0.96

> <Gold.PLP.Chemscore.Internal.Correction>
0.1341

> <Gold.Rescore>
     Score         DG    S(hbond)    S(metal)    S(lipo)     H(rot)  DE(clash)    DE(int)     intcor
     13.83     -14.54       1.72        0.00      74.77       2.12       0.05       0.66       ----

> <Gold.Chemscore.Fitness>
13.8334

> <Gold.Chemscore.DG>
-14.5433

> <Gold.Chemscore.ZeroCoef>
-5.4800

> <Gold.Chemscore.Hbond>
1.7217

> <Gold.Chemscore.Metal>
0.0000

> <Gold.Chemscore.Lipo>
74.7739

> <Gold.Chemscore.Internal_Hbond>
0.0000

> <Gold.Chemscore.DEClash>
0.0474

> <Gold.Chemscore.DEInternal>
0.6625

> <Gold.Chemscore.Rot>
2.1234

> <Gold.Chemscore.Internal.Correction>
   9.000000E+99

> <Gold.Chemscore.Hbonds>
donor molecule, donor type, donor heavy atom, donor atom, acceptor molecule, acceptor atom, score
      L1  H     5    27       P1  7948  0.29
      L1  H    10    32       P1  7948  0.17

> <Gold.Chemscore.Hbond.Weighted>
-5.7506

> <Gold.Chemscore.Metal.Weighted>
-0.0000

> <Gold.Chemscore.Lipo.Weighted>
-8.7486

> <Gold.Chemscore.Internal_Hbond.Weighted>
0.0000

> <Gold.Chemscore.DEClash.Weighted>
0.0474

> <Gold.Chemscore.DEInternal.Weighted>
0.6625

> <Gold.Chemscore.Rot.Weighted>
5.4359

> <Gold.Chemscore.Internal.Correction.Weighted>
   9.000000E+99

> <Gold.Protein.RotatedTorsions>
[ 6907 6896 6895 6894 ] final   -6.88 input  -60.11 | X-H torsion
[ 7974 7965 7964 7962 ] final   41.72 input  175.53 | X-H torsion
[ 8008 7997 7996 7995 ] final  129.43 input   59.86 | X-H torsion
[ 10167 10162 10161 10158 ] final -106.53 input  -65.29 | X-H torsion
[ 10718 10713 10712 10709 ] final   50.75 input   66.30 | X-H torsion
[ 10763 10752 10751 10750 ] final -156.62 input  -60.55 | X-H torsion
[ 11005 11000 10999 10996 ] final  -46.54 input  -57.11 | X-H torsion

> <Gold.Protein.ActiveResidues>
 VAL166  LYS551  ARG553  GLY616  TRP617  ASP618  TYR619  PRO620  LYS621  CYS622 
 ASP623  PHE694  ASN695  SER759  ASP760  ASP761  ALA762  ILE779  LEU786  VAL792 
 PHE793  MET794  SER795  GLU796  ALA797  LYS798  CYS799  TRP800  GLU811  SER814 

> <Gold.Protein.RotatedAtoms>
  151.4584  135.1036  159.9717 H   0  0  0  0  0  0  0  0  0  0  0  0  # atno 6907 bound_to 6896
  152.4862  133.8375  159.7146 H   0  0  0  0  0  0  0  0  0  0  0  0  # atno 6908 bound_to 6896
  150.8974  133.7103  159.2915 H   0  0  0  0  0  0  0  0  0  0  0  0  # atno 6909 bound_to 6896
  146.0800  139.5383  142.9543 H   0  0  0  0  0  0  0  0  0  0  0  0  # atno 7974 bound_to 7965
  156.2936  140.2621  156.2597 H   0  0  0  0  0  0  0  0  0  0  0  0  # atno 8008 bound_to 7997
  154.9801  140.0390  157.2292 H   0  0  0  0  0  0  0  0  0  0  0  0  # atno 8009 bound_to 7997
  154.7780  140.2790  155.6091 H   0  0  0  0  0  0  0  0  0  0  0  0  # atno 8010 bound_to 7997
  140.1868  143.3923  152.1238 H   0  0  0  0  0  0  0  0  0  0  0  0  # atno 10167 bound_to 10162
  157.4914  130.8379  149.8208 H   0  0  0  0  0  0  0  0  0  0  0  0  # atno 10718 bound_to 10713
  154.7699  135.3142  154.8210 H   0  0  0  0  0  0  0  0  0  0  0  0  # atno 10763 bound_to 10752
  153.8948  135.6821  153.4762 H   0  0  0  0  0  0  0  0  0  0  0  0  # atno 10764 bound_to 10752
  153.1311  135.4780  154.9284 H   0  0  0  0  0  0  0  0  0  0  0  0  # atno 10765 bound_to 10752
  141.0585  133.6717  156.3169 H   0  0  0  0  0  0  0  0  0  0  0  0  # atno 11005 bound_to 11000
  145.6235  141.0318  143.1902 LP  0  0  0  0  0  0  0  0  0  0  0  0  # atno 17320 bound_to 7965
  144.7287  139.7794  143.7355 LP  0  0  0  0  0  0  0  0  0  0  0  0  # atno 17321 bound_to 7965
  139.5273  144.7117  151.5184 LP  0  0  0  0  0  0  0  0  0  0  0  0  # atno 17342 bound_to 10162
  140.6483  143.8750  150.6759 LP  0  0  0  0  0  0  0  0  0  0  0  0  # atno 17343 bound_to 10162
  156.0176  130.3808  150.2062 LP  0  0  0  0  0  0  0  0  0  0  0  0  # atno 17370 bound_to 10713
  157.0251  130.9991  151.3328 LP  0  0  0  0  0  0  0  0  0  0  0  0  # atno 17371 bound_to 10713
  140.5916  134.5645  157.5500 LP  0  0  0  0  0  0  0  0  0  0  0  0  # atno 17394 bound_to 11000
  139.9411  134.7785  156.0676 LP  0  0  0  0  0  0  0  0  0  0  0  0  # atno 17395 bound_to 11000

$$$$
