AV-unprocessed.smi:160|AV-procd|sdf|1352|dock5
  -GOLD-   2262019 53D 1   1.00000     0.00000
 Structure written by MMmdl.
 29 30  0  0  0  0  0  0  0  0  1 V2000
  140.9667  139.1275  152.9259 N   0  0  0  0  0  0  0  0  0  0  0  0
  140.5080  137.9644  153.3997 C   0  0  0  0  0  0  0  0  0  0  0  0
  139.3224  137.7878  153.6754 O   0  0  0  0  0  0  0  0  0  0  0  0
  141.5250  136.8702  153.5736 C   0  0  0  0  0  0  0  0  0  0  0  0
  141.2595  135.7772  154.3481 N   0  0  0  0  0  0  0  0  0  0  0  0
  142.4099  135.1329  154.2007 C   0  0  0  0  0  0  0  0  0  0  0  0
  143.2881  135.7530  153.4028 N   0  0  0  0  0  0  0  0  0  0  0  0
  144.6930  135.4012  153.0152 C   0  0  1  0  0  0  0  0  0  0  0  0
  144.6975  134.1134  152.4843 O   0  0  0  0  0  0  0  0  0  0  0  0
  144.4432  134.1858  151.0876 C   0  0  2  0  0  0  0  0  0  0  0  0
  144.9059  132.8915  150.4018 C   0  0  0  0  0  0  0  0  0  0  0  0
  144.6226  132.9463  149.0199 O   0  0  0  0  0  0  0  0  0  0  0  0
  145.2519  135.4210  150.6726 C   0  0  1  0  0  0  0  0  0  0  0  0
  144.6433  136.0479  149.5615 O   0  0  0  0  0  0  0  0  0  0  0  0
  145.2004  136.3342  151.8994 C   0  0  2  0  0  0  0  0  0  0  0  0
  146.4857  136.8414  152.1955 O   0  0  0  0  0  0  0  0  0  0  0  0
  142.7273  136.9193  152.9966 N   0  0  0  0  0  0  0  0  0  0  0  0
  145.2509  135.4573  153.9512 H   0  0  0  0  0  0  0  0  0  0  0  0
  143.3792  134.3606  150.9151 H   0  0  0  0  0  0  0  0  0  0  0  0
  146.2794  135.1405  150.4345 H   0  0  0  0  0  0  0  0  0  0  0  0
  144.5134  137.1701  151.7588 H   0  0  0  0  0  0  0  0  0  0  0  0
  140.3320  139.8998  152.7862 H   0  0  0  0  0  0  0  0  0  0  0  0
  141.9482  139.2244  152.7096 H   0  0  0  0  0  0  0  0  0  0  0  0
  142.6148  134.1904  154.6874 H   0  0  0  0  0  0  0  0  0  0  0  0
  145.9848  132.7769  150.5092 H   0  0  0  0  0  0  0  0  0  0  0  0
  144.4398  132.0143  150.8517 H   0  0  0  0  0  0  0  0  0  0  0  0
  145.0236  133.7234  148.6615 H   0  0  0  0  0  0  0  0  0  0  0  0
  145.0941  135.7703  148.7787 H   0  0  0  0  0  0  0  0  0  0  0  0
  147.0765  136.5825  151.5048 H   0  0  0  0  0  0  0  0  0  0  0  0
  1  2  1  0  0  0  0
  1 22  1  0  0  0  0
  1 23  1  0  0  0  0
  2  3  2  0  0  0  0
  2  4  1  0  0  0  0
  4 17  2  0  0  0  0
  4  5  1  0  0  0  0
  5  6  2  0  0  0  0
  6  7  1  0  0  0  0
  6 24  1  0  0  0  0
  7  8  1  0  0  0  0
  7 17  1  0  0  0  0
  8 18  1  0  0  0  0
  8 15  1  0  0  0  0
  8  9  1  0  0  0  0
  9 10  1  0  0  0  0
 10 19  1  0  0  0  0
 10 11  1  0  0  0  0
 10 13  1  0  0  0  0
 11 12  1  0  0  0  0
 11 25  1  0  0  0  0
 11 26  1  0  0  0  0
 12 27  1  0  0  0  0
 13 20  1  0  0  0  0
 13 14  1  0  0  0  0
 13 15  1  0  0  0  0
 14 28  1  0  0  0  0
 15 21  1  0  0  0  0
 15 16  1  0  0  0  0
 16 29  1  0  0  0  0
M  END
> <s_m_source_file>
AV-unprocessed.smi

> <i_m_source_file_index>
160

> <i_lp_mmshare_version>
43012

> <i_f3d_flags>
0

> <s_epik_input>
W05IMl1DKD1PKWMxbltjSF1uKG4xKVtDQEBIXTJPW0NASF0oW0NIMl1bT0hdKVtDQEBIXShbT0hdKVtDQEhdMltPSF0=

> <s_epik_cmdline>
J2VwaWtfcHl0aG9uJywgJy1waCcsICc3LjAnLCAnLXRuJywgJzgnLCAnLW1hJywgJzIwMCcsICctbWV0YWxfYmluZGluZycsICctaW1hZScsICc8aW5maWxlLm1hZT4nLCAnLW9tYWUnLCAnPG91dGZpbGUubWFlPic=

> <r_lp_tautomer_probability>
1

> <r_epik_Ionization_Penalty>
1.06932e-05

> <r_epik_Ionization_Penalty_Charging>
0

> <r_epik_Ionization_Penalty_Neutral>
1.06932e-05

> <r_epik_State_Penalty>
-0

> <r_epik_Charging_Adjusted_Penalty>
0

> <i_epik_Tot_Q>
0

> <i_epik_Tot_abs_Q>
0

> <r_epik_Metal_State_Penalty>
0.0142097

> <b_epik_Metal_Only>
0

> <s_epik_Chemistry_Notes>
This compound contains an acetal/aminal-like group ( X-CH(R)-Y where X, Y are N, S, or O) that may be acid/base labile, releasing an aldehyde.

> <s_lp_Force_Field>
OPLS_2005

> <r_lp_Energy>
33.6029

> <b_lp_Chiralities_Consistent>
1

> <s_lp_Variant>
AV-unprocessed.smi:160-10

> <Gold.Version>
5.8.1

> <Gold.Id.Protein>
6NUR|6NUR_protein|mol2

> <Gold.PLP.Fitness>
43.4349

> <Gold.PLP.PLP>
-28.5404

> <Gold.PLP.part.hbond>
-6.7606

> <Gold.PLP.part.metal>
0.0000

> <Gold.PLP.part.buried>
-8.2443

> <Gold.PLP.part.nonpolar>
-15.2592

> <Gold.PLP.part.repulsive>
0.5683

> <Gold.PLP.ligand.clash>
0.0000

> <Gold.PLP.ligand.torsion>
0.3016

> <Gold.PLP.Chemscore.Hbond>
4.1504

> <Gold.PLP.Chemscore.CHOScore>
1.0000

> <Gold.PLP.Chemscore.Metal>
0.0000

> <Gold.Chemscore.Hbonds>
donor molecule, donor type, donor heavy atom, donor atom, acceptor molecule, acceptor atom, score
      L1  H     1    22       P1 10160  0.18
      L1  H     1    23       P1 10175  0.92
      L1  H    12    27       P1  7921  1.00
      L1  H    14    28       P1  7921  1.00
      L1  H    16    29       P1  7948  0.46
      P1  H 11000 11005       L1     5  0.42
      L1  C     6    24       P1 10957  1.00

> <Gold.PLP.Chemscore.Internal.Correction>
0.0464

> <Gold.Rescore>
     Score         DG    S(hbond)    S(metal)    S(lipo)     H(rot)  DE(clash)    DE(int)     intcor
     10.79     -11.04       3.97        0.00      23.18       4.06       0.00       0.25       ----

> <Gold.Chemscore.Fitness>
10.7933

> <Gold.Chemscore.DG>
-11.0428

> <Gold.Chemscore.ZeroCoef>
-5.4800

> <Gold.Chemscore.Hbond>
3.9652

> <Gold.Chemscore.Metal>
0.0000

> <Gold.Chemscore.Lipo>
23.1846

> <Gold.Chemscore.Internal_Hbond>
0.0000

> <Gold.Chemscore.DEClash>
0.0000

> <Gold.Chemscore.DEInternal>
0.2494

> <Gold.Chemscore.Rot>
4.0600

> <Gold.Chemscore.Internal.Correction>
   9.000000E+99

> <Gold.Chemscore.Hbonds>
donor molecule, donor type, donor heavy atom, donor atom, acceptor molecule, acceptor atom, score
      L1  H     1    22       P1 10160  0.18
      L1  H     1    23       P1 10175  0.65
      L1  H    12    27       P1  7921  0.90
      L1  H    14    28       P1  7921  1.00
      L1  H    16    29       P1  7948  0.46
      P1  H 11000 11005       L1     5  0.11

> <Gold.Chemscore.Hbond.Weighted>
-13.2438

> <Gold.Chemscore.Metal.Weighted>
-0.0000

> <Gold.Chemscore.Lipo.Weighted>
-2.7126

> <Gold.Chemscore.Internal_Hbond.Weighted>
0.0000

> <Gold.Chemscore.DEClash.Weighted>
0.0000

> <Gold.Chemscore.DEInternal.Weighted>
0.2494

> <Gold.Chemscore.Rot.Weighted>
10.3936

> <Gold.Chemscore.Internal.Correction.Weighted>
   9.000000E+99

> <Gold.Protein.RotatedTorsions>
[ 6907 6896 6895 6894 ] final   -9.80 input  -60.11 | X-H torsion
[ 7974 7965 7964 7962 ] final  169.85 input  175.53 | X-H torsion
[ 8008 7997 7996 7995 ] final  113.72 input   59.86 | X-H torsion
[ 10167 10162 10161 10158 ] final   25.35 input  -65.29 | X-H torsion
[ 10718 10713 10712 10709 ] final  156.89 input   66.30 | X-H torsion
[ 10763 10752 10751 10750 ] final  -71.45 input  -60.55 | X-H torsion
[ 11005 11000 10999 10996 ] final   40.20 input  -57.11 | X-H torsion

> <Gold.Protein.ActiveResidues>
 VAL166  LYS551  ARG553  GLY616  TRP617  ASP618  TYR619  PRO620  LYS621  CYS622 
 ASP623  PHE694  ASN695  SER759  ASP760  ASP761  ALA762  ILE779  LEU786  VAL792 
 PHE793  MET794  SER795  GLU796  ALA797  LYS798  CYS799  TRP800  GLU811  SER814 

> <Gold.Protein.RotatedAtoms>
  151.4120  135.0986  159.9587 H   0  0  0  0  0  0  0  0  0  0  0  0  # atno 6907 bound_to 6896
  152.5017  133.8788  159.7346 H   0  0  0  0  0  0  0  0  0  0  0  0  # atno 6908 bound_to 6896
  150.9285  133.6737  159.2844 H   0  0  0  0  0  0  0  0  0  0  0  0  # atno 6909 bound_to 6896
  144.7342  139.9115  143.6415 H   0  0  0  0  0  0  0  0  0  0  0  0  # atno 7974 bound_to 7965
  156.2276  140.2974  156.0106 H   0  0  0  0  0  0  0  0  0  0  0  0  # atno 8008 bound_to 7997
  155.2314  140.0419  157.2980 H   0  0  0  0  0  0  0  0  0  0  0  0  # atno 8009 bound_to 7997
  154.5941  140.2409  155.7888 H   0  0  0  0  0  0  0  0  0  0  0  0  # atno 8010 bound_to 7997
  140.5113  144.0155  150.6374 H   0  0  0  0  0  0  0  0  0  0  0  0  # atno 10167 bound_to 10162
  157.1988  131.0671  151.2037 H   0  0  0  0  0  0  0  0  0  0  0  0  # atno 10718 bound_to 10713
  154.4319  135.5962  153.6074 H   0  0  0  0  0  0  0  0  0  0  0  0  # atno 10763 bound_to 10752
  152.9799  135.5977  154.3829 H   0  0  0  0  0  0  0  0  0  0  0  0  # atno 10764 bound_to 10752
  154.3668  135.2841  155.2268 H   0  0  0  0  0  0  0  0  0  0  0  0  # atno 10765 bound_to 10752
  140.1954  134.3936  155.8124 H   0  0  0  0  0  0  0  0  0  0  0  0  # atno 11005 bound_to 11000
  146.0997  139.3992  143.0354 LP  0  0  0  0  0  0  0  0  0  0  0  0  # atno 17320 bound_to 7965
  145.7596  140.9941  143.1207 LP  0  0  0  0  0  0  0  0  0  0  0  0  # atno 17321 bound_to 7965
  140.3478  143.2981  152.0519 LP  0  0  0  0  0  0  0  0  0  0  0  0  # atno 17342 bound_to 10162
  139.4897  144.6396  151.6905 LP  0  0  0  0  0  0  0  0  0  0  0  0  # atno 17343 bound_to 10162
  157.3787  130.7220  149.6615 LP  0  0  0  0  0  0  0  0  0  0  0  0  # atno 17370 bound_to 10713
  155.9703  130.4178  150.4299 LP  0  0  0  0  0  0  0  0  0  0  0  0  # atno 17371 bound_to 10713
  141.2227  133.7067  156.8167 LP  0  0  0  0  0  0  0  0  0  0  0  0  # atno 17394 bound_to 11000
  140.2113  134.8825  157.3278 LP  0  0  0  0  0  0  0  0  0  0  0  0  # atno 17395 bound_to 11000

$$$$
