AV-unprocessed.smi:2650|AV-procd|sdf|10291|dock8
  -GOLD-   2272014303D 1   1.00000     0.00000
 Structure written by MMmdl.
 33 34  0  0  0  0  0  0  0  0  1 V2000
  144.6356  136.6451  152.7400 O   0  0  0  0  0  0  0  0  0  0  0  0
  145.8392  136.4244  152.6016 C   0  0  0  0  0  0  0  0  0  0  0  0
  146.7970  137.2284  153.0857 N   0  0  0  0  0  0  0  0  0  0  0  0
  146.5546  138.4525  153.8389 C   0  0  0  0  0  0  0  0  0  0  0  0
  147.2516  139.6608  153.1868 C   0  0  0  0  0  0  0  0  0  0  0  0
  148.3168  140.1895  154.0432 N   0  0  0  0  0  0  0  0  0  0  0  0
  149.4170  139.5040  154.3840 C   0  0  0  0  0  0  0  0  0  0  0  0
  149.6930  138.3534  154.0453 O   0  0  0  0  0  0  0  0  0  0  0  0
  150.3311  140.3420  155.2677 C   0  0  0  0  0  0  0  0  0  0  0  0
  149.5746  141.6688  155.3887 C   0  0  0  0  0  0  0  0  0  0  0  0
  148.3227  141.4282  154.5558 C   0  0  0  0  0  0  0  0  0  0  0  0
  147.4570  142.2877  154.3961 O   0  0  0  0  0  0  0  0  0  0  0  0
  146.3678  135.3664  151.9616 N   0  0  0  0  0  0  0  0  0  0  0  0
  145.6856  134.2948  151.3259 C   0  0  0  0  0  0  0  0  0  0  0  0
  146.5196  133.3432  150.6964 C   0  0  0  0  0  0  0  0  0  0  0  0
  145.9399  132.2417  150.0376 C   0  0  0  0  0  0  0  0  0  0  0  0
  144.5389  132.1199  150.0254 C   0  0  0  0  0  0  0  0  0  0  0  0
  143.7814  133.1108  150.6764 C   0  0  0  0  0  0  0  0  0  0  0  0
  144.3351  134.1672  151.3080 N   0  0  0  0  0  0  0  0  0  0  0  0
  147.7611  136.9742  152.9273 H   0  0  0  0  0  0  0  0  0  0  0  0
  145.4775  138.6175  153.8771 H   0  0  0  0  0  0  0  0  0  0  0  0
  146.8860  138.3260  154.8712 H   0  0  0  0  0  0  0  0  0  0  0  0
  147.6661  139.3793  152.2169 H   0  0  0  0  0  0  0  0  0  0  0  0
  146.5197  140.4422  152.9748 H   0  0  0  0  0  0  0  0  0  0  0  0
  150.4699  139.8628  156.2374 H   0  0  0  0  0  0  0  0  0  0  0  0
  151.3052  140.4710  154.7950 H   0  0  0  0  0  0  0  0  0  0  0  0
  149.3081  141.8921  156.4223 H   0  0  0  0  0  0  0  0  0  0  0  0
  150.1483  142.5033  154.9842 H   0  0  0  0  0  0  0  0  0  0  0  0
  147.3753  135.3195  151.9288 H   0  0  0  0  0  0  0  0  0  0  0  0
  147.5945  133.4517  150.7158 H   0  0  0  0  0  0  0  0  0  0  0  0
  146.5601  131.5034  149.5512 H   0  0  0  0  0  0  0  0  0  0  0  0
  144.0575  131.2894  149.5307 H   0  0  0  0  0  0  0  0  0  0  0  0
  142.7031  133.0548  150.6912 H   0  0  0  0  0  0  0  0  0  0  0  0
  1  2  2  0  0  0  0
  2  3  1  0  0  0  0
  2 13  1  0  0  0  0
  3  4  1  0  0  0  0
  3 20  1  0  0  0  0
  4  5  1  0  0  0  0
  4 21  1  0  0  0  0
  4 22  1  0  0  0  0
  5  6  1  0  0  0  0
  5 23  1  0  0  0  0
  5 24  1  0  0  0  0
  6 11  1  0  0  0  0
  6  7  1  0  0  0  0
  7  8  2  0  0  0  0
  7  9  1  0  0  0  0
  9 10  1  0  0  0  0
  9 25  1  0  0  0  0
  9 26  1  0  0  0  0
 10 11  1  0  0  0  0
 10 27  1  0  0  0  0
 10 28  1  0  0  0  0
 11 12  2  0  0  0  0
 13 14  1  0  0  0  0
 13 29  1  0  0  0  0
 14 19  1  0  0  0  0
 14 15  2  0  0  0  0
 15 16  1  0  0  0  0
 15 30  1  0  0  0  0
 16 17  2  0  0  0  0
 16 31  1  0  0  0  0
 17 18  1  0  0  0  0
 17 32  1  0  0  0  0
 18 19  2  0  0  0  0
 18 33  1  0  0  0  0
M  END
> <s_m_source_file>
AV-unprocessed.smi

> <i_m_source_file_index>
2650

> <i_lp_mmshare_version>
43012

> <i_f3d_flags>
0

> <s_epik_input>
bjFbY0hdW2NIXVtjSF1bY0hdYzFbTkhdQyg9TylbTkhdW0NIMl1bQ0gyXU4yQyg9TylbQ0gyXVtDSDJdQzI9Tw==

> <s_epik_cmdline>
J2VwaWtfcHl0aG9uJywgJy1waCcsICc3LjAnLCAnLXRuJywgJzgnLCAnLW1hJywgJzIwMCcsICctbWV0YWxfYmluZGluZycsICctaW1hZScsICc8aW5maWxlLm1hZT4nLCAnLW9tYWUnLCAnPG91dGZpbGUubWFlPic=

> <r_lp_tautomer_probability>
1

> <r_epik_Ionization_Penalty>
4.11926e-05

> <r_epik_Ionization_Penalty_Charging>
0

> <r_epik_Ionization_Penalty_Neutral>
4.11926e-05

> <r_epik_State_Penalty>
-0

> <r_epik_Charging_Adjusted_Penalty>
0

> <i_epik_Tot_Q>
0

> <i_epik_Tot_abs_Q>
0

> <r_epik_Metal_State_Penalty>
-0

> <b_epik_Metal_Only>
0

> <s_lp_Force_Field>
OPLS_2005

> <r_lp_Energy>
11.0549

> <b_lp_Chiralities_Consistent>
1

> <s_lp_Variant>
AV-unprocessed.smi:2650-1

> <Gold.Version>
5.8.1

> <Gold.Id.Protein>
6NUR|6NUR_protein|mol2

> <Gold.PLP.Fitness>
41.1982

> <Gold.PLP.PLP>
-33.1048

> <Gold.PLP.part.hbond>
-2.0000

> <Gold.PLP.part.metal>
0.0000

> <Gold.PLP.part.buried>
-3.3128

> <Gold.PLP.part.nonpolar>
-28.8462

> <Gold.PLP.part.repulsive>
1.1398

> <Gold.PLP.ligand.clash>
0.0000

> <Gold.PLP.ligand.torsion>
0.3849

> <Gold.PLP.Chemscore.Hbond>
1.9520

> <Gold.PLP.Chemscore.CHOScore>
1.0000

> <Gold.PLP.Chemscore.Metal>
0.0000

> <Gold.Chemscore.Hbonds>
donor molecule, donor type, donor heavy atom, donor atom, acceptor molecule, acceptor atom, score
      L1  H     3    20       P1  7948  0.96
      L1  H    13    29       P1  7948  0.96
      L1  C    18    33       P1 10186  1.00

> <Gold.PLP.Chemscore.Internal.Correction>
0.0072

> <Gold.Rescore>
     Score         DG    S(hbond)    S(metal)    S(lipo)     H(rot)  DE(clash)    DE(int)     intcor
     12.64     -14.63       1.90        0.00      63.22       1.80       0.28       1.71       ----

> <Gold.Chemscore.Fitness>
12.6436

> <Gold.Chemscore.DG>
-14.6326

> <Gold.Chemscore.ZeroCoef>
-5.4800

> <Gold.Chemscore.Hbond>
1.9031

> <Gold.Chemscore.Metal>
0.0000

> <Gold.Chemscore.Lipo>
63.2159

> <Gold.Chemscore.Internal_Hbond>
0.0000

> <Gold.Chemscore.DEClash>
0.2807

> <Gold.Chemscore.DEInternal>
1.7082

> <Gold.Chemscore.Rot>
1.7968

> <Gold.Chemscore.Internal.Correction>
   9.000000E+99

> <Gold.Chemscore.Hbonds>
donor molecule, donor type, donor heavy atom, donor atom, acceptor molecule, acceptor atom, score
      L1  H     3    20       P1  7948  0.92
      L1  H    13    29       P1  7948  0.91

> <Gold.Chemscore.Hbond.Weighted>
-6.3562

> <Gold.Chemscore.Metal.Weighted>
-0.0000

> <Gold.Chemscore.Lipo.Weighted>
-7.3963

> <Gold.Chemscore.Internal_Hbond.Weighted>
0.0000

> <Gold.Chemscore.DEClash.Weighted>
0.2807

> <Gold.Chemscore.DEInternal.Weighted>
1.7082

> <Gold.Chemscore.Rot.Weighted>
4.5999

> <Gold.Chemscore.Internal.Correction.Weighted>
   9.000000E+99

> <Gold.Protein.RotatedTorsions>
[ 6907 6896 6895 6894 ] final  143.26 input  -60.11 | X-H torsion
[ 7974 7965 7964 7962 ] final   69.17 input  175.53 | X-H torsion
[ 8008 7997 7996 7995 ] final   41.33 input   59.86 | X-H torsion
[ 10167 10162 10161 10158 ] final  152.63 input  -65.29 | X-H torsion
[ 10718 10713 10712 10709 ] final  -44.33 input   66.30 | X-H torsion
[ 10763 10752 10751 10750 ] final  -30.71 input  -60.55 | X-H torsion
[ 11005 11000 10999 10996 ] final  -90.34 input  -57.11 | X-H torsion

> <Gold.Protein.ActiveResidues>
 VAL166  LYS551  ARG553  GLY616  TRP617  ASP618  TYR619  PRO620  LYS621  CYS622 
 ASP623  PHE694  ASN695  SER759  ASP760  ASP761  ALA762  ILE779  LEU786  VAL792 
 PHE793  MET794  SER795  GLU796  ALA797  LYS798  CYS799  TRP800  GLU811  SER814 

> <Gold.Protein.RotatedAtoms>
  152.2085  133.4893  159.5096 H   0  0  0  0  0  0  0  0  0  0  0  0  # atno 6907 bound_to 6896
  150.6985  134.1498  159.4145 H   0  0  0  0  0  0  0  0  0  0  0  0  # atno 6908 bound_to 6896
  151.9417  135.0210  160.0587 H   0  0  0  0  0  0  0  0  0  0  0  0  # atno 6909 bound_to 6896
  145.7936  139.2946  143.1196 H   0  0  0  0  0  0  0  0  0  0  0  0  # atno 7974 bound_to 7965
  155.2678  140.3364  155.4267 H   0  0  0  0  0  0  0  0  0  0  0  0  # atno 8008 bound_to 7997
  156.2146  140.1784  156.7660 H   0  0  0  0  0  0  0  0  0  0  0  0  # atno 8009 bound_to 7997
  154.5735  140.0666  156.8984 H   0  0  0  0  0  0  0  0  0  0  0  0  # atno 8010 bound_to 7997
  139.4831  144.5341  151.7674 H   0  0  0  0  0  0  0  0  0  0  0  0  # atno 10167 bound_to 10162
  156.2397  130.4179  149.8775 H   0  0  0  0  0  0  0  0  0  0  0  0  # atno 10718 bound_to 10713
  153.7853  135.6902  153.4881 H   0  0  0  0  0  0  0  0  0  0  0  0  # atno 10763 bound_to 10752
  153.1784  135.4515  154.9995 H   0  0  0  0  0  0  0  0  0  0  0  0  # atno 10764 bound_to 10752
  154.8065  135.3359  154.7353 H   0  0  0  0  0  0  0  0  0  0  0  0  # atno 10765 bound_to 10752
  141.1567  133.7686  156.9723 H   0  0  0  0  0  0  0  0  0  0  0  0  # atno 11005 bound_to 11000
  145.9951  140.8569  143.0047 LP  0  0  0  0  0  0  0  0  0  0  0  0  # atno 17320 bound_to 7965
  144.6778  140.2271  143.7359 LP  0  0  0  0  0  0  0  0  0  0  0  0  # atno 17321 bound_to 7965
  140.4871  144.1364  150.5943 LP  0  0  0  0  0  0  0  0  0  0  0  0  # atno 17342 bound_to 10162
  140.4213  143.2610  151.9712 LP  0  0  0  0  0  0  0  0  0  0  0  0  # atno 17343 bound_to 10162
  156.6360  130.8685  151.3505 LP  0  0  0  0  0  0  0  0  0  0  0  0  # atno 17370 bound_to 10713
  157.7170  130.9510  150.1292 LP  0  0  0  0  0  0  0  0  0  0  0  0  # atno 17371 bound_to 10713
  140.1121  134.9470  157.2080 LP  0  0  0  0  0  0  0  0  0  0  0  0  # atno 17394 bound_to 11000
  140.3180  134.2948  155.7252 LP  0  0  0  0  0  0  0  0  0  0  0  0  # atno 17395 bound_to 11000

$$$$
