AV-unprocessed.smi:1394|AV-procd|sdf|5667|dock7
  -GOLD-   22720 5293D 1   1.00000     0.00000
 Structure written by MMmdl.
 41 42  0  0  0  0  0  0  0  0  1 V2000
  152.6286  139.4919  158.0762 C   0  0  0  0  0  0  0  0  0  0  0  0
  151.8495  140.0392  156.8680 C   0  0  2  0  0  0  0  0  0  0  0  0
  150.5211  140.6939  157.3008 C   0  0  0  0  0  0  0  0  0  0  0  0
  149.7758  141.3054  156.1035 C   0  0  0  0  0  0  0  0  0  0  0  0
  149.5378  140.2638  155.0002 C   0  0  0  0  0  0  0  0  0  0  0  0
  150.8567  139.6015  154.5639 C   0  0  0  0  0  0  0  0  0  0  0  0
  151.6212  138.9850  155.7528 C   0  0  2  0  0  0  0  0  0  0  0  0
  150.8985  137.8099  156.2444 N   0  0  0  0  0  0  0  0  0  0  0  0
  150.7014  136.6619  155.5782 C   0  0  0  0  0  0  0  0  0  0  0  0
  151.1275  136.4574  154.4408 O   0  0  0  0  0  0  0  0  0  0  0  0
  149.9028  135.5895  156.3329 C   0  0  0  0  0  0  0  0  0  0  0  0
  149.6253  134.3860  155.5306 N   0  0  0  0  0  0  0  0  0  0  0  0
  148.7680  134.5480  154.4279 C   0  0  0  0  0  0  0  0  0  0  0  0
  148.4440  133.5224  153.6294 C   0  0  0  0  0  0  0  0  0  0  0  0
  149.0013  132.2254  153.9254 C   0  0  0  0  0  0  0  0  0  0  0  0
  149.8240  132.0370  154.9832 C   0  0  0  0  0  0  0  0  0  0  0  0
  150.4285  130.6723  155.3054 C   0  0  0  0  0  0  0  0  0  0  0  0
  151.7605  130.7276  155.2712 F   0  0  0  0  0  0  0  0  0  0  0  0
  150.0589  130.2734  156.5228 F   0  0  0  0  0  0  0  0  0  0  0  0
  150.0384  129.7401  154.4346 F   0  0  0  0  0  0  0  0  0  0  0  0
  150.1701  133.1742  155.8607 C   0  0  0  0  0  0  0  0  0  0  0  0
  150.9069  133.0505  156.8404 O   0  0  0  0  0  0  0  0  0  0  0  0
  152.0534  138.7455  158.6244 H   0  0  0  0  0  0  0  0  0  0  0  0
  152.8766  140.2913  158.7748 H   0  0  0  0  0  0  0  0  0  0  0  0
  153.5644  139.0286  157.7621 H   0  0  0  0  0  0  0  0  0  0  0  0
  152.4682  140.8269  156.4349 H   0  0  0  0  0  0  0  0  0  0  0  0
  149.8840  139.9563  157.7903 H   0  0  0  0  0  0  0  0  0  0  0  0
  150.7133  141.4705  158.0419 H   0  0  0  0  0  0  0  0  0  0  0  0
  148.8232  141.7221  156.4320 H   0  0  0  0  0  0  0  0  0  0  0  0
  150.3543  142.1375  155.7004 H   0  0  0  0  0  0  0  0  0  0  0  0
  148.8420  139.5041  155.3582 H   0  0  0  0  0  0  0  0  0  0  0  0
  149.0594  140.7368  154.1420 H   0  0  0  0  0  0  0  0  0  0  0  0
  150.6603  138.8421  153.8061 H   0  0  0  0  0  0  0  0  0  0  0  0
  151.4881  140.3501  154.0835 H   0  0  0  0  0  0  0  0  0  0  0  0
  152.5966  138.6705  155.3772 H   0  0  0  0  0  0  0  0  0  0  0  0
  150.5106  137.8814  157.1738 H   0  0  0  0  0  0  0  0  0  0  0  0
  150.4553  135.3155  157.2332 H   0  0  0  0  0  0  0  0  0  0  0  0
  148.9755  136.0356  156.6967 H   0  0  0  0  0  0  0  0  0  0  0  0
  148.3898  135.5493  154.2802 H   0  0  0  0  0  0  0  0  0  0  0  0
  147.7817  133.6629  152.7879 H   0  0  0  0  0  0  0  0  0  0  0  0
  148.7464  131.3989  153.2791 H   0  0  0  0  0  0  0  0  0  0  0  0
  1  2  1  0  0  0  0
  1 23  1  0  0  0  0
  1 24  1  0  0  0  0
  1 25  1  0  0  0  0
  2  7  1  0  0  0  0
  2  3  1  0  0  0  0
  2 26  1  0  0  0  0
  3  4  1  0  0  0  0
  3 27  1  0  0  0  0
  3 28  1  0  0  0  0
  4  5  1  0  0  0  0
  4 29  1  0  0  0  0
  4 30  1  0  0  0  0
  5  6  1  0  0  0  0
  5 31  1  0  0  0  0
  5 32  1  0  0  0  0
  6  7  1  0  0  0  0
  6 33  1  0  0  0  0
  6 34  1  0  0  0  0
  7  8  1  0  0  0  0
  7 35  1  0  0  0  0
  8  9  1  0  0  0  0
  8 36  1  0  0  0  0
  9 10  2  0  0  0  0
  9 11  1  0  0  0  0
 11 12  1  0  0  0  0
 11 37  1  0  0  0  0
 11 38  1  0  0  0  0
 12 21  1  0  0  0  0
 12 13  1  0  0  0  0
 13 14  2  0  0  0  0
 13 39  1  0  0  0  0
 14 15  1  0  0  0  0
 14 40  1  0  0  0  0
 15 16  2  0  0  0  0
 15 41  1  0  0  0  0
 16 17  1  0  0  0  0
 16 21  1  0  0  0  0
 17 18  1  0  0  0  0
 17 19  1  0  0  0  0
 17 20  1  0  0  0  0
 21 22  2  0  0  0  0
M  END
> <s_m_source_file>
AV-unprocessed.smi

> <i_m_source_file_index>
1394

> <i_lp_mmshare_version>
43012

> <i_f3d_flags>
0

> <s_epik_input>
W0NIM11bQ0BASF0xW0NIMl1bQ0gyXVtDSDJdW0NIMl1bQ0BIXTFbTkhdQyg9TylbQ0gyXW4yW2NIXVtjSF1bY0hdYyhDKEYpKEYpRiljMj1P

> <s_epik_cmdline>
J2VwaWtfcHl0aG9uJywgJy1waCcsICc3LjAnLCAnLXRuJywgJzgnLCAnLW1hJywgJzIwMCcsICctbWV0YWxfYmluZGluZycsICctaW1hZScsICc8aW5maWxlLm1hZT4nLCAnLW9tYWUnLCAnPG91dGZpbGUubWFlPic=

> <r_lp_tautomer_probability>
1

> <r_epik_Ionization_Penalty>
2.11487e-08

> <r_epik_Ionization_Penalty_Charging>
2.10183e-09

> <r_epik_Ionization_Penalty_Neutral>
1.90469e-08

> <r_epik_State_Penalty>
-0

> <r_epik_Charging_Adjusted_Penalty>
2.10183e-09

> <i_epik_Tot_Q>
0

> <i_epik_Tot_abs_Q>
0

> <r_epik_Metal_State_Penalty>
-0

> <b_epik_Metal_Only>
0

> <s_lp_Force_Field>
OPLS_2005

> <r_lp_Energy>
20.183

> <b_lp_Chiralities_Consistent>
1

> <s_lp_Variant>
AV-unprocessed.smi:1394-3

> <Gold.Version>
5.8.1

> <Gold.Id.Protein>
6NUR|6NUR_protein|mol2

> <Gold.PLP.Fitness>
43.5285

> <Gold.PLP.PLP>
-35.3978

> <Gold.PLP.part.hbond>
-2.0000

> <Gold.PLP.part.metal>
0.0000

> <Gold.PLP.part.buried>
-2.0119

> <Gold.PLP.part.nonpolar>
-32.0809

> <Gold.PLP.part.repulsive>
0.1929

> <Gold.PLP.ligand.clash>
0.3390

> <Gold.PLP.ligand.torsion>
0.1140

> <Gold.PLP.Chemscore.Hbond>
1.8320

> <Gold.PLP.Chemscore.CHOScore>
0.9503

> <Gold.PLP.Chemscore.Metal>
0.0000

> <Gold.Chemscore.Hbonds>
donor molecule, donor type, donor heavy atom, donor atom, acceptor molecule, acceptor atom, score
      P1  H  6896  6909       L1    22  0.04
      P1  H 10752 10765       L1    10  0.81
      L1  C    13    39       P1  7948  0.49

> <Gold.PLP.Chemscore.Internal.Correction>
0.3510

> <Gold.Rescore>
     Score         DG    S(hbond)    S(metal)    S(lipo)     H(rot)  DE(clash)    DE(int)     intcor
     12.28     -16.32       1.97        0.00      69.81       1.52       0.16       3.88       ----

> <Gold.Chemscore.Fitness>
12.2815

> <Gold.Chemscore.DG>
-16.3237

> <Gold.Chemscore.ZeroCoef>
-5.4800

> <Gold.Chemscore.Hbond>
1.9693

> <Gold.Chemscore.Metal>
0.0000

> <Gold.Chemscore.Lipo>
69.8137

> <Gold.Chemscore.Internal_Hbond>
0.0000

> <Gold.Chemscore.DEClash>
0.1611

> <Gold.Chemscore.DEInternal>
3.8810

> <Gold.Chemscore.Rot>
1.5242

> <Gold.Chemscore.Internal.Correction>
   9.000000E+99

> <Gold.Chemscore.Hbonds>
donor molecule, donor type, donor heavy atom, donor atom, acceptor molecule, acceptor atom, score
      P1  H  6896  6909       L1    22  0.09
      P1  H 10752 10765       L1    10  0.34

> <Gold.Chemscore.Hbond.Weighted>
-6.5773

> <Gold.Chemscore.Metal.Weighted>
-0.0000

> <Gold.Chemscore.Lipo.Weighted>
-8.1682

> <Gold.Chemscore.Internal_Hbond.Weighted>
0.0000

> <Gold.Chemscore.DEClash.Weighted>
0.1611

> <Gold.Chemscore.DEInternal.Weighted>
3.8810

> <Gold.Chemscore.Rot.Weighted>
3.9019

> <Gold.Chemscore.Internal.Correction.Weighted>
   9.000000E+99

> <Gold.Protein.RotatedTorsions>
[ 6907 6896 6895 6894 ] final  -21.10 input  -60.11 | X-H torsion
[ 7974 7965 7964 7962 ] final -110.49 input  175.53 | X-H torsion
[ 8008 7997 7996 7995 ] final  -33.12 input   59.86 | X-H torsion
[ 10167 10162 10161 10158 ] final   46.57 input  -65.29 | X-H torsion
[ 10718 10713 10712 10709 ] final -154.88 input   66.30 | X-H torsion
[ 10763 10752 10751 10750 ] final -168.46 input  -60.55 | X-H torsion
[ 11005 11000 10999 10996 ] final -129.33 input  -57.11 | X-H torsion

> <Gold.Protein.ActiveResidues>
 VAL166  LYS551  ARG553  GLY616  TRP617  ASP618  TYR619  PRO620  LYS621  CYS622 
 ASP623  PHE694  ASN695  SER759  ASP760  ASP761  ALA762  ILE779  LEU786  VAL792 
 PHE793  MET794  SER795  GLU796  ALA797  LYS798  CYS799  TRP800  GLU811  SER814 

> <Gold.Protein.RotatedAtoms>
  151.2383  135.0580  159.9014 H   0  0  0  0  0  0  0  0  0  0  0  0  # atno 6907 bound_to 6896
  152.5396  134.0462  159.8099 H   0  0  0  0  0  0  0  0  0  0  0  0  # atno 6908 bound_to 6896
  151.0652  133.5463  159.2662 H   0  0  0  0  0  0  0  0  0  0  0  0  # atno 6909 bound_to 6896
  145.1676  140.8909  143.3554 H   0  0  0  0  0  0  0  0  0  0  0  0  # atno 7974 bound_to 7965
  154.4159  140.1719  156.1836 H   0  0  0  0  0  0  0  0  0  0  0  0  # atno 8008 bound_to 7997
  155.9661  140.3389  155.6510 H   0  0  0  0  0  0  0  0  0  0  0  0  # atno 8009 bound_to 7997
  155.6685  140.0709  157.2519 H   0  0  0  0  0  0  0  0  0  0  0  0  # atno 8010 bound_to 7997
  140.3126  144.2802  150.6197 H   0  0  0  0  0  0  0  0  0  0  0  0  # atno 10167 bound_to 10162
  156.5053  130.8410  151.2625 H   0  0  0  0  0  0  0  0  0  0  0  0  # atno 10718 bound_to 10713
  154.6626  135.2927  154.9847 H   0  0  0  0  0  0  0  0  0  0  0  0  # atno 10763 bound_to 10752
  154.0902  135.6592  153.4855 H   0  0  0  0  0  0  0  0  0  0  0  0  # atno 10764 bound_to 10752
  153.0438  135.5218  154.7583 H   0  0  0  0  0  0  0  0  0  0  0  0  # atno 10765 bound_to 10752
  140.9441  134.1154  157.4123 H   0  0  0  0  0  0  0  0  0  0  0  0  # atno 11005 bound_to 11000
  145.0266  139.3377  143.6045 LP  0  0  0  0  0  0  0  0  0  0  0  0  # atno 17320 bound_to 7965
  146.3473  139.9588  142.8720 LP  0  0  0  0  0  0  0  0  0  0  0  0  # atno 17321 bound_to 7965
  140.5555  143.2200  151.7855 LP  0  0  0  0  0  0  0  0  0  0  0  0  # atno 17342 bound_to 10162
  139.4890  144.4420  151.9754 LP  0  0  0  0  0  0  0  0  0  0  0  0  # atno 17343 bound_to 10162
  157.7457  130.9968  150.2792 LP  0  0  0  0  0  0  0  0  0  0  0  0  # atno 17370 bound_to 10713
  156.3293  130.3798  149.7505 LP  0  0  0  0  0  0  0  0  0  0  0  0  # atno 17371 bound_to 10713
  139.8828  135.0046  156.6258 LP  0  0  0  0  0  0  0  0  0  0  0  0  # atno 17394 bound_to 11000
  140.7693  133.8751  155.8479 LP  0  0  0  0  0  0  0  0  0  0  0  0  # atno 17395 bound_to 11000

$$$$
