AV-unprocessed.smi:2073|AV-procd|sdf|8451|dock1
  -GOLD-   2272011143D 1   1.00000     0.00000
 Structure written by MMmdl.
 27 27  0  0  0  0  0  0  0  0  2 V2000
  152.7018  141.5723  160.2205 C   0  0  0  0  0  0  0  0  0  0  0  0
  152.6016  141.9538  158.7347 C   0  0  0  0  0  0  0  0  0  0  0  0
  152.2060  143.4307  158.5583 C   0  0  0  0  0  0  0  0  0  0  0  0
  151.6219  141.0180  158.0040 C   0  0  0  0  0  0  0  0  0  0  0  0
  150.4361  140.9975  158.3407 O   0  0  0  0  0  0  0  0  0  0  0  0
  152.2372  140.2938  157.0379 N   0  5  0  0  0  0  0  0  0  0  0  0
  151.5023  139.7056  156.0815 C   0  0  0  0  0  0  0  0  0  0  0  0
  150.3849  140.2469  155.5851 N   0  0  0  0  0  0  0  0  0  0  0  0
  149.7764  139.4691  154.5955 C   0  0  0  0  0  0  0  0  0  0  0  0
  148.5199  139.9523  153.9299 C   0  0  0  0  0  0  0  0  0  0  0  0
  148.0839  141.3014  154.5076 C   0  0  0  0  0  0  0  0  0  0  0  0
  149.0209  142.2455  154.6360 N   0  0  0  0  0  0  0  0  0  0  0  0
  146.9167  141.4852  154.8469 O   0  0  0  0  0  0  0  0  0  0  0  0
  150.4429  138.2959  154.3510 C   0  0  0  0  0  0  0  0  0  0  0  0
  151.8614  138.1415  155.3474 S   0  0  0  0  0  0  0  0  0  0  0  0
  153.0025  140.5309  160.3428 H   0  0  0  0  0  0  0  0  0  0  0  0
  151.7480  141.7064  160.7326 H   0  0  0  0  0  0  0  0  0  0  0  0
  153.4419  142.1880  160.7318 H   0  0  0  0  0  0  0  0  0  0  0  0
  153.5957  141.8400  158.2967 H   0  0  0  0  0  0  0  0  0  0  0  0
  152.1092  143.6916  157.5037 H   0  0  0  0  0  0  0  0  0  0  0  0
  152.9609  144.0882  158.9894 H   0  0  0  0  0  0  0  0  0  0  0  0
  151.2569  143.6551  159.0466 H   0  0  0  0  0  0  0  0  0  0  0  0
  148.6744  140.0525  152.8549 H   0  0  0  0  0  0  0  0  0  0  0  0
  147.7087  139.2341  154.0576 H   0  0  0  0  0  0  0  0  0  0  0  0
  148.7776  143.1424  155.0326 H   0  0  0  0  0  0  0  0  0  0  0  0
  149.9714  142.0531  154.3563 H   0  0  0  0  0  0  0  0  0  0  0  0
  150.1895  137.5189  153.6454 H   0  0  0  0  0  0  0  0  0  0  0  0
  1  2  1  0  0  0  0
  1 16  1  0  0  0  0
  1 17  1  0  0  0  0
  1 18  1  0  0  0  0
  2  3  1  0  0  0  0
  2  4  1  0  0  0  0
  2 19  1  0  0  0  0
  3 20  1  0  0  0  0
  3 21  1  0  0  0  0
  3 22  1  0  0  0  0
  4  5  2  0  0  0  0
  4  6  1  0  0  0  0
  6  7  1  0  0  0  0
  7 15  1  0  0  0  0
  7  8  2  0  0  0  0
  8  9  1  0  0  0  0
  9 10  1  0  0  0  0
  9 14  2  0  0  0  0
 10 11  1  0  0  0  0
 10 23  1  0  0  0  0
 10 24  1  0  0  0  0
 11 12  1  0  0  0  0
 11 13  2  0  0  0  0
 12 25  1  0  0  0  0
 12 26  1  0  0  0  0
 14 15  1  0  0  0  0
 14 27  1  0  0  0  0
M  CHG  1   6  -1
M  END
> <s_m_source_file>
AV-unprocessed.smi

> <i_m_source_file_index>
2073

> <i_lp_mmshare_version>
43012

> <i_f3d_flags>
0

> <s_epik_input>
W0NIM11bQ0hdKFtDSDNdKUMoPU8pW05IXWMxbmMoW2NIXXMxKVtDSDJdQyg9TylbTkgyXQ==

> <s_epik_cmdline>
J2VwaWtfcHl0aG9uJywgJy1waCcsICc3LjAnLCAnLXRuJywgJzgnLCAnLW1hJywgJzIwMCcsICctbWV0YWxfYmluZGluZycsICctaW1hZScsICc8aW5maWxlLm1hZT4nLCAnLW9tYWUnLCAnPG91dGZpbGUubWFlPic=

> <r_lp_tautomer_probability>
1

> <r_epik_Ionization_Penalty>
5.4698

> <r_epik_Ionization_Penalty_Charging>
4.98646

> <r_epik_Ionization_Penalty_Neutral>
0.483343

> <r_epik_State_Penalty>
4.98633

> <r_epik_Charging_Adjusted_Penalty>
9.97279

> <i_epik_Tot_Q>
-1

> <i_epik_Tot_abs_Q>
1

> <r_epik_Metal_State_Penalty>
1.11062

> <b_epik_Metal_Only>
1

> <s_lp_Force_Field>
OPLS_2005

> <r_lp_Energy>
-0.551018

> <b_lp_Chiralities_Consistent>
1

> <s_lp_Variant>
AV-unprocessed.smi:2073-2

> <Gold.Version>
5.8.1

> <Gold.Id.Protein>
6NUR|6NUR_protein|mol2

> <Gold.PLP.Fitness>
40.5189

> <Gold.PLP.PLP>
-29.0224

> <Gold.PLP.part.hbond>
-1.8083

> <Gold.PLP.part.metal>
0.0000

> <Gold.PLP.part.buried>
-2.9601

> <Gold.PLP.part.nonpolar>
-24.2891

> <Gold.PLP.part.repulsive>
0.3522

> <Gold.PLP.ligand.clash>
0.0000

> <Gold.PLP.ligand.torsion>
0.4713

> <Gold.PLP.Chemscore.Hbond>
3.0000

> <Gold.PLP.Chemscore.CHOScore>
1.0586

> <Gold.PLP.Chemscore.Metal>
0.0000

> <Gold.Chemscore.Hbonds>
donor molecule, donor type, donor heavy atom, donor atom, acceptor molecule, acceptor atom, score
      L1  H    12    25       P1  8028  1.00
      P1  H  7997  8010       L1     6  1.27
      L1  C    14    27       P1  7948  1.00
      L1  C    14    27       P1  7949  0.08

> <Gold.PLP.Chemscore.Internal.Correction>
0.2634

> <Gold.Rescore>
     Score         DG    S(hbond)    S(metal)    S(lipo)     H(rot)  DE(clash)    DE(int)     intcor
     12.66     -14.25       1.94        0.00      61.30       1.90       0.33       1.27       ----

> <Gold.Chemscore.Fitness>
12.6572

> <Gold.Chemscore.DG>
-14.2535

> <Gold.Chemscore.ZeroCoef>
-5.4800

> <Gold.Chemscore.Hbond>
1.9366

> <Gold.Chemscore.Metal>
0.0000

> <Gold.Chemscore.Lipo>
61.3032

> <Gold.Chemscore.Internal_Hbond>
0.0000

> <Gold.Chemscore.DEClash>
0.3304

> <Gold.Chemscore.DEInternal>
1.2659

> <Gold.Chemscore.Rot>
1.9012

> <Gold.Chemscore.Internal.Correction>
   9.000000E+99

> <Gold.Chemscore.Hbonds>
donor molecule, donor type, donor heavy atom, donor atom, acceptor molecule, acceptor atom, score
      L1  H    12    25       P1  8028  1.00
      P1  H  7997  8010       L1     6  0.42

> <Gold.Chemscore.Hbond.Weighted>
-6.4682

> <Gold.Chemscore.Metal.Weighted>
-0.0000

> <Gold.Chemscore.Lipo.Weighted>
-7.1725

> <Gold.Chemscore.Internal_Hbond.Weighted>
0.0000

> <Gold.Chemscore.DEClash.Weighted>
0.3304

> <Gold.Chemscore.DEInternal.Weighted>
1.2659

> <Gold.Chemscore.Rot.Weighted>
4.8671

> <Gold.Chemscore.Internal.Correction.Weighted>
   9.000000E+99

> <Gold.Protein.RotatedTorsions>
[ 6907 6896 6895 6894 ] final   37.85 input  -60.11 | X-H torsion
[ 7974 7965 7964 7962 ] final  -42.82 input  175.53 | X-H torsion
[ 8008 7997 7996 7995 ] final   67.48 input   59.86 | X-H torsion
[ 10167 10162 10161 10158 ] final   -6.53 input  -65.29 | X-H torsion
[ 10718 10713 10712 10709 ] final -152.16 input   66.30 | X-H torsion
[ 10763 10752 10751 10750 ] final -149.92 input  -60.55 | X-H torsion
[ 11005 11000 10999 10996 ] final  -61.51 input  -57.11 | X-H torsion

> <Gold.Protein.ActiveResidues>
 VAL166  LYS551  ARG553  GLY616  TRP617  ASP618  TYR619  PRO620  LYS621  CYS622 
 ASP623  PHE694  ASN695  SER759  ASP760  ASP761  ALA762  ILE779  LEU786  VAL792 
 PHE793  MET794  SER795  GLU796  ALA797  LYS798  CYS799  TRP800  GLU811  SER814 

> <Gold.Protein.RotatedAtoms>
  152.1486  134.9006  160.0549 H   0  0  0  0  0  0  0  0  0  0  0  0  # atno 6907 bound_to 6896
  152.0046  133.3833  159.4204 H   0  0  0  0  0  0  0  0  0  0  0  0  # atno 6908 bound_to 6896
  150.6873  134.3718  159.5039 H   0  0  0  0  0  0  0  0  0  0  0  0  # atno 6909 bound_to 6896
  146.0079  140.6999  142.9239 H   0  0  0  0  0  0  0  0  0  0  0  0  # atno 7974 bound_to 7965
  155.6935  140.3496  155.4903 H   0  0  0  0  0  0  0  0  0  0  0  0  # atno 8008 bound_to 7997
  155.9503  140.1118  157.1004 H   0  0  0  0  0  0  0  0  0  0  0  0  # atno 8009 bound_to 7997
  154.4120  140.1195  156.5030 H   0  0  0  0  0  0  0  0  0  0  0  0  # atno 8010 bound_to 7997
  140.7000  143.6184  150.8636 H   0  0  0  0  0  0  0  0  0  0  0  0  # atno 10167 bound_to 10162
  156.4688  130.8248  151.2478 H   0  0  0  0  0  0  0  0  0  0  0  0  # atno 10718 bound_to 10713
  154.8149  135.3297  154.7202 H   0  0  0  0  0  0  0  0  0  0  0  0  # atno 10763 bound_to 10752
  153.7845  135.6916  153.4887 H   0  0  0  0  0  0  0  0  0  0  0  0  # atno 10764 bound_to 10752
  153.1958  135.4534  155.0153 H   0  0  0  0  0  0  0  0  0  0  0  0  # atno 10765 bound_to 10752
  141.1327  133.6631  156.5386 H   0  0  0  0  0  0  0  0  0  0  0  0  # atno 11005 bound_to 11000
  144.6942  140.3346  143.7210 LP  0  0  0  0  0  0  0  0  0  0  0  0  # atno 17320 bound_to 7965
  145.7388  139.1758  143.2388 LP  0  0  0  0  0  0  0  0  0  0  0  0  # atno 17321 bound_to 7965
  139.9905  143.5852  152.2912 LP  0  0  0  0  0  0  0  0  0  0  0  0  # atno 17342 bound_to 10162
  139.6505  144.7660  151.2157 LP  0  0  0  0  0  0  0  0  0  0  0  0  # atno 17343 bound_to 10162
  157.7493  131.0083  150.3223 LP  0  0  0  0  0  0  0  0  0  0  0  0  # atno 17370 bound_to 10713
  156.3640  130.3852  149.7228 LP  0  0  0  0  0  0  0  0  0  0  0  0  # atno 17371 bound_to 10713
  140.4158  134.7232  157.4862 LP  0  0  0  0  0  0  0  0  0  0  0  0  # atno 17394 bound_to 11000
  140.0395  134.6288  155.8999 LP  0  0  0  0  0  0  0  0  0  0  0  0  # atno 17395 bound_to 11000

$$$$
