AV-unprocessed.smi:2945|AV-procd|sdf|11279|dock3
  -GOLD-   2272016173D 1   1.00000     0.00000
 Structure written by MMmdl.
 36 37  0  0  0  0  0  0  0  0  1 V2000
  147.0093  139.4889  152.9424 C   0  0  0  0  0  0  0  0  0  0  0  0
  147.7443  140.1544  154.0549 C   0  0  0  0  0  0  0  0  0  0  0  0
  148.8250  140.9901  154.0868 C   0  0  0  0  0  0  0  0  0  0  0  0
  148.9932  141.2424  155.4742 C   0  0  0  0  0  0  0  0  0  0  0  0
  150.0338  142.0868  155.9384 N   0  0  0  0  0  0  0  0  0  0  0  0
  150.4042  142.3078  157.2112 C   0  0  0  0  0  0  0  0  0  0  0  0
  149.8845  141.7896  158.1998 O   0  0  0  0  0  0  0  0  0  0  0  0
  151.4256  143.1753  157.2738 N   0  0  0  0  0  0  0  0  0  0  0  0
  152.0968  143.6276  158.4923 C   0  0  1  0  0  0  0  0  0  0  0  0
  151.3084  144.8171  159.0755 C   0  0  0  0  0  0  0  0  0  0  0  0
  151.9121  145.3076  160.3990 C   0  0  0  0  0  0  0  0  0  0  0  0
  152.0004  144.1634  161.4173 C   0  0  0  0  0  0  0  0  0  0  0  0
  152.8038  142.9838  160.8502 C   0  0  0  0  0  0  0  0  0  0  0  0
  152.2164  142.4715  159.5190 C   0  0  2  0  0  0  0  0  0  0  0  0
  153.0448  141.2881  158.9877 C   0  0  0  0  0  0  0  0  0  0  0  0
  148.0956  140.6185  156.2218 N   0  0  0  0  0  0  0  0  0  0  0  0
  147.2904  139.9181  155.3157 O   0  0  0  0  0  0  0  0  0  0  0  0
  147.5162  139.6478  151.9905 H   0  0  0  0  0  0  0  0  0  0  0  0
  145.9972  139.8849  152.8570 H   0  0  0  0  0  0  0  0  0  0  0  0
  146.9395  138.4145  153.1129 H   0  0  0  0  0  0  0  0  0  0  0  0
  149.4007  141.3588  153.2509 H   0  0  0  0  0  0  0  0  0  0  0  0
  150.5528  142.5746  155.2235 H   0  0  0  0  0  0  0  0  0  0  0  0
  151.7777  143.5491  156.4048 H   0  0  0  0  0  0  0  0  0  0  0  0
  153.1026  143.9816  158.2581 H   0  0  0  0  0  0  0  0  0  0  0  0
  151.2877  145.6385  158.3583 H   0  0  0  0  0  0  0  0  0  0  0  0
  150.2698  144.5265  159.2412 H   0  0  0  0  0  0  0  0  0  0  0  0
  152.9068  145.7178  160.2194 H   0  0  0  0  0  0  0  0  0  0  0  0
  151.3094  146.1206  160.8047 H   0  0  0  0  0  0  0  0  0  0  0  0
  152.4627  144.5202  162.3382 H   0  0  0  0  0  0  0  0  0  0  0  0
  150.9964  143.8303  161.6835 H   0  0  0  0  0  0  0  0  0  0  0  0
  153.8398  143.2911  160.7005 H   0  0  0  0  0  0  0  0  0  0  0  0
  152.8265  142.1763  161.5830 H   0  0  0  0  0  0  0  0  0  0  0  0
  151.2117  142.0992  159.7262 H   0  0  0  0  0  0  0  0  0  0  0  0
  154.0553  141.6013  158.7235 H   0  0  0  0  0  0  0  0  0  0  0  0
  152.5923  140.8435  158.1015 H   0  0  0  0  0  0  0  0  0  0  0  0
  153.1266  140.4996  159.7361 H   0  0  0  0  0  0  0  0  0  0  0  0
  1  2  1  0  0  0  0
  1 18  1  0  0  0  0
  1 19  1  0  0  0  0
  1 20  1  0  0  0  0
  2 17  1  0  0  0  0
  2  3  2  0  0  0  0
  3  4  1  0  0  0  0
  3 21  1  0  0  0  0
  4  5  1  0  0  0  0
  4 16  2  0  0  0  0
  5  6  1  0  0  0  0
  5 22  1  0  0  0  0
  6  7  2  0  0  0  0
  6  8  1  0  0  0  0
  8  9  1  0  0  0  0
  8 23  1  0  0  0  0
  9 14  1  0  0  0  0
  9 10  1  0  0  0  0
  9 24  1  0  0  0  0
 10 11  1  0  0  0  0
 10 25  1  0  0  0  0
 10 26  1  0  0  0  0
 11 12  1  0  0  0  0
 11 27  1  0  0  0  0
 11 28  1  0  0  0  0
 12 13  1  0  0  0  0
 12 29  1  0  0  0  0
 12 30  1  0  0  0  0
 13 14  1  0  0  0  0
 13 31  1  0  0  0  0
 13 32  1  0  0  0  0
 14 15  1  0  0  0  0
 14 33  1  0  0  0  0
 15 34  1  0  0  0  0
 15 35  1  0  0  0  0
 15 36  1  0  0  0  0
 16 17  1  0  0  0  0
M  END
> <s_m_source_file>
AV-unprocessed.smi

> <i_m_source_file_index>
2945

> <i_lp_mmshare_version>
43012

> <i_f3d_flags>
0

> <s_epik_input>
W0NIM11jMVtjSF1jKG5vMSlbTkhdQyg9TylbTkhdW0NAQEhdMltDSDJdW0NIMl1bQ0gyXVtDSDJdW0NASF0yW0NIM10=

> <s_epik_cmdline>
J2VwaWtfcHl0aG9uJywgJy1waCcsICc3LjAnLCAnLXRuJywgJzgnLCAnLW1hJywgJzIwMCcsICctbWV0YWxfYmluZGluZycsICctaW1hZScsICc8aW5maWxlLm1hZT4nLCAnLW9tYWUnLCAnPG91dGZpbGUubWFlPic=

> <r_lp_tautomer_probability>
1

> <r_epik_Ionization_Penalty>
2.357e-05

> <r_epik_Ionization_Penalty_Charging>
0

> <r_epik_Ionization_Penalty_Neutral>
2.357e-05

> <r_epik_State_Penalty>
-0

> <r_epik_Charging_Adjusted_Penalty>
0

> <i_epik_Tot_Q>
0

> <i_epik_Tot_abs_Q>
0

> <r_epik_Metal_State_Penalty>
-0

> <b_epik_Metal_Only>
0

> <s_lp_Force_Field>
OPLS_2005

> <r_lp_Energy>
8.52615

> <b_lp_Chiralities_Consistent>
1

> <s_lp_Variant>
AV-unprocessed.smi:2945-4

> <Gold.Version>
5.8.1

> <Gold.Id.Protein>
6NUR|6NUR_protein|mol2

> <Gold.PLP.Fitness>
36.0629

> <Gold.PLP.PLP>
-36.7660

> <Gold.PLP.part.hbond>
-1.0000

> <Gold.PLP.part.metal>
0.0000

> <Gold.PLP.part.buried>
-2.8006

> <Gold.PLP.part.nonpolar>
-33.1066

> <Gold.PLP.part.repulsive>
0.2790

> <Gold.PLP.ligand.clash>
0.0000

> <Gold.PLP.ligand.torsion>
0.3534

> <Gold.PLP.Chemscore.Hbond>
0.0000

> <Gold.PLP.Chemscore.CHOScore>
0.0000

> <Gold.PLP.Chemscore.Metal>
0.0000

> <Gold.PLP.Chemscore.Internal.Correction>
0.0038

> <Gold.Rescore>
     Score         DG    S(hbond)    S(metal)    S(lipo)     H(rot)  DE(clash)    DE(int)     intcor
     11.70     -14.89       0.00        0.00     102.33       1.00       0.20       3.00       ----

> <Gold.Chemscore.Fitness>
11.6952

> <Gold.Chemscore.DG>
-14.8929

> <Gold.Chemscore.ZeroCoef>
-5.4800

> <Gold.Chemscore.Hbond>
0.0000

> <Gold.Chemscore.Metal>
0.0000

> <Gold.Chemscore.Lipo>
102.3325

> <Gold.Chemscore.Internal_Hbond>
0.0000

> <Gold.Chemscore.DEClash>
0.1982

> <Gold.Chemscore.DEInternal>
2.9995

> <Gold.Chemscore.Rot>
1.0000

> <Gold.Chemscore.Internal.Correction>
   9.000000E+99

> <Gold.Chemscore.Hbond.Weighted>
-0.0000

> <Gold.Chemscore.Metal.Weighted>
-0.0000

> <Gold.Chemscore.Lipo.Weighted>
-11.9729

> <Gold.Chemscore.Internal_Hbond.Weighted>
0.0000

> <Gold.Chemscore.DEClash.Weighted>
0.1982

> <Gold.Chemscore.DEInternal.Weighted>
2.9995

> <Gold.Chemscore.Rot.Weighted>
2.5600

> <Gold.Chemscore.Internal.Correction.Weighted>
   9.000000E+99

> <Gold.Protein.RotatedTorsions>
[ 6907 6896 6895 6894 ] final  -87.44 input  -60.11 | X-H torsion
[ 7974 7965 7964 7962 ] final   12.70 input  175.53 | X-H torsion
[ 8008 7997 7996 7995 ] final    0.07 input   59.86 | X-H torsion
[ 10167 10162 10161 10158 ] final  -77.28 input  -65.29 | X-H torsion
[ 10718 10713 10712 10709 ] final   98.98 input   66.30 | X-H torsion
[ 10763 10752 10751 10750 ] final  -19.97 input  -60.55 | X-H torsion
[ 11005 11000 10999 10996 ] final  -54.46 input  -57.11 | X-H torsion

> <Gold.Protein.ActiveResidues>
 VAL166  LYS551  ARG553  GLY616  TRP617  ASP618  TYR619  PRO620  LYS621  CYS622 
 ASP623  PHE694  ASN695  SER759  ASP760  ASP761  ALA762  ILE779  LEU786  VAL792 
 PHE793  MET794  SER795  GLU796  ALA797  LYS798  CYS799  TRP800  GLU811  SER814 

> <Gold.Protein.RotatedAtoms>
  150.6866  134.2896  159.4661 H   0  0  0  0  0  0  0  0  0  0  0  0  # atno 6907 bound_to 6896
  152.0803  134.9473  160.0583 H   0  0  0  0  0  0  0  0  0  0  0  0  # atno 6908 bound_to 6896
  152.0828  133.4127  159.4546 H   0  0  0  0  0  0  0  0  0  0  0  0  # atno 6909 bound_to 6896
  146.2346  139.9298  142.8498 H   0  0  0  0  0  0  0  0  0  0  0  0  # atno 7974 bound_to 7965
  154.6638  140.2596  155.7080 H   0  0  0  0  0  0  0  0  0  0  0  0  # atno 8008 bound_to 7997
  156.2630  140.2843  156.1043 H   0  0  0  0  0  0  0  0  0  0  0  0  # atno 8009 bound_to 7997
  155.1269  140.0378  157.2755 H   0  0  0  0  0  0  0  0  0  0  0  0  # atno 8010 bound_to 7997
  140.4784  143.2408  151.8097 H   0  0  0  0  0  0  0  0  0  0  0  0  # atno 10167 bound_to 10162
  157.6885  131.0656  150.4879 H   0  0  0  0  0  0  0  0  0  0  0  0  # atno 10718 bound_to 10713
  153.6130  135.6995  153.5339 H   0  0  0  0  0  0  0  0  0  0  0  0  # atno 10763 bound_to 10752
  153.3000  135.4131  155.1244 H   0  0  0  0  0  0  0  0  0  0  0  0  # atno 10764 bound_to 10752
  154.8559  135.3646  154.5669 H   0  0  0  0  0  0  0  0  0  0  0  0  # atno 10765 bound_to 10752
  141.1027  133.6616  156.4324 H   0  0  0  0  0  0  0  0  0  0  0  0  # atno 11005 bound_to 11000
  145.2055  140.9873  143.4131 LP  0  0  0  0  0  0  0  0  0  0  0  0  # atno 17320 bound_to 7965
  144.9736  139.3855  143.6297 LP  0  0  0  0  0  0  0  0  0  0  0  0  # atno 17321 bound_to 7965
  139.4829  144.4804  151.9314 LP  0  0  0  0  0  0  0  0  0  0  0  0  # atno 17342 bound_to 10162
  140.3889  144.2641  150.5901 LP  0  0  0  0  0  0  0  0  0  0  0  0  # atno 17343 bound_to 10162
  156.5208  130.4161  149.6252 LP  0  0  0  0  0  0  0  0  0  0  0  0  # atno 17370 bound_to 10713
  156.3156  130.7253  151.2154 LP  0  0  0  0  0  0  0  0  0  0  0  0  # atno 17371 bound_to 10713
  140.4982  134.6511  157.5238 LP  0  0  0  0  0  0  0  0  0  0  0  0  # atno 17394 bound_to 11000
  139.9884  134.7024  155.9733 LP  0  0  0  0  0  0  0  0  0  0  0  0  # atno 17395 bound_to 11000

$$$$
