AV-unprocessed.smi:2921|AV-procd|sdf|11197|dock9
  -GOLD-   2272016 93D 1   1.00000     0.00000
 Structure written by MMmdl.
 41 42  0  0  0  0  0  0  0  0  1 V2000
  149.0974  141.4292  154.5444 C   0  0  0  0  0  0  0  0  0  0  0  0
  149.1063  139.9072  154.3340 C   0  0  0  0  0  0  0  0  0  0  0  0
  147.8681  139.2357  154.9508 C   0  0  0  0  0  0  0  0  0  0  0  0
  150.3406  139.3173  154.8434 N   0  0  0  0  0  0  0  0  0  0  0  0
  151.3183  140.1118  155.3391 N   0  0  0  0  0  0  0  0  0  0  0  0
  152.2909  139.2856  155.6998 C   0  0  0  0  0  0  0  0  0  0  0  0
  151.9838  137.9197  155.4439 C   0  0  0  0  0  0  0  0  0  0  0  0
  150.7314  137.9935  154.8975 C   0  0  0  0  0  0  0  0  0  0  0  0
  149.9438  136.9813  154.4457 N   0  0  0  0  0  0  0  0  0  0  0  0
  149.4204  135.9514  155.1332 C   0  0  0  0  0  0  0  0  0  0  0  0
  149.5747  135.7427  156.3367 O   0  0  0  0  0  0  0  0  0  0  0  0
  148.6807  135.1670  154.3368 N   0  0  0  0  0  0  0  0  0  0  0  0
  147.9314  133.9936  154.7731 C   0  0  0  0  0  0  0  0  0  0  0  0
  147.9599  132.8445  153.7458 C   0  0  0  0  0  0  0  0  0  0  0  0
  146.8283  132.8859  152.7319 C   0  0  0  0  0  0  0  0  0  0  0  0
  146.6403  133.8199  151.8002 C   0  0  0  0  0  0  0  0  0  0  0  0
  145.4421  133.5456  150.9336 C   0  0  0  0  0  0  0  0  0  0  0  0
  144.9247  132.1798  151.4354 C   0  0  0  0  0  0  0  0  0  0  0  0
  145.7885  131.7953  152.6570 C   0  0  0  0  0  0  0  0  0  0  0  0
  148.2055  141.8793  154.1077 H   0  0  0  0  0  0  0  0  0  0  0  0
  149.9648  141.8946  154.0750 H   0  0  0  0  0  0  0  0  0  0  0  0
  149.1134  141.6870  155.6038 H   0  0  0  0  0  0  0  0  0  0  0  0
  149.0684  139.7256  153.2599 H   0  0  0  0  0  0  0  0  0  0  0  0
  146.9515  139.6237  154.5059 H   0  0  0  0  0  0  0  0  0  0  0  0
  147.8100  139.4074  156.0262 H   0  0  0  0  0  0  0  0  0  0  0  0
  147.8838  138.1582  154.7850 H   0  0  0  0  0  0  0  0  0  0  0  0
  153.1897  139.7008  156.1313 H   0  0  0  0  0  0  0  0  0  0  0  0
  152.5952  137.0503  155.6321 H   0  0  0  0  0  0  0  0  0  0  0  0
  149.7029  137.0289  153.4669 H   0  0  0  0  0  0  0  0  0  0  0  0
  148.6107  135.4114  153.3598 H   0  0  0  0  0  0  0  0  0  0  0  0
  148.3428  133.6529  155.7237 H   0  0  0  0  0  0  0  0  0  0  0  0
  146.8985  134.2817  154.9752 H   0  0  0  0  0  0  0  0  0  0  0  0
  148.9027  132.8941  153.2000 H   0  0  0  0  0  0  0  0  0  0  0  0
  147.9531  131.8754  154.2456 H   0  0  0  0  0  0  0  0  0  0  0  0
  147.2638  134.6900  151.6559 H   0  0  0  0  0  0  0  0  0  0  0  0
  144.6996  134.3329  151.0665 H   0  0  0  0  0  0  0  0  0  0  0  0
  145.7282  133.5091  149.8820 H   0  0  0  0  0  0  0  0  0  0  0  0
  143.8676  132.2298  151.6986 H   0  0  0  0  0  0  0  0  0  0  0  0
  145.0273  131.4278  150.6521 H   0  0  0  0  0  0  0  0  0  0  0  0
  146.2601  130.8207  152.5285 H   0  0  0  0  0  0  0  0  0  0  0  0
  145.1868  131.7739  153.5648 H   0  0  0  0  0  0  0  0  0  0  0  0
  1  2  1  0  0  0  0
  1 20  1  0  0  0  0
  1 21  1  0  0  0  0
  1 22  1  0  0  0  0
  2  3  1  0  0  0  0
  2  4  1  0  0  0  0
  2 23  1  0  0  0  0
  3 24  1  0  0  0  0
  3 25  1  0  0  0  0
  3 26  1  0  0  0  0
  4  8  1  0  0  0  0
  4  5  1  0  0  0  0
  5  6  2  0  0  0  0
  6  7  1  0  0  0  0
  6 27  1  0  0  0  0
  7  8  2  0  0  0  0
  7 28  1  0  0  0  0
  8  9  1  0  0  0  0
  9 10  1  0  0  0  0
  9 29  1  0  0  0  0
 10 11  2  0  0  0  0
 10 12  1  0  0  0  0
 12 13  1  0  0  0  0
 12 30  1  0  0  0  0
 13 14  1  0  0  0  0
 13 31  1  0  0  0  0
 13 32  1  0  0  0  0
 14 15  1  0  0  0  0
 14 33  1  0  0  0  0
 14 34  1  0  0  0  0
 15 19  1  0  0  0  0
 15 16  2  0  0  0  0
 16 17  1  0  0  0  0
 16 35  1  0  0  0  0
 17 18  1  0  0  0  0
 17 36  1  0  0  0  0
 17 37  1  0  0  0  0
 18 19  1  0  0  0  0
 18 38  1  0  0  0  0
 18 39  1  0  0  0  0
 19 40  1  0  0  0  0
 19 41  1  0  0  0  0
M  END
> <s_m_source_file>
AV-unprocessed.smi

> <i_m_source_file_index>
2921

> <i_lp_mmshare_version>
43012

> <i_f3d_flags>
0

> <s_epik_input>
W0NIM11bQ0hdKFtDSDNdKW4xbltjSF1bY0hdYzFbTkhdQyg9TylbTkhdW0NIMl1bQ0gyXUMyPVtDSF1bQ0gyXVtDSDJdW0NIMl0y

> <s_epik_cmdline>
J2VwaWtfcHl0aG9uJywgJy1waCcsICc3LjAnLCAnLXRuJywgJzgnLCAnLW1hJywgJzIwMCcsICctbWV0YWxfYmluZGluZycsICctaW1hZScsICc8aW5maWxlLm1hZT4nLCAnLW9tYWUnLCAnPG91dGZpbGUubWFlPic=

> <r_lp_tautomer_probability>
1

> <r_epik_Ionization_Penalty>
4.14613e-05

> <r_epik_Ionization_Penalty_Charging>
0

> <r_epik_Ionization_Penalty_Neutral>
4.14613e-05

> <r_epik_State_Penalty>
-0

> <r_epik_Charging_Adjusted_Penalty>
0

> <i_epik_Tot_Q>
0

> <i_epik_Tot_abs_Q>
0

> <r_epik_Metal_State_Penalty>
-0

> <b_epik_Metal_Only>
0

> <s_lp_Force_Field>
OPLS_2005

> <r_lp_Energy>
26.255

> <b_lp_Chiralities_Consistent>
1

> <s_lp_Variant>
AV-unprocessed.smi:2921-1

> <Gold.Version>
5.8.1

> <Gold.Id.Protein>
6NUR|6NUR_protein|mol2

> <Gold.PLP.Fitness>
44.7327

> <Gold.PLP.PLP>
-37.7601

> <Gold.PLP.part.hbond>
-4.0000

> <Gold.PLP.part.metal>
0.0000

> <Gold.PLP.part.buried>
0.1067

> <Gold.PLP.part.nonpolar>
-33.5540

> <Gold.PLP.part.repulsive>
0.1631

> <Gold.PLP.ligand.clash>
0.0000

> <Gold.PLP.ligand.torsion>
1.0421

> <Gold.PLP.Chemscore.Hbond>
3.0000

> <Gold.PLP.Chemscore.CHOScore>
0.0000

> <Gold.PLP.Chemscore.Metal>
0.0000

> <Gold.Chemscore.Hbonds>
donor molecule, donor type, donor heavy atom, donor atom, acceptor molecule, acceptor atom, score
      L1  H     9    29       P1  7948  1.00
      L1  H    12    30       P1  7948  1.00
      P1  H  7989  7998       L1     5  0.55

> <Gold.PLP.Chemscore.Internal.Correction>
0.0567

> <Gold.Rescore>
     Score         DG    S(hbond)    S(metal)    S(lipo)     H(rot)  DE(clash)    DE(int)     intcor
     14.56     -15.68       1.81        0.00      68.31       1.50       0.08       1.05       ----

> <Gold.Chemscore.Fitness>
14.5559

> <Gold.Chemscore.DG>
-15.6830

> <Gold.Chemscore.ZeroCoef>
-5.4800

> <Gold.Chemscore.Hbond>
1.8129

> <Gold.Chemscore.Metal>
0.0000

> <Gold.Chemscore.Lipo>
68.3119

> <Gold.Chemscore.Internal_Hbond>
0.0000

> <Gold.Chemscore.DEClash>
0.0806

> <Gold.Chemscore.DEInternal>
1.0465

> <Gold.Chemscore.Rot>
1.5018

> <Gold.Chemscore.Internal.Correction>
   9.000000E+99

> <Gold.Chemscore.Hbonds>
donor molecule, donor type, donor heavy atom, donor atom, acceptor molecule, acceptor atom, score
      L1  H     9    29       P1  7948  0.63
      L1  H    12    30       P1  7948  0.94
      P1  H  7989  7998       L1     5  0.02

> <Gold.Chemscore.Hbond.Weighted>
-6.0551

> <Gold.Chemscore.Metal.Weighted>
-0.0000

> <Gold.Chemscore.Lipo.Weighted>
-7.9925

> <Gold.Chemscore.Internal_Hbond.Weighted>
0.0000

> <Gold.Chemscore.DEClash.Weighted>
0.0806

> <Gold.Chemscore.DEInternal.Weighted>
1.0465

> <Gold.Chemscore.Rot.Weighted>
3.8446

> <Gold.Chemscore.Internal.Correction.Weighted>
   9.000000E+99

> <Gold.Protein.RotatedTorsions>
[ 6907 6896 6895 6894 ] final   72.21 input  -60.11 | X-H torsion
[ 7974 7965 7964 7962 ] final -159.92 input  175.53 | X-H torsion
[ 8008 7997 7996 7995 ] final  -42.71 input   59.86 | X-H torsion
[ 10167 10162 10161 10158 ] final   10.46 input  -65.29 | X-H torsion
[ 10718 10713 10712 10709 ] final  -45.53 input   66.30 | X-H torsion
[ 10763 10752 10751 10750 ] final  -64.55 input  -60.55 | X-H torsion
[ 11005 11000 10999 10996 ] final  -35.36 input  -57.11 | X-H torsion

> <Gold.Protein.ActiveResidues>
 VAL166  LYS551  ARG553  GLY616  TRP617  ASP618  TYR619  PRO620  LYS621  CYS622 
 ASP623  PHE694  ASN695  SER759  ASP760  ASP761  ALA762  ILE779  LEU786  VAL792 
 PHE793  MET794  SER795  GLU796  ALA797  LYS798  CYS799  TRP800  GLU811  SER814 

> <Gold.Protein.RotatedAtoms>
  152.4855  134.4606  159.9603 H   0  0  0  0  0  0  0  0  0  0  0  0  # atno 6907 bound_to 6896
  151.4603  133.3588  159.2816 H   0  0  0  0  0  0  0  0  0  0  0  0  # atno 6908 bound_to 6896
  150.8961  134.8394  159.7388 H   0  0  0  0  0  0  0  0  0  0  0  0  # atno 6909 bound_to 6896
  144.7446  140.3615  143.6095 H   0  0  0  0  0  0  0  0  0  0  0  0  # atno 7974 bound_to 7965
  154.3998  140.1466  156.3400 H   0  0  0  0  0  0  0  0  0  0  0  0  # atno 8008 bound_to 7997
  155.8365  140.3463  155.5583 H   0  0  0  0  0  0  0  0  0  0  0  0  # atno 8009 bound_to 7997
  155.8133  140.0887  157.1882 H   0  0  0  0  0  0  0  0  0  0  0  0  # atno 8010 bound_to 7997
  140.6193  143.8239  150.7156 H   0  0  0  0  0  0  0  0  0  0  0  0  # atno 10167 bound_to 10162
  156.2274  130.4170  149.8917 H   0  0  0  0  0  0  0  0  0  0  0  0  # atno 10718 bound_to 10713
  154.3318  135.6175  153.5555 H   0  0  0  0  0  0  0  0  0  0  0  0  # atno 10763 bound_to 10752
  152.9811  135.5748  154.4953 H   0  0  0  0  0  0  0  0  0  0  0  0  # atno 10764 bound_to 10752
  154.4641  135.2857  155.1668 H   0  0  0  0  0  0  0  0  0  0  0  0  # atno 10765 bound_to 10752
  140.9790  133.7067  156.1652 H   0  0  0  0  0  0  0  0  0  0  0  0  # atno 11005 bound_to 11000
  145.7172  139.1700  143.2505 LP  0  0  0  0  0  0  0  0  0  0  0  0  # atno 17320 bound_to 7965
  146.1304  140.7193  142.9415 LP  0  0  0  0  0  0  0  0  0  0  0  0  # atno 17321 bound_to 7965
  140.1826  143.4102  152.1922 LP  0  0  0  0  0  0  0  0  0  0  0  0  # atno 17342 bound_to 10162
  139.5425  144.7269  151.4688 LP  0  0  0  0  0  0  0  0  0  0  0  0  # atno 17343 bound_to 10162
  156.6542  130.8756  151.3536 LP  0  0  0  0  0  0  0  0  0  0  0  0  # atno 17370 bound_to 10713
  157.7117  130.9448  150.1112 LP  0  0  0  0  0  0  0  0  0  0  0  0  # atno 17371 bound_to 10713
  140.7215  134.4353  157.5574 LP  0  0  0  0  0  0  0  0  0  0  0  0  # atno 17394 bound_to 11000
  139.8942  134.8711  156.2186 LP  0  0  0  0  0  0  0  0  0  0  0  0  # atno 17395 bound_to 11000

$$$$
