AV-unprocessed.smi:906|AV-procd|sdf|4100|dock7
  -GOLD-   22720 1593D 1   1.00000     0.00000
 Structure written by MMmdl.
 47 48  0  0  0  0  0  0  0  0  1 V2000
  152.0677  145.1819  159.6368 C   0  0  0  0  0  0  0  0  0  0  0  0
  152.0926  143.6735  159.5054 C   0  0  0  0  0  0  0  0  0  0  0  0
  152.8992  142.8858  160.3537 C   0  0  0  0  0  0  0  0  0  0  0  0
  152.8846  141.4881  160.1843 C   0  0  0  0  0  0  0  0  0  0  0  0
  152.0690  140.9332  159.1765 C   0  0  0  0  0  0  0  0  0  0  0  0
  152.0307  139.4333  158.9381 C   0  0  0  0  0  0  0  0  0  0  0  0
  152.4844  139.0359  157.5233 C   0  0  0  0  0  0  0  0  0  0  0  0
  151.5419  138.1024  156.9137 N   0  0  0  0  0  0  0  0  0  0  0  0
  150.9832  137.0386  157.5147 C   0  0  0  0  0  0  0  0  0  0  0  0
  151.2695  136.7064  158.6656 O   0  0  0  0  0  0  0  0  0  0  0  0
  150.0573  136.3909  156.7646 N   0  0  0  0  0  0  0  0  0  0  0  0
  149.9358  136.4112  155.2996 C   0  0  0  0  0  0  0  0  0  0  0  0
  150.3422  135.0301  154.7508 C   0  0  0  0  0  0  0  0  0  0  0  0
  149.4804  133.9862  155.3232 N   0  0  0  0  0  0  0  0  0  0  0  0
  149.6969  132.6324  154.7841 C   0  0  2  0  0  0  0  0  0  0  0  0
  151.1780  132.1934  154.7752 C   0  0  0  0  0  0  0  0  0  0  0  0
  149.0200  132.4443  153.4052 C   0  0  0  0  0  0  0  0  0  0  0  0
  147.7141  132.6999  153.4934 F   0  0  0  0  0  0  0  0  0  0  0  0
  149.5532  133.2297  152.4693 F   0  0  0  0  0  0  0  0  0  0  0  0
  149.1666  131.1776  153.0170 F   0  0  0  0  0  0  0  0  0  0  0  0
  149.5404  134.0017  156.7905 C   0  0  0  0  0  0  0  0  0  0  0  0
  149.1446  135.3912  157.3256 C   0  0  0  0  0  0  0  0  0  0  0  0
  151.3002  141.8098  158.3823 C   0  0  0  0  0  0  0  0  0  0  0  0
  151.3070  143.1512  158.5380 N   0  0  0  0  0  0  0  0  0  0  0  0
  152.6681  145.5150  160.4841 H   0  0  0  0  0  0  0  0  0  0  0  0
  151.0467  145.5347  159.7851 H   0  0  0  0  0  0  0  0  0  0  0  0
  152.4648  145.6468  158.7342 H   0  0  0  0  0  0  0  0  0  0  0  0
  153.5171  143.3391  161.1147 H   0  0  0  0  0  0  0  0  0  0  0  0
  153.4951  140.8568  160.8131 H   0  0  0  0  0  0  0  0  0  0  0  0
  152.6616  138.9387  159.6777 H   0  0  0  0  0  0  0  0  0  0  0  0
  151.0166  139.0738  159.1152 H   0  0  0  0  0  0  0  0  0  0  0  0
  152.5655  139.9211  156.8920 H   0  0  0  0  0  0  0  0  0  0  0  0
  153.4835  138.6007  157.5795 H   0  0  0  0  0  0  0  0  0  0  0  0
  151.2490  138.3102  155.9703 H   0  0  0  0  0  0  0  0  0  0  0  0
  148.9030  136.6344  155.0272 H   0  0  0  0  0  0  0  0  0  0  0  0
  150.5345  137.1828  154.8161 H   0  0  0  0  0  0  0  0  0  0  0  0
  150.2548  135.0461  153.6664 H   0  0  0  0  0  0  0  0  0  0  0  0
  151.3883  134.8364  154.9898 H   0  0  0  0  0  0  0  0  0  0  0  0
  149.1684  131.9557  155.4571 H   0  0  0  0  0  0  0  0  0  0  0  0
  151.2640  131.1464  154.4848 H   0  0  0  0  0  0  0  0  0  0  0  0
  151.6419  132.2891  155.7564 H   0  0  0  0  0  0  0  0  0  0  0  0
  151.7703  132.7705  154.0652 H   0  0  0  0  0  0  0  0  0  0  0  0
  148.8582  133.2537  157.1959 H   0  0  0  0  0  0  0  0  0  0  0  0
  150.5421  133.7453  157.1361 H   0  0  0  0  0  0  0  0  0  0  0  0
  149.1509  135.3808  158.4162 H   0  0  0  0  0  0  0  0  0  0  0  0
  148.1196  135.6311  157.0383 H   0  0  0  0  0  0  0  0  0  0  0  0
  150.6669  141.4253  157.5963 H   0  0  0  0  0  0  0  0  0  0  0  0
  1  2  1  0  0  0  0
  1 25  1  0  0  0  0
  1 26  1  0  0  0  0
  1 27  1  0  0  0  0
  2 24  1  0  0  0  0
  2  3  2  0  0  0  0
  3  4  1  0  0  0  0
  3 28  1  0  0  0  0
  4  5  2  0  0  0  0
  4 29  1  0  0  0  0
  5  6  1  0  0  0  0
  5 23  1  0  0  0  0
  6  7  1  0  0  0  0
  6 30  1  0  0  0  0
  6 31  1  0  0  0  0
  7  8  1  0  0  0  0
  7 32  1  0  0  0  0
  7 33  1  0  0  0  0
  8  9  1  0  0  0  0
  8 34  1  0  0  0  0
  9 10  2  0  0  0  0
  9 11  1  0  0  0  0
 11 22  1  0  0  0  0
 11 12  1  0  0  0  0
 12 13  1  0  0  0  0
 12 35  1  0  0  0  0
 12 36  1  0  0  0  0
 13 14  1  0  0  0  0
 13 37  1  0  0  0  0
 13 38  1  0  0  0  0
 14 15  1  0  0  0  0
 14 21  1  0  0  0  0
 15 16  1  0  0  0  0
 15 17  1  0  0  0  0
 15 39  1  0  0  0  0
 16 40  1  0  0  0  0
 16 41  1  0  0  0  0
 16 42  1  0  0  0  0
 17 18  1  0  0  0  0
 17 19  1  0  0  0  0
 17 20  1  0  0  0  0
 21 22  1  0  0  0  0
 21 43  1  0  0  0  0
 21 44  1  0  0  0  0
 22 45  1  0  0  0  0
 22 46  1  0  0  0  0
 23 24  2  0  0  0  0
 23 47  1  0  0  0  0
M  END
> <s_m_source_file>
AV-unprocessed.smi

> <i_m_source_file_index>
906

> <i_lp_mmshare_version>
43012

> <i_f3d_flags>
0

> <s_epik_input>
W0NIM11jMVtjSF1bY0hdYyhbY0hdbjEpW0NIMl1bQ0gyXVtOSF1DKD1PKU4yW0NIMl1bQ0gyXU4oW0NASF0oW0NIM10pQyhGKShGKUYpW0NIMl1bQ0gyXTI=

> <s_epik_cmdline>
J2VwaWtfcHl0aG9uJywgJy1waCcsICc3LjAnLCAnLXRuJywgJzgnLCAnLW1hJywgJzIwMCcsICctbWV0YWxfYmluZGluZycsICctaW1hZScsICc8aW5maWxlLm1hZT4nLCAnLW9tYWUnLCAnPG91dGZpbGUubWFlPic=

> <r_epik_Ionization_Penalty>
0.0782886

> <r_epik_Ionization_Penalty_Charging>
0

> <r_epik_Ionization_Penalty_Neutral>
0.0782886

> <r_epik_State_Penalty>
0.0661423

> <r_epik_Charging_Adjusted_Penalty>
0.0661423

> <i_epik_Tot_Q>
0

> <i_epik_Tot_abs_Q>
0

> <r_epik_Metal_State_Penalty>
0.060629

> <b_epik_Metal_Only>
0

> <s_lp_Force_Field>
OPLS_2005

> <r_lp_Energy>
48.1538

> <b_lp_Chiralities_Consistent>
1

> <s_lp_Variant>
AV-unprocessed.smi:906-1

> <Gold.Version>
5.8.1

> <Gold.Id.Protein>
6NUR|6NUR_protein|mol2

> <Gold.PLP.Fitness>
42.4178

> <Gold.PLP.PLP>
-40.7254

> <Gold.PLP.part.hbond>
-1.0000

> <Gold.PLP.part.metal>
0.0000

> <Gold.PLP.part.buried>
-5.9383

> <Gold.PLP.part.nonpolar>
-33.7320

> <Gold.PLP.part.repulsive>
0.1383

> <Gold.PLP.ligand.clash>
0.0000

> <Gold.PLP.ligand.torsion>
0.9529

> <Gold.PLP.Chemscore.Hbond>
0.9920

> <Gold.PLP.Chemscore.CHOScore>
0.0000

> <Gold.PLP.Chemscore.Metal>
0.0000

> <Gold.Chemscore.Hbonds>
donor molecule, donor type, donor heavy atom, donor atom, acceptor molecule, acceptor atom, score
      P1  H  6896  6907       L1    10  0.83

> <Gold.PLP.Chemscore.Internal.Correction>
0.6222

> <Gold.Rescore>
     Score         DG    S(hbond)    S(metal)    S(lipo)     H(rot)  DE(clash)    DE(int)     intcor
     14.23     -16.66       0.96        0.00     102.86       1.58       0.00       2.42       ----

> <Gold.Chemscore.Fitness>
14.2347

> <Gold.Chemscore.DG>
-16.6607

> <Gold.Chemscore.ZeroCoef>
-5.4800

> <Gold.Chemscore.Hbond>
0.9587

> <Gold.Chemscore.Metal>
0.0000

> <Gold.Chemscore.Lipo>
102.8563

> <Gold.Chemscore.Internal_Hbond>
0.0000

> <Gold.Chemscore.DEClash>
0.0038

> <Gold.Chemscore.DEInternal>
2.4222

> <Gold.Chemscore.Rot>
1.5841

> <Gold.Chemscore.Internal.Correction>
   9.000000E+99

> <Gold.Chemscore.Hbonds>
donor molecule, donor type, donor heavy atom, donor atom, acceptor molecule, acceptor atom, score
      P1  H  6896  6907       L1    10  0.80

> <Gold.Chemscore.Hbond.Weighted>
-3.2019

> <Gold.Chemscore.Metal.Weighted>
-0.0000

> <Gold.Chemscore.Lipo.Weighted>
-12.0342

> <Gold.Chemscore.Internal_Hbond.Weighted>
0.0000

> <Gold.Chemscore.DEClash.Weighted>
0.0038

> <Gold.Chemscore.DEInternal.Weighted>
2.4222

> <Gold.Chemscore.Rot.Weighted>
4.0554

> <Gold.Chemscore.Internal.Correction.Weighted>
   9.000000E+99

> <Gold.Protein.RotatedTorsions>
[ 6907 6896 6895 6894 ] final  -26.05 input  -60.11 | X-H torsion
[ 7974 7965 7964 7962 ] final  151.82 input  175.53 | X-H torsion
[ 8008 7997 7996 7995 ] final  -98.25 input   59.86 | X-H torsion
[ 10167 10162 10161 10158 ] final   12.76 input  -65.29 | X-H torsion
[ 10718 10713 10712 10709 ] final   45.57 input   66.30 | X-H torsion
[ 10763 10752 10751 10750 ] final  102.41 input  -60.55 | X-H torsion
[ 11005 11000 10999 10996 ] final  140.25 input  -57.11 | X-H torsion

> <Gold.Protein.ActiveResidues>
 VAL166  LYS551  ARG553  GLY616  TRP617  ASP618  TYR619  PRO620  LYS621  CYS622 
 ASP623  PHE694  ASN695  SER759  ASP760  ASP761  ALA762  ILE779  LEU786  VAL792 
 PHE793  MET794  SER795  GLU796  ALA797  LYS798  CYS799  TRP800  GLU811  SER814 

> <Gold.Protein.RotatedAtoms>
  151.1665  135.0298  159.8732 H   0  0  0  0  0  0  0  0  0  0  0  0  # atno 6907 bound_to 6896
  152.5450  134.1219  159.8413 H   0  0  0  0  0  0  0  0  0  0  0  0  # atno 6908 bound_to 6896
  151.1320  133.4984  159.2631 H   0  0  0  0  0  0  0  0  0  0  0  0  # atno 6909 bound_to 6896
  144.8265  139.6588  143.6077 H   0  0  0  0  0  0  0  0  0  0  0  0  # atno 7974 bound_to 7965
  154.7987  140.0456  157.1256 H   0  0  0  0  0  0  0  0  0  0  0  0  # atno 8008 bound_to 7997
  154.9505  140.3064  155.5058 H   0  0  0  0  0  0  0  0  0  0  0  0  # atno 8009 bound_to 7997
  156.2959  140.2289  156.4582 H   0  0  0  0  0  0  0  0  0  0  0  0  # atno 8010 bound_to 7997
  140.6047  143.8533  150.7001 H   0  0  0  0  0  0  0  0  0  0  0  0  # atno 10167 bound_to 10162
  157.4390  130.8070  149.7676 H   0  0  0  0  0  0  0  0  0  0  0  0  # atno 10718 bound_to 10713
  153.3392  135.4011  155.1558 H   0  0  0  0  0  0  0  0  0  0  0  0  # atno 10763 bound_to 10752
  154.8640  135.3629  154.5368 H   0  0  0  0  0  0  0  0  0  0  0  0  # atno 10764 bound_to 10752
  153.5811  135.7076  153.5522 H   0  0  0  0  0  0  0  0  0  0  0  0  # atno 10765 bound_to 10752
  140.0313  134.9350  157.0668 H   0  0  0  0  0  0  0  0  0  0  0  0  # atno 11005 bound_to 11000
  146.2570  139.6325  142.9388 LP  0  0  0  0  0  0  0  0  0  0  0  0  # atno 17320 bound_to 7965
  145.4989  141.0438  143.2552 LP  0  0  0  0  0  0  0  0  0  0  0  0  # atno 17321 bound_to 7965
  140.2087  143.3901  152.1735 LP  0  0  0  0  0  0  0  0  0  0  0  0  # atno 17342 bound_to 10162
  139.5316  144.7165  151.5036 LP  0  0  0  0  0  0  0  0  0  0  0  0  # atno 17343 bound_to 10162
  155.9941  130.3920  150.2872 LP  0  0  0  0  0  0  0  0  0  0  0  0  # atno 17370 bound_to 10713
  157.1035  131.0202  151.3076 LP  0  0  0  0  0  0  0  0  0  0  0  0  # atno 17371 bound_to 10713
  140.4221  134.1870  155.7165 LP  0  0  0  0  0  0  0  0  0  0  0  0  # atno 17394 bound_to 11000
  141.1832  133.8368  157.1181 LP  0  0  0  0  0  0  0  0  0  0  0  0  # atno 17395 bound_to 11000

$$$$
