AV-unprocessed.smi:148|AV-procd|sdf|1226|dock7
  -GOLD-   2262018423D 1   1.00000     0.00000
 Structure written by MMmdl.
 63 67  0  0  0  0  0  0  0  0  1 V2000
  147.5565  135.1159  153.4596 O   0  0  0  0  0  0  0  0  0  0  0  0
  146.1574  135.2319  153.3003 C   0  0  0  0  0  0  0  0  0  0  0  0
  145.4860  133.8427  153.1695 C   0  0  2  0  0  0  0  0  0  0  0  0
  146.1109  132.7853  154.1133 C   0  0  0  0  0  0  0  0  0  0  0  0
  146.1613  133.2123  155.5010 N   0  0  0  0  0  0  0  0  0  0  0  0
  145.0961  133.6129  156.2761 C   0  0  0  0  0  0  0  0  0  0  0  0
  145.3938  133.9488  157.5020 N   0  0  0  0  0  0  0  0  0  0  0  0
  146.7671  133.7566  157.5767 C   0  0  0  0  0  0  0  0  0  0  0  0
  147.7298  133.9122  158.6078 C   0  0  0  0  0  0  0  0  0  0  0  0
  147.3903  134.3405  159.8431 N   0  0  0  0  0  0  0  0  0  0  0  0
  148.1629  135.5374  160.1847 C   0  0  0  0  0  0  0  0  0  0  0  0
  147.6122  136.2209  161.4397 C   0  0  0  0  0  0  0  0  0  0  0  0
  147.5788  135.2237  162.5985 C   0  0  0  0  0  0  0  0  0  0  0  0
  146.7624  133.9880  162.1991 C   0  0  0  0  0  0  0  0  0  0  0  0
  147.2852  133.3138  160.9011 C   0  0  1  0  0  0  0  0  0  0  0  0
  146.3738  132.0958  160.5136 C   0  0  2  0  0  0  0  0  0  0  0  0
  146.0391  131.1345  161.6701 C   0  0  0  0  0  0  0  0  0  0  0  0
  145.5360  129.8384  161.0262 C   0  0  0  0  0  0  0  0  0  0  0  0
  146.0135  129.8724  159.5702 C   0  0  0  0  0  0  0  0  0  0  0  0
  146.9007  131.1156  159.4391 C   0  0  2  0  0  0  0  0  0  0  0  0
  148.2437  130.7472  159.6922 O   0  0  0  0  0  0  0  0  0  0  0  0
  149.0265  133.6206  158.3216 N   0  0  0  0  0  0  0  0  0  0  0  0
  149.3575  133.1932  157.0991 C   0  0  0  0  0  0  0  0  0  0  0  0
  148.5668  132.9932  156.0419 N   0  0  0  0  0  0  0  0  0  0  0  0
  147.2669  133.2911  156.3293 C   0  0  0  0  0  0  0  0  0  0  0  0
  145.4491  133.3477  151.7015 C   0  0  1  0  0  0  0  0  0  0  0  0
  144.6694  132.0639  151.4778 C   0  0  0  0  0  0  0  0  0  0  0  0
  144.4261  132.0986  149.9737 C   0  0  0  0  0  0  0  0  0  0  0  0
  144.2716  133.4746  149.6472 O   0  0  0  0  0  0  0  0  0  0  0  0
  144.7298  134.2856  150.7254 C   0  0  0  0  0  0  0  0  0  0  0  0
  147.9782  135.4728  152.6929 H   0  0  0  0  0  0  0  0  0  0  0  0
  145.7536  135.7847  154.1486 H   0  0  0  0  0  0  0  0  0  0  0  0
  145.9562  135.8447  152.4219 H   0  0  0  0  0  0  0  0  0  0  0  0
  144.4508  133.9737  153.4881 H   0  0  0  0  0  0  0  0  0  0  0  0
  145.5427  131.8557  154.0784 H   0  0  0  0  0  0  0  0  0  0  0  0
  147.1217  132.5389  153.7857 H   0  0  0  0  0  0  0  0  0  0  0  0
  144.0843  133.6507  155.8988 H   0  0  0  0  0  0  0  0  0  0  0  0
  149.2066  135.2641  160.3488 H   0  0  0  0  0  0  0  0  0  0  0  0
  148.1464  136.2430  159.3522 H   0  0  0  0  0  0  0  0  0  0  0  0
  148.2291  137.0813  161.6995 H   0  0  0  0  0  0  0  0  0  0  0  0
  146.6082  136.6001  161.2451 H   0  0  0  0  0  0  0  0  0  0  0  0
  148.5947  134.9264  162.8624 H   0  0  0  0  0  0  0  0  0  0  0  0
  147.1478  135.6901  163.4847 H   0  0  0  0  0  0  0  0  0  0  0  0
  146.7878  133.2913  163.0364 H   0  0  0  0  0  0  0  0  0  0  0  0
  145.7182  134.2755  162.0665 H   0  0  0  0  0  0  0  0  0  0  0  0
  148.2918  132.9512  161.1120 H   0  0  0  0  0  0  0  0  0  0  0  0
  145.4216  132.4942  160.1582 H   0  0  0  0  0  0  0  0  0  0  0  0
  146.9415  130.9181  162.2442 H   0  0  0  0  0  0  0  0  0  0  0  0
  145.3020  131.5485  162.3590 H   0  0  0  0  0  0  0  0  0  0  0  0
  145.9214  128.9666  161.5559 H   0  0  0  0  0  0  0  0  0  0  0  0
  144.4469  129.7878  161.0617 H   0  0  0  0  0  0  0  0  0  0  0  0
  146.5248  128.9547  159.2760 H   0  0  0  0  0  0  0  0  0  0  0  0
  145.1476  129.9781  158.9153 H   0  0  0  0  0  0  0  0  0  0  0  0
  146.8323  131.5079  158.4267 H   0  0  0  0  0  0  0  0  0  0  0  0
  148.5769  131.2938  160.3880 H   0  0  0  0  0  0  0  0  0  0  0  0
  150.4048  132.9779  156.9470 H   0  0  0  0  0  0  0  0  0  0  0  0
  146.4683  133.1913  151.3436 H   0  0  0  0  0  0  0  0  0  0  0  0
  145.2102  131.1702  151.7901 H   0  0  0  0  0  0  0  0  0  0  0  0
  143.7184  132.0944  152.0118 H   0  0  0  0  0  0  0  0  0  0  0  0
  145.2943  131.7101  149.4397 H   0  0  0  0  0  0  0  0  0  0  0  0
  143.5548  131.5147  149.6761 H   0  0  0  0  0  0  0  0  0  0  0  0
  143.8602  134.7448  151.1973 H   0  0  0  0  0  0  0  0  0  0  0  0
  145.3778  135.0849  150.3645 H   0  0  0  0  0  0  0  0  0  0  0  0
  1  2  1  0  0  0  0
  1 31  1  0  0  0  0
  2  3  1  0  0  0  0
  2 32  1  0  0  0  0
  2 33  1  0  0  0  0
  3  4  1  0  0  0  0
  3 26  1  0  0  0  0
  3 34  1  0  0  0  0
  4  5  1  0  0  0  0
  4 35  1  0  0  0  0
  4 36  1  0  0  0  0
  5 25  1  0  0  0  0
  5  6  1  0  0  0  0
  6  7  2  0  0  0  0
  6 37  1  0  0  0  0
  7  8  1  0  0  0  0
  8 25  2  0  0  0  0
  8  9  1  0  0  0  0
  9 10  1  0  0  0  0
  9 22  2  0  0  0  0
 10 15  1  0  0  0  0
 10 11  1  0  0  0  0
 11 12  1  0  0  0  0
 11 38  1  0  0  0  0
 11 39  1  0  0  0  0
 12 13  1  0  0  0  0
 12 40  1  0  0  0  0
 12 41  1  0  0  0  0
 13 14  1  0  0  0  0
 13 42  1  0  0  0  0
 13 43  1  0  0  0  0
 14 15  1  0  0  0  0
 14 44  1  0  0  0  0
 14 45  1  0  0  0  0
 15 16  1  0  0  0  0
 15 46  1  0  0  0  0
 16 20  1  0  0  0  0
 16 17  1  0  0  0  0
 16 47  1  0  0  0  0
 17 18  1  0  0  0  0
 17 48  1  0  0  0  0
 17 49  1  0  0  0  0
 18 19  1  0  0  0  0
 18 50  1  0  0  0  0
 18 51  1  0  0  0  0
 19 20  1  0  0  0  0
 19 52  1  0  0  0  0
 19 53  1  0  0  0  0
 20 21  1  0  0  0  0
 20 54  1  0  0  0  0
 21 55  1  0  0  0  0
 22 23  1  0  0  0  0
 23 24  2  0  0  0  0
 23 56  1  0  0  0  0
 24 25  1  0  0  0  0
 26 30  1  0  0  0  0
 26 27  1  0  0  0  0
 26 57  1  0  0  0  0
 27 28  1  0  0  0  0
 27 58  1  0  0  0  0
 27 59  1  0  0  0  0
 28 29  1  0  0  0  0
 28 60  1  0  0  0  0
 28 61  1  0  0  0  0
 29 30  1  0  0  0  0
 30 62  1  0  0  0  0
 30 63  1  0  0  0  0
M  END
> <s_m_source_file>
AV-unprocessed.smi

> <i_m_source_file_index>
148

> <i_lp_mmshare_version>
43012

> <i_f3d_flags>
0

> <s_epik_input>
W0NIMl0xT1tDSDJdW0NIMl1bQ0BIXTFbQ0BIXShbQ0gyXVtPSF0pW0NIMl1uKFtjSF1uMiljKGMyMyluW2NIXW5jM040W0NIMl1bQ0gyXVtDSDJdW0NIMl1bQ0BIXTRbQ0BASF01W0NIMl1bQ0gyXVtDSDJdW0NASF01W09IXQ==

> <s_epik_cmdline>
J2VwaWtfcHl0aG9uJywgJy1waCcsICc3LjAnLCAnLXRuJywgJzgnLCAnLW1hJywgJzIwMCcsICctbWV0YWxfYmluZGluZycsICctaW1hZScsICc8aW5maWxlLm1hZT4nLCAnLW9tYWUnLCAnPG91dGZpbGUubWFlPic=

> <r_lp_tautomer_probability>
1

> <r_epik_Ionization_Penalty>
0.00556303

> <r_epik_Ionization_Penalty_Charging>
0

> <r_epik_Ionization_Penalty_Neutral>
0.00556303

> <r_epik_State_Penalty>
0.00401767

> <r_epik_Charging_Adjusted_Penalty>
0.00401767

> <i_epik_Tot_Q>
0

> <i_epik_Tot_abs_Q>
0

> <r_epik_Metal_State_Penalty>
-0

> <b_epik_Metal_Only>
0

> <s_lp_Force_Field>
OPLS_2005

> <r_lp_Energy>
70.5735

> <b_lp_Chiralities_Consistent>
1

> <s_lp_Variant>
AV-unprocessed.smi:148-25

> <Gold.Version>
5.8.1

> <Gold.Id.Protein>
6NUR|6NUR_protein|mol2

> <Gold.PLP.Fitness>
43.6041

> <Gold.PLP.PLP>
-35.3673

> <Gold.PLP.part.hbond>
-1.6046

> <Gold.PLP.part.metal>
0.0000

> <Gold.PLP.part.buried>
-6.6307

> <Gold.PLP.part.nonpolar>
-28.1779

> <Gold.PLP.part.repulsive>
0.6023

> <Gold.PLP.ligand.clash>
0.0000

> <Gold.PLP.ligand.torsion>
0.7072

> <Gold.PLP.Chemscore.Hbond>
2.0000

> <Gold.PLP.Chemscore.CHOScore>
1.0000

> <Gold.PLP.Chemscore.Metal>
0.0000

> <Gold.Chemscore.Hbonds>
donor molecule, donor type, donor heavy atom, donor atom, acceptor molecule, acceptor atom, score
      L1  H     1    31       P1  7948  0.84
      P1  H  6896  6909       L1    22  1.00
      L1  C     6    37       P1 10957  0.82

> <Gold.PLP.Chemscore.Internal.Correction>
0.6512

> <Gold.Rescore>
     Score         DG    S(hbond)    S(metal)    S(lipo)     H(rot)  DE(clash)    DE(int)     intcor
     13.07     -13.87       1.88        0.00      90.68       3.32       0.03       0.77       ----

> <Gold.Chemscore.Fitness>
13.0720

> <Gold.Chemscore.DG>
-13.8722

> <Gold.Chemscore.ZeroCoef>
-5.4800

> <Gold.Chemscore.Hbond>
1.8812

> <Gold.Chemscore.Metal>
0.0000

> <Gold.Chemscore.Lipo>
90.6755

> <Gold.Chemscore.Internal_Hbond>
0.0000

> <Gold.Chemscore.DEClash>
0.0262

> <Gold.Chemscore.DEInternal>
0.7740

> <Gold.Chemscore.Rot>
3.3203

> <Gold.Chemscore.Internal.Correction>
   9.000000E+99

> <Gold.Chemscore.Hbonds>
donor molecule, donor type, donor heavy atom, donor atom, acceptor molecule, acceptor atom, score
      L1  H     1    31       P1  7948  0.82
      P1  H  6896  6909       L1    22  0.54

> <Gold.Chemscore.Hbond.Weighted>
-6.2832

> <Gold.Chemscore.Metal.Weighted>
-0.0000

> <Gold.Chemscore.Lipo.Weighted>
-10.6090

> <Gold.Chemscore.Internal_Hbond.Weighted>
0.0000

> <Gold.Chemscore.DEClash.Weighted>
0.0262

> <Gold.Chemscore.DEInternal.Weighted>
0.7740

> <Gold.Chemscore.Rot.Weighted>
8.5000

> <Gold.Chemscore.Internal.Correction.Weighted>
   9.000000E+99

> <Gold.Protein.RotatedTorsions>
[ 6907 6896 6895 6894 ] final    5.84 input  -60.11 | X-H torsion
[ 7974 7965 7964 7962 ] final  -93.82 input  175.53 | X-H torsion
[ 8008 7997 7996 7995 ] final -179.98 input   59.86 | X-H torsion
[ 10167 10162 10161 10158 ] final -140.93 input  -65.29 | X-H torsion
[ 10718 10713 10712 10709 ] final   12.30 input   66.30 | X-H torsion
[ 10763 10752 10751 10750 ] final   11.00 input  -60.55 | X-H torsion
[ 11005 11000 10999 10996 ] final   55.08 input  -57.11 | X-H torsion

> <Gold.Protein.ActiveResidues>
 VAL166  LYS551  ARG553  GLY616  TRP617  ASP618  TYR619  PRO620  LYS621  CYS622 
 ASP623  PHE694  ASN695  SER759  ASP760  ASP761  ALA762  ILE779  LEU786  VAL792 
 PHE793  MET794  SER795  GLU796  ALA797  LYS798  CYS799  TRP800  GLU811  SER814 

> <Gold.Protein.RotatedAtoms>
  151.6640  135.0985  160.0184 H   0  0  0  0  0  0  0  0  0  0  0  0  # atno 6907 bound_to 6896
  152.3930  133.6702  159.6262 H   0  0  0  0  0  0  0  0  0  0  0  0  # atno 6908 bound_to 6896
  150.7842  133.8838  159.3335 H   0  0  0  0  0  0  0  0  0  0  0  0  # atno 6909 bound_to 6896
  145.3815  140.9518  143.2391 H   0  0  0  0  0  0  0  0  0  0  0  0  # atno 7974 bound_to 7965
  156.0367  140.1294  157.0200 H   0  0  0  0  0  0  0  0  0  0  0  0  # atno 8008 bound_to 7997
  154.4373  140.1038  156.6248 H   0  0  0  0  0  0  0  0  0  0  0  0  # atno 8009 bound_to 7997
  155.5727  140.3467  155.4521 H   0  0  0  0  0  0  0  0  0  0  0  0  # atno 8010 bound_to 7997
  139.8234  143.7544  152.2666 H   0  0  0  0  0  0  0  0  0  0  0  0  # atno 10167 bound_to 10162
  157.0082  130.6106  149.5705 H   0  0  0  0  0  0  0  0  0  0  0  0  # atno 10718 bound_to 10713
  153.1972  135.6851  153.8277 H   0  0  0  0  0  0  0  0  0  0  0  0  # atno 10763 bound_to 10752
  153.7555  135.3217  155.3329 H   0  0  0  0  0  0  0  0  0  0  0  0  # atno 10764 bound_to 10752
  154.8151  135.4691  154.0722 H   0  0  0  0  0  0  0  0  0  0  0  0  # atno 10765 bound_to 10752
  140.0635  134.5569  155.9125 H   0  0  0  0  0  0  0  0  0  0  0  0  # atno 11005 bound_to 11000
  144.8504  139.5330  143.6859 LP  0  0  0  0  0  0  0  0  0  0  0  0  # atno 17320 bound_to 7965
  146.2840  139.6953  142.9209 LP  0  0  0  0  0  0  0  0  0  0  0  0  # atno 17321 bound_to 7965
  139.7729  144.7470  151.0199 LP  0  0  0  0  0  0  0  0  0  0  0  0  # atno 17342 bound_to 10162
  140.7812  143.4625  151.0257 LP  0  0  0  0  0  0  0  0  0  0  0  0  # atno 17343 bound_to 10162
  156.0146  130.5239  150.8094 LP  0  0  0  0  0  0  0  0  0  0  0  0  # atno 17370 bound_to 10713
  157.5340  131.0938  150.9917 LP  0  0  0  0  0  0  0  0  0  0  0  0  # atno 17371 bound_to 10713
  141.1983  133.6601  156.5785 LP  0  0  0  0  0  0  0  0  0  0  0  0  # atno 17394 bound_to 11000
  140.3734  134.7586  157.4614 LP  0  0  0  0  0  0  0  0  0  0  0  0  # atno 17395 bound_to 11000

$$$$
