AV-unprocessed.smi:431|AV-procd|sdf|2547|dock3
  -GOLD-   2262022513D 1   1.00000     0.00000
 Structure written by MMmdl.
 43 44  0  0  0  0  0  0  0  0  1 V2000
  151.4665  144.6084  160.4394 C   0  0  0  0  0  0  0  0  0  0  0  0
  152.1331  144.5453  159.0556 C   0  0  0  0  0  0  0  0  0  0  0  0
  151.5541  143.4624  158.1176 C   0  0  2  0  0  0  0  0  0  0  0  0
  150.0177  143.5271  158.0852 C   0  0  0  0  0  0  0  0  0  0  0  0
  152.0151  142.0529  158.5176 C   0  0  0  0  0  0  0  0  0  0  0  0
  152.7307  141.8911  159.5066 O   0  0  0  0  0  0  0  0  0  0  0  0
  151.6089  141.0439  157.7312 N   0  0  0  0  0  0  0  0  0  0  0  0
  151.9796  139.6443  157.9120 C   0  0  0  0  0  0  0  0  0  0  0  0
  150.8045  138.7285  158.2232 C   0  0  0  0  0  0  0  0  0  0  0  0
  149.5539  138.8785  157.5888 C   0  0  0  0  0  0  0  0  0  0  0  0
  148.5080  137.9971  157.9215 C   0  0  0  0  0  0  0  0  0  0  0  0
  148.7365  136.9855  158.8849 C   0  0  0  0  0  0  0  0  0  0  0  0
  147.7046  136.0848  159.2300 N   0  0  0  0  0  0  0  0  0  0  0  0
  147.8584  134.7212  158.7281 C   0  0  0  0  0  0  0  0  0  0  0  0
  146.5484  133.9338  158.9035 C   0  0  0  0  0  0  0  0  0  0  0  0
  146.1375  133.9774  160.2658 O   0  0  0  0  0  0  0  0  0  0  0  0
  145.8828  135.3096  160.6985 C   0  0  0  0  0  0  0  0  0  0  0  0
  147.1700  136.1443  160.5896 C   0  0  0  0  0  0  0  0  0  0  0  0
  149.9360  136.8565  159.5044 N   0  0  0  0  0  0  0  0  0  0  0  0
  150.9359  137.7031  159.1803 C   0  0  0  0  0  0  0  0  0  0  0  0
  151.9719  145.3333  161.0773 H   0  0  0  0  0  0  0  0  0  0  0  0
  151.5063  143.6412  160.9406 H   0  0  0  0  0  0  0  0  0  0  0  0
  150.4211  144.9094  160.3705 H   0  0  0  0  0  0  0  0  0  0  0  0
  152.0698  145.5254  158.5803 H   0  0  0  0  0  0  0  0  0  0  0  0
  153.1973  144.3541  159.1982 H   0  0  0  0  0  0  0  0  0  0  0  0
  151.9118  143.6668  157.1068 H   0  0  0  0  0  0  0  0  0  0  0  0
  149.6004  142.7563  157.4358 H   0  0  0  0  0  0  0  0  0  0  0  0
  149.6765  144.4906  157.7061 H   0  0  0  0  0  0  0  0  0  0  0  0
  149.5890  143.3936  159.0794 H   0  0  0  0  0  0  0  0  0  0  0  0
  151.0189  141.2635  156.9418 H   0  0  0  0  0  0  0  0  0  0  0  0
  152.5078  139.2861  157.0265 H   0  0  0  0  0  0  0  0  0  0  0  0
  152.6874  139.5841  158.7387 H   0  0  0  0  0  0  0  0  0  0  0  0
  149.3903  139.6574  156.8588 H   0  0  0  0  0  0  0  0  0  0  0  0
  147.5458  138.1172  157.4472 H   0  0  0  0  0  0  0  0  0  0  0  0
  148.1404  134.7055  157.6765 H   0  0  0  0  0  0  0  0  0  0  0  0
  148.6634  134.2329  159.2792 H   0  0  0  0  0  0  0  0  0  0  0  0
  145.7633  134.3382  158.2622 H   0  0  0  0  0  0  0  0  0  0  0  0
  146.6943  132.8941  158.6098 H   0  0  0  0  0  0  0  0  0  0  0  0
  145.0811  135.7506  160.1036 H   0  0  0  0  0  0  0  0  0  0  0  0
  145.5365  135.2871  161.7318 H   0  0  0  0  0  0  0  0  0  0  0  0
  147.9184  135.7684  161.2886 H   0  0  0  0  0  0  0  0  0  0  0  0
  146.9535  137.1769  160.8662 H   0  0  0  0  0  0  0  0  0  0  0  0
  151.8704  137.5528  159.7006 H   0  0  0  0  0  0  0  0  0  0  0  0
  1  2  1  0  0  0  0
  1 21  1  0  0  0  0
  1 22  1  0  0  0  0
  1 23  1  0  0  0  0
  2  3  1  0  0  0  0
  2 24  1  0  0  0  0
  2 25  1  0  0  0  0
  3  4  1  0  0  0  0
  3  5  1  0  0  0  0
  3 26  1  0  0  0  0
  4 27  1  0  0  0  0
  4 28  1  0  0  0  0
  4 29  1  0  0  0  0
  5  6  2  0  0  0  0
  5  7  1  0  0  0  0
  7  8  1  0  0  0  0
  7 30  1  0  0  0  0
  8  9  1  0  0  0  0
  8 31  1  0  0  0  0
  8 32  1  0  0  0  0
  9 20  1  0  0  0  0
  9 10  2  0  0  0  0
 10 11  1  0  0  0  0
 10 33  1  0  0  0  0
 11 12  2  0  0  0  0
 11 34  1  0  0  0  0
 12 13  1  0  0  0  0
 12 19  1  0  0  0  0
 13 18  1  0  0  0  0
 13 14  1  0  0  0  0
 14 15  1  0  0  0  0
 14 35  1  0  0  0  0
 14 36  1  0  0  0  0
 15 16  1  0  0  0  0
 15 37  1  0  0  0  0
 15 38  1  0  0  0  0
 16 17  1  0  0  0  0
 17 18  1  0  0  0  0
 17 39  1  0  0  0  0
 17 40  1  0  0  0  0
 18 41  1  0  0  0  0
 18 42  1  0  0  0  0
 19 20  2  0  0  0  0
 20 43  1  0  0  0  0
M  END
> <s_m_source_file>
AV-unprocessed.smi

> <i_m_source_file_index>
431

> <i_lp_mmshare_version>
43012

> <i_f3d_flags>
0

> <s_epik_input>
W0NIM11bQ0gyXVtDQEhdKFtDSDNdKUMoPU8pW05IXVtDSDJdYzFbY0hdW2NIXWMobltjSF0xKU4yW0NIMl1bQ0gyXU9bQ0gyXVtDSDJdMg==

> <s_epik_cmdline>
J2VwaWtfcHl0aG9uJywgJy1waCcsICc3LjAnLCAnLXRuJywgJzgnLCAnLW1hJywgJzIwMCcsICctbWV0YWxfYmluZGluZycsICctaW1hZScsICc8aW5maWxlLm1hZT4nLCAnLW9tYWUnLCAnPG91dGZpbGUubWFlPic=

> <r_lp_tautomer_probability>
1

> <r_epik_Ionization_Penalty>
0.00513882

> <r_epik_Ionization_Penalty_Charging>
0

> <r_epik_Ionization_Penalty_Neutral>
0.00513882

> <r_epik_State_Penalty>
0.00374265

> <r_epik_Charging_Adjusted_Penalty>
0.00374265

> <i_epik_Tot_Q>
0

> <i_epik_Tot_abs_Q>
0

> <r_epik_Metal_State_Penalty>
-0

> <b_epik_Metal_Only>
0

> <s_lp_Force_Field>
OPLS_2005

> <r_lp_Energy>
15.574

> <b_lp_Chiralities_Consistent>
1

> <s_lp_Variant>
AV-unprocessed.smi:431-1

> <Gold.Version>
5.8.1

> <Gold.Id.Protein>
6NUR|6NUR_protein|mol2

> <Gold.PLP.Fitness>
35.8743

> <Gold.PLP.PLP>
-33.6041

> <Gold.PLP.part.hbond>
-1.1283

> <Gold.PLP.part.metal>
0.0000

> <Gold.PLP.part.buried>
-6.2506

> <Gold.PLP.part.nonpolar>
-27.5420

> <Gold.PLP.part.repulsive>
0.0681

> <Gold.PLP.ligand.clash>
0.0000

> <Gold.PLP.ligand.torsion>
0.5638

> <Gold.PLP.Chemscore.Hbond>
1.0000

> <Gold.PLP.Chemscore.CHOScore>
0.0000

> <Gold.PLP.Chemscore.Metal>
0.0000

> <Gold.Chemscore.Hbonds>
donor molecule, donor type, donor heavy atom, donor atom, acceptor molecule, acceptor atom, score
      P1  H  6896  6909       L1    19  0.68

> <Gold.PLP.Chemscore.Internal.Correction>
0.3977

> <Gold.Rescore>
     Score         DG    S(hbond)    S(metal)    S(lipo)     H(rot)  DE(clash)    DE(int)     intcor
     13.63     -14.27       0.83        0.00      87.28       1.64       0.06       0.59       ----

> <Gold.Chemscore.Fitness>
13.6299

> <Gold.Chemscore.DG>
-14.2741

> <Gold.Chemscore.ZeroCoef>
-5.4800

> <Gold.Chemscore.Hbond>
0.8329

> <Gold.Chemscore.Metal>
0.0000

> <Gold.Chemscore.Lipo>
87.2839

> <Gold.Chemscore.Internal_Hbond>
0.0000

> <Gold.Chemscore.DEClash>
0.0554

> <Gold.Chemscore.DEInternal>
0.5889

> <Gold.Chemscore.Rot>
1.6407

> <Gold.Chemscore.Internal.Correction>
   9.000000E+99

> <Gold.Chemscore.Hbonds>
donor molecule, donor type, donor heavy atom, donor atom, acceptor molecule, acceptor atom, score
      P1  H  6896  6909       L1    19  0.33

> <Gold.Chemscore.Hbond.Weighted>
-2.7820

> <Gold.Chemscore.Metal.Weighted>
-0.0000

> <Gold.Chemscore.Lipo.Weighted>
-10.2122

> <Gold.Chemscore.Internal_Hbond.Weighted>
0.0000

> <Gold.Chemscore.DEClash.Weighted>
0.0554

> <Gold.Chemscore.DEInternal.Weighted>
0.5889

> <Gold.Chemscore.Rot.Weighted>
4.2001

> <Gold.Chemscore.Internal.Correction.Weighted>
   9.000000E+99

> <Gold.Protein.RotatedTorsions>
[ 6907 6896 6895 6894 ] final   76.12 input  -60.11 | X-H torsion
[ 7974 7965 7964 7962 ] final -171.28 input  175.53 | X-H torsion
[ 8008 7997 7996 7995 ] final -123.10 input   59.86 | X-H torsion
[ 10167 10162 10161 10158 ] final  176.22 input  -65.29 | X-H torsion
[ 10718 10713 10712 10709 ] final -176.12 input   66.30 | X-H torsion
[ 10763 10752 10751 10750 ] final  165.05 input  -60.55 | X-H torsion
[ 11005 11000 10999 10996 ] final -152.96 input  -57.11 | X-H torsion

> <Gold.Protein.ActiveResidues>
 VAL166  LYS551  ARG553  GLY616  TRP617  ASP618  TYR619  PRO620  LYS621  CYS622 
 ASP623  PHE694  ASN695  SER759  ASP760  ASP761  ALA762  ILE779  LEU786  VAL792 
 PHE793  MET794  SER795  GLU796  ALA797  LYS798  CYS799  TRP800  GLU811  SER814 

> <Gold.Protein.RotatedAtoms>
  152.5058  134.4017  159.9418 H   0  0  0  0  0  0  0  0  0  0  0  0  # atno 6907 bound_to 6896
  151.3982  133.3760  159.2737 H   0  0  0  0  0  0  0  0  0  0  0  0  # atno 6908 bound_to 6896
  150.9382  134.8814  159.7654 H   0  0  0  0  0  0  0  0  0  0  0  0  # atno 6909 bound_to 6896
  144.7159  140.1946  143.6345 H   0  0  0  0  0  0  0  0  0  0  0  0  # atno 7974 bound_to 7965
  155.1751  140.0409  157.2871 H   0  0  0  0  0  0  0  0  0  0  0  0  # atno 8008 bound_to 7997
  154.6242  140.2508  155.7484 H   0  0  0  0  0  0  0  0  0  0  0  0  # atno 8009 bound_to 7997
  156.2450  140.2888  156.0564 H   0  0  0  0  0  0  0  0  0  0  0  0  # atno 8010 bound_to 7997
  139.5206  144.2941  152.0437 H   0  0  0  0  0  0  0  0  0  0  0  0  # atno 10167 bound_to 10162
  156.8099  130.9582  151.3116 H   0  0  0  0  0  0  0  0  0  0  0  0  # atno 10718 bound_to 10713
  154.3181  135.2756  155.2533 H   0  0  0  0  0  0  0  0  0  0  0  0  # atno 10763 bound_to 10752
  154.4898  135.5836  153.6454 H   0  0  0  0  0  0  0  0  0  0  0  0  # atno 10764 bound_to 10752
  152.9880  135.6132  154.3364 H   0  0  0  0  0  0  0  0  0  0  0  0  # atno 10765 bound_to 10752
  140.7133  134.3809  157.5194 H   0  0  0  0  0  0  0  0  0  0  0  0  # atno 11005 bound_to 11000
  145.8736  139.2285  143.1646 LP  0  0  0  0  0  0  0  0  0  0  0  0  # atno 17320 bound_to 7965
  146.0061  140.8477  142.9994 LP  0  0  0  0  0  0  0  0  0  0  0  0  # atno 17321 bound_to 7965
  140.2391  144.4288  150.6267 LP  0  0  0  0  0  0  0  0  0  0  0  0  # atno 17342 bound_to 10162
  140.6303  143.2186  151.6510 LP  0  0  0  0  0  0  0  0  0  0  0  0  # atno 17343 bound_to 10162
  157.6511  130.8885  149.9635 LP  0  0  0  0  0  0  0  0  0  0  0  0  # atno 17370 bound_to 10713
  156.1051  130.3653  150.0149 LP  0  0  0  0  0  0  0  0  0  0  0  0  # atno 17371 bound_to 10713
  139.8866  134.8905  156.2575 LP  0  0  0  0  0  0  0  0  0  0  0  0  # atno 17394 bound_to 11000
  141.0066  133.7120  156.1045 LP  0  0  0  0  0  0  0  0  0  0  0  0  # atno 17395 bound_to 11000

$$$$
