AV-unprocessed.smi:29|AV-procd|sdf|191|dock3
  -GOLD-   2262015453D 1   1.00000     0.00000
 Structure written by MMmdl.
 56 59  0  0  0  0  0  0  0  0  1 V2000
  151.0493  140.8700  155.7562 O   0  0  0  0  0  0  0  0  0  0  0  0
  151.7883  139.9186  156.0095 C   0  0  0  0  0  0  0  0  0  0  0  0
  151.9006  138.7462  155.0230 C   0  0  0  0  0  0  0  0  0  0  0  0
  150.6838  137.9073  154.9811 N   0  0  0  0  0  0  0  0  0  0  0  0
  150.7675  136.5529  155.3904 C   0  0  0  0  0  0  0  0  0  0  0  0
  151.8346  136.0621  155.7611 O   0  0  0  0  0  0  0  0  0  0  0  0
  149.5162  135.8043  155.3502 C   0  0  0  0  0  0  0  0  0  0  0  0
  149.4991  134.5157  155.7309 F   0  0  0  0  0  0  0  0  0  0  0  0
  148.3707  136.3873  154.9411 C   0  0  0  0  0  0  0  0  0  0  0  0
  148.3057  137.7084  154.5376 N   0  0  0  0  0  0  0  0  0  0  0  0
  147.0016  138.3352  154.0972 C   0  0  2  0  0  0  0  0  0  0  0  0
  145.8765  137.2947  154.1291 C   0  0  0  0  0  0  0  0  0  0  0  0
  145.8775  136.7924  152.7017 C   0  0  0  0  0  0  0  0  0  0  0  0
  146.2330  138.0590  151.9313 C   0  0  0  0  0  0  0  0  0  0  0  0
  147.1292  138.7771  152.7760 O   0  0  0  0  0  0  0  0  0  0  0  0
  149.4704  138.5052  154.5648 C   0  0  0  0  0  0  0  0  0  0  0  0
  149.4273  139.6949  154.2432 O   0  0  0  0  0  0  0  0  0  0  0  0
  152.5100  139.7855  157.1367 N   0  0  0  0  0  0  0  0  0  0  0  0
  152.6235  140.6624  158.2552 C   0  0  0  0  0  0  0  0  0  0  0  0
  152.1826  142.0086  158.2268 C   0  0  0  0  0  0  0  0  0  0  0  0
  152.3279  142.8435  159.3539 C   0  0  0  0  0  0  0  0  0  0  0  0
  151.8390  144.2827  159.2862 C   0  0  0  0  0  0  0  0  0  0  0  0
  152.0164  144.9247  160.4418 F   0  0  0  0  0  0  0  0  0  0  0  0
  152.5037  144.9388  158.3350 F   0  0  0  0  0  0  0  0  0  0  0  0
  150.5399  144.2943  158.9889 F   0  0  0  0  0  0  0  0  0  0  0  0
  152.9231  142.3291  160.5239 C   0  0  0  0  0  0  0  0  0  0  0  0
  153.3814  141.0000  160.5577 C   0  0  0  0  0  0  0  0  0  0  0  0
  153.2441  140.1623  159.4278 C   0  0  0  0  0  0  0  0  0  0  0  0
  153.7212  138.8410  159.4609 N   0  0  0  0  0  0  0  0  0  0  0  0
  154.8843  138.6125  158.6135 C   0  0  0  0  0  0  0  0  0  0  0  0
  155.2289  137.1134  158.5909 C   0  0  0  0  0  0  0  0  0  0  0  0
  155.4210  136.6473  159.9239 O   0  0  0  0  0  0  0  0  0  0  0  0
  154.2505  136.8065  160.7215 C   0  0  0  0  0  0  0  0  0  0  0  0
  153.8807  138.2978  160.8033 C   0  0  0  0  0  0  0  0  0  0  0  0
  152.1327  139.1275  154.0267 H   0  0  0  0  0  0  0  0  0  0  0  0
  152.7819  138.1623  155.2923 H   0  0  0  0  0  0  0  0  0  0  0  0
  147.4739  135.7861  154.9396 H   0  0  0  0  0  0  0  0  0  0  0  0
  146.8363  139.1896  154.7555 H   0  0  0  0  0  0  0  0  0  0  0  0
  146.0462  136.5175  154.8757 H   0  0  0  0  0  0  0  0  0  0  0  0
  144.9385  137.8037  154.3547 H   0  0  0  0  0  0  0  0  0  0  0  0
  146.6523  136.0365  152.5681 H   0  0  0  0  0  0  0  0  0  0  0  0
  144.9230  136.3619  152.3981 H   0  0  0  0  0  0  0  0  0  0  0  0
  146.6804  137.8489  150.9596 H   0  0  0  0  0  0  0  0  0  0  0  0
  145.3420  138.6676  151.7714 H   0  0  0  0  0  0  0  0  0  0  0  0
  153.0007  138.9085  157.2375 H   0  0  0  0  0  0  0  0  0  0  0  0
  151.7388  142.4356  157.3416 H   0  0  0  0  0  0  0  0  0  0  0  0
  153.0411  142.9488  161.4002 H   0  0  0  0  0  0  0  0  0  0  0  0
  153.8451  140.6277  161.4596 H   0  0  0  0  0  0  0  0  0  0  0  0
  154.6807  138.9652  157.6016 H   0  0  0  0  0  0  0  0  0  0  0  0
  155.7357  139.1810  158.9900 H   0  0  0  0  0  0  0  0  0  0  0  0
  154.4382  136.5400  158.1043 H   0  0  0  0  0  0  0  0  0  0  0  0
  156.1419  136.9456  158.0195 H   0  0  0  0  0  0  0  0  0  0  0  0
  153.4290  136.2248  160.2997 H   0  0  0  0  0  0  0  0  0  0  0  0
  154.4424  136.4108  161.7189 H   0  0  0  0  0  0  0  0  0  0  0  0
  154.6615  138.8432  161.3347 H   0  0  0  0  0  0  0  0  0  0  0  0
  152.9552  138.4244  161.3664 H   0  0  0  0  0  0  0  0  0  0  0  0
  1  2  2  0  0  0  0
  2  3  1  0  0  0  0
  2 18  1  0  0  0  0
  3  4  1  0  0  0  0
  3 35  1  0  0  0  0
  3 36  1  0  0  0  0
  4 16  1  0  0  0  0
  4  5  1  0  0  0  0
  5  6  2  0  0  0  0
  5  7  1  0  0  0  0
  7  8  1  0  0  0  0
  7  9  2  0  0  0  0
  9 10  1  0  0  0  0
  9 37  1  0  0  0  0
 10 11  1  0  0  0  0
 10 16  1  0  0  0  0
 11 15  1  0  0  0  0
 11 12  1  0  0  0  0
 11 38  1  0  0  0  0
 12 13  1  0  0  0  0
 12 39  1  0  0  0  0
 12 40  1  0  0  0  0
 13 14  1  0  0  0  0
 13 41  1  0  0  0  0
 13 42  1  0  0  0  0
 14 15  1  0  0  0  0
 14 43  1  0  0  0  0
 14 44  1  0  0  0  0
 16 17  2  0  0  0  0
 18 19  1  0  0  0  0
 18 45  1  0  0  0  0
 19 28  1  0  0  0  0
 19 20  2  0  0  0  0
 20 21  1  0  0  0  0
 20 46  1  0  0  0  0
 21 22  1  0  0  0  0
 21 26  2  0  0  0  0
 22 23  1  0  0  0  0
 22 24  1  0  0  0  0
 22 25  1  0  0  0  0
 26 27  1  0  0  0  0
 26 47  1  0  0  0  0
 27 28  2  0  0  0  0
 27 48  1  0  0  0  0
 28 29  1  0  0  0  0
 29 34  1  0  0  0  0
 29 30  1  0  0  0  0
 30 31  1  0  0  0  0
 30 49  1  0  0  0  0
 30 50  1  0  0  0  0
 31 32  1  0  0  0  0
 31 51  1  0  0  0  0
 31 52  1  0  0  0  0
 32 33  1  0  0  0  0
 33 34  1  0  0  0  0
 33 53  1  0  0  0  0
 33 54  1  0  0  0  0
 34 55  1  0  0  0  0
 34 56  1  0  0  0  0
M  END
> <s_m_source_file>
AV-unprocessed.smi

> <i_m_source_file_index>
29

> <i_lp_mmshare_version>
43012

> <i_f3d_flags>
0

> <s_epik_input>
TzFbQ0gyXVtDSDJdW0NIMl1bQ0BIXTFuKGMyPU8pW2NIXWMoRiljKD1PKW4yW0NIMl1DKD1PKVtOSF1jM1tjSF1jKEMoRikoRilGKVtjSF1bY0hdYzNONFtDSDJdW0NIMl1PW0NIMl1bQ0gyXTQ=

> <s_epik_cmdline>
J2VwaWtfcHl0aG9uJywgJy1waCcsICc3LjAnLCAnLXRuJywgJzgnLCAnLW1hJywgJzIwMCcsICctbWV0YWxfYmluZGluZycsICctaW1hZScsICc8aW5maWxlLm1hZT4nLCAnLW9tYWUnLCAnPG91dGZpbGUubWFlPic=

> <r_lp_tautomer_probability>
1

> <r_epik_Ionization_Penalty>
3.5967e-06

> <r_epik_Ionization_Penalty_Charging>
3.88729e-08

> <r_epik_Ionization_Penalty_Neutral>
3.55783e-06

> <r_epik_State_Penalty>
-0

> <r_epik_Charging_Adjusted_Penalty>
3.88729e-08

> <i_epik_Tot_Q>
0

> <i_epik_Tot_abs_Q>
0

> <r_epik_Metal_State_Penalty>
-0

> <b_epik_Metal_Only>
0

> <s_epik_Chemistry_Notes>
This compound contains an acetal/aminal-like group ( X-CH(R)-Y where X, Y are N, S, or O) that may be acid/base labile, releasing an aldehyde.

> <s_lp_Force_Field>
OPLS_2005

> <r_lp_Energy>
49.5757

> <b_lp_Chiralities_Consistent>
1

> <s_lp_Variant>
AV-unprocessed.smi:29-1

> <Gold.Version>
5.8.1

> <Gold.Id.Protein>
6NUR|6NUR_protein|mol2

> <Gold.PLP.Fitness>
57.2320

> <Gold.PLP.PLP>
-54.6017

> <Gold.PLP.part.hbond>
-1.6155

> <Gold.PLP.part.metal>
0.0000

> <Gold.PLP.part.buried>
-6.3980

> <Gold.PLP.part.nonpolar>
-48.1393

> <Gold.PLP.part.repulsive>
1.3663

> <Gold.PLP.ligand.clash>
0.0000

> <Gold.PLP.ligand.torsion>
0.5763

> <Gold.PLP.Chemscore.Hbond>
1.1564

> <Gold.PLP.Chemscore.CHOScore>
0.0000

> <Gold.PLP.Chemscore.Metal>
0.0000

> <Gold.Chemscore.Hbonds>
donor molecule, donor type, donor heavy atom, donor atom, acceptor molecule, acceptor atom, score
      P1  H  7989  7998       L1     1  0.13
      P1  H 10752 10765       L1     6  1.00

> <Gold.PLP.Chemscore.Internal.Correction>
0.3136

> <Gold.Rescore>
     Score         DG    S(hbond)    S(metal)    S(lipo)     H(rot)  DE(clash)    DE(int)     intcor
     11.53     -16.08       0.97        0.00     105.88       1.96       0.03       4.52       ----

> <Gold.Chemscore.Fitness>
11.5290

> <Gold.Chemscore.DG>
-16.0849

> <Gold.Chemscore.ZeroCoef>
-5.4800

> <Gold.Chemscore.Hbond>
0.9714

> <Gold.Chemscore.Metal>
0.0000

> <Gold.Chemscore.Lipo>
105.8845

> <Gold.Chemscore.Internal_Hbond>
0.0000

> <Gold.Chemscore.DEClash>
0.0334

> <Gold.Chemscore.DEInternal>
4.5226

> <Gold.Chemscore.Rot>
1.9641

> <Gold.Chemscore.Internal.Correction>
   9.000000E+99

> <Gold.Chemscore.Hbonds>
donor molecule, donor type, donor heavy atom, donor atom, acceptor molecule, acceptor atom, score
      P1  H  7989  7998       L1     1  0.01
      P1  H 10752 10765       L1     6  0.97

> <Gold.Chemscore.Hbond.Weighted>
-3.2444

> <Gold.Chemscore.Metal.Weighted>
-0.0000

> <Gold.Chemscore.Lipo.Weighted>
-12.3885

> <Gold.Chemscore.Internal_Hbond.Weighted>
0.0000

> <Gold.Chemscore.DEClash.Weighted>
0.0334

> <Gold.Chemscore.DEInternal.Weighted>
4.5226

> <Gold.Chemscore.Rot.Weighted>
5.0280

> <Gold.Chemscore.Internal.Correction.Weighted>
   9.000000E+99

> <Gold.Protein.RotatedTorsions>
[ 6907 6896 6895 6894 ] final    5.84 input  -60.11 | X-H torsion
[ 7974 7965 7964 7962 ] final -177.44 input  175.53 | X-H torsion
[ 8008 7997 7996 7995 ] final  -17.37 input   59.86 | X-H torsion
[ 10167 10162 10161 10158 ] final  150.67 input  -65.29 | X-H torsion
[ 10718 10713 10712 10709 ] final  177.21 input   66.30 | X-H torsion
[ 10763 10752 10751 10750 ] final -161.07 input  -60.55 | X-H torsion
[ 11005 11000 10999 10996 ] final -113.37 input  -57.11 | X-H torsion

> <Gold.Protein.ActiveResidues>
 VAL166  LYS551  ARG553  GLY616  TRP617  ASP618  TYR619  PRO620  LYS621  CYS622 
 ASP623  PHE694  ASN695  SER759  ASP760  ASP761  ALA762  ILE779  LEU786  VAL792 
 PHE793  MET794  SER795  GLU796  ALA797  LYS798  CYS799  TRP800  GLU811  SER814 

> <Gold.Protein.RotatedAtoms>
  151.6640  135.0985  160.0184 H   0  0  0  0  0  0  0  0  0  0  0  0  # atno 6907 bound_to 6896
  152.3930  133.6702  159.6262 H   0  0  0  0  0  0  0  0  0  0  0  0  # atno 6908 bound_to 6896
  150.7842  133.8838  159.3335 H   0  0  0  0  0  0  0  0  0  0  0  0  # atno 6909 bound_to 6896
  144.7128  140.1019  143.6416 H   0  0  0  0  0  0  0  0  0  0  0  0  # atno 7974 bound_to 7965
  154.4984  140.2144  155.9399 H   0  0  0  0  0  0  0  0  0  0  0  0  # atno 8008 bound_to 7997
  156.1401  140.3181  155.8449 H   0  0  0  0  0  0  0  0  0  0  0  0  # atno 8009 bound_to 7997
  155.4137  140.0492  157.3021 H   0  0  0  0  0  0  0  0  0  0  0  0  # atno 8010 bound_to 7997
  139.4848  144.5503  151.7412 H   0  0  0  0  0  0  0  0  0  0  0  0  # atno 10167 bound_to 10162
  156.9087  130.9902  151.3024 H   0  0  0  0  0  0  0  0  0  0  0  0  # atno 10718 bound_to 10713
  154.7335  135.3052  154.8850 H   0  0  0  0  0  0  0  0  0  0  0  0  # atno 10763 bound_to 10752
  153.9686  135.6744  153.4750 H   0  0  0  0  0  0  0  0  0  0  0  0  # atno 10764 bound_to 10752
  153.0941  135.4944  154.8667 H   0  0  0  0  0  0  0  0  0  0  0  0  # atno 10765 bound_to 10752
  141.0618  133.9523  157.2653 H   0  0  0  0  0  0  0  0  0  0  0  0  # atno 11005 bound_to 11000
  145.9530  139.2747  143.1201 LP  0  0  0  0  0  0  0  0  0  0  0  0  # atno 17320 bound_to 7965
  145.9303  140.9053  143.0360 LP  0  0  0  0  0  0  0  0  0  0  0  0  # atno 17321 bound_to 7965
  140.5056  144.1102  150.5982 LP  0  0  0  0  0  0  0  0  0  0  0  0  # atno 17342 bound_to 10162
  140.4011  143.2703  151.9947 LP  0  0  0  0  0  0  0  0  0  0  0  0  # atno 17343 bound_to 10162
  157.5981  130.8492  149.8760 LP  0  0  0  0  0  0  0  0  0  0  0  0  # atno 17370 bound_to 10713
  156.0546  130.3711  150.1120 LP  0  0  0  0  0  0  0  0  0  0  0  0  # atno 17371 bound_to 10713
  139.9440  135.0187  156.8794 LP  0  0  0  0  0  0  0  0  0  0  0  0  # atno 17394 bound_to 11000
  140.5853  134.0313  155.7479 LP  0  0  0  0  0  0  0  0  0  0  0  0  # atno 17395 bound_to 11000

$$$$
