AV-unprocessed.smi:3147|AV-procd|sdf|11988|dock1
  -GOLD-   2272017393D 1   1.00000     0.00000
 Structure written by MMmdl.
 37 38  0  0  0  0  0  0  0  0  2 V2000
  149.6550  136.2107  156.0687 C   0  0  0  0  0  0  0  0  0  0  0  0
  149.5742  137.6447  155.6643 C   0  0  0  0  0  0  0  0  0  0  0  0
  149.4773  138.0193  154.3500 N   0  3  0  0  0  0  0  0  0  0  0  0
  149.4164  139.3471  154.2432 C   0  0  0  0  0  0  0  0  0  0  0  0
  149.4752  139.8371  155.4862 N   0  0  0  0  0  0  0  0  0  0  0  0
  149.4209  141.2836  155.7503 C   0  0  0  0  0  0  0  0  0  0  0  0
  150.6395  141.7907  156.5308 C   0  0  0  0  0  0  0  0  0  0  0  0
  151.4075  141.0054  157.0887 O   0  0  0  0  0  0  0  0  0  0  0  0
  150.8023  143.1215  156.5610 N   0  0  0  0  0  0  0  0  0  0  0  0
  151.8788  143.8185  157.2561 C   0  0  0  0  0  0  0  0  0  0  0  0
  151.4655  144.2257  158.6805 C   0  0  1  0  0  0  0  0  0  0  0  0
  152.3991  143.6971  159.7664 C   0  0  0  0  0  0  0  0  0  0  0  0
  152.1218  144.6618  160.8967 C   0  0  0  0  0  0  0  0  0  0  0  0
  151.9328  145.9821  160.1529 C   0  0  0  0  0  0  0  0  0  0  0  0
  151.5081  145.6415  158.8346 O   0  0  0  0  0  0  0  0  0  0  0  0
  149.5717  138.8095  156.3984 C   0  0  0  0  0  0  0  0  0  0  0  0
  149.6481  139.0401  157.8735 C   0  0  0  0  0  0  0  0  0  0  0  0
  149.7128  136.1160  157.1527 H   0  0  0  0  0  0  0  0  0  0  0  0
  150.5404  135.7462  155.6342 H   0  0  0  0  0  0  0  0  0  0  0  0
  148.7725  135.6721  155.7223 H   0  0  0  0  0  0  0  0  0  0  0  0
  149.3316  139.9122  153.3322 H   0  0  0  0  0  0  0  0  0  0  0  0
  149.3469  141.8083  154.7973 H   0  0  0  0  0  0  0  0  0  0  0  0
  148.5072  141.4969  156.3075 H   0  0  0  0  0  0  0  0  0  0  0  0
  150.1268  143.6965  156.0783 H   0  0  0  0  0  0  0  0  0  0  0  0
  152.7679  143.1864  157.2869 H   0  0  0  0  0  0  0  0  0  0  0  0
  152.1476  144.7018  156.6760 H   0  0  0  0  0  0  0  0  0  0  0  0
  150.4493  143.8917  158.8966 H   0  0  0  0  0  0  0  0  0  0  0  0
  152.1992  142.6585  160.0312 H   0  0  0  0  0  0  0  0  0  0  0  0
  153.4411  143.7774  159.4533 H   0  0  0  0  0  0  0  0  0  0  0  0
  151.1988  144.3825  161.4063 H   0  0  0  0  0  0  0  0  0  0  0  0
  152.9219  144.6993  161.6364 H   0  0  0  0  0  0  0  0  0  0  0  0
  151.2087  146.6303  160.6475 H   0  0  0  0  0  0  0  0  0  0  0  0
  152.8775  146.5222  160.0833 H   0  0  0  0  0  0  0  0  0  0  0  0
  149.5409  138.1025  158.4177 H   0  0  0  0  0  0  0  0  0  0  0  0
  148.8524  139.7124  158.1953 H   0  0  0  0  0  0  0  0  0  0  0  0
  150.6085  139.4840  158.1355 H   0  0  0  0  0  0  0  0  0  0  0  0
  149.4511  137.3796  153.5658 H   0  0  0  0  0  0  0  0  0  0  0  0
  1  2  1  0  0  0  0
  1 18  1  0  0  0  0
  1 19  1  0  0  0  0
  1 20  1  0  0  0  0
  2 16  2  0  0  0  0
  2  3  1  0  0  0  0
  3  4  2  0  0  0  0
  3 37  1  0  0  0  0
  4  5  1  0  0  0  0
  4 21  1  0  0  0  0
  5  6  1  0  0  0  0
  5 16  1  0  0  0  0
  6  7  1  0  0  0  0
  6 22  1  0  0  0  0
  6 23  1  0  0  0  0
  7  8  2  0  0  0  0
  7  9  1  0  0  0  0
  9 10  1  0  0  0  0
  9 24  1  0  0  0  0
 10 11  1  0  0  0  0
 10 25  1  0  0  0  0
 10 26  1  0  0  0  0
 11 15  1  0  0  0  0
 11 12  1  0  0  0  0
 11 27  1  0  0  0  0
 12 13  1  0  0  0  0
 12 28  1  0  0  0  0
 12 29  1  0  0  0  0
 13 14  1  0  0  0  0
 13 30  1  0  0  0  0
 13 31  1  0  0  0  0
 14 15  1  0  0  0  0
 14 32  1  0  0  0  0
 14 33  1  0  0  0  0
 16 17  1  0  0  0  0
 17 34  1  0  0  0  0
 17 35  1  0  0  0  0
 17 36  1  0  0  0  0
M  CHG  1   3   1
M  END
> <s_m_source_file>
AV-unprocessed.smi

> <i_m_source_file_index>
3147

> <i_lp_mmshare_version>
43012

> <i_f3d_flags>
0

> <s_epik_input>
W0NIM11jMW5bY0hdbihjMVtDSDNdKVtDSDJdQyg9TylbTkhdW0NIMl1bQ0BASF0yW0NIMl1bQ0gyXVtDSDJdTzI=

> <s_epik_cmdline>
J2VwaWtfcHl0aG9uJywgJy1waCcsICc3LjAnLCAnLXRuJywgJzgnLCAnLW1hJywgJzIwMCcsICctbWV0YWxfYmluZGluZycsICctaW1hZScsICc8aW5maWxlLm1hZT4nLCAnLW9tYWUnLCAnPG91dGZpbGUubWFlPic=

> <r_lp_tautomer_probability>
1

> <r_epik_Ionization_Penalty>
0.131257

> <r_epik_Ionization_Penalty_Charging>
0

> <r_epik_Ionization_Penalty_Neutral>
0.131257

> <r_epik_State_Penalty>
0.12065

> <r_epik_Charging_Adjusted_Penalty>
0.12065

> <i_epik_Tot_Q>
1

> <i_epik_Tot_abs_Q>
1

> <r_epik_Metal_State_Penalty>
0.448684

> <b_epik_Metal_Only>
0

> <s_lp_Force_Field>
OPLS_2005

> <r_lp_Energy>
19.5729

> <b_lp_Chiralities_Consistent>
1

> <s_lp_Variant>
AV-unprocessed.smi:3147-2

> <Gold.Version>
5.8.1

> <Gold.Id.Protein>
6NUR|6NUR_protein|mol2

> <Gold.PLP.Fitness>
42.1916

> <Gold.PLP.PLP>
-32.3766

> <Gold.PLP.part.hbond>
-3.0000

> <Gold.PLP.part.metal>
0.0000

> <Gold.PLP.part.buried>
-3.5120

> <Gold.PLP.part.nonpolar>
-26.1992

> <Gold.PLP.part.repulsive>
0.2576

> <Gold.PLP.ligand.clash>
0.0000

> <Gold.PLP.ligand.torsion>
1.0953

> <Gold.PLP.Chemscore.Hbond>
3.0000

> <Gold.PLP.Chemscore.CHOScore>
0.9983

> <Gold.PLP.Chemscore.Metal>
0.0000

> <Gold.Chemscore.Hbonds>
donor molecule, donor type, donor heavy atom, donor atom, acceptor molecule, acceptor atom, score
      L1  H     3    37       P1  7948  1.72
      L1  H     9    24       P1  8028  1.00
      L1  C     4    21       P1  7957  1.00

> <Gold.PLP.Chemscore.Internal.Correction>
0.0109

> <Gold.Rescore>
     Score         DG    S(hbond)    S(metal)    S(lipo)     H(rot)  DE(clash)    DE(int)     intcor
     13.00     -16.34       1.94        0.00      75.86       1.76       0.08       3.26       ----

> <Gold.Chemscore.Fitness>
13.0036

> <Gold.Chemscore.DG>
-16.3409

> <Gold.Chemscore.ZeroCoef>
-5.4800

> <Gold.Chemscore.Hbond>
1.9416

> <Gold.Chemscore.Metal>
0.0000

> <Gold.Chemscore.Lipo>
75.8618

> <Gold.Chemscore.Internal_Hbond>
0.0000

> <Gold.Chemscore.DEClash>
0.0822

> <Gold.Chemscore.DEInternal>
3.2550

> <Gold.Chemscore.Rot>
1.7577

> <Gold.Chemscore.Internal.Correction>
   9.000000E+99

> <Gold.Chemscore.Hbonds>
donor molecule, donor type, donor heavy atom, donor atom, acceptor molecule, acceptor atom, score
      L1  H     3    37       P1  7948  0.79
      L1  H     9    24       P1  8028  1.00

> <Gold.Chemscore.Hbond.Weighted>
-6.4848

> <Gold.Chemscore.Metal.Weighted>
-0.0000

> <Gold.Chemscore.Lipo.Weighted>
-8.8758

> <Gold.Chemscore.Internal_Hbond.Weighted>
0.0000

> <Gold.Chemscore.DEClash.Weighted>
0.0822

> <Gold.Chemscore.DEInternal.Weighted>
3.2550

> <Gold.Chemscore.Rot.Weighted>
4.4998

> <Gold.Chemscore.Internal.Correction.Weighted>
   9.000000E+99

> <Gold.Protein.RotatedTorsions>
[ 6907 6896 6895 6894 ] final   97.90 input  -60.11 | X-H torsion
[ 7974 7965 7964 7962 ] final  112.31 input  175.53 | X-H torsion
[ 8008 7997 7996 7995 ] final  161.11 input   59.86 | X-H torsion
[ 10167 10162 10161 10158 ] final  152.88 input  -65.29 | X-H torsion
[ 10718 10713 10712 10709 ] final  -74.82 input   66.30 | X-H torsion
[ 10763 10752 10751 10750 ] final   61.79 input  -60.55 | X-H torsion
[ 11005 11000 10999 10996 ] final  -23.02 input  -57.11 | X-H torsion

> <Gold.Protein.ActiveResidues>
 VAL166  LYS551  ARG553  GLY616  TRP617  ASP618  TYR619  PRO620  LYS621  CYS622 
 ASP623  PHE694  ASN695  SER759  ASP760  ASP761  ALA762  ILE779  LEU786  VAL792 
 PHE793  MET794  SER795  GLU796  ALA797  LYS798  CYS799  TRP800  GLU811  SER814 

> <Gold.Protein.RotatedAtoms>
  152.5417  134.0662  159.8173 H   0  0  0  0  0  0  0  0  0  0  0  0  # atno 6907 bound_to 6896
  151.0783  133.5403  159.2629 H   0  0  0  0  0  0  0  0  0  0  0  0  # atno 6908 bound_to 6896
  151.2240  135.0538  159.9015 H   0  0  0  0  0  0  0  0  0  0  0  0  # atno 6909 bound_to 6896
  145.2311  139.2819  143.4167 H   0  0  0  0  0  0  0  0  0  0  0  0  # atno 7974 bound_to 7965
  156.2126  140.1786  156.7661 H   0  0  0  0  0  0  0  0  0  0  0  0  # atno 8008 bound_to 7997
  154.5745  140.0677  156.9042 H   0  0  0  0  0  0  0  0  0  0  0  0  # atno 8009 bound_to 7997
  155.2613  140.3336  155.4275 H   0  0  0  0  0  0  0  0  0  0  0  0  # atno 8010 bound_to 7997
  139.4830  144.5320  151.7707 H   0  0  0  0  0  0  0  0  0  0  0  0  # atno 10167 bound_to 10162
  156.0229  130.4426  150.2950 H   0  0  0  0  0  0  0  0  0  0  0  0  # atno 10718 bound_to 10713
  152.9962  135.5488  154.6091 H   0  0  0  0  0  0  0  0  0  0  0  0  # atno 10763 bound_to 10752
  154.5415  135.2820  155.1093 H   0  0  0  0  0  0  0  0  0  0  0  0  # atno 10764 bound_to 10752
  154.2368  135.6423  153.5246 H   0  0  0  0  0  0  0  0  0  0  0  0  # atno 10765 bound_to 10752
  140.8712  133.7719  156.0189 H   0  0  0  0  0  0  0  0  0  0  0  0  # atno 11005 bound_to 11000
  146.3352  140.2647  142.8603 LP  0  0  0  0  0  0  0  0  0  0  0  0  # atno 17320 bound_to 7965
  144.9675  140.8336  143.5475 LP  0  0  0  0  0  0  0  0  0  0  0  0  # atno 17321 bound_to 7965
  140.4848  144.1397  150.5939 LP  0  0  0  0  0  0  0  0  0  0  0  0  # atno 17342 bound_to 10162
  140.4238  143.2599  151.9682 LP  0  0  0  0  0  0  0  0  0  0  0  0  # atno 17343 bound_to 10162
  157.1053  131.0207  151.3069 LP  0  0  0  0  0  0  0  0  0  0  0  0  # atno 17370 bound_to 10713
  157.4747  130.7729  149.7357 LP  0  0  0  0  0  0  0  0  0  0  0  0  # atno 17371 bound_to 10713
  140.8571  134.2885  157.5250 LP  0  0  0  0  0  0  0  0  0  0  0  0  # atno 17394 bound_to 11000
  139.8712  134.9498  156.4038 LP  0  0  0  0  0  0  0  0  0  0  0  0  # atno 17395 bound_to 11000

$$$$
