AV-unprocessed.smi:3183|AV-procd|sdf|12154|dock1
  -GOLD-   2272017593D 1   1.00000     0.00000
 Structure written by MMmdl.
 43 44  0  0  0  0  0  0  0  0  2 V2000
  149.1284  138.0678  156.2905 C   0  0  0  0  0  0  0  0  0  0  0  0
  149.6010  138.8086  155.0232 C   0  0  1  0  0  0  0  0  0  0  0  0
  148.6925  140.0121  154.6953 C   0  0  0  0  0  0  0  0  0  0  0  0
  148.9074  141.1886  155.6628 C   0  0  0  0  0  0  0  0  0  0  0  0
  150.3822  141.6248  155.6916 C   0  0  1  0  0  0  0  0  0  0  0  0
  150.5746  142.7232  156.6629 N   0  3  0  0  0  0  0  0  0  0  0  0
  150.6433  142.2931  158.0739 C   0  0  0  0  0  0  0  0  0  0  0  0
  151.9065  142.8353  158.7581 C   0  0  0  0  0  0  0  0  0  0  0  0
  151.8475  142.8279  160.2561 C   0  0  0  0  0  0  0  0  0  0  0  0
  152.1384  141.8417  161.1595 C   0  0  0  0  0  0  0  0  0  0  0  0
  151.8878  142.4403  162.4244 C   0  0  0  0  0  0  0  0  0  0  0  0
  151.4761  143.6909  162.3192 N   0  0  0  0  0  0  0  0  0  0  0  0
  151.4499  143.9321  160.9918 N   0  0  0  0  0  0  0  0  0  0  0  0
  151.0310  145.2449  160.5379 C   0  0  0  0  0  0  0  0  0  0  0  0
  151.2974  140.4361  156.0379 C   0  0  0  0  0  0  0  0  0  0  0  0
  151.0852  139.2566  155.0662 C   0  0  1  0  0  0  0  0  0  0  0  0
  152.0612  138.1020  155.3461 C   0  0  0  0  0  0  0  0  0  0  0  0
  149.2570  138.6670  157.1912 H   0  0  0  0  0  0  0  0  0  0  0  0
  149.6723  137.1341  156.4334 H   0  0  0  0  0  0  0  0  0  0  0  0
  148.0719  137.8090  156.2175 H   0  0  0  0  0  0  0  0  0  0  0  0
  149.4967  138.1005  154.1996 H   0  0  0  0  0  0  0  0  0  0  0  0
  148.8987  140.3486  153.6781 H   0  0  0  0  0  0  0  0  0  0  0  0
  147.6448  139.7092  154.7036 H   0  0  0  0  0  0  0  0  0  0  0  0
  148.2782  142.0265  155.3604 H   0  0  0  0  0  0  0  0  0  0  0  0
  148.5806  140.9079  156.6649 H   0  0  0  0  0  0  0  0  0  0  0  0
  150.6495  141.9758  154.6931 H   0  0  0  0  0  0  0  0  0  0  0  0
  151.4323  143.2041  156.4322 H   0  0  0  0  0  0  0  0  0  0  0  0
  149.7536  142.6474  158.5968 H   0  0  0  0  0  0  0  0  0  0  0  0
  150.6347  141.2027  158.1133 H   0  0  0  0  0  0  0  0  0  0  0  0
  152.7668  142.2473  158.4352 H   0  0  0  0  0  0  0  0  0  0  0  0
  152.0864  143.8556  158.4165 H   0  0  0  0  0  0  0  0  0  0  0  0
  152.4805  140.8385  160.9528 H   0  0  0  0  0  0  0  0  0  0  0  0
  151.9921  142.0070  163.4084 H   0  0  0  0  0  0  0  0  0  0  0  0
  151.0520  145.3083  159.4505 H   0  0  0  0  0  0  0  0  0  0  0  0
  151.6987  146.0044  160.9455 H   0  0  0  0  0  0  0  0  0  0  0  0
  150.0153  145.4446  160.8803 H   0  0  0  0  0  0  0  0  0  0  0  0
  152.3392  140.7576  155.9985 H   0  0  0  0  0  0  0  0  0  0  0  0
  151.1182  140.1121  157.0639 H   0  0  0  0  0  0  0  0  0  0  0  0
  151.3293  139.6229  154.0675 H   0  0  0  0  0  0  0  0  0  0  0  0
  151.9582  137.7216  156.3624 H   0  0  0  0  0  0  0  0  0  0  0  0
  153.0945  138.4276  155.2242 H   0  0  0  0  0  0  0  0  0  0  0  0
  151.8962  137.2722  154.6583 H   0  0  0  0  0  0  0  0  0  0  0  0
  149.8075  143.3727  156.5631 H   0  0  0  0  0  0  0  0  0  0  0  0
  1  2  1  0  0  0  0
  1 18  1  0  0  0  0
  1 19  1  0  0  0  0
  1 20  1  0  0  0  0
  2 16  1  0  0  0  0
  2  3  1  0  0  0  0
  2 21  1  0  0  0  0
  3  4  1  0  0  0  0
  3 22  1  0  0  0  0
  3 23  1  0  0  0  0
  4  5  1  0  0  0  0
  4 24  1  0  0  0  0
  4 25  1  0  0  0  0
  5  6  1  0  0  0  0
  5 15  1  0  0  0  0
  5 26  1  0  0  0  0
  6  7  1  0  0  0  0
  6 27  1  0  0  0  0
  6 43  1  0  0  0  0
  7  8  1  0  0  0  0
  7 28  1  0  0  0  0
  7 29  1  0  0  0  0
  8  9  1  0  0  0  0
  8 30  1  0  0  0  0
  8 31  1  0  0  0  0
  9 13  1  0  0  0  0
  9 10  2  0  0  0  0
 10 11  1  0  0  0  0
 10 32  1  0  0  0  0
 11 12  2  0  0  0  0
 11 33  1  0  0  0  0
 12 13  1  0  0  0  0
 13 14  1  0  0  0  0
 14 34  1  0  0  0  0
 14 35  1  0  0  0  0
 14 36  1  0  0  0  0
 15 16  1  0  0  0  0
 15 37  1  0  0  0  0
 15 38  1  0  0  0  0
 16 17  1  0  0  0  0
 16 39  1  0  0  0  0
 17 40  1  0  0  0  0
 17 41  1  0  0  0  0
 17 42  1  0  0  0  0
M  CHG  1   6   1
M  END
> <s_m_source_file>
AV-unprocessed.smi

> <i_m_source_file_index>
3183

> <i_lp_mmshare_version>
43012

> <i_f3d_flags>
0

> <s_epik_input>
W0NIM11bQ0BASF0xW0NIMl1bQ0gyXVtDQEhdKFtDSDJdW0NASF0xW0NIM10pW05IXVtDSDJdW0NIMl1jMltjSF1bY0hdbm4yW0NIM10=

> <s_epik_cmdline>
J2VwaWtfcHl0aG9uJywgJy1waCcsICc3LjAnLCAnLXRuJywgJzgnLCAnLW1hJywgJzIwMCcsICctbWV0YWxfYmluZGluZycsICctaW1hZScsICc8aW5maWxlLm1hZT4nLCAnLW9tYWUnLCAnPG91dGZpbGUubWFlPic=

> <r_lp_tautomer_probability>
1

> <r_epik_Ionization_Penalty>
0.000327718

> <r_epik_Ionization_Penalty_Charging>
0.000294043

> <r_epik_Ionization_Penalty_Neutral>
3.36755e-05

> <r_epik_State_Penalty>
-0

> <r_epik_Charging_Adjusted_Penalty>
0.000294043

> <i_epik_Tot_Q>
1

> <i_epik_Tot_abs_Q>
1

> <r_epik_Metal_State_Penalty>
-0

> <b_epik_Metal_Only>
0

> <s_lp_Force_Field>
OPLS_2005

> <r_lp_Energy>
15.8905

> <b_lp_Chiralities_Consistent>
1

> <s_lp_Variant>
AV-unprocessed.smi:3183-2

> <Gold.Version>
5.8.1

> <Gold.Id.Protein>
6NUR|6NUR_protein|mol2

> <Gold.PLP.Fitness>
46.7728

> <Gold.PLP.PLP>
-42.6325

> <Gold.PLP.part.hbond>
-1.0000

> <Gold.PLP.part.metal>
0.0000

> <Gold.PLP.part.buried>
-4.7915

> <Gold.PLP.part.nonpolar>
-36.3309

> <Gold.PLP.part.repulsive>
0.2567

> <Gold.PLP.ligand.clash>
0.0000

> <Gold.PLP.ligand.torsion>
0.9432

> <Gold.PLP.Chemscore.Hbond>
2.0000

> <Gold.PLP.Chemscore.CHOScore>
0.0000

> <Gold.PLP.Chemscore.Metal>
0.0000

> <Gold.Chemscore.Hbonds>
donor molecule, donor type, donor heavy atom, donor atom, acceptor molecule, acceptor atom, score
      L1  H     6    43       P1  8028  2.00

> <Gold.PLP.Chemscore.Internal.Correction>
0.0266

> <Gold.Rescore>
     Score         DG    S(hbond)    S(metal)    S(lipo)     H(rot)  DE(clash)    DE(int)     intcor
     17.32     -17.92       1.00        0.00     107.96       1.38       0.13       0.48       ----

> <Gold.Chemscore.Fitness>
17.3167

> <Gold.Chemscore.DG>
-17.9203

> <Gold.Chemscore.ZeroCoef>
-5.4800

> <Gold.Chemscore.Hbond>
0.9983

> <Gold.Chemscore.Metal>
0.0000

> <Gold.Chemscore.Lipo>
107.9552

> <Gold.Chemscore.Internal_Hbond>
0.0000

> <Gold.Chemscore.DEClash>
0.1266

> <Gold.Chemscore.DEInternal>
0.4770

> <Gold.Chemscore.Rot>
1.3768

> <Gold.Chemscore.Internal.Correction>
   9.000000E+99

> <Gold.Chemscore.Hbonds>
donor molecule, donor type, donor heavy atom, donor atom, acceptor molecule, acceptor atom, score
      L1  H     6    43       P1  8028  0.97

> <Gold.Chemscore.Hbond.Weighted>
-3.3342

> <Gold.Chemscore.Metal.Weighted>
-0.0000

> <Gold.Chemscore.Lipo.Weighted>
-12.6308

> <Gold.Chemscore.Internal_Hbond.Weighted>
0.0000

> <Gold.Chemscore.DEClash.Weighted>
0.1266

> <Gold.Chemscore.DEInternal.Weighted>
0.4770

> <Gold.Chemscore.Rot.Weighted>
3.5247

> <Gold.Chemscore.Internal.Correction.Weighted>
   9.000000E+99

> <Gold.Protein.RotatedTorsions>
[ 6907 6896 6895 6894 ] final -131.67 input  -60.11 | X-H torsion
[ 7974 7965 7964 7962 ] final  177.84 input  175.53 | X-H torsion
[ 8008 7997 7996 7995 ] final -105.59 input   59.86 | X-H torsion
[ 10167 10162 10161 10158 ] final  169.75 input  -65.29 | X-H torsion
[ 10718 10713 10712 10709 ] final  -14.53 input   66.30 | X-H torsion
[ 10763 10752 10751 10750 ] final  101.33 input  -60.55 | X-H torsion
[ 11005 11000 10999 10996 ] final -156.40 input  -57.11 | X-H torsion

> <Gold.Protein.ActiveResidues>
 VAL166  LYS551  ARG553  GLY616  TRP617  ASP618  TYR619  PRO620  LYS621  CYS622 
 ASP623  PHE694  ASN695  SER759  ASP760  ASP761  ALA762  ILE779  LEU786  VAL792 
 PHE793  MET794  SER795  GLU796  ALA797  LYS798  CYS799  TRP800  GLU811  SER814 

> <Gold.Protein.RotatedAtoms>
  150.9536  133.6521  159.2767 H   0  0  0  0  0  0  0  0  0  0  0  0  # atno 6907 bound_to 6896
  151.3869  135.0948  159.9523 H   0  0  0  0  0  0  0  0  0  0  0  0  # atno 6908 bound_to 6896
  152.5120  133.9059  159.7519 H   0  0  0  0  0  0  0  0  0  0  0  0  # atno 6909 bound_to 6896
  144.7163  140.0307  143.6439 H   0  0  0  0  0  0  0  0  0  0  0  0  # atno 7974 bound_to 7965
  154.9020  140.0412  157.1898 H   0  0  0  0  0  0  0  0  0  0  0  0  # atno 8008 bound_to 7997
  154.8434  140.2918  155.5623 H   0  0  0  0  0  0  0  0  0  0  0  0  # atno 8009 bound_to 7997
  156.2993  140.2478  156.3380 H   0  0  0  0  0  0  0  0  0  0  0  0  # atno 8010 bound_to 7997
  139.5000  144.3671  151.9763 H   0  0  0  0  0  0  0  0  0  0  0  0  # atno 10167 bound_to 10162
  156.6146  130.4859  149.6188 H   0  0  0  0  0  0  0  0  0  0  0  0  # atno 10718 bound_to 10713
  153.3252  135.4048  155.1450 H   0  0  0  0  0  0  0  0  0  0  0  0  # atno 10763 bound_to 10752
  154.8610  135.3597  154.5543 H   0  0  0  0  0  0  0  0  0  0  0  0  # atno 10764 bound_to 10752
  153.5978  135.7072  153.5456 H   0  0  0  0  0  0  0  0  0  0  0  0  # atno 10765 bound_to 10752
  140.6760  134.4196  157.5229 H   0  0  0  0  0  0  0  0  0  0  0  0  # atno 11005 bound_to 11000
  146.0104  139.3165  143.0873 LP  0  0  0  0  0  0  0  0  0  0  0  0  # atno 17320 bound_to 7965
  145.8688  140.9432  143.0661 LP  0  0  0  0  0  0  0  0  0  0  0  0  # atno 17321 bound_to 7965
  140.3107  144.3541  150.6034 LP  0  0  0  0  0  0  0  0  0  0  0  0  # atno 17342 bound_to 10162
  140.5801  143.2173  151.7445 LP  0  0  0  0  0  0  0  0  0  0  0  0  # atno 17343 bound_to 10162
  156.2361  130.6823  151.1511 LP  0  0  0  0  0  0  0  0  0  0  0  0  # atno 17370 bound_to 10713
  157.7245  131.0659  150.5994 LP  0  0  0  0  0  0  0  0  0  0  0  0  # atno 17371 bound_to 10713
  139.8966  134.8655  156.2079 LP  0  0  0  0  0  0  0  0  0  0  0  0  # atno 17394 bound_to 11000
  141.0355  133.6966  156.1504 LP  0  0  0  0  0  0  0  0  0  0  0  0  # atno 17395 bound_to 11000

$$$$
