AV-unprocessed.smi:2889|AV-procd|sdf|11113|dock1
  -GOLD-   2272015583D 1   1.00000     0.00000
 Structure written by MMmdl.
 35 36  0  0  0  0  0  0  0  0  2 V2000
  149.7741  144.4069  159.5866 C   0  0  0  0  0  0  0  0  0  0  0  0
  151.3989  144.8877  158.9344 S   0  0  0  0  0  0  0  0  0  0  0  0
  152.5201  143.7532  159.8253 C   0  0  1  0  0  0  0  0  0  0  0  0
  152.2036  143.7665  161.3458 C   0  0  0  0  0  0  0  0  0  0  0  0
  153.1654  142.8830  162.1676 C   0  0  0  0  0  0  0  0  0  0  0  0
  153.1767  141.4519  161.5931 C   0  0  0  0  0  0  0  0  0  0  0  0
  153.4861  141.4182  160.0737 C   0  0  0  0  0  0  0  0  0  0  0  0
  152.5595  142.3175  159.2170 C   0  0  1  0  0  0  0  0  0  0  0  0
  151.2227  141.7385  159.1587 N   0  5  0  0  0  0  0  0  0  0  0  0
  150.9562  140.4174  158.2571 S   0  0  0  0  0  0  0  0  0  0  0  0
  151.7222  139.2462  158.7161 O   0  0  0  0  0  0  0  0  0  0  0  0
  149.5232  140.2186  157.9865 O   0  0  0  0  0  0  0  0  0  0  0  0
  151.7090  140.9387  156.6532 C   0  0  0  0  0  0  0  0  0  0  0  0
  151.8779  139.7538  155.7410 C   0  0  0  0  0  0  0  0  0  0  0  0
  150.8906  139.0925  154.9582 C   0  0  0  0  0  0  0  0  0  0  0  0
  151.5901  138.1048  154.3283 C   0  0  0  0  0  0  0  0  0  0  0  0
  152.8952  138.1369  154.6982 O   0  0  0  0  0  0  0  0  0  0  0  0
  153.0686  139.1900  155.6035 N   0  0  0  0  0  0  0  0  0  0  0  0
  148.9892  144.9601  159.0717 H   0  0  0  0  0  0  0  0  0  0  0  0
  149.7005  144.6267  160.6514 H   0  0  0  0  0  0  0  0  0  0  0  0
  149.6012  143.3414  159.4362 H   0  0  0  0  0  0  0  0  0  0  0  0
  153.5187  144.1782  159.7167 H   0  0  0  0  0  0  0  0  0  0  0  0
  152.2591  144.7899  161.7181 H   0  0  0  0  0  0  0  0  0  0  0  0
  151.1748  143.4449  161.5219 H   0  0  0  0  0  0  0  0  0  0  0  0
  154.1716  143.3020  162.1301 H   0  0  0  0  0  0  0  0  0  0  0  0
  152.8680  142.8697  163.2164 H   0  0  0  0  0  0  0  0  0  0  0  0
  153.9172  140.8546  162.1258 H   0  0  0  0  0  0  0  0  0  0  0  0
  152.2147  140.9748  161.7911 H   0  0  0  0  0  0  0  0  0  0  0  0
  154.5157  141.7468  159.9273 H   0  0  0  0  0  0  0  0  0  0  0  0
  153.4510  140.3900  159.7109 H   0  0  0  0  0  0  0  0  0  0  0  0
  152.9994  142.3884  158.2216 H   0  0  0  0  0  0  0  0  0  0  0  0
  151.0468  141.6799  156.2054 H   0  0  0  0  0  0  0  0  0  0  0  0
  152.6601  141.4301  156.8559 H   0  0  0  0  0  0  0  0  0  0  0  0
  149.8392  139.3202  154.8635 H   0  0  0  0  0  0  0  0  0  0  0  0
  151.3149  137.3347  153.6230 H   0  0  0  0  0  0  0  0  0  0  0  0
  1  2  1  0  0  0  0
  1 19  1  0  0  0  0
  1 20  1  0  0  0  0
  1 21  1  0  0  0  0
  2  3  1  0  0  0  0
  3  8  1  0  0  0  0
  3  4  1  0  0  0  0
  3 22  1  0  0  0  0
  4  5  1  0  0  0  0
  4 23  1  0  0  0  0
  4 24  1  0  0  0  0
  5  6  1  0  0  0  0
  5 25  1  0  0  0  0
  5 26  1  0  0  0  0
  6  7  1  0  0  0  0
  6 27  1  0  0  0  0
  6 28  1  0  0  0  0
  7  8  1  0  0  0  0
  7 29  1  0  0  0  0
  7 30  1  0  0  0  0
  8  9  1  0  0  0  0
  8 31  1  0  0  0  0
  9 10  1  0  0  0  0
 10 11  2  0  0  0  0
 10 12  2  0  0  0  0
 10 13  1  0  0  0  0
 13 14  1  0  0  0  0
 13 32  1  0  0  0  0
 13 33  1  0  0  0  0
 14 18  2  0  0  0  0
 14 15  1  0  0  0  0
 15 16  2  0  0  0  0
 15 34  1  0  0  0  0
 16 17  1  0  0  0  0
 16 35  1  0  0  0  0
 17 18  1  0  0  0  0
M  CHG  1   9  -1
M  END
> <s_m_source_file>
AV-unprocessed.smi

> <i_m_source_file_index>
2889

> <i_lp_mmshare_version>
43012

> <i_f3d_flags>
0

> <s_epik_input>
W0NIM11TW0NAQEhdMVtDSDJdW0NIMl1bQ0gyXVtDSDJdW0NASF0xW05IXVMoPU8pKD1PKVtDSDJdYzJbY0hdW2NIXW9uMg==

> <s_epik_cmdline>
J2VwaWtfcHl0aG9uJywgJy1waCcsICc3LjAnLCAnLXRuJywgJzgnLCAnLW1hJywgJzIwMCcsICctbWV0YWxfYmluZGluZycsICctaW1hZScsICc8aW5maWxlLm1hZT4nLCAnLW9tYWUnLCAnPG91dGZpbGUubWFlPic=

> <r_lp_tautomer_probability>
1

> <r_epik_Ionization_Penalty>
4.65467

> <r_epik_Ionization_Penalty_Charging>
4.65467

> <r_epik_Ionization_Penalty_Neutral>
2.71476e-10

> <r_epik_State_Penalty>
4.65444

> <r_epik_Charging_Adjusted_Penalty>
9.30911

> <i_epik_Tot_Q>
-1

> <i_epik_Tot_abs_Q>
1

> <r_epik_Metal_State_Penalty>
0.901484

> <b_epik_Metal_Only>
1

> <s_lp_Force_Field>
OPLS_2005

> <r_lp_Energy>
11.2119

> <b_lp_Chiralities_Consistent>
1

> <s_lp_Variant>
AV-unprocessed.smi:2889-6

> <Gold.Version>
5.8.1

> <Gold.Id.Protein>
6NUR|6NUR_protein|mol2

> <Gold.PLP.Fitness>
48.2123

> <Gold.PLP.PLP>
-43.6950

> <Gold.PLP.part.hbond>
-1.8672

> <Gold.PLP.part.metal>
0.0000

> <Gold.PLP.part.buried>
-7.7587

> <Gold.PLP.part.nonpolar>
-34.1164

> <Gold.PLP.part.repulsive>
0.0393

> <Gold.PLP.ligand.clash>
0.0000

> <Gold.PLP.ligand.torsion>
1.3376

> <Gold.PLP.Chemscore.Hbond>
1.0000

> <Gold.PLP.Chemscore.CHOScore>
1.0000

> <Gold.PLP.Chemscore.Metal>
0.0000

> <Gold.Chemscore.Hbonds>
donor molecule, donor type, donor heavy atom, donor atom, acceptor molecule, acceptor atom, score
      P1  H  7997  8009       L1    18  1.00
      L1  C    16    35       P1  7949  1.00

> <Gold.PLP.Chemscore.Internal.Correction>
1.1925

> <Gold.Rescore>
     Score         DG    S(hbond)    S(metal)    S(lipo)     H(rot)  DE(clash)    DE(int)     intcor
     16.79     -18.38       0.98        0.00     115.90       1.53       0.03       1.57       ----

> <Gold.Chemscore.Fitness>
16.7864

> <Gold.Chemscore.DG>
-18.3847

> <Gold.Chemscore.ZeroCoef>
-5.4800

> <Gold.Chemscore.Hbond>
0.9774

> <Gold.Chemscore.Metal>
0.0000

> <Gold.Chemscore.Lipo>
115.9016

> <Gold.Chemscore.Internal_Hbond>
0.0000

> <Gold.Chemscore.DEClash>
0.0279

> <Gold.Chemscore.DEInternal>
1.5703

> <Gold.Chemscore.Rot>
1.5314

> <Gold.Chemscore.Internal.Correction>
   9.000000E+99

> <Gold.Chemscore.Hbonds>
donor molecule, donor type, donor heavy atom, donor atom, acceptor molecule, acceptor atom, score
      P1  H  7997  8009       L1    18  0.93

> <Gold.Chemscore.Hbond.Weighted>
-3.2646

> <Gold.Chemscore.Metal.Weighted>
-0.0000

> <Gold.Chemscore.Lipo.Weighted>
-13.5605

> <Gold.Chemscore.Internal_Hbond.Weighted>
0.0000

> <Gold.Chemscore.DEClash.Weighted>
0.0279

> <Gold.Chemscore.DEInternal.Weighted>
1.5703

> <Gold.Chemscore.Rot.Weighted>
3.9205

> <Gold.Chemscore.Internal.Correction.Weighted>
   9.000000E+99

> <Gold.Protein.RotatedTorsions>
[ 6907 6896 6895 6894 ] final   76.05 input  -60.11 | X-H torsion
[ 7974 7965 7964 7962 ] final  -94.53 input  175.53 | X-H torsion
[ 8008 7997 7996 7995 ] final -146.00 input   59.86 | X-H torsion
[ 10167 10162 10161 10158 ] final  -67.14 input  -65.29 | X-H torsion
[ 10718 10713 10712 10709 ] final  104.72 input   66.30 | X-H torsion
[ 10763 10752 10751 10750 ] final -102.71 input  -60.55 | X-H torsion
[ 11005 11000 10999 10996 ] final -173.95 input  -57.11 | X-H torsion

> <Gold.Protein.ActiveResidues>
 VAL166  LYS551  ARG553  GLY616  TRP617  ASP618  TYR619  PRO620  LYS621  CYS622 
 ASP623  PHE694  ASN695  SER759  ASP760  ASP761  ALA762  ILE779  LEU786  VAL792 
 PHE793  MET794  SER795  GLU796  ALA797  LYS798  CYS799  TRP800  GLU811  SER814 

> <Gold.Protein.RotatedAtoms>
  152.5055  134.4028  159.9421 H   0  0  0  0  0  0  0  0  0  0  0  0  # atno 6907 bound_to 6896
  151.3992  133.3757  159.2738 H   0  0  0  0  0  0  0  0  0  0  0  0  # atno 6908 bound_to 6896
  150.9374  134.8807  159.7649 H   0  0  0  0  0  0  0  0  0  0  0  0  # atno 6909 bound_to 6896
  145.3720  140.9506  143.2442 H   0  0  0  0  0  0  0  0  0  0  0  0  # atno 7974 bound_to 7965
  155.5522  140.0617  157.2847 H   0  0  0  0  0  0  0  0  0  0  0  0  # atno 8008 bound_to 7997
  154.4417  140.1900  156.0743 H   0  0  0  0  0  0  0  0  0  0  0  0  # atno 8009 bound_to 7997
  156.0507  140.3284  155.7352 H   0  0  0  0  0  0  0  0  0  0  0  0  # atno 8010 bound_to 7997
  140.5605  143.2312  151.6737 H   0  0  0  0  0  0  0  0  0  0  0  0  # atno 10167 bound_to 10162
  157.6731  131.0810  150.5748 H   0  0  0  0  0  0  0  0  0  0  0  0  # atno 10718 bound_to 10713
  154.7754  135.4850  153.9734 H   0  0  0  0  0  0  0  0  0  0  0  0  # atno 10763 bound_to 10752
  153.1422  135.6775  153.9017 H   0  0  0  0  0  0  0  0  0  0  0  0  # atno 10764 bound_to 10752
  153.8688  135.3146  155.3419 H   0  0  0  0  0  0  0  0  0  0  0  0  # atno 10765 bound_to 10752
  140.4800  134.6085  157.4915 H   0  0  0  0  0  0  0  0  0  0  0  0  # atno 11005 bound_to 11000
  144.8569  139.5236  143.6830 LP  0  0  0  0  0  0  0  0  0  0  0  0  # atno 17320 bound_to 7965
  146.2881  139.7061  142.9181 LP  0  0  0  0  0  0  0  0  0  0  0  0  # atno 17321 bound_to 7965
  139.5068  144.3669  152.0508 LP  0  0  0  0  0  0  0  0  0  0  0  0  # atno 17342 bound_to 10162
  140.2795  144.3875  150.6123 LP  0  0  0  0  0  0  0  0  0  0  0  0  # atno 17343 bound_to 10162
  156.6049  130.4364  149.5882 LP  0  0  0  0  0  0  0  0  0  0  0  0  # atno 17370 bound_to 10713
  156.2476  130.6888  151.1615 LP  0  0  0  0  0  0  0  0  0  0  0  0  # atno 17371 bound_to 10713
  139.9832  134.7103  155.9820 LP  0  0  0  0  0  0  0  0  0  0  0  0  # atno 17394 bound_to 11000
  141.1536  133.6545  156.4090 LP  0  0  0  0  0  0  0  0  0  0  0  0  # atno 17395 bound_to 11000

$$$$
