AV-unprocessed.smi:2010|AV-procd|sdf|8151|dock4
  -GOLD-   2272010393D 1   1.00000     0.00000
 Structure written by MMmdl.
 40 41  0  0  0  0  0  0  0  0  2 V2000
  151.6442  145.6338  160.1191 C   0  0  0  0  0  0  0  0  0  0  0  0
  152.0739  144.4087  159.2997 C   0  0  0  0  0  0  0  0  0  0  0  0
  150.8694  143.6923  158.6739 C   0  0  0  0  0  0  0  0  0  0  0  0
  151.3082  142.4634  157.8618 C   0  0  0  0  0  0  0  0  0  0  0  0
  152.1142  141.5332  158.6810 N   0  0  0  0  0  0  0  0  0  0  0  0
  152.2860  139.8962  158.1100 S   0  0  0  0  0  0  0  0  0  0  0  0
  153.6917  139.5464  158.3663 O   0  0  0  0  0  0  0  0  0  0  0  0
  151.2554  139.0918  158.7895 O   0  0  0  0  0  0  0  0  0  0  0  0
  151.9868  140.1565  156.5276 N   0  5  0  0  0  0  0  0  0  0  0  0
  150.6900  139.8544  155.9203 C   0  0  2  0  0  0  0  0  0  0  0  0
  150.8850  138.7628  154.8561 C   0  0  0  0  0  0  0  0  0  0  0  0
  150.0145  141.1438  155.3758 C   0  0  0  0  0  0  0  0  0  0  0  0
  148.7445  140.9482  154.6803 N   0  0  0  0  0  0  0  0  0  0  0  0
  147.8287  141.9011  154.2756 C   0  0  0  0  0  0  0  0  0  0  0  0
  146.8109  141.2509  153.6392 C   0  0  0  0  0  0  0  0  0  0  0  0
  147.2026  139.8843  153.6871 C   0  0  0  0  0  0  0  0  0  0  0  0
  148.3627  139.7077  154.2963 N   0  0  0  0  0  0  0  0  0  0  0  0
  153.2767  142.1674  159.3316 C   0  0  0  0  0  0  0  0  0  0  0  0
  152.8546  143.3981  160.1518 C   0  0  0  0  0  0  0  0  0  0  0  0
  150.9850  145.3505  160.9402 H   0  0  0  0  0  0  0  0  0  0  0  0
  151.1114  146.3537  159.4972 H   0  0  0  0  0  0  0  0  0  0  0  0
  152.5088  146.1428  160.5460 H   0  0  0  0  0  0  0  0  0  0  0  0
  152.7245  144.7553  158.4955 H   0  0  0  0  0  0  0  0  0  0  0  0
  150.1736  143.3824  159.4548 H   0  0  0  0  0  0  0  0  0  0  0  0
  150.3202  144.3775  158.0277 H   0  0  0  0  0  0  0  0  0  0  0  0
  150.4301  141.9530  157.4687 H   0  0  0  0  0  0  0  0  0  0  0  0
  151.8979  142.7722  156.9981 H   0  0  0  0  0  0  0  0  0  0  0  0
  150.0049  139.4406  156.6604 H   0  0  0  0  0  0  0  0  0  0  0  0
  149.9422  138.5272  154.3621 H   0  0  0  0  0  0  0  0  0  0  0  0
  151.2583  137.8419  155.3051 H   0  0  0  0  0  0  0  0  0  0  0  0
  151.5982  139.0660  154.0888 H   0  0  0  0  0  0  0  0  0  0  0  0
  149.8180  141.8122  156.2147 H   0  0  0  0  0  0  0  0  0  0  0  0
  150.6950  141.6931  154.7252 H   0  0  0  0  0  0  0  0  0  0  0  0
  147.9758  142.9516  154.4789 H   0  0  0  0  0  0  0  0  0  0  0  0
  145.9235  141.6853  153.2036 H   0  0  0  0  0  0  0  0  0  0  0  0
  146.6850  139.0215  153.2948 H   0  0  0  0  0  0  0  0  0  0  0  0
  153.7665  141.4548  159.9943 H   0  0  0  0  0  0  0  0  0  0  0  0
  154.0039  142.4440  158.5673 H   0  0  0  0  0  0  0  0  0  0  0  0
  153.7393  143.8724  160.5777 H   0  0  0  0  0  0  0  0  0  0  0  0
  152.2416  143.0753  160.9949 H   0  0  0  0  0  0  0  0  0  0  0  0
  1  2  1  0  0  0  0
  1 20  1  0  0  0  0
  1 21  1  0  0  0  0
  1 22  1  0  0  0  0
  2 19  1  0  0  0  0
  2  3  1  0  0  0  0
  2 23  1  0  0  0  0
  3  4  1  0  0  0  0
  3 24  1  0  0  0  0
  3 25  1  0  0  0  0
  4  5  1  0  0  0  0
  4 26  1  0  0  0  0
  4 27  1  0  0  0  0
  5  6  1  0  0  0  0
  5 18  1  0  0  0  0
  6  7  2  0  0  0  0
  6  8  2  0  0  0  0
  6  9  1  0  0  0  0
  9 10  1  0  0  0  0
 10 11  1  0  0  0  0
 10 12  1  0  0  0  0
 10 28  1  0  0  0  0
 11 29  1  0  0  0  0
 11 30  1  0  0  0  0
 11 31  1  0  0  0  0
 12 13  1  0  0  0  0
 12 32  1  0  0  0  0
 12 33  1  0  0  0  0
 13 17  1  0  0  0  0
 13 14  1  0  0  0  0
 14 15  2  0  0  0  0
 14 34  1  0  0  0  0
 15 16  1  0  0  0  0
 15 35  1  0  0  0  0
 16 17  2  0  0  0  0
 16 36  1  0  0  0  0
 18 19  1  0  0  0  0
 18 37  1  0  0  0  0
 18 38  1  0  0  0  0
 19 39  1  0  0  0  0
 19 40  1  0  0  0  0
M  CHG  1   9  -1
M  END
> <s_m_source_file>
AV-unprocessed.smi

> <i_m_source_file_index>
2010

> <i_lp_mmshare_version>
43012

> <i_f3d_flags>
0

> <s_epik_input>
W0NIM11bQ0hdMVtDSDJdW0NIMl1OKFtDSDJdW0NIMl0xKVMoPU8pKD1PKVtOSF1bQ0BIXShbQ0gzXSlbQ0gyXW4yW2NIXVtjSF1bY0hdbjI=

> <s_epik_cmdline>
J2VwaWtfcHl0aG9uJywgJy1waCcsICc3LjAnLCAnLXRuJywgJzgnLCAnLW1hJywgJzIwMCcsICctbWV0YWxfYmluZGluZycsICctaW1hZScsICc8aW5maWxlLm1hZT4nLCAnLW9tYWUnLCAnPG91dGZpbGUubWFlPic=

> <r_lp_tautomer_probability>
1

> <r_epik_Ionization_Penalty>
1.75622

> <r_epik_Ionization_Penalty_Charging>
1.7562

> <r_epik_Ionization_Penalty_Neutral>
2.39925e-05

> <r_epik_State_Penalty>
1.86645

> <r_epik_Charging_Adjusted_Penalty>
3.62264

> <i_epik_Tot_Q>
-1

> <i_epik_Tot_abs_Q>
1

> <r_epik_Metal_State_Penalty>
0.460135

> <b_epik_Metal_Only>
0

> <s_lp_Force_Field>
OPLS_2005

> <r_lp_Energy>
7.98706

> <b_lp_Chiralities_Consistent>
1

> <s_lp_Variant>
AV-unprocessed.smi:2010-3

> <Gold.Version>
5.8.1

> <Gold.Id.Protein>
6NUR|6NUR_protein|mol2

> <Gold.PLP.Fitness>
48.9808

> <Gold.PLP.PLP>
-43.4903

> <Gold.PLP.part.hbond>
-1.2600

> <Gold.PLP.part.metal>
0.0000

> <Gold.PLP.part.buried>
-4.0310

> <Gold.PLP.part.nonpolar>
-37.0701

> <Gold.PLP.part.repulsive>
0.1346

> <Gold.PLP.ligand.clash>
0.0011

> <Gold.PLP.ligand.torsion>
1.1149

> <Gold.PLP.Chemscore.Hbond>
1.0000

> <Gold.PLP.Chemscore.CHOScore>
1.0000

> <Gold.PLP.Chemscore.Metal>
0.0000

> <Gold.Chemscore.Hbonds>
donor molecule, donor type, donor heavy atom, donor atom, acceptor molecule, acceptor atom, score
      P1  H  7997  8010       L1     7  1.00
      L1  C    14    34       P1  8028  1.00

> <Gold.PLP.Chemscore.Internal.Correction>
1.7213

> <Gold.Rescore>
     Score         DG    S(hbond)    S(metal)    S(lipo)     H(rot)  DE(clash)    DE(int)     intcor
     14.97     -17.57       0.96        0.00     109.46       1.54       0.13       2.47       ----

> <Gold.Chemscore.Fitness>
14.9716

> <Gold.Chemscore.DG>
-17.5664

> <Gold.Chemscore.ZeroCoef>
-5.4800

> <Gold.Chemscore.Hbond>
0.9630

> <Gold.Chemscore.Metal>
0.0000

> <Gold.Chemscore.Lipo>
109.4566

> <Gold.Chemscore.Internal_Hbond>
0.0000

> <Gold.Chemscore.DEClash>
0.1268

> <Gold.Chemscore.DEInternal>
2.4680

> <Gold.Chemscore.Rot>
1.5377

> <Gold.Chemscore.Internal.Correction>
   9.000000E+99

> <Gold.Chemscore.Hbonds>
donor molecule, donor type, donor heavy atom, donor atom, acceptor molecule, acceptor atom, score
      P1  H  7997  8010       L1     7  0.88

> <Gold.Chemscore.Hbond.Weighted>
-3.2165

> <Gold.Chemscore.Metal.Weighted>
-0.0000

> <Gold.Chemscore.Lipo.Weighted>
-12.8064

> <Gold.Chemscore.Internal_Hbond.Weighted>
0.0000

> <Gold.Chemscore.DEClash.Weighted>
0.1268

> <Gold.Chemscore.DEInternal.Weighted>
2.4680

> <Gold.Chemscore.Rot.Weighted>
3.9365

> <Gold.Chemscore.Internal.Correction.Weighted>
   9.000000E+99

> <Gold.Protein.RotatedTorsions>
[ 6907 6896 6895 6894 ] final  -57.93 input  -60.11 | X-H torsion
[ 7974 7965 7964 7962 ] final   11.94 input  175.53 | X-H torsion
[ 8008 7997 7996 7995 ] final   22.32 input   59.86 | X-H torsion
[ 10167 10162 10161 10158 ] final   69.20 input  -65.29 | X-H torsion
[ 10718 10713 10712 10709 ] final -129.53 input   66.30 | X-H torsion
[ 10763 10752 10751 10750 ] final  -59.32 input  -60.55 | X-H torsion
[ 11005 11000 10999 10996 ] final  -70.05 input  -57.11 | X-H torsion

> <Gold.Protein.ActiveResidues>
 VAL166  LYS551  ARG553  GLY616  TRP617  ASP618  TYR619  PRO620  LYS621  CYS622 
 ASP623  PHE694  ASN695  SER759  ASP760  ASP761  ALA762  ILE779  LEU786  VAL792 
 PHE793  MET794  SER795  GLU796  ALA797  LYS798  CYS799  TRP800  GLU811  SER814 

> <Gold.Protein.RotatedAtoms>
  150.8047  134.7164  159.6632 H   0  0  0  0  0  0  0  0  0  0  0  0  # atno 6907 bound_to 6896
  152.4166  134.6027  160.0014 H   0  0  0  0  0  0  0  0  0  0  0  0  # atno 6908 bound_to 6896
  151.6255  133.3299  159.3133 H   0  0  0  0  0  0  0  0  0  0  0  0  # atno 6909 bound_to 6896
  146.2361  139.9411  142.8483 H   0  0  0  0  0  0  0  0  0  0  0  0  # atno 7974 bound_to 7965
  154.9639  140.3081  155.5018 H   0  0  0  0  0  0  0  0  0  0  0  0  # atno 8008 bound_to 7997
  156.2974  140.2296  156.4665 H   0  0  0  0  0  0  0  0  0  0  0  0  # atno 8009 bound_to 7997
  154.7939  140.0438  157.1210 H   0  0  0  0  0  0  0  0  0  0  0  0  # atno 8010 bound_to 7997
  140.0704  144.5157  150.7231 H   0  0  0  0  0  0  0  0  0  0  0  0  # atno 10167 bound_to 10162
  156.2056  130.6885  151.0590 H   0  0  0  0  0  0  0  0  0  0  0  0  # atno 10718 bound_to 10713
  154.2519  135.6324  153.5243 H   0  0  0  0  0  0  0  0  0  0  0  0  # atno 10763 bound_to 10752
  152.9911  135.5567  154.5798 H   0  0  0  0  0  0  0  0  0  0  0  0  # atno 10764 bound_to 10752
  154.5328  135.2889  155.1140 H   0  0  0  0  0  0  0  0  0  0  0  0  # atno 10765 bound_to 10752
  141.1566  133.6780  156.6693 H   0  0  0  0  0  0  0  0  0  0  0  0  # atno 11005 bound_to 11000
  145.1952  140.9829  143.4188 LP  0  0  0  0  0  0  0  0  0  0  0  0  # atno 17320 bound_to 7965
  144.9822  139.3772  143.6256 LP  0  0  0  0  0  0  0  0  0  0  0  0  # atno 17321 bound_to 7965
  140.7128  143.2519  151.4527 LP  0  0  0  0  0  0  0  0  0  0  0  0  # atno 17342 bound_to 10162
  139.5839  144.1647  152.2004 LP  0  0  0  0  0  0  0  0  0  0  0  0  # atno 17343 bound_to 10162
  157.7010  131.0776  150.6820 LP  0  0  0  0  0  0  0  0  0  0  0  0  # atno 17370 bound_to 10713
  156.6878  130.4586  149.5608 LP  0  0  0  0  0  0  0  0  0  0  0  0  # atno 17371 bound_to 10713
  140.3187  134.8026  157.4235 LP  0  0  0  0  0  0  0  0  0  0  0  0  # atno 17394 bound_to 11000
  140.1115  134.5339  155.8262 LP  0  0  0  0  0  0  0  0  0  0  0  0  # atno 17395 bound_to 11000

$$$$
