AV-unprocessed.smi:107|AV-procd|sdf|1015|dock6
  -GOLD-   2262018 13D 1   1.00000     0.00000
 Structure written by MMmdl.
 31 32  0  0  0  0  0  0  0  0  1 V2000
  150.9544  144.9026  159.1898 C   0  0  0  0  0  0  0  0  0  0  0  0
  151.1780  143.4482  158.8098 C   0  0  0  0  0  0  0  0  0  0  0  0
  150.3047  142.7559  158.0347 C   0  0  0  0  0  0  0  0  0  0  0  0
  150.4839  141.4297  157.6665 N   0  0  0  0  0  0  0  0  0  0  0  0
  149.4756  140.7182  156.7932 C   0  0  2  0  0  0  0  0  0  0  0  0
  150.1094  140.2967  155.4662 C   0  0  0  0  0  0  0  0  0  0  0  0
  148.9766  140.5511  154.4939 C   0  0  2  0  0  0  0  0  0  0  0  0
  149.4783  140.7832  153.1938 O   0  0  0  0  0  0  0  0  0  0  0  0
  148.3124  141.7919  155.0990 C   0  0  1  0  0  0  0  0  0  0  0  0
  146.8333  141.9772  154.7261 C   0  0  0  0  0  0  0  0  0  0  0  0
  146.5607  141.3909  153.4713 O   0  0  0  0  0  0  0  0  0  0  0  0
  148.4233  141.5933  156.5071 O   0  0  0  0  0  0  0  0  0  0  0  0
  151.6426  140.7459  158.0896 C   0  0  0  0  0  0  0  0  0  0  0  0
  151.8872  139.5810  157.7786 O   0  0  0  0  0  0  0  0  0  0  0  0
  152.5374  141.4543  158.8897 N   0  0  0  0  0  0  0  0  0  0  0  0
  152.3893  142.7825  159.2968 C   0  0  0  0  0  0  0  0  0  0  0  0
  153.2488  143.2987  160.0089 O   0  0  0  0  0  0  0  0  0  0  0  0
  153.3668  140.9676  159.1975 H   0  0  0  0  0  0  0  0  0  0  0  0
  150.0172  145.2866  158.7863 H   0  0  0  0  0  0  0  0  0  0  0  0
  151.7637  145.5246  158.8057 H   0  0  0  0  0  0  0  0  0  0  0  0
  150.9216  145.0138  160.2742 H   0  0  0  0  0  0  0  0  0  0  0  0
  149.4254  143.2720  157.6805 H   0  0  0  0  0  0  0  0  0  0  0  0
  149.0616  139.8835  157.3608 H   0  0  0  0  0  0  0  0  0  0  0  0
  150.9629  140.9404  155.2450 H   0  0  0  0  0  0  0  0  0  0  0  0
  150.4438  139.2593  155.4974 H   0  0  0  0  0  0  0  0  0  0  0  0
  148.2883  139.7047  154.4900 H   0  0  0  0  0  0  0  0  0  0  0  0
  149.2429  140.0487  152.6471 H   0  0  0  0  0  0  0  0  0  0  0  0
  148.8830  142.6871  154.8458 H   0  0  0  0  0  0  0  0  0  0  0  0
  146.1800  141.5439  155.4840 H   0  0  0  0  0  0  0  0  0  0  0  0
  146.5942  143.0390  154.6641 H   0  0  0  0  0  0  0  0  0  0  0  0
  145.6417  141.1733  153.4348 H   0  0  0  0  0  0  0  0  0  0  0  0
  1  2  1  0  0  0  0
  1 19  1  0  0  0  0
  1 20  1  0  0  0  0
  1 21  1  0  0  0  0
  2 16  1  0  0  0  0
  2  3  2  0  0  0  0
  3  4  1  0  0  0  0
  3 22  1  0  0  0  0
  4  5  1  0  0  0  0
  4 13  1  0  0  0  0
  5 12  1  0  0  0  0
  5  6  1  0  0  0  0
  5 23  1  0  0  0  0
  6  7  1  0  0  0  0
  6 24  1  0  0  0  0
  6 25  1  0  0  0  0
  7  8  1  0  0  0  0
  7  9  1  0  0  0  0
  7 26  1  0  0  0  0
  8 27  1  0  0  0  0
  9 10  1  0  0  0  0
  9 12  1  0  0  0  0
  9 28  1  0  0  0  0
 10 11  1  0  0  0  0
 10 29  1  0  0  0  0
 10 30  1  0  0  0  0
 11 31  1  0  0  0  0
 13 14  2  0  0  0  0
 13 15  1  0  0  0  0
 15 18  1  0  0  0  0
 15 16  1  0  0  0  0
 16 17  2  0  0  0  0
M  END
> <s_m_source_file>
AV-unprocessed.smi

> <i_m_source_file_index>
107

> <i_lp_mmshare_version>
43012

> <i_f3d_flags>
0

> <s_epik_input>
Tz1jMVtuSF1jKD1PKW4oW2NIXWMxW0NIM10pW0NAQEhdMltDSDJdW0NAQEhdKFtPSF0pW0NASF0oTzIpW0NIMl1bT0hd

> <s_epik_cmdline>
J2VwaWtfcHl0aG9uJywgJy1waCcsICc3LjAnLCAnLXRuJywgJzgnLCAnLW1hJywgJzIwMCcsICctbWV0YWxfYmluZGluZycsICctaW1hZScsICc8aW5maWxlLm1hZT4nLCAnLW9tYWUnLCAnPG91dGZpbGUubWFlPic=

> <r_lp_tautomer_probability>
0.999537

> <r_epik_Ionization_Penalty>
0.00121888

> <r_epik_Ionization_Penalty_Charging>
0.00121876

> <r_epik_Ionization_Penalty_Neutral>
1.19946e-07

> <r_epik_State_Penalty>
0.000805124

> <r_epik_Charging_Adjusted_Penalty>
0.00202389

> <i_epik_Tot_Q>
0

> <i_epik_Tot_abs_Q>
0

> <r_epik_Metal_State_Penalty>
0.662472

> <b_epik_Metal_Only>
0

> <s_epik_Chemistry_Notes>
This compound contains an acetal/aminal-like group ( X-CH(R)-Y where X, Y are N, S, or O) that may be acid/base labile, releasing an aldehyde.

> <s_lp_Force_Field>
OPLS_2005

> <r_lp_Energy>
24.0727

> <b_lp_Chiralities_Consistent>
1

> <s_lp_Variant>
AV-unprocessed.smi:107-3

> <Gold.Version>
5.8.1

> <Gold.Id.Protein>
6NUR|6NUR_protein|mol2

> <Gold.PLP.Fitness>
37.4084

> <Gold.PLP.PLP>
-29.3907

> <Gold.PLP.part.hbond>
-1.9709

> <Gold.PLP.part.metal>
0.0000

> <Gold.PLP.part.buried>
-5.4386

> <Gold.PLP.part.nonpolar>
-23.2055

> <Gold.PLP.part.repulsive>
0.2174

> <Gold.PLP.ligand.clash>
0.0000

> <Gold.PLP.ligand.torsion>
0.4552

> <Gold.PLP.Chemscore.Hbond>
1.9734

> <Gold.PLP.Chemscore.CHOScore>
1.0000

> <Gold.PLP.Chemscore.Metal>
0.0000

> <Gold.Chemscore.Hbonds>
donor molecule, donor type, donor heavy atom, donor atom, acceptor molecule, acceptor atom, score
      L1  H     8    27       P1  7957  0.42
      L1  H    11    31       P1 10175  0.39
      P1  H  7989  7998       L1     8  0.17
      P1  H  8011  8017       L1     8  1.00
      L1  C     3    22       P1  8028  1.00

> <Gold.PLP.Chemscore.Internal.Correction>
0.0077

> <Gold.Rescore>
     Score         DG    S(hbond)    S(metal)    S(lipo)     H(rot)  DE(clash)    DE(int)     intcor
      9.40     -10.91       1.97        0.00      49.95       2.73       0.00       1.51       ----

> <Gold.Chemscore.Fitness>
9.4005

> <Gold.Chemscore.DG>
-10.9113

> <Gold.Chemscore.ZeroCoef>
-5.4800

> <Gold.Chemscore.Hbond>
1.9652

> <Gold.Chemscore.Metal>
0.0000

> <Gold.Chemscore.Lipo>
49.9523

> <Gold.Chemscore.Internal_Hbond>
0.0000

> <Gold.Chemscore.DEClash>
0.0000

> <Gold.Chemscore.DEInternal>
1.5108

> <Gold.Chemscore.Rot>
2.7253

> <Gold.Chemscore.Internal.Correction>
   9.000000E+99

> <Gold.Chemscore.Hbonds>
donor molecule, donor type, donor heavy atom, donor atom, acceptor molecule, acceptor atom, score
      L1  H     8    27       P1  7957  0.37
      L1  H    11    31       P1 10175  0.15
      P1  H  7989  7998       L1     8  0.07
      P1  H  8011  8017       L1     8  0.93

> <Gold.Chemscore.Hbond.Weighted>
-6.5637

> <Gold.Chemscore.Metal.Weighted>
-0.0000

> <Gold.Chemscore.Lipo.Weighted>
-5.8444

> <Gold.Chemscore.Internal_Hbond.Weighted>
0.0000

> <Gold.Chemscore.DEClash.Weighted>
0.0000

> <Gold.Chemscore.DEInternal.Weighted>
1.5108

> <Gold.Chemscore.Rot.Weighted>
6.9769

> <Gold.Chemscore.Internal.Correction.Weighted>
   9.000000E+99

> <Gold.Protein.RotatedTorsions>
[ 6907 6896 6895 6894 ] final  -51.22 input  -60.11 | X-H torsion
[ 7974 7965 7964 7962 ] final  -17.36 input  175.53 | X-H torsion
[ 8008 7997 7996 7995 ] final  144.41 input   59.86 | X-H torsion
[ 10167 10162 10161 10158 ] final  176.24 input  -65.29 | X-H torsion
[ 10718 10713 10712 10709 ] final   59.44 input   66.30 | X-H torsion
[ 10763 10752 10751 10750 ] final  179.57 input  -60.55 | X-H torsion
[ 11005 11000 10999 10996 ] final   54.26 input  -57.11 | X-H torsion

> <Gold.Protein.ActiveResidues>
 VAL166  LYS551  ARG553  GLY616  TRP617  ASP618  TYR619  PRO620  LYS621  CYS622 
 ASP623  PHE694  ASN695  SER759  ASP760  ASP761  ALA762  ILE779  LEU786  VAL792 
 PHE793  MET794  SER795  GLU796  ALA797  LYS798  CYS799  TRP800  GLU811  SER814 

> <Gold.Protein.RotatedAtoms>
  150.8632  134.7989  159.7098 H   0  0  0  0  0  0  0  0  0  0  0  0  # atno 6907 bound_to 6896
  152.4662  134.5065  159.9750 H   0  0  0  0  0  0  0  0  0  0  0  0  # atno 6908 bound_to 6896
  151.5166  133.3436  159.2929 H   0  0  0  0  0  0  0  0  0  0  0  0  # atno 6909 bound_to 6896
  146.1945  140.3767  142.8446 H   0  0  0  0  0  0  0  0  0  0  0  0  # atno 7974 bound_to 7965
  156.2909  140.2236  156.5048 H   0  0  0  0  0  0  0  0  0  0  0  0  # atno 8008 bound_to 7997
  154.7659  140.0470  157.1033 H   0  0  0  0  0  0  0  0  0  0  0  0  # atno 8009 bound_to 7997
  154.9933  140.3093  155.4900 H   0  0  0  0  0  0  0  0  0  0  0  0  # atno 8010 bound_to 7997
  139.5207  144.2938  152.0439 H   0  0  0  0  0  0  0  0  0  0  0  0  # atno 10167 bound_to 10162
  157.5675  130.8882  149.9212 H   0  0  0  0  0  0  0  0  0  0  0  0  # atno 10718 bound_to 10713
  154.5224  135.2795  155.1251 H   0  0  0  0  0  0  0  0  0  0  0  0  # atno 10763 bound_to 10752
  154.2803  135.6286  153.5348 H   0  0  0  0  0  0  0  0  0  0  0  0  # atno 10764 bound_to 10752
  152.9939  135.5649  154.5716 H   0  0  0  0  0  0  0  0  0  0  0  0  # atno 10765 bound_to 10752
  140.0701  134.5482  155.9056 H   0  0  0  0  0  0  0  0  0  0  0  0  # atno 11005 bound_to 11000
  144.8552  140.7059  143.6143 LP  0  0  0  0  0  0  0  0  0  0  0  0  # atno 17320 bound_to 7965
  145.3688  139.1663  143.4343 LP  0  0  0  0  0  0  0  0  0  0  0  0  # atno 17321 bound_to 7965
  140.2389  144.4291  150.6268 LP  0  0  0  0  0  0  0  0  0  0  0  0  # atno 17342 bound_to 10162
  140.6304  143.2187  151.6507 LP  0  0  0  0  0  0  0  0  0  0  0  0  # atno 17343 bound_to 10162
  156.0722  130.3683  150.0751 LP  0  0  0  0  0  0  0  0  0  0  0  0  # atno 17370 bound_to 10713
  156.8908  130.9588  151.3588 LP  0  0  0  0  0  0  0  0  0  0  0  0  # atno 17371 bound_to 10713
  141.2008  133.6615  156.5918 LP  0  0  0  0  0  0  0  0  0  0  0  0  # atno 17394 bound_to 11000
  140.3640  134.7663  157.4553 LP  0  0  0  0  0  0  0  0  0  0  0  0  # atno 17395 bound_to 11000

$$$$
