AV-unprocessed.smi:252|AV-procd|sdf|1939|dock3
  -GOLD-   2262021 63D 1   1.00000     0.00000
 Structure written by MMmdl.
 56 59  0  0  0  0  0  0  0  0  1 V2000
  147.2876  142.1587  154.4647 C   0  0  0  0  0  0  0  0  0  0  0  0
  148.3747  141.3599  153.7283 C   0  0  0  0  0  0  0  0  0  0  0  0
  149.6225  141.0917  154.5762 C   0  0  0  0  0  0  0  0  0  0  0  0
  150.3227  140.0979  154.3792 O   0  0  0  0  0  0  0  0  0  0  0  0
  149.8873  141.9998  155.5279 N   0  0  0  0  0  0  0  0  0  0  0  0
  151.0233  141.9547  156.4428 C   0  0  1  0  0  0  0  0  0  0  0  0
  150.9831  143.1767  157.3798 C   0  0  0  0  0  0  0  0  0  0  0  0
  152.1139  143.1008  158.4180 C   0  0  0  0  0  0  0  0  0  0  0  0
  152.0672  141.7679  159.1811 C   0  0  0  0  0  0  0  0  0  0  0  0
  152.0911  140.6454  158.2480 N   0  0  0  0  0  0  0  0  0  0  0  0
  152.2784  139.4493  158.8437 C   0  0  0  0  0  0  0  0  0  0  0  0
  151.2218  138.6206  159.0518 N   0  0  0  0  0  0  0  0  0  0  0  0
  151.4128  137.4366  159.6426 C   0  0  0  0  0  0  0  0  0  0  0  0
  152.5501  136.9018  160.0942 N   0  0  0  0  0  0  0  0  0  0  0  0
  153.6090  137.7372  159.8880 C   0  0  0  0  0  0  0  0  0  0  0  0
  153.5609  139.0169  159.2688 C   0  0  0  0  0  0  0  0  0  0  0  0
  154.8322  139.5733  159.2178 N   0  0  0  0  0  0  0  0  0  0  0  0
  155.5920  138.6709  159.7763 C   0  0  0  0  0  0  0  0  0  0  0  0
  154.9380  137.5436  160.2228 N   0  0  0  0  0  0  0  0  0  0  0  0
  155.5374  136.3937  160.8828 C   0  0  0  0  0  0  0  0  0  0  0  0
  155.4130  136.4063  162.4307 C   0  0  2  0  0  0  0  0  0  0  0  0
  155.8038  137.6842  162.9016 O   0  0  0  0  0  0  0  0  0  0  0  0
  156.2587  135.3473  163.1308 C   0  0  0  0  0  0  0  0  0  0  0  0
  155.3495  134.1299  163.0871 C   0  0  0  0  0  0  0  0  0  0  0  0
  154.0627  134.6684  163.3498 O   0  0  0  0  0  0  0  0  0  0  0  0
  153.9797  136.0134  162.8753 C   0  0  1  0  0  0  0  0  0  0  0  0
  153.3777  136.8497  164.0174 C   0  0  0  0  0  0  0  0  0  0  0  0
  151.0150  140.6465  157.2611 C   0  0  0  0  0  0  0  0  0  0  0  0
  146.4153  142.3001  153.8265 H   0  0  0  0  0  0  0  0  0  0  0  0
  147.6468  143.1472  154.7539 H   0  0  0  0  0  0  0  0  0  0  0  0
  146.9559  141.6424  155.3663 H   0  0  0  0  0  0  0  0  0  0  0  0
  147.9625  140.4040  153.4029 H   0  0  0  0  0  0  0  0  0  0  0  0
  148.6744  141.8958  152.8271 H   0  0  0  0  0  0  0  0  0  0  0  0
  149.2590  142.7845  155.6211 H   0  0  0  0  0  0  0  0  0  0  0  0
  151.9471  142.0017  155.8623 H   0  0  0  0  0  0  0  0  0  0  0  0
  151.0687  144.0988  156.8038 H   0  0  0  0  0  0  0  0  0  0  0  0
  150.0228  143.2177  157.8960 H   0  0  0  0  0  0  0  0  0  0  0  0
  153.0776  143.1988  157.9162 H   0  0  0  0  0  0  0  0  0  0  0  0
  152.0405  143.9349  159.1162 H   0  0  0  0  0  0  0  0  0  0  0  0
  152.9146  141.7011  159.8651 H   0  0  0  0  0  0  0  0  0  0  0  0
  151.1612  141.7193  159.7872 H   0  0  0  0  0  0  0  0  0  0  0  0
  150.5286  136.8303  159.7724 H   0  0  0  0  0  0  0  0  0  0  0  0
  156.6580  138.8077  159.8883 H   0  0  0  0  0  0  0  0  0  0  0  0
  155.0737  135.4923  160.4793 H   0  0  0  0  0  0  0  0  0  0  0  0
  156.5859  136.3477  160.5860 H   0  0  0  0  0  0  0  0  0  0  0  0
  155.2218  137.9363  163.6021 H   0  0  0  0  0  0  0  0  0  0  0  0
  157.2353  135.1707  162.6828 H   0  0  0  0  0  0  0  0  0  0  0  0
  156.4262  135.6222  164.1737 H   0  0  0  0  0  0  0  0  0  0  0  0
  155.3598  133.6687  162.0988 H   0  0  0  0  0  0  0  0  0  0  0  0
  155.6234  133.3724  163.8215 H   0  0  0  0  0  0  0  0  0  0  0  0
  153.2951  136.0410  162.0262 H   0  0  0  0  0  0  0  0  0  0  0  0
  153.2430  137.8900  163.7204 H   0  0  0  0  0  0  0  0  0  0  0  0
  154.0126  136.8288  164.9038 H   0  0  0  0  0  0  0  0  0  0  0  0
  152.3990  136.4638  164.3037 H   0  0  0  0  0  0  0  0  0  0  0  0
  150.0571  140.5312  157.7712 H   0  0  0  0  0  0  0  0  0  0  0  0
  151.1288  139.7875  156.5980 H   0  0  0  0  0  0  0  0  0  0  0  0
  1  2  1  0  0  0  0
  1 29  1  0  0  0  0
  1 30  1  0  0  0  0
  1 31  1  0  0  0  0
  2  3  1  0  0  0  0
  2 32  1  0  0  0  0
  2 33  1  0  0  0  0
  3  4  2  0  0  0  0
  3  5  1  0  0  0  0
  5  6  1  0  0  0  0
  5 34  1  0  0  0  0
  6 28  1  0  0  0  0
  6  7  1  0  0  0  0
  6 35  1  0  0  0  0
  7  8  1  0  0  0  0
  7 36  1  0  0  0  0
  7 37  1  0  0  0  0
  8  9  1  0  0  0  0
  8 38  1  0  0  0  0
  8 39  1  0  0  0  0
  9 10  1  0  0  0  0
  9 40  1  0  0  0  0
  9 41  1  0  0  0  0
 10 11  1  0  0  0  0
 10 28  1  0  0  0  0
 11 16  1  0  0  0  0
 11 12  2  0  0  0  0
 12 13  1  0  0  0  0
 13 14  2  0  0  0  0
 13 42  1  0  0  0  0
 14 15  1  0  0  0  0
 15 19  1  0  0  0  0
 15 16  2  0  0  0  0
 16 17  1  0  0  0  0
 17 18  2  0  0  0  0
 18 19  1  0  0  0  0
 18 43  1  0  0  0  0
 19 20  1  0  0  0  0
 20 21  1  0  0  0  0
 20 44  1  0  0  0  0
 20 45  1  0  0  0  0
 21 26  1  0  0  0  0
 21 22  1  0  0  0  0
 21 23  1  0  0  0  0
 22 46  1  0  0  0  0
 23 24  1  0  0  0  0
 23 47  1  0  0  0  0
 23 48  1  0  0  0  0
 24 25  1  0  0  0  0
 24 49  1  0  0  0  0
 24 50  1  0  0  0  0
 25 26  1  0  0  0  0
 26 27  1  0  0  0  0
 26 51  1  0  0  0  0
 27 52  1  0  0  0  0
 27 53  1  0  0  0  0
 27 54  1  0  0  0  0
 28 55  1  0  0  0  0
 28 56  1  0  0  0  0
M  END
> <s_m_source_file>
AV-unprocessed.smi

> <i_m_source_file_index>
252

> <i_lp_mmshare_version>
43012

> <i_f3d_flags>
0

> <s_epik_input>
W0NIM11bQ0gyXUMoPU8pW05IXVtDQEBIXTFbQ0gyXVtDSDJdW0NIMl1OKFtDSDJdMSljKG5bY0hdbjIpYyhjMjMpbltjSF1uM1tDSDJdW0NAQF00KFtPSF0pW0NIMl1bQ0gyXU9bQ0BIXTRbQ0gzXQ==

> <s_epik_cmdline>
J2VwaWtfcHl0aG9uJywgJy1waCcsICc3LjAnLCAnLXRuJywgJzgnLCAnLW1hJywgJzIwMCcsICctbWV0YWxfYmluZGluZycsICctaW1hZScsICc8aW5maWxlLm1hZT4nLCAnLW9tYWUnLCAnPG91dGZpbGUubWFlPic=

> <r_lp_tautomer_probability>
1

> <r_epik_Ionization_Penalty>
0.00182575

> <r_epik_Ionization_Penalty_Charging>
0

> <r_epik_Ionization_Penalty_Neutral>
0.00182575

> <r_epik_State_Penalty>
0.00104524

> <r_epik_Charging_Adjusted_Penalty>
0.00104524

> <i_epik_Tot_Q>
0

> <i_epik_Tot_abs_Q>
0

> <r_epik_Metal_State_Penalty>
-0

> <b_epik_Metal_Only>
0

> <s_lp_Force_Field>
OPLS_2005

> <r_lp_Energy>
37.9455

> <b_lp_Chiralities_Consistent>
1

> <s_lp_Variant>
AV-unprocessed.smi:252-4

> <Gold.Version>
5.8.1

> <Gold.Id.Protein>
6NUR|6NUR_protein|mol2

> <Gold.PLP.Fitness>
50.4514

> <Gold.PLP.PLP>
-41.0379

> <Gold.PLP.part.hbond>
-4.0000

> <Gold.PLP.part.metal>
0.0000

> <Gold.PLP.part.buried>
-3.8705

> <Gold.PLP.part.nonpolar>
-32.9492

> <Gold.PLP.part.repulsive>
0.2733

> <Gold.PLP.ligand.clash>
0.0000

> <Gold.PLP.ligand.torsion>
1.4433

> <Gold.PLP.Chemscore.Hbond>
3.9833

> <Gold.PLP.Chemscore.CHOScore>
0.0000

> <Gold.PLP.Chemscore.Metal>
0.0000

> <Gold.Chemscore.Hbonds>
donor molecule, donor type, donor heavy atom, donor atom, acceptor molecule, acceptor atom, score
      L1  H     5    34       P1  8028  1.00
      P1  H  6896  6907       L1    14  1.00
      P1  H  7989  7998       L1     4  0.90
      P1  H  7997  8008       L1    17  1.00

> <Gold.PLP.Chemscore.Internal.Correction>
0.3504

> <Gold.Rescore>
     Score         DG    S(hbond)    S(metal)    S(lipo)     H(rot)  DE(clash)    DE(int)     intcor
     13.70     -17.50       2.53        0.00      89.77       2.70       1.60       2.20       ----

> <Gold.Chemscore.Fitness>
13.7019

> <Gold.Chemscore.DG>
-17.4963

> <Gold.Chemscore.ZeroCoef>
-5.4800

> <Gold.Chemscore.Hbond>
2.5255

> <Gold.Chemscore.Metal>
0.0000

> <Gold.Chemscore.Lipo>
89.7734

> <Gold.Chemscore.Internal_Hbond>
0.0000

> <Gold.Chemscore.DEClash>
1.5991

> <Gold.Chemscore.DEInternal>
2.1953

> <Gold.Chemscore.Rot>
2.7041

> <Gold.Chemscore.Internal.Correction>
   9.000000E+99

> <Gold.Chemscore.Hbonds>
donor molecule, donor type, donor heavy atom, donor atom, acceptor molecule, acceptor atom, score
      L1  H     5    34       P1  8028  0.95
      P1  H  6896  6907       L1    14  0.38
      P1  H  7989  7998       L1     4  0.18
      P1  H  7997  8008       L1    17  0.57

> <Gold.Chemscore.Hbond.Weighted>
-8.4353

> <Gold.Chemscore.Metal.Weighted>
-0.0000

> <Gold.Chemscore.Lipo.Weighted>
-10.5035

> <Gold.Chemscore.Internal_Hbond.Weighted>
0.0000

> <Gold.Chemscore.DEClash.Weighted>
1.5991

> <Gold.Chemscore.DEInternal.Weighted>
2.1953

> <Gold.Chemscore.Rot.Weighted>
6.9225

> <Gold.Chemscore.Internal.Correction.Weighted>
   9.000000E+99

> <Gold.Protein.RotatedTorsions>
[ 6907 6896 6895 6894 ] final   38.06 input  -60.11 | X-H torsion
[ 7974 7965 7964 7962 ] final  116.33 input  175.53 | X-H torsion
[ 8008 7997 7996 7995 ] final -124.85 input   59.86 | X-H torsion
[ 10167 10162 10161 10158 ] final   46.26 input  -65.29 | X-H torsion
[ 10718 10713 10712 10709 ] final    6.89 input   66.30 | X-H torsion
[ 10763 10752 10751 10750 ] final  167.77 input  -60.55 | X-H torsion
[ 11005 11000 10999 10996 ] final  -50.10 input  -57.11 | X-H torsion

> <Gold.Protein.ActiveResidues>
 VAL166  LYS551  ARG553  GLY616  TRP617  ASP618  TYR619  PRO620  LYS621  CYS622 
 ASP623  PHE694  ASN695  SER759  ASP760  ASP761  ALA762  ILE779  LEU786  VAL792 
 PHE793  MET794  SER795  GLU796  ALA797  LYS798  CYS799  TRP800  GLU811  SER814 

> <Gold.Protein.RotatedAtoms>
  152.1515  134.8984  160.0547 H   0  0  0  0  0  0  0  0  0  0  0  0  # atno 6907 bound_to 6896
  152.0014  133.3822  159.4191 H   0  0  0  0  0  0  0  0  0  0  0  0  # atno 6908 bound_to 6896
  150.6876  134.3751  159.5053 H   0  0  0  0  0  0  0  0  0  0  0  0  # atno 6909 bound_to 6896
  145.1810  139.3050  143.4418 H   0  0  0  0  0  0  0  0  0  0  0  0  # atno 7974 bound_to 7965
  155.2037  140.0416  157.2922 H   0  0  0  0  0  0  0  0  0  0  0  0  # atno 8008 bound_to 7997
  154.6058  140.2464  155.7705 H   0  0  0  0  0  0  0  0  0  0  0  0  # atno 8009 bound_to 7997
  156.2349  140.2925  156.0295 H   0  0  0  0  0  0  0  0  0  0  0  0  # atno 8010 bound_to 7997
  140.3158  144.2766  150.6191 H   0  0  0  0  0  0  0  0  0  0  0  0  # atno 10167 bound_to 10162
  156.9288  130.5818  149.5649 H   0  0  0  0  0  0  0  0  0  0  0  0  # atno 10718 bound_to 10713
  154.3588  135.2753  155.2331 H   0  0  0  0  0  0  0  0  0  0  0  0  # atno 10763 bound_to 10752
  154.4529  135.5926  153.6207 H   0  0  0  0  0  0  0  0  0  0  0  0  # atno 10764 bound_to 10752
  152.9845  135.6046  154.3806 H   0  0  0  0  0  0  0  0  0  0  0  0  # atno 10765 bound_to 10752
  141.0797  133.6656  156.3682 H   0  0  0  0  0  0  0  0  0  0  0  0  # atno 11005 bound_to 11000
  146.3453  140.1989  142.8589 LP  0  0  0  0  0  0  0  0  0  0  0  0  # atno 17320 bound_to 7965
  145.0137  140.8735  143.5209 LP  0  0  0  0  0  0  0  0  0  0  0  0  # atno 17321 bound_to 7965
  140.5528  143.2204  151.7898 LP  0  0  0  0  0  0  0  0  0  0  0  0  # atno 17342 bound_to 10162
  139.4884  144.4454  151.9716 LP  0  0  0  0  0  0  0  0  0  0  0  0  # atno 17343 bound_to 10162
  156.0457  130.5533  150.8874 LP  0  0  0  0  0  0  0  0  0  0  0  0  # atno 17370 bound_to 10713
  157.5860  131.0945  150.9195 LP  0  0  0  0  0  0  0  0  0  0  0  0  # atno 17371 bound_to 10713
  140.5496  134.6040  157.5404 LP  0  0  0  0  0  0  0  0  0  0  0  0  # atno 17394 bound_to 11000
  139.9610  134.7453  156.0237 LP  0  0  0  0  0  0  0  0  0  0  0  0  # atno 17395 bound_to 11000

$$$$
