AV-unprocessed.smi:3|AV-procd|sdf|29|dock6
  -GOLD-   2262015143D 1   1.00000     0.00000
 Structure written by MMmdl.
 34 36  0  0  0  0  0  0  0  0  2 V2000
  150.9813  142.2404  156.5421 C   0  0  0  0  0  0  0  0  0  0  0  0
  151.7051  140.9846  156.6827 N   0  0  0  0  0  0  0  0  0  0  0  0
  152.3158  140.6934  157.9820 C   0  0  0  0  0  0  0  0  0  0  0  0
  152.5384  141.9547  158.8161 C   0  0  1  0  0  0  0  0  0  0  0  0
  151.3506  142.6582  159.4907 C   0  0  0  0  0  0  0  0  0  0  0  0
  152.2659  142.9921  160.6727 C   0  0  1  0  0  0  0  0  0  0  0  0
  151.7072  142.9134  161.9648 O   0  0  0  0  0  0  0  0  0  0  0  0
  153.1481  141.8245  160.2189 C   0  0  0  0  0  0  0  0  0  0  0  0
  151.5616  139.9721  155.7012 C   0  0  0  0  0  0  0  0  0  0  0  0
  152.6612  139.2226  155.4076 N   0  0  0  0  0  0  0  0  0  0  0  0
  152.6562  138.2349  154.5034 C   0  0  0  0  0  0  0  0  0  0  0  0
  151.5673  137.9034  153.8066 N   0  3  0  0  0  0  0  0  0  0  0  0
  150.4448  138.6229  154.0527 C   0  0  0  0  0  0  0  0  0  0  0  0
  149.2033  138.4854  153.4695 N   0  0  0  0  0  0  0  0  0  0  0  0
  148.3290  139.4176  153.9959 C   0  0  0  0  0  0  0  0  0  0  0  0
  148.9921  140.1728  154.9296 C   0  0  0  0  0  0  0  0  0  0  0  0
  150.3519  139.6865  154.9916 C   0  0  0  0  0  0  0  0  0  0  0  0
  153.1213  142.6944  158.2632 H   0  0  0  0  0  0  0  0  0  0  0  0
  152.7687  143.9518  160.5411 H   0  0  0  0  0  0  0  0  0  0  0  0
  148.9392  137.8164  152.7600 H   0  0  0  0  0  0  0  0  0  0  0  0
  151.3682  142.8120  155.6984 H   0  0  0  0  0  0  0  0  0  0  0  0
  151.0937  142.8586  157.4334 H   0  0  0  0  0  0  0  0  0  0  0  0
  149.9154  142.0607  156.4008 H   0  0  0  0  0  0  0  0  0  0  0  0
  151.7410  139.9543  158.5400 H   0  0  0  0  0  0  0  0  0  0  0  0
  153.2753  140.2102  157.7947 H   0  0  0  0  0  0  0  0  0  0  0  0
  150.9730  143.5236  158.9455 H   0  0  0  0  0  0  0  0  0  0  0  0
  150.5447  141.9749  159.7636 H   0  0  0  0  0  0  0  0  0  0  0  0
  152.2723  143.4049  162.5411 H   0  0  0  0  0  0  0  0  0  0  0  0
  152.8932  140.8832  160.7095 H   0  0  0  0  0  0  0  0  0  0  0  0
  154.2199  142.0199  160.2641 H   0  0  0  0  0  0  0  0  0  0  0  0
  153.5539  137.6667  154.3083 H   0  0  0  0  0  0  0  0  0  0  0  0
  147.3025  139.4694  153.6622 H   0  0  0  0  0  0  0  0  0  0  0  0
  148.5641  140.9793  155.5048 H   0  0  0  0  0  0  0  0  0  0  0  0
  151.5723  137.1500  153.1191 H   0  0  0  0  0  0  0  0  0  0  0  0
  1  2  1  0  0  0  0
  1 21  1  0  0  0  0
  1 22  1  0  0  0  0
  1 23  1  0  0  0  0
  2  3  1  0  0  0  0
  2  9  1  0  0  0  0
  3  4  1  0  0  0  0
  3 24  1  0  0  0  0
  3 25  1  0  0  0  0
  4 18  1  0  0  0  0
  4  8  1  0  0  0  0
  4  5  1  0  0  0  0
  5  6  1  0  0  0  0
  5 26  1  0  0  0  0
  5 27  1  0  0  0  0
  6 19  1  0  0  0  0
  6  7  1  0  0  0  0
  6  8  1  0  0  0  0
  7 28  1  0  0  0  0
  8 29  1  0  0  0  0
  8 30  1  0  0  0  0
  9 17  1  0  0  0  0
  9 10  2  0  0  0  0
 10 11  1  0  0  0  0
 11 12  2  0  0  0  0
 11 31  1  0  0  0  0
 12 13  1  0  0  0  0
 12 34  1  0  0  0  0
 13 17  2  0  0  0  0
 13 14  1  0  0  0  0
 14 20  1  0  0  0  0
 14 15  1  0  0  0  0
 15 16  2  0  0  0  0
 15 32  1  0  0  0  0
 16 17  1  0  0  0  0
 16 33  1  0  0  0  0
M  CHG  1  12   1
M  END
> <s_m_source_file>
AV-unprocessed.smi

> <i_m_source_file_index>
3

> <i_lp_mmshare_version>
43012

> <i_f3d_flags>
0

> <s_epik_input>
W25IXTFbY0hdW2NIXWMoYzEyKWMobltjSF1uMilOKFtDSDNdKVtDSDJdW0NASF0zW0NIMl1bQ0BASF0oW09IXSlbQ0gyXTM=

> <s_epik_cmdline>
J2VwaWtfcHl0aG9uJywgJy1waCcsICc3LjAnLCAnLXRuJywgJzgnLCAnLW1hJywgJzIwMCcsICctbWV0YWxfYmluZGluZycsICctaW1hZScsICc8aW5maWxlLm1hZT4nLCAnLW9tYWUnLCAnPG91dGZpbGUubWFlPic=

> <r_lp_tautomer_probability>
1.75997e-05

> <r_epik_Ionization_Penalty>
2.28439

> <r_epik_Ionization_Penalty_Charging>
2.28438

> <r_epik_Ionization_Penalty_Neutral>
1.03791e-05

> <r_epik_State_Penalty>
2.43392

> <r_epik_Charging_Adjusted_Penalty>
4.7183

> <i_epik_Tot_Q>
1

> <i_epik_Tot_abs_Q>
1

> <r_epik_Metal_State_Penalty>
2.4464

> <b_epik_Metal_Only>
0

> <s_lp_Force_Field>
OPLS_2005

> <r_lp_Energy>
16.7386

> <b_lp_Chiralities_Consistent>
1

> <s_lp_Variant>
AV-unprocessed.smi:3-3

> <Gold.Version>
5.8.1

> <Gold.Id.Protein>
6NUR|6NUR_protein|mol2

> <Gold.PLP.Fitness>
52.6400

> <Gold.PLP.PLP>
-37.2526

> <Gold.PLP.part.hbond>
-5.8881

> <Gold.PLP.part.metal>
0.0000

> <Gold.PLP.part.buried>
-2.7762

> <Gold.PLP.part.nonpolar>
-28.3147

> <Gold.PLP.part.repulsive>
0.2120

> <Gold.PLP.ligand.clash>
0.0000

> <Gold.PLP.ligand.torsion>
0.9177

> <Gold.PLP.Chemscore.Hbond>
5.6732

> <Gold.PLP.Chemscore.CHOScore>
0.0000

> <Gold.PLP.Chemscore.Metal>
0.0000

> <Gold.Chemscore.Hbonds>
donor molecule, donor type, donor heavy atom, donor atom, acceptor molecule, acceptor atom, score
      L1  H    12    34       P1  7949  1.95
      L1  H    14    20       P1  7948  2.00
      P1  H  6933  6945       L1     7  0.78
      P1  H  7997  8009       L1    10  0.91

> <Gold.PLP.Chemscore.Internal.Correction>
0.2034

> <Gold.Rescore>
     Score         DG    S(hbond)    S(metal)    S(lipo)     H(rot)  DE(clash)    DE(int)     intcor
     18.17     -20.87       3.49        0.00      72.70       1.86       1.72       0.98       ----

> <Gold.Chemscore.Fitness>
18.1710

> <Gold.Chemscore.DG>
-20.8713

> <Gold.Chemscore.ZeroCoef>
-5.4800

> <Gold.Chemscore.Hbond>
3.4907

> <Gold.Chemscore.Metal>
0.0000

> <Gold.Chemscore.Lipo>
72.6959

> <Gold.Chemscore.Internal_Hbond>
0.0000

> <Gold.Chemscore.DEClash>
1.7177

> <Gold.Chemscore.DEInternal>
0.9826

> <Gold.Chemscore.Rot>
1.8645

> <Gold.Chemscore.Internal.Correction>
   9.000000E+99

> <Gold.Chemscore.Hbonds>
donor molecule, donor type, donor heavy atom, donor atom, acceptor molecule, acceptor atom, score
      L1  H    12    34       P1  7949  0.86
      L1  H    14    20       P1  7948  0.99
      P1  H  6933  6945       L1     7  0.70
      P1  H  7997  8009       L1    10  0.68

> <Gold.Chemscore.Hbond.Weighted>
-11.6589

> <Gold.Chemscore.Metal.Weighted>
-0.0000

> <Gold.Chemscore.Lipo.Weighted>
-8.5054

> <Gold.Chemscore.Internal_Hbond.Weighted>
0.0000

> <Gold.Chemscore.DEClash.Weighted>
1.7177

> <Gold.Chemscore.DEInternal.Weighted>
0.9826

> <Gold.Chemscore.Rot.Weighted>
4.7730

> <Gold.Chemscore.Internal.Correction.Weighted>
   9.000000E+99

> <Gold.Protein.RotatedTorsions>
[ 6907 6896 6895 6894 ] final -102.67 input  -60.11 | X-H torsion
[ 7974 7965 7964 7962 ] final  -95.90 input  175.53 | X-H torsion
[ 8008 7997 7996 7995 ] final -142.81 input   59.86 | X-H torsion
[ 10167 10162 10161 10158 ] final  161.22 input  -65.29 | X-H torsion
[ 10718 10713 10712 10709 ] final  -23.90 input   66.30 | X-H torsion
[ 10763 10752 10751 10750 ] final  -50.17 input  -60.55 | X-H torsion
[ 11005 11000 10999 10996 ] final  -71.49 input  -57.11 | X-H torsion

> <Gold.Protein.ActiveResidues>
 VAL166  LYS551  ARG553  GLY616  TRP617  ASP618  TYR619  PRO620  LYS621  CYS622 
 ASP623  PHE694  ASN695  SER759  ASP760  ASP761  ALA762  ILE779  LEU786  VAL792 
 PHE793  MET794  SER795  GLU796  ALA797  LYS798  CYS799  TRP800  GLU811  SER814 

> <Gold.Protein.RotatedAtoms>
  150.7206  134.0546  159.3809 H   0  0  0  0  0  0  0  0  0  0  0  0  # atno 6907 bound_to 6896
  151.8524  135.0551  160.0469 H   0  0  0  0  0  0  0  0  0  0  0  0  # atno 6908 bound_to 6896
  152.2780  133.5408  159.5517 H   0  0  0  0  0  0  0  0  0  0  0  0  # atno 6909 bound_to 6896
  145.3539  140.9481  143.2539 H   0  0  0  0  0  0  0  0  0  0  0  0  # atno 7974 bound_to 7965
  155.5004  140.0575  157.2940 H   0  0  0  0  0  0  0  0  0  0  0  0  # atno 8008 bound_to 7997
  154.4589  140.1987  156.0250 H   0  0  0  0  0  0  0  0  0  0  0  0  # atno 8009 bound_to 7997
  156.0853  140.3241  155.7749 H   0  0  0  0  0  0  0  0  0  0  0  0  # atno 8010 bound_to 7997
  139.4847  144.4558  151.8770 H   0  0  0  0  0  0  0  0  0  0  0  0  # atno 10167 bound_to 10162
  156.4848  130.4553  149.6790 H   0  0  0  0  0  0  0  0  0  0  0  0  # atno 10718 bound_to 10713
  154.1060  135.6556  153.4876 H   0  0  0  0  0  0  0  0  0  0  0  0  # atno 10763 bound_to 10752
  153.0272  135.5236  154.7239 H   0  0  0  0  0  0  0  0  0  0  0  0  # atno 10764 bound_to 10752
  154.6405  135.2988  155.0078 H   0  0  0  0  0  0  0  0  0  0  0  0  # atno 10765 bound_to 10752
  141.1593  133.6819  156.6915 H   0  0  0  0  0  0  0  0  0  0  0  0  # atno 11005 bound_to 11000
  144.8697  139.5056  143.6773 LP  0  0  0  0  0  0  0  0  0  0  0  0  # atno 17320 bound_to 7965
  146.2956  139.7268  142.9129 LP  0  0  0  0  0  0  0  0  0  0  0  0  # atno 17321 bound_to 7965
  140.4017  144.2484  150.5893 LP  0  0  0  0  0  0  0  0  0  0  0  0  # atno 17342 bound_to 10162
  140.5051  143.2306  151.8621 LP  0  0  0  0  0  0  0  0  0  0  0  0  # atno 17343 bound_to 10162
  156.3485  130.7420  151.2376 LP  0  0  0  0  0  0  0  0  0  0  0  0  # atno 17370 bound_to 10713
  157.7480  131.0383  150.4499 LP  0  0  0  0  0  0  0  0  0  0  0  0  # atno 17371 bound_to 10713
  140.3027  134.8150  157.4111 LP  0  0  0  0  0  0  0  0  0  0  0  0  # atno 17394 bound_to 11000
  140.1247  134.5173  155.8154 LP  0  0  0  0  0  0  0  0  0  0  0  0  # atno 17395 bound_to 11000

$$$$
