AV-unprocessed.smi:1259|AV-procd|sdf|5291|dock2
  -GOLD-   22720 4413D 1   1.00000     0.00000
 Structure written by MMmdl.
 34 35  0  0  0  0  0  0  0  0  1 V2000
  152.0330  138.5758  154.7706 C   0  0  0  0  0  0  0  0  0  0  0  0
  151.1480  139.7229  155.1602 C   0  0  0  0  0  0  0  0  0  0  0  0
  151.2903  140.6029  156.2722 C   0  0  0  0  0  0  0  0  0  0  0  0
  150.2166  141.4393  156.1337 C   0  0  0  0  0  0  0  0  0  0  0  0
  149.8396  142.4839  156.9183 N   0  0  0  0  0  0  0  0  0  0  0  0
  150.1679  142.7361  158.1976 C   0  0  0  0  0  0  0  0  0  0  0  0
  150.8863  142.0276  158.9031 O   0  0  0  0  0  0  0  0  0  0  0  0
  149.6077  143.8778  158.6229 N   0  0  0  0  0  0  0  0  0  0  0  0
  149.7679  144.4546  159.9540 C   0  0  2  0  0  0  0  0  0  0  0  0
  148.6100  145.4292  160.2098 C   0  0  0  0  0  0  0  0  0  0  0  0
  151.1081  145.1415  160.1569 C   0  0  0  0  0  0  0  0  0  0  0  0
  152.0728  145.3408  159.0115 C   0  0  0  0  0  0  0  0  0  0  0  0
  152.3981  144.3572  160.1116 C   0  0  0  0  0  0  0  0  0  0  0  0
  149.5035  141.0667  155.0157 N   0  0  0  0  0  0  0  0  0  0  0  0
  148.2931  141.6386  154.4589 C   0  0  0  0  0  0  0  0  0  0  0  0
  150.0826  140.0030  154.4179 N   0  0  0  0  0  0  0  0  0  0  0  0
  152.8874  138.4919  155.4425 H   0  0  0  0  0  0  0  0  0  0  0  0
  152.4187  138.7024  153.7587 H   0  0  0  0  0  0  0  0  0  0  0  0
  151.4896  137.6313  154.8060 H   0  0  0  0  0  0  0  0  0  0  0  0
  152.0580  140.6013  157.0312 H   0  0  0  0  0  0  0  0  0  0  0  0
  149.2392  143.1615  156.4721 H   0  0  0  0  0  0  0  0  0  0  0  0
  149.0320  144.3937  157.9737 H   0  0  0  0  0  0  0  0  0  0  0  0
  149.6839  143.6536  160.6910 H   0  0  0  0  0  0  0  0  0  0  0  0
  148.6607  145.8425  161.2174 H   0  0  0  0  0  0  0  0  0  0  0  0
  147.6455  144.9302  160.1095 H   0  0  0  0  0  0  0  0  0  0  0  0
  148.6297  146.2632  159.5073 H   0  0  0  0  0  0  0  0  0  0  0  0
  151.0767  145.9418  160.8944 H   0  0  0  0  0  0  0  0  0  0  0  0
  151.8020  144.9322  158.0399 H   0  0  0  0  0  0  0  0  0  0  0  0
  152.6340  146.2726  158.9854 H   0  0  0  0  0  0  0  0  0  0  0  0
  153.1780  144.6321  160.8187 H   0  0  0  0  0  0  0  0  0  0  0  0
  152.3406  143.2977  159.8691 H   0  0  0  0  0  0  0  0  0  0  0  0
  147.4346  141.3207  155.0505 H   0  0  0  0  0  0  0  0  0  0  0  0
  148.1556  141.3120  153.4273 H   0  0  0  0  0  0  0  0  0  0  0  0
  148.3552  142.7268  154.4757 H   0  0  0  0  0  0  0  0  0  0  0  0
  1  2  1  0  0  0  0
  1 17  1  0  0  0  0
  1 18  1  0  0  0  0
  1 19  1  0  0  0  0
  2 16  2  0  0  0  0
  2  3  1  0  0  0  0
  3  4  2  0  0  0  0
  3 20  1  0  0  0  0
  4  5  1  0  0  0  0
  4 14  1  0  0  0  0
  5  6  1  0  0  0  0
  5 21  1  0  0  0  0
  6  7  2  0  0  0  0
  6  8  1  0  0  0  0
  8  9  1  0  0  0  0
  8 22  1  0  0  0  0
  9 10  1  0  0  0  0
  9 11  1  0  0  0  0
  9 23  1  0  0  0  0
 10 24  1  0  0  0  0
 10 25  1  0  0  0  0
 10 26  1  0  0  0  0
 11 13  1  0  0  0  0
 11 12  1  0  0  0  0
 11 27  1  0  0  0  0
 12 13  1  0  0  0  0
 12 28  1  0  0  0  0
 12 29  1  0  0  0  0
 13 30  1  0  0  0  0
 13 31  1  0  0  0  0
 14 15  1  0  0  0  0
 14 16  1  0  0  0  0
 15 32  1  0  0  0  0
 15 33  1  0  0  0  0
 15 34  1  0  0  0  0
M  END
> <s_m_source_file>
AV-unprocessed.smi

> <i_m_source_file_index>
1259

> <i_lp_mmshare_version>
43012

> <i_f3d_flags>
0

> <s_epik_input>
W0NIM11jMVtjSF1jKG4objEpW0NIM10pW05IXUMoPU8pW05IXVtDQEhdKFtDSDNdKVtDSF0yW0NIMl1bQ0gyXTI=

> <s_epik_cmdline>
J2VwaWtfcHl0aG9uJywgJy1waCcsICc3LjAnLCAnLXRuJywgJzgnLCAnLW1hJywgJzIwMCcsICctbWV0YWxfYmluZGluZycsICctaW1hZScsICc8aW5maWxlLm1hZT4nLCAnLW9tYWUnLCAnPG91dGZpbGUubWFlPic=

> <r_lp_tautomer_probability>
1

> <r_epik_Ionization_Penalty>
0.000100032

> <r_epik_Ionization_Penalty_Charging>
0

> <r_epik_Ionization_Penalty_Neutral>
0.000100032

> <r_epik_State_Penalty>
-0

> <r_epik_Charging_Adjusted_Penalty>
0

> <i_epik_Tot_Q>
0

> <i_epik_Tot_abs_Q>
0

> <r_epik_Metal_State_Penalty>
-0

> <b_epik_Metal_Only>
0

> <s_lp_Force_Field>
OPLS_2005

> <r_lp_Energy>
14.2457

> <b_lp_Chiralities_Consistent>
1

> <s_lp_Variant>
AV-unprocessed.smi:1259-1

> <Gold.Version>
5.8.1

> <Gold.Id.Protein>
6NUR|6NUR_protein|mol2

> <Gold.PLP.Fitness>
41.8917

> <Gold.PLP.PLP>
-38.0381

> <Gold.PLP.part.hbond>
-3.6268

> <Gold.PLP.part.metal>
0.0000

> <Gold.PLP.part.buried>
-2.8533

> <Gold.PLP.part.nonpolar>
-32.0608

> <Gold.PLP.part.repulsive>
0.2178

> <Gold.PLP.ligand.clash>
0.0000

> <Gold.PLP.ligand.torsion>
1.0968

> <Gold.PLP.Chemscore.Hbond>
1.6598

> <Gold.PLP.Chemscore.CHOScore>
0.0000

> <Gold.PLP.Chemscore.Metal>
0.0000

> <Gold.Chemscore.Hbonds>
donor molecule, donor type, donor heavy atom, donor atom, acceptor molecule, acceptor atom, score
      L1  H     5    21       P1  8028  1.00
      L1  H     8    22       P1  8029  0.68

> <Gold.PLP.Chemscore.Internal.Correction>
1.0680

> <Gold.Rescore>
     Score         DG    S(hbond)    S(metal)    S(lipo)     H(rot)  DE(clash)    DE(int)     intcor
     12.42     -15.25       1.05        0.00      79.85       1.20       0.81       2.02       ----

> <Gold.Chemscore.Fitness>
12.4156

> <Gold.Chemscore.DG>
-15.2456

> <Gold.Chemscore.ZeroCoef>
-5.4800

> <Gold.Chemscore.Hbond>
1.0456

> <Gold.Chemscore.Metal>
0.0000

> <Gold.Chemscore.Lipo>
79.8533

> <Gold.Chemscore.Internal_Hbond>
0.0000

> <Gold.Chemscore.DEClash>
0.8105

> <Gold.Chemscore.DEInternal>
2.0195

> <Gold.Chemscore.Rot>
1.1990

> <Gold.Chemscore.Internal.Correction>
   9.000000E+99

> <Gold.Chemscore.Hbonds>
donor molecule, donor type, donor heavy atom, donor atom, acceptor molecule, acceptor atom, score
      L1  H     5    21       P1  8028  0.98
      L1  H     8    22       P1  8029  0.07

> <Gold.Chemscore.Hbond.Weighted>
-3.4923

> <Gold.Chemscore.Metal.Weighted>
-0.0000

> <Gold.Chemscore.Lipo.Weighted>
-9.3428

> <Gold.Chemscore.Internal_Hbond.Weighted>
0.0000

> <Gold.Chemscore.DEClash.Weighted>
0.8105

> <Gold.Chemscore.DEInternal.Weighted>
2.0195

> <Gold.Chemscore.Rot.Weighted>
3.0695

> <Gold.Chemscore.Internal.Correction.Weighted>
   9.000000E+99

> <Gold.Protein.RotatedTorsions>
[ 6907 6896 6895 6894 ] final  153.51 input  -60.11 | X-H torsion
[ 7974 7965 7964 7962 ] final  166.36 input  175.53 | X-H torsion
[ 8008 7997 7996 7995 ] final  -56.81 input   59.86 | X-H torsion
[ 10167 10162 10161 10158 ] final  115.28 input  -65.29 | X-H torsion
[ 10718 10713 10712 10709 ] final  -37.36 input   66.30 | X-H torsion
[ 10763 10752 10751 10750 ] final  -93.75 input  -60.55 | X-H torsion
[ 11005 11000 10999 10996 ] final  162.12 input  -57.11 | X-H torsion

> <Gold.Protein.ActiveResidues>
 VAL166  LYS551  ARG553  GLY616  TRP617  ASP618  TYR619  PRO620  LYS621  CYS622 
 ASP623  PHE694  ASN695  SER759  ASP760  ASP761  ALA762  ILE779  LEU786  VAL792 
 PHE793  MET794  SER795  GLU796  ALA797  LYS798  CYS799  TRP800  GLU811  SER814 

> <Gold.Protein.RotatedAtoms>
  152.0717  133.4110  159.4461 H   0  0  0  0  0  0  0  0  0  0  0  0  # atno 6907 bound_to 6896
  150.6863  134.3084  159.4745 H   0  0  0  0  0  0  0  0  0  0  0  0  # atno 6908 bound_to 6896
  152.0916  134.9402  160.0622 H   0  0  0  0  0  0  0  0  0  0  0  0  # atno 6909 bound_to 6896
  144.7466  139.8603  143.6380 H   0  0  0  0  0  0  0  0  0  0  0  0  # atno 7974 bound_to 7965
  154.4244  140.1121  156.5698 H   0  0  0  0  0  0  0  0  0  0  0  0  # atno 8008 bound_to 7997
  155.6224  140.3495  155.4637 H   0  0  0  0  0  0  0  0  0  0  0  0  # atno 8009 bound_to 7997
  156.0013  140.1200  157.0534 H   0  0  0  0  0  0  0  0  0  0  0  0  # atno 8010 bound_to 7997
  139.6328  144.7117  151.2396 H   0  0  0  0  0  0  0  0  0  0  0  0  # atno 10167 bound_to 10162
  156.3161  130.4259  149.8004 H   0  0  0  0  0  0  0  0  0  0  0  0  # atno 10718 bound_to 10713
  154.6989  135.5183  153.8499 H   0  0  0  0  0  0  0  0  0  0  0  0  # atno 10763 bound_to 10752
  153.0689  135.6594  154.0301 H   0  0  0  0  0  0  0  0  0  0  0  0  # atno 10764 bound_to 10752
  154.0164  135.2997  155.3366 H   0  0  0  0  0  0  0  0  0  0  0  0  # atno 10765 bound_to 10752
  140.2226  134.8185  157.3236 H   0  0  0  0  0  0  0  0  0  0  0  0  # atno 11005 bound_to 11000
  146.1353  139.4397  143.0143 LP  0  0  0  0  0  0  0  0  0  0  0  0  # atno 17320 bound_to 7965
  145.7101  141.0109  143.1458 LP  0  0  0  0  0  0  0  0  0  0  0  0  # atno 17321 bound_to 7965
  140.7449  143.6449  150.8301 LP  0  0  0  0  0  0  0  0  0  0  0  0  # atno 17342 bound_to 10162
  140.0076  143.5677  152.2851 LP  0  0  0  0  0  0  0  0  0  0  0  0  # atno 17343 bound_to 10162
  156.5329  130.8266  151.3243 LP  0  0  0  0  0  0  0  0  0  0  0  0  # atno 17370 bound_to 10713
  157.7402  130.9845  150.2361 LP  0  0  0  0  0  0  0  0  0  0  0  0  # atno 17371 bound_to 10713
  140.1834  134.4461  155.7758 LP  0  0  0  0  0  0  0  0  0  0  0  0  # atno 17394 bound_to 11000
  141.2222  133.6994  156.7906 LP  0  0  0  0  0  0  0  0  0  0  0  0  # atno 17395 bound_to 11000

$$$$
