AV-unprocessed.smi:1524|AV-procd|sdf|6139|dock9
  -GOLD-   22720 6283D 1   1.00000     0.00000
 Structure written by MMmdl.
 35 36  0  0  0  0  0  0  0  0  1 V2000
  150.2793  135.1870  155.9862 O   0  0  0  0  0  0  0  0  0  0  0  0
  149.7316  135.4594  154.9202 C   0  0  0  0  0  0  0  0  0  0  0  0
  149.2796  134.5566  154.0255 N   0  0  0  0  0  0  0  0  0  0  0  0
  149.2910  133.1541  154.0903 C   0  0  0  0  0  0  0  0  0  0  0  0
  150.1791  132.4172  154.8071 C   0  0  0  0  0  0  0  0  0  0  0  0
  150.1283  130.9650  154.8378 C   0  0  0  0  0  0  0  0  0  0  0  0
  151.1759  130.1471  155.5770 C   0  0  0  0  0  0  0  0  0  0  0  0
  152.0731  130.9343  156.1718 F   0  0  0  0  0  0  0  0  0  0  0  0
  150.6128  129.3764  156.5077 F   0  0  0  0  0  0  0  0  0  0  0  0
  151.8206  129.3571  154.7194 F   0  0  0  0  0  0  0  0  0  0  0  0
  149.1574  130.3830  154.1094 C   0  0  0  0  0  0  0  0  0  0  0  0
  148.2262  131.1348  153.3893 N   0  0  0  0  0  0  0  0  0  0  0  0
  148.2216  132.4854  153.3314 C   0  0  0  0  0  0  0  0  0  0  0  0
  147.3641  133.0770  152.6761 O   0  0  0  0  0  0  0  0  0  0  0  0
  149.5653  136.7384  154.5366 N   0  0  0  0  0  0  0  0  0  0  0  0
  149.9363  137.9601  155.2549 C   0  0  0  0  0  0  0  0  0  0  0  0
  149.3694  139.2091  154.5552 C   0  0  0  0  0  0  0  0  0  0  0  0
  149.9080  140.4917  155.2100 C   0  0  0  0  0  0  0  0  0  0  0  0
  151.3313  140.4881  155.1929 O   0  0  0  0  0  0  0  0  0  0  0  0
  151.8911  139.4130  155.9393 C   0  0  0  0  0  0  0  0  0  0  0  0
  151.4670  138.0697  155.3239 C   0  0  0  0  0  0  0  0  0  0  0  0
  147.5167  130.6243  152.8833 H   0  0  0  0  0  0  0  0  0  0  0  0
  148.9204  134.9319  153.1597 H   0  0  0  0  0  0  0  0  0  0  0  0
  150.9441  132.8934  155.3985 H   0  0  0  0  0  0  0  0  0  0  0  0
  149.0224  129.3153  154.0184 H   0  0  0  0  0  0  0  0  0  0  0  0
  149.1533  136.8794  153.6253 H   0  0  0  0  0  0  0  0  0  0  0  0
  149.5585  137.9175  156.2782 H   0  0  0  0  0  0  0  0  0  0  0  0
  149.6486  139.2023  153.5005 H   0  0  0  0  0  0  0  0  0  0  0  0
  148.2794  139.2090  154.5886 H   0  0  0  0  0  0  0  0  0  0  0  0
  149.5519  141.3671  154.6669 H   0  0  0  0  0  0  0  0  0  0  0  0
  149.5470  140.5850  156.2355 H   0  0  0  0  0  0  0  0  0  0  0  0
  152.9772  139.5040  155.9261 H   0  0  0  0  0  0  0  0  0  0  0  0
  151.5789  139.4790  156.9826 H   0  0  0  0  0  0  0  0  0  0  0  0
  151.8790  137.2458  155.9077 H   0  0  0  0  0  0  0  0  0  0  0  0
  151.8917  137.9863  154.3224 H   0  0  0  0  0  0  0  0  0  0  0  0
  1  2  2  0  0  0  0
  2  3  1  0  0  0  0
  2 15  1  0  0  0  0
  3  4  1  0  0  0  0
  3 23  1  0  0  0  0
  4 13  1  0  0  0  0
  4  5  2  0  0  0  0
  5  6  1  0  0  0  0
  5 24  1  0  0  0  0
  6  7  1  0  0  0  0
  6 11  2  0  0  0  0
  7  8  1  0  0  0  0
  7  9  1  0  0  0  0
  7 10  1  0  0  0  0
 11 12  1  0  0  0  0
 11 25  1  0  0  0  0
 12 22  1  0  0  0  0
 12 13  1  0  0  0  0
 13 14  2  0  0  0  0
 15 16  1  0  0  0  0
 15 26  1  0  0  0  0
 16 21  1  0  0  0  0
 16 17  1  0  0  0  0
 16 27  1  0  0  0  0
 17 18  1  0  0  0  0
 17 28  1  0  0  0  0
 17 29  1  0  0  0  0
 18 19  1  0  0  0  0
 18 30  1  0  0  0  0
 18 31  1  0  0  0  0
 19 20  1  0  0  0  0
 20 21  1  0  0  0  0
 20 32  1  0  0  0  0
 20 33  1  0  0  0  0
 21 34  1  0  0  0  0
 21 35  1  0  0  0  0
M  END
> <s_m_source_file>
AV-unprocessed.smi

> <i_m_source_file_index>
1524

> <i_lp_mmshare_version>
43012

> <i_f3d_flags>
0

> <s_epik_input>
W0NIMl0xW0NIMl1PW0NIMl1bQ0gyXVtDSF0xW05IXUMoPU8pW05IXWMyW2NIXWMoQyhGKShGKUYpW2NIXVtuSF1jMj1P

> <s_epik_cmdline>
J2VwaWtfcHl0aG9uJywgJy1waCcsICc3LjAnLCAnLXRuJywgJzgnLCAnLW1hJywgJzIwMCcsICctbWV0YWxfYmluZGluZycsICctaW1hZScsICc8aW5maWxlLm1hZT4nLCAnLW9tYWUnLCAnPG91dGZpbGUubWFlPic=

> <r_lp_tautomer_probability>
1

> <r_epik_Ionization_Penalty>
0.00380781

> <r_epik_Ionization_Penalty_Charging>
0.00378827

> <r_epik_Ionization_Penalty_Neutral>
1.95401e-05

> <r_epik_State_Penalty>
-0

> <r_epik_Charging_Adjusted_Penalty>
0.00378827

> <i_epik_Tot_Q>
0

> <i_epik_Tot_abs_Q>
0

> <r_epik_Metal_State_Penalty>
0.371078

> <b_epik_Metal_Only>
0

> <s_lp_Force_Field>
OPLS_2005

> <r_lp_Energy>
30.03

> <b_lp_Chiralities_Consistent>
1

> <s_lp_Variant>
AV-unprocessed.smi:1524-1

> <Gold.Version>
5.8.1

> <Gold.Id.Protein>
6NUR|6NUR_protein|mol2

> <Gold.PLP.Fitness>
42.0635

> <Gold.PLP.PLP>
-34.1144

> <Gold.PLP.part.hbond>
-3.5060

> <Gold.PLP.part.metal>
0.0000

> <Gold.PLP.part.buried>
-3.7003

> <Gold.PLP.part.nonpolar>
-27.6742

> <Gold.PLP.part.repulsive>
0.2758

> <Gold.PLP.ligand.clash>
0.0000

> <Gold.PLP.ligand.torsion>
0.2381

> <Gold.PLP.Chemscore.Hbond>
2.7984

> <Gold.PLP.Chemscore.CHOScore>
0.0000

> <Gold.PLP.Chemscore.Metal>
0.0000

> <Gold.Chemscore.Hbonds>
donor molecule, donor type, donor heavy atom, donor atom, acceptor molecule, acceptor atom, score
      L1  H     3    23       P1  7948  0.94
      L1  H    15    26       P1  7948  0.93
      P1  H  7989  7998       L1    19  0.93

> <Gold.PLP.Chemscore.Internal.Correction>
0.0301

> <Gold.Rescore>
     Score         DG    S(hbond)    S(metal)    S(lipo)     H(rot)  DE(clash)    DE(int)     intcor
     14.68     -15.94       1.99        0.00      54.57       1.00       0.01       1.25       ----

> <Gold.Chemscore.Fitness>
14.6797

> <Gold.Chemscore.DG>
-15.9390

> <Gold.Chemscore.ZeroCoef>
-5.4800

> <Gold.Chemscore.Hbond>
1.9864

> <Gold.Chemscore.Metal>
0.0000

> <Gold.Chemscore.Lipo>
54.5677

> <Gold.Chemscore.Internal_Hbond>
0.0000

> <Gold.Chemscore.DEClash>
0.0126

> <Gold.Chemscore.DEInternal>
1.2467

> <Gold.Chemscore.Rot>
1.0000

> <Gold.Chemscore.Internal.Correction>
   9.000000E+99

> <Gold.Chemscore.Hbonds>
donor molecule, donor type, donor heavy atom, donor atom, acceptor molecule, acceptor atom, score
      L1  H     3    23       P1  7948  0.20
      L1  H    15    26       P1  7948  0.89
      P1  H  7989  7998       L1    19  0.27

> <Gold.Chemscore.Hbond.Weighted>
-6.6346

> <Gold.Chemscore.Metal.Weighted>
-0.0000

> <Gold.Chemscore.Lipo.Weighted>
-6.3844

> <Gold.Chemscore.Internal_Hbond.Weighted>
0.0000

> <Gold.Chemscore.DEClash.Weighted>
0.0126

> <Gold.Chemscore.DEInternal.Weighted>
1.2467

> <Gold.Chemscore.Rot.Weighted>
2.5600

> <Gold.Chemscore.Internal.Correction.Weighted>
   9.000000E+99

> <Gold.Protein.RotatedTorsions>
[ 6907 6896 6895 6894 ] final  -90.42 input  -60.11 | X-H torsion
[ 7974 7965 7964 7962 ] final  -51.09 input  175.53 | X-H torsion
[ 8008 7997 7996 7995 ] final    9.10 input   59.86 | X-H torsion
[ 10167 10162 10161 10158 ] final   35.20 input  -65.29 | X-H torsion
[ 10718 10713 10712 10709 ] final   56.48 input   66.30 | X-H torsion
[ 10763 10752 10751 10750 ] final -149.82 input  -60.55 | X-H torsion
[ 11005 11000 10999 10996 ] final -147.91 input  -57.11 | X-H torsion

> <Gold.Protein.ActiveResidues>
 VAL166  LYS551  ARG553  GLY616  TRP617  ASP618  TYR619  PRO620  LYS621  CYS622 
 ASP623  PHE694  ASN695  SER759  ASP760  ASP761  ALA762  ILE779  LEU786  VAL792 
 PHE793  MET794  SER795  GLU796  ALA797  LYS798  CYS799  TRP800  GLU811  SER814 

> <Gold.Protein.RotatedAtoms>
  150.6881  134.2435  159.4481 H   0  0  0  0  0  0  0  0  0  0  0  0  # atno 6907 bound_to 6896
  152.0378  134.9727  160.0583 H   0  0  0  0  0  0  0  0  0  0  0  0  # atno 6908 bound_to 6896
  152.1241  133.4335  159.4726 H   0  0  0  0  0  0  0  0  0  0  0  0  # atno 6909 bound_to 6896
  145.9228  140.7819  142.9639 H   0  0  0  0  0  0  0  0  0  0  0  0  # atno 7974 bound_to 7965
  154.7756  140.2809  155.6104 H   0  0  0  0  0  0  0  0  0  0  0  0  # atno 8008 bound_to 7997
  156.2941  140.2633  156.2497 H   0  0  0  0  0  0  0  0  0  0  0  0  # atno 8009 bound_to 7997
  154.9847  140.0374  157.2283 H   0  0  0  0  0  0  0  0  0  0  0  0  # atno 8010 bound_to 7997
  140.4244  144.1414  150.6151 H   0  0  0  0  0  0  0  0  0  0  0  0  # atno 10167 bound_to 10162
  157.5434  130.8713  149.8855 H   0  0  0  0  0  0  0  0  0  0  0  0  # atno 10718 bound_to 10713
  154.8155  135.3299  154.7187 H   0  0  0  0  0  0  0  0  0  0  0  0  # atno 10763 bound_to 10752
  153.7829  135.6917  153.4889 H   0  0  0  0  0  0  0  0  0  0  0  0  # atno 10764 bound_to 10752
  153.1968  135.4530  155.0165 H   0  0  0  0  0  0  0  0  0  0  0  0  # atno 10765 bound_to 10752
  140.7667  134.3236  157.5086 H   0  0  0  0  0  0  0  0  0  0  0  0  # atno 11005 bound_to 11000
  144.6755  140.2002  143.7388 LP  0  0  0  0  0  0  0  0  0  0  0  0  # atno 17320 bound_to 7965
  145.8528  139.2184  143.1762 LP  0  0  0  0  0  0  0  0  0  0  0  0  # atno 17321 bound_to 7965
  140.4497  143.2492  151.9364 LP  0  0  0  0  0  0  0  0  0  0  0  0  # atno 17342 bound_to 10162
  139.4783  144.5574  151.8292 LP  0  0  0  0  0  0  0  0  0  0  0  0  # atno 17343 bound_to 10162
  156.0515  130.3716  150.1189 LP  0  0  0  0  0  0  0  0  0  0  0  0  # atno 17370 bound_to 10713
  156.9368  130.9731  151.3523 LP  0  0  0  0  0  0  0  0  0  0  0  0  # atno 17371 bound_to 10713
  139.8762  134.9236  156.3328 LP  0  0  0  0  0  0  0  0  0  0  0  0  # atno 17394 bound_to 11000
  140.9612  133.7387  156.0404 LP  0  0  0  0  0  0  0  0  0  0  0  0  # atno 17395 bound_to 11000

$$$$
