AV-unprocessed.smi:1626|AV-procd|sdf|6508|dock2
  -GOLD-   22720 7173D 1   1.00000     0.00000
 Structure written by MMmdl.
 48 50  0  0  0  0  0  0  0  0  2 V2000
  153.4726  142.2205  160.8289 C   0  0  0  0  0  0  0  0  0  0  0  0
  152.5919  142.0326  159.6063 C   0  0  0  0  0  0  0  0  0  0  0  0
  152.7702  140.8850  158.8015 C   0  0  0  0  0  0  0  0  0  0  0  0
  151.9741  140.6735  157.6548 C   0  0  0  0  0  0  0  0  0  0  0  0
  151.9793  139.6385  156.7360 N   0  0  0  0  0  0  0  0  0  0  0  0
  151.0119  140.0127  155.9046 C   0  0  0  0  0  0  0  0  0  0  0  0
  150.3880  141.1773  156.1681 N   0  0  0  0  0  0  0  0  0  0  0  0
  149.3177  141.7893  155.4006 C   0  0  0  0  0  0  0  0  0  0  0  0
  148.7023  140.8267  154.3647 C   0  0  2  0  0  0  0  0  0  0  0  0
  149.5389  140.8340  153.2253 O   0  0  0  0  0  0  0  0  0  0  0  0
  147.2665  141.2114  153.9403 C   0  0  0  0  0  0  0  0  0  0  0  0
  146.4709  140.0381  153.4976 N   0  3  2  0  0  0  0  0  0  0  0  0
  146.1229  139.1350  154.6245 C   0  0  0  0  0  0  0  0  0  0  0  0
  145.1738  138.0126  154.1666 C   0  0  0  0  0  0  0  0  0  0  0  0
  145.7500  137.2185  152.9828 C   0  0  2  0  0  0  0  0  0  0  0  0
  146.8473  136.4371  153.4115 O   0  0  0  0  0  0  0  0  0  0  0  0
  146.1847  138.1738  151.8589 C   0  0  0  0  0  0  0  0  0  0  0  0
  147.1073  139.2910  152.3793 C   0  0  0  0  0  0  0  0  0  0  0  0
  150.9860  141.6494  157.3322 C   0  0  0  0  0  0  0  0  0  0  0  0
  150.7951  142.7923  158.1290 C   0  0  0  0  0  0  0  0  0  0  0  0
  151.6021  142.9902  159.2687 C   0  0  0  0  0  0  0  0  0  0  0  0
  151.3942  144.2322  160.1171 C   0  0  0  0  0  0  0  0  0  0  0  0
  154.1212  141.3586  160.9887 H   0  0  0  0  0  0  0  0  0  0  0  0
  152.8652  142.3503  161.7249 H   0  0  0  0  0  0  0  0  0  0  0  0
  154.1060  143.0998  160.7089 H   0  0  0  0  0  0  0  0  0  0  0  0
  153.5236  140.1550  159.0591 H   0  0  0  0  0  0  0  0  0  0  0  0
  150.7486  139.4098  155.0476 H   0  0  0  0  0  0  0  0  0  0  0  0
  148.5507  142.1396  156.0934 H   0  0  0  0  0  0  0  0  0  0  0  0
  149.7193  142.6742  154.9049 H   0  0  0  0  0  0  0  0  0  0  0  0
  148.7221  139.8204  154.7794 H   0  0  0  0  0  0  0  0  0  0  0  0
  149.3129  140.1028  152.6714 H   0  0  0  0  0  0  0  0  0  0  0  0
  146.7279  141.6993  154.7534 H   0  0  0  0  0  0  0  0  0  0  0  0
  147.3301  141.9508  153.1404 H   0  0  0  0  0  0  0  0  0  0  0  0
  147.0347  138.7128  155.0500 H   0  0  0  0  0  0  0  0  0  0  0  0
  145.6385  139.7056  155.4178 H   0  0  0  0  0  0  0  0  0  0  0  0
  144.9518  137.3442  154.9996 H   0  0  0  0  0  0  0  0  0  0  0  0
  144.2212  138.4535  153.8697 H   0  0  0  0  0  0  0  0  0  0  0  0
  144.9923  136.5311  152.6050 H   0  0  0  0  0  0  0  0  0  0  0  0
  147.4668  136.3682  152.7004 H   0  0  0  0  0  0  0  0  0  0  0  0
  146.6785  137.6197  151.0595 H   0  0  0  0  0  0  0  0  0  0  0  0
  145.2984  138.6258  151.4115 H   0  0  0  0  0  0  0  0  0  0  0  0
  147.3445  139.9638  151.5561 H   0  0  0  0  0  0  0  0  0  0  0  0
  148.0554  138.8689  152.7159 H   0  0  0  0  0  0  0  0  0  0  0  0
  150.0342  143.5121  157.8665 H   0  0  0  0  0  0  0  0  0  0  0  0
  150.6424  144.8908  159.6812 H   0  0  0  0  0  0  0  0  0  0  0  0
  152.3224  144.7973  160.2036 H   0  0  0  0  0  0  0  0  0  0  0  0
  151.0602  143.9585  161.1182 H   0  0  0  0  0  0  0  0  0  0  0  0
  145.5948  140.4027  153.1526 H   0  0  0  0  0  0  0  0  0  0  0  0
  1  2  1  0  0  0  0
  1 23  1  0  0  0  0
  1 24  1  0  0  0  0
  1 25  1  0  0  0  0
  2 21  1  0  0  0  0
  2  3  2  0  0  0  0
  3  4  1  0  0  0  0
  3 26  1  0  0  0  0
  4 19  2  0  0  0  0
  4  5  1  0  0  0  0
  5  6  2  0  0  0  0
  6  7  1  0  0  0  0
  6 27  1  0  0  0  0
  7  8  1  0  0  0  0
  7 19  1  0  0  0  0
  8  9  1  0  0  0  0
  8 28  1  0  0  0  0
  8 29  1  0  0  0  0
  9 10  1  0  0  0  0
  9 11  1  0  0  0  0
  9 30  1  0  0  0  0
 10 31  1  0  0  0  0
 11 12  1  0  0  0  0
 11 32  1  0  0  0  0
 11 33  1  0  0  0  0
 12 18  1  0  0  0  0
 12 13  1  0  0  0  0
 12 48  1  0  0  0  0
 13 14  1  0  0  0  0
 13 34  1  0  0  0  0
 13 35  1  0  0  0  0
 14 15  1  0  0  0  0
 14 36  1  0  0  0  0
 14 37  1  0  0  0  0
 15 16  1  0  0  0  0
 15 17  1  0  0  0  0
 15 38  1  0  0  0  0
 16 39  1  0  0  0  0
 17 18  1  0  0  0  0
 17 40  1  0  0  0  0
 17 41  1  0  0  0  0
 18 42  1  0  0  0  0
 18 43  1  0  0  0  0
 19 20  1  0  0  0  0
 20 21  2  0  0  0  0
 20 44  1  0  0  0  0
 21 22  1  0  0  0  0
 22 45  1  0  0  0  0
 22 46  1  0  0  0  0
 22 47  1  0  0  0  0
M  CHG  1  12   1
M  END
> <s_m_source_file>
AV-unprocessed.smi

> <i_m_source_file_index>
1626

> <i_lp_mmshare_version>
43012

> <i_f3d_flags>
0

> <s_epik_input>
W0NIM11jKFtjSF0xKWMoW0NIM10pW2NIXWMoYzEyKW4oW2NIXW4yKVtDSDJdW0NASF0oW09IXSlbQ0gyXU4zW0NIMl1bQ0gyXVtDSF0oW09IXSlbQ0gyXVtDSDJdMw==

> <s_epik_cmdline>
J2VwaWtfcHl0aG9uJywgJy1waCcsICc3LjAnLCAnLXRuJywgJzgnLCAnLW1hJywgJzIwMCcsICctbWV0YWxfYmluZGluZycsICctaW1hZScsICc8aW5maWxlLm1hZT4nLCAnLW9tYWUnLCAnPG91dGZpbGUubWFlPic=

> <r_epik_Ionization_Penalty>
0.106584

> <r_epik_Ionization_Penalty_Charging>
0.0185694

> <r_epik_Ionization_Penalty_Neutral>
0.0880147

> <r_epik_State_Penalty>
0.0908428

> <r_epik_Charging_Adjusted_Penalty>
0.109412

> <i_epik_Tot_Q>
1

> <i_epik_Tot_abs_Q>
1

> <r_epik_Metal_State_Penalty>
0.0153739

> <b_epik_Metal_Only>
0

> <s_lp_Force_Field>
OPLS_2005

> <r_lp_Energy>
24.9536

> <b_lp_Chiralities_Consistent>
1

> <s_lp_Variant>
AV-unprocessed.smi:1626-3

> <Gold.Version>
5.8.1

> <Gold.Id.Protein>
6NUR|6NUR_protein|mol2

> <Gold.PLP.Fitness>
56.3152

> <Gold.PLP.PLP>
-44.0156

> <Gold.PLP.part.hbond>
-3.4847

> <Gold.PLP.part.metal>
0.0000

> <Gold.PLP.part.buried>
-1.1542

> <Gold.PLP.part.nonpolar>
-40.2974

> <Gold.PLP.part.repulsive>
0.0000

> <Gold.PLP.ligand.clash>
0.0000

> <Gold.PLP.ligand.torsion>
0.7207

> <Gold.PLP.Chemscore.Hbond>
4.5679

> <Gold.PLP.Chemscore.CHOScore>
0.0000

> <Gold.PLP.Chemscore.Metal>
0.0000

> <Gold.Chemscore.Hbonds>
donor molecule, donor type, donor heavy atom, donor atom, acceptor molecule, acceptor atom, score
      L1  H    10    31       P1  7957  0.48
      L1  H    12    48       P1 10175  2.00
      L1  H    16    39       P1  7948  1.00
      P1  H  7989  7998       L1    10  0.20
      P1  H  7997  8009       L1     5  0.01
      P1  H  8011  8017       L1    10  1.00

> <Gold.PLP.Chemscore.Internal.Correction>
0.0373

> <Gold.Rescore>
     Score         DG    S(hbond)    S(metal)    S(lipo)     H(rot)  DE(clash)    DE(int)     intcor
     21.26     -22.71       3.21        0.00     114.15       2.67       0.02       1.42       ----

> <Gold.Chemscore.Fitness>
21.2636

> <Gold.Chemscore.DG>
-22.7103

> <Gold.Chemscore.ZeroCoef>
-5.4800

> <Gold.Chemscore.Hbond>
3.2076

> <Gold.Chemscore.Metal>
0.0000

> <Gold.Chemscore.Lipo>
114.1484

> <Gold.Chemscore.Internal_Hbond>
0.0000

> <Gold.Chemscore.DEClash>
0.0224

> <Gold.Chemscore.DEInternal>
1.4243

> <Gold.Chemscore.Rot>
2.6712

> <Gold.Chemscore.Internal.Correction>
   9.000000E+99

> <Gold.Chemscore.Hbonds>
donor molecule, donor type, donor heavy atom, donor atom, acceptor molecule, acceptor atom, score
      L1  H    10    31       P1  7957  0.45
      L1  H    12    48       P1 10175  0.88
      L1  H    16    39       P1  7948  1.00
      P1  H  7989  7998       L1    10  0.13
      P1  H  8011  8017       L1    10  0.85

> <Gold.Chemscore.Hbond.Weighted>
-10.7133

> <Gold.Chemscore.Metal.Weighted>
-0.0000

> <Gold.Chemscore.Lipo.Weighted>
-13.3554

> <Gold.Chemscore.Internal_Hbond.Weighted>
0.0000

> <Gold.Chemscore.DEClash.Weighted>
0.0224

> <Gold.Chemscore.DEInternal.Weighted>
1.4243

> <Gold.Chemscore.Rot.Weighted>
6.8383

> <Gold.Chemscore.Internal.Correction.Weighted>
   9.000000E+99

> <Gold.Protein.RotatedTorsions>
[ 6907 6896 6895 6894 ] final   42.71 input  -60.11 | X-H torsion
[ 7974 7965 7964 7962 ] final   54.37 input  175.53 | X-H torsion
[ 8008 7997 7996 7995 ] final -168.89 input   59.86 | X-H torsion
[ 10167 10162 10161 10158 ] final  -74.49 input  -65.29 | X-H torsion
[ 10718 10713 10712 10709 ] final  -75.62 input   66.30 | X-H torsion
[ 10763 10752 10751 10750 ] final  149.47 input  -60.55 | X-H torsion
[ 11005 11000 10999 10996 ] final -131.80 input  -57.11 | X-H torsion

> <Gold.Protein.ActiveResidues>
 VAL166  LYS551  ARG553  GLY616  TRP617  ASP618  TYR619  PRO620  LYS621  CYS622 
 ASP623  PHE694  ASN695  SER759  ASP760  ASP761  ALA762  ILE779  LEU786  VAL792 
 PHE793  MET794  SER795  GLU796  ALA797  LYS798  CYS799  TRP800  GLU811  SER814 

> <Gold.Protein.RotatedAtoms>
  152.2113  134.8499  160.0496 H   0  0  0  0  0  0  0  0  0  0  0  0  # atno 6907 bound_to 6896
  151.9316  133.3608  159.3941 H   0  0  0  0  0  0  0  0  0  0  0  0  # atno 6908 bound_to 6896
  150.6977  134.4456  159.5356 H   0  0  0  0  0  0  0  0  0  0  0  0  # atno 6909 bound_to 6896
  145.9615  139.4064  143.0245 H   0  0  0  0  0  0  0  0  0  0  0  0  # atno 7974 bound_to 7965
  155.8976  140.1035  157.1373 H   0  0  0  0  0  0  0  0  0  0  0  0  # atno 8008 bound_to 7997
  154.4022  140.1299  156.4459 H   0  0  0  0  0  0  0  0  0  0  0  0  # atno 8009 bound_to 7997
  155.7460  140.3466  155.5130 H   0  0  0  0  0  0  0  0  0  0  0  0  # atno 8010 bound_to 7997
  140.5023  143.2359  151.7732 H   0  0  0  0  0  0  0  0  0  0  0  0  # atno 10167 bound_to 10162
  156.0201  130.4445  150.3070 H   0  0  0  0  0  0  0  0  0  0  0  0  # atno 10718 bound_to 10713
  154.0717  135.2866  155.3307 H   0  0  0  0  0  0  0  0  0  0  0  0  # atno 10763 bound_to 10752
  154.6742  135.5288  153.8181 H   0  0  0  0  0  0  0  0  0  0  0  0  # atno 10764 bound_to 10752
  153.0482  135.6565  154.0898 H   0  0  0  0  0  0  0  0  0  0  0  0  # atno 10765 bound_to 10752
  140.9226  134.1424  157.4301 H   0  0  0  0  0  0  0  0  0  0  0  0  # atno 11005 bound_to 11000
  145.8033  140.9761  143.0987 LP  0  0  0  0  0  0  0  0  0  0  0  0  # atno 17320 bound_to 7965
  144.6816  139.9829  143.7483 LP  0  0  0  0  0  0  0  0  0  0  0  0  # atno 17321 bound_to 7965
  139.4875  144.4505  151.9659 LP  0  0  0  0  0  0  0  0  0  0  0  0  # atno 17342 bound_to 10162
  140.3595  144.2991  150.5936 LP  0  0  0  0  0  0  0  0  0  0  0  0  # atno 17343 bound_to 10162
  157.1172  131.0237  151.3024 LP  0  0  0  0  0  0  0  0  0  0  0  0  # atno 17370 bound_to 10713
  157.4657  130.7679  149.7276 LP  0  0  0  0  0  0  0  0  0  0  0  0  # atno 17371 bound_to 10713
  139.8779  134.9977  156.5860 LP  0  0  0  0  0  0  0  0  0  0  0  0  # atno 17394 bound_to 11000
  140.7967  133.8538  155.8692 LP  0  0  0  0  0  0  0  0  0  0  0  0  # atno 17395 bound_to 11000

$$$$
