AV-unprocessed.smi:1763|AV-procd|sdf|7131|dock1
  -GOLD-   22720 8363D 1   1.00000     0.00000
 Structure written by MMmdl.
 42 43  0  0  0  0  0  0  0  0  3 V2000
  143.9215  146.2265  155.8985 C   0  0  0  0  0  0  0  0  0  0  0  0
  143.9127  144.9194  155.2518 N   0  5  0  0  0  0  0  0  0  0  0  0
  144.2631  143.7661  155.8856 C   0  0  0  0  0  0  0  0  0  0  0  0
  144.7955  143.5801  156.9843 O   0  0  0  0  0  0  0  0  0  0  0  0
  143.9097  142.5400  155.0343 C   0  0  0  0  0  0  0  0  0  0  0  0
  145.1384  141.8494  154.5649 N   0  3  2  0  0  0  0  0  0  0  0  0
  145.8422  141.1366  155.6603 C   0  0  0  0  0  0  0  0  0  0  0  0
  147.0180  140.3034  155.1184 C   0  0  0  0  0  0  0  0  0  0  0  0
  148.0016  141.1537  154.2956 C   0  0  2  0  0  0  0  0  0  0  0  0
  148.7682  142.0423  155.1690 N   0  0  0  0  0  0  0  0  0  0  0  0
  149.5639  141.6441  156.1729 C   0  0  0  0  0  0  0  0  0  0  0  0
  149.7420  140.4620  156.4677 O   0  0  0  0  0  0  0  0  0  0  0  0
  150.1270  142.6951  156.7950 N   0  0  0  0  0  0  0  0  0  0  0  0
  151.0271  142.6849  157.8942 C   0  0  0  0  0  0  0  0  0  0  0  0
  151.5904  143.9399  158.2187 C   0  0  0  0  0  0  0  0  0  0  0  0
  152.4957  144.0355  159.2933 C   0  0  0  0  0  0  0  0  0  0  0  0
  152.8149  142.8725  160.0167 C   0  0  0  0  0  0  0  0  0  0  0  0
  152.2101  141.6629  159.6279 C   0  0  0  0  0  0  0  0  0  0  0  0
  151.3425  141.5689  158.5983 N   0  0  0  0  0  0  0  0  0  0  0  0
  147.2330  141.9375  153.2130 C   0  0  0  0  0  0  0  0  0  0  0  0
  146.0582  142.7361  153.8038 C   0  0  0  0  0  0  0  0  0  0  0  0
  143.5792  147.0128  155.2258 H   0  0  0  0  0  0  0  0  0  0  0  0
  144.9183  146.5178  156.2308 H   0  0  0  0  0  0  0  0  0  0  0  0
  143.2723  146.2638  156.7738 H   0  0  0  0  0  0  0  0  0  0  0  0
  143.2761  141.8498  155.5938 H   0  0  0  0  0  0  0  0  0  0  0  0
  143.3186  142.8846  154.1840 H   0  0  0  0  0  0  0  0  0  0  0  0
  146.1929  141.8590  156.3988 H   0  0  0  0  0  0  0  0  0  0  0  0
  145.1445  140.4735  156.1731 H   0  0  0  0  0  0  0  0  0  0  0  0
  147.5386  139.8098  155.9400 H   0  0  0  0  0  0  0  0  0  0  0  0
  146.6237  139.5053  154.4878 H   0  0  0  0  0  0  0  0  0  0  0  0
  148.7033  140.4756  153.8064 H   0  0  0  0  0  0  0  0  0  0  0  0
  148.6780  143.0338  155.0017 H   0  0  0  0  0  0  0  0  0  0  0  0
  149.8846  143.6089  156.4424 H   0  0  0  0  0  0  0  0  0  0  0  0
  151.3343  144.8240  157.6528 H   0  0  0  0  0  0  0  0  0  0  0  0
  152.9371  144.9852  159.5573 H   0  0  0  0  0  0  0  0  0  0  0  0
  153.5050  142.9061  160.8467 H   0  0  0  0  0  0  0  0  0  0  0  0
  152.4283  140.7468  160.1568 H   0  0  0  0  0  0  0  0  0  0  0  0
  147.9039  142.6045  152.6704 H   0  0  0  0  0  0  0  0  0  0  0  0
  146.8456  141.2359  152.4729 H   0  0  0  0  0  0  0  0  0  0  0  0
  145.5209  143.2271  152.9919 H   0  0  0  0  0  0  0  0  0  0  0  0
  146.4281  143.5276  154.4574 H   0  0  0  0  0  0  0  0  0  0  0  0
  144.8134  141.1394  153.9231 H   0  0  0  0  0  0  0  0  0  0  0  0
  1  2  1  0  0  0  0
  1 22  1  0  0  0  0
  1 23  1  0  0  0  0
  1 24  1  0  0  0  0
  2  3  1  0  0  0  0
  3  4  2  0  0  0  0
  3  5  1  0  0  0  0
  5  6  1  0  0  0  0
  5 25  1  0  0  0  0
  5 26  1  0  0  0  0
  6 21  1  0  0  0  0
  6  7  1  0  0  0  0
  6 42  1  0  0  0  0
  7  8  1  0  0  0  0
  7 27  1  0  0  0  0
  7 28  1  0  0  0  0
  8  9  1  0  0  0  0
  8 29  1  0  0  0  0
  8 30  1  0  0  0  0
  9 10  1  0  0  0  0
  9 20  1  0  0  0  0
  9 31  1  0  0  0  0
 10 11  1  0  0  0  0
 10 32  1  0  0  0  0
 11 12  2  0  0  0  0
 11 13  1  0  0  0  0
 13 14  1  0  0  0  0
 13 33  1  0  0  0  0
 14 19  1  0  0  0  0
 14 15  2  0  0  0  0
 15 16  1  0  0  0  0
 15 34  1  0  0  0  0
 16 17  2  0  0  0  0
 16 35  1  0  0  0  0
 17 18  1  0  0  0  0
 17 36  1  0  0  0  0
 18 19  2  0  0  0  0
 18 37  1  0  0  0  0
 20 21  1  0  0  0  0
 20 38  1  0  0  0  0
 20 39  1  0  0  0  0
 21 40  1  0  0  0  0
 21 41  1  0  0  0  0
M  CHG  1   2  -1
M  CHG  1   6   1
M  END
> <s_m_source_file>
AV-unprocessed.smi

> <i_m_source_file_index>
1763

> <i_lp_mmshare_version>
43012

> <i_f3d_flags>
0

> <s_epik_input>
W0NIM11bTkhdQyg9TylbQ0gyXU4xW0NIMl1bQ0gyXVtDSF0oW0NIMl1bQ0gyXTEpW05IXUMoPU8pW05IXWMyW2NIXVtjSF1bY0hdW2NIXW4y

> <s_epik_cmdline>
J2VwaWtfcHl0aG9uJywgJy1waCcsICc3LjAnLCAnLXRuJywgJzgnLCAnLW1hJywgJzIwMCcsICctbWV0YWxfYmluZGluZycsICctaW1hZScsICc8aW5maWxlLm1hZT4nLCAnLW9tYWUnLCAnPG91dGZpbGUubWFlPic=

> <r_epik_Ionization_Penalty>
6.1395

> <r_epik_Ionization_Penalty_Charging>
6.13946

> <r_epik_Ionization_Penalty_Neutral>
3.77655e-05

> <r_epik_State_Penalty>
6.9595

> <r_epik_Charging_Adjusted_Penalty>
13.099

> <i_epik_Tot_Q>
0

> <i_epik_Tot_abs_Q>
2

> <r_epik_Metal_State_Penalty>
2.8914

> <b_epik_Metal_Only>
1

> <s_lp_Force_Field>
OPLS_2005

> <r_lp_Energy>
12.7162

> <b_lp_Chiralities_Consistent>
1

> <s_lp_Variant>
AV-unprocessed.smi:1763-5

> <Gold.Version>
5.8.1

> <Gold.Id.Protein>
6NUR|6NUR_protein|mol2

> <Gold.PLP.Fitness>
47.7494

> <Gold.PLP.PLP>
-35.9697

> <Gold.PLP.part.hbond>
-3.0000

> <Gold.PLP.part.metal>
0.0000

> <Gold.PLP.part.buried>
-6.6411

> <Gold.PLP.part.nonpolar>
-27.6528

> <Gold.PLP.part.repulsive>
0.4340

> <Gold.PLP.ligand.clash>
0.0000

> <Gold.PLP.ligand.torsion>
0.1361

> <Gold.PLP.Chemscore.Hbond>
3.9920

> <Gold.PLP.Chemscore.CHOScore>
0.0000

> <Gold.PLP.Chemscore.Metal>
0.0000

> <Gold.Chemscore.Hbonds>
donor molecule, donor type, donor heavy atom, donor atom, acceptor molecule, acceptor atom, score
      L1  H     6    42       P1 10175  2.00
      L1  H    10    32       P1  8028  0.98
      L1  H    13    33       P1  8028  1.00

> <Gold.PLP.Chemscore.Internal.Correction>
0.0759

> <Gold.Rescore>
     Score         DG    S(hbond)    S(metal)    S(lipo)     H(rot)  DE(clash)    DE(int)     intcor
     17.25     -20.41       2.77        0.00      85.16       1.67       1.47       1.69       ----

> <Gold.Chemscore.Fitness>
17.2530

> <Gold.Chemscore.DG>
-20.4064

> <Gold.Chemscore.ZeroCoef>
-5.4800

> <Gold.Chemscore.Hbond>
2.7683

> <Gold.Chemscore.Metal>
0.0000

> <Gold.Chemscore.Lipo>
85.1562

> <Gold.Chemscore.Internal_Hbond>
0.0000

> <Gold.Chemscore.DEClash>
1.4671

> <Gold.Chemscore.DEInternal>
1.6862

> <Gold.Chemscore.Rot>
1.6730

> <Gold.Chemscore.Internal.Correction>
   9.000000E+99

> <Gold.Chemscore.Hbonds>
donor molecule, donor type, donor heavy atom, donor atom, acceptor molecule, acceptor atom, score
      L1  H     6    42       P1 10175  0.67
      L1  H    10    32       P1  8028  0.92
      L1  H    13    33       P1  8028  0.98

> <Gold.Chemscore.Hbond.Weighted>
-9.2461

> <Gold.Chemscore.Metal.Weighted>
-0.0000

> <Gold.Chemscore.Lipo.Weighted>
-9.9633

> <Gold.Chemscore.Internal_Hbond.Weighted>
0.0000

> <Gold.Chemscore.DEClash.Weighted>
1.4671

> <Gold.Chemscore.DEInternal.Weighted>
1.6862

> <Gold.Chemscore.Rot.Weighted>
4.2830

> <Gold.Chemscore.Internal.Correction.Weighted>
   9.000000E+99

> <Gold.Protein.RotatedTorsions>
[ 6907 6896 6895 6894 ] final -105.54 input  -60.11 | X-H torsion
[ 7974 7965 7964 7962 ] final  160.10 input  175.53 | X-H torsion
[ 8008 7997 7996 7995 ] final  149.56 input   59.86 | X-H torsion
[ 10167 10162 10161 10158 ] final -121.81 input  -65.29 | X-H torsion
[ 10718 10713 10712 10709 ] final -136.80 input   66.30 | X-H torsion
[ 10763 10752 10751 10750 ] final  -12.18 input  -60.55 | X-H torsion
[ 11005 11000 10999 10996 ] final -119.69 input  -57.11 | X-H torsion

> <Gold.Protein.ActiveResidues>
 VAL166  LYS551  ARG553  GLY616  TRP617  ASP618  TYR619  PRO620  LYS621  CYS622 
 ASP623  PHE694  ASN695  SER759  ASP760  ASP761  ALA762  ILE779  LEU786  VAL792 
 PHE793  MET794  SER795  GLU796  ALA797  LYS798  CYS799  TRP800  GLU811  SER814 

> <Gold.Protein.RotatedAtoms>
  150.7342  134.0112  159.3669 H   0  0  0  0  0  0  0  0  0  0  0  0  # atno 6907 bound_to 6896
  151.8071  135.0689  160.0417 H   0  0  0  0  0  0  0  0  0  0  0  0  # atno 6908 bound_to 6896
  152.3099  133.5706  159.5710 H   0  0  0  0  0  0  0  0  0  0  0  0  # atno 6909 bound_to 6896
  144.7755  139.7710  143.6280 H   0  0  0  0  0  0  0  0  0  0  0  0  # atno 7974 bound_to 7965
  156.2750  140.2098  156.5878 H   0  0  0  0  0  0  0  0  0  0  0  0  # atno 8008 bound_to 7997
  154.7007  140.0521  157.0478 H   0  0  0  0  0  0  0  0  0  0  0  0  # atno 8009 bound_to 7997
  155.0739  140.3179  155.4625 H   0  0  0  0  0  0  0  0  0  0  0  0  # atno 8010 bound_to 7997
  140.0210  143.5344  152.2220 H   0  0  0  0  0  0  0  0  0  0  0  0  # atno 10167 bound_to 10162
  156.2810  130.7321  151.1318 H   0  0  0  0  0  0  0  0  0  0  0  0  # atno 10718 bound_to 10713
  153.4946  135.7017  153.5865 H   0  0  0  0  0  0  0  0  0  0  0  0  # atno 10763 bound_to 10752
  153.4022  135.3869  155.1995 H   0  0  0  0  0  0  0  0  0  0  0  0  # atno 10764 bound_to 10752
  154.8714  135.3884  154.4410 H   0  0  0  0  0  0  0  0  0  0  0  0  # atno 10765 bound_to 10752
  141.0197  134.0142  157.3299 H   0  0  0  0  0  0  0  0  0  0  0  0  # atno 11005 bound_to 11000
  146.1931  139.5182  142.9792 LP  0  0  0  0  0  0  0  0  0  0  0  0  # atno 17320 bound_to 7965
  145.6199  141.0324  143.1920 LP  0  0  0  0  0  0  0  0  0  0  0  0  # atno 17321 bound_to 7965
  139.6140  144.7615  151.2889 LP  0  0  0  0  0  0  0  0  0  0  0  0  # atno 17342 bound_to 10162
  140.7342  143.6772  150.8031 LP  0  0  0  0  0  0  0  0  0  0  0  0  # atno 17343 bound_to 10162
  157.7314  131.0608  150.5678 LP  0  0  0  0  0  0  0  0  0  0  0  0  # atno 17370 bound_to 10713
  156.5784  130.4298  149.5988 LP  0  0  0  0  0  0  0  0  0  0  0  0  # atno 17371 bound_to 10713
  139.9138  135.0194  156.7801 LP  0  0  0  0  0  0  0  0  0  0  0  0  # atno 17394 bound_to 11000
  140.6594  133.9659  155.7796 LP  0  0  0  0  0  0  0  0  0  0  0  0  # atno 17395 bound_to 11000

$$$$
