AV-unprocessed.smi:1056|AV-procd|sdf|4637|dock2
  -GOLD-   22720 3143D 1   1.00000     0.00000
 Structure written by MMmdl.
 46 48  0  0  0  0  0  0  0  0  3 V2000
  152.3630  143.8864  159.9938 C   0  0  0  0  0  0  0  0  0  0  0  0
  152.0358  142.8588  158.9233 C   0  0  0  0  0  0  0  0  0  0  0  0
  151.0851  143.1961  157.9334 C   0  0  0  0  0  0  0  0  0  0  0  0
  150.8068  142.2364  156.9678 C   0  0  0  0  0  0  0  0  0  0  0  0
  149.9351  142.2604  155.8767 N   0  3  0  0  0  0  0  0  0  0  0  0
  150.0101  141.0763  155.2083 C   0  0  0  0  0  0  0  0  0  0  0  0
  150.9134  140.2940  155.8604 N   0  0  0  0  0  0  0  0  0  0  0  0
  151.3759  138.9330  155.5588 C   0  0  0  0  0  0  0  0  0  0  0  0
  150.2893  138.0566  154.9002 C   0  0  1  0  0  0  0  0  0  0  0  0
  150.1993  138.3790  153.5276 O   0  0  0  0  0  0  0  0  0  0  0  0
  150.5893  136.5477  155.0134 C   0  0  0  0  0  0  0  0  0  0  0  0
  149.4928  135.6978  154.4842 N   0  3  1  0  0  0  0  0  0  0  0  0
  149.7585  134.2428  154.5857 C   0  0  0  0  0  0  0  0  0  0  0  0
  148.6813  133.4541  153.8201 C   0  0  0  0  0  0  0  0  0  0  0  0
  147.3299  133.9564  154.0563 N   0  0  0  0  0  0  0  0  0  0  0  0
  147.0257  135.1411  154.6111 C   0  0  0  0  0  0  0  0  0  0  0  0
  145.8624  135.5025  154.7668 O   0  0  0  0  0  0  0  0  0  0  0  0
  148.1726  136.0589  155.0614 C   0  0  0  0  0  0  0  0  0  0  0  0
  151.4383  140.9774  156.9627 C   0  0  0  0  0  0  0  0  0  0  0  0
  152.3774  140.6280  157.9301 C   0  0  0  0  0  0  0  0  0  0  0  0
  152.6718  141.5901  158.9228 C   0  0  0  0  0  0  0  0  0  0  0  0
  153.6887  141.2368  159.9946 C   0  0  0  0  0  0  0  0  0  0  0  0
  151.8458  144.8294  159.8131 H   0  0  0  0  0  0  0  0  0  0  0  0
  153.4331  144.0945  160.0151 H   0  0  0  0  0  0  0  0  0  0  0  0
  152.0612  143.5229  160.9763 H   0  0  0  0  0  0  0  0  0  0  0  0
  150.5967  144.1599  157.9284 H   0  0  0  0  0  0  0  0  0  0  0  0
  149.4533  140.8072  154.3220 H   0  0  0  0  0  0  0  0  0  0  0  0
  152.2411  139.0219  154.9000 H   0  0  0  0  0  0  0  0  0  0  0  0
  151.7373  138.4852  156.4854 H   0  0  0  0  0  0  0  0  0  0  0  0
  149.3173  138.2815  155.3375 H   0  0  0  0  0  0  0  0  0  0  0  0
  149.6975  137.7071  153.0913 H   0  0  0  0  0  0  0  0  0  0  0  0
  151.5173  136.2990  154.4956 H   0  0  0  0  0  0  0  0  0  0  0  0
  150.7539  136.3080  156.0654 H   0  0  0  0  0  0  0  0  0  0  0  0
  150.7390  133.9881  154.1855 H   0  0  0  0  0  0  0  0  0  0  0  0
  149.7610  133.9523  155.6376 H   0  0  0  0  0  0  0  0  0  0  0  0
  148.8731  133.5203  152.7485 H   0  0  0  0  0  0  0  0  0  0  0  0
  148.7263  132.3966  154.0818 H   0  0  0  0  0  0  0  0  0  0  0  0
  146.5648  133.3616  153.7701 H   0  0  0  0  0  0  0  0  0  0  0  0
  148.2287  136.0192  156.1503 H   0  0  0  0  0  0  0  0  0  0  0  0
  147.9278  137.0867  154.7899 H   0  0  0  0  0  0  0  0  0  0  0  0
  152.8636  139.6640  157.9287 H   0  0  0  0  0  0  0  0  0  0  0  0
  154.0378  140.2089  159.8914 H   0  0  0  0  0  0  0  0  0  0  0  0
  153.2517  141.3406  160.9882 H   0  0  0  0  0  0  0  0  0  0  0  0
  154.5567  141.8930  159.9279 H   0  0  0  0  0  0  0  0  0  0  0  0
  149.4231  135.9058  153.4986 H   0  0  0  0  0  0  0  0  0  0  0  0
  149.3344  143.0285  155.6042 H   0  0  0  0  0  0  0  0  0  0  0  0
  1  2  1  0  0  0  0
  1 23  1  0  0  0  0
  1 24  1  0  0  0  0
  1 25  1  0  0  0  0
  2 21  1  0  0  0  0
  2  3  2  0  0  0  0
  3  4  1  0  0  0  0
  3 26  1  0  0  0  0
  4 19  2  0  0  0  0
  4  5  1  0  0  0  0
  5  6  2  0  0  0  0
  5 46  1  0  0  0  0
  6  7  1  0  0  0  0
  6 27  1  0  0  0  0
  7  8  1  0  0  0  0
  7 19  1  0  0  0  0
  8  9  1  0  0  0  0
  8 28  1  0  0  0  0
  8 29  1  0  0  0  0
  9 10  1  0  0  0  0
  9 11  1  0  0  0  0
  9 30  1  0  0  0  0
 10 31  1  0  0  0  0
 11 12  1  0  0  0  0
 11 32  1  0  0  0  0
 11 33  1  0  0  0  0
 12 18  1  0  0  0  0
 12 13  1  0  0  0  0
 12 45  1  0  0  0  0
 13 14  1  0  0  0  0
 13 34  1  0  0  0  0
 13 35  1  0  0  0  0
 14 15  1  0  0  0  0
 14 36  1  0  0  0  0
 14 37  1  0  0  0  0
 15 16  1  0  0  0  0
 15 38  1  0  0  0  0
 16 17  2  0  0  0  0
 16 18  1  0  0  0  0
 18 39  1  0  0  0  0
 18 40  1  0  0  0  0
 19 20  1  0  0  0  0
 20 21  2  0  0  0  0
 20 41  1  0  0  0  0
 21 22  1  0  0  0  0
 22 42  1  0  0  0  0
 22 43  1  0  0  0  0
 22 44  1  0  0  0  0
M  CHG  1   5   1
M  CHG  1  12   1
M  END
> <s_m_source_file>
AV-unprocessed.smi

> <i_m_source_file_index>
1056

> <i_lp_mmshare_version>
43012

> <i_f3d_flags>
0

> <s_epik_input>
W0NIM11jKFtjSF0xKWMoW0NIM10pW2NIXWMoYzEyKW4oW2NIXW4yKVtDSDJdW0NASF0oW09IXSlbQ0gyXU4zW0NIMl1bQ0gyXVtOSF1DKD1PKVtDSDJdMw==

> <s_epik_cmdline>
J2VwaWtfcHl0aG9uJywgJy1waCcsICc3LjAnLCAnLXRuJywgJzgnLCAnLW1hJywgJzIwMCcsICctbWV0YWxfYmluZGluZycsICctaW1hZScsICc8aW5maWxlLm1hZT4nLCAnLW9tYWUnLCAnPG91dGZpbGUubWFlPic=

> <r_epik_Ionization_Penalty>
1.262

> <r_epik_Ionization_Penalty_Charging>
1.26188

> <r_epik_Ionization_Penalty_Neutral>
0.000125436

> <r_epik_State_Penalty>
1.3387

> <r_epik_Charging_Adjusted_Penalty>
2.60058

> <i_epik_Tot_Q>
2

> <i_epik_Tot_abs_Q>
2

> <r_epik_Metal_State_Penalty>
1.58938

> <b_epik_Metal_Only>
0

> <s_lp_Force_Field>
OPLS_2005

> <r_lp_Energy>
35.3979

> <b_lp_Chiralities_Consistent>
1

> <s_lp_Variant>
AV-unprocessed.smi:1056-8

> <Gold.Version>
5.8.1

> <Gold.Id.Protein>
6NUR|6NUR_protein|mol2

> <Gold.PLP.Fitness>
55.9814

> <Gold.PLP.PLP>
-42.0853

> <Gold.PLP.part.hbond>
-4.2665

> <Gold.PLP.part.metal>
0.0000

> <Gold.PLP.part.buried>
-2.3420

> <Gold.PLP.part.nonpolar>
-34.8595

> <Gold.PLP.part.repulsive>
0.2176

> <Gold.PLP.ligand.clash>
0.0000

> <Gold.PLP.ligand.torsion>
0.5773

> <Gold.PLP.Chemscore.Hbond>
5.0000

> <Gold.PLP.Chemscore.CHOScore>
0.0000

> <Gold.PLP.Chemscore.Metal>
0.0000

> <Gold.Chemscore.Hbonds>
donor molecule, donor type, donor heavy atom, donor atom, acceptor molecule, acceptor atom, score
      L1  H     5    46       P1  8028  2.00
      L1  H    10    31       P1  7948  1.00
      L1  H    12    45       P1  7948  2.00

> <Gold.PLP.Chemscore.Internal.Correction>
0.0506

> <Gold.Rescore>
     Score         DG    S(hbond)    S(metal)    S(lipo)     H(rot)  DE(clash)    DE(int)     intcor
     19.45     -20.26       2.67        0.00     103.28       2.44       0.19       0.61       ----

> <Gold.Chemscore.Fitness>
19.4534

> <Gold.Chemscore.DG>
-20.2557

> <Gold.Chemscore.ZeroCoef>
-5.4800

> <Gold.Chemscore.Hbond>
2.6729

> <Gold.Chemscore.Metal>
0.0000

> <Gold.Chemscore.Lipo>
103.2790

> <Gold.Chemscore.Internal_Hbond>
0.0000

> <Gold.Chemscore.DEClash>
0.1911

> <Gold.Chemscore.DEInternal>
0.6113

> <Gold.Chemscore.Rot>
2.4357

> <Gold.Chemscore.Internal.Correction>
   9.000000E+99

> <Gold.Chemscore.Hbonds>
donor molecule, donor type, donor heavy atom, donor atom, acceptor molecule, acceptor atom, score
      L1  H     5    46       P1  8028  0.96
      L1  H    10    31       P1  7948  0.66
      L1  H    12    45       P1  7948  0.45

> <Gold.Chemscore.Hbond.Weighted>
-8.9274

> <Gold.Chemscore.Metal.Weighted>
-0.0000

> <Gold.Chemscore.Lipo.Weighted>
-12.0836

> <Gold.Chemscore.Internal_Hbond.Weighted>
0.0000

> <Gold.Chemscore.DEClash.Weighted>
0.1911

> <Gold.Chemscore.DEInternal.Weighted>
0.6113

> <Gold.Chemscore.Rot.Weighted>
6.2353

> <Gold.Chemscore.Internal.Correction.Weighted>
   9.000000E+99

> <Gold.Protein.RotatedTorsions>
[ 6907 6896 6895 6894 ] final   45.05 input  -60.11 | X-H torsion
[ 7974 7965 7964 7962 ] final  -98.65 input  175.53 | X-H torsion
[ 8008 7997 7996 7995 ] final  -34.27 input   59.86 | X-H torsion
[ 10167 10162 10161 10158 ] final -176.78 input  -65.29 | X-H torsion
[ 10718 10713 10712 10709 ] final  -67.78 input   66.30 | X-H torsion
[ 10763 10752 10751 10750 ] final   34.40 input  -60.55 | X-H torsion
[ 11005 11000 10999 10996 ] final -102.44 input  -57.11 | X-H torsion

> <Gold.Protein.ActiveResidues>
 VAL166  LYS551  ARG553  GLY616  TRP617  ASP618  TYR619  PRO620  LYS621  CYS622 
 ASP623  PHE694  ASN695  SER759  ASP760  ASP761  ALA762  ILE779  LEU786  VAL792 
 PHE793  MET794  SER795  GLU796  ALA797  LYS798  CYS799  TRP800  GLU811  SER814 

> <Gold.Protein.RotatedAtoms>
  152.2399  134.8239  160.0461 H   0  0  0  0  0  0  0  0  0  0  0  0  # atno 6907 bound_to 6896
  151.8957  133.3521  159.3821 H   0  0  0  0  0  0  0  0  0  0  0  0  # atno 6908 bound_to 6896
  150.7050  134.4805  159.5512 H   0  0  0  0  0  0  0  0  0  0  0  0  # atno 6909 bound_to 6896
  145.3178  140.9415  143.2733 H   0  0  0  0  0  0  0  0  0  0  0  0  # atno 7974 bound_to 7965
  154.4125  140.1688  156.2022 H   0  0  0  0  0  0  0  0  0  0  0  0  # atno 8008 bound_to 7997
  155.9514  140.3400  155.6388 H   0  0  0  0  0  0  0  0  0  0  0  0  # atno 8009 bound_to 7997
  155.6865  140.0728  157.2455 H   0  0  0  0  0  0  0  0  0  0  0  0  # atno 8010 bound_to 7997
  139.5513  144.2103  152.1081 H   0  0  0  0  0  0  0  0  0  0  0  0  # atno 10167 bound_to 10162
  156.0539  130.4283  150.1904 H   0  0  0  0  0  0  0  0  0  0  0  0  # atno 10718 bound_to 10713
  153.0166  135.6361  154.1663 H   0  0  0  0  0  0  0  0  0  0  0  0  # atno 10763 bound_to 10752
  154.1402  135.2835  155.3164 H   0  0  0  0  0  0  0  0  0  0  0  0  # atno 10764 bound_to 10752
  154.6130  135.5550  153.7555 H   0  0  0  0  0  0  0  0  0  0  0  0  # atno 10765 bound_to 10752
  141.1189  133.8558  157.1360 H   0  0  0  0  0  0  0  0  0  0  0  0  # atno 11005 bound_to 11000
  144.8963  139.4707  143.6653 LP  0  0  0  0  0  0  0  0  0  0  0  0  # atno 17320 bound_to 7965
  146.3094  139.7691  142.9031 LP  0  0  0  0  0  0  0  0  0  0  0  0  # atno 17321 bound_to 7965
  140.1599  144.5036  150.6638 LP  0  0  0  0  0  0  0  0  0  0  0  0  # atno 17342 bound_to 10162
  140.6775  143.2312  151.5468 LP  0  0  0  0  0  0  0  0  0  0  0  0  # atno 17343 bound_to 10162
  156.9983  130.9914  151.3397 LP  0  0  0  0  0  0  0  0  0  0  0  0  # atno 17370 bound_to 10713
  157.5492  130.8171  149.8124 LP  0  0  0  0  0  0  0  0  0  0  0  0  # atno 17371 bound_to 10713
  140.0131  134.9979  157.0437 LP  0  0  0  0  0  0  0  0  0  0  0  0  # atno 17394 bound_to 11000
  140.4566  134.1528  155.7187 LP  0  0  0  0  0  0  0  0  0  0  0  0  # atno 17395 bound_to 11000

$$$$
