AV-unprocessed.smi:446|AV-procd|sdf|2593|dock3
  -GOLD-   2262022583D 1   1.00000     0.00000
 Structure written by MMmdl.
 35 37  0  0  0  0  0  0  0  0  1 V2000
  152.0865  139.1317  155.3610 C   0  0  0  0  0  0  0  0  0  0  0  0
  152.0771  140.0403  156.5490 C   0  0  0  0  0  0  0  0  0  0  0  0
  152.7969  139.7870  157.6423 N   0  0  0  0  0  0  0  0  0  0  0  0
  152.4973  140.8613  158.4580 C   0  0  0  0  0  0  0  0  0  0  0  0
  152.9427  141.1791  159.7612 C   0  0  0  0  0  0  0  0  0  0  0  0
  152.4938  142.3524  160.4027 C   0  0  0  0  0  0  0  0  0  0  0  0
  151.5956  143.2232  159.7521 C   0  0  0  0  0  0  0  0  0  0  0  0
  151.1382  142.9247  158.4542 C   0  0  0  0  0  0  0  0  0  0  0  0
  151.5882  141.7517  157.8192 C   0  0  0  0  0  0  0  0  0  0  0  0
  151.3357  141.1753  156.5789 N   0  0  0  0  0  0  0  0  0  0  0  0
  150.4531  141.7091  155.5503 C   0  0  0  0  0  0  0  0  0  0  0  0
  149.3445  140.7148  155.1515 C   0  0  2  0  0  0  0  0  0  0  0  0
  149.6546  140.1183  153.9069 O   0  0  0  0  0  0  0  0  0  0  0  0
  147.9780  141.3818  155.1458 C   0  0  0  0  0  0  0  0  0  0  0  0
  147.0850  141.1641  156.2171 C   0  0  0  0  0  0  0  0  0  0  0  0
  145.8190  141.7819  156.2233 C   0  0  0  0  0  0  0  0  0  0  0  0
  145.4400  142.6230  155.1595 C   0  0  0  0  0  0  0  0  0  0  0  0
  144.2230  143.2165  155.1656 F   0  0  0  0  0  0  0  0  0  0  0  0
  146.3282  142.8475  154.0903 C   0  0  0  0  0  0  0  0  0  0  0  0
  147.5943  142.2305  154.0836 C   0  0  0  0  0  0  0  0  0  0  0  0
  152.6907  138.2461  155.5609 H   0  0  0  0  0  0  0  0  0  0  0  0
  152.5079  139.6466  154.4974 H   0  0  0  0  0  0  0  0  0  0  0  0
  151.0738  138.8078  155.1215 H   0  0  0  0  0  0  0  0  0  0  0  0
  153.6307  140.5187  160.2678 H   0  0  0  0  0  0  0  0  0  0  0  0
  152.8411  142.5855  161.3986 H   0  0  0  0  0  0  0  0  0  0  0  0
  151.2577  144.1203  160.2498 H   0  0  0  0  0  0  0  0  0  0  0  0
  150.4497  143.5883  157.9523 H   0  0  0  0  0  0  0  0  0  0  0  0
  150.0055  142.6248  155.9389 H   0  0  0  0  0  0  0  0  0  0  0  0
  151.0374  142.0049  154.6789 H   0  0  0  0  0  0  0  0  0  0  0  0
  149.3208  139.9050  155.8818 H   0  0  0  0  0  0  0  0  0  0  0  0
  149.1208  140.5229  153.2401 H   0  0  0  0  0  0  0  0  0  0  0  0
  147.3674  140.5228  157.0393 H   0  0  0  0  0  0  0  0  0  0  0  0
  145.1392  141.6108  157.0449 H   0  0  0  0  0  0  0  0  0  0  0  0
  146.0389  143.4944  153.2754 H   0  0  0  0  0  0  0  0  0  0  0  0
  148.2704  142.4123  153.2610 H   0  0  0  0  0  0  0  0  0  0  0  0
  1  2  1  0  0  0  0
  1 21  1  0  0  0  0
  1 22  1  0  0  0  0
  1 23  1  0  0  0  0
  2 10  1  0  0  0  0
  2  3  2  0  0  0  0
  3  4  1  0  0  0  0
  4  9  2  0  0  0  0
  4  5  1  0  0  0  0
  5  6  2  0  0  0  0
  5 24  1  0  0  0  0
  6  7  1  0  0  0  0
  6 25  1  0  0  0  0
  7  8  2  0  0  0  0
  7 26  1  0  0  0  0
  8  9  1  0  0  0  0
  8 27  1  0  0  0  0
  9 10  1  0  0  0  0
 10 11  1  0  0  0  0
 11 12  1  0  0  0  0
 11 28  1  0  0  0  0
 11 29  1  0  0  0  0
 12 13  1  0  0  0  0
 12 14  1  0  0  0  0
 12 30  1  0  0  0  0
 13 31  1  0  0  0  0
 14 20  1  0  0  0  0
 14 15  2  0  0  0  0
 15 16  1  0  0  0  0
 15 32  1  0  0  0  0
 16 17  2  0  0  0  0
 16 33  1  0  0  0  0
 17 18  1  0  0  0  0
 17 19  1  0  0  0  0
 19 20  2  0  0  0  0
 19 34  1  0  0  0  0
 20 35  1  0  0  0  0
M  END
> <s_m_source_file>
AV-unprocessed.smi

> <i_m_source_file_index>
446

> <i_lp_mmshare_version>
43012

> <i_f3d_flags>
0

> <s_epik_input>
W2NIXTFbY0hdW2NIXVtjSF1jKGMxMiluKGMobjIpW0NIM10pW0NIMl1bQ0BIXShbT0hdKWMzW2NIXVtjSF1jKEYpW2NIXVtjSF0z

> <s_epik_cmdline>
J2VwaWtfcHl0aG9uJywgJy1waCcsICc3LjAnLCAnLXRuJywgJzgnLCAnLW1hJywgJzIwMCcsICctbWV0YWxfYmluZGluZycsICctaW1hZScsICc8aW5maWxlLm1hZT4nLCAnLW9tYWUnLCAnPG91dGZpbGUubWFlPic=

> <r_epik_Ionization_Penalty>
0.129663

> <r_epik_Ionization_Penalty_Charging>
0

> <r_epik_Ionization_Penalty_Neutral>
0.129663

> <r_epik_State_Penalty>
0.119073

> <r_epik_Charging_Adjusted_Penalty>
0.119073

> <i_epik_Tot_Q>
0

> <i_epik_Tot_abs_Q>
0

> <r_epik_Metal_State_Penalty>
0.000131867

> <b_epik_Metal_Only>
0

> <s_lp_Force_Field>
OPLS_2005

> <r_lp_Energy>
11.4063

> <b_lp_Chiralities_Consistent>
1

> <s_lp_Variant>
AV-unprocessed.smi:446-1

> <Gold.Version>
5.8.1

> <Gold.Id.Protein>
6NUR|6NUR_protein|mol2

> <Gold.PLP.Fitness>
45.8856

> <Gold.PLP.PLP>
-42.9373

> <Gold.PLP.part.hbond>
-3.0000

> <Gold.PLP.part.metal>
0.0000

> <Gold.PLP.part.buried>
-4.6628

> <Gold.PLP.part.nonpolar>
-34.7028

> <Gold.PLP.part.repulsive>
0.0000

> <Gold.PLP.ligand.clash>
0.0000

> <Gold.PLP.ligand.torsion>
1.0393

> <Gold.PLP.Chemscore.Hbond>
1.6682

> <Gold.PLP.Chemscore.CHOScore>
0.0000

> <Gold.PLP.Chemscore.Metal>
0.0000

> <Gold.Chemscore.Hbonds>
donor molecule, donor type, donor heavy atom, donor atom, acceptor molecule, acceptor atom, score
      L1  H    13    31       P1  7957  0.20
      P1  H  7989  7998       L1    13  0.55
      P1  H  7997  8010       L1     3  0.95

> <Gold.PLP.Chemscore.Internal.Correction>
0.0223

> <Gold.Rescore>
     Score         DG    S(hbond)    S(metal)    S(lipo)     H(rot)  DE(clash)    DE(int)     intcor
     14.10     -15.22       0.64        0.00     104.23       1.79       0.08       1.04       ----

> <Gold.Chemscore.Fitness>
14.0995

> <Gold.Chemscore.DG>
-15.2173

> <Gold.Chemscore.ZeroCoef>
-5.4800

> <Gold.Chemscore.Hbond>
0.6382

> <Gold.Chemscore.Metal>
0.0000

> <Gold.Chemscore.Lipo>
104.2287

> <Gold.Chemscore.Internal_Hbond>
0.0000

> <Gold.Chemscore.DEClash>
0.0792

> <Gold.Chemscore.DEInternal>
1.0385

> <Gold.Chemscore.Rot>
1.7926

> <Gold.Chemscore.Internal.Correction>
   9.000000E+99

> <Gold.Chemscore.Hbonds>
donor molecule, donor type, donor heavy atom, donor atom, acceptor molecule, acceptor atom, score
      L1  H    13    31       P1  7957  0.21
      P1  H  7989  7998       L1    13  0.08
      P1  H  7997  8010       L1     3  0.14

> <Gold.Chemscore.Hbond.Weighted>
-2.1316

> <Gold.Chemscore.Metal.Weighted>
-0.0000

> <Gold.Chemscore.Lipo.Weighted>
-12.1948

> <Gold.Chemscore.Internal_Hbond.Weighted>
0.0000

> <Gold.Chemscore.DEClash.Weighted>
0.0792

> <Gold.Chemscore.DEInternal.Weighted>
1.0385

> <Gold.Chemscore.Rot.Weighted>
4.5890

> <Gold.Chemscore.Internal.Correction.Weighted>
   9.000000E+99

> <Gold.Protein.RotatedTorsions>
[ 6907 6896 6895 6894 ] final  120.00 input  -60.11 | X-H torsion
[ 7974 7965 7964 7962 ] final -179.55 input  175.53 | X-H torsion
[ 8008 7997 7996 7995 ] final   40.05 input   59.86 | X-H torsion
[ 10167 10162 10161 10158 ] final    4.69 input  -65.29 | X-H torsion
[ 10718 10713 10712 10709 ] final   -7.33 input   66.30 | X-H torsion
[ 10763 10752 10751 10750 ] final  -36.87 input  -60.55 | X-H torsion
[ 11005 11000 10999 10996 ] final  -74.05 input  -57.11 | X-H torsion

> <Gold.Protein.ActiveResidues>
 VAL166  LYS551  ARG553  GLY616  TRP617  ASP618  TYR619  PRO620  LYS621  CYS622 
 ASP623  PHE694  ASN695  SER759  ASP760  ASP761  ALA762  ILE779  LEU786  VAL792 
 PHE793  MET794  SER795  GLU796  ALA797  LYS798  CYS799  TRP800  GLU811  SER814 

> <Gold.Protein.RotatedAtoms>
  152.4430  133.7484  159.6679 H   0  0  0  0  0  0  0  0  0  0  0  0  # atno 6907 bound_to 6896
  150.8325  133.8058  159.3099 H   0  0  0  0  0  0  0  0  0  0  0  0  # atno 6908 bound_to 6896
  151.5707  135.1065  160.0046 H   0  0  0  0  0  0  0  0  0  0  0  0  # atno 6909 bound_to 6896
  144.7137  140.0700  143.6429 H   0  0  0  0  0  0  0  0  0  0  0  0  # atno 7974 bound_to 7965
  155.2467  140.3349  155.4286 H   0  0  0  0  0  0  0  0  0  0  0  0  # atno 8008 bound_to 7997
  156.2233  140.1818  156.7468 H   0  0  0  0  0  0  0  0  0  0  0  0  # atno 8009 bound_to 7997
  154.5859  140.0646  156.9156 H   0  0  0  0  0  0  0  0  0  0  0  0  # atno 8010 bound_to 7997
  140.6522  143.7517  150.7593 H   0  0  0  0  0  0  0  0  0  0  0  0  # atno 10167 bound_to 10162
  156.7187  130.5144  149.5873 H   0  0  0  0  0  0  0  0  0  0  0  0  # atno 10718 bound_to 10713
  153.8869  135.6816  153.4763 H   0  0  0  0  0  0  0  0  0  0  0  0  # atno 10763 bound_to 10752
  153.1203  135.4743  154.9181 H   0  0  0  0  0  0  0  0  0  0  0  0  # atno 10764 bound_to 10752
  154.7642  135.3219  154.8272 H   0  0  0  0  0  0  0  0  0  0  0  0  # atno 10765 bound_to 10752
  141.1630  133.6898  156.7306 H   0  0  0  0  0  0  0  0  0  0  0  0  # atno 11005 bound_to 11000
  145.9791  139.2927  143.1052 LP  0  0  0  0  0  0  0  0  0  0  0  0  # atno 17320 bound_to 7965
  145.9031  140.9230  143.0493 LP  0  0  0  0  0  0  0  0  0  0  0  0  # atno 17321 bound_to 7965
  140.1170  143.4646  152.2336 LP  0  0  0  0  0  0  0  0  0  0  0  0  # atno 17342 bound_to 10162
  139.5738  144.7477  151.3819 LP  0  0  0  0  0  0  0  0  0  0  0  0  # atno 17343 bound_to 10162
  156.1609  130.6373  151.0718 LP  0  0  0  0  0  0  0  0  0  0  0  0  # atno 17370 bound_to 10713
  157.6907  131.0811  150.7117 LP  0  0  0  0  0  0  0  0  0  0  0  0  # atno 17371 bound_to 10713
  140.2748  134.8364  157.3880 LP  0  0  0  0  0  0  0  0  0  0  0  0  # atno 17394 bound_to 11000
  140.1488  134.4877  155.7976 LP  0  0  0  0  0  0  0  0  0  0  0  0  # atno 17395 bound_to 11000

$$$$
