AV-unprocessed.smi:1987|AV-procd|sdf|8055|dock1
  -GOLD-   2272010263D 1   1.00000     0.00000
 Structure written by MMmdl.
 37 39  0  0  0  0  0  0  0  0  2 V2000
  150.0057  140.1313  154.1764 O   0  0  0  0  0  0  0  0  0  0  0  0
  149.8993  138.9211  154.3722 C   0  0  0  0  0  0  0  0  0  0  0  0
  151.1086  138.0054  154.1884 C   0  0  0  0  0  0  0  0  0  0  0  0
  151.9931  138.1020  155.3345 N   0  0  0  0  0  0  0  0  0  0  0  0
  152.5636  139.1600  155.9150 C   0  0  0  0  0  0  0  0  0  0  0  0
  153.3382  138.8024  156.9279 N   0  0  0  0  0  0  0  0  0  0  0  0
  153.2135  137.4231  156.9487 N   0  0  0  0  0  0  0  0  0  0  0  0
  152.4175  137.0015  156.0050 N   0  0  0  0  0  0  0  0  0  0  0  0
  148.7478  138.3247  154.7174 N   0  0  0  0  0  0  0  0  0  0  0  0
  147.4540  138.9898  154.8127 C   0  0  0  0  0  0  0  0  0  0  0  0
  146.4882  138.5134  153.7100 C   0  0  1  0  0  0  0  0  0  0  0  0
  146.8260  139.0023  152.3024 C   0  0  0  0  0  0  0  0  0  0  0  0
  146.0509  138.0270  151.4211 C   0  0  0  0  0  0  0  0  0  0  0  0
  146.1101  136.7254  152.1217 N   0  3  2  0  0  0  0  0  0  0  0  0
  144.9129  135.8821  151.9169 C   0  0  0  0  0  0  0  0  0  0  0  0
  145.2371  134.4478  151.5730 C   0  0  0  0  0  0  0  0  0  0  0  0
  144.7524  135.3949  150.4967 C   0  0  0  0  0  0  0  0  0  0  0  0
  146.4272  136.9892  153.5456 C   0  0  0  0  0  0  0  0  0  0  0  0
  150.7841  136.9696  154.0802 H   0  0  0  0  0  0  0  0  0  0  0  0
  151.6541  138.2725  153.2818 H   0  0  0  0  0  0  0  0  0  0  0  0
  152.4214  140.1806  155.5917 H   0  0  0  0  0  0  0  0  0  0  0  0
  148.7591  137.3255  154.8654 H   0  0  0  0  0  0  0  0  0  0  0  0
  147.0374  138.7729  155.7966 H   0  0  0  0  0  0  0  0  0  0  0  0
  147.5856  140.0720  154.7633 H   0  0  0  0  0  0  0  0  0  0  0  0
  145.4805  138.8591  153.9471 H   0  0  0  0  0  0  0  0  0  0  0  0
  146.5405  140.0411  152.1320 H   0  0  0  0  0  0  0  0  0  0  0  0
  147.8964  138.9088  152.1131 H   0  0  0  0  0  0  0  0  0  0  0  0
  145.0142  138.3589  151.3412 H   0  0  0  0  0  0  0  0  0  0  0  0
  146.4584  137.9576  150.4122 H   0  0  0  0  0  0  0  0  0  0  0  0
  144.0403  136.1213  152.5225 H   0  0  0  0  0  0  0  0  0  0  0  0
  146.2834  134.1483  151.5460 H   0  0  0  0  0  0  0  0  0  0  0  0
  144.5429  133.6813  151.9114 H   0  0  0  0  0  0  0  0  0  0  0  0
  143.7390  135.2518  150.1266 H   0  0  0  0  0  0  0  0  0  0  0  0
  145.4763  135.7245  149.7535 H   0  0  0  0  0  0  0  0  0  0  0  0
  147.3957  136.5359  153.7596 H   0  0  0  0  0  0  0  0  0  0  0  0
  145.7009  136.5444  154.2276 H   0  0  0  0  0  0  0  0  0  0  0  0
  146.9008  136.2238  151.7430 H   0  0  0  0  0  0  0  0  0  0  0  0
  1  2  2  0  0  0  0
  2  3  1  0  0  0  0
  2  9  1  0  0  0  0
  3  4  1  0  0  0  0
  3 19  1  0  0  0  0
  3 20  1  0  0  0  0
  4  8  1  0  0  0  0
  4  5  1  0  0  0  0
  5  6  2  0  0  0  0
  5 21  1  0  0  0  0
  6  7  1  0  0  0  0
  7  8  2  0  0  0  0
  9 10  1  0  0  0  0
  9 22  1  0  0  0  0
 10 11  1  0  0  0  0
 10 23  1  0  0  0  0
 10 24  1  0  0  0  0
 11 18  1  0  0  0  0
 11 12  1  0  0  0  0
 11 25  1  0  0  0  0
 12 13  1  0  0  0  0
 12 26  1  0  0  0  0
 12 27  1  0  0  0  0
 13 14  1  0  0  0  0
 13 28  1  0  0  0  0
 13 29  1  0  0  0  0
 14 15  1  0  0  0  0
 14 18  1  0  0  0  0
 14 37  1  0  0  0  0
 15 17  1  0  0  0  0
 15 16  1  0  0  0  0
 15 30  1  0  0  0  0
 16 17  1  0  0  0  0
 16 31  1  0  0  0  0
 16 32  1  0  0  0  0
 17 33  1  0  0  0  0
 17 34  1  0  0  0  0
 18 35  1  0  0  0  0
 18 36  1  0  0  0  0
M  CHG  1  14   1
M  END
> <s_m_source_file>
AV-unprocessed.smi

> <i_m_source_file_index>
1987

> <i_lp_mmshare_version>
43012

> <i_f3d_flags>
0

> <s_epik_input>
bjFubltjSF1uMVtDSDJdQyg9TylbTkhdW0NIMl1bQ0BASF0yW0NIMl1bQ0gyXU4oW0NIMl0yKVtDSF0zW0NIMl1bQ0gyXTM=

> <s_epik_cmdline>
J2VwaWtfcHl0aG9uJywgJy1waCcsICc3LjAnLCAnLXRuJywgJzgnLCAnLW1hJywgJzIwMCcsICctbWV0YWxfYmluZGluZycsICctaW1hZScsICc8aW5maWxlLm1hZT4nLCAnLW9tYWUnLCAnPG91dGZpbGUubWFlPic=

> <r_lp_tautomer_probability>
1

> <r_epik_Ionization_Penalty>
0.000242849

> <r_epik_Ionization_Penalty_Charging>
0.000241326

> <r_epik_Ionization_Penalty_Neutral>
1.52322e-06

> <r_epik_State_Penalty>
-0

> <r_epik_Charging_Adjusted_Penalty>
0.000241326

> <i_epik_Tot_Q>
1

> <i_epik_Tot_abs_Q>
1

> <r_epik_Metal_State_Penalty>
-0

> <b_epik_Metal_Only>
0

> <s_lp_Force_Field>
OPLS_2005

> <r_lp_Energy>
38.094

> <b_lp_Chiralities_Consistent>
1

> <s_lp_Variant>
AV-unprocessed.smi:1987-2

> <Gold.Version>
5.8.1

> <Gold.Id.Protein>
6NUR|6NUR_protein|mol2

> <Gold.PLP.Fitness>
40.5658

> <Gold.PLP.PLP>
-27.9232

> <Gold.PLP.part.hbond>
-4.0000

> <Gold.PLP.part.metal>
0.0000

> <Gold.PLP.part.buried>
1.0047

> <Gold.PLP.part.nonpolar>
-25.8284

> <Gold.PLP.part.repulsive>
0.6886

> <Gold.PLP.ligand.clash>
0.0000

> <Gold.PLP.ligand.torsion>
1.0658

> <Gold.PLP.Chemscore.Hbond>
4.4880

> <Gold.PLP.Chemscore.CHOScore>
0.0000

> <Gold.PLP.Chemscore.Metal>
0.0000

> <Gold.Chemscore.Hbonds>
donor molecule, donor type, donor heavy atom, donor atom, acceptor molecule, acceptor atom, score
      L1  H    14    37       P1  7948  1.63
      P1  H  7989  7998       L1     1  0.93
      P1  H  7997  8009       L1     6  1.00
      P1  H 10752 10765       L1     8  0.90

> <Gold.PLP.Chemscore.Internal.Correction>
1.3102

> <Gold.Rescore>
     Score         DG    S(hbond)    S(metal)    S(lipo)     H(rot)  DE(clash)    DE(int)     intcor
     12.51     -15.53       3.14        0.00      53.61       2.62       1.87       1.16       ----

> <Gold.Chemscore.Fitness>
12.5051

> <Gold.Chemscore.DG>
-15.5304

> <Gold.Chemscore.ZeroCoef>
-5.4800

> <Gold.Chemscore.Hbond>
3.1426

> <Gold.Chemscore.Metal>
0.0000

> <Gold.Chemscore.Lipo>
53.6128

> <Gold.Chemscore.Internal_Hbond>
0.0000

> <Gold.Chemscore.DEClash>
1.8695

> <Gold.Chemscore.DEInternal>
1.1558

> <Gold.Chemscore.Rot>
2.6244

> <Gold.Chemscore.Internal.Correction>
   9.000000E+99

> <Gold.Chemscore.Hbonds>
donor molecule, donor type, donor heavy atom, donor atom, acceptor molecule, acceptor atom, score
      L1  H    14    37       P1  7948  0.76
      P1  H  7989  7998       L1     1  0.89
      P1  H  7997  8009       L1     6  0.24
      P1  H 10752 10765       L1     8  0.68

> <Gold.Chemscore.Hbond.Weighted>
-10.4963

> <Gold.Chemscore.Metal.Weighted>
-0.0000

> <Gold.Chemscore.Lipo.Weighted>
-6.2727

> <Gold.Chemscore.Internal_Hbond.Weighted>
0.0000

> <Gold.Chemscore.DEClash.Weighted>
1.8695

> <Gold.Chemscore.DEInternal.Weighted>
1.1558

> <Gold.Chemscore.Rot.Weighted>
6.7186

> <Gold.Chemscore.Internal.Correction.Weighted>
   9.000000E+99

> <Gold.Protein.RotatedTorsions>
[ 6907 6896 6895 6894 ] final  174.71 input  -60.11 | X-H torsion
[ 7974 7965 7964 7962 ] final   80.74 input  175.53 | X-H torsion
[ 8008 7997 7996 7995 ] final  163.78 input   59.86 | X-H torsion
[ 10167 10162 10161 10158 ] final  -14.48 input  -65.29 | X-H torsion
[ 10718 10713 10712 10709 ] final   41.44 input   66.30 | X-H torsion
[ 10763 10752 10751 10750 ] final -148.37 input  -60.55 | X-H torsion
[ 11005 11000 10999 10996 ] final -106.92 input  -57.11 | X-H torsion

> <Gold.Protein.ActiveResidues>
 VAL166  LYS551  ARG553  GLY616  TRP617  ASP618  TYR619  PRO620  LYS621  CYS622 
 ASP623  PHE694  ASN695  SER759  ASP760  ASP761  ALA762  ILE779  LEU786  VAL792 
 PHE793  MET794  SER795  GLU796  ALA797  LYS798  CYS799  TRP800  GLU811  SER814 

> <Gold.Protein.RotatedAtoms>
  151.7479  133.3325  159.3383 H   0  0  0  0  0  0  0  0  0  0  0  0  # atno 6907 bound_to 6896
  150.7547  134.6219  159.6150 H   0  0  0  0  0  0  0  0  0  0  0  0  # atno 6908 bound_to 6896
  152.3487  134.7037  160.0294 H   0  0  0  0  0  0  0  0  0  0  0  0  # atno 6909 bound_to 6896
  145.6473  139.2439  143.1996 H   0  0  0  0  0  0  0  0  0  0  0  0  # atno 7974 bound_to 7965
  156.1931  140.1714  156.8053 H   0  0  0  0  0  0  0  0  0  0  0  0  # atno 8008 bound_to 7997
  154.5495  140.0720  156.8677 H   0  0  0  0  0  0  0  0  0  0  0  0  # atno 8009 bound_to 7997
  155.3056  140.3364  155.4248 H   0  0  0  0  0  0  0  0  0  0  0  0  # atno 8010 bound_to 7997
  140.7202  143.5317  150.9512 H   0  0  0  0  0  0  0  0  0  0  0  0  # atno 10167 bound_to 10162
  157.3936  130.7820  149.7289 H   0  0  0  0  0  0  0  0  0  0  0  0  # atno 10718 bound_to 10713
  154.8236  135.3336  154.6964 H   0  0  0  0  0  0  0  0  0  0  0  0  # atno 10763 bound_to 10752
  153.7593  135.6933  153.4933 H   0  0  0  0  0  0  0  0  0  0  0  0  # atno 10764 bound_to 10752
  153.2121  135.4478  155.0342 H   0  0  0  0  0  0  0  0  0  0  0  0  # atno 10765 bound_to 10752
  141.0980  133.8935  157.1914 H   0  0  0  0  0  0  0  0  0  0  0  0  # atno 11005 bound_to 11000
  146.1232  140.7282  142.9447 LP  0  0  0  0  0  0  0  0  0  0  0  0  # atno 17320 bound_to 7965
  144.7135  140.4126  143.7062 LP  0  0  0  0  0  0  0  0  0  0  0  0  # atno 17321 bound_to 7965
  139.9037  143.6804  152.3127 LP  0  0  0  0  0  0  0  0  0  0  0  0  # atno 17342 bound_to 10162
  139.7163  144.7611  151.1029 LP  0  0  0  0  0  0  0  0  0  0  0  0  # atno 17343 bound_to 10162
  155.9804  130.4029  150.3528 LP  0  0  0  0  0  0  0  0  0  0  0  0  # atno 17370 bound_to 10713
  157.1647  131.0354  151.2824 LP  0  0  0  0  0  0  0  0  0  0  0  0  # atno 17371 bound_to 10713
  139.9823  135.0094  156.9779 LP  0  0  0  0  0  0  0  0  0  0  0  0  # atno 17394 bound_to 11000
  140.5092  134.1019  155.7266 LP  0  0  0  0  0  0  0  0  0  0  0  0  # atno 17395 bound_to 11000

$$$$
