AV-unprocessed.smi:2405|AV-procd|sdf|9514|dock2
  -GOLD-   2272013143D 1   1.00000     0.00000
 Structure written by MMmdl.
 36 37  0  0  0  0  0  0  0  0  2 V2000
  150.0707  144.1354  159.0853 C   0  0  0  0  0  0  0  0  0  0  0  0
  151.5808  144.1417  158.8255 C   0  0  0  0  0  0  0  0  0  0  0  0
  152.3471  143.4188  159.8822 C   0  0  0  0  0  0  0  0  0  0  0  0
  153.1918  142.4175  159.6235 N   0  0  0  0  0  0  0  0  0  0  0  0
  153.8075  141.9189  160.7763 C   0  0  0  0  0  0  0  0  0  0  0  0
  154.7758  140.7764  160.6746 C   0  0  0  0  0  0  0  0  0  0  0  0
  155.3345  140.4348  162.0563 C   0  0  0  0  0  0  0  0  0  0  0  0
  155.8342  141.3172  162.7547 O   0  0  0  0  0  0  0  0  0  0  0  0
  155.2465  139.1511  162.4353 N   0  0  0  0  0  0  0  0  0  0  0  0
  155.7188  138.6108  163.7058 C   0  0  2  0  0  0  0  0  0  0  0  0
  157.2046  138.2014  163.6333 C   0  0  0  0  0  0  0  0  0  0  0  0
  157.2719  136.7503  164.1230 C   0  0  0  0  0  0  0  0  0  0  0  0
  155.8958  136.1507  163.7998 C   0  0  2  0  0  0  0  0  0  0  0  0
  155.8451  135.6280  162.3476 C   0  0  0  0  0  0  0  0  0  0  0  0
  154.7495  135.1673  161.9587 O   0  0  0  0  0  0  0  0  0  0  0  0
  156.8759  135.7012  161.6416 O   0  5  0  0  0  0  0  0  0  0  0  0
  154.9422  137.3305  164.0682 C   0  0  0  0  0  0  0  0  0  0  0  0
  153.4301  142.5810  161.9188 C   0  0  0  0  0  0  0  0  0  0  0  0
  152.2800  143.8467  161.5876 S   0  0  0  0  0  0  0  0  0  0  0  0
  149.5388  144.6695  158.2977 H   0  0  0  0  0  0  0  0  0  0  0  0
  149.8332  144.6176  160.0339 H   0  0  0  0  0  0  0  0  0  0  0  0
  149.6819  143.1175  159.1196 H   0  0  0  0  0  0  0  0  0  0  0  0
  151.7940  143.6788  157.8617 H   0  0  0  0  0  0  0  0  0  0  0  0
  151.9443  145.1682  158.7663 H   0  0  0  0  0  0  0  0  0  0  0  0
  154.2971  139.8925  160.2504 H   0  0  0  0  0  0  0  0  0  0  0  0
  155.5987  141.0308  160.0058 H   0  0  0  0  0  0  0  0  0  0  0  0
  154.8295  138.4917  161.7925 H   0  0  0  0  0  0  0  0  0  0  0  0
  155.5655  139.3510  164.4933 H   0  0  0  0  0  0  0  0  0  0  0  0
  157.5699  138.2496  162.6061 H   0  0  0  0  0  0  0  0  0  0  0  0
  157.8389  138.8582  164.2294 H   0  0  0  0  0  0  0  0  0  0  0  0
  158.1068  136.2071  163.6778 H   0  0  0  0  0  0  0  0  0  0  0  0
  157.4237  136.7359  165.2030 H   0  0  0  0  0  0  0  0  0  0  0  0
  155.6698  135.3127  164.4600 H   0  0  0  0  0  0  0  0  0  0  0  0
  154.7110  137.3493  165.1339 H   0  0  0  0  0  0  0  0  0  0  0  0
  153.9808  137.2503  163.5580 H   0  0  0  0  0  0  0  0  0  0  0  0
  153.7571  142.3983  162.9317 H   0  0  0  0  0  0  0  0  0  0  0  0
  1  2  1  0  0  0  0
  1 20  1  0  0  0  0
  1 21  1  0  0  0  0
  1 22  1  0  0  0  0
  2  3  1  0  0  0  0
  2 23  1  0  0  0  0
  2 24  1  0  0  0  0
  3 19  1  0  0  0  0
  3  4  2  0  0  0  0
  4  5  1  0  0  0  0
  5  6  1  0  0  0  0
  5 18  2  0  0  0  0
  6  7  1  0  0  0  0
  6 25  1  0  0  0  0
  6 26  1  0  0  0  0
  7  8  2  0  0  0  0
  7  9  1  0  0  0  0
  9 10  1  0  0  0  0
  9 27  1  0  0  0  0
 10 17  1  0  0  0  0
 10 11  1  0  0  0  0
 10 28  1  0  0  0  0
 11 12  1  0  0  0  0
 11 29  1  0  0  0  0
 11 30  1  0  0  0  0
 12 13  1  0  0  0  0
 12 31  1  0  0  0  0
 12 32  1  0  0  0  0
 13 14  1  0  0  0  0
 13 17  1  0  0  0  0
 13 33  1  0  0  0  0
 14 15  2  0  0  0  0
 14 16  1  0  0  0  0
 17 34  1  0  0  0  0
 17 35  1  0  0  0  0
 18 19  1  0  0  0  0
 18 36  1  0  0  0  0
M  CHG  1  16  -1
M  END
> <s_m_source_file>
AV-unprocessed.smi

> <i_m_source_file_index>
2405

> <i_lp_mmshare_version>
43012

> <i_f3d_flags>
0

> <s_epik_input>
W0NIM11bQ0gyXWMxbmMoW2NIXXMxKVtDSDJdQyg9TylbTkhdW0NAQEhdMltDSDJdW0NIMl1bQ0BIXShbQ0gyXTIpQyg9TylbT0hd

> <s_epik_cmdline>
J2VwaWtfcHl0aG9uJywgJy1waCcsICc3LjAnLCAnLXRuJywgJzgnLCAnLW1hJywgJzIwMCcsICctbWV0YWxfYmluZGluZycsICctaW1hZScsICc8aW5maWxlLm1hZT4nLCAnLW9tYWUnLCAnPG91dGZpbGUubWFlPic=

> <r_epik_Ionization_Penalty>
0.000544611

> <r_epik_Ionization_Penalty_Charging>
0.000481685

> <r_epik_Ionization_Penalty_Neutral>
6.29266e-05

> <r_epik_State_Penalty>
0.00029893

> <r_epik_Charging_Adjusted_Penalty>
0.000780614

> <i_epik_Tot_Q>
-1

> <i_epik_Tot_abs_Q>
1

> <r_epik_Metal_State_Penalty>
-0

> <b_epik_Metal_Only>
0

> <s_lp_Force_Field>
OPLS_2005

> <r_lp_Energy>
7.32439

> <b_lp_Chiralities_Consistent>
1

> <s_lp_Variant>
AV-unprocessed.smi:2405-3

> <Gold.Version>
5.8.1

> <Gold.Id.Protein>
6NUR|6NUR_protein|mol2

> <Gold.PLP.Fitness>
46.1116

> <Gold.PLP.PLP>
-40.9588

> <Gold.PLP.part.hbond>
-2.0000

> <Gold.PLP.part.metal>
0.0000

> <Gold.PLP.part.buried>
-5.2207

> <Gold.PLP.part.nonpolar>
-33.7241

> <Gold.PLP.part.repulsive>
0.0000

> <Gold.PLP.ligand.clash>
0.0000

> <Gold.PLP.ligand.torsion>
0.4437

> <Gold.PLP.Chemscore.Hbond>
2.0000

> <Gold.PLP.Chemscore.CHOScore>
0.0000

> <Gold.PLP.Chemscore.Metal>
0.0000

> <Gold.PLP.Chemscore.Internal.Correction>
0.0402

> <Gold.Rescore>
     Score         DG    S(hbond)    S(metal)    S(lipo)     H(rot)  DE(clash)    DE(int)     intcor
     15.11     -16.86       0.99        0.00     114.19       2.06       0.03       1.72       ----

> <Gold.Chemscore.Fitness>
15.1096

> <Gold.Chemscore.DG>
-16.8591

> <Gold.Chemscore.ZeroCoef>
-5.4800

> <Gold.Chemscore.Hbond>
0.9886

> <Gold.Chemscore.Metal>
0.0000

> <Gold.Chemscore.Lipo>
114.1854

> <Gold.Chemscore.Internal_Hbond>
0.0000

> <Gold.Chemscore.DEClash>
0.0320

> <Gold.Chemscore.DEInternal>
1.7176

> <Gold.Chemscore.Rot>
2.0635

> <Gold.Chemscore.Internal.Correction>
   9.000000E+99

> <Gold.Chemscore.Hbond.Weighted>
-3.3019

> <Gold.Chemscore.Metal.Weighted>
-0.0000

> <Gold.Chemscore.Lipo.Weighted>
-13.3597

> <Gold.Chemscore.Internal_Hbond.Weighted>
0.0000

> <Gold.Chemscore.DEClash.Weighted>
0.0320

> <Gold.Chemscore.DEInternal.Weighted>
1.7176

> <Gold.Chemscore.Rot.Weighted>
5.2825

> <Gold.Chemscore.Internal.Correction.Weighted>
   9.000000E+99

> <Gold.Protein.RotatedTorsions>
[ 6907 6896 6895 6894 ] final   54.62 input  -60.11 | X-H torsion
[ 7974 7965 7964 7962 ] final   48.25 input  175.53 | X-H torsion
[ 8008 7997 7996 7995 ] final -131.81 input   59.86 | X-H torsion
[ 10167 10162 10161 10158 ] final   38.19 input  -65.29 | X-H torsion
[ 10718 10713 10712 10709 ] final  -14.23 input   66.30 | X-H torsion
[ 10763 10752 10751 10750 ] final   12.10 input  -60.55 | X-H torsion
[ 11005 11000 10999 10996 ] final   -1.50 input  -57.11 | X-H torsion

> <Gold.Protein.ActiveResidues>
 VAL166  LYS551  ARG553  GLY616  TRP617  ASP618  TYR619  PRO620  LYS621  CYS622 
 ASP623  PHE694  ASN695  SER759  ASP760  ASP761  ALA762  ILE779  LEU786  VAL792 
 PHE793  MET794  SER795  GLU796  ALA797  LYS798  CYS799  TRP800  GLU811  SER814 

> <Gold.Protein.RotatedAtoms>
  152.3457  134.7074  160.0250 H   0  0  0  0  0  0  0  0  0  0  0  0  # atno 6907 bound_to 6896
  151.7444  133.3318  159.3382 H   0  0  0  0  0  0  0  0  0  0  0  0  # atno 6908 bound_to 6896
  150.7508  134.6182  159.6166 H   0  0  0  0  0  0  0  0  0  0  0  0  # atno 6909 bound_to 6896
  146.0222  139.4665  142.9890 H   0  0  0  0  0  0  0  0  0  0  0  0  # atno 7974 bound_to 7965
  155.3184  140.0461  157.3038 H   0  0  0  0  0  0  0  0  0  0  0  0  # atno 8008 bound_to 7997
  154.5393  140.2282  155.8634 H   0  0  0  0  0  0  0  0  0  0  0  0  # atno 8009 bound_to 7997
  156.1866  140.3061  155.9256 H   0  0  0  0  0  0  0  0  0  0  0  0  # atno 8010 bound_to 7997
  140.3960  144.1788  150.6132 H   0  0  0  0  0  0  0  0  0  0  0  0  # atno 10167 bound_to 10162
  156.6189  130.4870  149.6172 H   0  0  0  0  0  0  0  0  0  0  0  0  # atno 10718 bound_to 10713
  153.1858  135.6835  153.8418 H   0  0  0  0  0  0  0  0  0  0  0  0  # atno 10763 bound_to 10752
  153.7734  135.3193  155.3356 H   0  0  0  0  0  0  0  0  0  0  0  0  # atno 10764 bound_to 10752
  154.8087  135.4731  154.0557 H   0  0  0  0  0  0  0  0  0  0  0  0  # atno 10765 bound_to 10752
  140.6481  133.9429  155.8364 H   0  0  0  0  0  0  0  0  0  0  0  0  # atno 11005 bound_to 11000
  145.7175  141.0086  143.1420 LP  0  0  0  0  0  0  0  0  0  0  0  0  # atno 17320 bound_to 7965
  144.6995  139.8830  143.7448 LP  0  0  0  0  0  0  0  0  0  0  0  0  # atno 17321 bound_to 7965
  140.4790  143.2386  151.8982 LP  0  0  0  0  0  0  0  0  0  0  0  0  # atno 17342 bound_to 10162
  139.4786  144.5289  151.8694 LP  0  0  0  0  0  0  0  0  0  0  0  0  # atno 17343 bound_to 10162
  156.2328  130.6804  151.1480 LP  0  0  0  0  0  0  0  0  0  0  0  0  # atno 17370 bound_to 10713
  157.7233  131.0667  150.6042 LP  0  0  0  0  0  0  0  0  0  0  0  0  # atno 17371 bound_to 10713
  141.0557  134.0419  157.3725 LP  0  0  0  0  0  0  0  0  0  0  0  0  # atno 17394 bound_to 11000
  139.9056  135.0178  156.7469 LP  0  0  0  0  0  0  0  0  0  0  0  0  # atno 17395 bound_to 11000

$$$$
