AV-unprocessed.smi:1140|AV-procd|sdf|4871|dock2
  -GOLD-   22720 3443D 1   1.00000     0.00000
 Structure written by MMmdl.
 48 50  0  0  0  0  0  0  0  0  1 V2000
  144.6126  133.6100  151.7195 C   0  0  0  0  0  0  0  0  0  0  0  0
  146.0973  133.2851  151.8997 C   0  0  0  0  0  0  0  0  0  0  0  0
  146.6910  134.2942  152.7113 O   0  0  0  0  0  0  0  0  0  0  0  0
  146.3603  134.3475  154.0522 C   0  0  0  0  0  0  0  0  0  0  0  0
  145.5071  133.4141  154.5444 N   0  0  0  0  0  0  0  0  0  0  0  0
  145.1867  133.4623  155.8537 C   0  0  0  0  0  0  0  0  0  0  0  0
  145.6990  134.4299  156.7368 C   0  0  0  0  0  0  0  0  0  0  0  0
  146.5840  135.3987  156.2293 C   0  0  0  0  0  0  0  0  0  0  0  0
  146.9189  135.3704  154.8536 C   0  0  0  0  0  0  0  0  0  0  0  0
  147.8208  136.2868  154.2461 N   0  0  0  0  0  0  0  0  0  0  0  0
  148.5633  137.2411  154.8321 C   0  0  0  0  0  0  0  0  0  0  0  0
  148.5312  137.5330  156.0276 O   0  0  0  0  0  0  0  0  0  0  0  0
  149.3455  137.8640  153.9391 N   0  0  0  0  0  0  0  0  0  0  0  0
  150.2691  138.9532  154.2426 C   0  0  0  0  0  0  0  0  0  0  0  0
  151.6046  138.3718  154.7534 C   0  0  0  0  0  0  0  0  0  0  0  0
  152.5415  139.4833  155.2601 C   0  0  0  0  0  0  0  0  0  0  0  0
  151.8494  140.2516  156.3022 N   0  0  0  0  0  0  0  0  0  0  0  0
  152.1720  140.1499  157.6160 C   0  0  0  0  0  0  0  0  0  0  0  0
  153.0803  139.4194  158.0153 O   0  0  0  0  0  0  0  0  0  0  0  0
  151.3883  140.9887  158.5774 C   0  0  0  0  0  0  0  0  0  0  0  0
  151.2605  142.4749  158.2951 C   0  0  0  0  0  0  0  0  0  0  0  0
  152.1646  141.9956  159.4001 C   0  0  0  0  0  0  0  0  0  0  0  0
  150.6857  140.9633  155.7540 C   0  0  0  0  0  0  0  0  0  0  0  0
  149.6526  139.9287  155.2727 C   0  0  0  0  0  0  0  0  0  0  0  0
  144.1200  132.8544  151.1072 H   0  0  0  0  0  0  0  0  0  0  0  0
  144.4786  134.5755  151.2313 H   0  0  0  0  0  0  0  0  0  0  0  0
  144.1007  133.6461  152.6814 H   0  0  0  0  0  0  0  0  0  0  0  0
  146.2015  132.3064  152.3709 H   0  0  0  0  0  0  0  0  0  0  0  0
  146.5851  133.2448  150.9244 H   0  0  0  0  0  0  0  0  0  0  0  0
  144.5069  132.7028  156.2102 H   0  0  0  0  0  0  0  0  0  0  0  0
  145.4242  134.4259  157.7813 H   0  0  0  0  0  0  0  0  0  0  0  0
  146.9992  136.1296  156.9057 H   0  0  0  0  0  0  0  0  0  0  0  0
  147.8740  136.2355  153.2391 H   0  0  0  0  0  0  0  0  0  0  0  0
  149.2991  137.5638  152.9764 H   0  0  0  0  0  0  0  0  0  0  0  0
  150.4777  139.5058  153.3244 H   0  0  0  0  0  0  0  0  0  0  0  0
  151.4167  137.6670  155.5653 H   0  0  0  0  0  0  0  0  0  0  0  0
  152.0945  137.8061  153.9603 H   0  0  0  0  0  0  0  0  0  0  0  0
  153.4800  139.0493  155.6075 H   0  0  0  0  0  0  0  0  0  0  0  0
  152.8122  140.1491  154.4392 H   0  0  0  0  0  0  0  0  0  0  0  0
  150.5161  140.5200  159.0299 H   0  0  0  0  0  0  0  0  0  0  0  0
  151.7394  142.8912  157.4108 H   0  0  0  0  0  0  0  0  0  0  0  0
  150.3228  142.9509  158.5745 H   0  0  0  0  0  0  0  0  0  0  0  0
  151.8430  142.1441  160.4288 H   0  0  0  0  0  0  0  0  0  0  0  0
  153.2385  142.0710  159.2372 H   0  0  0  0  0  0  0  0  0  0  0  0
  150.2112  141.6473  156.4555 H   0  0  0  0  0  0  0  0  0  0  0  0
  151.0068  141.5851  154.9170 H   0  0  0  0  0  0  0  0  0  0  0  0
  148.7927  140.4417  154.8408 H   0  0  0  0  0  0  0  0  0  0  0  0
  149.2786  139.3708  156.1328 H   0  0  0  0  0  0  0  0  0  0  0  0
  1  2  1  0  0  0  0
  1 25  1  0  0  0  0
  1 26  1  0  0  0  0
  1 27  1  0  0  0  0
  2  3  1  0  0  0  0
  2 28  1  0  0  0  0
  2 29  1  0  0  0  0
  3  4  1  0  0  0  0
  4  9  1  0  0  0  0
  4  5  2  0  0  0  0
  5  6  1  0  0  0  0
  6  7  2  0  0  0  0
  6 30  1  0  0  0  0
  7  8  1  0  0  0  0
  7 31  1  0  0  0  0
  8  9  2  0  0  0  0
  8 32  1  0  0  0  0
  9 10  1  0  0  0  0
 10 11  1  0  0  0  0
 10 33  1  0  0  0  0
 11 12  2  0  0  0  0
 11 13  1  0  0  0  0
 13 14  1  0  0  0  0
 13 34  1  0  0  0  0
 14 24  1  0  0  0  0
 14 15  1  0  0  0  0
 14 35  1  0  0  0  0
 15 16  1  0  0  0  0
 15 36  1  0  0  0  0
 15 37  1  0  0  0  0
 16 17  1  0  0  0  0
 16 38  1  0  0  0  0
 16 39  1  0  0  0  0
 17 18  1  0  0  0  0
 17 23  1  0  0  0  0
 18 19  2  0  0  0  0
 18 20  1  0  0  0  0
 20 22  1  0  0  0  0
 20 21  1  0  0  0  0
 20 40  1  0  0  0  0
 21 22  1  0  0  0  0
 21 41  1  0  0  0  0
 21 42  1  0  0  0  0
 22 43  1  0  0  0  0
 22 44  1  0  0  0  0
 23 24  1  0  0  0  0
 23 45  1  0  0  0  0
 23 46  1  0  0  0  0
 24 47  1  0  0  0  0
 24 48  1  0  0  0  0
M  END
> <s_m_source_file>
AV-unprocessed.smi

> <i_m_source_file_index>
1140

> <i_lp_mmshare_version>
43012

> <i_f3d_flags>
0

> <s_epik_input>
W0NIM11bQ0gyXU9jMW5bY0hdW2NIXVtjSF1jMVtOSF1DKD1PKVtOSF1bQ0hdMltDSDJdW0NIMl1OKFtDSDJdW0NIMl0yKUMoPU8pW0NIXTNbQ0gyXVtDSDJdMw==

> <s_epik_cmdline>
J2VwaWtfcHl0aG9uJywgJy1waCcsICc3LjAnLCAnLXRuJywgJzgnLCAnLW1hJywgJzIwMCcsICctbWV0YWxfYmluZGluZycsICctaW1hZScsICc8aW5maWxlLm1hZT4nLCAnLW9tYWUnLCAnPG91dGZpbGUubWFlPic=

> <r_lp_tautomer_probability>
1

> <r_epik_Ionization_Penalty>
0.00011541

> <r_epik_Ionization_Penalty_Charging>
0

> <r_epik_Ionization_Penalty_Neutral>
0.00011541

> <r_epik_State_Penalty>
-0

> <r_epik_Charging_Adjusted_Penalty>
0

> <i_epik_Tot_Q>
0

> <i_epik_Tot_abs_Q>
0

> <r_epik_Metal_State_Penalty>
-0

> <b_epik_Metal_Only>
0

> <s_lp_Force_Field>
OPLS_2005

> <r_lp_Energy>
31.5236

> <b_lp_Chiralities_Consistent>
1

> <s_lp_Variant>
AV-unprocessed.smi:1140-1

> <Gold.Version>
5.8.1

> <Gold.Id.Protein>
6NUR|6NUR_protein|mol2

> <Gold.PLP.Fitness>
41.0822

> <Gold.PLP.PLP>
-30.4057

> <Gold.PLP.part.hbond>
-3.0000

> <Gold.PLP.part.metal>
0.0000

> <Gold.PLP.part.buried>
-1.7238

> <Gold.PLP.part.nonpolar>
-26.4432

> <Gold.PLP.part.repulsive>
0.7641

> <Gold.PLP.ligand.clash>
0.0000

> <Gold.PLP.ligand.torsion>
0.4290

> <Gold.PLP.Chemscore.Hbond>
2.9520

> <Gold.PLP.Chemscore.CHOScore>
0.8466

> <Gold.PLP.Chemscore.Metal>
0.0000

> <Gold.Chemscore.Hbonds>
donor molecule, donor type, donor heavy atom, donor atom, acceptor molecule, acceptor atom, score
      L1  H    10    33       P1  7948  0.90
      L1  H    13    34       P1  7948  0.96
      P1  H  7997  8008       L1    19  1.00
      L1  C     6    30       P1 10957  0.88

> <Gold.PLP.Chemscore.Internal.Correction>
0.1387

> <Gold.Rescore>
     Score         DG    S(hbond)    S(metal)    S(lipo)     H(rot)  DE(clash)    DE(int)     intcor
     15.81     -19.50       2.80        0.00      74.25       1.56       0.40       3.29       ----

> <Gold.Chemscore.Fitness>
15.8073

> <Gold.Chemscore.DG>
-19.5011

> <Gold.Chemscore.ZeroCoef>
-5.4800

> <Gold.Chemscore.Hbond>
2.7959

> <Gold.Chemscore.Metal>
0.0000

> <Gold.Chemscore.Lipo>
74.2455

> <Gold.Chemscore.Internal_Hbond>
0.0000

> <Gold.Chemscore.DEClash>
0.3991

> <Gold.Chemscore.DEInternal>
3.2947

> <Gold.Chemscore.Rot>
1.5640

> <Gold.Chemscore.Internal.Correction>
   9.000000E+99

> <Gold.Chemscore.Hbonds>
donor molecule, donor type, donor heavy atom, donor atom, acceptor molecule, acceptor atom, score
      L1  H    10    33       P1  7948  0.88
      L1  H    13    34       P1  7948  0.88
      P1  H  7997  8008       L1    19  0.35

> <Gold.Chemscore.Hbond.Weighted>
-9.3382

> <Gold.Chemscore.Metal.Weighted>
-0.0000

> <Gold.Chemscore.Lipo.Weighted>
-8.6867

> <Gold.Chemscore.Internal_Hbond.Weighted>
0.0000

> <Gold.Chemscore.DEClash.Weighted>
0.3991

> <Gold.Chemscore.DEInternal.Weighted>
3.2947

> <Gold.Chemscore.Rot.Weighted>
4.0038

> <Gold.Chemscore.Internal.Correction.Weighted>
   9.000000E+99

> <Gold.Protein.RotatedTorsions>
[ 6907 6896 6895 6894 ] final  -91.36 input  -60.11 | X-H torsion
[ 7974 7965 7964 7962 ] final  -60.62 input  175.53 | X-H torsion
[ 8008 7997 7996 7995 ] final  -83.12 input   59.86 | X-H torsion
[ 10167 10162 10161 10158 ] final   90.63 input  -65.29 | X-H torsion
[ 10718 10713 10712 10709 ] final  -24.36 input   66.30 | X-H torsion
[ 10763 10752 10751 10750 ] final -150.85 input  -60.55 | X-H torsion
[ 11005 11000 10999 10996 ] final  172.49 input  -57.11 | X-H torsion

> <Gold.Protein.ActiveResidues>
 VAL166  LYS551  ARG553  GLY616  TRP617  ASP618  TYR619  PRO620  LYS621  CYS622 
 ASP623  PHE694  ASN695  SER759  ASP760  ASP761  ALA762  ILE779  LEU786  VAL792 
 PHE793  MET794  SER795  GLU796  ALA797  LYS798  CYS799  TRP800  GLU811  SER814 

> <Gold.Protein.RotatedAtoms>
  150.6892  134.2288  159.4425 H   0  0  0  0  0  0  0  0  0  0  0  0  # atno 6907 bound_to 6896
  152.0240  134.9804  160.0580 H   0  0  0  0  0  0  0  0  0  0  0  0  # atno 6908 bound_to 6896
  152.1369  133.4406  159.4785 H   0  0  0  0  0  0  0  0  0  0  0  0  # atno 6909 bound_to 6896
  145.8133  140.8585  143.0170 H   0  0  0  0  0  0  0  0  0  0  0  0  # atno 7974 bound_to 7965
  154.6158  140.0623  156.9552 H   0  0  0  0  0  0  0  0  0  0  0  0  # atno 8008 bound_to 7997
  155.1899  140.3306  155.4342 H   0  0  0  0  0  0  0  0  0  0  0  0  # atno 8009 bound_to 7997
  156.2403  140.1883  156.6990 H   0  0  0  0  0  0  0  0  0  0  0  0  # atno 8010 bound_to 7997
  139.8454  144.6620  150.9233 H   0  0  0  0  0  0  0  0  0  0  0  0  # atno 10167 bound_to 10162
  156.4786  130.4540  149.6825 H   0  0  0  0  0  0  0  0  0  0  0  0  # atno 10718 bound_to 10713
  154.8094  135.3274  154.7345 H   0  0  0  0  0  0  0  0  0  0  0  0  # atno 10763 bound_to 10752
  153.7997  135.6904  153.4862 H   0  0  0  0  0  0  0  0  0  0  0  0  # atno 10764 bound_to 10752
  153.1862  135.4568  155.0037 H   0  0  0  0  0  0  0  0  0  0  0  0  # atno 10765 bound_to 10752
  140.3302  134.7363  157.4129 H   0  0  0  0  0  0  0  0  0  0  0  0  # atno 11005 bound_to 11000
  144.6755  140.0427  143.7480 LP  0  0  0  0  0  0  0  0  0  0  0  0  # atno 17320 bound_to 7965
  145.9754  139.2901  143.1074 LP  0  0  0  0  0  0  0  0  0  0  0  0  # atno 17321 bound_to 7965
  140.7793  143.3875  151.1368 LP  0  0  0  0  0  0  0  0  0  0  0  0  # atno 17342 bound_to 10162
  139.7518  143.8767  152.3078 LP  0  0  0  0  0  0  0  0  0  0  0  0  # atno 17343 bound_to 10162
  156.3544  130.7449  151.2413 LP  0  0  0  0  0  0  0  0  0  0  0  0  # atno 17370 bound_to 10713
  157.7485  131.0368  150.4425 LP  0  0  0  0  0  0  0  0  0  0  0  0  # atno 17371 bound_to 10713
  140.0867  134.5657  155.8485 LP  0  0  0  0  0  0  0  0  0  0  0  0  # atno 17394 bound_to 11000
  141.2065  133.6656  156.6247 LP  0  0  0  0  0  0  0  0  0  0  0  0  # atno 17395 bound_to 11000

$$$$
