AV-unprocessed.smi:1762|AV-procd|sdf|7099|dock4
  -GOLD-   22720 8313D 1   1.00000     0.00000
 Structure written by MMmdl.
 52 53  0  0  0  0  0  0  0  0  1 V2000
  150.2617  134.6940  155.5872 C   0  0  0  0  0  0  0  0  0  0  0  0
  150.2199  136.2250  155.5259 C   0  0  2  0  0  0  0  0  0  0  0  0
  148.8246  136.7538  155.1466 C   0  0  0  0  0  0  0  0  0  0  0  0
  148.7916  138.2133  155.0044 N   0  0  0  0  0  0  0  0  0  0  0  0
  147.4275  138.7390  154.7155 C   0  0  2  0  0  0  0  0  0  0  0  0
  146.8897  138.3098  153.3297 C   0  0  0  0  0  0  0  0  0  0  0  0
  146.7965  139.1299  152.4157 O   0  0  0  0  0  0  0  0  0  0  0  0
  146.5709  137.0138  153.1829 N   0  0  0  0  0  0  0  0  0  0  0  0
  146.0908  136.4060  151.9480 C   0  0  0  0  0  0  0  0  0  0  0  0
  144.7690  135.6520  152.1704 C   0  0  0  0  0  0  0  0  0  0  0  0
  144.7377  134.3196  151.4466 C   0  0  0  0  0  0  0  0  0  0  0  0
  145.9037  133.8015  150.8436 C   0  0  0  0  0  0  0  0  0  0  0  0
  145.8218  132.5627  150.1791 C   0  0  0  0  0  0  0  0  0  0  0  0
  144.5829  131.8939  150.1420 C   0  0  0  0  0  0  0  0  0  0  0  0
  143.4766  132.4967  150.7732 C   0  0  0  0  0  0  0  0  0  0  0  0
  143.5444  133.6843  151.4132 N   0  0  0  0  0  0  0  0  0  0  0  0
  147.2565  140.2817  154.9248 C   0  0  0  0  0  0  0  0  0  0  0  0
  145.7843  140.7333  155.0126 C   0  0  0  0  0  0  0  0  0  0  0  0
  148.0198  141.1391  153.8962 C   0  0  0  0  0  0  0  0  0  0  0  0
  149.8191  138.6089  154.0244 C   0  0  0  0  0  0  0  0  0  0  0  0
  151.2229  138.0626  154.3527 C   0  0  1  0  0  0  0  0  0  0  0  0
  151.9011  138.7913  155.5262 C   0  0  0  0  0  0  0  0  0  0  0  0
  151.1724  136.6530  154.5584 O   0  0  0  0  0  0  0  0  0  0  0  0
  149.5609  134.3119  156.3298 H   0  0  0  0  0  0  0  0  0  0  0  0
  151.2573  134.3423  155.8588 H   0  0  0  0  0  0  0  0  0  0  0  0
  150.0035  134.2527  154.6242 H   0  0  0  0  0  0  0  0  0  0  0  0
  150.4998  136.6106  156.5066 H   0  0  0  0  0  0  0  0  0  0  0  0
  148.4908  136.2830  154.2202 H   0  0  0  0  0  0  0  0  0  0  0  0
  148.1431  136.4246  155.9282 H   0  0  0  0  0  0  0  0  0  0  0  0
  146.7576  138.2725  155.4414 H   0  0  0  0  0  0  0  0  0  0  0  0
  146.6813  136.4041  153.9802 H   0  0  0  0  0  0  0  0  0  0  0  0
  145.9501  137.1987  151.2127 H   0  0  0  0  0  0  0  0  0  0  0  0
  146.8503  135.7363  151.5408 H   0  0  0  0  0  0  0  0  0  0  0  0
  144.6074  135.4798  153.2355 H   0  0  0  0  0  0  0  0  0  0  0  0
  143.9296  136.2600  151.8297 H   0  0  0  0  0  0  0  0  0  0  0  0
  146.8393  134.3399  150.8874 H   0  0  0  0  0  0  0  0  0  0  0  0
  146.6927  132.1338  149.7059 H   0  0  0  0  0  0  0  0  0  0  0  0
  144.4827  130.9423  149.6413 H   0  0  0  0  0  0  0  0  0  0  0  0
  142.5112  132.0125  150.7628 H   0  0  0  0  0  0  0  0  0  0  0  0
  147.6628  140.5284  155.9042 H   0  0  0  0  0  0  0  0  0  0  0  0
  145.2724  140.6551  154.0528 H   0  0  0  0  0  0  0  0  0  0  0  0
  145.7159  141.7746  155.3288 H   0  0  0  0  0  0  0  0  0  0  0  0
  145.2313  140.1360  155.7380 H   0  0  0  0  0  0  0  0  0  0  0  0
  147.6221  141.0186  152.8891 H   0  0  0  0  0  0  0  0  0  0  0  0
  149.0794  140.8849  153.8682 H   0  0  0  0  0  0  0  0  0  0  0  0
  147.9500  142.1977  154.1477 H   0  0  0  0  0  0  0  0  0  0  0  0
  149.5262  138.2558  153.0340 H   0  0  0  0  0  0  0  0  0  0  0  0
  149.9108  139.6917  153.9465 H   0  0  0  0  0  0  0  0  0  0  0  0
  151.8549  138.2189  153.4780 H   0  0  0  0  0  0  0  0  0  0  0  0
  152.0446  139.8471  155.2955 H   0  0  0  0  0  0  0  0  0  0  0  0
  152.8814  138.3630  155.7359 H   0  0  0  0  0  0  0  0  0  0  0  0
  151.3095  138.7377  156.4399 H   0  0  0  0  0  0  0  0  0  0  0  0
  1  2  1  0  0  0  0
  1 24  1  0  0  0  0
  1 25  1  0  0  0  0
  1 26  1  0  0  0  0
  2 23  1  0  0  0  0
  2  3  1  0  0  0  0
  2 27  1  0  0  0  0
  3  4  1  0  0  0  0
  3 28  1  0  0  0  0
  3 29  1  0  0  0  0
  4  5  1  0  0  0  0
  4 20  1  0  0  0  0
  5  6  1  0  0  0  0
  5 17  1  0  0  0  0
  5 30  1  0  0  0  0
  6  7  2  0  0  0  0
  6  8  1  0  0  0  0
  8  9  1  0  0  0  0
  8 31  1  0  0  0  0
  9 10  1  0  0  0  0
  9 32  1  0  0  0  0
  9 33  1  0  0  0  0
 10 11  1  0  0  0  0
 10 34  1  0  0  0  0
 10 35  1  0  0  0  0
 11 16  1  0  0  0  0
 11 12  2  0  0  0  0
 12 13  1  0  0  0  0
 12 36  1  0  0  0  0
 13 14  2  0  0  0  0
 13 37  1  0  0  0  0
 14 15  1  0  0  0  0
 14 38  1  0  0  0  0
 15 16  2  0  0  0  0
 15 39  1  0  0  0  0
 17 18  1  0  0  0  0
 17 19  1  0  0  0  0
 17 40  1  0  0  0  0
 18 41  1  0  0  0  0
 18 42  1  0  0  0  0
 18 43  1  0  0  0  0
 19 44  1  0  0  0  0
 19 45  1  0  0  0  0
 19 46  1  0  0  0  0
 20 21  1  0  0  0  0
 20 47  1  0  0  0  0
 20 48  1  0  0  0  0
 21 22  1  0  0  0  0
 21 23  1  0  0  0  0
 21 49  1  0  0  0  0
 22 50  1  0  0  0  0
 22 51  1  0  0  0  0
 22 52  1  0  0  0  0
M  END
> <s_m_source_file>
AV-unprocessed.smi

> <i_m_source_file_index>
1762

> <i_lp_mmshare_version>
43012

> <i_f3d_flags>
0

> <s_epik_input>
W0NIM11bQ0BASF0xW0NIMl1OKFtDSDJdW0NASF0oTzEpW0NIM10pW0NAQEhdKFtDSF0oW0NIM10pW0NIM10pQyg9TylbTkhdW0NIMl1bQ0gyXWMyW2NIXVtjSF1bY0hdW2NIXW4y

> <s_epik_cmdline>
J2VwaWtfcHl0aG9uJywgJy1waCcsICc3LjAnLCAnLXRuJywgJzgnLCAnLW1hJywgJzIwMCcsICctbWV0YWxfYmluZGluZycsICctaW1hZScsICc8aW5maWxlLm1hZT4nLCAnLW9tYWUnLCAnPG91dGZpbGUubWFlPic=

> <r_epik_Ionization_Penalty>
0.0399736

> <r_epik_Ionization_Penalty_Charging>
0

> <r_epik_Ionization_Penalty_Neutral>
0.0399736

> <r_epik_State_Penalty>
0.0317634

> <r_epik_Charging_Adjusted_Penalty>
0.0317634

> <i_epik_Tot_Q>
0

> <i_epik_Tot_abs_Q>
0

> <r_epik_Metal_State_Penalty>
0.0307795

> <b_epik_Metal_Only>
0

> <s_lp_Force_Field>
OPLS_2005

> <r_lp_Energy>
28.4472

> <b_lp_Chiralities_Consistent>
1

> <s_lp_Variant>
AV-unprocessed.smi:1762-1

> <Gold.Version>
5.8.1

> <Gold.Id.Protein>
6NUR|6NUR_protein|mol2

> <Gold.PLP.Fitness>
38.0209

> <Gold.PLP.PLP>
-34.6503

> <Gold.PLP.part.hbond>
-1.9939

> <Gold.PLP.part.metal>
0.0000

> <Gold.PLP.part.buried>
-4.9937

> <Gold.PLP.part.nonpolar>
-31.3886

> <Gold.PLP.part.repulsive>
0.7969

> <Gold.PLP.ligand.clash>
0.0000

> <Gold.PLP.ligand.torsion>
1.0155

> <Gold.PLP.Chemscore.Hbond>
1.0000

> <Gold.PLP.Chemscore.CHOScore>
0.6820

> <Gold.PLP.Chemscore.Metal>
0.0000

> <Gold.Chemscore.Hbonds>
donor molecule, donor type, donor heavy atom, donor atom, acceptor molecule, acceptor atom, score
      P1  H 10752 10764       L1    23  0.99
      L1  C    15    39       P1 10952  0.71

> <Gold.PLP.Chemscore.Internal.Correction>
0.3557

> <Gold.Rescore>
     Score         DG    S(hbond)    S(metal)    S(lipo)     H(rot)  DE(clash)    DE(int)     intcor
     11.83     -16.38       0.89        0.00     102.78       1.60       1.07       3.49       ----

> <Gold.Chemscore.Fitness>
11.8269

> <Gold.Chemscore.DG>
-16.3832

> <Gold.Chemscore.ZeroCoef>
-5.4800

> <Gold.Chemscore.Hbond>
0.8898

> <Gold.Chemscore.Metal>
0.0000

> <Gold.Chemscore.Lipo>
102.7804

> <Gold.Chemscore.Internal_Hbond>
0.0000

> <Gold.Chemscore.DEClash>
1.0656

> <Gold.Chemscore.DEInternal>
3.4908

> <Gold.Chemscore.Rot>
1.5993

> <Gold.Chemscore.Internal.Correction>
   9.000000E+99

> <Gold.Chemscore.Hbonds>
donor molecule, donor type, donor heavy atom, donor atom, acceptor molecule, acceptor atom, score
      P1  H 10752 10764       L1    23  0.82

> <Gold.Chemscore.Hbond.Weighted>
-2.9720

> <Gold.Chemscore.Metal.Weighted>
-0.0000

> <Gold.Chemscore.Lipo.Weighted>
-12.0253

> <Gold.Chemscore.Internal_Hbond.Weighted>
0.0000

> <Gold.Chemscore.DEClash.Weighted>
1.0656

> <Gold.Chemscore.DEInternal.Weighted>
3.4908

> <Gold.Chemscore.Rot.Weighted>
4.0941

> <Gold.Chemscore.Internal.Correction.Weighted>
   9.000000E+99

> <Gold.Protein.RotatedTorsions>
[ 6907 6896 6895 6894 ] final   78.46 input  -60.11 | X-H torsion
[ 7974 7965 7964 7962 ] final  139.18 input  175.53 | X-H torsion
[ 8008 7997 7996 7995 ] final -165.17 input   59.86 | X-H torsion
[ 10167 10162 10161 10158 ] final  126.83 input  -65.29 | X-H torsion
[ 10718 10713 10712 10709 ] final  -43.08 input   66.30 | X-H torsion
[ 10763 10752 10751 10750 ] final  -64.79 input  -60.55 | X-H torsion
[ 11005 11000 10999 10996 ] final  138.21 input  -57.11 | X-H torsion

> <Gold.Protein.ActiveResidues>
 VAL166  LYS551  ARG553  GLY616  TRP617  ASP618  TYR619  PRO620  LYS621  CYS622 
 ASP623  PHE694  ASN695  SER759  ASP760  ASP761  ALA762  ILE779  LEU786  VAL792 
 PHE793  MET794  SER795  GLU796  ALA797  LYS798  CYS799  TRP800  GLU811  SER814 

> <Gold.Protein.RotatedAtoms>
  152.5160  134.3660  159.9301 H   0  0  0  0  0  0  0  0  0  0  0  0  # atno 6907 bound_to 6896
  151.3613  133.3882  159.2698 H   0  0  0  0  0  0  0  0  0  0  0  0  # atno 6908 bound_to 6896
  150.9649  134.9051  159.7811 H   0  0  0  0  0  0  0  0  0  0  0  0  # atno 6909 bound_to 6896
  144.9303  139.5055  143.5621 H   0  0  0  0  0  0  0  0  0  0  0  0  # atno 7974 bound_to 7965
  155.8460  140.0955  157.1705 H   0  0  0  0  0  0  0  0  0  0  0  0  # atno 8008 bound_to 7997
  154.3983  140.1392  156.3847 H   0  0  0  0  0  0  0  0  0  0  0  0  # atno 8009 bound_to 7997
  155.8013  140.3453  155.5407 H   0  0  0  0  0  0  0  0  0  0  0  0  # atno 8010 bound_to 7997
  139.5610  144.6882  151.4043 H   0  0  0  0  0  0  0  0  0  0  0  0  # atno 10167 bound_to 10162
  156.2528  130.4189  149.8630 H   0  0  0  0  0  0  0  0  0  0  0  0  # atno 10718 bound_to 10713
  154.3354  135.6168  153.5571 H   0  0  0  0  0  0  0  0  0  0  0  0  # atno 10763 bound_to 10752
  152.9808  135.5757  154.4914 H   0  0  0  0  0  0  0  0  0  0  0  0  # atno 10764 bound_to 10752
  154.4608  135.2856  155.1691 H   0  0  0  0  0  0  0  0  0  0  0  0  # atno 10765 bound_to 10752
  140.0168  134.9415  157.0392 H   0  0  0  0  0  0  0  0  0  0  0  0  # atno 11005 bound_to 11000
  146.3244  139.8249  142.8919 LP  0  0  0  0  0  0  0  0  0  0  0  0  # atno 17320 bound_to 7965
  145.3152  141.0230  143.3531 LP  0  0  0  0  0  0  0  0  0  0  0  0  # atno 17321 bound_to 7965
  140.6890  143.7906  150.7227 LP  0  0  0  0  0  0  0  0  0  0  0  0  # atno 17342 bound_to 10162
  140.1383  143.4464  152.2210 LP  0  0  0  0  0  0  0  0  0  0  0  0  # atno 17343 bound_to 10162
  156.6173  130.8611  151.3467 LP  0  0  0  0  0  0  0  0  0  0  0  0  # atno 17370 bound_to 10713
  157.7221  130.9572  150.1481 LP  0  0  0  0  0  0  0  0  0  0  0  0  # atno 17371 bound_to 10713
  140.4457  134.1634  155.7177 LP  0  0  0  0  0  0  0  0  0  0  0  0  # atno 17394 bound_to 11000
  141.1748  133.8536  157.1457 LP  0  0  0  0  0  0  0  0  0  0  0  0  # atno 17395 bound_to 11000

$$$$
