AV-unprocessed.smi:1653|AV-procd|sdf|6641|dock6
  -GOLD-   22720 7343D 1   1.00000     0.00000
 Structure written by MMmdl.
 41 42  0  0  0  0  0  0  0  0  3 V2000
  152.0187  136.0856  156.3579 N   0  0  0  0  0  0  0  0  0  0  0  0
  151.4868  137.0789  156.6219 C   0  0  0  0  0  0  0  0  0  0  0  0
  150.8090  138.3460  156.9600 C   0  0  0  0  0  0  0  0  0  0  0  0
  149.5582  138.0697  157.6762 N   0  0  0  0  0  0  0  0  0  0  0  0
  149.4031  137.3270  158.7845 C   0  0  0  0  0  0  0  0  0  0  0  0
  150.3366  136.7799  159.3716 O   0  0  0  0  0  0  0  0  0  0  0  0
  147.9688  137.2106  159.3180 C   0  0  0  0  0  0  0  0  0  0  0  0
  147.8205  136.1729  160.3526 N   0  0  0  0  0  0  0  0  0  0  0  0
  147.5503  136.6111  161.6624 C   0  0  0  0  0  0  0  0  0  0  0  0
  147.4035  135.7518  162.6808 C   0  0  0  0  0  0  0  0  0  0  0  0
  147.5239  134.3408  162.4065 C   0  0  0  0  0  0  0  0  0  0  0  0
  147.7854  133.8957  161.1558 C   0  0  0  0  0  0  0  0  0  0  0  0
  147.8867  132.4694  160.9488 N   0  3  0  0  0  0  0  0  0  0  0  0
  147.8333  132.0315  159.8037 O   0  0  0  0  0  0  0  0  0  0  0  0
  148.0090  131.7423  161.9299 O   0  5  0  0  0  0  0  0  0  0  0  0
  147.9591  134.8470  160.0386 C   0  0  0  0  0  0  0  0  0  0  0  0
  148.2213  134.4883  158.8888 O   0  0  0  0  0  0  0  0  0  0  0  0
  151.7774  139.2116  157.8138 C   0  0  0  0  0  0  0  0  0  0  0  0
  151.1706  140.4911  158.4276 C   0  0  0  0  0  0  0  0  0  0  0  0
  151.1915  141.7384  157.5273 C   0  0  0  0  0  0  0  0  0  0  0  0
  150.8904  141.5194  156.0349 C   0  0  0  0  0  0  0  0  0  0  0  0
  149.8395  140.4430  155.7217 C   0  0  0  0  0  0  0  0  0  0  0  0
  150.4476  139.0305  155.6233 C   0  0  0  0  0  0  0  0  0  0  0  0
  148.7253  138.4790  157.2789 H   0  0  0  0  0  0  0  0  0  0  0  0
  147.6730  138.1863  159.7061 H   0  0  0  0  0  0  0  0  0  0  0  0
  147.2832  137.0142  158.4912 H   0  0  0  0  0  0  0  0  0  0  0  0
  147.4815  137.6823  161.7859 H   0  0  0  0  0  0  0  0  0  0  0  0
  147.2021  136.1065  163.6809 H   0  0  0  0  0  0  0  0  0  0  0  0
  147.3921  133.6403  163.2184 H   0  0  0  0  0  0  0  0  0  0  0  0
  152.1455  138.5972  158.6361 H   0  0  0  0  0  0  0  0  0  0  0  0
  152.6670  139.4642  157.2354 H   0  0  0  0  0  0  0  0  0  0  0  0
  150.1524  140.3093  158.7687 H   0  0  0  0  0  0  0  0  0  0  0  0
  151.7241  140.7347  159.3350 H   0  0  0  0  0  0  0  0  0  0  0  0
  150.4781  142.4571  157.9320 H   0  0  0  0  0  0  0  0  0  0  0  0
  152.1660  142.2213  157.6081 H   0  0  0  0  0  0  0  0  0  0  0  0
  150.5585  142.4710  155.6179 H   0  0  0  0  0  0  0  0  0  0  0  0
  151.8162  141.2860  155.5078 H   0  0  0  0  0  0  0  0  0  0  0  0
  149.0122  140.4801  156.4310 H   0  0  0  0  0  0  0  0  0  0  0  0
  149.4041  140.6789  154.7502 H   0  0  0  0  0  0  0  0  0  0  0  0
  151.3302  139.0673  154.9829 H   0  0  0  0  0  0  0  0  0  0  0  0
  149.7408  138.3915  155.0914 H   0  0  0  0  0  0  0  0  0  0  0  0
  1  2  3  0  0  0  0
  2  3  1  0  0  0  0
  3 23  1  0  0  0  0
  3  4  1  0  0  0  0
  3 18  1  0  0  0  0
  4  5  1  0  0  0  0
  4 24  1  0  0  0  0
  5  6  2  0  0  0  0
  5  7  1  0  0  0  0
  7  8  1  0  0  0  0
  7 25  1  0  0  0  0
  7 26  1  0  0  0  0
  8 16  1  0  0  0  0
  8  9  1  0  0  0  0
  9 10  2  0  0  0  0
  9 27  1  0  0  0  0
 10 11  1  0  0  0  0
 10 28  1  0  0  0  0
 11 12  2  0  0  0  0
 11 29  1  0  0  0  0
 12 13  1  0  0  0  0
 12 16  1  0  0  0  0
 13 14  2  0  0  0  0
 13 15  1  0  0  0  0
 16 17  2  0  0  0  0
 18 19  1  0  0  0  0
 18 30  1  0  0  0  0
 18 31  1  0  0  0  0
 19 20  1  0  0  0  0
 19 32  1  0  0  0  0
 19 33  1  0  0  0  0
 20 21  1  0  0  0  0
 20 34  1  0  0  0  0
 20 35  1  0  0  0  0
 21 22  1  0  0  0  0
 21 36  1  0  0  0  0
 21 37  1  0  0  0  0
 22 23  1  0  0  0  0
 22 38  1  0  0  0  0
 22 39  1  0  0  0  0
 23 40  1  0  0  0  0
 23 41  1  0  0  0  0
M  CHG  1  13   1
M  CHG  1  15  -1
M  END
> <s_m_source_file>
AV-unprocessed.smi

> <i_m_source_file_index>
1653

> <i_lp_mmshare_version>
43012

> <i_f3d_flags>
0

> <s_epik_input>
W0NIMl0xW0NIMl1bQ0gyXVtDSDJdW0NIMl1bQ0gyXUMxKEMjTilbTkhdQyg9TylbQ0gyXW4yW2NIXVtjSF1bY0hdYyhbTitdKD1PKVtPLV0pYzI9Tw==

> <s_epik_cmdline>
J2VwaWtfcHl0aG9uJywgJy1waCcsICc3LjAnLCAnLXRuJywgJzgnLCAnLW1hJywgJzIwMCcsICctbWV0YWxfYmluZGluZycsICctaW1hZScsICc8aW5maWxlLm1hZT4nLCAnLW9tYWUnLCAnPG91dGZpbGUubWFlPic=

> <r_lp_tautomer_probability>
1

> <r_epik_Ionization_Penalty>
4.51252e-07

> <r_epik_Ionization_Penalty_Charging>
1.09758e-10

> <r_epik_Ionization_Penalty_Neutral>
4.51142e-07

> <r_epik_State_Penalty>
-0

> <r_epik_Charging_Adjusted_Penalty>
1.09758e-10

> <i_epik_Tot_Q>
0

> <i_epik_Tot_abs_Q>
2

> <r_epik_Metal_State_Penalty>
-0

> <b_epik_Metal_Only>
0

> <s_lp_Force_Field>
OPLS_2005

> <r_lp_Energy>
31.6459

> <b_lp_Chiralities_Consistent>
1

> <s_lp_Variant>
AV-unprocessed.smi:1653-1

> <Gold.Version>
5.8.1

> <Gold.Id.Protein>
6NUR|6NUR_protein|mol2

> <Gold.PLP.Fitness>
40.9573

> <Gold.PLP.PLP>
-35.7160

> <Gold.PLP.part.hbond>
-2.0000

> <Gold.PLP.part.metal>
0.0000

> <Gold.PLP.part.buried>
-6.0925

> <Gold.PLP.part.nonpolar>
-28.0761

> <Gold.PLP.part.repulsive>
0.0676

> <Gold.PLP.ligand.clash>
0.0000

> <Gold.PLP.ligand.torsion>
0.3876

> <Gold.PLP.Chemscore.Hbond>
2.0000

> <Gold.PLP.Chemscore.CHOScore>
0.0000

> <Gold.PLP.Chemscore.Metal>
0.0000

> <Gold.Chemscore.Hbonds>
donor molecule, donor type, donor heavy atom, donor atom, acceptor molecule, acceptor atom, score
      P1  H  6896  6909       L1     6  1.00
      P1  H 10752 10764       L1     1  1.00

> <Gold.PLP.Chemscore.Internal.Correction>
0.0164

> <Gold.Rescore>
     Score         DG    S(hbond)    S(metal)    S(lipo)     H(rot)  DE(clash)    DE(int)     intcor
     14.39     -16.41       1.99        0.00      72.37       1.63       0.01       2.02       ----

> <Gold.Chemscore.Fitness>
14.3855

> <Gold.Chemscore.DG>
-16.4107

> <Gold.Chemscore.ZeroCoef>
-5.4800

> <Gold.Chemscore.Hbond>
1.9860

> <Gold.Chemscore.Metal>
0.0000

> <Gold.Chemscore.Lipo>
72.3660

> <Gold.Chemscore.Internal_Hbond>
0.0000

> <Gold.Chemscore.DEClash>
0.0089

> <Gold.Chemscore.DEInternal>
2.0163

> <Gold.Chemscore.Rot>
1.6287

> <Gold.Chemscore.Internal.Correction>
   9.000000E+99

> <Gold.Chemscore.Hbonds>
donor molecule, donor type, donor heavy atom, donor atom, acceptor molecule, acceptor atom, score
      P1  H  6896  6909       L1     6  0.99
      P1  H 10752 10764       L1     1  1.00

> <Gold.Chemscore.Hbond.Weighted>
-6.6333

> <Gold.Chemscore.Metal.Weighted>
-0.0000

> <Gold.Chemscore.Lipo.Weighted>
-8.4668

> <Gold.Chemscore.Internal_Hbond.Weighted>
0.0000

> <Gold.Chemscore.DEClash.Weighted>
0.0089

> <Gold.Chemscore.DEInternal.Weighted>
2.0163

> <Gold.Chemscore.Rot.Weighted>
4.1694

> <Gold.Chemscore.Internal.Correction.Weighted>
   9.000000E+99

> <Gold.Protein.RotatedTorsions>
[ 6907 6896 6895 6894 ] final   79.02 input  -60.11 | X-H torsion
[ 7974 7965 7964 7962 ] final  -33.37 input  175.53 | X-H torsion
[ 8008 7997 7996 7995 ] final  164.59 input   59.86 | X-H torsion
[ 10167 10162 10161 10158 ] final  -82.10 input  -65.29 | X-H torsion
[ 10718 10713 10712 10709 ] final  140.63 input   66.30 | X-H torsion
[ 10763 10752 10751 10750 ] final  -26.48 input  -60.55 | X-H torsion
[ 11005 11000 10999 10996 ] final  -46.24 input  -57.11 | X-H torsion

> <Gold.Protein.ActiveResidues>
 VAL166  LYS551  ARG553  GLY616  TRP617  ASP618  TYR619  PRO620  LYS621  CYS622 
 ASP623  PHE694  ASN695  SER759  ASP760  ASP761  ALA762  ILE779  LEU786  VAL792 
 PHE793  MET794  SER795  GLU796  ALA797  LYS798  CYS799  TRP800  GLU811  SER814 

> <Gold.Protein.RotatedAtoms>
  152.5182  134.3575  159.9272 H   0  0  0  0  0  0  0  0  0  0  0  0  # atno 6907 bound_to 6896
  151.3526  133.3913  159.2689 H   0  0  0  0  0  0  0  0  0  0  0  0  # atno 6908 bound_to 6896
  150.9715  134.9105  159.7848 H   0  0  0  0  0  0  0  0  0  0  0  0  # atno 6909 bound_to 6896
  146.0916  140.5908  142.8862 H   0  0  0  0  0  0  0  0  0  0  0  0  # atno 7974 bound_to 7965
  156.1868  140.1693  156.8169 H   0  0  0  0  0  0  0  0  0  0  0  0  # atno 8008 bound_to 7997
  154.5424  140.0734  156.8564 H   0  0  0  0  0  0  0  0  0  0  0  0  # atno 8009 bound_to 7997
  155.3189  140.3372  155.4244 H   0  0  0  0  0  0  0  0  0  0  0  0  # atno 8010 bound_to 7997
  140.4351  143.2534  151.8705 H   0  0  0  0  0  0  0  0  0  0  0  0  # atno 10167 bound_to 10162
  157.4011  131.1017  151.0550 H   0  0  0  0  0  0  0  0  0  0  0  0  # atno 10718 bound_to 10713
  153.7166  135.6947  153.5023 H   0  0  0  0  0  0  0  0  0  0  0  0  # atno 10763 bound_to 10752
  153.2234  135.4362  155.0514 H   0  0  0  0  0  0  0  0  0  0  0  0  # atno 10764 bound_to 10752
  154.8298  135.3466  154.6701 H   0  0  0  0  0  0  0  0  0  0  0  0  # atno 10765 bound_to 10752
  141.0566  133.6723  156.3127 H   0  0  0  0  0  0  0  0  0  0  0  0  # atno 11005 bound_to 11000
  144.7364  140.4820  143.6900 LP  0  0  0  0  0  0  0  0  0  0  0  0  # atno 17320 bound_to 7965
  145.6028  139.1505  143.3119 LP  0  0  0  0  0  0  0  0  0  0  0  0  # atno 17321 bound_to 7965
  139.4786  144.5292  151.8691 LP  0  0  0  0  0  0  0  0  0  0  0  0  # atno 17342 bound_to 10162
  140.4383  144.2021  150.5890 LP  0  0  0  0  0  0  0  0  0  0  0  0  # atno 17343 bound_to 10162
  157.1549  130.6200  149.5593 LP  0  0  0  0  0  0  0  0  0  0  0  0  # atno 17370 bound_to 10713
  155.9823  130.4836  150.6876 LP  0  0  0  0  0  0  0  0  0  0  0  0  # atno 17371 bound_to 10713
  140.5951  134.5611  157.5507 LP  0  0  0  0  0  0  0  0  0  0  0  0  # atno 17394 bound_to 11000
  139.9396  134.7812  156.0714 LP  0  0  0  0  0  0  0  0  0  0  0  0  # atno 17395 bound_to 11000

$$$$
