AV-unprocessed.smi:2149|AV-procd|sdf|8755|dock10
  -GOLD-   2272011533D 1   1.00000     0.00000
 Structure written by MMmdl.
 43 44  0  0  0  0  0  0  0  0  2 V2000
  153.4963  138.8352  153.7782 C   0  0  0  0  0  0  0  0  0  0  0  0
  152.3782  138.4657  155.1926 S   0  0  0  0  0  0  0  0  0  0  0  0
  151.8627  137.1005  155.0058 O   0  0  0  0  0  0  0  0  0  0  0  0
  153.0516  138.8312  156.4480 O   0  0  0  0  0  0  0  0  0  0  0  0
  151.0605  139.5695  154.9575 N   0  0  0  0  0  0  0  0  0  0  0  0
  151.0440  140.7930  155.7848 C   0  0  0  0  0  0  0  0  0  0  0  0
  150.0843  141.8482  155.2129 C   0  0  0  0  0  0  0  0  0  0  0  0
  148.6779  141.2726  155.0266 C   0  0  0  0  0  0  0  0  0  0  0  0
  148.7519  140.0354  154.1173 C   0  0  2  0  0  0  0  0  0  0  0  0
  147.3604  139.4252  153.9023 C   0  0  0  0  0  0  0  0  0  0  0  0
  146.3713  139.9267  154.4379 O   0  0  0  0  0  0  0  0  0  0  0  0
  147.2966  138.3371  153.1191 N   0  0  0  0  0  0  0  0  0  0  0  0
  146.0757  137.6041  152.8063 C   0  0  0  0  0  0  0  0  0  0  0  0
  146.0790  137.0952  151.3547 C   0  0  0  0  0  0  0  0  0  0  0  0
  145.6528  135.6439  151.2528 C   0  0  0  0  0  0  0  0  0  0  0  0
  144.3255  135.2683  150.9515 C   0  0  0  0  0  0  0  0  0  0  0  0
  143.9984  133.8981  150.8742 C   0  0  0  0  0  0  0  0  0  0  0  0
  145.0029  132.9344  151.1013 C   0  0  0  0  0  0  0  0  0  0  0  0
  146.3115  133.3656  151.4005 C   0  0  0  0  0  0  0  0  0  0  0  0
  146.5857  134.6872  151.4643 N   0  3  0  0  0  0  0  0  0  0  0  0
  149.7234  138.9913  154.7090 C   0  0  0  0  0  0  0  0  0  0  0  0
  154.3281  138.1310  153.7865 H   0  0  0  0  0  0  0  0  0  0  0  0
  153.8882  139.8476  153.8632 H   0  0  0  0  0  0  0  0  0  0  0  0
  152.9469  138.7322  152.8430 H   0  0  0  0  0  0  0  0  0  0  0  0
  150.7504  140.5274  156.8013 H   0  0  0  0  0  0  0  0  0  0  0  0
  152.0469  141.2126  155.8476 H   0  0  0  0  0  0  0  0  0  0  0  0
  150.0470  142.7127  155.8762 H   0  0  0  0  0  0  0  0  0  0  0  0
  150.4648  142.2090  154.2565 H   0  0  0  0  0  0  0  0  0  0  0  0
  148.2573  141.0111  155.9990 H   0  0  0  0  0  0  0  0  0  0  0  0
  148.0224  142.0286  154.5921 H   0  0  0  0  0  0  0  0  0  0  0  0
  149.1425  140.3486  153.1470 H   0  0  0  0  0  0  0  0  0  0  0  0
  148.1557  137.9916  152.7156 H   0  0  0  0  0  0  0  0  0  0  0  0
  145.9513  136.7751  153.5054 H   0  0  0  0  0  0  0  0  0  0  0  0
  145.2287  138.2725  152.9640 H   0  0  0  0  0  0  0  0  0  0  0  0
  145.4143  137.7075  150.7438 H   0  0  0  0  0  0  0  0  0  0  0  0
  147.0745  137.1955  150.9195 H   0  0  0  0  0  0  0  0  0  0  0  0
  143.5666  136.0185  150.7818 H   0  0  0  0  0  0  0  0  0  0  0  0
  142.9889  133.5903  150.6433 H   0  0  0  0  0  0  0  0  0  0  0  0
  144.7729  131.8803  151.0472 H   0  0  0  0  0  0  0  0  0  0  0  0
  147.1406  132.6989  151.5886 H   0  0  0  0  0  0  0  0  0  0  0  0
  149.8110  138.1540  154.0167 H   0  0  0  0  0  0  0  0  0  0  0  0
  149.3402  138.5856  155.6468 H   0  0  0  0  0  0  0  0  0  0  0  0
  147.5397  134.9775  151.6813 H   0  0  0  0  0  0  0  0  0  0  0  0
  1  2  1  0  0  0  0
  1 22  1  0  0  0  0
  1 23  1  0  0  0  0
  1 24  1  0  0  0  0
  2  3  2  0  0  0  0
  2  4  2  0  0  0  0
  2  5  1  0  0  0  0
  5 21  1  0  0  0  0
  5  6  1  0  0  0  0
  6  7  1  0  0  0  0
  6 25  1  0  0  0  0
  6 26  1  0  0  0  0
  7  8  1  0  0  0  0
  7 27  1  0  0  0  0
  7 28  1  0  0  0  0
  8  9  1  0  0  0  0
  8 29  1  0  0  0  0
  8 30  1  0  0  0  0
  9 10  1  0  0  0  0
  9 21  1  0  0  0  0
  9 31  1  0  0  0  0
 10 11  2  0  0  0  0
 10 12  1  0  0  0  0
 12 13  1  0  0  0  0
 12 32  1  0  0  0  0
 13 14  1  0  0  0  0
 13 33  1  0  0  0  0
 13 34  1  0  0  0  0
 14 15  1  0  0  0  0
 14 35  1  0  0  0  0
 14 36  1  0  0  0  0
 15 20  1  0  0  0  0
 15 16  2  0  0  0  0
 16 17  1  0  0  0  0
 16 37  1  0  0  0  0
 17 18  2  0  0  0  0
 17 38  1  0  0  0  0
 18 19  1  0  0  0  0
 18 39  1  0  0  0  0
 19 20  2  0  0  0  0
 19 40  1  0  0  0  0
 20 43  1  0  0  0  0
 21 41  1  0  0  0  0
 21 42  1  0  0  0  0
M  CHG  1  20   1
M  END
> <s_m_source_file>
AV-unprocessed.smi

> <i_m_source_file_index>
2149

> <i_lp_mmshare_version>
43012

> <i_f3d_flags>
0

> <s_epik_input>
W0NIM11TKD1PKSg9TylOMVtDSDJdW0NIMl1bQ0gyXVtDQEhdKFtDSDJdMSlDKD1PKVtOSF1bQ0gyXVtDSDJdYzJbY0hdW2NIXVtjSF1bY0hdbjI=

> <s_epik_cmdline>
J2VwaWtfcHl0aG9uJywgJy1waCcsICc3LjAnLCAnLXRuJywgJzgnLCAnLW1hJywgJzIwMCcsICctbWV0YWxfYmluZGluZycsICctaW1hZScsICc8aW5maWxlLm1hZT4nLCAnLW9tYWUnLCAnPG91dGZpbGUubWFlPic=

> <r_epik_Ionization_Penalty>
1.83523

> <r_epik_Ionization_Penalty_Charging>
1.83523

> <r_epik_Ionization_Penalty_Neutral>
2.62835e-08

> <r_epik_State_Penalty>
1.95153

> <r_epik_Charging_Adjusted_Penalty>
3.78676

> <i_epik_Tot_Q>
1

> <i_epik_Tot_abs_Q>
1

> <r_epik_Metal_State_Penalty>
1.97791

> <b_epik_Metal_Only>
0

> <s_lp_Force_Field>
OPLS_2005

> <r_lp_Energy>
9.7414

> <b_lp_Chiralities_Consistent>
1

> <s_lp_Variant>
AV-unprocessed.smi:2149-4

> <Gold.Version>
5.8.1

> <Gold.Id.Protein>
6NUR|6NUR_protein|mol2

> <Gold.PLP.Fitness>
46.1458

> <Gold.PLP.PLP>
-33.3228

> <Gold.PLP.part.hbond>
-4.2929

> <Gold.PLP.part.metal>
0.0000

> <Gold.PLP.part.buried>
-0.2880

> <Gold.PLP.part.nonpolar>
-28.9585

> <Gold.PLP.part.repulsive>
0.3369

> <Gold.PLP.ligand.clash>
0.0000

> <Gold.PLP.ligand.torsion>
1.2718

> <Gold.PLP.Chemscore.Hbond>
4.8709

> <Gold.PLP.Chemscore.CHOScore>
0.0000

> <Gold.PLP.Chemscore.Metal>
0.0000

> <Gold.Chemscore.Hbonds>
donor molecule, donor type, donor heavy atom, donor atom, acceptor molecule, acceptor atom, score
      L1  H    12    32       P1  7948  0.69
      L1  H    20    43       P1  7948  2.00
      P1  H  7989  7998       L1     5  0.15
      P1  H  7997  8010       L1     4  1.00
      P1  H 10752 10765       L1     3  1.00

> <Gold.PLP.Chemscore.Internal.Correction>
0.7538

> <Gold.Rescore>
     Score         DG    S(hbond)    S(metal)    S(lipo)     H(rot)  DE(clash)    DE(int)     intcor
     17.49     -20.70       3.09        0.00      84.64       1.95       1.97       1.24       ----

> <Gold.Chemscore.Fitness>
17.4896

> <Gold.Chemscore.DG>
-20.7047

> <Gold.Chemscore.ZeroCoef>
-5.4800

> <Gold.Chemscore.Hbond>
3.0855

> <Gold.Chemscore.Metal>
0.0000

> <Gold.Chemscore.Lipo>
84.6364

> <Gold.Chemscore.Internal_Hbond>
0.0000

> <Gold.Chemscore.DEClash>
1.9716

> <Gold.Chemscore.DEInternal>
1.2435

> <Gold.Chemscore.Rot>
1.9466

> <Gold.Chemscore.Internal.Correction>
   9.000000E+99

> <Gold.Chemscore.Hbonds>
donor molecule, donor type, donor heavy atom, donor atom, acceptor molecule, acceptor atom, score
      L1  H    12    32       P1  7948  0.67
      L1  H    20    43       P1  7948  0.69
      P1  H  7997  8010       L1     4  0.95
      P1  H 10752 10765       L1     3  0.94

> <Gold.Chemscore.Hbond.Weighted>
-10.3055

> <Gold.Chemscore.Metal.Weighted>
-0.0000

> <Gold.Chemscore.Lipo.Weighted>
-9.9025

> <Gold.Chemscore.Internal_Hbond.Weighted>
0.0000

> <Gold.Chemscore.DEClash.Weighted>
1.9716

> <Gold.Chemscore.DEInternal.Weighted>
1.2435

> <Gold.Chemscore.Rot.Weighted>
4.9832

> <Gold.Chemscore.Internal.Correction.Weighted>
   9.000000E+99

> <Gold.Protein.RotatedTorsions>
[ 6907 6896 6895 6894 ] final    5.90 input  -60.11 | X-H torsion
[ 7974 7965 7964 7962 ] final  -47.59 input  175.53 | X-H torsion
[ 8008 7997 7996 7995 ] final   53.90 input   59.86 | X-H torsion
[ 10167 10162 10161 10158 ] final   68.96 input  -65.29 | X-H torsion
[ 10718 10713 10712 10709 ] final -118.98 input   66.30 | X-H torsion
[ 10763 10752 10751 10750 ] final -176.28 input  -60.55 | X-H torsion
[ 11005 11000 10999 10996 ] final   89.72 input  -57.11 | X-H torsion

> <Gold.Protein.ActiveResidues>
 VAL166  LYS551  ARG553  GLY616  TRP617  ASP618  TYR619  PRO620  LYS621  CYS622 
 ASP623  PHE694  ASN695  SER759  ASP760  ASP761  ALA762  ILE779  LEU786  VAL792 
 PHE793  MET794  SER795  GLU796  ALA797  LYS798  CYS799  TRP800  GLU811  SER814 

> <Gold.Protein.RotatedAtoms>
  151.6649  135.0984  160.0186 H   0  0  0  0  0  0  0  0  0  0  0  0  # atno 6907 bound_to 6896
  152.3925  133.6695  159.6258 H   0  0  0  0  0  0  0  0  0  0  0  0  # atno 6908 bound_to 6896
  150.7838  133.8847  159.3337 H   0  0  0  0  0  0  0  0  0  0  0  0  # atno 6909 bound_to 6896
  145.9600  140.7489  142.9462 H   0  0  0  0  0  0  0  0  0  0  0  0  # atno 7974 bound_to 7965
  155.4758  140.3467  155.4332 H   0  0  0  0  0  0  0  0  0  0  0  0  # atno 8008 bound_to 7997
  156.1071  140.1451  156.9418 H   0  0  0  0  0  0  0  0  0  0  0  0  # atno 8009 bound_to 7997
  154.4731  140.0894  156.7174 H   0  0  0  0  0  0  0  0  0  0  0  0  # atno 8010 bound_to 7997
  140.0730  144.5136  150.7214 H   0  0  0  0  0  0  0  0  0  0  0  0  # atno 10167 bound_to 10162
  156.1147  130.6276  150.9359 H   0  0  0  0  0  0  0  0  0  0  0  0  # atno 10718 bound_to 10713
  154.5742  135.2830  155.0797 H   0  0  0  0  0  0  0  0  0  0  0  0  # atno 10763 bound_to 10752
  154.2158  135.6400  153.5133 H   0  0  0  0  0  0  0  0  0  0  0  0  # atno 10764 bound_to 10752
  153.0067  135.5502  154.6375 H   0  0  0  0  0  0  0  0  0  0  0  0  # atno 10765 bound_to 10752
  139.8870  134.8569  156.3182 H   0  0  0  0  0  0  0  0  0  0  0  0  # atno 11005 bound_to 11000
  144.6813  140.2575  143.7323 LP  0  0  0  0  0  0  0  0  0  0  0  0  # atno 17320 bound_to 7965
  145.8053  139.1981  143.2024 LP  0  0  0  0  0  0  0  0  0  0  0  0  # atno 17321 bound_to 7965
  140.7116  143.2509  151.4564 LP  0  0  0  0  0  0  0  0  0  0  0  0  # atno 17342 bound_to 10162
  139.5824  144.1679  152.1986 LP  0  0  0  0  0  0  0  0  0  0  0  0  # atno 17343 bound_to 10162
  157.6330  131.0919  150.8405 LP  0  0  0  0  0  0  0  0  0  0  0  0  # atno 17370 bound_to 10713
  156.8510  130.5080  149.5312 LP  0  0  0  0  0  0  0  0  0  0  0  0  # atno 17371 bound_to 10713
  140.9805  133.7270  156.0664 LP  0  0  0  0  0  0  0  0  0  0  0  0  # atno 17394 bound_to 11000
  140.7756  134.3783  157.5498 LP  0  0  0  0  0  0  0  0  0  0  0  0  # atno 17395 bound_to 11000

$$$$
