AV-unprocessed.smi:90|AV-procd|sdf|832|dock5
  -GOLD-   2262017253D 1   1.00000     0.00000
 Structure written by MMmdl.
 64 67  0  0  0  0  0  0  0  0  2 V2000
  150.6739  129.3877  154.5283 C   0  0  0  0  0  0  0  0  0  0  0  0
  150.0300  130.6989  154.5316 N   0  0  0  0  0  0  0  0  0  0  0  0
  149.1067  131.0297  153.4505 C   0  0  0  0  0  0  0  0  0  0  0  0
  147.6461  131.1109  153.9372 C   0  0  0  0  0  0  0  0  0  0  0  0
  146.6546  131.6907  152.8944 C   0  0  1  0  0  0  0  0  0  0  0  0
  147.0964  133.1112  152.4584 C   0  0  0  0  0  0  0  0  0  0  0  0
  146.1603  133.7182  151.4085 C   0  0  0  0  0  0  0  0  0  0  0  0
  146.0489  132.7747  150.2112 C   0  0  0  0  0  0  0  0  0  0  0  0
  145.5890  131.3863  150.6724 C   0  0  0  0  0  0  0  0  0  0  0  0
  146.5109  130.8106  151.6883 N   0  3  2  0  0  0  0  0  0  0  0  0
  146.1333  129.4079  151.9910 C   0  0  0  0  0  0  0  0  0  0  0  0
  150.3651  131.6054  155.4947 C   0  0  0  0  0  0  0  0  0  0  0  0
  151.3173  131.2477  156.3980 N   0  0  0  0  0  0  0  0  0  0  0  0
  151.6806  132.0773  157.3786 C   0  0  0  0  0  0  0  0  0  0  0  0
  151.2319  133.3043  157.6385 N   0  0  0  0  0  0  0  0  0  0  0  0
  150.2880  133.6876  156.7337 C   0  0  0  0  0  0  0  0  0  0  0  0
  149.7965  132.9099  155.6428 C   0  0  0  0  0  0  0  0  0  0  0  0
  148.8418  133.6486  154.9500 N   0  0  0  0  0  0  0  0  0  0  0  0
  148.7645  134.7780  155.5960 C   0  0  0  0  0  0  0  0  0  0  0  0
  149.6112  134.8949  156.6733 N   0  0  0  0  0  0  0  0  0  0  0  0
  149.7263  136.0414  157.5653 C   0  0  0  0  0  0  0  0  0  0  0  0
  150.7419  137.1324  157.1096 C   0  0  0  0  0  0  0  0  0  0  0  0
  152.1639  136.8170  157.6552 C   0  0  0  0  0  0  0  0  0  0  0  0
  152.5986  135.5198  157.2995 O   0  0  0  0  0  0  0  0  0  0  0  0
  150.7869  137.2046  155.5611 C   0  0  0  0  0  0  0  0  0  0  0  0
  151.5068  138.4597  155.0323 C   0  0  0  0  0  0  0  0  0  0  0  0
  150.9109  139.6316  155.5720 O   0  0  0  0  0  0  0  0  0  0  0  0
  151.0021  139.6917  156.9893 C   0  0  0  0  0  0  0  0  0  0  0  0
  150.2370  138.5098  157.6105 C   0  0  0  0  0  0  0  0  0  0  0  0
  151.7590  129.4909  154.5639 H   0  0  0  0  0  0  0  0  0  0  0  0
  150.4222  128.8281  153.6273 H   0  0  0  0  0  0  0  0  0  0  0  0
  150.3520  128.7986  155.3875 H   0  0  0  0  0  0  0  0  0  0  0  0
  149.3985  131.9971  153.0401 H   0  0  0  0  0  0  0  0  0  0  0  0
  149.2355  130.3274  152.6301 H   0  0  0  0  0  0  0  0  0  0  0  0
  147.3019  130.1276  154.2591 H   0  0  0  0  0  0  0  0  0  0  0  0
  147.6622  131.7307  154.8315 H   0  0  0  0  0  0  0  0  0  0  0  0
  145.6721  131.7632  153.3642 H   0  0  0  0  0  0  0  0  0  0  0  0
  147.1290  133.7885  153.3106 H   0  0  0  0  0  0  0  0  0  0  0  0
  148.1106  133.0734  152.0581 H   0  0  0  0  0  0  0  0  0  0  0  0
  145.1743  133.8871  151.8431 H   0  0  0  0  0  0  0  0  0  0  0  0
  146.5333  134.6913  151.0882 H   0  0  0  0  0  0  0  0  0  0  0  0
  145.3464  133.1788  149.4815 H   0  0  0  0  0  0  0  0  0  0  0  0
  147.0133  132.6978  149.7069 H   0  0  0  0  0  0  0  0  0  0  0  0
  144.5801  131.4421  151.0850 H   0  0  0  0  0  0  0  0  0  0  0  0
  145.5386  130.7278  149.8044 H   0  0  0  0  0  0  0  0  0  0  0  0
  145.2463  129.3685  152.6247 H   0  0  0  0  0  0  0  0  0  0  0  0
  146.9423  128.8701  152.4834 H   0  0  0  0  0  0  0  0  0  0  0  0
  145.9169  128.8551  151.0763 H   0  0  0  0  0  0  0  0  0  0  0  0
  152.4375  131.7031  158.0523 H   0  0  0  0  0  0  0  0  0  0  0  0
  148.0876  135.5653  155.2974 H   0  0  0  0  0  0  0  0  0  0  0  0
  148.7309  136.4773  157.6600 H   0  0  0  0  0  0  0  0  0  0  0  0
  149.9779  135.6760  158.5616 H   0  0  0  0  0  0  0  0  0  0  0  0
  152.8906  137.5394  157.2838 H   0  0  0  0  0  0  0  0  0  0  0  0
  152.2038  136.8853  158.7411 H   0  0  0  0  0  0  0  0  0  0  0  0
  152.9376  135.0937  158.0720 H   0  0  0  0  0  0  0  0  0  0  0  0
  151.2671  136.3173  155.1475 H   0  0  0  0  0  0  0  0  0  0  0  0
  149.7685  137.2103  155.1703 H   0  0  0  0  0  0  0  0  0  0  0  0
  152.5724  138.4399  155.2614 H   0  0  0  0  0  0  0  0  0  0  0  0
  151.4262  138.5000  153.9459 H   0  0  0  0  0  0  0  0  0  0  0  0
  152.0462  139.7049  157.3034 H   0  0  0  0  0  0  0  0  0  0  0  0
  150.5648  140.6324  157.3241 H   0  0  0  0  0  0  0  0  0  0  0  0
  149.1829  138.6243  157.3539 H   0  0  0  0  0  0  0  0  0  0  0  0
  150.2827  138.5693  158.6983 H   0  0  0  0  0  0  0  0  0  0  0  0
  147.4204  130.7714  151.2506 H   0  0  0  0  0  0  0  0  0  0  0  0
  1  2  1  0  0  0  0
  1 30  1  0  0  0  0
  1 31  1  0  0  0  0
  1 32  1  0  0  0  0
  2  3  1  0  0  0  0
  2 12  1  0  0  0  0
  3  4  1  0  0  0  0
  3 33  1  0  0  0  0
  3 34  1  0  0  0  0
  4  5  1  0  0  0  0
  4 35  1  0  0  0  0
  4 36  1  0  0  0  0
  5 10  1  0  0  0  0
  5  6  1  0  0  0  0
  5 37  1  0  0  0  0
  6  7  1  0  0  0  0
  6 38  1  0  0  0  0
  6 39  1  0  0  0  0
  7  8  1  0  0  0  0
  7 40  1  0  0  0  0
  7 41  1  0  0  0  0
  8  9  1  0  0  0  0
  8 42  1  0  0  0  0
  8 43  1  0  0  0  0
  9 10  1  0  0  0  0
  9 44  1  0  0  0  0
  9 45  1  0  0  0  0
 10 11  1  0  0  0  0
 10 64  1  0  0  0  0
 11 46  1  0  0  0  0
 11 47  1  0  0  0  0
 11 48  1  0  0  0  0
 12 17  1  0  0  0  0
 12 13  2  0  0  0  0
 13 14  1  0  0  0  0
 14 15  2  0  0  0  0
 14 49  1  0  0  0  0
 15 16  1  0  0  0  0
 16 20  1  0  0  0  0
 16 17  2  0  0  0  0
 17 18  1  0  0  0  0
 18 19  2  0  0  0  0
 19 20  1  0  0  0  0
 19 50  1  0  0  0  0
 20 21  1  0  0  0  0
 21 22  1  0  0  0  0
 21 51  1  0  0  0  0
 21 52  1  0  0  0  0
 22 29  1  0  0  0  0
 22 23  1  0  0  0  0
 22 25  1  0  0  0  0
 23 24  1  0  0  0  0
 23 53  1  0  0  0  0
 23 54  1  0  0  0  0
 24 55  1  0  0  0  0
 25 26  1  0  0  0  0
 25 56  1  0  0  0  0
 25 57  1  0  0  0  0
 26 27  1  0  0  0  0
 26 58  1  0  0  0  0
 26 59  1  0  0  0  0
 27 28  1  0  0  0  0
 28 29  1  0  0  0  0
 28 60  1  0  0  0  0
 28 61  1  0  0  0  0
 29 62  1  0  0  0  0
 29 63  1  0  0  0  0
M  CHG  1  10   1
M  END
> <s_m_source_file>
AV-unprocessed.smi

> <i_m_source_file_index>
90

> <i_lp_mmshare_version>
43012

> <i_f3d_flags>
0

> <s_epik_input>
W0NIM11OMVtDSDJdW0NIMl1bQ0gyXVtDSDJdW0NASF0xW0NIMl1bQ0gyXU4oW0NIM10pYyhuW2NIXW4yKWMoYzIzKW5bY0hdbjNbQ0gyXUM0KFtDSDJdW09IXSlbQ0gyXVtDSDJdT1tDSDJdW0NIMl00

> <s_epik_cmdline>
J2VwaWtfcHl0aG9uJywgJy1waCcsICc3LjAnLCAnLXRuJywgJzgnLCAnLW1hJywgJzIwMCcsICctbWV0YWxfYmluZGluZycsICctaW1hZScsICc8aW5maWxlLm1hZT4nLCAnLW9tYWUnLCAnPG91dGZpbGUubWFlPic=

> <r_lp_tautomer_probability>
1

> <r_epik_Ionization_Penalty>
0.00234895

> <r_epik_Ionization_Penalty_Charging>
0.00106647

> <r_epik_Ionization_Penalty_Neutral>
0.00128248

> <r_epik_State_Penalty>
-0

> <r_epik_Charging_Adjusted_Penalty>
0.00106647

> <i_epik_Tot_Q>
1

> <i_epik_Tot_abs_Q>
1

> <r_epik_Metal_State_Penalty>
-0

> <b_epik_Metal_Only>
0

> <s_lp_Force_Field>
OPLS_2005

> <r_lp_Energy>
42.6574

> <b_lp_Chiralities_Consistent>
1

> <s_lp_Variant>
AV-unprocessed.smi:90-4

> <Gold.Version>
5.8.1

> <Gold.Id.Protein>
6NUR|6NUR_protein|mol2

> <Gold.PLP.Fitness>
54.5892

> <Gold.PLP.PLP>
-45.6124

> <Gold.PLP.part.hbond>
-4.0000

> <Gold.PLP.part.metal>
0.0000

> <Gold.PLP.part.buried>
-7.4151

> <Gold.PLP.part.nonpolar>
-35.0919

> <Gold.PLP.part.repulsive>
0.1495

> <Gold.PLP.ligand.clash>
0.0000

> <Gold.PLP.ligand.torsion>
1.0887

> <Gold.PLP.Chemscore.Hbond>
3.6240

> <Gold.PLP.Chemscore.CHOScore>
0.0000

> <Gold.PLP.Chemscore.Metal>
0.0000

> <Gold.Chemscore.Hbonds>
donor molecule, donor type, donor heavy atom, donor atom, acceptor molecule, acceptor atom, score
      L1  H    10    64       P1 10747  1.00
      P1  H  6896  6908       L1    15  0.77
      P1  H 10752 10764       L1    24  0.63

> <Gold.PLP.Chemscore.Internal.Correction>
0.2822

> <Gold.Rescore>
     Score         DG    S(hbond)    S(metal)    S(lipo)     H(rot)  DE(clash)    DE(int)     intcor
     19.05     -21.58       3.15        0.00     107.55       2.73       0.26       2.28       ----

> <Gold.Chemscore.Fitness>
19.0450

> <Gold.Chemscore.DG>
-21.5794

> <Gold.Chemscore.ZeroCoef>
-5.4800

> <Gold.Chemscore.Hbond>
3.1489

> <Gold.Chemscore.Metal>
0.0000

> <Gold.Chemscore.Lipo>
107.5453

> <Gold.Chemscore.Internal_Hbond>
0.0000

> <Gold.Chemscore.DEClash>
0.2566

> <Gold.Chemscore.DEInternal>
2.2777

> <Gold.Chemscore.Rot>
2.7347

> <Gold.Chemscore.Internal.Correction>
   9.000000E+99

> <Gold.Chemscore.Hbonds>
donor molecule, donor type, donor heavy atom, donor atom, acceptor molecule, acceptor atom, score
      L1  H    10    64       P1 10747  1.00
      P1  H  6896  6908       L1    15  0.41
      P1  H 10752 10764       L1    24  0.55

> <Gold.Chemscore.Hbond.Weighted>
-10.5175

> <Gold.Chemscore.Metal.Weighted>
-0.0000

> <Gold.Chemscore.Lipo.Weighted>
-12.5828

> <Gold.Chemscore.Internal_Hbond.Weighted>
0.0000

> <Gold.Chemscore.DEClash.Weighted>
0.2566

> <Gold.Chemscore.DEInternal.Weighted>
2.2777

> <Gold.Chemscore.Rot.Weighted>
7.0009

> <Gold.Chemscore.Internal.Correction.Weighted>
   9.000000E+99

> <Gold.Protein.RotatedTorsions>
[ 6907 6896 6895 6894 ] final   87.44 input  -60.11 | X-H torsion
[ 7974 7965 7964 7962 ] final -175.36 input  175.53 | X-H torsion
[ 8008 7997 7996 7995 ] final    6.02 input   59.86 | X-H torsion
[ 10167 10162 10161 10158 ] final   90.13 input  -65.29 | X-H torsion
[ 10718 10713 10712 10709 ] final  144.85 input   66.30 | X-H torsion
[ 10763 10752 10751 10750 ] final  -10.53 input  -60.55 | X-H torsion
[ 11005 11000 10999 10996 ] final  103.28 input  -57.11 | X-H torsion

> <Gold.Protein.ActiveResidues>
 VAL166  LYS551  ARG553  GLY616  TRP617  ASP618  TYR619  PRO620  LYS621  CYS622 
 ASP623  PHE694  ASN695  SER759  ASP760  ASP761  ALA762  ILE779  LEU786  VAL792 
 PHE793  MET794  SER795  GLU796  ALA797  LYS798  CYS799  TRP800  GLU811  SER814 

> <Gold.Protein.RotatedAtoms>
  152.5411  134.2276  159.8811 H   0  0  0  0  0  0  0  0  0  0  0  0  # atno 6907 bound_to 6896
  151.2249  133.4475  159.2609 H   0  0  0  0  0  0  0  0  0  0  0  0  # atno 6908 bound_to 6896
  151.0770  134.9847  159.8393 H   0  0  0  0  0  0  0  0  0  0  0  0  # atno 6909 bound_to 6896
  144.7128  140.1333  143.6397 H   0  0  0  0  0  0  0  0  0  0  0  0  # atno 7974 bound_to 7965
  154.7357  140.2739  155.6417 H   0  0  0  0  0  0  0  0  0  0  0  0  # atno 8008 bound_to 7997
  156.2861  140.2707  156.1996 H   0  0  0  0  0  0  0  0  0  0  0  0  # atno 8009 bound_to 7997
  155.0323  140.0371  157.2468 H   0  0  0  0  0  0  0  0  0  0  0  0  # atno 8010 bound_to 7997
  139.8503  144.6596  150.9177 H   0  0  0  0  0  0  0  0  0  0  0  0  # atno 10167 bound_to 10162
  157.3522  131.0952  151.0990 H   0  0  0  0  0  0  0  0  0  0  0  0  # atno 10718 bound_to 10713
  153.4706  135.7016  153.5996 H   0  0  0  0  0  0  0  0  0  0  0  0  # atno 10763 bound_to 10752
  153.4251  135.3816  155.2136 H   0  0  0  0  0  0  0  0  0  0  0  0  # atno 10764 bound_to 10752
  154.8725  135.3937  154.4143 H   0  0  0  0  0  0  0  0  0  0  0  0  # atno 10765 bound_to 10752
  139.8783  134.9257  156.5186 H   0  0  0  0  0  0  0  0  0  0  0  0  # atno 11005 bound_to 11000
  145.9267  139.2580  143.1349 LP  0  0  0  0  0  0  0  0  0  0  0  0  # atno 17320 bound_to 7965
  145.9565  140.8869  143.0233 LP  0  0  0  0  0  0  0  0  0  0  0  0  # atno 17321 bound_to 7965
  140.7788  143.3833  151.1438 LP  0  0  0  0  0  0  0  0  0  0  0  0  # atno 17342 bound_to 10162
  139.7471  143.8835  152.3066 LP  0  0  0  0  0  0  0  0  0  0  0  0  # atno 17343 bound_to 10162
  157.2161  130.6460  149.5793 LP  0  0  0  0  0  0  0  0  0  0  0  0  # atno 17370 bound_to 10713
  155.9723  130.4644  150.6217 LP  0  0  0  0  0  0  0  0  0  0  0  0  # atno 17371 bound_to 10713
  140.8467  133.8163  155.9128 LP  0  0  0  0  0  0  0  0  0  0  0  0  # atno 17394 bound_to 11000
  140.9184  134.2172  157.4942 LP  0  0  0  0  0  0  0  0  0  0  0  0  # atno 17395 bound_to 11000

$$$$
