AV-unprocessed.smi:3055|AV-procd|sdf|11644|dock1
  -GOLD-   2272017 33D 1   1.00000     0.00000
 Structure written by MMmdl.
 47 49  0  0  0  0  0  0  0  0  2 V2000
  151.9033  139.8056  154.8611 O   0  0  0  0  0  0  0  0  0  0  0  0
  150.7281  139.5455  155.1231 C   0  0  0  0  0  0  0  0  0  0  0  0
  150.2590  138.2876  155.1235 N   0  0  0  0  0  0  0  0  0  0  0  0
  151.0621  137.1044  154.8497 C   0  0  0  0  0  0  0  0  0  0  0  0
  151.0916  136.1796  156.0734 C   0  0  0  0  0  0  0  0  0  0  0  0
  150.4854  134.8964  155.7825 N   0  0  0  0  0  0  0  0  0  0  0  0
  149.7208  134.5647  154.6719 C   0  0  0  0  0  0  0  0  0  0  0  0
  149.3568  133.2460  154.8254 C   0  0  0  0  0  0  0  0  0  0  0  0
  149.8840  132.7496  156.0155 N   0  0  0  0  0  0  0  0  0  0  0  0
  150.5392  133.7837  156.5272 C   0  0  0  0  0  0  0  0  0  0  0  0
  149.8018  140.4983  155.3998 N   0  0  0  0  0  0  0  0  0  0  0  0
  148.3847  140.2618  155.7170 C   0  0  0  0  0  0  0  0  0  0  0  0
  148.2019  140.3957  157.2379 C   0  0  0  0  0  0  0  0  0  0  0  0
  148.6981  141.7667  157.7372 C   0  0  0  0  0  0  0  0  0  0  0  0
  150.1296  142.0970  157.2370 C   0  0  2  0  0  0  0  0  0  0  0  0
  150.5406  143.4808  157.6050 N   0  3  0  0  0  0  0  0  0  0  0  0
  150.3536  143.8445  159.0266 C   0  0  0  0  0  0  0  0  0  0  0  0
  151.2823  145.0304  159.2574 C   0  0  0  0  0  0  0  0  0  0  0  0
  152.4992  144.6774  158.4108 C   0  0  0  0  0  0  0  0  0  0  0  0
  151.9399  143.8360  157.2551 C   0  0  0  0  0  0  0  0  0  0  0  0
  150.1879  141.8817  155.7039 C   0  0  0  0  0  0  0  0  0  0  0  0
  149.2815  138.1423  155.3305 H   0  0  0  0  0  0  0  0  0  0  0  0
  150.6451  136.5794  153.9889 H   0  0  0  0  0  0  0  0  0  0  0  0
  152.0774  137.4049  154.5845 H   0  0  0  0  0  0  0  0  0  0  0  0
  152.1184  136.0093  156.4002 H   0  0  0  0  0  0  0  0  0  0  0  0
  150.5615  136.6347  156.9116 H   0  0  0  0  0  0  0  0  0  0  0  0
  149.5036  135.2747  153.8873 H   0  0  0  0  0  0  0  0  0  0  0  0
  148.7604  132.6215  154.1769 H   0  0  0  0  0  0  0  0  0  0  0  0
  151.0693  133.7305  157.4670 H   0  0  0  0  0  0  0  0  0  0  0  0
  147.7712  141.0019  155.2010 H   0  0  0  0  0  0  0  0  0  0  0  0
  148.0109  139.2945  155.3813 H   0  0  0  0  0  0  0  0  0  0  0  0
  147.1529  140.2604  157.5031 H   0  0  0  0  0  0  0  0  0  0  0  0
  148.7536  139.6011  157.7424 H   0  0  0  0  0  0  0  0  0  0  0  0
  148.0081  142.5373  157.3905 H   0  0  0  0  0  0  0  0  0  0  0  0
  148.6524  141.7793  158.8263 H   0  0  0  0  0  0  0  0  0  0  0  0
  150.8265  141.4048  157.7136 H   0  0  0  0  0  0  0  0  0  0  0  0
  149.3148  144.0871  159.2531 H   0  0  0  0  0  0  0  0  0  0  0  0
  150.6574  143.0113  159.6631 H   0  0  0  0  0  0  0  0  0  0  0  0
  150.8196  145.9441  158.8816 H   0  0  0  0  0  0  0  0  0  0  0  0
  151.5250  145.1816  160.3097 H   0  0  0  0  0  0  0  0  0  0  0  0
  153.0381  145.5605  158.0664 H   0  0  0  0  0  0  0  0  0  0  0  0
  153.1919  144.0752  159.0005 H   0  0  0  0  0  0  0  0  0  0  0  0
  152.5606  142.9501  157.1113 H   0  0  0  0  0  0  0  0  0  0  0  0
  151.9412  144.3973  156.3203 H   0  0  0  0  0  0  0  0  0  0  0  0
  151.1745  142.1168  155.3032 H   0  0  0  0  0  0  0  0  0  0  0  0
  149.5038  142.5671  155.2008 H   0  0  0  0  0  0  0  0  0  0  0  0
  149.9535  144.1141  157.0811 H   0  0  0  0  0  0  0  0  0  0  0  0
  1  2  2  0  0  0  0
  2  3  1  0  0  0  0
  2 11  1  0  0  0  0
  3  4  1  0  0  0  0
  3 22  1  0  0  0  0
  4  5  1  0  0  0  0
  4 23  1  0  0  0  0
  4 24  1  0  0  0  0
  5  6  1  0  0  0  0
  5 25  1  0  0  0  0
  5 26  1  0  0  0  0
  6 10  1  0  0  0  0
  6  7  1  0  0  0  0
  7  8  2  0  0  0  0
  7 27  1  0  0  0  0
  8  9  1  0  0  0  0
  8 28  1  0  0  0  0
  9 10  2  0  0  0  0
 10 29  1  0  0  0  0
 11 21  1  0  0  0  0
 11 12  1  0  0  0  0
 12 13  1  0  0  0  0
 12 30  1  0  0  0  0
 12 31  1  0  0  0  0
 13 14  1  0  0  0  0
 13 32  1  0  0  0  0
 13 33  1  0  0  0  0
 14 15  1  0  0  0  0
 14 34  1  0  0  0  0
 14 35  1  0  0  0  0
 15 16  1  0  0  0  0
 15 21  1  0  0  0  0
 15 36  1  0  0  0  0
 16 20  1  0  0  0  0
 16 17  1  0  0  0  0
 16 47  1  0  0  0  0
 17 18  1  0  0  0  0
 17 37  1  0  0  0  0
 17 38  1  0  0  0  0
 18 19  1  0  0  0  0
 18 39  1  0  0  0  0
 18 40  1  0  0  0  0
 19 20  1  0  0  0  0
 19 41  1  0  0  0  0
 19 42  1  0  0  0  0
 20 43  1  0  0  0  0
 20 44  1  0  0  0  0
 21 45  1  0  0  0  0
 21 46  1  0  0  0  0
M  CHG  1  16   1
M  END
> <s_m_source_file>
AV-unprocessed.smi

> <i_m_source_file_index>
3055

> <i_lp_mmshare_version>
43012

> <i_f3d_flags>
0

> <s_epik_input>
W2NIXTFuW2NIXVtjSF1uMVtDSDJdW0NIMl1bTkhdQyg9TylOMltDSDJdW0NIMl1bQ0gyXVtDQEhdKFtDSDJdMilOM1tDSDJdW0NIMl1bQ0gyXVtDSDJdMw==

> <s_epik_cmdline>
J2VwaWtfcHl0aG9uJywgJy1waCcsICc3LjAnLCAnLXRuJywgJzgnLCAnLW1hJywgJzIwMCcsICctbWV0YWxfYmluZGluZycsICctaW1hZScsICc8aW5maWxlLm1hZT4nLCAnLW9tYWUnLCAnPG91dGZpbGUubWFlPic=

> <r_lp_tautomer_probability>
1

> <r_epik_Ionization_Penalty>
0.618392

> <r_epik_Ionization_Penalty_Charging>
0.618355

> <r_epik_Ionization_Penalty_Neutral>
3.68592e-05

> <r_epik_State_Penalty>
0.635579

> <r_epik_Charging_Adjusted_Penalty>
1.25393

> <i_epik_Tot_Q>
1

> <i_epik_Tot_abs_Q>
1

> <r_epik_Metal_State_Penalty>
0.306847

> <b_epik_Metal_Only>
0

> <s_lp_Force_Field>
OPLS_2005

> <r_lp_Energy>
57.1272

> <b_lp_Chiralities_Consistent>
1

> <s_lp_Variant>
AV-unprocessed.smi:3055-4

> <Gold.Version>
5.8.1

> <Gold.Id.Protein>
6NUR|6NUR_protein|mol2

> <Gold.PLP.Fitness>
49.9794

> <Gold.PLP.PLP>
-39.0070

> <Gold.PLP.part.hbond>
-1.8626

> <Gold.PLP.part.metal>
0.0000

> <Gold.PLP.part.buried>
-4.4299

> <Gold.PLP.part.nonpolar>
-32.4232

> <Gold.PLP.part.repulsive>
0.1167

> <Gold.PLP.ligand.clash>
0.0000

> <Gold.PLP.ligand.torsion>
0.5991

> <Gold.PLP.Chemscore.Hbond>
3.0000

> <Gold.PLP.Chemscore.CHOScore>
1.0000

> <Gold.PLP.Chemscore.Metal>
0.0000

> <Gold.Chemscore.Hbonds>
donor molecule, donor type, donor heavy atom, donor atom, acceptor molecule, acceptor atom, score
      L1  H    16    47       P1  8028  2.00
      P1  H  7989  7998       L1     1  0.94
      L1  C     7    27       P1  7948  0.92

> <Gold.PLP.Chemscore.Internal.Correction>
0.1706

> <Gold.Rescore>
     Score         DG    S(hbond)    S(metal)    S(lipo)     H(rot)  DE(clash)    DE(int)     intcor
     15.95     -16.93       1.81        0.00      85.69       1.81       0.53       0.45       ----

> <Gold.Chemscore.Fitness>
15.9470

> <Gold.Chemscore.DG>
-16.9294

> <Gold.Chemscore.ZeroCoef>
-5.4800

> <Gold.Chemscore.Hbond>
1.8109

> <Gold.Chemscore.Metal>
0.0000

> <Gold.Chemscore.Lipo>
85.6916

> <Gold.Chemscore.Internal_Hbond>
0.0000

> <Gold.Chemscore.DEClash>
0.5338

> <Gold.Chemscore.DEInternal>
0.4486

> <Gold.Chemscore.Rot>
1.8066

> <Gold.Chemscore.Internal.Correction>
   9.000000E+99

> <Gold.Chemscore.Hbonds>
donor molecule, donor type, donor heavy atom, donor atom, acceptor molecule, acceptor atom, score
      L1  H    16    47       P1  8028  0.82
      P1  H  7989  7998       L1     1  0.23

> <Gold.Chemscore.Hbond.Weighted>
-6.0484

> <Gold.Chemscore.Metal.Weighted>
-0.0000

> <Gold.Chemscore.Lipo.Weighted>
-10.0259

> <Gold.Chemscore.Internal_Hbond.Weighted>
0.0000

> <Gold.Chemscore.DEClash.Weighted>
0.5338

> <Gold.Chemscore.DEInternal.Weighted>
0.4486

> <Gold.Chemscore.Rot.Weighted>
4.6249

> <Gold.Chemscore.Internal.Correction.Weighted>
   9.000000E+99

> <Gold.Protein.RotatedTorsions>
[ 6907 6896 6895 6894 ] final  178.42 input  -60.11 | X-H torsion
[ 7974 7965 7964 7962 ] final  166.46 input  175.53 | X-H torsion
[ 8008 7997 7996 7995 ] final -160.84 input   59.86 | X-H torsion
[ 10167 10162 10161 10158 ] final -132.69 input  -65.29 | X-H torsion
[ 10718 10713 10712 10709 ] final -132.56 input   66.30 | X-H torsion
[ 10763 10752 10751 10750 ] final  106.29 input  -60.55 | X-H torsion
[ 11005 11000 10999 10996 ] final   44.08 input  -57.11 | X-H torsion

> <Gold.Protein.ActiveResidues>
 VAL166  LYS551  ARG553  GLY616  TRP617  ASP618  TYR619  PRO620  LYS621  CYS622 
 ASP623  PHE694  ASN695  SER759  ASP760  ASP761  ALA762  ILE779  LEU786  VAL792 
 PHE793  MET794  SER795  GLU796  ALA797  LYS798  CYS799  TRP800  GLU811  SER814 

> <Gold.Protein.RotatedAtoms>
  151.6881  133.3311  159.3235 H   0  0  0  0  0  0  0  0  0  0  0  0  # atno 6907 bound_to 6896
  150.7791  134.6722  159.6407 H   0  0  0  0  0  0  0  0  0  0  0  0  # atno 6908 bound_to 6896
  152.3843  134.6545  160.0183 H   0  0  0  0  0  0  0  0  0  0  0  0  # atno 6909 bound_to 6896
  144.7461  139.8619  143.6381 H   0  0  0  0  0  0  0  0  0  0  0  0  # atno 7974 bound_to 7965
  155.7834  140.0868  157.2047 H   0  0  0  0  0  0  0  0  0  0  0  0  # atno 8008 bound_to 7997
  154.3989  140.1503  156.3136 H   0  0  0  0  0  0  0  0  0  0  0  0  # atno 8009 bound_to 7997
  155.8631  140.3429  155.5772 H   0  0  0  0  0  0  0  0  0  0  0  0  # atno 8010 bound_to 7997
  139.9060  143.6551  152.2585 H   0  0  0  0  0  0  0  0  0  0  0  0  # atno 10167 bound_to 10162
  156.2358  130.7065  151.0906 H   0  0  0  0  0  0  0  0  0  0  0  0  # atno 10718 bound_to 10713
  153.3910  135.3882  155.1923 H   0  0  0  0  0  0  0  0  0  0  0  0  # atno 10763 bound_to 10752
  154.8719  135.3748  154.4738 H   0  0  0  0  0  0  0  0  0  0  0  0  # atno 10764 bound_to 10752
  153.5224  135.7086  153.5786 H   0  0  0  0  0  0  0  0  0  0  0  0  # atno 10765 bound_to 10752
  140.1585  134.4371  155.8333 H   0  0  0  0  0  0  0  0  0  0  0  0  # atno 11005 bound_to 11000
  146.1342  139.4384  143.0149 LP  0  0  0  0  0  0  0  0  0  0  0  0  # atno 17320 bound_to 7965
  145.7116  141.0104  143.1450 LP  0  0  0  0  0  0  0  0  0  0  0  0  # atno 17321 bound_to 7965
  139.6984  144.7638  151.1316 LP  0  0  0  0  0  0  0  0  0  0  0  0  # atno 17342 bound_to 10162
  140.7696  143.5492  150.9224 LP  0  0  0  0  0  0  0  0  0  0  0  0  # atno 17343 bound_to 10162
  157.7153  131.0713  150.6348 LP  0  0  0  0  0  0  0  0  0  0  0  0  # atno 17370 bound_to 10713
  156.6418  130.4460  149.5750 LP  0  0  0  0  0  0  0  0  0  0  0  0  # atno 17371 bound_to 10713
  141.2207  133.6903  156.7551 LP  0  0  0  0  0  0  0  0  0  0  0  0  # atno 17394 bound_to 11000
  140.2518  134.8534  157.3675 LP  0  0  0  0  0  0  0  0  0  0  0  0  # atno 17395 bound_to 11000

$$$$
