AV-unprocessed.smi:1120|AV-procd|sdf|4822|dock5
  -GOLD-   22720 3383D 1   1.00000     0.00000
 Structure written by MMmdl.
 47 48  0  0  0  0  0  0  0  0  2 V2000
  151.4883  144.5844  160.8263 C   0  0  0  0  0  0  0  0  0  0  0  0
  152.1192  143.4946  159.9488 C   0  0  2  0  0  0  0  0  0  0  0  0
  151.0533  142.7010  159.1583 C   0  0  0  0  0  0  0  0  0  0  0  0
  151.6640  141.5639  158.3014 C   0  0  0  0  0  0  0  0  0  0  0  0
  152.5157  140.5653  159.1222 C   0  0  1  0  0  0  0  0  0  0  0  0
  153.1438  139.6063  158.2227 N   0  5  0  0  0  0  0  0  0  0  0  0
  152.7876  138.0268  158.3316 S   0  0  0  0  0  0  0  0  0  0  0  0
  153.8911  137.1706  157.8654 O   0  0  0  0  0  0  0  0  0  0  0  0
  152.1633  137.6683  159.6157 O   0  0  0  0  0  0  0  0  0  0  0  0
  151.4517  137.8943  157.0594 C   0  0  0  0  0  0  0  0  0  0  0  0
  150.7252  136.5516  157.1566 C   0  0  0  0  0  0  0  0  0  0  0  0
  150.3837  136.1125  158.2548 O   0  0  0  0  0  0  0  0  0  0  0  0
  150.4703  135.9220  156.0020 N   0  0  0  0  0  0  0  0  0  0  0  0
  149.7866  134.6421  155.8726 C   0  0  0  0  0  0  0  0  0  0  0  0
  149.5998  134.2593  154.3944 C   0  0  0  0  0  0  0  0  0  0  0  0
  149.4417  132.7639  154.1754 C   0  0  0  0  0  0  0  0  0  0  0  0
  148.3465  132.2544  153.4449 C   0  0  0  0  0  0  0  0  0  0  0  0
  148.2304  130.8595  153.2940 C   0  0  0  0  0  0  0  0  0  0  0  0
  149.2114  130.0313  153.8725 C   0  0  0  0  0  0  0  0  0  0  0  0
  150.2681  130.6383  154.5804 C   0  0  0  0  0  0  0  0  0  0  0  0
  150.3872  131.9747  154.7339 N   0  0  0  0  0  0  0  0  0  0  0  0
  153.5758  141.3641  159.9234 C   0  0  0  0  0  0  0  0  0  0  0  0
  152.9669  142.5034  160.7793 C   0  0  0  0  0  0  0  0  0  0  0  0
  150.8119  144.1554  161.5662 H   0  0  0  0  0  0  0  0  0  0  0  0
  150.9177  145.2911  160.2233 H   0  0  0  0  0  0  0  0  0  0  0  0
  152.2530  145.1485  161.3609 H   0  0  0  0  0  0  0  0  0  0  0  0
  152.7787  143.9845  159.2306 H   0  0  0  0  0  0  0  0  0  0  0  0
  150.3125  142.2913  159.8482 H   0  0  0  0  0  0  0  0  0  0  0  0
  150.5051  143.3818  158.5062 H   0  0  0  0  0  0  0  0  0  0  0  0
  150.8632  141.0300  157.7886 H   0  0  0  0  0  0  0  0  0  0  0  0
  152.2792  142.0115  157.5187 H   0  0  0  0  0  0  0  0  0  0  0  0
  151.8530  140.0679  159.8311 H   0  0  0  0  0  0  0  0  0  0  0  0
  150.7482  138.7118  157.2170 H   0  0  0  0  0  0  0  0  0  0  0  0
  151.8956  138.0162  156.0717 H   0  0  0  0  0  0  0  0  0  0  0  0
  150.7913  136.3562  155.1477 H   0  0  0  0  0  0  0  0  0  0  0  0
  150.3486  133.8614  156.3873 H   0  0  0  0  0  0  0  0  0  0  0  0
  148.8156  134.7157  156.3641 H   0  0  0  0  0  0  0  0  0  0  0  0
  148.7223  134.7694  153.9943 H   0  0  0  0  0  0  0  0  0  0  0  0
  150.4487  134.6182  153.8110 H   0  0  0  0  0  0  0  0  0  0  0  0
  147.6045  132.9155  153.0205 H   0  0  0  0  0  0  0  0  0  0  0  0
  147.4026  130.4332  152.7471 H   0  0  0  0  0  0  0  0  0  0  0  0
  149.1543  128.9571  153.7780 H   0  0  0  0  0  0  0  0  0  0  0  0
  151.0373  130.0335  155.0378 H   0  0  0  0  0  0  0  0  0  0  0  0
  154.1306  140.6946  160.5806 H   0  0  0  0  0  0  0  0  0  0  0  0
  154.3075  141.7921  159.2364 H   0  0  0  0  0  0  0  0  0  0  0  0
  153.7734  143.0437  161.2762 H   0  0  0  0  0  0  0  0  0  0  0  0
  152.3572  142.0808  161.5806 H   0  0  0  0  0  0  0  0  0  0  0  0
  1  2  1  0  0  0  0
  1 24  1  0  0  0  0
  1 25  1  0  0  0  0
  1 26  1  0  0  0  0
  2 23  1  0  0  0  0
  2  3  1  0  0  0  0
  2 27  1  0  0  0  0
  3  4  1  0  0  0  0
  3 28  1  0  0  0  0
  3 29  1  0  0  0  0
  4  5  1  0  0  0  0
  4 30  1  0  0  0  0
  4 31  1  0  0  0  0
  5  6  1  0  0  0  0
  5 22  1  0  0  0  0
  5 32  1  0  0  0  0
  6  7  1  0  0  0  0
  7  8  2  0  0  0  0
  7  9  2  0  0  0  0
  7 10  1  0  0  0  0
 10 11  1  0  0  0  0
 10 33  1  0  0  0  0
 10 34  1  0  0  0  0
 11 12  2  0  0  0  0
 11 13  1  0  0  0  0
 13 14  1  0  0  0  0
 13 35  1  0  0  0  0
 14 15  1  0  0  0  0
 14 36  1  0  0  0  0
 14 37  1  0  0  0  0
 15 16  1  0  0  0  0
 15 38  1  0  0  0  0
 15 39  1  0  0  0  0
 16 21  1  0  0  0  0
 16 17  2  0  0  0  0
 17 18  1  0  0  0  0
 17 40  1  0  0  0  0
 18 19  2  0  0  0  0
 18 41  1  0  0  0  0
 19 20  1  0  0  0  0
 19 42  1  0  0  0  0
 20 21  2  0  0  0  0
 20 43  1  0  0  0  0
 22 23  1  0  0  0  0
 22 44  1  0  0  0  0
 22 45  1  0  0  0  0
 23 46  1  0  0  0  0
 23 47  1  0  0  0  0
M  CHG  1   6  -1
M  END
> <s_m_source_file>
AV-unprocessed.smi

> <i_m_source_file_index>
1120

> <i_lp_mmshare_version>
43012

> <i_f3d_flags>
0

> <s_epik_input>
W0NIM11bQ0BASF0xW0NIMl1bQ0gyXVtDQEhdKFtDSDJdW0NIMl0xKVtOSF1TKD1PKSg9TylbQ0gyXUMoPU8pW05IXVtDSDJdW0NIMl1jMltjSF1bY0hdW2NIXVtjSF1uMg==

> <s_epik_cmdline>
J2VwaWtfcHl0aG9uJywgJy1waCcsICc3LjAnLCAnLXRuJywgJzgnLCAnLW1hJywgJzIwMCcsICctbWV0YWxfYmluZGluZycsICctaW1hZScsICc8aW5maWxlLm1hZT4nLCAnLW9tYWUnLCAnPG91dGZpbGUubWFlPic=

> <r_epik_Ionization_Penalty>
5.68623

> <r_epik_Ionization_Penalty_Charging>
5.66033

> <r_epik_Ionization_Penalty_Neutral>
0.0259005

> <r_epik_State_Penalty>
5.67764

> <r_epik_Charging_Adjusted_Penalty>
11.338

> <i_epik_Tot_Q>
-1

> <i_epik_Tot_abs_Q>
1

> <r_epik_Metal_State_Penalty>
1.68319

> <b_epik_Metal_Only>
1

> <s_lp_Force_Field>
OPLS_2005

> <r_lp_Energy>
8.54043

> <b_lp_Chiralities_Consistent>
1

> <s_lp_Variant>
AV-unprocessed.smi:1120-5

> <Gold.Version>
5.8.1

> <Gold.Id.Protein>
6NUR|6NUR_protein|mol2

> <Gold.PLP.Fitness>
48.8034

> <Gold.PLP.PLP>
-41.5634

> <Gold.PLP.part.hbond>
-2.0000

> <Gold.PLP.part.metal>
0.0000

> <Gold.PLP.part.buried>
-5.5292

> <Gold.PLP.part.nonpolar>
-34.2114

> <Gold.PLP.part.repulsive>
0.1036

> <Gold.PLP.ligand.clash>
0.0000

> <Gold.PLP.ligand.torsion>
1.0845

> <Gold.PLP.Chemscore.Hbond>
2.7840

> <Gold.PLP.Chemscore.CHOScore>
0.0000

> <Gold.PLP.Chemscore.Metal>
0.0000

> <Gold.Chemscore.Hbonds>
donor molecule, donor type, donor heavy atom, donor atom, acceptor molecule, acceptor atom, score
      P1  H  6896  6907       L1    12  0.78
      P1  H  7997  8008       L1     6  2.00

> <Gold.PLP.Chemscore.Internal.Correction>
1.0570

> <Gold.Rescore>
     Score         DG    S(hbond)    S(metal)    S(lipo)     H(rot)  DE(clash)    DE(int)     intcor
     16.29     -19.11       1.65        0.00     110.22       1.86       0.01       2.81       ----

> <Gold.Chemscore.Fitness>
16.2925

> <Gold.Chemscore.DG>
-19.1126

> <Gold.Chemscore.ZeroCoef>
-5.4800

> <Gold.Chemscore.Hbond>
1.6465

> <Gold.Chemscore.Metal>
0.0000

> <Gold.Chemscore.Lipo>
110.2181

> <Gold.Chemscore.Internal_Hbond>
0.0000

> <Gold.Chemscore.DEClash>
0.0060

> <Gold.Chemscore.DEInternal>
2.8142

> <Gold.Chemscore.Rot>
1.8602

> <Gold.Chemscore.Internal.Correction>
   9.000000E+99

> <Gold.Chemscore.Hbonds>
donor molecule, donor type, donor heavy atom, donor atom, acceptor molecule, acceptor atom, score
      P1  H  6896  6907       L1    12  0.76
      P1  H  7997  8008       L1     6  0.89

> <Gold.Chemscore.Hbond.Weighted>
-5.4993

> <Gold.Chemscore.Metal.Weighted>
-0.0000

> <Gold.Chemscore.Lipo.Weighted>
-12.8955

> <Gold.Chemscore.Internal_Hbond.Weighted>
0.0000

> <Gold.Chemscore.DEClash.Weighted>
0.0060

> <Gold.Chemscore.DEInternal.Weighted>
2.8142

> <Gold.Chemscore.Rot.Weighted>
4.7622

> <Gold.Chemscore.Internal.Correction.Weighted>
   9.000000E+99

> <Gold.Protein.RotatedTorsions>
[ 6907 6896 6895 6894 ] final  -64.38 input  -60.11 | X-H torsion
[ 7974 7965 7964 7962 ] final  -15.58 input  175.53 | X-H torsion
[ 8008 7997 7996 7995 ] final  -91.63 input   59.86 | X-H torsion
[ 10167 10162 10161 10158 ] final  -24.54 input  -65.29 | X-H torsion
[ 10718 10713 10712 10709 ] final   27.48 input   66.30 | X-H torsion
[ 10763 10752 10751 10750 ] final  103.38 input  -60.55 | X-H torsion
[ 11005 11000 10999 10996 ] final  -10.53 input  -57.11 | X-H torsion

> <Gold.Protein.ActiveResidues>
 VAL166  LYS551  ARG553  GLY616  TRP617  ASP618  TYR619  PRO620  LYS621  CYS622 
 ASP623  PHE694  ASN695  SER759  ASP760  ASP761  ALA762  ILE779  LEU786  VAL792 
 PHE793  MET794  SER795  GLU796  ALA797  LYS798  CYS799  TRP800  GLU811  SER814 

> <Gold.Protein.RotatedAtoms>
  150.7589  134.6306  159.6183 H   0  0  0  0  0  0  0  0  0  0  0  0  # atno 6907 bound_to 6896
  152.3584  134.6903  160.0224 H   0  0  0  0  0  0  0  0  0  0  0  0  # atno 6908 bound_to 6896
  151.7302  133.3281  159.3374 H   0  0  0  0  0  0  0  0  0  0  0  0  # atno 6909 bound_to 6896
  146.2026  140.3513  142.8418 H   0  0  0  0  0  0  0  0  0  0  0  0  # atno 7974 bound_to 7965
  154.7131  140.0517  157.0568 H   0  0  0  0  0  0  0  0  0  0  0  0  # atno 8008 bound_to 7997
  155.0528  140.3181  155.4667 H   0  0  0  0  0  0  0  0  0  0  0  0  # atno 8009 bound_to 7997
  156.2795  140.2112  156.5654 H   0  0  0  0  0  0  0  0  0  0  0  0  # atno 8010 bound_to 7997
  140.7288  143.4344  151.0752 H   0  0  0  0  0  0  0  0  0  0  0  0  # atno 10167 bound_to 10162
  157.2207  130.6977  149.6269 H   0  0  0  0  0  0  0  0  0  0  0  0  # atno 10718 bound_to 10713
  153.3520  135.3978  155.1653 H   0  0  0  0  0  0  0  0  0  0  0  0  # atno 10763 bound_to 10752
  154.8664  135.3659  154.5210 H   0  0  0  0  0  0  0  0  0  0  0  0  # atno 10764 bound_to 10752
  153.5663  135.7080  153.5585 H   0  0  0  0  0  0  0  0  0  0  0  0  # atno 10765 bound_to 10752
  140.7457  133.8633  155.9004 H   0  0  0  0  0  0  0  0  0  0  0  0  # atno 11005 bound_to 11000
  144.8717  140.7282  143.6042 LP  0  0  0  0  0  0  0  0  0  0  0  0  # atno 17320 bound_to 7965
  145.3432  139.1726  143.4474 LP  0  0  0  0  0  0  0  0  0  0  0  0  # atno 17321 bound_to 7965
  139.8004  143.8091  152.3162 LP  0  0  0  0  0  0  0  0  0  0  0  0  # atno 17342 bound_to 10162
  139.8106  144.7337  150.9702 LP  0  0  0  0  0  0  0  0  0  0  0  0  # atno 17343 bound_to 10162
  155.9682  130.4521  150.5759 LP  0  0  0  0  0  0  0  0  0  0  0  0  # atno 17370 bound_to 10713
  157.3578  131.0744  151.1661 LP  0  0  0  0  0  0  0  0  0  0  0  0  # atno 17371 bound_to 10713
  140.9796  134.1423  157.4506 LP  0  0  0  0  0  0  0  0  0  0  0  0  # atno 17394 bound_to 11000
  139.8797  135.0006  156.6020 LP  0  0  0  0  0  0  0  0  0  0  0  0  # atno 17395 bound_to 11000

$$$$
