AV-unprocessed.smi:2599|AV-procd|sdf|10180|dock6
  -GOLD-   2272014193D 1   1.00000     0.00000
 Structure written by MMmdl.
 40 41  0  0  0  0  0  0  0  0  1 V2000
  136.8911  138.2406  156.0645 C   0  0  0  0  0  0  0  0  0  0  0  0
  137.8827  137.2241  156.1614 O   0  0  0  0  0  0  0  0  0  0  0  0
  138.9344  137.2519  155.2688 C   0  0  0  0  0  0  0  0  0  0  0  0
  138.8511  138.0881  154.1425 C   0  0  0  0  0  0  0  0  0  0  0  0
  139.9356  138.0894  153.2494 C   0  0  0  0  0  0  0  0  0  0  0  0
  141.0464  137.2607  153.5424 C   0  0  0  0  0  0  0  0  0  0  0  0
  142.1573  137.1885  152.6609 N   0  0  0  0  0  0  0  0  0  0  0  0
  143.1825  136.3192  152.6769 C   0  0  0  0  0  0  0  0  0  0  0  0
  143.3075  135.3847  153.4687 O   0  0  0  0  0  0  0  0  0  0  0  0
  144.0607  136.5911  151.6998 N   0  0  0  0  0  0  0  0  0  0  0  0
  145.3040  135.8666  151.4342 C   0  0  1  0  0  0  0  0  0  0  0  0
  146.0358  135.6609  152.7718 C   0  0  0  0  0  0  0  0  0  0  0  0
  145.0043  134.5418  150.6839 C   0  0  0  0  0  0  0  0  0  0  0  0
  143.9350  133.6864  151.3937 C   0  0  0  0  0  0  0  0  0  0  0  0
  143.7215  132.3451  150.6732 C   0  0  0  0  0  0  0  0  0  0  0  0
  144.9516  131.6373  150.5842 O   0  0  0  0  0  0  0  0  0  0  0  0
  145.9293  132.3332  149.8216 C   0  0  0  0  0  0  0  0  0  0  0  0
  146.2666  133.6721  150.4961 C   0  0  0  0  0  0  0  0  0  0  0  0
  141.0450  136.4702  154.6424 N   0  0  0  0  0  0  0  0  0  0  0  0
  140.0167  136.4663  155.4966 N   0  0  0  0  0  0  0  0  0  0  0  0
  136.1412  138.0898  156.8408 H   0  0  0  0  0  0  0  0  0  0  0  0
  136.3807  138.2084  155.1009 H   0  0  0  0  0  0  0  0  0  0  0  0
  137.3212  139.2327  156.2095 H   0  0  0  0  0  0  0  0  0  0  0  0
  137.9808  138.7020  153.9649 H   0  0  0  0  0  0  0  0  0  0  0  0
  139.8899  138.7028  152.3626 H   0  0  0  0  0  0  0  0  0  0  0  0
  142.1315  137.8311  151.8830 H   0  0  0  0  0  0  0  0  0  0  0  0
  143.8628  137.3759  151.0967 H   0  0  0  0  0  0  0  0  0  0  0  0
  145.9523  136.4697  150.7961 H   0  0  0  0  0  0  0  0  0  0  0  0
  147.0323  135.2445  152.6277 H   0  0  0  0  0  0  0  0  0  0  0  0
  145.4829  134.9900  153.4299 H   0  0  0  0  0  0  0  0  0  0  0  0
  146.1640  136.6086  153.2960 H   0  0  0  0  0  0  0  0  0  0  0  0
  144.6250  134.7928  149.6919 H   0  0  0  0  0  0  0  0  0  0  0  0
  144.2363  133.4986  152.4252 H   0  0  0  0  0  0  0  0  0  0  0  0
  142.9832  134.2148  151.4370 H   0  0  0  0  0  0  0  0  0  0  0  0
  143.0056  131.7349  151.2241 H   0  0  0  0  0  0  0  0  0  0  0  0
  143.3054  132.5005  149.6765 H   0  0  0  0  0  0  0  0  0  0  0  0
  146.8242  131.7148  149.7504 H   0  0  0  0  0  0  0  0  0  0  0  0
  145.5699  132.4891  148.8032 H   0  0  0  0  0  0  0  0  0  0  0  0
  147.0118  134.1918  149.8938 H   0  0  0  0  0  0  0  0  0  0  0  0
  146.7294  133.4817  151.4654 H   0  0  0  0  0  0  0  0  0  0  0  0
  1  2  1  0  0  0  0
  1 21  1  0  0  0  0
  1 22  1  0  0  0  0
  1 23  1  0  0  0  0
  2  3  1  0  0  0  0
  3 20  1  0  0  0  0
  3  4  2  0  0  0  0
  4  5  1  0  0  0  0
  4 24  1  0  0  0  0
  5  6  2  0  0  0  0
  5 25  1  0  0  0  0
  6  7  1  0  0  0  0
  6 19  1  0  0  0  0
  7  8  1  0  0  0  0
  7 26  1  0  0  0  0
  8  9  2  0  0  0  0
  8 10  1  0  0  0  0
 10 11  1  0  0  0  0
 10 27  1  0  0  0  0
 11 12  1  0  0  0  0
 11 13  1  0  0  0  0
 11 28  1  0  0  0  0
 12 29  1  0  0  0  0
 12 30  1  0  0  0  0
 12 31  1  0  0  0  0
 13 18  1  0  0  0  0
 13 14  1  0  0  0  0
 13 32  1  0  0  0  0
 14 15  1  0  0  0  0
 14 33  1  0  0  0  0
 14 34  1  0  0  0  0
 15 16  1  0  0  0  0
 15 35  1  0  0  0  0
 15 36  1  0  0  0  0
 16 17  1  0  0  0  0
 17 18  1  0  0  0  0
 17 37  1  0  0  0  0
 17 38  1  0  0  0  0
 18 39  1  0  0  0  0
 18 40  1  0  0  0  0
 19 20  2  0  0  0  0
M  END
> <s_m_source_file>
AV-unprocessed.smi

> <i_m_source_file_index>
2599

> <i_lp_mmshare_version>
43012

> <i_f3d_flags>
0

> <s_epik_input>
W0NIM11PYzFbY0hdW2NIXWMobm4xKVtOSF1DKD1PKVtOSF1bQ0BIXShbQ0gzXSlbQ0hdMltDSDJdW0NIMl1PW0NIMl1bQ0gyXTI=

> <s_epik_cmdline>
J2VwaWtfcHl0aG9uJywgJy1waCcsICc3LjAnLCAnLXRuJywgJzgnLCAnLW1hJywgJzIwMCcsICctbWV0YWxfYmluZGluZycsICctaW1hZScsICc8aW5maWxlLm1hZT4nLCAnLW9tYWUnLCAnPG91dGZpbGUubWFlPic=

> <r_lp_tautomer_probability>
1

> <r_epik_Ionization_Penalty>
0.00150063

> <r_epik_Ionization_Penalty_Charging>
0

> <r_epik_Ionization_Penalty_Neutral>
0.00150063

> <r_epik_State_Penalty>
-0

> <r_epik_Charging_Adjusted_Penalty>
0

> <i_epik_Tot_Q>
0

> <i_epik_Tot_abs_Q>
0

> <r_epik_Metal_State_Penalty>
-0

> <b_epik_Metal_Only>
0

> <s_lp_Force_Field>
OPLS_2005

> <r_lp_Energy>
19.9533

> <b_lp_Chiralities_Consistent>
1

> <s_lp_Variant>
AV-unprocessed.smi:2599-2

> <Gold.Version>
5.8.1

> <Gold.Id.Protein>
6NUR|6NUR_protein|mol2

> <Gold.PLP.Fitness>
38.3123

> <Gold.PLP.PLP>
-33.1743

> <Gold.PLP.part.hbond>
-2.9156

> <Gold.PLP.part.metal>
0.0000

> <Gold.PLP.part.buried>
-5.7845

> <Gold.PLP.part.nonpolar>
-25.6739

> <Gold.PLP.part.repulsive>
0.4728

> <Gold.PLP.ligand.clash>
0.0206

> <Gold.PLP.ligand.torsion>
0.4343

> <Gold.PLP.Chemscore.Hbond>
2.0000

> <Gold.PLP.Chemscore.CHOScore>
0.0000

> <Gold.PLP.Chemscore.Metal>
0.0000

> <Gold.Chemscore.Hbonds>
donor molecule, donor type, donor heavy atom, donor atom, acceptor molecule, acceptor atom, score
      L1  H    10    27       P1 10171  1.00
      P1  H 11000 11005       L1    20  0.99

> <Gold.PLP.Chemscore.Internal.Correction>
0.0272

> <Gold.Rescore>
     Score         DG    S(hbond)    S(metal)    S(lipo)     H(rot)  DE(clash)    DE(int)     intcor
      9.12     -14.22       1.43        0.00      67.86       1.55       0.68       4.42       ----

> <Gold.Chemscore.Fitness>
9.1179

> <Gold.Chemscore.DG>
-14.2227

> <Gold.Chemscore.ZeroCoef>
-5.4800

> <Gold.Chemscore.Hbond>
1.4278

> <Gold.Chemscore.Metal>
0.0000

> <Gold.Chemscore.Lipo>
67.8600

> <Gold.Chemscore.Internal_Hbond>
0.0000

> <Gold.Chemscore.DEClash>
0.6815

> <Gold.Chemscore.DEInternal>
4.4234

> <Gold.Chemscore.Rot>
1.5492

> <Gold.Chemscore.Internal.Correction>
   9.000000E+99

> <Gold.Chemscore.Hbonds>
donor molecule, donor type, donor heavy atom, donor atom, acceptor molecule, acceptor atom, score
      L1  H    10    27       P1 10171  1.00
      P1  H 11000 11005       L1    20  0.69

> <Gold.Chemscore.Hbond.Weighted>
-4.7690

> <Gold.Chemscore.Metal.Weighted>
-0.0000

> <Gold.Chemscore.Lipo.Weighted>
-7.9396

> <Gold.Chemscore.Internal_Hbond.Weighted>
0.0000

> <Gold.Chemscore.DEClash.Weighted>
0.6815

> <Gold.Chemscore.DEInternal.Weighted>
4.4234

> <Gold.Chemscore.Rot.Weighted>
3.9659

> <Gold.Chemscore.Internal.Correction.Weighted>
   9.000000E+99

> <Gold.Protein.RotatedTorsions>
[ 6907 6896 6895 6894 ] final   71.95 input  -60.11 | X-H torsion
[ 7974 7965 7964 7962 ] final  -75.27 input  175.53 | X-H torsion
[ 8008 7997 7996 7995 ] final   48.16 input   59.86 | X-H torsion
[ 10167 10162 10161 10158 ] final   71.99 input  -65.29 | X-H torsion
[ 10718 10713 10712 10709 ] final -159.76 input   66.30 | X-H torsion
[ 10763 10752 10751 10750 ] final   83.09 input  -60.55 | X-H torsion
[ 11005 11000 10999 10996 ] final   89.34 input  -57.11 | X-H torsion

> <Gold.Protein.ActiveResidues>
 VAL166  LYS551  ARG553  GLY616  TRP617  ASP618  TYR619  PRO620  LYS621  CYS622 
 ASP623  PHE694  ASN695  SER759  ASP760  ASP761  ALA762  ILE779  LEU786  VAL792 
 PHE793  MET794  SER795  GLU796  ALA797  LYS798  CYS799  TRP800  GLU811  SER814 

> <Gold.Protein.RotatedAtoms>
  152.4840  134.4644  159.9615 H   0  0  0  0  0  0  0  0  0  0  0  0  # atno 6907 bound_to 6896
  151.4644  133.3578  159.2822 H   0  0  0  0  0  0  0  0  0  0  0  0  # atno 6908 bound_to 6896
  150.8935  134.8366  159.7370 H   0  0  0  0  0  0  0  0  0  0  0  0  # atno 6909 bound_to 6896
  145.6281  140.9345  143.1101 H   0  0  0  0  0  0  0  0  0  0  0  0  # atno 7974 bound_to 7965
  155.3810  140.3428  155.4247 H   0  0  0  0  0  0  0  0  0  0  0  0  # atno 8008 bound_to 7997
  156.1610  140.1601  156.8645 H   0  0  0  0  0  0  0  0  0  0  0  0  # atno 8009 bound_to 7997
  154.5140  140.0783  156.8027 H   0  0  0  0  0  0  0  0  0  0  0  0  # atno 8010 bound_to 7997
  140.0401  144.5396  150.7440 H   0  0  0  0  0  0  0  0  0  0  0  0  # atno 10167 bound_to 10162
  156.5726  130.8695  151.2842 H   0  0  0  0  0  0  0  0  0  0  0  0  # atno 10718 bound_to 10713
  153.1260  135.4704  154.9272 H   0  0  0  0  0  0  0  0  0  0  0  0  # atno 10763 bound_to 10752
  154.7620  135.3134  154.8362 H   0  0  0  0  0  0  0  0  0  0  0  0  # atno 10764 bound_to 10752
  153.8915  135.6884  153.4814 H   0  0  0  0  0  0  0  0  0  0  0  0  # atno 10765 bound_to 10752
  139.8877  134.8545  156.3128 H   0  0  0  0  0  0  0  0  0  0  0  0  # atno 11005 bound_to 11000
  144.7204  139.8050  143.7384 LP  0  0  0  0  0  0  0  0  0  0  0  0  # atno 17320 bound_to 7965
  146.1378  139.4427  143.0128 LP  0  0  0  0  0  0  0  0  0  0  0  0  # atno 17321 bound_to 7965
  140.7264  143.2640  151.4106 LP  0  0  0  0  0  0  0  0  0  0  0  0  # atno 17342 bound_to 10162
  139.6019  144.1277  152.2207 LP  0  0  0  0  0  0  0  0  0  0  0  0  # atno 17343 bound_to 10162
  157.7345  130.9746  150.2030 LP  0  0  0  0  0  0  0  0  0  0  0  0  # atno 17370 bound_to 10713
  156.2701  130.3721  149.8040 LP  0  0  0  0  0  0  0  0  0  0  0  0  # atno 17371 bound_to 10713
  140.9838  133.7250  156.0712 LP  0  0  0  0  0  0  0  0  0  0  0  0  # atno 17394 bound_to 11000
  140.7714  134.3828  157.5507 LP  0  0  0  0  0  0  0  0  0  0  0  0  # atno 17395 bound_to 11000

$$$$
