AV-unprocessed.smi:1952|AV-procd|sdf|7884|dock4
  -GOLD-   2272010 33D 1   1.00000     0.00000
 Structure written by MMmdl.
 39 40  0  0  0  0  0  0  0  0  1 V2000
  143.9994  132.5185  149.8901 C   0  0  0  0  0  0  0  0  0  0  0  0
  145.0259  132.7168  150.9521 C   0  0  0  0  0  0  0  0  0  0  0  0
  145.8637  133.7534  151.2542 C   0  0  0  0  0  0  0  0  0  0  0  0
  146.5736  133.2713  152.3860 C   0  0  0  0  0  0  0  0  0  0  0  0
  147.5639  134.0671  153.0160 N   0  0  0  0  0  0  0  0  0  0  0  0
  147.9276  134.0503  154.3095 C   0  0  0  0  0  0  0  0  0  0  0  0
  147.4396  133.3197  155.1723 O   0  0  0  0  0  0  0  0  0  0  0  0
  148.8983  134.9447  154.5512 N   0  0  0  0  0  0  0  0  0  0  0  0
  149.5060  135.2173  155.8529 C   0  0  1  0  0  0  0  0  0  0  0  0
  149.7745  133.8862  156.5676 C   0  0  0  0  0  0  0  0  0  0  0  0
  150.8096  136.0256  155.6752 C   0  0  0  0  0  0  0  0  0  0  0  0
  150.6696  137.4803  155.7558 N   0  0  0  0  0  0  0  0  0  0  0  0
  151.9510  138.1619  155.9282 C   0  0  0  0  0  0  0  0  0  0  0  0
  151.7812  139.6893  155.9974 C   0  0  0  0  0  0  0  0  0  0  0  0
  151.1132  140.1503  154.8272 O   0  0  0  0  0  0  0  0  0  0  0  0
  149.8394  139.5404  154.6463 C   0  0  0  0  0  0  0  0  0  0  0  0
  150.0067  138.0130  154.5710 C   0  0  0  0  0  0  0  0  0  0  0  0
  146.2024  132.0513  152.7427 N   0  0  0  0  0  0  0  0  0  0  0  0
  145.2090  131.6896  151.8253 O   0  0  0  0  0  0  0  0  0  0  0  0
  143.8667  133.4266  149.3016 H   0  0  0  0  0  0  0  0  0  0  0  0
  143.0361  132.2556  150.3273 H   0  0  0  0  0  0  0  0  0  0  0  0
  144.2947  131.7170  149.2127 H   0  0  0  0  0  0  0  0  0  0  0  0
  145.9520  134.7018  150.7455 H   0  0  0  0  0  0  0  0  0  0  0  0
  148.0445  134.7226  152.4181 H   0  0  0  0  0  0  0  0  0  0  0  0
  149.2315  135.4985  153.7760 H   0  0  0  0  0  0  0  0  0  0  0  0
  148.8122  135.7738  156.4836 H   0  0  0  0  0  0  0  0  0  0  0  0
  150.2046  134.0530  157.5556 H   0  0  0  0  0  0  0  0  0  0  0  0
  150.4695  133.2632  156.0034 H   0  0  0  0  0  0  0  0  0  0  0  0
  148.8526  133.3195  156.7028 H   0  0  0  0  0  0  0  0  0  0  0  0
  151.5440  135.6934  156.4107 H   0  0  0  0  0  0  0  0  0  0  0  0
  151.2298  135.7659  154.7022 H   0  0  0  0  0  0  0  0  0  0  0  0
  152.4432  137.8269  156.8401 H   0  0  0  0  0  0  0  0  0  0  0  0
  152.6188  137.9102  155.1029 H   0  0  0  0  0  0  0  0  0  0  0  0
  151.2143  139.9740  156.8854 H   0  0  0  0  0  0  0  0  0  0  0  0
  152.7541  140.1762  156.0685 H   0  0  0  0  0  0  0  0  0  0  0  0
  149.1761  139.8163  155.4677 H   0  0  0  0  0  0  0  0  0  0  0  0
  149.3888  139.9188  153.7287 H   0  0  0  0  0  0  0  0  0  0  0  0
  150.5802  137.7563  153.6789 H   0  0  0  0  0  0  0  0  0  0  0  0
  149.0260  137.5502  154.4554 H   0  0  0  0  0  0  0  0  0  0  0  0
  1  2  1  0  0  0  0
  1 20  1  0  0  0  0
  1 21  1  0  0  0  0
  1 22  1  0  0  0  0
  2 19  1  0  0  0  0
  2  3  2  0  0  0  0
  3  4  1  0  0  0  0
  3 23  1  0  0  0  0
  4  5  1  0  0  0  0
  4 18  2  0  0  0  0
  5  6  1  0  0  0  0
  5 24  1  0  0  0  0
  6  7  2  0  0  0  0
  6  8  1  0  0  0  0
  8  9  1  0  0  0  0
  8 25  1  0  0  0  0
  9 10  1  0  0  0  0
  9 11  1  0  0  0  0
  9 26  1  0  0  0  0
 10 27  1  0  0  0  0
 10 28  1  0  0  0  0
 10 29  1  0  0  0  0
 11 12  1  0  0  0  0
 11 30  1  0  0  0  0
 11 31  1  0  0  0  0
 12 17  1  0  0  0  0
 12 13  1  0  0  0  0
 13 14  1  0  0  0  0
 13 32  1  0  0  0  0
 13 33  1  0  0  0  0
 14 15  1  0  0  0  0
 14 34  1  0  0  0  0
 14 35  1  0  0  0  0
 15 16  1  0  0  0  0
 16 17  1  0  0  0  0
 16 36  1  0  0  0  0
 16 37  1  0  0  0  0
 17 38  1  0  0  0  0
 17 39  1  0  0  0  0
 18 19  1  0  0  0  0
M  END
> <s_m_source_file>
AV-unprocessed.smi

> <i_m_source_file_index>
1952

> <i_lp_mmshare_version>
43012

> <i_f3d_flags>
0

> <s_epik_input>
W0NIM11jMVtjSF1jKG5vMSlbTkhdQyg9TylbTkhdW0NASF0oW0NIM10pW0NIMl1OMltDSDJdW0NIMl1PW0NIMl1bQ0gyXTI=

> <s_epik_cmdline>
J2VwaWtfcHl0aG9uJywgJy1waCcsICc3LjAnLCAnLXRuJywgJzgnLCAnLW1hJywgJzIwMCcsICctbWV0YWxfYmluZGluZycsICctaW1hZScsICc8aW5maWxlLm1hZT4nLCAnLW9tYWUnLCAnPG91dGZpbGUubWFlPic=

> <r_epik_Ionization_Penalty>
0.214075

> <r_epik_Ionization_Penalty_Charging>
0

> <r_epik_Ionization_Penalty_Neutral>
0.214075

> <r_epik_State_Penalty>
0.204211

> <r_epik_Charging_Adjusted_Penalty>
0.204211

> <i_epik_Tot_Q>
0

> <i_epik_Tot_abs_Q>
0

> <r_epik_Metal_State_Penalty>
0.218782

> <b_epik_Metal_Only>
0

> <s_lp_Force_Field>
OPLS_2005

> <r_lp_Energy>
23.1471

> <b_lp_Chiralities_Consistent>
1

> <s_lp_Variant>
AV-unprocessed.smi:1952-2

> <Gold.Version>
5.8.1

> <Gold.Id.Protein>
6NUR|6NUR_protein|mol2

> <Gold.PLP.Fitness>
36.8590

> <Gold.PLP.PLP>
-29.6603

> <Gold.PLP.part.hbond>
-2.9732

> <Gold.PLP.part.metal>
0.0000

> <Gold.PLP.part.buried>
-3.8475

> <Gold.PLP.part.nonpolar>
-23.6473

> <Gold.PLP.part.repulsive>
0.4637

> <Gold.PLP.ligand.clash>
0.0000

> <Gold.PLP.ligand.torsion>
0.9125

> <Gold.PLP.Chemscore.Hbond>
3.0000

> <Gold.PLP.Chemscore.CHOScore>
0.0000

> <Gold.PLP.Chemscore.Metal>
0.0000

> <Gold.Chemscore.Hbonds>
donor molecule, donor type, donor heavy atom, donor atom, acceptor molecule, acceptor atom, score
      L1  H     5    24       P1  7948  1.00
      L1  H     8    25       P1  7948  0.98
      P1  H  7989  7998       L1    15  1.00

> <Gold.PLP.Chemscore.Internal.Correction>
0.0236

> <Gold.Rescore>
     Score         DG    S(hbond)    S(metal)    S(lipo)     H(rot)  DE(clash)    DE(int)     intcor
     14.05     -17.39       2.61        0.00      61.33       1.56       0.00       3.35       ----

> <Gold.Chemscore.Fitness>
14.0463

> <Gold.Chemscore.DG>
-17.3938

> <Gold.Chemscore.ZeroCoef>
-5.4800

> <Gold.Chemscore.Hbond>
2.6139

> <Gold.Chemscore.Metal>
0.0000

> <Gold.Chemscore.Lipo>
61.3348

> <Gold.Chemscore.Internal_Hbond>
0.0000

> <Gold.Chemscore.DEClash>
0.0004

> <Gold.Chemscore.DEInternal>
3.3470

> <Gold.Chemscore.Rot>
1.5597

> <Gold.Chemscore.Internal.Correction>
   9.000000E+99

> <Gold.Chemscore.Hbonds>
donor molecule, donor type, donor heavy atom, donor atom, acceptor molecule, acceptor atom, score
      L1  H     5    24       P1  7948  0.55
      L1  H     8    25       P1  7948  0.48
      P1  H  7989  7998       L1    15  0.84

> <Gold.Chemscore.Hbond.Weighted>
-8.7304

> <Gold.Chemscore.Metal.Weighted>
-0.0000

> <Gold.Chemscore.Lipo.Weighted>
-7.1762

> <Gold.Chemscore.Internal_Hbond.Weighted>
0.0000

> <Gold.Chemscore.DEClash.Weighted>
0.0004

> <Gold.Chemscore.DEInternal.Weighted>
3.3470

> <Gold.Chemscore.Rot.Weighted>
3.9928

> <Gold.Chemscore.Internal.Correction.Weighted>
   9.000000E+99

> <Gold.Protein.RotatedTorsions>
[ 6907 6896 6895 6894 ] final   14.92 input  -60.11 | X-H torsion
[ 7974 7965 7964 7962 ] final    1.05 input  175.53 | X-H torsion
[ 8008 7997 7996 7995 ] final -132.10 input   59.86 | X-H torsion
[ 10167 10162 10161 10158 ] final -166.81 input  -65.29 | X-H torsion
[ 10718 10713 10712 10709 ] final -108.48 input   66.30 | X-H torsion
[ 10763 10752 10751 10750 ] final   40.59 input  -60.55 | X-H torsion
[ 11005 11000 10999 10996 ] final   53.80 input  -57.11 | X-H torsion

> <Gold.Protein.ActiveResidues>
 VAL166  LYS551  ARG553  GLY616  TRP617  ASP618  TYR619  PRO620  LYS621  CYS622 
 ASP623  PHE694  ASN695  SER759  ASP760  ASP761  ALA762  ILE779  LEU786  VAL792 
 PHE793  MET794  SER795  GLU796  ALA797  LYS798  CYS799  TRP800  GLU811  SER814 

> <Gold.Protein.RotatedAtoms>
  151.8098  135.0684  160.0411 H   0  0  0  0  0  0  0  0  0  0  0  0  # atno 6907 bound_to 6896
  152.3028  133.5669  159.5638 H   0  0  0  0  0  0  0  0  0  0  0  0  # atno 6908 bound_to 6896
  150.7282  134.0182  159.3734 H   0  0  0  0  0  0  0  0  0  0  0  0  # atno 6909 bound_to 6896
  146.2438  140.1045  142.8346 H   0  0  0  0  0  0  0  0  0  0  0  0  # atno 7974 bound_to 7965
  155.3233  140.0463  157.3040 H   0  0  0  0  0  0  0  0  0  0  0  0  # atno 8008 bound_to 7997
  154.5368  140.2275  155.8675 H   0  0  0  0  0  0  0  0  0  0  0  0  # atno 8009 bound_to 7997
  156.1842  140.3066  155.9214 H   0  0  0  0  0  0  0  0  0  0  0  0  # atno 8010 bound_to 7997
  139.6090  144.0853  152.1822 H   0  0  0  0  0  0  0  0  0  0  0  0  # atno 10167 bound_to 10162
  156.0488  130.5715  150.7967 H   0  0  0  0  0  0  0  0  0  0  0  0  # atno 10718 bound_to 10713
  152.9932  135.6187  154.2651 H   0  0  0  0  0  0  0  0  0  0  0  0  # atno 10763 bound_to 10752
  154.2385  135.2789  155.2864 H   0  0  0  0  0  0  0  0  0  0  0  0  # atno 10764 bound_to 10752
  154.5389  135.5766  153.6880 H   0  0  0  0  0  0  0  0  0  0  0  0  # atno 10765 bound_to 10752
  140.0738  134.5433  155.9018 H   0  0  0  0  0  0  0  0  0  0  0  0  # atno 11005 bound_to 11000
  145.0540  140.9038  143.4978 LP  0  0  0  0  0  0  0  0  0  0  0  0  # atno 17320 bound_to 7965
  145.1148  139.2733  143.5619 LP  0  0  0  0  0  0  0  0  0  0  0  0  # atno 17321 bound_to 7965
  140.0468  144.5964  150.7368 LP  0  0  0  0  0  0  0  0  0  0  0  0  # atno 17342 bound_to 10162
  140.7305  143.2684  151.3967 LP  0  0  0  0  0  0  0  0  0  0  0  0  # atno 17343 bound_to 10162
  157.5392  131.0940  150.9850 LP  0  0  0  0  0  0  0  0  0  0  0  0  # atno 17370 bound_to 10713
  157.0137  130.5647  149.5323 LP  0  0  0  0  0  0  0  0  0  0  0  0  # atno 17371 bound_to 10713
  141.2022  133.6623  156.5991 LP  0  0  0  0  0  0  0  0  0  0  0  0  # atno 17394 bound_to 11000
  140.3588  134.7705  157.4519 LP  0  0  0  0  0  0  0  0  0  0  0  0  # atno 17395 bound_to 11000

$$$$
