AV-unprocessed.smi:821|AV-procd|sdf|3841|dock2
  -GOLD-   22720 1283D 1   1.00000     0.00000
 Structure written by MMmdl.
 45 46  0  0  0  0  0  0  0  0  2 V2000
  147.0301  141.9285  154.9214 C   0  0  0  0  0  0  0  0  0  0  0  0
  147.2782  140.4199  155.0554 C   0  0  1  0  0  0  0  0  0  0  0  0
  147.0985  139.6982  153.7002 C   0  0  0  0  0  0  0  0  0  0  0  0
  145.9163  138.8000  153.6729 N   0  3  0  0  0  0  0  0  0  0  0  0
  145.9783  137.7727  152.6049 C   0  0  0  0  0  0  0  0  0  0  0  0
  144.6849  136.9417  152.5932 C   0  0  0  0  0  0  0  0  0  0  0  0
  144.4912  136.3457  153.8705 O   0  0  0  0  0  0  0  0  0  0  0  0
  144.3546  137.3188  154.8991 C   0  0  0  0  0  0  0  0  0  0  0  0
  145.6348  138.1678  154.9827 C   0  0  0  0  0  0  0  0  0  0  0  0
  148.6194  140.2055  155.6004 N   0  0  0  0  0  0  0  0  0  0  0  0
  149.7767  140.5414  155.0092 C   0  0  0  0  0  0  0  0  0  0  0  0
  149.8364  141.1268  153.9273 O   0  0  0  0  0  0  0  0  0  0  0  0
  151.0542  140.1853  155.7822 C   0  0  0  0  0  0  0  0  0  0  0  0
  151.3129  141.0805  156.9229 N   0  0  0  0  0  0  0  0  0  0  0  0
  150.5929  142.2880  156.9609 C   0  0  0  0  0  0  0  0  0  0  0  0
  150.7540  143.1736  157.9533 C   0  0  0  0  0  0  0  0  0  0  0  0
  151.6944  142.8605  159.0016 C   0  0  0  0  0  0  0  0  0  0  0  0
  152.4054  141.7091  158.9896 C   0  0  0  0  0  0  0  0  0  0  0  0
  153.4023  141.3604  160.0930 C   0  0  0  0  0  0  0  0  0  0  0  0
  154.6533  141.4596  159.6423 F   0  0  0  0  0  0  0  0  0  0  0  0
  153.2821  142.1734  161.1435 F   0  0  0  0  0  0  0  0  0  0  0  0
  153.2111  140.1115  160.5204 F   0  0  0  0  0  0  0  0  0  0  0  0
  152.2244  140.7424  157.8873 C   0  0  0  0  0  0  0  0  0  0  0  0
  152.8541  139.6849  157.8266 O   0  0  0  0  0  0  0  0  0  0  0  0
  146.0233  142.1288  154.5536 H   0  0  0  0  0  0  0  0  0  0  0  0
  147.7350  142.3888  154.2282 H   0  0  0  0  0  0  0  0  0  0  0  0
  147.1328  142.4308  155.8841 H   0  0  0  0  0  0  0  0  0  0  0  0
  146.5394  140.0430  155.7642 H   0  0  0  0  0  0  0  0  0  0  0  0
  147.0286  140.4187  152.8836 H   0  0  0  0  0  0  0  0  0  0  0  0
  147.9981  139.1113  153.5084 H   0  0  0  0  0  0  0  0  0  0  0  0
  146.1156  138.2428  151.6314 H   0  0  0  0  0  0  0  0  0  0  0  0
  146.8385  137.1218  152.7694 H   0  0  0  0  0  0  0  0  0  0  0  0
  143.8258  137.5618  152.3312 H   0  0  0  0  0  0  0  0  0  0  0  0
  144.7505  136.1546  151.8421 H   0  0  0  0  0  0  0  0  0  0  0  0
  143.4825  137.9467  154.7081 H   0  0  0  0  0  0  0  0  0  0  0  0
  144.1790  136.8093  155.8467 H   0  0  0  0  0  0  0  0  0  0  0  0
  146.4810  137.5461  155.2797 H   0  0  0  0  0  0  0  0  0  0  0  0
  145.5141  138.9356  155.7476 H   0  0  0  0  0  0  0  0  0  0  0  0
  148.6715  139.7330  156.4918 H   0  0  0  0  0  0  0  0  0  0  0  0
  150.9691  139.1511  156.1183 H   0  0  0  0  0  0  0  0  0  0  0  0
  151.9067  140.1918  155.0999 H   0  0  0  0  0  0  0  0  0  0  0  0
  149.9138  142.4487  156.1362 H   0  0  0  0  0  0  0  0  0  0  0  0
  150.1963  144.0987  157.9672 H   0  0  0  0  0  0  0  0  0  0  0  0
  151.8209  143.5704  159.8053 H   0  0  0  0  0  0  0  0  0  0  0  0
  145.1206  139.3876  153.4673 H   0  0  0  0  0  0  0  0  0  0  0  0
  1  2  1  0  0  0  0
  1 25  1  0  0  0  0
  1 26  1  0  0  0  0
  1 27  1  0  0  0  0
  2  3  1  0  0  0  0
  2 10  1  0  0  0  0
  2 28  1  0  0  0  0
  3  4  1  0  0  0  0
  3 29  1  0  0  0  0
  3 30  1  0  0  0  0
  4  9  1  0  0  0  0
  4  5  1  0  0  0  0
  4 45  1  0  0  0  0
  5  6  1  0  0  0  0
  5 31  1  0  0  0  0
  5 32  1  0  0  0  0
  6  7  1  0  0  0  0
  6 33  1  0  0  0  0
  6 34  1  0  0  0  0
  7  8  1  0  0  0  0
  8  9  1  0  0  0  0
  8 35  1  0  0  0  0
  8 36  1  0  0  0  0
  9 37  1  0  0  0  0
  9 38  1  0  0  0  0
 10 11  1  0  0  0  0
 10 39  1  0  0  0  0
 11 12  2  0  0  0  0
 11 13  1  0  0  0  0
 13 14  1  0  0  0  0
 13 40  1  0  0  0  0
 13 41  1  0  0  0  0
 14 23  1  0  0  0  0
 14 15  1  0  0  0  0
 15 16  2  0  0  0  0
 15 42  1  0  0  0  0
 16 17  1  0  0  0  0
 16 43  1  0  0  0  0
 17 18  2  0  0  0  0
 17 44  1  0  0  0  0
 18 19  1  0  0  0  0
 18 23  1  0  0  0  0
 19 20  1  0  0  0  0
 19 21  1  0  0  0  0
 19 22  1  0  0  0  0
 23 24  2  0  0  0  0
M  CHG  1   4   1
M  END
> <s_m_source_file>
AV-unprocessed.smi

> <i_m_source_file_index>
821

> <i_lp_mmshare_version>
43012

> <i_f3d_flags>
0

> <s_epik_input>
W0NIMl0xW0NIMl1PW0NIMl1bQ0gyXU4xW0NIMl1bQ0BASF0oW0NIM10pW05IXUMoPU8pW0NIMl1uMltjSF1bY0hdW2NIXWMoQyhGKShGKUYpYzI9Tw==

> <s_epik_cmdline>
J2VwaWtfcHl0aG9uJywgJy1waCcsICc3LjAnLCAnLXRuJywgJzgnLCAnLW1hJywgJzIwMCcsICctbWV0YWxfYmluZGluZycsICctaW1hZScsICc8aW5maWxlLm1hZT4nLCAnLW9tYWUnLCAnPG91dGZpbGUubWFlPic=

> <r_lp_tautomer_probability>
1

> <r_epik_Ionization_Penalty>
0.656654

> <r_epik_Ionization_Penalty_Charging>
0.656653

> <r_epik_Ionization_Penalty_Neutral>
9.12373e-08

> <r_epik_State_Penalty>
0.675641

> <r_epik_Charging_Adjusted_Penalty>
1.33229

> <i_epik_Tot_Q>
1

> <i_epik_Tot_abs_Q>
1

> <r_epik_Metal_State_Penalty>
0.675695

> <b_epik_Metal_Only>
0

> <s_lp_Force_Field>
OPLS_2005

> <r_lp_Energy>
32.7589

> <b_lp_Chiralities_Consistent>
1

> <s_lp_Variant>
AV-unprocessed.smi:821-4

> <Gold.Version>
5.8.1

> <Gold.Id.Protein>
6NUR|6NUR_protein|mol2

> <Gold.PLP.Fitness>
49.4169

> <Gold.PLP.PLP>
-37.5839

> <Gold.PLP.part.hbond>
-3.8174

> <Gold.PLP.part.metal>
0.0000

> <Gold.PLP.part.buried>
-2.9511

> <Gold.PLP.part.nonpolar>
-32.8709

> <Gold.PLP.part.repulsive>
1.0614

> <Gold.PLP.ligand.clash>
0.2417

> <Gold.PLP.ligand.torsion>
1.7648

> <Gold.PLP.Chemscore.Hbond>
4.1520

> <Gold.PLP.Chemscore.CHOScore>
0.8691

> <Gold.PLP.Chemscore.Metal>
0.0000

> <Gold.Chemscore.Hbonds>
donor molecule, donor type, donor heavy atom, donor atom, acceptor molecule, acceptor atom, score
      L1  H     4    45       P1 10175  1.85
      P1  H  7989  7998       L1    12  0.37
      P1  H  7997  8008       L1    24  1.00
      P1  H  8011  8017       L1    12  0.78
      L1  C    15    42       P1  8028  0.82

> <Gold.PLP.Chemscore.Internal.Correction>
0.5410

> <Gold.Rescore>
     Score         DG    S(hbond)    S(metal)    S(lipo)     H(rot)  DE(clash)    DE(int)     intcor
     13.19     -18.40       2.79        0.00      78.14       2.17       1.48       3.73       ----

> <Gold.Chemscore.Fitness>
13.1876

> <Gold.Chemscore.DG>
-18.3957

> <Gold.Chemscore.ZeroCoef>
-5.4800

> <Gold.Chemscore.Hbond>
2.7941

> <Gold.Chemscore.Metal>
0.0000

> <Gold.Chemscore.Lipo>
78.1423

> <Gold.Chemscore.Internal_Hbond>
0.0000

> <Gold.Chemscore.DEClash>
1.4754

> <Gold.Chemscore.DEInternal>
3.7327

> <Gold.Chemscore.Rot>
2.1716

> <Gold.Chemscore.Internal.Correction>
   9.000000E+99

> <Gold.Chemscore.Hbonds>
donor molecule, donor type, donor heavy atom, donor atom, acceptor molecule, acceptor atom, score
      L1  H     4    45       P1 10175  0.88
      P1  H  7989  7998       L1    12  0.12
      P1  H  7997  8008       L1    24  0.60
      P1  H  8011  8017       L1    12  0.74

> <Gold.Chemscore.Hbond.Weighted>
-9.3322

> <Gold.Chemscore.Metal.Weighted>
-0.0000

> <Gold.Chemscore.Lipo.Weighted>
-9.1427

> <Gold.Chemscore.Internal_Hbond.Weighted>
0.0000

> <Gold.Chemscore.DEClash.Weighted>
1.4754

> <Gold.Chemscore.DEInternal.Weighted>
3.7327

> <Gold.Chemscore.Rot.Weighted>
5.5592

> <Gold.Chemscore.Internal.Correction.Weighted>
   9.000000E+99

> <Gold.Protein.RotatedTorsions>
[ 6907 6896 6895 6894 ] final   -8.32 input  -60.11 | X-H torsion
[ 7974 7965 7964 7962 ] final  -97.78 input  175.53 | X-H torsion
[ 8008 7997 7996 7995 ] final  -75.89 input   59.86 | X-H torsion
[ 10167 10162 10161 10158 ] final -116.99 input  -65.29 | X-H torsion
[ 10718 10713 10712 10709 ] final   40.69 input   66.30 | X-H torsion
[ 10763 10752 10751 10750 ] final  -63.41 input  -60.55 | X-H torsion
[ 11005 11000 10999 10996 ] final  109.60 input  -57.11 | X-H torsion

> <Gold.Protein.ActiveResidues>
 VAL166  LYS551  ARG553  GLY616  TRP617  ASP618  TYR619  PRO620  LYS621  CYS622 
 ASP623  PHE694  ASN695  SER759  ASP760  ASP761  ALA762  ILE779  LEU786  VAL792 
 PHE793  MET794  SER795  GLU796  ALA797  LYS798  CYS799  TRP800  GLU811  SER814 

> <Gold.Protein.RotatedAtoms>
  151.4356  135.1014  159.9654 H   0  0  0  0  0  0  0  0  0  0  0  0  # atno 6907 bound_to 6896
  152.4941  133.8577  159.7244 H   0  0  0  0  0  0  0  0  0  0  0  0  # atno 6908 bound_to 6896
  150.9124  133.6922  159.2879 H   0  0  0  0  0  0  0  0  0  0  0  0  # atno 6909 bound_to 6896
  145.3292  140.9438  143.2671 H   0  0  0  0  0  0  0  0  0  0  0  0  # atno 7974 bound_to 7965
  154.5456  140.0736  156.8584 H   0  0  0  0  0  0  0  0  0  0  0  0  # atno 8008 bound_to 7997
  155.3093  140.3389  155.4226 H   0  0  0  0  0  0  0  0  0  0  0  0  # atno 8009 bound_to 7997
  156.1915  140.1688  156.8068 H   0  0  0  0  0  0  0  0  0  0  0  0  # atno 8010 bound_to 7997
  140.0732  143.4857  152.1968 H   0  0  0  0  0  0  0  0  0  0  0  0  # atno 10167 bound_to 10162
  157.3850  130.7774  149.7223 H   0  0  0  0  0  0  0  0  0  0  0  0  # atno 10718 bound_to 10713
  154.3146  135.6208  153.5481 H   0  0  0  0  0  0  0  0  0  0  0  0  # atno 10763 bound_to 10752
  152.9826  135.5709  154.5138 H   0  0  0  0  0  0  0  0  0  0  0  0  # atno 10764 bound_to 10752
  154.4795  135.2862  155.1558 H   0  0  0  0  0  0  0  0  0  0  0  0  # atno 10765 bound_to 10752
  139.8865  134.9462  156.6150 H   0  0  0  0  0  0  0  0  0  0  0  0  # atno 11005 bound_to 11000
  144.8877  139.4817  143.6692 LP  0  0  0  0  0  0  0  0  0  0  0  0  # atno 17320 bound_to 7965
  146.3052  139.7556  142.9061 LP  0  0  0  0  0  0  0  0  0  0  0  0  # atno 17321 bound_to 7965
  139.5823  144.7516  151.3607 LP  0  0  0  0  0  0  0  0  0  0  0  0  # atno 17342 bound_to 10162
  140.7115  143.7378  150.7576 LP  0  0  0  0  0  0  0  0  0  0  0  0  # atno 17343 bound_to 10162
  155.9784  130.4051  150.3648 LP  0  0  0  0  0  0  0  0  0  0  0  0  # atno 17370 bound_to 10713
  157.1757  131.0380  151.2773 LP  0  0  0  0  0  0  0  0  0  0  0  0  # atno 17371 bound_to 10713
  140.7783  133.8681  155.8547 LP  0  0  0  0  0  0  0  0  0  0  0  0  # atno 17394 bound_to 11000
  140.9783  134.1440  157.4517 LP  0  0  0  0  0  0  0  0  0  0  0  0  # atno 17395 bound_to 11000

$$$$
