AV-unprocessed.smi:2718|AV-procd|sdf|10492|dock8
  -GOLD-   2272014543D 1   1.00000     0.00000
 Structure written by MMmdl.
 47 48  0  0  0  0  0  0  0  0  1 V2000
  153.9211  134.6080  163.5516 C   0  0  0  0  0  0  0  0  0  0  0  0
  154.1772  136.0900  163.3626 C   0  0  0  0  0  0  0  0  0  0  0  0
  154.9308  136.7538  164.5015 C   0  0  0  0  0  0  0  0  0  0  0  0
  153.7557  136.7463  162.2643 C   0  0  0  0  0  0  0  0  0  0  0  0
  153.9375  138.1957  161.9628 C   0  0  2  0  0  0  0  0  0  0  0  0
  153.5774  138.8598  160.6371 C   0  0  2  0  0  0  0  0  0  0  0  0
  153.0083  138.0655  159.4943 C   0  0  0  0  0  0  0  0  0  0  0  0
  152.8756  136.8417  159.4930 O   0  0  0  0  0  0  0  0  0  0  0  0
  152.6430  138.8276  158.4528 N   0  0  0  0  0  0  0  0  0  0  0  0
  152.0485  138.3423  157.2100 C   0  0  0  0  0  0  0  0  0  0  0  0
  152.3764  139.2265  155.9850 C   0  0  1  0  0  0  0  0  0  0  0  0
  152.7575  138.3823  154.7603 C   0  0  0  0  0  0  0  0  0  0  0  0
  151.2816  140.2083  155.6616 C   0  0  0  0  0  0  0  0  0  0  0  0
  150.6432  140.2422  154.4839 N   0  0  0  0  0  0  0  0  0  0  0  0
  149.7222  141.2649  154.5865 N   0  0  0  0  0  0  0  0  0  0  0  0
  149.8986  141.7523  155.8134 C   0  0  0  0  0  0  0  0  0  0  0  0
  150.8524  141.1446  156.5346 N   0  0  0  0  0  0  0  0  0  0  0  0
  151.2847  141.4417  157.8857 C   0  0  0  0  0  0  0  0  0  0  0  0
  155.0393  138.7027  161.0457 C   0  0  0  0  0  0  0  0  0  0  0  0
  155.7976  139.9617  161.4299 C   0  0  0  0  0  0  0  0  0  0  0  0
  156.0052  137.7343  160.3672 C   0  0  0  0  0  0  0  0  0  0  0  0
  154.8641  134.0704  163.6521 H   0  0  0  0  0  0  0  0  0  0  0  0
  153.3769  134.1835  162.7075 H   0  0  0  0  0  0  0  0  0  0  0  0
  153.3315  134.4397  164.4532 H   0  0  0  0  0  0  0  0  0  0  0  0
  154.3506  136.6867  165.4220 H   0  0  0  0  0  0  0  0  0  0  0  0
  155.1349  137.8066  164.3095 H   0  0  0  0  0  0  0  0  0  0  0  0
  155.8858  136.2532  164.6622 H   0  0  0  0  0  0  0  0  0  0  0  0
  153.2353  136.1826  161.5039 H   0  0  0  0  0  0  0  0  0  0  0  0
  153.7463  138.7903  162.8542 H   0  0  0  0  0  0  0  0  0  0  0  0
  153.1767  139.8693  160.7191 H   0  0  0  0  0  0  0  0  0  0  0  0
  152.7852  139.8249  158.5263 H   0  0  0  0  0  0  0  0  0  0  0  0
  152.3515  137.3096  157.0303 H   0  0  0  0  0  0  0  0  0  0  0  0
  150.9691  138.3219  157.3641 H   0  0  0  0  0  0  0  0  0  0  0  0
  153.2693  139.7943  156.2443 H   0  0  0  0  0  0  0  0  0  0  0  0
  153.0657  139.0163  153.9286 H   0  0  0  0  0  0  0  0  0  0  0  0
  151.9196  137.7720  154.4217 H   0  0  0  0  0  0  0  0  0  0  0  0
  153.5861  137.7114  154.9887 H   0  0  0  0  0  0  0  0  0  0  0  0
  149.3165  142.5783  156.1951 H   0  0  0  0  0  0  0  0  0  0  0  0
  150.6628  142.2276  158.3151 H   0  0  0  0  0  0  0  0  0  0  0  0
  152.3223  141.7758  157.8739 H   0  0  0  0  0  0  0  0  0  0  0  0
  151.2026  140.5495  158.5058 H   0  0  0  0  0  0  0  0  0  0  0  0
  156.2142  140.4394  160.5426 H   0  0  0  0  0  0  0  0  0  0  0  0
  156.6127  139.7223  162.1135 H   0  0  0  0  0  0  0  0  0  0  0  0
  155.1390  140.6761  161.9247 H   0  0  0  0  0  0  0  0  0  0  0  0
  156.3682  138.1598  159.4316 H   0  0  0  0  0  0  0  0  0  0  0  0
  155.5490  136.7702  160.1517 H   0  0  0  0  0  0  0  0  0  0  0  0
  156.8641  137.5485  161.0127 H   0  0  0  0  0  0  0  0  0  0  0  0
  1  2  1  0  0  0  0
  1 22  1  0  0  0  0
  1 23  1  0  0  0  0
  1 24  1  0  0  0  0
  2  3  1  0  0  0  0
  2  4  2  0  0  0  0
  3 25  1  0  0  0  0
  3 26  1  0  0  0  0
  3 27  1  0  0  0  0
  4  5  1  0  0  0  0
  4 28  1  0  0  0  0
  5 19  1  0  0  0  0
  5  6  1  0  0  0  0
  5 29  1  0  0  0  0
  6  7  1  0  0  0  0
  6 19  1  0  0  0  0
  6 30  1  0  0  0  0
  7  8  2  0  0  0  0
  7  9  1  0  0  0  0
  9 10  1  0  0  0  0
  9 31  1  0  0  0  0
 10 11  1  0  0  0  0
 10 32  1  0  0  0  0
 10 33  1  0  0  0  0
 11 12  1  0  0  0  0
 11 13  1  0  0  0  0
 11 34  1  0  0  0  0
 12 35  1  0  0  0  0
 12 36  1  0  0  0  0
 12 37  1  0  0  0  0
 13 17  1  0  0  0  0
 13 14  2  0  0  0  0
 14 15  1  0  0  0  0
 15 16  2  0  0  0  0
 16 17  1  0  0  0  0
 16 38  1  0  0  0  0
 17 18  1  0  0  0  0
 18 39  1  0  0  0  0
 18 40  1  0  0  0  0
 18 41  1  0  0  0  0
 19 20  1  0  0  0  0
 19 21  1  0  0  0  0
 20 42  1  0  0  0  0
 20 43  1  0  0  0  0
 20 44  1  0  0  0  0
 21 45  1  0  0  0  0
 21 46  1  0  0  0  0
 21 47  1  0  0  0  0
M  END
> <s_m_source_file>
AV-unprocessed.smi

> <i_m_source_file_index>
2718

> <i_lp_mmshare_version>
43012

> <i_f3d_flags>
0

> <s_epik_input>
W0NIM11DKFtDSDNdKT1bQ0hdW0NAQEhdKEMxKFtDSDNdKVtDSDNdKVtDQEhdMUMoPU8pW05IXVtDSDJdW0NASF0oW0NIM10pYzJubltjSF1uMltDSDNd

> <s_epik_cmdline>
J2VwaWtfcHl0aG9uJywgJy1waCcsICc3LjAnLCAnLXRuJywgJzgnLCAnLW1hJywgJzIwMCcsICctbWV0YWxfYmluZGluZycsICctaW1hZScsICc8aW5maWxlLm1hZT4nLCAnLW9tYWUnLCAnPG91dGZpbGUubWFlPic=

> <r_lp_tautomer_probability>
1

> <r_epik_Ionization_Penalty>
0.000449586

> <r_epik_Ionization_Penalty_Charging>
0

> <r_epik_Ionization_Penalty_Neutral>
0.000449586

> <r_epik_State_Penalty>
0.000243372

> <r_epik_Charging_Adjusted_Penalty>
0.000243372

> <i_epik_Tot_Q>
0

> <i_epik_Tot_abs_Q>
0

> <r_epik_Metal_State_Penalty>
-0

> <b_epik_Metal_Only>
0

> <s_lp_Force_Field>
OPLS_2005

> <r_lp_Energy>
15.6704

> <b_lp_Chiralities_Consistent>
1

> <s_lp_Variant>
AV-unprocessed.smi:2718-7

> <Gold.Version>
5.8.1

> <Gold.Id.Protein>
6NUR|6NUR_protein|mol2

> <Gold.PLP.Fitness>
41.3902

> <Gold.PLP.PLP>
-34.7386

> <Gold.PLP.part.hbond>
-2.8625

> <Gold.PLP.part.metal>
0.0000

> <Gold.PLP.part.buried>
-2.8171

> <Gold.PLP.part.nonpolar>
-29.1800

> <Gold.PLP.part.repulsive>
0.3113

> <Gold.PLP.ligand.clash>
0.0000

> <Gold.PLP.ligand.torsion>
1.0283

> <Gold.PLP.Chemscore.Hbond>
1.7963

> <Gold.PLP.Chemscore.CHOScore>
1.0000

> <Gold.PLP.Chemscore.Metal>
0.0000

> <Gold.Chemscore.Hbonds>
donor molecule, donor type, donor heavy atom, donor atom, acceptor molecule, acceptor atom, score
      P1  H  6896  6909       L1     8  0.93
      P1  H  7989  7998       L1    14  0.99
      L1  C    16    38       P1  8028  1.00

> <Gold.PLP.Chemscore.Internal.Correction>
0.3195

> <Gold.Rescore>
     Score         DG    S(hbond)    S(metal)    S(lipo)     H(rot)  DE(clash)    DE(int)     intcor
     11.03     -13.50       1.00        0.00      82.78       1.95       0.01       2.46       ----

> <Gold.Chemscore.Fitness>
11.0294

> <Gold.Chemscore.DG>
-13.4994

> <Gold.Chemscore.ZeroCoef>
-5.4800

> <Gold.Chemscore.Hbond>
0.9986

> <Gold.Chemscore.Metal>
0.0000

> <Gold.Chemscore.Lipo>
82.7758

> <Gold.Chemscore.Internal_Hbond>
0.0000

> <Gold.Chemscore.DEClash>
0.0103

> <Gold.Chemscore.DEInternal>
2.4597

> <Gold.Chemscore.Rot>
1.9533

> <Gold.Chemscore.Internal.Correction>
   9.000000E+99

> <Gold.Chemscore.Hbonds>
donor molecule, donor type, donor heavy atom, donor atom, acceptor molecule, acceptor atom, score
      P1  H  6896  6909       L1     8  0.88
      P1  H  7989  7998       L1    14  0.13

> <Gold.Chemscore.Hbond.Weighted>
-3.3352

> <Gold.Chemscore.Metal.Weighted>
-0.0000

> <Gold.Chemscore.Lipo.Weighted>
-9.6848

> <Gold.Chemscore.Internal_Hbond.Weighted>
0.0000

> <Gold.Chemscore.DEClash.Weighted>
0.0103

> <Gold.Chemscore.DEInternal.Weighted>
2.4597

> <Gold.Chemscore.Rot.Weighted>
5.0005

> <Gold.Chemscore.Internal.Correction.Weighted>
   9.000000E+99

> <Gold.Protein.RotatedTorsions>
[ 6907 6896 6895 6894 ] final  151.04 input  -60.11 | X-H torsion
[ 7974 7965 7964 7962 ] final  160.20 input  175.53 | X-H torsion
[ 8008 7997 7996 7995 ] final  168.24 input   59.86 | X-H torsion
[ 10167 10162 10161 10158 ] final  120.75 input  -65.29 | X-H torsion
[ 10718 10713 10712 10709 ] final  -53.51 input   66.30 | X-H torsion
[ 10763 10752 10751 10750 ] final   96.79 input  -60.55 | X-H torsion
[ 11005 11000 10999 10996 ] final   83.27 input  -57.11 | X-H torsion

> <Gold.Protein.ActiveResidues>
 VAL166  LYS551  ARG553  GLY616  TRP617  ASP618  TYR619  PRO620  LYS621  CYS622 
 ASP623  PHE694  ASN695  SER759  ASP760  ASP761  ALA762  ILE779  LEU786  VAL792 
 PHE793  MET794  SER795  GLU796  ALA797  LYS798  CYS799  TRP800  GLU811  SER814 

> <Gold.Protein.RotatedAtoms>
  152.1061  133.4275  159.4608 H   0  0  0  0  0  0  0  0  0  0  0  0  # atno 6907 bound_to 6896
  150.6865  134.2703  159.4595 H   0  0  0  0  0  0  0  0  0  0  0  0  # atno 6908 bound_to 6896
  152.0568  134.9619  160.0625 H   0  0  0  0  0  0  0  0  0  0  0  0  # atno 6909 bound_to 6896
  144.7749  139.7724  143.6282 H   0  0  0  0  0  0  0  0  0  0  0  0  # atno 7974 bound_to 7965
  156.1564  140.1595  156.8685 H   0  0  0  0  0  0  0  0  0  0  0  0  # atno 8008 bound_to 7997
  154.5119  140.0799  156.8042 H   0  0  0  0  0  0  0  0  0  0  0  0  # atno 8009 bound_to 7997
  155.3795  140.3404  155.4248 H   0  0  0  0  0  0  0  0  0  0  0  0  # atno 8010 bound_to 7997
  139.5962  144.7042  151.3170 H   0  0  0  0  0  0  0  0  0  0  0  0  # atno 10167 bound_to 10162
  156.1529  130.4151  149.9915 H   0  0  0  0  0  0  0  0  0  0  0  0  # atno 10718 bound_to 10713
  153.2692  135.4206  155.0970 H   0  0  0  0  0  0  0  0  0  0  0  0  # atno 10763 bound_to 10752
  154.8449  135.3468  154.6269 H   0  0  0  0  0  0  0  0  0  0  0  0  # atno 10764 bound_to 10752
  153.6688  135.7044  153.5211 H   0  0  0  0  0  0  0  0  0  0  0  0  # atno 10765 bound_to 10752
  139.9036  134.8132  156.2287 H   0  0  0  0  0  0  0  0  0  0  0  0  # atno 11005 bound_to 11000
  146.1922  139.5169  142.9797 LP  0  0  0  0  0  0  0  0  0  0  0  0  # atno 17320 bound_to 7965
  145.6214  141.0322  143.1913 LP  0  0  0  0  0  0  0  0  0  0  0  0  # atno 17321 bound_to 7965
  140.7214  143.7126  150.7758 LP  0  0  0  0  0  0  0  0  0  0  0  0  # atno 17342 bound_to 10162
  140.0692  143.5077  152.2588 LP  0  0  0  0  0  0  0  0  0  0  0  0  # atno 17343 bound_to 10162
  156.7768  130.9206  151.3645 LP  0  0  0  0  0  0  0  0  0  0  0  0  # atno 17370 bound_to 10713
  157.6672  130.9018  149.9958 LP  0  0  0  0  0  0  0  0  0  0  0  0  # atno 17371 bound_to 10713
  141.0359  133.6963  156.1512 LP  0  0  0  0  0  0  0  0  0  0  0  0  # atno 17394 bound_to 11000
  140.7027  134.4546  157.5585 LP  0  0  0  0  0  0  0  0  0  0  0  0  # atno 17395 bound_to 11000

$$$$
