AV-unprocessed.smi:1978|AV-procd|sdf|8005|dock4
  -GOLD-   2272010193D 1   1.00000     0.00000
 Structure written by MMmdl.
 44 45  0  0  0  0  0  0  0  0  3 V2000
  146.5059  136.1304  162.8015 C   0  0  0  0  0  0  0  0  0  0  0  0
  147.3787  136.0058  161.5997 C   0  0  0  0  0  0  0  0  0  0  0  0
  147.6017  134.9872  160.7171 C   0  0  0  0  0  0  0  0  0  0  0  0
  148.5544  135.5396  159.8179 C   0  0  0  0  0  0  0  0  0  0  0  0
  149.0861  134.9205  158.7527 N   0  5  0  0  0  0  0  0  0  0  0  0
  148.3012  134.1933  157.9256 C   0  0  0  0  0  0  0  0  0  0  0  0
  147.5898  133.2365  158.2401 O   0  0  0  0  0  0  0  0  0  0  0  0
  148.3423  134.6012  156.6511 N   0  0  0  0  0  0  0  0  0  0  0  0
  147.6002  133.9978  155.5522 C   0  0  0  0  0  0  0  0  0  0  0  0
  148.2542  134.3209  154.1891 C   0  0  1  0  0  0  0  0  0  0  0  0
  149.5280  133.4894  153.9303 C   0  0  0  0  0  0  0  0  0  0  0  0
  147.2933  134.2275  153.0425 N   0  3  1  0  0  0  0  0  0  0  0  0
  147.0327  132.8306  152.5852 C   0  0  0  0  0  0  0  0  0  0  0  0
  146.2737  132.8100  151.2503 C   0  0  0  0  0  0  0  0  0  0  0  0
  144.9537  133.5749  151.3691 C   0  0  0  0  0  0  0  0  0  0  0  0
  145.2268  134.9971  151.8689 C   0  0  0  0  0  0  0  0  0  0  0  0
  146.0142  134.9985  153.1976 C   0  0  2  0  0  0  0  0  0  0  0  0
  146.2197  136.4561  153.6579 C   0  0  0  0  0  0  0  0  0  0  0  0
  148.8679  136.7889  160.1176 N   0  0  0  0  0  0  0  0  0  0  0  0
  148.1232  137.0934  161.2634 O   0  0  0  0  0  0  0  0  0  0  0  0
  145.4542  136.1161  162.5162 H   0  0  0  0  0  0  0  0  0  0  0  0
  146.6991  137.0623  163.3337 H   0  0  0  0  0  0  0  0  0  0  0  0
  146.6812  135.3055  163.4921 H   0  0  0  0  0  0  0  0  0  0  0  0
  147.1578  134.0031  160.7160 H   0  0  0  0  0  0  0  0  0  0  0  0
  148.9377  135.3868  156.4328 H   0  0  0  0  0  0  0  0  0  0  0  0
  147.5588  132.9202  155.7145 H   0  0  0  0  0  0  0  0  0  0  0  0
  146.5756  134.3689  155.5876 H   0  0  0  0  0  0  0  0  0  0  0  0
  148.6196  135.3450  154.2322 H   0  0  0  0  0  0  0  0  0  0  0  0
  150.3207  133.7580  154.6290 H   0  0  0  0  0  0  0  0  0  0  0  0
  149.9157  133.6633  152.9262 H   0  0  0  0  0  0  0  0  0  0  0  0
  149.3546  132.4199  154.0468 H   0  0  0  0  0  0  0  0  0  0  0  0
  147.9628  132.2818  152.4497 H   0  0  0  0  0  0  0  0  0  0  0  0
  146.4569  132.2929  153.3395 H   0  0  0  0  0  0  0  0  0  0  0  0
  146.8904  133.2547  150.4678 H   0  0  0  0  0  0  0  0  0  0  0  0
  146.0809  131.7807  150.9462 H   0  0  0  0  0  0  0  0  0  0  0  0
  144.4446  133.6034  150.4051 H   0  0  0  0  0  0  0  0  0  0  0  0
  144.2868  133.0597  152.0616 H   0  0  0  0  0  0  0  0  0  0  0  0
  145.7846  135.5477  151.1098 H   0  0  0  0  0  0  0  0  0  0  0  0
  144.2785  135.5213  151.9933 H   0  0  0  0  0  0  0  0  0  0  0  0
  145.4009  134.4963  153.9470 H   0  0  0  0  0  0  0  0  0  0  0  0
  145.2814  137.0104  153.6235 H   0  0  0  0  0  0  0  0  0  0  0  0
  146.9332  136.9794  153.0205 H   0  0  0  0  0  0  0  0  0  0  0  0
  146.5687  136.5168  154.6885 H   0  0  0  0  0  0  0  0  0  0  0  0
  147.7742  134.6748  152.2755 H   0  0  0  0  0  0  0  0  0  0  0  0
  1  2  1  0  0  0  0
  1 21  1  0  0  0  0
  1 22  1  0  0  0  0
  1 23  1  0  0  0  0
  2 20  1  0  0  0  0
  2  3  2  0  0  0  0
  3  4  1  0  0  0  0
  3 24  1  0  0  0  0
  4  5  1  0  0  0  0
  4 19  2  0  0  0  0
  5  6  1  0  0  0  0
  6  7  2  0  0  0  0
  6  8  1  0  0  0  0
  8  9  1  0  0  0  0
  8 25  1  0  0  0  0
  9 10  1  0  0  0  0
  9 26  1  0  0  0  0
  9 27  1  0  0  0  0
 10 11  1  0  0  0  0
 10 12  1  0  0  0  0
 10 28  1  0  0  0  0
 11 29  1  0  0  0  0
 11 30  1  0  0  0  0
 11 31  1  0  0  0  0
 12 17  1  0  0  0  0
 12 13  1  0  0  0  0
 12 44  1  0  0  0  0
 13 14  1  0  0  0  0
 13 32  1  0  0  0  0
 13 33  1  0  0  0  0
 14 15  1  0  0  0  0
 14 34  1  0  0  0  0
 14 35  1  0  0  0  0
 15 16  1  0  0  0  0
 15 36  1  0  0  0  0
 15 37  1  0  0  0  0
 16 17  1  0  0  0  0
 16 38  1  0  0  0  0
 16 39  1  0  0  0  0
 17 18  1  0  0  0  0
 17 40  1  0  0  0  0
 18 41  1  0  0  0  0
 18 42  1  0  0  0  0
 18 43  1  0  0  0  0
 19 20  1  0  0  0  0
M  CHG  1   5  -1
M  CHG  1  12   1
M  END
> <s_m_source_file>
AV-unprocessed.smi

> <i_m_source_file_index>
1978

> <i_lp_mmshare_version>
43012

> <i_f3d_flags>
0

> <s_epik_input>
W0NIM11jMVtjSF1jKG5vMSlbTkhdQyg9TylbTkhdW0NIMl1bQ0BIXShbQ0gzXSlOMltDSDJdW0NIMl1bQ0gyXVtDSDJdW0NASF0yW0NIM10=

> <s_epik_cmdline>
J2VwaWtfcHl0aG9uJywgJy1waCcsICc3LjAnLCAnLXRuJywgJzgnLCAnLW1hJywgJzIwMCcsICctbWV0YWxfYmluZGluZycsICctaW1hZScsICc8aW5maWxlLm1hZT4nLCAnLW9tYWUnLCAnPG91dGZpbGUubWFlPic=

> <r_epik_Ionization_Penalty>
6.22372

> <r_epik_Ionization_Penalty_Charging>
6.22362

> <r_epik_Ionization_Penalty_Neutral>
9.65074e-05

> <r_epik_State_Penalty>
6.22363

> <r_epik_Charging_Adjusted_Penalty>
12.4472

> <i_epik_Tot_Q>
0

> <i_epik_Tot_abs_Q>
2

> <r_epik_Metal_State_Penalty>
2.16675

> <b_epik_Metal_Only>
1

> <s_lp_Force_Field>
OPLS_2005

> <r_lp_Energy>
11.9993

> <b_lp_Chiralities_Consistent>
1

> <s_lp_Variant>
AV-unprocessed.smi:1978-14

> <Gold.Version>
5.8.1

> <Gold.Id.Protein>
6NUR|6NUR_protein|mol2

> <Gold.PLP.Fitness>
40.3297

> <Gold.PLP.PLP>
-26.8071

> <Gold.PLP.part.hbond>
-4.8700

> <Gold.PLP.part.metal>
0.0000

> <Gold.PLP.part.buried>
-1.5968

> <Gold.PLP.part.nonpolar>
-20.1151

> <Gold.PLP.part.repulsive>
0.0192

> <Gold.PLP.ligand.clash>
0.0000

> <Gold.PLP.ligand.torsion>
1.3754

> <Gold.PLP.Chemscore.Hbond>
5.3783

> <Gold.PLP.Chemscore.CHOScore>
0.0000

> <Gold.PLP.Chemscore.Metal>
0.0000

> <Gold.Chemscore.Hbonds>
donor molecule, donor type, donor heavy atom, donor atom, acceptor molecule, acceptor atom, score
      L1  H    12    44       P1  7948  1.73
      P1  H  6896  6909       L1     5  2.00
      P1  H  6931  6943       L1    20  1.00
      P1  H  6934  6947       L1    20  0.44

> <Gold.PLP.Chemscore.Internal.Correction>
0.1386

> <Gold.Rescore>
     Score         DG    S(hbond)    S(metal)    S(lipo)     H(rot)  DE(clash)    DE(int)     intcor
     12.44     -14.78       1.78        0.00      61.92       1.52       0.12       2.22       ----

> <Gold.Chemscore.Fitness>
12.4450

> <Gold.Chemscore.DG>
-14.7830

> <Gold.Chemscore.ZeroCoef>
-5.4800

> <Gold.Chemscore.Hbond>
1.7804

> <Gold.Chemscore.Metal>
0.0000

> <Gold.Chemscore.Lipo>
61.9239

> <Gold.Chemscore.Internal_Hbond>
0.0000

> <Gold.Chemscore.DEClash>
0.1179

> <Gold.Chemscore.DEInternal>
2.2202

> <Gold.Chemscore.Rot>
1.5190

> <Gold.Chemscore.Internal.Correction>
   9.000000E+99

> <Gold.Chemscore.Hbonds>
donor molecule, donor type, donor heavy atom, donor atom, acceptor molecule, acceptor atom, score
      L1  H    12    44       P1  7948  0.55
      P1  H  6896  6909       L1     5  0.47
      P1  H  6931  6943       L1    20  0.25
      P1  H  6934  6947       L1    20  0.26

> <Gold.Chemscore.Hbond.Weighted>
-5.9466

> <Gold.Chemscore.Metal.Weighted>
-0.0000

> <Gold.Chemscore.Lipo.Weighted>
-7.2451

> <Gold.Chemscore.Internal_Hbond.Weighted>
0.0000

> <Gold.Chemscore.DEClash.Weighted>
0.1179

> <Gold.Chemscore.DEInternal.Weighted>
2.2202

> <Gold.Chemscore.Rot.Weighted>
3.8886

> <Gold.Chemscore.Internal.Correction.Weighted>
   9.000000E+99

> <Gold.Protein.RotatedTorsions>
[ 6907 6896 6895 6894 ] final   21.74 input  -60.11 | X-H torsion
[ 7974 7965 7964 7962 ] final   34.55 input  175.53 | X-H torsion
[ 8008 7997 7996 7995 ] final   70.26 input   59.86 | X-H torsion
[ 10167 10162 10161 10158 ] final  -79.30 input  -65.29 | X-H torsion
[ 10718 10713 10712 10709 ] final  -43.81 input   66.30 | X-H torsion
[ 10763 10752 10751 10750 ] final   59.17 input  -60.55 | X-H torsion
[ 11005 11000 10999 10996 ] final   93.96 input  -57.11 | X-H torsion

> <Gold.Protein.ActiveResidues>
 VAL166  LYS551  ARG553  GLY616  TRP617  ASP618  TYR619  PRO620  LYS621  CYS622 
 ASP623  PHE694  ASN695  SER759  ASP760  ASP761  ALA762  ILE779  LEU786  VAL792 
 PHE793  MET794  SER795  GLU796  ALA797  LYS798  CYS799  TRP800  GLU811  SER814 

> <Gold.Protein.RotatedAtoms>
  151.9164  135.0317  160.0518 H   0  0  0  0  0  0  0  0  0  0  0  0  # atno 6907 bound_to 6896
  152.2236  133.4998  159.5185 H   0  0  0  0  0  0  0  0  0  0  0  0  # atno 6908 bound_to 6896
  150.7006  134.1226  159.4083 H   0  0  0  0  0  0  0  0  0  0  0  0  # atno 6909 bound_to 6896
  146.1345  139.6255  142.9204 H   0  0  0  0  0  0  0  0  0  0  0  0  # atno 7974 bound_to 7965
  155.7361  140.3491  155.5082 H   0  0  0  0  0  0  0  0  0  0  0  0  # atno 8008 bound_to 7997
  155.9137  140.1055  157.1281 H   0  0  0  0  0  0  0  0  0  0  0  0  # atno 8009 bound_to 7997
  154.4059  140.1263  156.4577 H   0  0  0  0  0  0  0  0  0  0  0  0  # atno 8010 bound_to 7997
  140.4606  143.2455  151.8355 H   0  0  0  0  0  0  0  0  0  0  0  0  # atno 10167 bound_to 10162
  156.2451  130.4183  149.8715 H   0  0  0  0  0  0  0  0  0  0  0  0  # atno 10718 bound_to 10713
  152.9888  135.5581  154.5670 H   0  0  0  0  0  0  0  0  0  0  0  0  # atno 10763 bound_to 10752
  154.5078  135.2800  155.1370 H   0  0  0  0  0  0  0  0  0  0  0  0  # atno 10764 bound_to 10752
  154.2774  135.6351  153.5386 H   0  0  0  0  0  0  0  0  0  0  0  0  # atno 10765 bound_to 10752
  139.8804  134.8819  156.3794 H   0  0  0  0  0  0  0  0  0  0  0  0  # atno 11005 bound_to 11000
  145.5187  141.0433  143.2447 LP  0  0  0  0  0  0  0  0  0  0  0  0  # atno 17320 bound_to 7965
  144.7725  139.6703  143.7189 LP  0  0  0  0  0  0  0  0  0  0  0  0  # atno 17321 bound_to 7965
  139.4806  144.5013  151.9057 LP  0  0  0  0  0  0  0  0  0  0  0  0  # atno 17342 bound_to 10162
  140.4098  144.2383  150.5889 LP  0  0  0  0  0  0  0  0  0  0  0  0  # atno 17343 bound_to 10162
  156.6283  130.8655  151.3490 LP  0  0  0  0  0  0  0  0  0  0  0  0  # atno 17370 bound_to 10713
  157.7191  130.9536  150.1370 LP  0  0  0  0  0  0  0  0  0  0  0  0  # atno 17371 bound_to 10713
  140.9409  133.7515  156.0145 LP  0  0  0  0  0  0  0  0  0  0  0  0  # atno 17394 bound_to 11000
  140.8220  134.3278  157.5378 LP  0  0  0  0  0  0  0  0  0  0  0  0  # atno 17395 bound_to 11000

$$$$
