AV-unprocessed.smi:2977|AV-procd|sdf|11367|dock10
  -GOLD-   2272016283D 1   1.00000     0.00000
 Structure written by MMmdl.
 38 39  0  0  0  0  0  0  0  0  1 V2000
  148.0564  137.8993  157.8210 O   0  0  0  0  0  0  0  0  0  0  0  0
  149.1677  137.9907  158.3429 C   0  0  0  0  0  0  0  0  0  0  0  0
  149.7746  136.7893  159.0775 C   0  0  0  0  0  0  0  0  0  0  0  0
  148.7879  136.1137  159.9307 N   0  0  0  0  0  0  0  0  0  0  0  0
  148.2834  136.9006  160.9514 N   0  0  0  0  0  0  0  0  0  0  0  0
  147.3857  136.4172  161.7391 C   0  0  0  0  0  0  0  0  0  0  0  0
  146.8842  135.0674  161.6003 C   0  0  0  0  0  0  0  0  0  0  0  0
  145.6775  134.4748  162.6863 Cl  0  0  0  0  0  0  0  0  0  0  0  0
  147.3952  134.3007  160.6044 C   0  0  0  0  0  0  0  0  0  0  0  0
  146.8503  132.6741  160.3786 Cl  0  0  0  0  0  0  0  0  0  0  0  0
  148.4217  134.8175  159.6892 C   0  0  0  0  0  0  0  0  0  0  0  0
  148.9177  134.1516  158.7797 O   0  0  0  0  0  0  0  0  0  0  0  0
  149.9018  139.1132  158.3256 N   0  0  0  0  0  0  0  0  0  0  0  0
  149.5167  140.3667  157.6830 C   0  0  0  0  0  0  0  0  0  0  0  0
  150.7055  141.1361  157.0681 C   0  0  0  0  0  0  0  0  0  0  0  0
  151.3170  142.1837  157.9874 C   0  0  0  0  0  0  0  0  0  0  0  0
  151.7214  141.8859  159.2379 C   0  0  0  0  0  0  0  0  0  0  0  0
  152.3267  142.8914  160.2010 C   0  0  0  0  0  0  0  0  0  0  0  0
  152.1101  144.3435  159.7436 C   0  0  0  0  0  0  0  0  0  0  0  0
  152.3734  144.4951  158.2403 C   0  0  0  0  0  0  0  0  0  0  0  0
  151.4440  143.5893  157.4121 C   0  0  0  0  0  0  0  0  0  0  0  0
  150.2112  136.0858  158.3655 H   0  0  0  0  0  0  0  0  0  0  0  0
  150.6111  137.1485  159.6794 H   0  0  0  0  0  0  0  0  0  0  0  0
  146.9554  137.0005  162.5533 H   0  0  0  0  0  0  0  0  0  0  0  0
  150.8026  139.0952  158.7815 H   0  0  0  0  0  0  0  0  0  0  0  0
  148.7606  140.1723  156.9211 H   0  0  0  0  0  0  0  0  0  0  0  0
  149.0344  140.9865  158.4391 H   0  0  0  0  0  0  0  0  0  0  0  0
  151.4795  140.4260  156.7745 H   0  0  0  0  0  0  0  0  0  0  0  0
  150.3872  141.6241  156.1466 H   0  0  0  0  0  0  0  0  0  0  0  0
  151.6294  140.8746  159.6060 H   0  0  0  0  0  0  0  0  0  0  0  0
  151.8954  142.7455  161.1910 H   0  0  0  0  0  0  0  0  0  0  0  0
  153.3923  142.6775  160.2852 H   0  0  0  0  0  0  0  0  0  0  0  0
  151.0844  144.6459  159.9582 H   0  0  0  0  0  0  0  0  0  0  0  0
  152.7543  145.0136  160.3133 H   0  0  0  0  0  0  0  0  0  0  0  0
  152.2476  145.5343  157.9359 H   0  0  0  0  0  0  0  0  0  0  0  0
  153.4126  144.2367  158.0323 H   0  0  0  0  0  0  0  0  0  0  0  0
  151.8106  143.5322  156.3867 H   0  0  0  0  0  0  0  0  0  0  0  0
  150.4466  144.0278  157.3673 H   0  0  0  0  0  0  0  0  0  0  0  0
  1  2  2  0  0  0  0
  2  3  1  0  0  0  0
  2 13  1  0  0  0  0
  3  4  1  0  0  0  0
  3 22  1  0  0  0  0
  3 23  1  0  0  0  0
  4 11  1  0  0  0  0
  4  5  1  0  0  0  0
  5  6  2  0  0  0  0
  6  7  1  0  0  0  0
  6 24  1  0  0  0  0
  7  8  1  0  0  0  0
  7  9  2  0  0  0  0
  9 10  1  0  0  0  0
  9 11  1  0  0  0  0
 11 12  2  0  0  0  0
 13 14  1  0  0  0  0
 13 25  1  0  0  0  0
 14 15  1  0  0  0  0
 14 26  1  0  0  0  0
 14 27  1  0  0  0  0
 15 16  1  0  0  0  0
 15 28  1  0  0  0  0
 15 29  1  0  0  0  0
 16 21  1  0  0  0  0
 16 17  2  0  0  0  0
 17 18  1  0  0  0  0
 17 30  1  0  0  0  0
 18 19  1  0  0  0  0
 18 31  1  0  0  0  0
 18 32  1  0  0  0  0
 19 20  1  0  0  0  0
 19 33  1  0  0  0  0
 19 34  1  0  0  0  0
 20 21  1  0  0  0  0
 20 35  1  0  0  0  0
 20 36  1  0  0  0  0
 21 37  1  0  0  0  0
 21 38  1  0  0  0  0
M  END
> <s_m_source_file>
AV-unprocessed.smi

> <i_m_source_file_index>
2977

> <i_lp_mmshare_version>
43012

> <i_f3d_flags>
0

> <s_epik_input>
Tz1jMWMoQ2wpYyhDbClbY0hdbm4xW0NIMl1DKD1PKVtOSF1bQ0gyXVtDSDJdQzI9W0NIXVtDSDJdW0NIMl1bQ0gyXVtDSDJdMg==

> <s_epik_cmdline>
J2VwaWtfcHl0aG9uJywgJy1waCcsICc3LjAnLCAnLXRuJywgJzgnLCAnLW1hJywgJzIwMCcsICctbWV0YWxfYmluZGluZycsICctaW1hZScsICc8aW5maWxlLm1hZT4nLCAnLW9tYWUnLCAnPG91dGZpbGUubWFlPic=

> <r_lp_tautomer_probability>
1

> <r_epik_Ionization_Penalty>
1.81325e-08

> <r_epik_Ionization_Penalty_Charging>
2.89782e-11

> <r_epik_Ionization_Penalty_Neutral>
1.81035e-08

> <r_epik_State_Penalty>
-0

> <r_epik_Charging_Adjusted_Penalty>
2.89782e-11

> <i_epik_Tot_Q>
0

> <i_epik_Tot_abs_Q>
0

> <r_epik_Metal_State_Penalty>
-0

> <b_epik_Metal_Only>
0

> <s_lp_Force_Field>
OPLS_2005

> <r_lp_Energy>
20.3958

> <b_lp_Chiralities_Consistent>
1

> <s_lp_Variant>
AV-unprocessed.smi:2977-1

> <Gold.Version>
5.8.1

> <Gold.Id.Protein>
6NUR|6NUR_protein|mol2

> <Gold.PLP.Fitness>
47.9495

> <Gold.PLP.PLP>
-42.6481

> <Gold.PLP.part.hbond>
-2.8667

> <Gold.PLP.part.metal>
0.0000

> <Gold.PLP.part.buried>
-3.0182

> <Gold.PLP.part.nonpolar>
-37.2579

> <Gold.PLP.part.repulsive>
0.1952

> <Gold.PLP.ligand.clash>
0.0000

> <Gold.PLP.ligand.torsion>
0.6645

> <Gold.PLP.Chemscore.Hbond>
2.1965

> <Gold.PLP.Chemscore.CHOScore>
0.0000

> <Gold.PLP.Chemscore.Metal>
0.0000

> <Gold.Chemscore.Hbonds>
donor molecule, donor type, donor heavy atom, donor atom, acceptor molecule, acceptor atom, score
      P1  H  6896  6907       L1    12  1.00
      P1  H  6931  6943       L1     5  1.00
      P1  H  6934  6947       L1     5  0.05

> <Gold.PLP.Chemscore.Internal.Correction>
0.0409

> <Gold.Rescore>
     Score         DG    S(hbond)    S(metal)    S(lipo)     H(rot)  DE(clash)    DE(int)     intcor
     19.59     -20.33       1.84        0.00     115.69       1.89       0.03       0.71       ----

> <Gold.Chemscore.Fitness>
19.5914

> <Gold.Chemscore.DG>
-20.3325

> <Gold.Chemscore.ZeroCoef>
-5.4800

> <Gold.Chemscore.Hbond>
1.8440

> <Gold.Chemscore.Metal>
0.0000

> <Gold.Chemscore.Lipo>
115.6911

> <Gold.Chemscore.Internal_Hbond>
0.0000

> <Gold.Chemscore.DEClash>
0.0320

> <Gold.Chemscore.DEInternal>
0.7091

> <Gold.Chemscore.Rot>
1.8916

> <Gold.Chemscore.Internal.Correction>
   9.000000E+99

> <Gold.Chemscore.Hbonds>
donor molecule, donor type, donor heavy atom, donor atom, acceptor molecule, acceptor atom, score
      P1  H  6896  6907       L1    12  0.26
      P1  H  6931  6943       L1     5  0.48

> <Gold.Chemscore.Hbond.Weighted>
-6.1591

> <Gold.Chemscore.Metal.Weighted>
-0.0000

> <Gold.Chemscore.Lipo.Weighted>
-13.5359

> <Gold.Chemscore.Internal_Hbond.Weighted>
0.0000

> <Gold.Chemscore.DEClash.Weighted>
0.0320

> <Gold.Chemscore.DEInternal.Weighted>
0.7091

> <Gold.Chemscore.Rot.Weighted>
4.8425

> <Gold.Chemscore.Internal.Correction.Weighted>
   9.000000E+99

> <Gold.Protein.RotatedTorsions>
[ 6907 6896 6895 6894 ] final -101.56 input  -60.11 | X-H torsion
[ 7974 7965 7964 7962 ] final  145.31 input  175.53 | X-H torsion
[ 8008 7997 7996 7995 ] final  144.71 input   59.86 | X-H torsion
[ 10167 10162 10161 10158 ] final -177.77 input  -65.29 | X-H torsion
[ 10718 10713 10712 10709 ] final    7.61 input   66.30 | X-H torsion
[ 10763 10752 10751 10750 ] final  -91.76 input  -60.55 | X-H torsion
[ 11005 11000 10999 10996 ] final  175.64 input  -57.11 | X-H torsion

> <Gold.Protein.ActiveResidues>
 VAL166  LYS551  ARG553  GLY616  TRP617  ASP618  TYR619  PRO620  LYS621  CYS622 
 ASP623  PHE694  ASN695  SER759  ASP760  ASP761  ALA762  ILE779  LEU786  VAL792 
 PHE793  MET794  SER795  GLU796  ALA797  LYS798  CYS799  TRP800  GLU811  SER814 

> <Gold.Protein.RotatedAtoms>
  150.7160  134.0715  159.3865 H   0  0  0  0  0  0  0  0  0  0  0  0  # atno 6907 bound_to 6896
  151.8697  135.0491  160.0487 H   0  0  0  0  0  0  0  0  0  0  0  0  # atno 6908 bound_to 6896
  152.2652  133.5297  159.5442 H   0  0  0  0  0  0  0  0  0  0  0  0  # atno 6909 bound_to 6896
  144.8763  139.5767  143.5863 H   0  0  0  0  0  0  0  0  0  0  0  0  # atno 7974 bound_to 7965
  156.2901  140.2228  156.5097 H   0  0  0  0  0  0  0  0  0  0  0  0  # atno 8008 bound_to 7997
  154.7619  140.0472  157.1002 H   0  0  0  0  0  0  0  0  0  0  0  0  # atno 8009 bound_to 7997
  154.9980  140.3098  155.4882 H   0  0  0  0  0  0  0  0  0  0  0  0  # atno 8010 bound_to 7997
  139.5464  144.2224  152.0996 H   0  0  0  0  0  0  0  0  0  0  0  0  # atno 10167 bound_to 10162
  156.9394  130.5855  149.5652 H   0  0  0  0  0  0  0  0  0  0  0  0  # atno 10718 bound_to 10713
  154.6793  135.5256  153.8241 H   0  0  0  0  0  0  0  0  0  0  0  0  # atno 10763 bound_to 10752
  153.0554  135.6548  154.0601 H   0  0  0  0  0  0  0  0  0  0  0  0  # atno 10764 bound_to 10752
  154.0490  135.2971  155.3323 H   0  0  0  0  0  0  0  0  0  0  0  0  # atno 10765 bound_to 10752
  140.3644  134.7085  157.4352 H   0  0  0  0  0  0  0  0  0  0  0  0  # atno 11005 bound_to 11000
  146.2965  139.7293  142.9123 LP  0  0  0  0  0  0  0  0  0  0  0  0  # atno 17320 bound_to 7965
  145.4036  141.0388  143.3056 LP  0  0  0  0  0  0  0  0  0  0  0  0  # atno 17321 bound_to 7965
  140.1711  144.4935  150.6579 LP  0  0  0  0  0  0  0  0  0  0  0  0  # atno 17342 bound_to 10162
  140.6714  143.2287  151.5616 LP  0  0  0  0  0  0  0  0  0  0  0  0  # atno 17343 bound_to 10162
  156.0411  130.5493  150.8773 LP  0  0  0  0  0  0  0  0  0  0  0  0  # atno 17370 bound_to 10713
  157.5795  131.0946  150.9293 LP  0  0  0  0  0  0  0  0  0  0  0  0  # atno 17371 bound_to 10713
  140.0601  134.6008  155.8759 LP  0  0  0  0  0  0  0  0  0  0  0  0  # atno 17394 bound_to 11000
  141.1974  133.6596  156.5740 LP  0  0  0  0  0  0  0  0  0  0  0  0  # atno 17395 bound_to 11000

$$$$
