AV-unprocessed.smi:2274|AV-procd|sdf|9169|dock7
  -GOLD-   2272012383D 1   1.00000     0.00000
 Structure written by MMmdl.
 47 48  0  0  0  0  0  0  0  0  1 V2000
  150.9962  142.1176  157.3747 C   0  0  0  0  0  0  0  0  0  0  0  0
  150.4669  142.2378  155.9364 C   0  0  0  0  0  0  0  0  0  0  0  0
  150.2202  140.9519  155.2946 N   0  0  0  0  0  0  0  0  0  0  0  0
  151.2401  140.0650  155.1706 N   0  0  0  0  0  0  0  0  0  0  0  0
  150.7371  139.0322  154.5168 C   0  0  0  0  0  0  0  0  0  0  0  0
  151.6084  137.8488  154.2086 C   0  0  0  0  0  0  0  0  0  0  0  0
  149.3665  139.2463  154.2166 C   0  0  0  0  0  0  0  0  0  0  0  0
  148.5539  138.3386  153.4921 N   0  0  0  0  0  0  0  0  0  0  0  0
  147.2170  138.2376  153.5462 C   0  0  0  0  0  0  0  0  0  0  0  0
  146.4887  138.9155  154.2711 O   0  0  0  0  0  0  0  0  0  0  0  0
  146.7649  137.2864  152.7175 N   0  0  0  0  0  0  0  0  0  0  0  0
  145.3621  136.9344  152.5315 C   0  0  0  0  0  0  0  0  0  0  0  0
  145.1568  136.0722  151.2736 C   0  0  0  0  0  0  0  0  0  0  0  0
  145.0967  134.5679  151.5814 C   0  0  1  0  0  0  0  0  0  0  0  0
  144.3174  133.7909  150.5020 C   0  0  0  0  0  0  0  0  0  0  0  0
  144.3466  132.2862  150.7931 C   0  0  0  0  0  0  0  0  0  0  0  0
  145.7962  131.8246  150.9734 C   0  0  0  0  0  0  0  0  0  0  0  0
  146.5051  132.6949  152.0228 C   0  0  0  0  0  0  0  0  0  0  0  0
  146.4308  134.0663  151.6452 O   0  0  0  0  0  0  0  0  0  0  0  0
  149.0634  140.5024  154.6729 C   0  0  0  0  0  0  0  0  0  0  0  0
  147.8248  141.3388  154.5746 C   0  0  0  0  0  0  0  0  0  0  0  0
  151.1005  143.1028  157.8293 H   0  0  0  0  0  0  0  0  0  0  0  0
  151.9758  141.6397  157.4056 H   0  0  0  0  0  0  0  0  0  0  0  0
  150.3161  141.5354  157.9971 H   0  0  0  0  0  0  0  0  0  0  0  0
  149.5374  142.8066  155.9536 H   0  0  0  0  0  0  0  0  0  0  0  0
  151.1715  142.7973  155.3203 H   0  0  0  0  0  0  0  0  0  0  0  0
  151.1606  137.2128  153.4450 H   0  0  0  0  0  0  0  0  0  0  0  0
  151.7643  137.2386  155.0983 H   0  0  0  0  0  0  0  0  0  0  0  0
  152.5866  138.1624  153.8433 H   0  0  0  0  0  0  0  0  0  0  0  0
  149.0427  137.6373  152.9552 H   0  0  0  0  0  0  0  0  0  0  0  0
  147.4385  136.7754  152.1659 H   0  0  0  0  0  0  0  0  0  0  0  0
  145.0354  136.3890  153.4171 H   0  0  0  0  0  0  0  0  0  0  0  0
  144.7524  137.8379  152.4811 H   0  0  0  0  0  0  0  0  0  0  0  0
  144.2288  136.3708  150.7842 H   0  0  0  0  0  0  0  0  0  0  0  0
  145.9562  136.2665  150.5573 H   0  0  0  0  0  0  0  0  0  0  0  0
  144.6119  134.4252  152.5491 H   0  0  0  0  0  0  0  0  0  0  0  0
  143.2854  134.1402  150.4542 H   0  0  0  0  0  0  0  0  0  0  0  0
  144.7572  133.9802  149.5219 H   0  0  0  0  0  0  0  0  0  0  0  0
  143.7782  132.0755  151.6999 H   0  0  0  0  0  0  0  0  0  0  0  0
  143.8674  131.7318  149.9857 H   0  0  0  0  0  0  0  0  0  0  0  0
  145.8252  130.7752  151.2680 H   0  0  0  0  0  0  0  0  0  0  0  0
  146.3254  131.8985  150.0227 H   0  0  0  0  0  0  0  0  0  0  0  0
  146.0622  132.5544  153.0101 H   0  0  0  0  0  0  0  0  0  0  0  0
  147.5537  132.4076  152.1015 H   0  0  0  0  0  0  0  0  0  0  0  0
  147.2068  141.0292  153.7323 H   0  0  0  0  0  0  0  0  0  0  0  0
  148.0669  142.3901  154.4200 H   0  0  0  0  0  0  0  0  0  0  0  0
  147.2282  141.2554  155.4832 H   0  0  0  0  0  0  0  0  0  0  0  0
  1  2  1  0  0  0  0
  1 22  1  0  0  0  0
  1 23  1  0  0  0  0
  1 24  1  0  0  0  0
  2  3  1  0  0  0  0
  2 25  1  0  0  0  0
  2 26  1  0  0  0  0
  3 20  1  0  0  0  0
  3  4  1  0  0  0  0
  4  5  2  0  0  0  0
  5  6  1  0  0  0  0
  5  7  1  0  0  0  0
  6 27  1  0  0  0  0
  6 28  1  0  0  0  0
  6 29  1  0  0  0  0
  7  8  1  0  0  0  0
  7 20  2  0  0  0  0
  8  9  1  0  0  0  0
  8 30  1  0  0  0  0
  9 10  2  0  0  0  0
  9 11  1  0  0  0  0
 11 12  1  0  0  0  0
 11 31  1  0  0  0  0
 12 13  1  0  0  0  0
 12 32  1  0  0  0  0
 12 33  1  0  0  0  0
 13 14  1  0  0  0  0
 13 34  1  0  0  0  0
 13 35  1  0  0  0  0
 14 19  1  0  0  0  0
 14 15  1  0  0  0  0
 14 36  1  0  0  0  0
 15 16  1  0  0  0  0
 15 37  1  0  0  0  0
 15 38  1  0  0  0  0
 16 17  1  0  0  0  0
 16 39  1  0  0  0  0
 16 40  1  0  0  0  0
 17 18  1  0  0  0  0
 17 41  1  0  0  0  0
 17 42  1  0  0  0  0
 18 19  1  0  0  0  0
 18 43  1  0  0  0  0
 18 44  1  0  0  0  0
 20 21  1  0  0  0  0
 21 45  1  0  0  0  0
 21 46  1  0  0  0  0
 21 47  1  0  0  0  0
M  END
> <s_m_source_file>
AV-unprocessed.smi

> <i_m_source_file_index>
2274

> <i_lp_mmshare_version>
43012

> <i_f3d_flags>
0

> <s_epik_input>
W0NIM11bQ0gyXW4xbmMoW0NIM10pYyhjMVtDSDNdKVtOSF1DKD1PKVtOSF1bQ0gyXVtDSDJdW0NAQEhdMltDSDJdW0NIMl1bQ0gyXVtDSDJdTzI=

> <s_epik_cmdline>
J2VwaWtfcHl0aG9uJywgJy1waCcsICc3LjAnLCAnLXRuJywgJzgnLCAnLW1hJywgJzIwMCcsICctbWV0YWxfYmluZGluZycsICctaW1hZScsICc8aW5maWxlLm1hZT4nLCAnLW9tYWUnLCAnPG91dGZpbGUubWFlPic=

> <r_lp_tautomer_probability>
1

> <r_epik_Ionization_Penalty>
0.00368263

> <r_epik_Ionization_Penalty_Charging>
0

> <r_epik_Ionization_Penalty_Neutral>
0.00368263

> <r_epik_State_Penalty>
0.00259417

> <r_epik_Charging_Adjusted_Penalty>
0.00259417

> <i_epik_Tot_Q>
0

> <i_epik_Tot_abs_Q>
0

> <r_epik_Metal_State_Penalty>
-0

> <b_epik_Metal_Only>
0

> <s_lp_Force_Field>
OPLS_2005

> <r_lp_Energy>
13.1283

> <b_lp_Chiralities_Consistent>
1

> <s_lp_Variant>
AV-unprocessed.smi:2274-2

> <Gold.Version>
5.8.1

> <Gold.Id.Protein>
6NUR|6NUR_protein|mol2

> <Gold.PLP.Fitness>
45.6528

> <Gold.PLP.PLP>
-40.6241

> <Gold.PLP.part.hbond>
-3.9200

> <Gold.PLP.part.metal>
0.0000

> <Gold.PLP.part.buried>
-0.9543

> <Gold.PLP.part.nonpolar>
-36.5350

> <Gold.PLP.part.repulsive>
0.4564

> <Gold.PLP.ligand.clash>
0.0000

> <Gold.PLP.ligand.torsion>
0.7884

> <Gold.PLP.Chemscore.Hbond>
2.1000

> <Gold.PLP.Chemscore.CHOScore>
0.0000

> <Gold.PLP.Chemscore.Metal>
0.0000

> <Gold.Chemscore.Hbonds>
donor molecule, donor type, donor heavy atom, donor atom, acceptor molecule, acceptor atom, score
      L1  H     8    30       P1  7948  0.99
      L1  H    11    31       P1  7948  1.00
      P1  H  7989  7998       L1     4  0.18

> <Gold.PLP.Chemscore.Internal.Correction>
0.3055

> <Gold.Rescore>
     Score         DG    S(hbond)    S(metal)    S(lipo)     H(rot)  DE(clash)    DE(int)     intcor
     16.26     -19.34       1.90        0.00      96.21       1.46       0.42       2.65       ----

> <Gold.Chemscore.Fitness>
16.2609

> <Gold.Chemscore.DG>
-19.3350

> <Gold.Chemscore.ZeroCoef>
-5.4800

> <Gold.Chemscore.Hbond>
1.8974

> <Gold.Chemscore.Metal>
0.0000

> <Gold.Chemscore.Lipo>
96.2147

> <Gold.Chemscore.Internal_Hbond>
0.0000

> <Gold.Chemscore.DEClash>
0.4194

> <Gold.Chemscore.DEInternal>
2.6547

> <Gold.Chemscore.Rot>
1.4606

> <Gold.Chemscore.Internal.Correction>
   9.000000E+99

> <Gold.Chemscore.Hbonds>
donor molecule, donor type, donor heavy atom, donor atom, acceptor molecule, acceptor atom, score
      L1  H     8    30       P1  7948  0.94
      L1  H    11    31       P1  7948  0.97

> <Gold.Chemscore.Hbond.Weighted>
-6.3372

> <Gold.Chemscore.Metal.Weighted>
-0.0000

> <Gold.Chemscore.Lipo.Weighted>
-11.2571

> <Gold.Chemscore.Internal_Hbond.Weighted>
0.0000

> <Gold.Chemscore.DEClash.Weighted>
0.4194

> <Gold.Chemscore.DEInternal.Weighted>
2.6547

> <Gold.Chemscore.Rot.Weighted>
3.7393

> <Gold.Chemscore.Internal.Correction.Weighted>
   9.000000E+99

> <Gold.Protein.RotatedTorsions>
[ 6907 6896 6895 6894 ] final -106.39 input  -60.11 | X-H torsion
[ 7974 7965 7964 7962 ] final  115.39 input  175.53 | X-H torsion
[ 8008 7997 7996 7995 ] final   73.28 input   59.86 | X-H torsion
[ 10167 10162 10161 10158 ] final  -10.93 input  -65.29 | X-H torsion
[ 10718 10713 10712 10709 ] final  -81.03 input   66.30 | X-H torsion
[ 10763 10752 10751 10750 ] final -120.17 input  -60.55 | X-H torsion
[ 11005 11000 10999 10996 ] final    1.81 input  -57.11 | X-H torsion

> <Gold.Protein.ActiveResidues>
 VAL166  LYS551  ARG553  GLY616  TRP617  ASP618  TYR619  PRO620  LYS621  CYS622 
 ASP623  PHE694  ASN695  SER759  ASP760  ASP761  ALA762  ILE779  LEU786  VAL792 
 PHE793  MET794  SER795  GLU796  ALA797  LYS798  CYS799  TRP800  GLU811  SER814 

> <Gold.Protein.RotatedAtoms>
  150.7387  133.9983  159.3629 H   0  0  0  0  0  0  0  0  0  0  0  0  # atno 6907 bound_to 6896
  151.7936  135.0727  160.0400 H   0  0  0  0  0  0  0  0  0  0  0  0  # atno 6908 bound_to 6896
  152.3191  133.5797  159.5768 H   0  0  0  0  0  0  0  0  0  0  0  0  # atno 6909 bound_to 6896
  145.1926  139.2992  143.4360 H   0  0  0  0  0  0  0  0  0  0  0  0  # atno 7974 bound_to 7965
  155.7813  140.3482  155.5299 H   0  0  0  0  0  0  0  0  0  0  0  0  # atno 8008 bound_to 7997
  155.8725  140.0989  157.1561 H   0  0  0  0  0  0  0  0  0  0  0  0  # atno 8009 bound_to 7997
  154.4018  140.1337  156.4084 H   0  0  0  0  0  0  0  0  0  0  0  0  # atno 8010 bound_to 7997
  140.7126  143.5694  150.9109 H   0  0  0  0  0  0  0  0  0  0  0  0  # atno 10167 bound_to 10162
  156.0058  130.4592  150.3891 H   0  0  0  0  0  0  0  0  0  0  0  0  # atno 10718 bound_to 10713
  154.8637  135.4212  154.2416 H   0  0  0  0  0  0  0  0  0  0  0  0  # atno 10763 bound_to 10752
  153.3381  135.6992  153.6896 H   0  0  0  0  0  0  0  0  0  0  0  0  # atno 10764 bound_to 10752
  153.5886  135.3559  155.2875 H   0  0  0  0  0  0  0  0  0  0  0  0  # atno 10765 bound_to 10752
  140.6112  133.9746  155.8178 H   0  0  0  0  0  0  0  0  0  0  0  0  # atno 11005 bound_to 11000
  146.3433  140.2144  142.8590 LP  0  0  0  0  0  0  0  0  0  0  0  0  # atno 17320 bound_to 7965
  145.0026  140.8645  143.5272 LP  0  0  0  0  0  0  0  0  0  0  0  0  # atno 17321 bound_to 7965
  139.9420  143.6371  152.3051 LP  0  0  0  0  0  0  0  0  0  0  0  0  # atno 17342 bound_to 10162
  139.6859  144.7651  151.1525 LP  0  0  0  0  0  0  0  0  0  0  0  0  # atno 17343 bound_to 10162
  157.1967  131.0428  151.2672 LP  0  0  0  0  0  0  0  0  0  0  0  0  # atno 17370 bound_to 10713
  157.4013  130.7335  149.6769 LP  0  0  0  0  0  0  0  0  0  0  0  0  # atno 17371 bound_to 10713
  141.0806  134.0068  157.3391 LP  0  0  0  0  0  0  0  0  0  0  0  0  # atno 17394 bound_to 11000
  139.9191  135.0199  156.7996 LP  0  0  0  0  0  0  0  0  0  0  0  0  # atno 17395 bound_to 11000

$$$$
