AV-unprocessed.smi:644|AV-procd|sdf|3156|dock9
  -GOLD-   22720 0 83D 1   1.00000     0.00000
 Structure written by MMmdl.
 37 39  0  0  0  0  0  0  0  0  1 V2000
  151.8891  145.0728  160.2649 C   0  0  0  0  0  0  0  0  0  0  0  0
  151.8873  143.7726  159.4804 C   0  0  0  0  0  0  0  0  0  0  0  0
  151.2802  143.7405  158.2045 C   0  0  0  0  0  0  0  0  0  0  0  0
  151.2589  142.5521  157.4422 C   0  0  0  0  0  0  0  0  0  0  0  0
  150.7279  142.2963  156.1895 N   0  0  0  0  0  0  0  0  0  0  0  0
  151.0288  141.0109  156.0280 C   0  0  0  0  0  0  0  0  0  0  0  0
  151.6892  140.4020  157.0317 N   0  0  0  0  0  0  0  0  0  0  0  0
  152.1268  139.0186  157.0831 C   0  0  0  0  0  0  0  0  0  0  0  0
  151.8433  138.2601  155.7728 C   0  0  1  0  0  0  0  0  0  0  0  0
  152.4501  136.9828  155.8256 O   0  0  0  0  0  0  0  0  0  0  0  0
  150.3356  138.0985  155.5206 C   0  0  0  0  0  0  0  0  0  0  0  0
  149.4830  137.3291  156.9322 S   0  0  0  0  0  0  0  0  0  0  0  0
  149.8938  135.6354  156.6579 C   0  0  0  0  0  0  0  0  0  0  0  0
  150.2891  134.7717  157.6046 N   0  0  0  0  0  0  0  0  0  0  0  0
  150.5414  133.5057  157.0933 N   0  0  0  0  0  0  0  0  0  0  0  0
  150.3271  133.4594  155.7764 C   0  0  0  0  0  0  0  0  0  0  0  0
  149.7961  134.9582  155.0365 S   0  0  0  0  0  0  0  0  0  0  0  0
  151.8672  141.3878  157.9956 C   0  0  0  0  0  0  0  0  0  0  0  0
  152.4741  141.4067  159.2637 C   0  0  0  0  0  0  0  0  0  0  0  0
  152.4853  142.6020  160.0126 C   0  0  0  0  0  0  0  0  0  0  0  0
  153.1414  142.6118  161.3819 C   0  0  0  0  0  0  0  0  0  0  0  0
  151.3871  145.8700  159.7160 H   0  0  0  0  0  0  0  0  0  0  0  0
  152.9108  145.3961  160.4645 H   0  0  0  0  0  0  0  0  0  0  0  0
  151.3732  144.9468  161.2169 H   0  0  0  0  0  0  0  0  0  0  0  0
  150.8249  144.6319  157.7988 H   0  0  0  0  0  0  0  0  0  0  0  0
  150.7507  140.4798  155.1290 H   0  0  0  0  0  0  0  0  0  0  0  0
  153.1928  138.9963  157.3147 H   0  0  0  0  0  0  0  0  0  0  0  0
  151.6170  138.5345  157.9171 H   0  0  0  0  0  0  0  0  0  0  0  0
  152.2842  138.8087  154.9396 H   0  0  0  0  0  0  0  0  0  0  0  0
  152.2135  136.5723  156.6434 H   0  0  0  0  0  0  0  0  0  0  0  0
  149.8826  139.0672  155.3055 H   0  0  0  0  0  0  0  0  0  0  0  0
  150.1798  137.4675  154.6448 H   0  0  0  0  0  0  0  0  0  0  0  0
  150.4810  132.5362  155.2375 H   0  0  0  0  0  0  0  0  0  0  0  0
  152.9261  140.5081  159.6567 H   0  0  0  0  0  0  0  0  0  0  0  0
  153.5341  141.6284  161.6425 H   0  0  0  0  0  0  0  0  0  0  0  0
  152.4206  142.8968  162.1485 H   0  0  0  0  0  0  0  0  0  0  0  0
  153.9699  143.3199  161.4036 H   0  0  0  0  0  0  0  0  0  0  0  0
  1  2  1  0  0  0  0
  1 22  1  0  0  0  0
  1 23  1  0  0  0  0
  1 24  1  0  0  0  0
  2 20  1  0  0  0  0
  2  3  2  0  0  0  0
  3  4  1  0  0  0  0
  3 25  1  0  0  0  0
  4 18  2  0  0  0  0
  4  5  1  0  0  0  0
  5  6  2  0  0  0  0
  6  7  1  0  0  0  0
  6 26  1  0  0  0  0
  7  8  1  0  0  0  0
  7 18  1  0  0  0  0
  8  9  1  0  0  0  0
  8 27  1  0  0  0  0
  8 28  1  0  0  0  0
  9 10  1  0  0  0  0
  9 11  1  0  0  0  0
  9 29  1  0  0  0  0
 10 30  1  0  0  0  0
 11 12  1  0  0  0  0
 11 31  1  0  0  0  0
 11 32  1  0  0  0  0
 12 13  1  0  0  0  0
 13 17  1  0  0  0  0
 13 14  2  0  0  0  0
 14 15  1  0  0  0  0
 15 16  2  0  0  0  0
 16 17  1  0  0  0  0
 16 33  1  0  0  0  0
 18 19  1  0  0  0  0
 19 20  2  0  0  0  0
 19 34  1  0  0  0  0
 20 21  1  0  0  0  0
 21 35  1  0  0  0  0
 21 36  1  0  0  0  0
 21 37  1  0  0  0  0
M  END
> <s_m_source_file>
AV-unprocessed.smi

> <i_m_source_file_index>
644

> <i_lp_mmshare_version>
43012

> <i_f3d_flags>
0

> <s_epik_input>
W0NIM11jKFtjSF0xKWMoW0NIM10pW2NIXWMoYzEyKW4oW2NIXW4yKVtDSDJdW0NASF0oW09IXSlbQ0gyXVNjM25uW2NIXXMz

> <s_epik_cmdline>
J2VwaWtfcHl0aG9uJywgJy1waCcsICc3LjAnLCAnLXRuJywgJzgnLCAnLW1hJywgJzIwMCcsICctbWV0YWxfYmluZGluZycsICctaW1hZScsICc8aW5maWxlLm1hZT4nLCAnLW9tYWUnLCAnPG91dGZpbGUubWFlPic=

> <r_lp_tautomer_probability>
1

> <r_epik_Ionization_Penalty>
0.105397

> <r_epik_Ionization_Penalty_Charging>
0

> <r_epik_Ionization_Penalty_Neutral>
0.105397

> <r_epik_State_Penalty>
0.0952713

> <r_epik_Charging_Adjusted_Penalty>
0.0952713

> <i_epik_Tot_Q>
0

> <i_epik_Tot_abs_Q>
0

> <r_epik_Metal_State_Penalty>
0.0807681

> <b_epik_Metal_Only>
0

> <s_lp_Force_Field>
OPLS_2005

> <r_lp_Energy>
7.47595

> <b_lp_Chiralities_Consistent>
1

> <s_lp_Variant>
AV-unprocessed.smi:644-2

> <Gold.Version>
5.8.1

> <Gold.Id.Protein>
6NUR|6NUR_protein|mol2

> <Gold.PLP.Fitness>
45.4558

> <Gold.PLP.PLP>
-42.0303

> <Gold.PLP.part.hbond>
-2.9507

> <Gold.PLP.part.metal>
0.0000

> <Gold.PLP.part.buried>
-6.2689

> <Gold.PLP.part.nonpolar>
-33.7990

> <Gold.PLP.part.repulsive>
0.3554

> <Gold.PLP.ligand.clash>
0.0000

> <Gold.PLP.ligand.torsion>
0.3638

> <Gold.PLP.Chemscore.Hbond>
1.3760

> <Gold.PLP.Chemscore.CHOScore>
0.0000

> <Gold.PLP.Chemscore.Metal>
0.0000

> <Gold.Chemscore.Hbonds>
donor molecule, donor type, donor heavy atom, donor atom, acceptor molecule, acceptor atom, score
      P1  H  6896  6909       L1    14  0.58
      P1  H 10752 10765       L1    10  0.83

> <Gold.PLP.Chemscore.Internal.Correction>
0.0251

> <Gold.Rescore>
     Score         DG    S(hbond)    S(metal)    S(lipo)     H(rot)  DE(clash)    DE(int)     intcor
     15.62     -16.84       1.57        0.00     106.22       2.46       0.00       1.22       ----

> <Gold.Chemscore.Fitness>
15.6234

> <Gold.Chemscore.DG>
-16.8432

> <Gold.Chemscore.ZeroCoef>
-5.4800

> <Gold.Chemscore.Hbond>
1.5659

> <Gold.Chemscore.Metal>
0.0000

> <Gold.Chemscore.Lipo>
106.2201

> <Gold.Chemscore.Internal_Hbond>
0.0000

> <Gold.Chemscore.DEClash>
0.0038

> <Gold.Chemscore.DEInternal>
1.2160

> <Gold.Chemscore.Rot>
2.4588

> <Gold.Chemscore.Internal.Correction>
   9.000000E+99

> <Gold.Chemscore.Hbonds>
donor molecule, donor type, donor heavy atom, donor atom, acceptor molecule, acceptor atom, score
      P1  H  6896  6909       L1    14  0.13
      P1  H 10752 10765       L1    10  0.28

> <Gold.Chemscore.Hbond.Weighted>
-5.2300

> <Gold.Chemscore.Metal.Weighted>
-0.0000

> <Gold.Chemscore.Lipo.Weighted>
-12.4278

> <Gold.Chemscore.Internal_Hbond.Weighted>
0.0000

> <Gold.Chemscore.DEClash.Weighted>
0.0038

> <Gold.Chemscore.DEInternal.Weighted>
1.2160

> <Gold.Chemscore.Rot.Weighted>
6.2946

> <Gold.Chemscore.Internal.Correction.Weighted>
   9.000000E+99

> <Gold.Protein.RotatedTorsions>
[ 6907 6896 6895 6894 ] final   40.50 input  -60.11 | X-H torsion
[ 7974 7965 7964 7962 ] final -133.66 input  175.53 | X-H torsion
[ 8008 7997 7996 7995 ] final  153.09 input   59.86 | X-H torsion
[ 10167 10162 10161 10158 ] final  -19.90 input  -65.29 | X-H torsion
[ 10718 10713 10712 10709 ] final -108.17 input   66.30 | X-H torsion
[ 10763 10752 10751 10750 ] final -164.51 input  -60.55 | X-H torsion
[ 11005 11000 10999 10996 ] final  -30.08 input  -57.11 | X-H torsion

> <Gold.Protein.ActiveResidues>
 VAL166  LYS551  ARG553  GLY616  TRP617  ASP618  TYR619  PRO620  LYS621  CYS622 
 ASP623  PHE694  ASN695  SER759  ASP760  ASP761  ALA762  ILE779  LEU786  VAL792 
 PHE793  MET794  SER795  GLU796  ALA797  LYS798  CYS799  TRP800  GLU811  SER814 

> <Gold.Protein.RotatedAtoms>
  152.1833  134.8735  160.0524 H   0  0  0  0  0  0  0  0  0  0  0  0  # atno 6907 bound_to 6896
  151.9652  133.3703  159.4058 H   0  0  0  0  0  0  0  0  0  0  0  0  # atno 6908 bound_to 6896
  150.6921  134.4122  159.5211 H   0  0  0  0  0  0  0  0  0  0  0  0  # atno 6909 bound_to 6896
  144.9172  140.6970  143.4988 H   0  0  0  0  0  0  0  0  0  0  0  0  # atno 7974 bound_to 7965
  156.2598  140.2003  156.6436 H   0  0  0  0  0  0  0  0  0  0  0  0  # atno 8008 bound_to 7997
  154.6590  140.0563  157.0066 H   0  0  0  0  0  0  0  0  0  0  0  0  # atno 8009 bound_to 7997
  155.1304  140.3233  155.4478 H   0  0  0  0  0  0  0  0  0  0  0  0  # atno 8010 bound_to 7997
  140.7272  143.4774  151.0164 H   0  0  0  0  0  0  0  0  0  0  0  0  # atno 10167 bound_to 10162
  156.0472  130.5699  150.7923 H   0  0  0  0  0  0  0  0  0  0  0  0  # atno 10718 bound_to 10713
  154.7021  135.2990  154.9325 H   0  0  0  0  0  0  0  0  0  0  0  0  # atno 10763 bound_to 10752
  154.0254  135.6677  153.4780 H   0  0  0  0  0  0  0  0  0  0  0  0  # atno 10764 bound_to 10752
  153.0689  135.5072  154.8171 H   0  0  0  0  0  0  0  0  0  0  0  0  # atno 10765 bound_to 10752
  140.9352  133.7313  156.0994 H   0  0  0  0  0  0  0  0  0  0  0  0  # atno 11005 bound_to 11000
  145.3355  139.1747  143.4514 LP  0  0  0  0  0  0  0  0  0  0  0  0  # atno 17320 bound_to 7965
  146.3188  140.3390  142.8646 LP  0  0  0  0  0  0  0  0  0  0  0  0  # atno 17321 bound_to 7965
  139.8470  143.7488  152.3179 LP  0  0  0  0  0  0  0  0  0  0  0  0  # atno 17342 bound_to 10162
  139.7657  144.7492  151.0298 LP  0  0  0  0  0  0  0  0  0  0  0  0  # atno 17343 bound_to 10162
  157.5360  131.0939  150.9891 LP  0  0  0  0  0  0  0  0  0  0  0  0  # atno 17370 bound_to 10713
  157.0186  130.5665  149.5329 LP  0  0  0  0  0  0  0  0  0  0  0  0  # atno 17371 bound_to 10713
  140.7809  134.3726  157.5487 LP  0  0  0  0  0  0  0  0  0  0  0  0  # atno 17394 bound_to 11000
  139.8806  134.9081  156.2960 LP  0  0  0  0  0  0  0  0  0  0  0  0  # atno 17395 bound_to 11000

$$$$
