AV-unprocessed.smi:2880|AV-procd|sdf|11051|dock2
  -GOLD-   2272015523D 1   1.00000     0.00000
 Structure written by MMmdl.
 47 48  0  0  0  0  0  0  0  0  1 V2000
  146.8670  142.2918  156.1123 C   0  0  0  0  0  0  0  0  0  0  0  0
  147.2143  141.6361  154.7602 C   0  0  0  0  0  0  0  0  0  0  0  0
  146.4556  142.4005  153.6493 C   0  0  0  0  0  0  0  0  0  0  0  0
  148.7283  141.7492  154.5029 C   0  0  0  0  0  0  0  0  0  0  0  0
  146.8477  140.2137  154.7935 N   0  0  0  0  0  0  0  0  0  0  0  0
  146.2793  139.4998  155.8365 C   0  0  0  0  0  0  0  0  0  0  0  0
  146.1748  138.1938  155.4507 C   0  0  0  0  0  0  0  0  0  0  0  0
  146.7322  138.1963  154.1445 C   0  0  0  0  0  0  0  0  0  0  0  0
  146.8156  137.0001  153.3872 N   0  0  0  0  0  0  0  0  0  0  0  0
  145.9020  136.0176  153.3049 C   0  0  0  0  0  0  0  0  0  0  0  0
  144.8251  135.9992  153.9018 O   0  0  0  0  0  0  0  0  0  0  0  0
  146.3148  135.0401  152.4847 N   0  0  0  0  0  0  0  0  0  0  0  0
  145.5830  133.8103  152.1828 C   0  0  2  0  0  0  0  0  0  0  0  0
  146.4035  132.6090  152.6949 C   0  0  0  0  0  0  0  0  0  0  0  0
  145.7353  131.2712  152.3509 C   0  0  0  0  0  0  0  0  0  0  0  0
  145.4871  131.1591  150.8418 C   0  0  0  0  0  0  0  0  0  0  0  0
  144.6466  132.3401  150.3345 C   0  0  0  0  0  0  0  0  0  0  0  0
  145.2978  133.7039  150.6617 C   0  0  1  0  0  0  0  0  0  0  0  0
  144.4246  134.8727  150.1523 C   0  0  0  0  0  0  0  0  0  0  0  0
  145.1923  136.0486  150.0024 O   0  0  0  0  0  0  0  0  0  0  0  0
  147.1518  139.3919  153.7600 N   0  0  0  0  0  0  0  0  0  0  0  0
  147.0902  143.3593  156.1021 H   0  0  0  0  0  0  0  0  0  0  0  0
  147.4323  141.8564  156.9364 H   0  0  0  0  0  0  0  0  0  0  0  0
  145.8069  142.1813  156.3435 H   0  0  0  0  0  0  0  0  0  0  0  0
  145.3753  142.3186  153.7752 H   0  0  0  0  0  0  0  0  0  0  0  0
  146.7048  142.0274  152.6549 H   0  0  0  0  0  0  0  0  0  0  0  0
  146.7041  143.4622  153.6607 H   0  0  0  0  0  0  0  0  0  0  0  0
  149.0496  142.7909  154.4744 H   0  0  0  0  0  0  0  0  0  0  0  0
  149.0026  141.2937  153.5505 H   0  0  0  0  0  0  0  0  0  0  0  0
  149.3050  141.2505  155.2827 H   0  0  0  0  0  0  0  0  0  0  0  0
  145.9985  139.9736  156.7653 H   0  0  0  0  0  0  0  0  0  0  0  0
  145.7700  137.3690  156.0182 H   0  0  0  0  0  0  0  0  0  0  0  0
  147.6656  136.8749  152.8580 H   0  0  0  0  0  0  0  0  0  0  0  0
  147.2151  135.1465  152.0407 H   0  0  0  0  0  0  0  0  0  0  0  0
  144.6220  133.8109  152.7008 H   0  0  0  0  0  0  0  0  0  0  0  0
  147.4032  132.6325  152.2585 H   0  0  0  0  0  0  0  0  0  0  0  0
  146.5375  132.6821  153.7749 H   0  0  0  0  0  0  0  0  0  0  0  0
  146.3616  130.4448  152.6880 H   0  0  0  0  0  0  0  0  0  0  0  0
  144.7896  131.1836  152.8874 H   0  0  0  0  0  0  0  0  0  0  0  0
  146.4405  131.1325  150.3126 H   0  0  0  0  0  0  0  0  0  0  0  0
  144.9823  130.2193  150.6170 H   0  0  0  0  0  0  0  0  0  0  0  0
  144.5045  132.2372  149.2584 H   0  0  0  0  0  0  0  0  0  0  0  0
  143.6519  132.2923  150.7796 H   0  0  0  0  0  0  0  0  0  0  0  0
  146.2561  133.7501  150.1409 H   0  0  0  0  0  0  0  0  0  0  0  0
  143.9589  134.6212  149.1989 H   0  0  0  0  0  0  0  0  0  0  0  0
  143.6182  135.0979  150.8502 H   0  0  0  0  0  0  0  0  0  0  0  0
  144.6449  136.7169  149.6191 H   0  0  0  0  0  0  0  0  0  0  0  0
  1  2  1  0  0  0  0
  1 22  1  0  0  0  0
  1 23  1  0  0  0  0
  1 24  1  0  0  0  0
  2  3  1  0  0  0  0
  2  4  1  0  0  0  0
  2  5  1  0  0  0  0
  3 25  1  0  0  0  0
  3 26  1  0  0  0  0
  3 27  1  0  0  0  0
  4 28  1  0  0  0  0
  4 29  1  0  0  0  0
  4 30  1  0  0  0  0
  5 21  1  0  0  0  0
  5  6  1  0  0  0  0
  6  7  2  0  0  0  0
  6 31  1  0  0  0  0
  7  8  1  0  0  0  0
  7 32  1  0  0  0  0
  8  9  1  0  0  0  0
  8 21  2  0  0  0  0
  9 10  1  0  0  0  0
  9 33  1  0  0  0  0
 10 11  2  0  0  0  0
 10 12  1  0  0  0  0
 12 13  1  0  0  0  0
 12 34  1  0  0  0  0
 13 18  1  0  0  0  0
 13 14  1  0  0  0  0
 13 35  1  0  0  0  0
 14 15  1  0  0  0  0
 14 36  1  0  0  0  0
 14 37  1  0  0  0  0
 15 16  1  0  0  0  0
 15 38  1  0  0  0  0
 15 39  1  0  0  0  0
 16 17  1  0  0  0  0
 16 40  1  0  0  0  0
 16 41  1  0  0  0  0
 17 18  1  0  0  0  0
 17 42  1  0  0  0  0
 17 43  1  0  0  0  0
 18 19  1  0  0  0  0
 18 44  1  0  0  0  0
 19 20  1  0  0  0  0
 19 45  1  0  0  0  0
 19 46  1  0  0  0  0
 20 47  1  0  0  0  0
M  END
> <s_m_source_file>
AV-unprocessed.smi

> <i_m_source_file_index>
2880

> <i_lp_mmshare_version>
43012

> <i_f3d_flags>
0

> <s_epik_input>
W0NIM11DKFtDSDNdKShbQ0gzXSluMVtjSF1bY0hdYyhuMSlbTkhdQyg9TylbTkhdW0NAQEhdMltDSDJdW0NIMl1bQ0gyXVtDSDJdW0NASF0yW0NIMl1bT0hd

> <s_epik_cmdline>
J2VwaWtfcHl0aG9uJywgJy1waCcsICc3LjAnLCAnLXRuJywgJzgnLCAnLW1hJywgJzIwMCcsICctbWV0YWxfYmluZGluZycsICctaW1hZScsICc8aW5maWxlLm1hZT4nLCAnLW9tYWUnLCAnPG91dGZpbGUubWFlPic=

> <r_lp_tautomer_probability>
1

> <r_epik_Ionization_Penalty>
3.89283e-05

> <r_epik_Ionization_Penalty_Charging>
0

> <r_epik_Ionization_Penalty_Neutral>
3.89283e-05

> <r_epik_State_Penalty>
-0

> <r_epik_Charging_Adjusted_Penalty>
0

> <i_epik_Tot_Q>
0

> <i_epik_Tot_abs_Q>
0

> <r_epik_Metal_State_Penalty>
-0

> <b_epik_Metal_Only>
0

> <s_lp_Force_Field>
OPLS_2005

> <r_lp_Energy>
21.5121

> <b_lp_Chiralities_Consistent>
1

> <s_lp_Variant>
AV-unprocessed.smi:2880-1

> <Gold.Version>
5.8.1

> <Gold.Id.Protein>
6NUR|6NUR_protein|mol2

> <Gold.PLP.Fitness>
39.0880

> <Gold.PLP.PLP>
-31.1092

> <Gold.PLP.part.hbond>
-4.0000

> <Gold.PLP.part.metal>
0.0000

> <Gold.PLP.part.buried>
-4.1660

> <Gold.PLP.part.nonpolar>
-22.8470

> <Gold.PLP.part.repulsive>
0.2058

> <Gold.PLP.ligand.clash>
0.0000

> <Gold.PLP.ligand.torsion>
0.5300

> <Gold.PLP.Chemscore.Hbond>
2.9920

> <Gold.PLP.Chemscore.CHOScore>
0.0000

> <Gold.PLP.Chemscore.Metal>
0.0000

> <Gold.Chemscore.Hbonds>
donor molecule, donor type, donor heavy atom, donor atom, acceptor molecule, acceptor atom, score
      L1  H     9    33       P1  7948  1.00
      L1  H    12    34       P1  7948  0.99
      L1  H    20    47       P1 10171  0.96

> <Gold.PLP.Chemscore.Internal.Correction>
0.0629

> <Gold.Rescore>
     Score         DG    S(hbond)    S(metal)    S(lipo)     H(rot)  DE(clash)    DE(int)     intcor
     16.76     -18.71       2.89        0.00      73.52       1.97       0.01       1.94       ----

> <Gold.Chemscore.Fitness>
16.7632

> <Gold.Chemscore.DG>
-18.7104

> <Gold.Chemscore.ZeroCoef>
-5.4800

> <Gold.Chemscore.Hbond>
2.8937

> <Gold.Chemscore.Metal>
0.0000

> <Gold.Chemscore.Lipo>
73.5159

> <Gold.Chemscore.Internal_Hbond>
0.0000

> <Gold.Chemscore.DEClash>
0.0103

> <Gold.Chemscore.DEInternal>
1.9369

> <Gold.Chemscore.Rot>
1.9672

> <Gold.Chemscore.Internal.Correction>
   9.000000E+99

> <Gold.Chemscore.Hbonds>
donor molecule, donor type, donor heavy atom, donor atom, acceptor molecule, acceptor atom, score
      L1  H     9    33       P1  7948  1.00
      L1  H    12    34       P1  7948  0.88
      L1  H    20    47       P1 10171  0.89

> <Gold.Chemscore.Hbond.Weighted>
-9.6651

> <Gold.Chemscore.Metal.Weighted>
-0.0000

> <Gold.Chemscore.Lipo.Weighted>
-8.6014

> <Gold.Chemscore.Internal_Hbond.Weighted>
0.0000

> <Gold.Chemscore.DEClash.Weighted>
0.0103

> <Gold.Chemscore.DEInternal.Weighted>
1.9369

> <Gold.Chemscore.Rot.Weighted>
5.0360

> <Gold.Chemscore.Internal.Correction.Weighted>
   9.000000E+99

> <Gold.Protein.RotatedTorsions>
[ 6907 6896 6895 6894 ] final  156.55 input  -60.11 | X-H torsion
[ 7974 7965 7964 7962 ] final  106.18 input  175.53 | X-H torsion
[ 8008 7997 7996 7995 ] final  102.99 input   59.86 | X-H torsion
[ 10167 10162 10161 10158 ] final -120.11 input  -65.29 | X-H torsion
[ 10718 10713 10712 10709 ] final -120.78 input   66.30 | X-H torsion
[ 10763 10752 10751 10750 ] final  -12.14 input  -60.55 | X-H torsion
[ 11005 11000 10999 10996 ] final   60.22 input  -57.11 | X-H torsion

> <Gold.Protein.ActiveResidues>
 VAL166  LYS551  ARG553  GLY616  TRP617  ASP618  TYR619  PRO620  LYS621  CYS622 
 ASP623  PHE694  ASN695  SER759  ASP760  ASP761  ALA762  ILE779  LEU786  VAL792 
 PHE793  MET794  SER795  GLU796  ALA797  LYS798  CYS799  TRP800  GLU811  SER814 

> <Gold.Protein.RotatedAtoms>
  152.0281  133.3926  159.4285 H   0  0  0  0  0  0  0  0  0  0  0  0  # atno 6907 bound_to 6896
  150.6884  134.3551  159.4935 H   0  0  0  0  0  0  0  0  0  0  0  0  # atno 6908 bound_to 6896
  152.1334  134.9117  160.0608 H   0  0  0  0  0  0  0  0  0  0  0  0  # atno 6909 bound_to 6896
  145.3099  139.2543  143.3768 H   0  0  0  0  0  0  0  0  0  0  0  0  # atno 7974 bound_to 7965
  156.1443  140.3172  155.8545 H   0  0  0  0  0  0  0  0  0  0  0  0  # atno 8008 bound_to 7997
  155.4094  140.0505  157.3049 H   0  0  0  0  0  0  0  0  0  0  0  0  # atno 8009 bound_to 7997
  154.5003  140.2126  155.9373 H   0  0  0  0  0  0  0  0  0  0  0  0  # atno 8010 bound_to 7997
  140.0394  143.5168  152.2137 H   0  0  0  0  0  0  0  0  0  0  0  0  # atno 10167 bound_to 10162
  156.1285  130.6377  150.9582 H   0  0  0  0  0  0  0  0  0  0  0  0  # atno 10718 bound_to 10713
  153.4941  135.7017  153.5868 H   0  0  0  0  0  0  0  0  0  0  0  0  # atno 10763 bound_to 10752
  153.4028  135.3868  155.1999 H   0  0  0  0  0  0  0  0  0  0  0  0  # atno 10764 bound_to 10752
  154.8715  135.3885  154.4404 H   0  0  0  0  0  0  0  0  0  0  0  0  # atno 10765 bound_to 10752
  140.0247  134.6100  155.9589 H   0  0  0  0  0  0  0  0  0  0  0  0  # atno 11005 bound_to 11000
  146.3121  140.3633  142.8667 LP  0  0  0  0  0  0  0  0  0  0  0  0  # atno 17320 bound_to 7965
  144.9024  140.7658  143.5859 LP  0  0  0  0  0  0  0  0  0  0  0  0  # atno 17321 bound_to 7965
  139.6024  144.7586  151.3141 LP  0  0  0  0  0  0  0  0  0  0  0  0  # atno 17342 bound_to 10162
  140.7267  143.6984  150.7865 LP  0  0  0  0  0  0  0  0  0  0  0  0  # atno 17343 bound_to 10162
  157.6465  131.0903  150.8143 LP  0  0  0  0  0  0  0  0  0  0  0  0  # atno 17370 bound_to 10713
  156.8230  130.4990  149.5341 LP  0  0  0  0  0  0  0  0  0  0  0  0  # atno 17371 bound_to 10713
  141.1795  133.6544  156.4964 LP  0  0  0  0  0  0  0  0  0  0  0  0  # atno 17394 bound_to 11000
  140.4327  134.7087  157.4950 LP  0  0  0  0  0  0  0  0  0  0  0  0  # atno 17395 bound_to 11000

$$$$
