AV-unprocessed.smi:2442|AV-procd|sdf|9629|dock7
  -GOLD-   2272013263D 1   1.00000     0.00000
 Structure written by MMmdl.
 47 48  0  0  0  0  0  0  0  0  2 V2000
  148.9097  140.7910  154.4472 C   0  0  0  0  0  0  0  0  0  0  0  0
  149.4130  139.4758  154.2705 O   0  0  0  0  0  0  0  0  0  0  0  0
  149.8129  138.8284  155.4759 C   0  0  2  0  0  0  0  0  0  0  0  0
  150.7854  139.7152  156.2839 C   0  0  0  0  0  0  0  0  0  0  0  0
  152.1142  139.9307  155.5406 C   0  0  0  0  0  0  0  0  0  0  0  0
  152.7718  138.5911  155.1750 C   0  0  0  0  0  0  0  0  0  0  0  0
  151.8153  137.7032  154.3639 C   0  0  0  0  0  0  0  0  0  0  0  0
  150.4838  137.4856  155.1138 C   0  0  2  0  0  0  0  0  0  0  0  0
  149.5655  136.6614  154.3321 N   0  0  0  0  0  0  0  0  0  0  0  0
  149.0875  135.4675  154.7085 C   0  0  0  0  0  0  0  0  0  0  0  0
  149.3773  134.9095  155.7670 O   0  0  0  0  0  0  0  0  0  0  0  0
  148.2546  134.9525  153.7947 N   0  0  0  0  0  0  0  0  0  0  0  0
  147.5823  133.6672  153.9298 C   0  0  0  0  0  0  0  0  0  0  0  0
  147.5284  132.9352  152.5821 C   0  0  0  0  0  0  0  0  0  0  0  0
  146.2227  133.1919  151.8447 C   0  0  0  0  0  0  0  0  0  0  0  0
  145.8585  134.5230  151.5401 C   0  0  0  0  0  0  0  0  0  0  0  0
  144.6484  134.7761  150.8645 C   0  0  0  0  0  0  0  0  0  0  0  0
  143.8485  133.7470  150.5143 N   0  3  0  0  0  0  0  0  0  0  0  0
  144.1534  132.4596  150.7845 C   0  0  0  0  0  0  0  0  0  0  0  0
  145.3510  132.1387  151.4612 C   0  0  0  0  0  0  0  0  0  0  0  0
  145.6698  130.6842  151.7582 C   0  0  0  0  0  0  0  0  0  0  0  0
  148.5961  141.1906  153.4830 H   0  0  0  0  0  0  0  0  0  0  0  0
  149.6629  141.4652  154.8531 H   0  0  0  0  0  0  0  0  0  0  0  0
  148.0416  140.7966  155.1073 H   0  0  0  0  0  0  0  0  0  0  0  0
  148.9300  138.6159  156.0818 H   0  0  0  0  0  0  0  0  0  0  0  0
  150.3325  140.6762  156.5250 H   0  0  0  0  0  0  0  0  0  0  0  0
  150.9894  139.2364  157.2424 H   0  0  0  0  0  0  0  0  0  0  0  0
  151.9382  140.5119  154.6345 H   0  0  0  0  0  0  0  0  0  0  0  0
  152.7931  140.5200  156.1576 H   0  0  0  0  0  0  0  0  0  0  0  0
  153.6866  138.7676  154.6085 H   0  0  0  0  0  0  0  0  0  0  0  0
  153.0684  138.0698  156.0861 H   0  0  0  0  0  0  0  0  0  0  0  0
  151.6257  138.1634  153.3932 H   0  0  0  0  0  0  0  0  0  0  0  0
  152.2961  136.7456  154.1612 H   0  0  0  0  0  0  0  0  0  0  0  0
  150.7001  136.9646  156.0488 H   0  0  0  0  0  0  0  0  0  0  0  0
  149.2739  137.0347  153.4406 H   0  0  0  0  0  0  0  0  0  0  0  0
  148.0790  135.4810  152.9526 H   0  0  0  0  0  0  0  0  0  0  0  0
  148.1145  133.0672  154.6690 H   0  0  0  0  0  0  0  0  0  0  0  0
  146.5684  133.8159  154.3063 H   0  0  0  0  0  0  0  0  0  0  0  0
  148.3544  133.2685  151.9519 H   0  0  0  0  0  0  0  0  0  0  0  0
  147.6803  131.8652  152.7244 H   0  0  0  0  0  0  0  0  0  0  0  0
  146.4992  135.3453  151.8248 H   0  0  0  0  0  0  0  0  0  0  0  0
  144.2987  135.7627  150.5971 H   0  0  0  0  0  0  0  0  0  0  0  0
  143.4302  131.7286  150.4527 H   0  0  0  0  0  0  0  0  0  0  0  0
  144.8285  130.0371  151.5077 H   0  0  0  0  0  0  0  0  0  0  0  0
  145.8936  130.5444  152.8159 H   0  0  0  0  0  0  0  0  0  0  0  0
  146.5302  130.3563  151.1743 H   0  0  0  0  0  0  0  0  0  0  0  0
  142.9760  133.9502  150.0256 H   0  0  0  0  0  0  0  0  0  0  0  0
  1  2  1  0  0  0  0
  1 22  1  0  0  0  0
  1 23  1  0  0  0  0
  1 24  1  0  0  0  0
  2  3  1  0  0  0  0
  3  8  1  0  0  0  0
  3  4  1  0  0  0  0
  3 25  1  0  0  0  0
  4  5  1  0  0  0  0
  4 26  1  0  0  0  0
  4 27  1  0  0  0  0
  5  6  1  0  0  0  0
  5 28  1  0  0  0  0
  5 29  1  0  0  0  0
  6  7  1  0  0  0  0
  6 30  1  0  0  0  0
  6 31  1  0  0  0  0
  7  8  1  0  0  0  0
  7 32  1  0  0  0  0
  7 33  1  0  0  0  0
  8  9  1  0  0  0  0
  8 34  1  0  0  0  0
  9 10  1  0  0  0  0
  9 35  1  0  0  0  0
 10 11  2  0  0  0  0
 10 12  1  0  0  0  0
 12 13  1  0  0  0  0
 12 36  1  0  0  0  0
 13 14  1  0  0  0  0
 13 37  1  0  0  0  0
 13 38  1  0  0  0  0
 14 15  1  0  0  0  0
 14 39  1  0  0  0  0
 14 40  1  0  0  0  0
 15 20  1  0  0  0  0
 15 16  2  0  0  0  0
 16 17  1  0  0  0  0
 16 41  1  0  0  0  0
 17 18  2  0  0  0  0
 17 42  1  0  0  0  0
 18 19  1  0  0  0  0
 18 47  1  0  0  0  0
 19 20  2  0  0  0  0
 19 43  1  0  0  0  0
 20 21  1  0  0  0  0
 21 44  1  0  0  0  0
 21 45  1  0  0  0  0
 21 46  1  0  0  0  0
M  CHG  1  18   1
M  END
> <s_m_source_file>
AV-unprocessed.smi

> <i_m_source_file_index>
2442

> <i_lp_mmshare_version>
43012

> <i_f3d_flags>
0

> <s_epik_input>
W0NIM11PW0NAQEhdMVtDSDJdW0NIMl1bQ0gyXVtDSDJdW0NASF0xW05IXUMoPU8pW05IXVtDSDJdW0NIMl1jMltjSF1bY0hdbltjSF1jMltDSDNd

> <s_epik_cmdline>
J2VwaWtfcHl0aG9uJywgJy1waCcsICc3LjAnLCAnLXRuJywgJzgnLCAnLW1hJywgJzIwMCcsICctbWV0YWxfYmluZGluZycsICctaW1hZScsICc8aW5maWxlLm1hZT4nLCAnLW9tYWUnLCAnPG91dGZpbGUubWFlPic=

> <r_epik_Ionization_Penalty>
1.07145

> <r_epik_Ionization_Penalty_Charging>
1.0714

> <r_epik_Ionization_Penalty_Neutral>
4.9109e-05

> <r_epik_State_Penalty>
1.12601

> <r_epik_Charging_Adjusted_Penalty>
2.19741

> <i_epik_Tot_Q>
1

> <i_epik_Tot_abs_Q>
1

> <r_epik_Metal_State_Penalty>
1.2173

> <b_epik_Metal_Only>
0

> <s_lp_Force_Field>
OPLS_2005

> <r_lp_Energy>
16.8817

> <b_lp_Chiralities_Consistent>
1

> <s_lp_Variant>
AV-unprocessed.smi:2442-7

> <Gold.Version>
5.8.1

> <Gold.Id.Protein>
6NUR|6NUR_protein|mol2

> <Gold.PLP.Fitness>
45.7831

> <Gold.PLP.PLP>
-36.4256

> <Gold.PLP.part.hbond>
-2.5021

> <Gold.PLP.part.metal>
0.0000

> <Gold.PLP.part.buried>
-1.9739

> <Gold.PLP.part.nonpolar>
-31.9583

> <Gold.PLP.part.repulsive>
0.2346

> <Gold.PLP.ligand.clash>
0.0000

> <Gold.PLP.ligand.torsion>
0.4208

> <Gold.PLP.Chemscore.Hbond>
3.3760

> <Gold.PLP.Chemscore.CHOScore>
0.0000

> <Gold.PLP.Chemscore.Metal>
0.0000

> <Gold.Chemscore.Hbonds>
donor molecule, donor type, donor heavy atom, donor atom, acceptor molecule, acceptor atom, score
      L1  H     9    35       P1  7948  0.62
      L1  H    12    36       P1  7948  0.72
      L1  H    18    47       P1 10186  1.76

> <Gold.PLP.Chemscore.Internal.Correction>
0.0712

> <Gold.Rescore>
     Score         DG    S(hbond)    S(metal)    S(lipo)     H(rot)  DE(clash)    DE(int)     intcor
     19.16     -20.13       2.40        0.00      94.49       1.72       0.54       0.43       ----

> <Gold.Chemscore.Fitness>
19.1579

> <Gold.Chemscore.DG>
-20.1298

> <Gold.Chemscore.ZeroCoef>
-5.4800

> <Gold.Chemscore.Hbond>
2.3978

> <Gold.Chemscore.Metal>
0.0000

> <Gold.Chemscore.Lipo>
94.4916

> <Gold.Chemscore.Internal_Hbond>
0.0000

> <Gold.Chemscore.DEClash>
0.5411

> <Gold.Chemscore.DEInternal>
0.4308

> <Gold.Chemscore.Rot>
1.7244

> <Gold.Chemscore.Internal.Correction>
   9.000000E+99

> <Gold.Chemscore.Hbonds>
donor molecule, donor type, donor heavy atom, donor atom, acceptor molecule, acceptor atom, score
      L1  H     9    35       P1  7948  0.61
      L1  H    12    36       P1  7948  0.70
      L1  H    18    47       P1 10186  0.85

> <Gold.Chemscore.Hbond.Weighted>
-8.0087

> <Gold.Chemscore.Metal.Weighted>
-0.0000

> <Gold.Chemscore.Lipo.Weighted>
-11.0555

> <Gold.Chemscore.Internal_Hbond.Weighted>
0.0000

> <Gold.Chemscore.DEClash.Weighted>
0.5411

> <Gold.Chemscore.DEInternal.Weighted>
0.4308

> <Gold.Chemscore.Rot.Weighted>
4.4145

> <Gold.Chemscore.Internal.Correction.Weighted>
   9.000000E+99

> <Gold.Protein.RotatedTorsions>
[ 6907 6896 6895 6894 ] final -121.94 input  -60.11 | X-H torsion
[ 7974 7965 7964 7962 ] final   66.00 input  175.53 | X-H torsion
[ 8008 7997 7996 7995 ] final  -88.47 input   59.86 | X-H torsion
[ 10167 10162 10161 10158 ] final   47.10 input  -65.29 | X-H torsion
[ 10718 10713 10712 10709 ] final   73.24 input   66.30 | X-H torsion
[ 10763 10752 10751 10750 ] final  151.29 input  -60.55 | X-H torsion
[ 11005 11000 10999 10996 ] final  -71.30 input  -57.11 | X-H torsion

> <Gold.Protein.ActiveResidues>
 VAL166  LYS551  ARG553  GLY616  TRP617  ASP618  TYR619  PRO620  LYS621  CYS622 
 ASP623  PHE694  ASN695  SER759  ASP760  ASP761  ALA762  ILE779  LEU786  VAL792 
 PHE793  MET794  SER795  GLU796  ALA797  LYS798  CYS799  TRP800  GLU811  SER814 

> <Gold.Protein.RotatedAtoms>
  150.8530  133.7758  159.3018 H   0  0  0  0  0  0  0  0  0  0  0  0  # atno 6907 bound_to 6896
  151.5424  135.1066  159.9939 H   0  0  0  0  0  0  0  0  0  0  0  0  # atno 6908 bound_to 6896
  152.4567  133.7695  159.6847 H   0  0  0  0  0  0  0  0  0  0  0  0  # atno 6909 bound_to 6896
  145.8318  139.3143  143.0983 H   0  0  0  0  0  0  0  0  0  0  0  0  # atno 7974 bound_to 7965
  154.6752  140.0553  157.0207 H   0  0  0  0  0  0  0  0  0  0  0  0  # atno 8008 bound_to 7997
  155.1031  140.3231  155.4523 H   0  0  0  0  0  0  0  0  0  0  0  0  # atno 8009 bound_to 7997
  156.2673  140.2027  156.6157 H   0  0  0  0  0  0  0  0  0  0  0  0  # atno 8010 bound_to 7997
  140.3071  144.2865  150.6207 H   0  0  0  0  0  0  0  0  0  0  0  0  # atno 10167 bound_to 10162
  157.6538  130.9618  150.1041 H   0  0  0  0  0  0  0  0  0  0  0  0  # atno 10718 bound_to 10713
  154.1013  135.2845  155.3251 H   0  0  0  0  0  0  0  0  0  0  0  0  # atno 10763 bound_to 10752
  154.6553  135.5354  153.7955 H   0  0  0  0  0  0  0  0  0  0  0  0  # atno 10764 bound_to 10752
  153.0378  135.6520  154.1177 H   0  0  0  0  0  0  0  0  0  0  0  0  # atno 10765 bound_to 10752
  141.1590  133.6814  156.6885 H   0  0  0  0  0  0  0  0  0  0  0  0  # atno 11005 bound_to 11000
  145.9562  140.8870  143.0234 LP  0  0  0  0  0  0  0  0  0  0  0  0  # atno 17320 bound_to 7965
  144.6739  140.1749  143.7411 LP  0  0  0  0  0  0  0  0  0  0  0  0  # atno 17321 bound_to 7965
  140.5600  143.2193  151.7781 LP  0  0  0  0  0  0  0  0  0  0  0  0  # atno 17342 bound_to 10162
  139.4902  144.4361  151.9818 LP  0  0  0  0  0  0  0  0  0  0  0  0  # atno 17343 bound_to 10162
  156.1956  130.3657  149.8854 LP  0  0  0  0  0  0  0  0  0  0  0  0  # atno 17370 bound_to 10713
  156.6771  130.8843  151.3570 LP  0  0  0  0  0  0  0  0  0  0  0  0  # atno 17371 bound_to 10713
  140.3048  134.8134  157.4128 LP  0  0  0  0  0  0  0  0  0  0  0  0  # atno 17394 bound_to 11000
  140.1230  134.5195  155.8168 LP  0  0  0  0  0  0  0  0  0  0  0  0  # atno 17395 bound_to 11000

$$$$
