AV-unprocessed.smi:787|AV-procd|sdf|3728|dock3
  -GOLD-   22720 1163D 1   1.00000     0.00000
 Structure written by MMmdl.
 47 49  0  0  0  0  0  0  0  0  2 V2000
  148.7587  141.1783  154.3409 C   0  0  0  0  0  0  0  0  0  0  0  0
  148.8081  139.7914  154.7758 N   0  0  0  0  0  0  0  0  0  0  0  0
  150.0361  139.1232  154.8832 C   0  0  0  0  0  0  0  0  0  0  0  0
  151.1894  139.8067  154.7009 N   0  0  0  0  0  0  0  0  0  0  0  0
  152.3419  139.1330  154.8059 C   0  0  0  0  0  0  0  0  0  0  0  0
  152.5388  137.8342  155.0781 N   0  0  0  0  0  0  0  0  0  0  0  0
  151.4034  137.1486  155.2657 C   0  0  0  0  0  0  0  0  0  0  0  0
  151.3122  135.8003  155.5619 N   0  0  0  0  0  0  0  0  0  0  0  0
  149.9962  135.6313  155.6501 C   0  0  0  0  0  0  0  0  0  0  0  0
  149.2135  136.7121  155.4578 N   0  0  0  0  0  0  0  0  0  0  0  0
  147.7592  136.7450  155.5380 C   0  0  0  0  0  0  0  0  0  0  0  0
  147.0602  136.3209  154.2257 C   0  0  1  0  0  0  0  0  0  0  0  0
  147.5815  135.0670  153.8259 O   0  0  0  0  0  0  0  0  0  0  0  0
  145.5274  136.2018  154.3598 C   0  0  0  0  0  0  0  0  0  0  0  0
  144.8905  135.7056  153.1120 N   0  3  2  0  0  0  0  0  0  0  0  0
  143.8257  136.6094  152.6204 C   0  0  0  0  0  0  0  0  0  0  0  0
  144.4308  134.2972  153.2028 C   0  0  0  0  0  0  0  0  0  0  0  0
  144.6561  133.5491  151.8994 C   0  0  0  0  0  0  0  0  0  0  0  0
  143.5576  132.9982  151.2058 C   0  0  0  0  0  0  0  0  0  0  0  0
  143.7574  132.3178  149.9889 C   0  0  0  0  0  0  0  0  0  0  0  0
  145.0562  132.1845  149.4612 C   0  0  0  0  0  0  0  0  0  0  0  0
  146.1559  132.7291  150.1519 C   0  0  0  0  0  0  0  0  0  0  0  0
  145.9571  133.4071  151.3702 C   0  0  0  0  0  0  0  0  0  0  0  0
  150.1090  137.7471  155.1845 C   0  0  0  0  0  0  0  0  0  0  0  0
  147.7244  141.5196  154.3030 H   0  0  0  0  0  0  0  0  0  0  0  0
  149.1904  141.2870  153.3455 H   0  0  0  0  0  0  0  0  0  0  0  0
  149.3046  141.8211  155.0323 H   0  0  0  0  0  0  0  0  0  0  0  0
  147.9463  139.2696  154.8398 H   0  0  0  0  0  0  0  0  0  0  0  0
  153.2370  139.7163  154.6485 H   0  0  0  0  0  0  0  0  0  0  0  0
  149.5745  134.6640  155.8817 H   0  0  0  0  0  0  0  0  0  0  0  0
  147.4359  136.1058  156.3579 H   0  0  0  0  0  0  0  0  0  0  0  0
  147.4541  137.7554  155.8143 H   0  0  0  0  0  0  0  0  0  0  0  0
  147.3128  137.0476  153.4534 H   0  0  0  0  0  0  0  0  0  0  0  0
  148.1567  135.1913  153.0869 H   0  0  0  0  0  0  0  0  0  0  0  0
  145.2982  135.5432  155.1963 H   0  0  0  0  0  0  0  0  0  0  0  0
  145.0919  137.1666  154.6205 H   0  0  0  0  0  0  0  0  0  0  0  0
  142.9795  136.6269  153.3089 H   0  0  0  0  0  0  0  0  0  0  0  0
  143.4640  136.2841  151.6446 H   0  0  0  0  0  0  0  0  0  0  0  0
  144.1963  137.6286  152.5100 H   0  0  0  0  0  0  0  0  0  0  0  0
  144.9295  133.7910  154.0314 H   0  0  0  0  0  0  0  0  0  0  0  0
  143.3618  134.2691  153.4188 H   0  0  0  0  0  0  0  0  0  0  0  0
  142.5580  133.0985  151.6027 H   0  0  0  0  0  0  0  0  0  0  0  0
  142.9145  131.8985  149.4594 H   0  0  0  0  0  0  0  0  0  0  0  0
  145.2093  131.6630  148.5278 H   0  0  0  0  0  0  0  0  0  0  0  0
  147.1520  132.6267  149.7471 H   0  0  0  0  0  0  0  0  0  0  0  0
  146.8067  133.8239  151.8913 H   0  0  0  0  0  0  0  0  0  0  0  0
  145.6119  135.7045  152.4056 H   0  0  0  0  0  0  0  0  0  0  0  0
  1  2  1  0  0  0  0
  1 25  1  0  0  0  0
  1 26  1  0  0  0  0
  1 27  1  0  0  0  0
  2  3  1  0  0  0  0
  2 28  1  0  0  0  0
  3 24  1  0  0  0  0
  3  4  2  0  0  0  0
  4  5  1  0  0  0  0
  5  6  2  0  0  0  0
  5 29  1  0  0  0  0
  6  7  1  0  0  0  0
  7 24  2  0  0  0  0
  7  8  1  0  0  0  0
  8  9  2  0  0  0  0
  9 10  1  0  0  0  0
  9 30  1  0  0  0  0
 10 11  1  0  0  0  0
 10 24  1  0  0  0  0
 11 12  1  0  0  0  0
 11 31  1  0  0  0  0
 11 32  1  0  0  0  0
 12 13  1  0  0  0  0
 12 14  1  0  0  0  0
 12 33  1  0  0  0  0
 13 34  1  0  0  0  0
 14 15  1  0  0  0  0
 14 35  1  0  0  0  0
 14 36  1  0  0  0  0
 15 16  1  0  0  0  0
 15 17  1  0  0  0  0
 15 47  1  0  0  0  0
 16 37  1  0  0  0  0
 16 38  1  0  0  0  0
 16 39  1  0  0  0  0
 17 18  1  0  0  0  0
 17 40  1  0  0  0  0
 17 41  1  0  0  0  0
 18 23  1  0  0  0  0
 18 19  2  0  0  0  0
 19 20  1  0  0  0  0
 19 42  1  0  0  0  0
 20 21  2  0  0  0  0
 20 43  1  0  0  0  0
 21 22  1  0  0  0  0
 21 44  1  0  0  0  0
 22 23  2  0  0  0  0
 22 45  1  0  0  0  0
 23 46  1  0  0  0  0
M  CHG  1  15   1
M  END
> <s_m_source_file>
AV-unprocessed.smi

> <i_m_source_file_index>
787

> <i_lp_mmshare_version>
43012

> <i_f3d_flags>
0

> <s_epik_input>
bjFbY0hdbmMoW05IXVtDSDNdKWMoYzEyKW4oW2NIXW4yKVtDSDJdW0NASF0oW09IXSlbQ0gyXU4oW0NIM10pW0NIMl1jM1tjSF1bY0hdW2NIXVtjSF1bY0hdMw==

> <s_epik_cmdline>
J2VwaWtfcHl0aG9uJywgJy1waCcsICc3LjAnLCAnLXRuJywgJzgnLCAnLW1hJywgJzIwMCcsICctbWV0YWxfYmluZGluZycsICctaW1hZScsICc8aW5maWxlLm1hZT4nLCAnLW9tYWUnLCAnPG91dGZpbGUubWFlPic=

> <r_lp_tautomer_probability>
0.999987

> <r_epik_Ionization_Penalty>
0.0526284

> <r_epik_Ionization_Penalty_Charging>
0.0475377

> <r_epik_Ionization_Penalty_Neutral>
0.00509065

> <r_epik_State_Penalty>
0.0404888

> <r_epik_Charging_Adjusted_Penalty>
0.0880265

> <i_epik_Tot_Q>
1

> <i_epik_Tot_abs_Q>
1

> <r_epik_Metal_State_Penalty>
0.040507

> <b_epik_Metal_Only>
0

> <s_lp_Force_Field>
OPLS_2005

> <r_lp_Energy>
14.9507

> <b_lp_Chiralities_Consistent>
1

> <s_lp_Variant>
AV-unprocessed.smi:787-4

> <Gold.Version>
5.8.1

> <Gold.Id.Protein>
6NUR|6NUR_protein|mol2

> <Gold.PLP.Fitness>
43.5103

> <Gold.PLP.PLP>
-38.1489

> <Gold.PLP.part.hbond>
-4.0000

> <Gold.PLP.part.metal>
0.0000

> <Gold.PLP.part.buried>
-4.2237

> <Gold.PLP.part.nonpolar>
-30.6457

> <Gold.PLP.part.repulsive>
0.2589

> <Gold.PLP.ligand.clash>
0.0000

> <Gold.PLP.ligand.torsion>
1.5143

> <Gold.PLP.Chemscore.Hbond>
2.6720

> <Gold.PLP.Chemscore.CHOScore>
0.0000

> <Gold.PLP.Chemscore.Metal>
0.0000

> <Gold.Chemscore.Hbonds>
donor molecule, donor type, donor heavy atom, donor atom, acceptor molecule, acceptor atom, score
      L1  H    13    34       P1  7948  1.00
      P1  H  7989  7998       L1     4  0.90
      P1  H 10752 10763       L1     8  0.66

> <Gold.PLP.Chemscore.Internal.Correction>
0.3739

> <Gold.Rescore>
     Score         DG    S(hbond)    S(metal)    S(lipo)     H(rot)  DE(clash)    DE(int)     intcor
      9.48     -11.85       1.87        0.00      70.80       3.19       0.05       2.32       ----

> <Gold.Chemscore.Fitness>
9.4753

> <Gold.Chemscore.DG>
-11.8451

> <Gold.Chemscore.ZeroCoef>
-5.4800

> <Gold.Chemscore.Hbond>
1.8728

> <Gold.Chemscore.Metal>
0.0000

> <Gold.Chemscore.Lipo>
70.7987

> <Gold.Chemscore.Internal_Hbond>
0.0000

> <Gold.Chemscore.DEClash>
0.0475

> <Gold.Chemscore.DEInternal>
2.3223

> <Gold.Chemscore.Rot>
3.1928

> <Gold.Chemscore.Internal.Correction>
   9.000000E+99

> <Gold.Chemscore.Hbonds>
donor molecule, donor type, donor heavy atom, donor atom, acceptor molecule, acceptor atom, score
      L1  H    13    34       P1  7948  0.95
      P1  H  7989  7998       L1     4  0.18
      P1  H 10752 10763       L1     8  0.07

> <Gold.Chemscore.Hbond.Weighted>
-6.2553

> <Gold.Chemscore.Metal.Weighted>
-0.0000

> <Gold.Chemscore.Lipo.Weighted>
-8.2834

> <Gold.Chemscore.Internal_Hbond.Weighted>
0.0000

> <Gold.Chemscore.DEClash.Weighted>
0.0475

> <Gold.Chemscore.DEInternal.Weighted>
2.3223

> <Gold.Chemscore.Rot.Weighted>
8.1736

> <Gold.Chemscore.Internal.Correction.Weighted>
   9.000000E+99

> <Gold.Protein.RotatedTorsions>
[ 6907 6896 6895 6894 ] final  -94.85 input  -60.11 | X-H torsion
[ 7974 7965 7964 7962 ] final  100.45 input  175.53 | X-H torsion
[ 8008 7997 7996 7995 ] final -164.14 input   59.86 | X-H torsion
[ 10167 10162 10161 10158 ] final   51.67 input  -65.29 | X-H torsion
[ 10718 10713 10712 10709 ] final  174.06 input   66.30 | X-H torsion
[ 10763 10752 10751 10750 ] final   93.81 input  -60.55 | X-H torsion
[ 11005 11000 10999 10996 ] final  -45.02 input  -57.11 | X-H torsion

> <Gold.Protein.ActiveResidues>
 VAL166  LYS551  ARG553  GLY616  TRP617  ASP618  TYR619  PRO620  LYS621  CYS622 
 ASP623  PHE694  ASN695  SER759  ASP760  ASP761  ALA762  ILE779  LEU786  VAL792 
 PHE793  MET794  SER795  GLU796  ALA797  LYS798  CYS799  TRP800  GLU811  SER814 

> <Gold.Protein.RotatedAtoms>
  150.6950  134.1749  159.4225 H   0  0  0  0  0  0  0  0  0  0  0  0  # atno 6907 bound_to 6896
  151.9725  135.0067  160.0563 H   0  0  0  0  0  0  0  0  0  0  0  0  # atno 6908 bound_to 6896
  152.1828  133.4684  159.5004 H   0  0  0  0  0  0  0  0  0  0  0  0  # atno 6909 bound_to 6896
  145.3854  139.2372  143.3381 H   0  0  0  0  0  0  0  0  0  0  0  0  # atno 7974 bound_to 7965
  155.8314  140.0934  157.1790 H   0  0  0  0  0  0  0  0  0  0  0  0  # atno 8008 bound_to 7997
  154.3980  140.1418  156.3679 H   0  0  0  0  0  0  0  0  0  0  0  0  # atno 8009 bound_to 7997
  155.8162  140.3448  155.5489 H   0  0  0  0  0  0  0  0  0  0  0  0  # atno 8010 bound_to 7997
  140.2595  144.3389  150.6322 H   0  0  0  0  0  0  0  0  0  0  0  0  # atno 10167 bound_to 10162
  156.9551  131.0043  151.2940 H   0  0  0  0  0  0  0  0  0  0  0  0  # atno 10718 bound_to 10713
  153.2345  135.4312  155.0632 H   0  0  0  0  0  0  0  0  0  0  0  0  # atno 10763 bound_to 10752
  154.8312  135.3387  154.6738 H   0  0  0  0  0  0  0  0  0  0  0  0  # atno 10764 bound_to 10752
  153.7164  135.7019  153.5080 H   0  0  0  0  0  0  0  0  0  0  0  0  # atno 10765 bound_to 10752
  141.0488  133.6751  156.2954 H   0  0  0  0  0  0  0  0  0  0  0  0  # atno 11005 bound_to 11000
  146.2823  140.4528  142.8771 LP  0  0  0  0  0  0  0  0  0  0  0  0  # atno 17320 bound_to 7965
  144.8478  140.6955  143.6188 LP  0  0  0  0  0  0  0  0  0  0  0  0  # atno 17321 bound_to 7965
  140.5977  143.2167  151.7132 LP  0  0  0  0  0  0  0  0  0  0  0  0  # atno 17342 bound_to 10162
  139.5021  144.3841  152.0346 LP  0  0  0  0  0  0  0  0  0  0  0  0  # atno 17343 bound_to 10162
  157.5695  130.8301  149.8373 LP  0  0  0  0  0  0  0  0  0  0  0  0  # atno 17370 bound_to 10713
  156.0346  130.3755  150.1595 LP  0  0  0  0  0  0  0  0  0  0  0  0  # atno 17371 bound_to 10713
  140.6094  134.5473  157.5531 LP  0  0  0  0  0  0  0  0  0  0  0  0  # atno 17394 bound_to 11000
  139.9334  134.7921  156.0869 LP  0  0  0  0  0  0  0  0  0  0  0  0  # atno 17395 bound_to 11000

$$$$
