AV-unprocessed.smi:1614|AV-procd|sdf|6480|dock1
  -GOLD-   22720 7143D 1   1.00000     0.00000
 Structure written by MMmdl.
 37 38  0  0  0  0  0  0  0  0  1 V2000
  152.6790  143.5174  159.8302 C   0  0  0  0  0  0  0  0  0  0  0  0
  151.4999  143.0499  158.9707 C   0  0  0  0  0  0  0  0  0  0  0  0
  151.5287  143.6530  157.5569 C   0  0  0  0  0  0  0  0  0  0  0  0
  150.5459  143.0195  156.6864 N   0  0  0  0  0  0  0  0  0  0  0  0
  150.5684  141.7300  156.3125 C   0  0  0  0  0  0  0  0  0  0  0  0
  151.4301  140.9311  156.6803 O   0  0  0  0  0  0  0  0  0  0  0  0
  149.4792  141.3226  155.3549 C   0  0  0  0  0  0  0  0  0  0  0  0
  148.4782  142.2586  155.0053 C   0  0  0  0  0  0  0  0  0  0  0  0
  147.4321  141.8704  154.1501 C   0  0  0  0  0  0  0  0  0  0  0  0
  147.4180  140.5478  153.6757 C   0  0  0  0  0  0  0  0  0  0  0  0
  148.3610  139.6398  153.9973 N   0  0  0  0  0  0  0  0  0  0  0  0
  149.3772  140.0041  154.8186 C   0  0  0  0  0  0  0  0  0  0  0  0
  150.3556  139.0238  155.0813 N   0  0  0  0  0  0  0  0  0  0  0  0
  151.1887  138.6949  153.9311 C   0  0  0  0  0  0  0  0  0  0  0  0
  152.3937  137.8525  154.3830 C   0  0  0  0  0  0  0  0  0  0  0  0
  151.9368  136.6954  155.0784 O   0  0  0  0  0  0  0  0  0  0  0  0
  151.1869  137.0305  156.2431 C   0  0  0  0  0  0  0  0  0  0  0  0
  149.9467  137.8470  155.8409 C   0  0  0  0  0  0  0  0  0  0  0  0
  152.6413  143.0639  160.8208 H   0  0  0  0  0  0  0  0  0  0  0  0
  152.6657  144.6001  159.9590 H   0  0  0  0  0  0  0  0  0  0  0  0
  153.6314  143.2445  159.3749 H   0  0  0  0  0  0  0  0  0  0  0  0
  151.5121  141.9613  158.9052 H   0  0  0  0  0  0  0  0  0  0  0  0
  150.5682  143.3173  159.4711 H   0  0  0  0  0  0  0  0  0  0  0  0
  151.3571  144.7301  157.5952 H   0  0  0  0  0  0  0  0  0  0  0  0
  152.5141  143.5111  157.1122 H   0  0  0  0  0  0  0  0  0  0  0  0
  149.8083  143.6067  156.3256 H   0  0  0  0  0  0  0  0  0  0  0  0
  148.4987  143.2661  155.3950 H   0  0  0  0  0  0  0  0  0  0  0  0
  146.6555  142.5673  153.8714 H   0  0  0  0  0  0  0  0  0  0  0  0
  146.6297  140.2095  153.0199 H   0  0  0  0  0  0  0  0  0  0  0  0
  150.5927  138.1380  153.2069 H   0  0  0  0  0  0  0  0  0  0  0  0
  151.5351  139.5991  153.4306 H   0  0  0  0  0  0  0  0  0  0  0  0
  152.9796  137.5400  153.5186 H   0  0  0  0  0  0  0  0  0  0  0  0
  153.0567  138.4368  155.0232 H   0  0  0  0  0  0  0  0  0  0  0  0
  150.8857  136.1129  156.7483 H   0  0  0  0  0  0  0  0  0  0  0  0
  151.8114  137.5898  156.9420 H   0  0  0  0  0  0  0  0  0  0  0  0
  149.3932  138.1520  156.7300 H   0  0  0  0  0  0  0  0  0  0  0  0
  149.2806  137.2306  155.2355 H   0  0  0  0  0  0  0  0  0  0  0  0
  1  2  1  0  0  0  0
  1 19  1  0  0  0  0
  1 20  1  0  0  0  0
  1 21  1  0  0  0  0
  2  3  1  0  0  0  0
  2 22  1  0  0  0  0
  2 23  1  0  0  0  0
  3  4  1  0  0  0  0
  3 24  1  0  0  0  0
  3 25  1  0  0  0  0
  4  5  1  0  0  0  0
  4 26  1  0  0  0  0
  5  6  2  0  0  0  0
  5  7  1  0  0  0  0
  7 12  1  0  0  0  0
  7  8  2  0  0  0  0
  8  9  1  0  0  0  0
  8 27  1  0  0  0  0
  9 10  2  0  0  0  0
  9 28  1  0  0  0  0
 10 11  1  0  0  0  0
 10 29  1  0  0  0  0
 11 12  2  0  0  0  0
 12 13  1  0  0  0  0
 13 18  1  0  0  0  0
 13 14  1  0  0  0  0
 14 15  1  0  0  0  0
 14 30  1  0  0  0  0
 14 31  1  0  0  0  0
 15 16  1  0  0  0  0
 15 32  1  0  0  0  0
 15 33  1  0  0  0  0
 16 17  1  0  0  0  0
 17 18  1  0  0  0  0
 17 34  1  0  0  0  0
 17 35  1  0  0  0  0
 18 36  1  0  0  0  0
 18 37  1  0  0  0  0
M  END
> <s_m_source_file>
AV-unprocessed.smi

> <i_m_source_file_index>
1614

> <i_lp_mmshare_version>
43012

> <i_f3d_flags>
0

> <s_epik_input>
W0NIM11bQ0gyXVtDSDJdW05IXUMoPU8pYzFbY0hdW2NIXVtjSF1uYzFOMltDSDJdW0NIMl1PW0NIMl1bQ0gyXTI=

> <s_epik_cmdline>
J2VwaWtfcHl0aG9uJywgJy1waCcsICc3LjAnLCAnLXRuJywgJzgnLCAnLW1hJywgJzIwMCcsICctbWV0YWxfYmluZGluZycsICctaW1hZScsICc8aW5maWxlLm1hZT4nLCAnLW9tYWUnLCAnPG91dGZpbGUubWFlPic=

> <r_lp_tautomer_probability>
1

> <r_epik_Ionization_Penalty>
1.57986e-05

> <r_epik_Ionization_Penalty_Charging>
0

> <r_epik_Ionization_Penalty_Neutral>
1.57986e-05

> <r_epik_State_Penalty>
-0

> <r_epik_Charging_Adjusted_Penalty>
0

> <i_epik_Tot_Q>
0

> <i_epik_Tot_abs_Q>
0

> <r_epik_Metal_State_Penalty>
-0

> <b_epik_Metal_Only>
0

> <s_lp_Force_Field>
OPLS_2005

> <r_lp_Energy>
23.1296

> <b_lp_Chiralities_Consistent>
1

> <s_lp_Variant>
AV-unprocessed.smi:1614-1

> <Gold.Version>
5.8.1

> <Gold.Id.Protein>
6NUR|6NUR_protein|mol2

> <Gold.PLP.Fitness>
35.5188

> <Gold.PLP.PLP>
-29.6235

> <Gold.PLP.part.hbond>
-1.9951

> <Gold.PLP.part.metal>
0.0000

> <Gold.PLP.part.buried>
0.2052

> <Gold.PLP.part.nonpolar>
-28.5873

> <Gold.PLP.part.repulsive>
0.4127

> <Gold.PLP.ligand.clash>
0.0000

> <Gold.PLP.ligand.torsion>
0.1651

> <Gold.PLP.Chemscore.Hbond>
1.9913

> <Gold.PLP.Chemscore.CHOScore>
0.0000

> <Gold.PLP.Chemscore.Metal>
0.0000

> <Gold.Chemscore.Hbonds>
donor molecule, donor type, donor heavy atom, donor atom, acceptor molecule, acceptor atom, score
      L1  H     4    26       P1  8028  1.00
      P1  H 10752 10765       L1    16  1.00

> <Gold.PLP.Chemscore.Internal.Correction>
0.2518

> <Gold.Rescore>
     Score         DG    S(hbond)    S(metal)    S(lipo)     H(rot)  DE(clash)    DE(int)     intcor
     14.01     -18.07       1.75        0.00      86.68       1.32       2.40       1.66       ----

> <Gold.Chemscore.Fitness>
14.0101

> <Gold.Chemscore.DG>
-18.0732

> <Gold.Chemscore.ZeroCoef>
-5.4800

> <Gold.Chemscore.Hbond>
1.7474

> <Gold.Chemscore.Metal>
0.0000

> <Gold.Chemscore.Lipo>
86.6808

> <Gold.Chemscore.Internal_Hbond>
0.0000

> <Gold.Chemscore.DEClash>
2.4008

> <Gold.Chemscore.DEInternal>
1.6622

> <Gold.Chemscore.Rot>
1.3222

> <Gold.Chemscore.Internal.Correction>
   9.000000E+99

> <Gold.Chemscore.Hbonds>
donor molecule, donor type, donor heavy atom, donor atom, acceptor molecule, acceptor atom, score
      L1  H     4    26       P1  8028  0.98
      P1  H 10752 10765       L1    16  0.48

> <Gold.Chemscore.Hbond.Weighted>
-5.8364

> <Gold.Chemscore.Metal.Weighted>
-0.0000

> <Gold.Chemscore.Lipo.Weighted>
-10.1417

> <Gold.Chemscore.Internal_Hbond.Weighted>
0.0000

> <Gold.Chemscore.DEClash.Weighted>
2.4008

> <Gold.Chemscore.DEInternal.Weighted>
1.6622

> <Gold.Chemscore.Rot.Weighted>
3.3849

> <Gold.Chemscore.Internal.Correction.Weighted>
   9.000000E+99

> <Gold.Protein.RotatedTorsions>
[ 6907 6896 6895 6894 ] final  154.74 input  -60.11 | X-H torsion
[ 7974 7965 7964 7962 ] final -123.97 input  175.53 | X-H torsion
[ 8008 7997 7996 7995 ] final   12.96 input   59.86 | X-H torsion
[ 10167 10162 10161 10158 ] final -167.61 input  -65.29 | X-H torsion
[ 10718 10713 10712 10709 ] final  -76.09 input   66.30 | X-H torsion
[ 10763 10752 10751 10750 ] final -170.91 input  -60.55 | X-H torsion
[ 11005 11000 10999 10996 ] final  -38.07 input  -57.11 | X-H torsion

> <Gold.Protein.ActiveResidues>
 VAL166  LYS551  ARG553  GLY616  TRP617  ASP618  TYR619  PRO620  LYS621  CYS622 
 ASP623  PHE694  ASN695  SER759  ASP760  ASP761  ALA762  ILE779  LEU786  VAL792 
 PHE793  MET794  SER795  GLU796  ALA797  LYS798  CYS799  TRP800  GLU811  SER814 

> <Gold.Protein.RotatedAtoms>
  152.0541  133.4032  159.4389 H   0  0  0  0  0  0  0  0  0  0  0  0  # atno 6907 bound_to 6896
  150.6869  134.3274  159.4822 H   0  0  0  0  0  0  0  0  0  0  0  0  # atno 6908 bound_to 6896
  152.1088  134.9289  160.0618 H   0  0  0  0  0  0  0  0  0  0  0  0  # atno 6909 bound_to 6896
  145.0130  140.7922  143.4427 H   0  0  0  0  0  0  0  0  0  0  0  0  # atno 7974 bound_to 7965
  154.8279  140.2894  155.5742 H   0  0  0  0  0  0  0  0  0  0  0  0  # atno 8008 bound_to 7997
  156.3003  140.2537  156.3129 H   0  0  0  0  0  0  0  0  0  0  0  0  # atno 8009 bound_to 7997
  154.9265  140.0384  157.2015 H   0  0  0  0  0  0  0  0  0  0  0  0  # atno 8010 bound_to 7997
  139.6038  144.0955  152.1771 H   0  0  0  0  0  0  0  0  0  0  0  0  # atno 10167 bound_to 10162
  156.0186  130.4457  150.3141 H   0  0  0  0  0  0  0  0  0  0  0  0  # atno 10718 bound_to 10713
  154.6364  135.2893  155.0156 H   0  0  0  0  0  0  0  0  0  0  0  0  # atno 10763 bound_to 10752
  154.1299  135.6535  153.4924 H   0  0  0  0  0  0  0  0  0  0  0  0  # atno 10764 bound_to 10752
  153.0304  135.5308  154.7212 H   0  0  0  0  0  0  0  0  0  0  0  0  # atno 10765 bound_to 10752
  140.9999  133.6960  156.2004 H   0  0  0  0  0  0  0  0  0  0  0  0  # atno 11005 bound_to 11000
  145.1997  139.2258  143.5199 LP  0  0  0  0  0  0  0  0  0  0  0  0  # atno 17320 bound_to 7965
  146.3473  140.1812  142.8589 LP  0  0  0  0  0  0  0  0  0  0  0  0  # atno 17321 bound_to 7965
  140.0557  144.5897  150.7301 LP  0  0  0  0  0  0  0  0  0  0  0  0  # atno 17342 bound_to 10162
  140.7270  143.2647  151.4086 LP  0  0  0  0  0  0  0  0  0  0  0  0  # atno 17343 bound_to 10162
  157.1243  131.0255  151.2996 LP  0  0  0  0  0  0  0  0  0  0  0  0  # atno 17370 bound_to 10713
  157.4603  130.7649  149.7230 LP  0  0  0  0  0  0  0  0  0  0  0  0  # atno 17371 bound_to 10713
  140.6905  134.4671  157.5588 LP  0  0  0  0  0  0  0  0  0  0  0  0  # atno 17394 bound_to 11000
  139.9033  134.8505  156.1804 LP  0  0  0  0  0  0  0  0  0  0  0  0  # atno 17395 bound_to 11000

$$$$
