AV-unprocessed.smi:518|AV-procd|sdf|2792|dock2
  -GOLD-   2262023263D 1   1.00000     0.00000
 Structure written by MMmdl.
 41 43  0  0  0  0  0  0  0  0  2 V2000
  152.6906  139.6570  154.9208 O   0  0  0  0  0  0  0  0  0  0  0  0
  151.4971  139.0101  155.3021 C   0  0  0  0  0  0  0  0  0  0  0  0
  151.2174  139.2806  156.7869 C   0  0  0  0  0  0  0  0  0  0  0  0
  151.1025  140.7043  157.0647 N   0  0  0  0  0  0  0  0  0  0  0  0
  150.3754  141.6413  156.4029 C   0  0  0  0  0  0  0  0  0  0  0  0
  149.5187  141.3056  155.2091 C   0  0  0  0  0  0  0  0  0  0  0  0
  148.2232  141.9952  155.4445 N   0  3  0  0  0  0  0  0  0  0  0  0
  147.2842  141.8224  154.3068 C   0  0  0  0  0  0  0  0  0  0  0  0
  146.0122  142.6644  154.5034 C   0  0  0  0  0  0  0  0  0  0  0  0
  145.3268  142.3242  155.8333 C   0  0  0  0  0  0  0  0  0  0  0  0
  146.3234  142.4767  156.9898 C   0  0  0  0  0  0  0  0  0  0  0  0
  147.5872  141.6367  156.7420 C   0  0  0  0  0  0  0  0  0  0  0  0
  150.4811  142.8876  156.8719 N   0  0  0  0  0  0  0  0  0  0  0  0
  151.3368  142.7418  157.9455 C   0  0  0  0  0  0  0  0  0  0  0  0
  151.8336  143.6978  158.8599 C   0  0  0  0  0  0  0  0  0  0  0  0
  152.7090  143.3073  159.8944 C   0  0  0  0  0  0  0  0  0  0  0  0
  153.0988  141.9587  160.0286 C   0  0  0  0  0  0  0  0  0  0  0  0
  154.1692  141.4930  161.2987 Cl  0  0  0  0  0  0  0  0  0  0  0  0
  152.6155  140.9910  159.1268 C   0  0  0  0  0  0  0  0  0  0  0  0
  151.7423  141.3859  158.0959 C   0  0  0  0  0  0  0  0  0  0  0  0
  152.4745  140.5017  154.5557 H   0  0  0  0  0  0  0  0  0  0  0  0
  150.6838  139.3760  154.6763 H   0  0  0  0  0  0  0  0  0  0  0  0
  151.5975  137.9401  155.1178 H   0  0  0  0  0  0  0  0  0  0  0  0
  150.2876  138.7944  157.0842 H   0  0  0  0  0  0  0  0  0  0  0  0
  151.9932  138.8496  157.4199 H   0  0  0  0  0  0  0  0  0  0  0  0
  150.0130  141.6864  154.3145 H   0  0  0  0  0  0  0  0  0  0  0  0
  149.3639  140.2348  155.0822 H   0  0  0  0  0  0  0  0  0  0  0  0
  147.7718  142.1234  153.3787 H   0  0  0  0  0  0  0  0  0  0  0  0
  147.0271  140.7669  154.2030 H   0  0  0  0  0  0  0  0  0  0  0  0
  146.2686  143.7246  154.4843 H   0  0  0  0  0  0  0  0  0  0  0  0
  145.3229  142.4980  153.6749 H   0  0  0  0  0  0  0  0  0  0  0  0
  144.4637  142.9720  155.9903 H   0  0  0  0  0  0  0  0  0  0  0  0
  144.9491  141.3012  155.8035 H   0  0  0  0  0  0  0  0  0  0  0  0
  146.5979  143.5267  157.1023 H   0  0  0  0  0  0  0  0  0  0  0  0
  145.8547  142.1771  157.9276 H   0  0  0  0  0  0  0  0  0  0  0  0
  147.3364  140.5746  156.7427 H   0  0  0  0  0  0  0  0  0  0  0  0
  148.2841  141.7966  157.5651 H   0  0  0  0  0  0  0  0  0  0  0  0
  151.5417  144.7334  158.7669 H   0  0  0  0  0  0  0  0  0  0  0  0
  153.0830  144.0468  160.5873 H   0  0  0  0  0  0  0  0  0  0  0  0
  152.9130  139.9577  159.2276 H   0  0  0  0  0  0  0  0  0  0  0  0
  148.4383  142.9817  155.4859 H   0  0  0  0  0  0  0  0  0  0  0  0
  1  2  1  0  0  0  0
  1 21  1  0  0  0  0
  2  3  1  0  0  0  0
  2 22  1  0  0  0  0
  2 23  1  0  0  0  0
  3  4  1  0  0  0  0
  3 24  1  0  0  0  0
  3 25  1  0  0  0  0
  4 20  1  0  0  0  0
  4  5  1  0  0  0  0
  5  6  1  0  0  0  0
  5 13  2  0  0  0  0
  6  7  1  0  0  0  0
  6 26  1  0  0  0  0
  6 27  1  0  0  0  0
  7 12  1  0  0  0  0
  7  8  1  0  0  0  0
  7 41  1  0  0  0  0
  8  9  1  0  0  0  0
  8 28  1  0  0  0  0
  8 29  1  0  0  0  0
  9 10  1  0  0  0  0
  9 30  1  0  0  0  0
  9 31  1  0  0  0  0
 10 11  1  0  0  0  0
 10 32  1  0  0  0  0
 10 33  1  0  0  0  0
 11 12  1  0  0  0  0
 11 34  1  0  0  0  0
 11 35  1  0  0  0  0
 12 36  1  0  0  0  0
 12 37  1  0  0  0  0
 13 14  1  0  0  0  0
 14 20  2  0  0  0  0
 14 15  1  0  0  0  0
 15 16  2  0  0  0  0
 15 38  1  0  0  0  0
 16 17  1  0  0  0  0
 16 39  1  0  0  0  0
 17 18  1  0  0  0  0
 17 19  2  0  0  0  0
 19 20  1  0  0  0  0
 19 40  1  0  0  0  0
M  CHG  1   7   1
M  END
> <s_m_source_file>
AV-unprocessed.smi

> <i_m_source_file_index>
518

> <i_lp_mmshare_version>
43012

> <i_f3d_flags>
0

> <s_epik_input>
W2NIXTFbY0hdYyhDbClbY0hdYyhjMTIpbihbQ0gyXVtDSDJdW09IXSljKG4yKVtDSDJdTjNbQ0gyXVtDSDJdW0NIMl1bQ0gyXVtDSDJdMw==

> <s_epik_cmdline>
J2VwaWtfcHl0aG9uJywgJy1waCcsICc3LjAnLCAnLXRuJywgJzgnLCAnLW1hJywgJzIwMCcsICctbWV0YWxfYmluZGluZycsICctaW1hZScsICc8aW5maWxlLm1hZT4nLCAnLW9tYWUnLCAnPG91dGZpbGUubWFlPic=

> <r_epik_Ionization_Penalty>
0.173682

> <r_epik_Ionization_Penalty_Charging>
0.172202

> <r_epik_Ionization_Penalty_Neutral>
0.00148029

> <r_epik_State_Penalty>
0.185703

> <r_epik_Charging_Adjusted_Penalty>
0.357905

> <i_epik_Tot_Q>
1

> <i_epik_Tot_abs_Q>
1

> <r_epik_Metal_State_Penalty>
0.188036

> <b_epik_Metal_Only>
0

> <s_lp_Force_Field>
OPLS_2005

> <r_lp_Energy>
19.9694

> <b_lp_Chiralities_Consistent>
1

> <s_lp_Variant>
AV-unprocessed.smi:518-1

> <Gold.Version>
5.8.1

> <Gold.Id.Protein>
6NUR|6NUR_protein|mol2

> <Gold.PLP.Fitness>
53.9934

> <Gold.PLP.PLP>
-45.5547

> <Gold.PLP.part.hbond>
-3.0000

> <Gold.PLP.part.metal>
0.0000

> <Gold.PLP.part.buried>
-5.9573

> <Gold.PLP.part.nonpolar>
-39.4229

> <Gold.PLP.part.repulsive>
2.9353

> <Gold.PLP.ligand.clash>
0.0000

> <Gold.PLP.ligand.torsion>
0.2959

> <Gold.PLP.Chemscore.Hbond>
3.0000

> <Gold.PLP.Chemscore.CHOScore>
0.0000

> <Gold.PLP.Chemscore.Metal>
0.0000

> <Gold.Chemscore.Hbonds>
donor molecule, donor type, donor heavy atom, donor atom, acceptor molecule, acceptor atom, score
      L1  H     7    41       P1  8028  2.00
      P1  H  7997  8009       L1     1  0.80

> <Gold.PLP.Chemscore.Internal.Correction>
0.0305

> <Gold.Rescore>
     Score         DG    S(hbond)    S(metal)    S(lipo)     H(rot)  DE(clash)    DE(int)     intcor
     16.63     -20.23       1.92        0.00     116.97       2.09       2.65       0.95       ----

> <Gold.Chemscore.Fitness>
16.6346

> <Gold.Chemscore.DG>
-20.2270

> <Gold.Chemscore.ZeroCoef>
-5.4800

> <Gold.Chemscore.Hbond>
1.9222

> <Gold.Chemscore.Metal>
0.0000

> <Gold.Chemscore.Lipo>
116.9676

> <Gold.Chemscore.Internal_Hbond>
0.0000

> <Gold.Chemscore.DEClash>
2.6469

> <Gold.Chemscore.DEInternal>
0.9455

> <Gold.Chemscore.Rot>
2.0931

> <Gold.Chemscore.Internal.Correction>
   9.000000E+99

> <Gold.Chemscore.Hbonds>
donor molecule, donor type, donor heavy atom, donor atom, acceptor molecule, acceptor atom, score
      L1  H     7    41       P1  8028  1.00
      P1  H  7997  8009       L1     1  0.20

> <Gold.Chemscore.Hbond.Weighted>
-6.4201

> <Gold.Chemscore.Metal.Weighted>
-0.0000

> <Gold.Chemscore.Lipo.Weighted>
-13.6852

> <Gold.Chemscore.Internal_Hbond.Weighted>
0.0000

> <Gold.Chemscore.DEClash.Weighted>
2.6469

> <Gold.Chemscore.DEInternal.Weighted>
0.9455

> <Gold.Chemscore.Rot.Weighted>
5.3583

> <Gold.Chemscore.Internal.Correction.Weighted>
   9.000000E+99

> <Gold.Protein.RotatedTorsions>
[ 6907 6896 6895 6894 ] final  -32.51 input  -60.11 | X-H torsion
[ 7974 7965 7964 7962 ] final -108.89 input  175.53 | X-H torsion
[ 8008 7997 7996 7995 ] final -149.58 input   59.86 | X-H torsion
[ 10167 10162 10161 10158 ] final   49.96 input  -65.29 | X-H torsion
[ 10718 10713 10712 10709 ] final    4.00 input   66.30 | X-H torsion
[ 10763 10752 10751 10750 ] final -161.92 input  -60.55 | X-H torsion
[ 11005 11000 10999 10996 ] final  -47.04 input  -57.11 | X-H torsion

> <Gold.Protein.ActiveResidues>
 VAL166  LYS551  ARG553  GLY616  TRP617  ASP618  TYR619  PRO620  LYS621  CYS622 
 ASP623  PHE694  ASN695  SER759  ASP760  ASP761  ALA762  ILE779  LEU786  VAL792 
 PHE793  MET794  SER795  GLU796  ALA797  LYS798  CYS799  TRP800  GLU811  SER814 

> <Gold.Protein.RotatedAtoms>
  151.0778  134.9839  159.8340 H   0  0  0  0  0  0  0  0  0  0  0  0  # atno 6907 bound_to 6896
  152.5416  134.2219  159.8801 H   0  0  0  0  0  0  0  0  0  0  0  0  # atno 6908 bound_to 6896
  151.2247  133.4439  159.2635 H   0  0  0  0  0  0  0  0  0  0  0  0  # atno 6909 bound_to 6896
  145.1873  140.8998  143.3445 H   0  0  0  0  0  0  0  0  0  0  0  0  # atno 7974 bound_to 7965
  155.6100  140.0670  157.2709 H   0  0  0  0  0  0  0  0  0  0  0  0  # atno 8008 bound_to 7997
  154.4256  140.1803  156.1310 H   0  0  0  0  0  0  0  0  0  0  0  0  # atno 8009 bound_to 7997
  156.0093  140.3328  155.6927 H   0  0  0  0  0  0  0  0  0  0  0  0  # atno 8010 bound_to 7997
  140.2774  144.3196  150.6273 H   0  0  0  0  0  0  0  0  0  0  0  0  # atno 10167 bound_to 10162
  156.8862  130.5671  149.5651 H   0  0  0  0  0  0  0  0  0  0  0  0  # atno 10718 bound_to 10713
  154.7260  135.3036  154.8969 H   0  0  0  0  0  0  0  0  0  0  0  0  # atno 10763 bound_to 10752
  153.9827  135.6728  153.4755 H   0  0  0  0  0  0  0  0  0  0  0  0  # atno 10764 bound_to 10752
  153.0876  135.4976  154.8546 H   0  0  0  0  0  0  0  0  0  0  0  0  # atno 10765 bound_to 10752
  141.0616  133.6707  156.3241 H   0  0  0  0  0  0  0  0  0  0  0  0  # atno 11005 bound_to 11000
  145.0076  139.3539  143.6136 LP  0  0  0  0  0  0  0  0  0  0  0  0  # atno 17320 bound_to 7965
  146.3442  139.9325  142.8751 LP  0  0  0  0  0  0  0  0  0  0  0  0  # atno 17321 bound_to 7965
  140.5840  143.2171  151.7376 LP  0  0  0  0  0  0  0  0  0  0  0  0  # atno 17342 bound_to 10162
  139.4972  144.4038  152.0153 LP  0  0  0  0  0  0  0  0  0  0  0  0  # atno 17343 bound_to 10162
  156.0652  130.5697  150.9274 LP  0  0  0  0  0  0  0  0  0  0  0  0  # atno 17370 bound_to 10713
  157.6111  131.0936  150.8793 LP  0  0  0  0  0  0  0  0  0  0  0  0  # atno 17371 bound_to 10713
  140.5857  134.5701  157.5489 LP  0  0  0  0  0  0  0  0  0  0  0  0  # atno 17394 bound_to 11000
  139.9438  134.7739  156.0612 LP  0  0  0  0  0  0  0  0  0  0  0  0  # atno 17395 bound_to 11000

$$$$
