AV-unprocessed.smi:2241|AV-procd|sdf|9058|dock4
  -GOLD-   2272012263D 1   1.00000     0.00000
 Structure written by MMmdl.
 45 47  0  0  0  0  0  0  0  0  1 V2000
  144.2583  145.5805  159.3875 C   0  0  0  0  0  0  0  0  0  0  0  0
  144.3230  145.7118  157.8795 C   0  0  0  0  0  0  0  0  0  0  0  0
  144.1548  146.9701  157.2692 C   0  0  0  0  0  0  0  0  0  0  0  0
  144.2169  147.0848  155.8687 C   0  0  0  0  0  0  0  0  0  0  0  0
  144.4479  145.9451  155.0741 C   0  0  0  0  0  0  0  0  0  0  0  0
  144.5194  146.1156  153.3566 Cl  0  0  0  0  0  0  0  0  0  0  0  0
  144.6213  144.6763  155.6704 C   0  0  0  0  0  0  0  0  0  0  0  0
  144.8450  143.6059  154.8291 O   0  0  0  0  0  0  0  0  0  0  0  0
  145.4976  142.4575  155.3528 C   0  0  0  0  0  0  0  0  0  0  0  0
  146.7619  142.1858  154.5180 C   0  0  2  0  0  0  0  0  0  0  0  0
  146.3599  141.8165  153.2152 O   0  0  0  0  0  0  0  0  0  0  0  0
  147.6388  141.0360  155.0673 C   0  0  0  0  0  0  0  0  0  0  0  0
  148.8337  141.5126  155.7867 N   0  0  0  0  0  0  0  0  0  0  0  0
  148.6132  142.2207  156.9847 C   0  0  0  0  0  0  0  0  0  0  0  0
  149.5921  142.6920  157.6891 N   0  0  0  0  0  0  0  0  0  0  0  0
  150.9116  142.4972  157.2650 C   0  0  0  0  0  0  0  0  0  0  0  0
  152.0212  143.1075  158.1103 C   0  0  0  0  0  0  0  0  0  0  0  0
  151.9947  142.7727  159.6115 C   0  0  0  0  0  0  0  0  0  0  0  0
  152.4299  144.2187  159.8753 C   0  0  0  0  0  0  0  0  0  0  0  0
  151.8263  144.5785  158.5130 C   0  0  0  0  0  0  0  0  0  0  0  0
  151.1748  141.8147  156.1253 C   0  0  0  0  0  0  0  0  0  0  0  0
  150.0900  141.2609  155.3154 C   0  0  0  0  0  0  0  0  0  0  0  0
  150.2943  140.6200  154.2842 O   0  0  0  0  0  0  0  0  0  0  0  0
  144.5571  144.5715  157.0838 C   0  0  0  0  0  0  0  0  0  0  0  0
  143.7611  146.4405  159.8376 H   0  0  0  0  0  0  0  0  0  0  0  0
  145.2640  145.5094  159.8023 H   0  0  0  0  0  0  0  0  0  0  0  0
  143.7050  144.6849  159.6714 H   0  0  0  0  0  0  0  0  0  0  0  0
  143.9779  147.8496  157.8710 H   0  0  0  0  0  0  0  0  0  0  0  0
  144.0873  148.0507  155.4030 H   0  0  0  0  0  0  0  0  0  0  0  0
  145.7739  142.6750  156.3844 H   0  0  0  0  0  0  0  0  0  0  0  0
  144.8415  141.5853  155.3588 H   0  0  0  0  0  0  0  0  0  0  0  0
  147.3559  143.0973  154.4438 H   0  0  0  0  0  0  0  0  0  0  0  0
  145.4183  141.7339  153.2063 H   0  0  0  0  0  0  0  0  0  0  0  0
  147.0288  140.3787  155.6903 H   0  0  0  0  0  0  0  0  0  0  0  0
  147.9665  140.4028  154.2402 H   0  0  0  0  0  0  0  0  0  0  0  0
  147.5678  142.3485  157.2708 H   0  0  0  0  0  0  0  0  0  0  0  0
  153.0056  142.9331  157.6723 H   0  0  0  0  0  0  0  0  0  0  0  0
  150.9947  142.5650  159.9971 H   0  0  0  0  0  0  0  0  0  0  0  0
  152.7132  142.0142  159.9231 H   0  0  0  0  0  0  0  0  0  0  0  0
  151.9468  144.6939  160.7298 H   0  0  0  0  0  0  0  0  0  0  0  0
  153.5144  144.3372  159.9034 H   0  0  0  0  0  0  0  0  0  0  0  0
  152.4076  145.2932  157.9296 H   0  0  0  0  0  0  0  0  0  0  0  0
  150.7781  144.8749  158.5878 H   0  0  0  0  0  0  0  0  0  0  0  0
  152.1957  141.6744  155.8007 H   0  0  0  0  0  0  0  0  0  0  0  0
  144.6844  143.6228  157.5826 H   0  0  0  0  0  0  0  0  0  0  0  0
  1  2  1  0  0  0  0
  1 25  1  0  0  0  0
  1 26  1  0  0  0  0
  1 27  1  0  0  0  0
  2 24  1  0  0  0  0
  2  3  2  0  0  0  0
  3  4  1  0  0  0  0
  3 28  1  0  0  0  0
  4  5  2  0  0  0  0
  4 29  1  0  0  0  0
  5  6  1  0  0  0  0
  5  7  1  0  0  0  0
  7  8  1  0  0  0  0
  7 24  2  0  0  0  0
  8  9  1  0  0  0  0
  9 10  1  0  0  0  0
  9 30  1  0  0  0  0
  9 31  1  0  0  0  0
 10 11  1  0  0  0  0
 10 12  1  0  0  0  0
 10 32  1  0  0  0  0
 11 33  1  0  0  0  0
 12 13  1  0  0  0  0
 12 34  1  0  0  0  0
 12 35  1  0  0  0  0
 13 22  1  0  0  0  0
 13 14  1  0  0  0  0
 14 15  2  0  0  0  0
 14 36  1  0  0  0  0
 15 16  1  0  0  0  0
 16 17  1  0  0  0  0
 16 21  2  0  0  0  0
 17 20  1  0  0  0  0
 17 18  1  0  0  0  0
 17 37  1  0  0  0  0
 18 19  1  0  0  0  0
 18 38  1  0  0  0  0
 18 39  1  0  0  0  0
 19 20  1  0  0  0  0
 19 40  1  0  0  0  0
 19 41  1  0  0  0  0
 20 42  1  0  0  0  0
 20 43  1  0  0  0  0
 21 22  1  0  0  0  0
 21 44  1  0  0  0  0
 22 23  2  0  0  0  0
 24 45  1  0  0  0  0
M  END
> <s_m_source_file>
AV-unprocessed.smi

> <i_m_source_file_index>
2241

> <i_lp_mmshare_version>
43012

> <i_f3d_flags>
0

> <s_epik_input>
W0NIM11jMVtjSF1bY0hdYyhDbCljKFtjSF0xKU9bQ0gyXVtDQEhdKFtPSF0pW0NIMl1uMltjSF1uYyhbY0hdYzI9TylbQ0hdM1tDSDJdW0NIMl1bQ0gyXTM=

> <s_epik_cmdline>
J2VwaWtfcHl0aG9uJywgJy1waCcsICc3LjAnLCAnLXRuJywgJzgnLCAnLW1hJywgJzIwMCcsICctbWV0YWxfYmluZGluZycsICctaW1hZScsICc8aW5maWxlLm1hZT4nLCAnLW9tYWUnLCAnPG91dGZpbGUubWFlPic=

> <r_lp_tautomer_probability>
1

> <r_epik_Ionization_Penalty>
1.78212e-05

> <r_epik_Ionization_Penalty_Charging>
5.61663e-08

> <r_epik_Ionization_Penalty_Neutral>
1.7765e-05

> <r_epik_State_Penalty>
-0

> <r_epik_Charging_Adjusted_Penalty>
5.61663e-08

> <i_epik_Tot_Q>
0

> <i_epik_Tot_abs_Q>
0

> <r_epik_Metal_State_Penalty>
-0

> <b_epik_Metal_Only>
0

> <s_lp_Force_Field>
OPLS_2005

> <r_lp_Energy>
31.1581

> <b_lp_Chiralities_Consistent>
1

> <s_lp_Variant>
AV-unprocessed.smi:2241-1

> <Gold.Version>
5.8.1

> <Gold.Id.Protein>
6NUR|6NUR_protein|mol2

> <Gold.PLP.Fitness>
46.1310

> <Gold.PLP.PLP>
-43.0490

> <Gold.PLP.part.hbond>
-2.0000

> <Gold.PLP.part.metal>
0.0000

> <Gold.PLP.part.buried>
-6.9979

> <Gold.PLP.part.nonpolar>
-35.6203

> <Gold.PLP.part.repulsive>
0.4349

> <Gold.PLP.ligand.clash>
0.0000

> <Gold.PLP.ligand.torsion>
1.5355

> <Gold.PLP.Chemscore.Hbond>
1.9199

> <Gold.PLP.Chemscore.CHOScore>
0.0000

> <Gold.PLP.Chemscore.Metal>
0.0000

> <Gold.Chemscore.Hbonds>
donor molecule, donor type, donor heavy atom, donor atom, acceptor molecule, acceptor atom, score
      L1  H    11    33       P1 10175  0.18
      P1  H  7989  7998       L1    23  0.83

> <Gold.PLP.Chemscore.Internal.Correction>
0.3934

> <Gold.Rescore>
     Score         DG    S(hbond)    S(metal)    S(lipo)     H(rot)  DE(clash)    DE(int)     intcor
     14.13     -15.86       0.97        0.00     112.98       2.38       0.18       1.55       ----

> <Gold.Chemscore.Fitness>
14.1260

> <Gold.Chemscore.DG>
-15.8582

> <Gold.Chemscore.ZeroCoef>
-5.4800

> <Gold.Chemscore.Hbond>
0.9737

> <Gold.Chemscore.Metal>
0.0000

> <Gold.Chemscore.Lipo>
112.9844

> <Gold.Chemscore.Internal_Hbond>
0.0000

> <Gold.Chemscore.DEClash>
0.1831

> <Gold.Chemscore.DEInternal>
1.5491

> <Gold.Chemscore.Rot>
2.3801

> <Gold.Chemscore.Internal.Correction>
   9.000000E+99

> <Gold.Chemscore.Hbonds>
donor molecule, donor type, donor heavy atom, donor atom, acceptor molecule, acceptor atom, score
      P1  H  7989  7998       L1    23  0.76

> <Gold.Chemscore.Hbond.Weighted>
-3.2520

> <Gold.Chemscore.Metal.Weighted>
-0.0000

> <Gold.Chemscore.Lipo.Weighted>
-13.2192

> <Gold.Chemscore.Internal_Hbond.Weighted>
0.0000

> <Gold.Chemscore.DEClash.Weighted>
0.1831

> <Gold.Chemscore.DEInternal.Weighted>
1.5491

> <Gold.Chemscore.Rot.Weighted>
6.0931

> <Gold.Chemscore.Internal.Correction.Weighted>
   9.000000E+99

> <Gold.Protein.RotatedTorsions>
[ 6907 6896 6895 6894 ] final   18.15 input  -60.11 | X-H torsion
[ 7974 7965 7964 7962 ] final   35.51 input  175.53 | X-H torsion
[ 8008 7997 7996 7995 ] final  105.24 input   59.86 | X-H torsion
[ 10167 10162 10161 10158 ] final  -69.14 input  -65.29 | X-H torsion
[ 10718 10713 10712 10709 ] final -122.21 input   66.30 | X-H torsion
[ 10763 10752 10751 10750 ] final  113.63 input  -60.55 | X-H torsion
[ 11005 11000 10999 10996 ] final   67.10 input  -57.11 | X-H torsion

> <Gold.Protein.ActiveResidues>
 VAL166  LYS551  ARG553  GLY616  TRP617  ASP618  TYR619  PRO620  LYS621  CYS622 
 ASP623  PHE694  ASN695  SER759  ASP760  ASP761  ALA762  ILE779  LEU786  VAL792 
 PHE793  MET794  SER795  GLU796  ALA797  LYS798  CYS799  TRP800  GLU811  SER814 

> <Gold.Protein.RotatedAtoms>
  151.8608  135.0525  160.0468 H   0  0  0  0  0  0  0  0  0  0  0  0  # atno 6907 bound_to 6896
  152.2665  133.5339  159.5421 H   0  0  0  0  0  0  0  0  0  0  0  0  # atno 6908 bound_to 6896
  150.7135  134.0674  159.3895 H   0  0  0  0  0  0  0  0  0  0  0  0  # atno 6909 bound_to 6896
  146.1277  139.6133  142.9247 H   0  0  0  0  0  0  0  0  0  0  0  0  # atno 7974 bound_to 7965
  156.1642  140.3134  155.8860 H   0  0  0  0  0  0  0  0  0  0  0  0  # atno 8008 bound_to 7997
  155.3720  140.0482  157.3062 H   0  0  0  0  0  0  0  0  0  0  0  0  # atno 8009 bound_to 7997
  154.5176  140.2187  155.9047 H   0  0  0  0  0  0  0  0  0  0  0  0  # atno 8010 bound_to 7997
  140.5453  143.2313  151.7013 H   0  0  0  0  0  0  0  0  0  0  0  0  # atno 10167 bound_to 10162
  156.1400  130.6459  150.9756 H   0  0  0  0  0  0  0  0  0  0  0  0  # atno 10718 bound_to 10713
  153.4954  135.3649  155.2513 H   0  0  0  0  0  0  0  0  0  0  0  0  # atno 10763 bound_to 10752
  154.8750  135.3987  154.3540 H   0  0  0  0  0  0  0  0  0  0  0  0  # atno 10764 bound_to 10752
  153.4167  135.7079  153.6388 H   0  0  0  0  0  0  0  0  0  0  0  0  # atno 10765 bound_to 10752
  139.9791  134.6773  156.0296 H   0  0  0  0  0  0  0  0  0  0  0  0  # atno 11005 bound_to 11000
  145.5328  141.0426  143.2373 LP  0  0  0  0  0  0  0  0  0  0  0  0  # atno 17320 bound_to 7965
  144.7659  139.6846  143.7215 LP  0  0  0  0  0  0  0  0  0  0  0  0  # atno 17321 bound_to 7965
  139.5005  144.3904  152.0286 LP  0  0  0  0  0  0  0  0  0  0  0  0  # atno 17342 bound_to 10162
  140.3016  144.3640  150.6058 LP  0  0  0  0  0  0  0  0  0  0  0  0  # atno 17343 bound_to 10162
  157.6567  131.0888  150.7931 LP  0  0  0  0  0  0  0  0  0  0  0  0  # atno 17370 bound_to 10713
  156.8007  130.4920  149.5370 LP  0  0  0  0  0  0  0  0  0  0  0  0  # atno 17371 bound_to 10713
  141.1465  133.6555  156.3884 LP  0  0  0  0  0  0  0  0  0  0  0  0  # atno 17394 bound_to 11000
  140.5133  134.6374  157.5292 LP  0  0  0  0  0  0  0  0  0  0  0  0  # atno 17395 bound_to 11000

$$$$
