AV-unprocessed.smi:933|AV-procd|sdf|4201|dock3
  -GOLD-   22720 2103D 1   1.00000     0.00000
 Structure written by MMmdl.
 42 43  0  0  0  0  0  0  0  0  1 V2000
  145.8679  129.2306  152.4425 C   0  0  0  0  0  0  0  0  0  0  0  0
  146.2146  130.6073  153.0192 C   0  0  0  0  0  0  0  0  0  0  0  0
  145.8483  131.7231  152.0986 C   0  0  0  0  0  0  0  0  0  0  0  0
  146.1140  133.0067  152.3548 N   0  0  0  0  0  0  0  0  0  0  0  0
  145.7007  133.8588  151.3259 C   0  0  0  0  0  0  0  0  0  0  0  0
  145.9177  135.3367  151.4465 C   0  0  0  0  0  0  0  0  0  0  0  0
  144.6086  136.0953  151.7033 C   0  0  0  0  0  0  0  0  0  0  0  0
  144.8826  137.4557  152.1588 N   0  0  0  0  0  0  0  0  0  0  0  0
  145.7280  137.8306  153.1340 C   0  0  0  0  0  0  0  0  0  0  0  0
  146.3865  137.0128  153.7739 O   0  0  0  0  0  0  0  0  0  0  0  0
  145.7837  139.1563  153.3449 N   0  0  0  0  0  0  0  0  0  0  0  0
  146.6306  139.8164  154.3344 C   0  0  2  0  0  0  0  0  0  0  0  0
  146.1789  141.2698  154.5909 C   0  0  0  0  0  0  0  0  0  0  0  0
  147.3061  142.1666  154.0763 C   0  0  0  0  0  0  0  0  0  0  0  0
  148.5600  141.3092  154.2101 C   0  0  0  0  0  0  0  0  0  0  0  0
  148.0883  139.9019  153.8344 C   0  0  1  0  0  0  0  0  0  0  0  0
  148.9942  138.7849  154.3707 C   0  0  0  0  0  0  0  0  0  0  0  0
  145.1253  133.1942  150.2715 C   0  0  0  0  0  0  0  0  0  0  0  0
  145.0840  131.4723  150.5333 S   0  0  0  0  0  0  0  0  0  0  0  0
  146.1462  128.4377  153.1370 H   0  0  0  0  0  0  0  0  0  0  0  0
  146.3954  129.0531  151.5047 H   0  0  0  0  0  0  0  0  0  0  0  0
  144.7987  129.1439  152.2480 H   0  0  0  0  0  0  0  0  0  0  0  0
  145.6973  130.7535  153.9679 H   0  0  0  0  0  0  0  0  0  0  0  0
  147.2824  130.6634  153.2341 H   0  0  0  0  0  0  0  0  0  0  0  0
  146.6214  135.5428  152.2541 H   0  0  0  0  0  0  0  0  0  0  0  0
  146.3864  135.7165  150.5375 H   0  0  0  0  0  0  0  0  0  0  0  0
  144.0147  136.1304  150.7885 H   0  0  0  0  0  0  0  0  0  0  0  0
  144.0182  135.5711  152.4564 H   0  0  0  0  0  0  0  0  0  0  0  0
  144.3719  138.1914  151.6922 H   0  0  0  0  0  0  0  0  0  0  0  0
  145.2035  139.7518  152.7723 H   0  0  0  0  0  0  0  0  0  0  0  0
  146.5935  139.2628  155.2750 H   0  0  0  0  0  0  0  0  0  0  0  0
  145.2247  141.5173  154.1237 H   0  0  0  0  0  0  0  0  0  0  0  0
  146.0562  141.4221  155.6640 H   0  0  0  0  0  0  0  0  0  0  0  0
  147.1355  142.4047  153.0255 H   0  0  0  0  0  0  0  0  0  0  0  0
  147.3781  143.1065  154.6242 H   0  0  0  0  0  0  0  0  0  0  0  0
  149.3764  141.6606  153.5783 H   0  0  0  0  0  0  0  0  0  0  0  0
  148.9063  141.3287  155.2447 H   0  0  0  0  0  0  0  0  0  0  0  0
  148.0912  139.8479  152.7438 H   0  0  0  0  0  0  0  0  0  0  0  0
  149.0459  138.8025  155.4598 H   0  0  0  0  0  0  0  0  0  0  0  0
  150.0094  138.8874  153.9867 H   0  0  0  0  0  0  0  0  0  0  0  0
  148.6226  137.8045  154.0705 H   0  0  0  0  0  0  0  0  0  0  0  0
  144.7297  133.6112  149.3574 H   0  0  0  0  0  0  0  0  0  0  0  0
  1  2  1  0  0  0  0
  1 20  1  0  0  0  0
  1 21  1  0  0  0  0
  1 22  1  0  0  0  0
  2  3  1  0  0  0  0
  2 23  1  0  0  0  0
  2 24  1  0  0  0  0
  3 19  1  0  0  0  0
  3  4  2  0  0  0  0
  4  5  1  0  0  0  0
  5  6  1  0  0  0  0
  5 18  2  0  0  0  0
  6  7  1  0  0  0  0
  6 25  1  0  0  0  0
  6 26  1  0  0  0  0
  7  8  1  0  0  0  0
  7 27  1  0  0  0  0
  7 28  1  0  0  0  0
  8  9  1  0  0  0  0
  8 29  1  0  0  0  0
  9 10  2  0  0  0  0
  9 11  1  0  0  0  0
 11 12  1  0  0  0  0
 11 30  1  0  0  0  0
 12 16  1  0  0  0  0
 12 13  1  0  0  0  0
 12 31  1  0  0  0  0
 13 14  1  0  0  0  0
 13 32  1  0  0  0  0
 13 33  1  0  0  0  0
 14 15  1  0  0  0  0
 14 34  1  0  0  0  0
 14 35  1  0  0  0  0
 15 16  1  0  0  0  0
 15 36  1  0  0  0  0
 15 37  1  0  0  0  0
 16 17  1  0  0  0  0
 16 38  1  0  0  0  0
 17 39  1  0  0  0  0
 17 40  1  0  0  0  0
 17 41  1  0  0  0  0
 18 19  1  0  0  0  0
 18 42  1  0  0  0  0
M  END
> <s_m_source_file>
AV-unprocessed.smi

> <i_m_source_file_index>
933

> <i_lp_mmshare_version>
43012

> <i_f3d_flags>
0

> <s_epik_input>
W0NIM11bQ0gyXWMxbmMoW2NIXXMxKVtDSDJdW0NIMl1bTkhdQyg9TylbTkhdW0NAQEhdMltDSDJdW0NIMl1bQ0gyXVtDQEhdMltDSDNd

> <s_epik_cmdline>
J2VwaWtfcHl0aG9uJywgJy1waCcsICc3LjAnLCAnLXRuJywgJzgnLCAnLW1hJywgJzIwMCcsICctbWV0YWxfYmluZGluZycsICctaW1hZScsICc8aW5maWxlLm1hZT4nLCAnLW9tYWUnLCAnPG91dGZpbGUubWFlPic=

> <r_epik_Ionization_Penalty>
0.00203408

> <r_epik_Ionization_Penalty_Charging>
0

> <r_epik_Ionization_Penalty_Neutral>
0.00203408

> <r_epik_State_Penalty>
0.0013452

> <r_epik_Charging_Adjusted_Penalty>
0.0013452

> <i_epik_Tot_Q>
0

> <i_epik_Tot_abs_Q>
0

> <r_epik_Metal_State_Penalty>
-0

> <b_epik_Metal_Only>
0

> <s_lp_Force_Field>
OPLS_2005

> <r_lp_Energy>
18.2024

> <b_lp_Chiralities_Consistent>
1

> <s_lp_Variant>
AV-unprocessed.smi:933-1

> <Gold.Version>
5.8.1

> <Gold.Id.Protein>
6NUR|6NUR_protein|mol2

> <Gold.PLP.Fitness>
40.8083

> <Gold.PLP.PLP>
-34.2825

> <Gold.PLP.part.hbond>
-2.3345

> <Gold.PLP.part.metal>
0.0000

> <Gold.PLP.part.buried>
-3.1670

> <Gold.PLP.part.nonpolar>
-28.8464

> <Gold.PLP.part.repulsive>
0.2380

> <Gold.PLP.ligand.clash>
0.0000

> <Gold.PLP.ligand.torsion>
0.4825

> <Gold.PLP.Chemscore.Hbond>
1.6720

> <Gold.PLP.Chemscore.CHOScore>
0.8044

> <Gold.PLP.Chemscore.Metal>
0.0000

> <Gold.Chemscore.Hbonds>
donor molecule, donor type, donor heavy atom, donor atom, acceptor molecule, acceptor atom, score
      L1  H     8    29       P1 10171  0.72
      L1  H    11    30       P1 10175  0.99
      L1  C    18    42       P1  7921  0.88

> <Gold.PLP.Chemscore.Internal.Correction>
0.0615

> <Gold.Rescore>
     Score         DG    S(hbond)    S(metal)    S(lipo)     H(rot)  DE(clash)    DE(int)     intcor
     17.09     -18.54       1.78        0.00      94.73       1.55       0.17       1.28       ----

> <Gold.Chemscore.Fitness>
17.0889

> <Gold.Chemscore.DG>
-18.5374

> <Gold.Chemscore.ZeroCoef>
-5.4800

> <Gold.Chemscore.Hbond>
1.7778

> <Gold.Chemscore.Metal>
0.0000

> <Gold.Chemscore.Lipo>
94.7271

> <Gold.Chemscore.Internal_Hbond>
0.0000

> <Gold.Chemscore.DEClash>
0.1657

> <Gold.Chemscore.DEInternal>
1.2829

> <Gold.Chemscore.Rot>
1.5482

> <Gold.Chemscore.Internal.Correction>
   9.000000E+99

> <Gold.Chemscore.Hbonds>
donor molecule, donor type, donor heavy atom, donor atom, acceptor molecule, acceptor atom, score
      L1  H     8    29       P1 10171  0.70
      L1  H    11    30       P1 10175  0.94

> <Gold.Chemscore.Hbond.Weighted>
-5.9378

> <Gold.Chemscore.Metal.Weighted>
-0.0000

> <Gold.Chemscore.Lipo.Weighted>
-11.0831

> <Gold.Chemscore.Internal_Hbond.Weighted>
0.0000

> <Gold.Chemscore.DEClash.Weighted>
0.1657

> <Gold.Chemscore.DEInternal.Weighted>
1.2829

> <Gold.Chemscore.Rot.Weighted>
3.9635

> <Gold.Chemscore.Internal.Correction.Weighted>
   9.000000E+99

> <Gold.Protein.RotatedTorsions>
[ 6907 6896 6895 6894 ] final   39.34 input  -60.11 | X-H torsion
[ 7974 7965 7964 7962 ] final  -59.30 input  175.53 | X-H torsion
[ 8008 7997 7996 7995 ] final  -18.99 input   59.86 | X-H torsion
[ 10167 10162 10161 10158 ] final   27.83 input  -65.29 | X-H torsion
[ 10718 10713 10712 10709 ] final -104.17 input   66.30 | X-H torsion
[ 10763 10752 10751 10750 ] final -173.97 input  -60.55 | X-H torsion
[ 11005 11000 10999 10996 ] final -126.38 input  -57.11 | X-H torsion

> <Gold.Protein.ActiveResidues>
 VAL166  LYS551  ARG553  GLY616  TRP617  ASP618  TYR619  PRO620  LYS621  CYS622 
 ASP623  PHE694  ASN695  SER759  ASP760  ASP761  ALA762  ILE779  LEU786  VAL792 
 PHE793  MET794  SER795  GLU796  ALA797  LYS798  CYS799  TRP800  GLU811  SER814 

> <Gold.Protein.RotatedAtoms>
  152.1683  134.8855  160.0536 H   0  0  0  0  0  0  0  0  0  0  0  0  # atno 6907 bound_to 6896
  151.9825  133.3757  159.4121 H   0  0  0  0  0  0  0  0  0  0  0  0  # atno 6908 bound_to 6896
  150.6898  134.3947  159.5136 H   0  0  0  0  0  0  0  0  0  0  0  0  # atno 6909 bound_to 6896
  145.8291  140.8491  143.0093 H   0  0  0  0  0  0  0  0  0  0  0  0  # atno 7974 bound_to 7965
  154.4868  140.2101  155.9638 H   0  0  0  0  0  0  0  0  0  0  0  0  # atno 8008 bound_to 7997
  156.1247  140.3207  155.8229 H   0  0  0  0  0  0  0  0  0  0  0  0  # atno 8009 bound_to 7997
  155.4405  140.0510  157.3001 H   0  0  0  0  0  0  0  0  0  0  0  0  # atno 8010 bound_to 7997
  140.4905  144.0475  150.6295 H   0  0  0  0  0  0  0  0  0  0  0  0  # atno 10167 bound_to 10162
  156.0294  130.5502  150.7358 H   0  0  0  0  0  0  0  0  0  0  0  0  # atno 10718 bound_to 10713
  154.6016  135.2855  155.0529 H   0  0  0  0  0  0  0  0  0  0  0  0  # atno 10763 bound_to 10752
  154.1791  135.6459  153.5033 H   0  0  0  0  0  0  0  0  0  0  0  0  # atno 10764 bound_to 10752
  153.0159  135.5419  154.6738 H   0  0  0  0  0  0  0  0  0  0  0  0  # atno 10765 bound_to 10752
  140.9686  134.0837  157.3893 H   0  0  0  0  0  0  0  0  0  0  0  0  # atno 11005 bound_to 11000
  144.6741  140.0645  143.7475 LP  0  0  0  0  0  0  0  0  0  0  0  0  # atno 17320 bound_to 7965
  145.9591  139.2788  143.1166 LP  0  0  0  0  0  0  0  0  0  0  0  0  # atno 17321 bound_to 7965
  140.3742  143.2837  152.0243 LP  0  0  0  0  0  0  0  0  0  0  0  0  # atno 17342 bound_to 10162
  139.4850  144.6206  151.7263 LP  0  0  0  0  0  0  0  0  0  0  0  0  # atno 17343 bound_to 10162
  157.4939  131.0913  151.0394 LP  0  0  0  0  0  0  0  0  0  0  0  0  # atno 17370 bound_to 10713
  157.0793  130.5896  149.5417 LP  0  0  0  0  0  0  0  0  0  0  0  0  # atno 17371 bound_to 10713
  139.8904  135.0111  156.6732 LP  0  0  0  0  0  0  0  0  0  0  0  0  # atno 17394 bound_to 11000
  140.7362  133.9016  155.8246 LP  0  0  0  0  0  0  0  0  0  0  0  0  # atno 17395 bound_to 11000

$$$$
