AV-unprocessed.smi:3193|AV-procd|sdf|12207|dock8
  -GOLD-   2272018 43D 1   1.00000     0.00000
 Structure written by MMmdl.
 41 42  0  0  0  0  0  0  0  0  3 V2000
  152.4909  144.9289  158.1413 C   0  0  0  0  0  0  0  0  0  0  0  0
  151.3564  144.1918  158.8821 C   0  0  2  0  0  0  0  0  0  0  0  0
  151.3495  144.5295  160.3882 C   0  0  0  0  0  0  0  0  0  0  0  0
  152.5080  143.8574  161.1442 C   0  0  0  0  0  0  0  0  0  0  0  0
  152.5065  142.3377  160.9247 C   0  0  0  0  0  0  0  0  0  0  0  0
  152.5240  141.9848  159.4288 C   0  0  0  0  0  0  0  0  0  0  0  0
  151.3527  142.6532  158.6736 C   0  0  2  0  0  0  0  0  0  0  0  0
  151.3129  142.2575  157.1837 C   0  0  0  0  0  0  0  0  0  0  0  0
  149.9330  142.2497  156.6580 N   0  3  0  0  0  0  0  0  0  0  0  0
  149.7523  141.3998  155.4631 C   0  0  0  0  0  0  0  0  0  0  0  0
  148.2913  141.3883  154.9826 C   0  0  0  0  0  0  0  0  0  0  0  0
  147.9652  140.2087  154.1726 N   0  0  0  0  0  0  0  0  0  0  0  0
  146.8227  139.9898  153.4452 C   0  0  0  0  0  0  0  0  0  0  0  0
  146.9719  138.7688  152.8393 C   0  0  0  0  0  0  0  0  0  0  0  0
  148.2011  138.2975  153.2148 N   0  3  0  0  0  0  0  0  0  0  0  0
  148.8059  139.1761  154.0213 C   0  0  0  0  0  0  0  0  0  0  0  0
  153.4771  144.5779  158.4433 H   0  0  0  0  0  0  0  0  0  0  0  0
  152.4514  146.0001  158.3407 H   0  0  0  0  0  0  0  0  0  0  0  0
  152.4118  144.8063  157.0614 H   0  0  0  0  0  0  0  0  0  0  0  0
  150.4234  144.5791  158.4701 H   0  0  0  0  0  0  0  0  0  0  0  0
  151.3871  145.6097  160.5338 H   0  0  0  0  0  0  0  0  0  0  0  0
  150.4048  144.2019  160.8243 H   0  0  0  0  0  0  0  0  0  0  0  0
  153.4601  144.2756  160.8167 H   0  0  0  0  0  0  0  0  0  0  0  0
  152.4304  144.0771  162.2093 H   0  0  0  0  0  0  0  0  0  0  0  0
  153.3670  141.8901  161.4228 H   0  0  0  0  0  0  0  0  0  0  0  0
  151.6210  141.9044  161.3911 H   0  0  0  0  0  0  0  0  0  0  0  0
  153.4762  142.2870  158.9919 H   0  0  0  0  0  0  0  0  0  0  0  0
  152.4740  140.9010  159.3220 H   0  0  0  0  0  0  0  0  0  0  0  0
  150.4283  142.2859  159.1234 H   0  0  0  0  0  0  0  0  0  0  0  0
  151.8988  142.9667  156.5973 H   0  0  0  0  0  0  0  0  0  0  0  0
  151.7590  141.2729  157.0370 H   0  0  0  0  0  0  0  0  0  0  0  0
  149.3188  141.9167  157.3875 H   0  0  0  0  0  0  0  0  0  0  0  0
  150.4133  141.7420  154.6656 H   0  0  0  0  0  0  0  0  0  0  0  0
  150.0563  140.3818  155.7102 H   0  0  0  0  0  0  0  0  0  0  0  0
  147.6176  141.3851  155.8404 H   0  0  0  0  0  0  0  0  0  0  0  0
  148.0660  142.2877  154.4071 H   0  0  0  0  0  0  0  0  0  0  0  0
  146.0089  140.7001  153.4103 H   0  0  0  0  0  0  0  0  0  0  0  0
  146.3156  138.2165  152.1822 H   0  0  0  0  0  0  0  0  0  0  0  0
  149.7827  139.0703  154.4594 H   0  0  0  0  0  0  0  0  0  0  0  0
  149.6762  143.1981  156.4246 H   0  0  0  0  0  0  0  0  0  0  0  0
  148.6012  137.4156  152.9179 H   0  0  0  0  0  0  0  0  0  0  0  0
  1  2  1  0  0  0  0
  1 17  1  0  0  0  0
  1 18  1  0  0  0  0
  1 19  1  0  0  0  0
  2  7  1  0  0  0  0
  2  3  1  0  0  0  0
  2 20  1  0  0  0  0
  3  4  1  0  0  0  0
  3 21  1  0  0  0  0
  3 22  1  0  0  0  0
  4  5  1  0  0  0  0
  4 23  1  0  0  0  0
  4 24  1  0  0  0  0
  5  6  1  0  0  0  0
  5 25  1  0  0  0  0
  5 26  1  0  0  0  0
  6  7  1  0  0  0  0
  6 27  1  0  0  0  0
  6 28  1  0  0  0  0
  7  8  1  0  0  0  0
  7 29  1  0  0  0  0
  8  9  1  0  0  0  0
  8 30  1  0  0  0  0
  8 31  1  0  0  0  0
  9 10  1  0  0  0  0
  9 32  1  0  0  0  0
  9 40  1  0  0  0  0
 10 11  1  0  0  0  0
 10 33  1  0  0  0  0
 10 34  1  0  0  0  0
 11 12  1  0  0  0  0
 11 35  1  0  0  0  0
 11 36  1  0  0  0  0
 12 16  1  0  0  0  0
 12 13  1  0  0  0  0
 13 14  2  0  0  0  0
 13 37  1  0  0  0  0
 14 15  1  0  0  0  0
 14 38  1  0  0  0  0
 15 16  2  0  0  0  0
 15 41  1  0  0  0  0
 16 39  1  0  0  0  0
M  CHG  1   9   1
M  CHG  1  15   1
M  END
> <s_m_source_file>
AV-unprocessed.smi

> <i_m_source_file_index>
3193

> <i_lp_mmshare_version>
43012

> <i_f3d_flags>
0

> <s_epik_input>
W0NIM11bQ0BASF0xW0NIMl1bQ0gyXVtDSDJdW0NIMl1bQ0BIXTFbQ0gyXVtOSF1bQ0gyXVtDSDJdbjJbY0hdW2NIXW5bY0hdMg==

> <s_epik_cmdline>
J2VwaWtfcHl0aG9uJywgJy1waCcsICc3LjAnLCAnLXRuJywgJzgnLCAnLW1hJywgJzIwMCcsICctbWV0YWxfYmluZGluZycsICctaW1hZScsICc8aW5maWxlLm1hZT4nLCAnLW9tYWUnLCAnPG91dGZpbGUubWFlPic=

> <r_lp_tautomer_probability>
1

> <r_epik_Ionization_Penalty>
1.50262

> <r_epik_Ionization_Penalty_Charging>
0.00193432

> <r_epik_Ionization_Penalty_Neutral>
1.50068

> <r_epik_State_Penalty>
1.11854

> <r_epik_Charging_Adjusted_Penalty>
1.12048

> <i_epik_Tot_Q>
2

> <i_epik_Tot_abs_Q>
2

> <r_epik_Metal_State_Penalty>
5.11322

> <b_epik_Metal_Only>
0

> <s_lp_Force_Field>
OPLS_2005

> <r_lp_Energy>
29.0126

> <b_lp_Chiralities_Consistent>
1

> <s_lp_Variant>
AV-unprocessed.smi:3193-7

> <Gold.Version>
5.8.1

> <Gold.Id.Protein>
6NUR|6NUR_protein|mol2

> <Gold.PLP.Fitness>
55.0935

> <Gold.PLP.PLP>
-41.3609

> <Gold.PLP.part.hbond>
-3.0000

> <Gold.PLP.part.metal>
0.0000

> <Gold.PLP.part.buried>
-3.9943

> <Gold.PLP.part.nonpolar>
-35.1025

> <Gold.PLP.part.repulsive>
0.0995

> <Gold.PLP.ligand.clash>
0.0000

> <Gold.PLP.ligand.torsion>
0.6351

> <Gold.PLP.Chemscore.Hbond>
4.0000

> <Gold.PLP.Chemscore.CHOScore>
0.9777

> <Gold.PLP.Chemscore.Metal>
0.0000

> <Gold.Chemscore.Hbonds>
donor molecule, donor type, donor heavy atom, donor atom, acceptor molecule, acceptor atom, score
      L1  H     9    40       P1  8028  2.00
      L1  H    15    41       P1  7948  2.00
      L1  C    13    37       P1 10175  1.00

> <Gold.PLP.Chemscore.Internal.Correction>
0.0698

> <Gold.Rescore>
     Score         DG    S(hbond)    S(metal)    S(lipo)     H(rot)  DE(clash)    DE(int)     intcor
     19.94     -20.85       1.99        0.00     117.84       1.98       0.21       0.70       ----

> <Gold.Chemscore.Fitness>
19.9416

> <Gold.Chemscore.DG>
-20.8509

> <Gold.Chemscore.ZeroCoef>
-5.4800

> <Gold.Chemscore.Hbond>
1.9898

> <Gold.Chemscore.Metal>
0.0000

> <Gold.Chemscore.Lipo>
117.8398

> <Gold.Chemscore.Internal_Hbond>
0.0000

> <Gold.Chemscore.DEClash>
0.2098

> <Gold.Chemscore.DEInternal>
0.6995

> <Gold.Chemscore.Rot>
1.9774

> <Gold.Chemscore.Internal.Correction>
   9.000000E+99

> <Gold.Chemscore.Hbonds>
donor molecule, donor type, donor heavy atom, donor atom, acceptor molecule, acceptor atom, score
      L1  H     9    40       P1  8028  1.00
      L1  H    15    41       P1  7948  0.97

> <Gold.Chemscore.Hbond.Weighted>
-6.6458

> <Gold.Chemscore.Metal.Weighted>
-0.0000

> <Gold.Chemscore.Lipo.Weighted>
-13.7873

> <Gold.Chemscore.Internal_Hbond.Weighted>
0.0000

> <Gold.Chemscore.DEClash.Weighted>
0.2098

> <Gold.Chemscore.DEInternal.Weighted>
0.6995

> <Gold.Chemscore.Rot.Weighted>
5.0622

> <Gold.Chemscore.Internal.Correction.Weighted>
   9.000000E+99

> <Gold.Protein.RotatedTorsions>
[ 6907 6896 6895 6894 ] final  -52.71 input  -60.11 | X-H torsion
[ 7974 7965 7964 7962 ] final -144.53 input  175.53 | X-H torsion
[ 8008 7997 7996 7995 ] final  161.86 input   59.86 | X-H torsion
[ 10167 10162 10161 10158 ] final  149.92 input  -65.29 | X-H torsion
[ 10718 10713 10712 10709 ] final -137.42 input   66.30 | X-H torsion
[ 10763 10752 10751 10750 ] final   94.14 input  -60.55 | X-H torsion
[ 11005 11000 10999 10996 ] final  -38.02 input  -57.11 | X-H torsion

> <Gold.Protein.ActiveResidues>
 VAL166  LYS551  ARG553  GLY616  TRP617  ASP618  TYR619  PRO620  LYS621  CYS622 
 ASP623  PHE694  ASN695  SER759  ASP760  ASP761  ALA762  ILE779  LEU786  VAL792 
 PHE793  MET794  SER795  GLU796  ALA797  LYS798  CYS799  TRP800  GLU811  SER814 

> <Gold.Protein.RotatedAtoms>
  150.8493  134.7812  159.6995 H   0  0  0  0  0  0  0  0  0  0  0  0  # atno 6907 bound_to 6896
  152.4561  134.5284  159.9813 H   0  0  0  0  0  0  0  0  0  0  0  0  # atno 6908 bound_to 6896
  151.5408  133.3395  159.2971 H   0  0  0  0  0  0  0  0  0  0  0  0  # atno 6909 bound_to 6896
  144.8291  140.5698  143.5527 H   0  0  0  0  0  0  0  0  0  0  0  0  # atno 7974 bound_to 7965
  156.2073  140.1766  156.7772 H   0  0  0  0  0  0  0  0  0  0  0  0  # atno 8008 bound_to 7997
  154.5673  140.0689  156.8941 H   0  0  0  0  0  0  0  0  0  0  0  0  # atno 8009 bound_to 7997
  155.2737  140.3344  155.4265 H   0  0  0  0  0  0  0  0  0  0  0  0  # atno 8010 bound_to 7997
  139.4856  144.5563  151.7311 H   0  0  0  0  0  0  0  0  0  0  0  0  # atno 10167 bound_to 10162
  156.2879  130.7358  151.1375 H   0  0  0  0  0  0  0  0  0  0  0  0  # atno 10718 bound_to 10713
  153.2382  135.4300  155.0670 H   0  0  0  0  0  0  0  0  0  0  0  0  # atno 10763 bound_to 10752
  154.8329  135.3396  154.6687 H   0  0  0  0  0  0  0  0  0  0  0  0  # atno 10764 bound_to 10752
  153.7112  135.7022  153.5093 H   0  0  0  0  0  0  0  0  0  0  0  0  # atno 10765 bound_to 10752
  140.9996  133.6962  156.1998 H   0  0  0  0  0  0  0  0  0  0  0  0  # atno 11005 bound_to 11000
  145.4935  139.1487  143.3696 LP  0  0  0  0  0  0  0  0  0  0  0  0  # atno 17320 bound_to 7965
  146.2595  140.5074  142.8859 LP  0  0  0  0  0  0  0  0  0  0  0  0  # atno 17321 bound_to 7965
  140.5126  144.1002  150.5999 LP  0  0  0  0  0  0  0  0  0  0  0  0  # atno 17342 bound_to 10162
  140.3933  143.2741  152.0034 LP  0  0  0  0  0  0  0  0  0  0  0  0  # atno 17343 bound_to 10162
  157.7334  131.0591  150.5579 LP  0  0  0  0  0  0  0  0  0  0  0  0  # atno 17370 bound_to 10713
  156.5692  130.4275  149.6027 LP  0  0  0  0  0  0  0  0  0  0  0  0  # atno 17371 bound_to 10713
  140.6910  134.4666  157.5588 LP  0  0  0  0  0  0  0  0  0  0  0  0  # atno 17394 bound_to 11000
  139.9032  134.8508  156.1810 LP  0  0  0  0  0  0  0  0  0  0  0  0  # atno 17395 bound_to 11000

$$$$
