AV-unprocessed.smi:162|AV-procd|sdf|1379|dock8
  -GOLD-   2262019103D 1   1.00000     0.00000
 Structure written by MMmdl.
 54 57  0  0  0  0  0  0  0  0  1 V2000
  154.7575  139.2470  159.6062 C   0  0  0  0  0  0  0  0  0  0  0  0
  153.9849  140.2705  160.2079 O   0  0  0  0  0  0  0  0  0  0  0  0
  154.2175  141.5414  159.6246 C   0  0  0  0  0  0  0  0  0  0  0  0
  153.2075  142.5485  160.2007 C   0  0  1  0  0  0  0  0  0  0  0  0
  151.8806  142.5906  159.4447 C   0  0  0  0  0  0  0  0  0  0  0  0
  150.8971  143.1815  160.4612 C   0  0  2  0  0  0  0  0  0  0  0  0
  150.7052  144.5611  160.1792 O   0  0  0  0  0  0  0  0  0  0  0  0
  150.1660  144.8070  158.8903 C   0  0  0  0  0  0  0  0  0  0  0  0
  151.5895  142.9911  161.8250 C   0  0  0  0  0  0  0  0  0  0  0  0
  152.8109  142.2413  161.5675 N   0  0  0  0  0  0  0  0  0  0  0  0
  153.7634  142.3750  162.5161 C   0  0  0  0  0  0  0  0  0  0  0  0
  154.9298  141.7179  162.3052 N   0  0  0  0  0  0  0  0  0  0  0  0
  155.9212  141.8126  163.1963 C   0  0  0  0  0  0  0  0  0  0  0  0
  155.9526  142.4982  164.3411 N   0  0  0  0  0  0  0  0  0  0  0  0
  154.7782  143.1580  164.5567 C   0  0  0  0  0  0  0  0  0  0  0  0
  153.6386  143.1503  163.7044 C   0  0  0  0  0  0  0  0  0  0  0  0
  152.6308  143.9329  164.2555 N   0  0  0  0  0  0  0  0  0  0  0  0
  153.1480  144.3836  165.3656 C   0  0  0  0  0  0  0  0  0  0  0  0
  154.4371  143.9738  165.6212 N   0  0  0  0  0  0  0  0  0  0  0  0
  155.2522  144.3277  166.7730 C   0  0  0  0  0  0  0  0  0  0  0  0
  156.1223  145.5910  166.5586 C   0  0  0  0  0  0  0  0  0  0  0  0
  155.2453  146.6899  166.3777 O   0  0  0  0  0  0  0  0  0  0  0  0
  156.9927  145.8634  167.8019 C   0  0  0  0  0  0  0  0  0  0  0  0
  157.9927  147.0104  167.5701 C   0  0  0  0  0  0  0  0  0  0  0  0
  158.7949  146.7335  166.4286 O   0  0  0  0  0  0  0  0  0  0  0  0
  158.0351  146.6492  165.2290 C   0  0  0  0  0  0  0  0  0  0  0  0
  157.0339  145.4835  165.3161 C   0  0  0  0  0  0  0  0  0  0  0  0
  153.6484  143.5453  160.1739 H   0  0  0  0  0  0  0  0  0  0  0  0
  149.9489  142.6432  160.4089 H   0  0  0  0  0  0  0  0  0  0  0  0
  154.5346  138.2929  160.0832 H   0  0  0  0  0  0  0  0  0  0  0  0
  155.8247  139.4397  159.7220 H   0  0  0  0  0  0  0  0  0  0  0  0
  154.5311  139.1533  158.5432 H   0  0  0  0  0  0  0  0  0  0  0  0
  155.2388  141.8708  159.8233 H   0  0  0  0  0  0  0  0  0  0  0  0
  154.1028  141.4656  158.5421 H   0  0  0  0  0  0  0  0  0  0  0  0
  151.9385  143.1624  158.5179 H   0  0  0  0  0  0  0  0  0  0  0  0
  151.5684  141.5771  159.1885 H   0  0  0  0  0  0  0  0  0  0  0  0
  150.0529  145.8808  158.7424 H   0  0  0  0  0  0  0  0  0  0  0  0
  149.1843  144.3482  158.7686 H   0  0  0  0  0  0  0  0  0  0  0  0
  150.8269  144.4296  158.1091 H   0  0  0  0  0  0  0  0  0  0  0  0
  151.8090  143.9526  162.2909 H   0  0  0  0  0  0  0  0  0  0  0  0
  150.9507  142.4317  162.5093 H   0  0  0  0  0  0  0  0  0  0  0  0
  156.8190  141.2622  162.9567 H   0  0  0  0  0  0  0  0  0  0  0  0
  152.6026  145.0376  166.0305 H   0  0  0  0  0  0  0  0  0  0  0  0
  154.5917  144.4618  167.6309 H   0  0  0  0  0  0  0  0  0  0  0  0
  155.8874  143.4736  167.0121 H   0  0  0  0  0  0  0  0  0  0  0  0
  154.7515  146.8141  167.1739 H   0  0  0  0  0  0  0  0  0  0  0  0
  156.3664  146.0815  168.6679 H   0  0  0  0  0  0  0  0  0  0  0  0
  157.5554  144.9631  168.0523 H   0  0  0  0  0  0  0  0  0  0  0  0
  157.4775  147.9639  167.4454 H   0  0  0  0  0  0  0  0  0  0  0  0
  158.6441  147.1161  168.4378 H   0  0  0  0  0  0  0  0  0  0  0  0
  157.5232  147.5943  165.0421 H   0  0  0  0  0  0  0  0  0  0  0  0
  158.7169  146.4908  164.3932 H   0  0  0  0  0  0  0  0  0  0  0  0
  157.5947  144.5491  165.3627 H   0  0  0  0  0  0  0  0  0  0  0  0
  156.4426  145.4409  164.4007 H   0  0  0  0  0  0  0  0  0  0  0  0
  1  2  1  0  0  0  0
  1 30  1  0  0  0  0
  1 31  1  0  0  0  0
  1 32  1  0  0  0  0
  2  3  1  0  0  0  0
  3  4  1  0  0  0  0
  3 33  1  0  0  0  0
  3 34  1  0  0  0  0
  4 28  1  0  0  0  0
  4 10  1  0  0  0  0
  4  5  1  0  0  0  0
  5  6  1  0  0  0  0
  5 35  1  0  0  0  0
  5 36  1  0  0  0  0
  6 29  1  0  0  0  0
  6  7  1  0  0  0  0
  6  9  1  0  0  0  0
  7  8  1  0  0  0  0
  8 37  1  0  0  0  0
  8 38  1  0  0  0  0
  8 39  1  0  0  0  0
  9 10  1  0  0  0  0
  9 40  1  0  0  0  0
  9 41  1  0  0  0  0
 10 11  1  0  0  0  0
 11 16  1  0  0  0  0
 11 12  2  0  0  0  0
 12 13  1  0  0  0  0
 13 14  2  0  0  0  0
 13 42  1  0  0  0  0
 14 15  1  0  0  0  0
 15 19  1  0  0  0  0
 15 16  2  0  0  0  0
 16 17  1  0  0  0  0
 17 18  2  0  0  0  0
 18 19  1  0  0  0  0
 18 43  1  0  0  0  0
 19 20  1  0  0  0  0
 20 21  1  0  0  0  0
 20 44  1  0  0  0  0
 20 45  1  0  0  0  0
 21 27  1  0  0  0  0
 21 22  1  0  0  0  0
 21 23  1  0  0  0  0
 22 46  1  0  0  0  0
 23 24  1  0  0  0  0
 23 47  1  0  0  0  0
 23 48  1  0  0  0  0
 24 25  1  0  0  0  0
 24 49  1  0  0  0  0
 24 50  1  0  0  0  0
 25 26  1  0  0  0  0
 26 27  1  0  0  0  0
 26 51  1  0  0  0  0
 26 52  1  0  0  0  0
 27 53  1  0  0  0  0
 27 54  1  0  0  0  0
M  END
> <s_m_source_file>
AV-unprocessed.smi

> <i_m_source_file_index>
162

> <i_lp_mmshare_version>
43012

> <i_f3d_flags>
0

> <s_epik_input>
W0NIM11PW0NIMl1bQ0BASF0xW0NIMl1bQ0BASF0oT1tDSDNdKVtDSDJdTjFjKG5bY0hdbjIpYyhjMjMpbltjSF1uM1tDSDJdQzQoW09IXSlbQ0gyXVtDSDJdT1tDSDJdW0NIMl00

> <s_epik_cmdline>
J2VwaWtfcHl0aG9uJywgJy1waCcsICc3LjAnLCAnLXRuJywgJzgnLCAnLW1hJywgJzIwMCcsICctbWV0YWxfYmluZGluZycsICctaW1hZScsICc8aW5maWxlLm1hZT4nLCAnLW9tYWUnLCAnPG91dGZpbGUubWFlPic=

> <r_lp_tautomer_probability>
1

> <r_epik_Ionization_Penalty>
0.00660334

> <r_epik_Ionization_Penalty_Charging>
0

> <r_epik_Ionization_Penalty_Neutral>
0.00660334

> <r_epik_State_Penalty>
0.00469459

> <r_epik_Charging_Adjusted_Penalty>
0.00469459

> <i_epik_Tot_Q>
0

> <i_epik_Tot_abs_Q>
0

> <r_epik_Metal_State_Penalty>
-0

> <b_epik_Metal_Only>
0

> <s_lp_Force_Field>
OPLS_2005

> <r_lp_Energy>
43.1058

> <b_lp_Chiralities_Consistent>
1

> <s_lp_Variant>
AV-unprocessed.smi:162-4

> <Gold.Version>
5.8.1

> <Gold.Id.Protein>
6NUR|6NUR_protein|mol2

> <Gold.PLP.Fitness>
51.6687

> <Gold.PLP.PLP>
-44.5169

> <Gold.PLP.part.hbond>
-3.0000

> <Gold.PLP.part.metal>
0.0000

> <Gold.PLP.part.buried>
-5.8822

> <Gold.PLP.part.nonpolar>
-35.5180

> <Gold.PLP.part.repulsive>
0.0734

> <Gold.PLP.ligand.clash>
0.0000

> <Gold.PLP.ligand.torsion>
0.7890

> <Gold.PLP.Chemscore.Hbond>
2.8800

> <Gold.PLP.Chemscore.CHOScore>
0.0000

> <Gold.PLP.Chemscore.Metal>
0.0000

> <Gold.PLP.Chemscore.Internal.Correction>
0.0898

> <Gold.Rescore>
     Score         DG    S(hbond)    S(metal)    S(lipo)     H(rot)  DE(clash)    DE(int)     intcor
     11.35     -17.78       1.86        0.00     114.68       2.86       1.80       4.63       ----

> <Gold.Chemscore.Fitness>
11.3538

> <Gold.Chemscore.DG>
-17.7826

> <Gold.Chemscore.ZeroCoef>
-5.4800

> <Gold.Chemscore.Hbond>
1.8616

> <Gold.Chemscore.Metal>
0.0000

> <Gold.Chemscore.Lipo>
114.6762

> <Gold.Chemscore.Internal_Hbond>
0.0000

> <Gold.Chemscore.DEClash>
1.8034

> <Gold.Chemscore.DEInternal>
4.6254

> <Gold.Chemscore.Rot>
2.8642

> <Gold.Chemscore.Internal.Correction>
   9.000000E+99

> <Gold.Chemscore.Hbond.Weighted>
-6.2179

> <Gold.Chemscore.Metal.Weighted>
-0.0000

> <Gold.Chemscore.Lipo.Weighted>
-13.4171

> <Gold.Chemscore.Internal_Hbond.Weighted>
0.0000

> <Gold.Chemscore.DEClash.Weighted>
1.8034

> <Gold.Chemscore.DEInternal.Weighted>
4.6254

> <Gold.Chemscore.Rot.Weighted>
7.3324

> <Gold.Chemscore.Internal.Correction.Weighted>
   9.000000E+99

> <Gold.Protein.RotatedTorsions>
[ 6907 6896 6895 6894 ] final   -6.12 input  -60.11 | X-H torsion
[ 7974 7965 7964 7962 ] final  -95.32 input  175.53 | X-H torsion
[ 8008 7997 7996 7995 ] final   -6.83 input   59.86 | X-H torsion
[ 10167 10162 10161 10158 ] final    5.46 input  -65.29 | X-H torsion
[ 10718 10713 10712 10709 ] final  123.14 input   66.30 | X-H torsion
[ 10763 10752 10751 10750 ] final  134.89 input  -60.55 | X-H torsion
[ 11005 11000 10999 10996 ] final   24.35 input  -57.11 | X-H torsion

> <Gold.Protein.ActiveResidues>
 VAL166  LYS551  ARG553  GLY616  TRP617  ASP618  TYR619  PRO620  LYS621  CYS622 
 ASP623  PHE694  ASN695  SER759  ASP760  ASP761  ALA762  ILE779  LEU786  VAL792 
 PHE793  MET794  SER795  GLU796  ALA797  LYS798  CYS799  TRP800  GLU811  SER814 

> <Gold.Protein.RotatedAtoms>
  151.4706  135.1045  159.9750 H   0  0  0  0  0  0  0  0  0  0  0  0  # atno 6907 bound_to 6896
  152.4818  133.8269  159.7093 H   0  0  0  0  0  0  0  0  0  0  0  0  # atno 6908 bound_to 6896
  150.8895  133.7201  159.2935 H   0  0  0  0  0  0  0  0  0  0  0  0  # atno 6909 bound_to 6896
  145.3616  140.9492  143.2497 H   0  0  0  0  0  0  0  0  0  0  0  0  # atno 7974 bound_to 7965
  154.5898  140.2422  155.7936 H   0  0  0  0  0  0  0  0  0  0  0  0  # atno 8008 bound_to 7997
  156.2239  140.2989  155.9973 H   0  0  0  0  0  0  0  0  0  0  0  0  # atno 8009 bound_to 7997
  155.2394  140.0406  157.2963 H   0  0  0  0  0  0  0  0  0  0  0  0  # atno 8010 bound_to 7997
  140.6480  143.7614  150.7530 H   0  0  0  0  0  0  0  0  0  0  0  0  # atno 10167 bound_to 10162
  157.5688  131.1085  150.8405 H   0  0  0  0  0  0  0  0  0  0  0  0  # atno 10718 bound_to 10713
  153.8309  135.3104  155.3418 H   0  0  0  0  0  0  0  0  0  0  0  0  # atno 10763 bound_to 10752
  154.7973  135.4747  154.0195 H   0  0  0  0  0  0  0  0  0  0  0  0  # atno 10764 bound_to 10752
  153.1634  135.6865  153.8800 H   0  0  0  0  0  0  0  0  0  0  0  0  # atno 10765 bound_to 10752
  140.3597  134.2139  155.7673 H   0  0  0  0  0  0  0  0  0  0  0  0  # atno 11005 bound_to 11000
  144.8642  139.5132  143.6798 LP  0  0  0  0  0  0  0  0  0  0  0  0  # atno 17320 bound_to 7965
  146.2925  139.7180  142.9151 LP  0  0  0  0  0  0  0  0  0  0  0  0  # atno 17321 bound_to 7965
  140.1259  143.4570  152.2285 LP  0  0  0  0  0  0  0  0  0  0  0  0  # atno 17342 bound_to 10162
  139.5693  144.7453  151.3936 LP  0  0  0  0  0  0  0  0  0  0  0  0  # atno 17343 bound_to 10162
  156.8883  130.5203  149.5287 LP  0  0  0  0  0  0  0  0  0  0  0  0  # atno 17370 bound_to 10713
  156.0734  130.5762  150.9428 LP  0  0  0  0  0  0  0  0  0  0  0  0  # atno 17371 bound_to 10713
  141.1988  133.8027  157.0567 LP  0  0  0  0  0  0  0  0  0  0  0  0  # atno 17394 bound_to 11000
  140.0636  134.9741  157.1348 LP  0  0  0  0  0  0  0  0  0  0  0  0  # atno 17395 bound_to 11000

$$$$
