AV-unprocessed.smi:17|AV-procd|sdf|103|dock8
  -GOLD-   2262015253D 1   1.00000     0.00000
 Structure written by MMmdl.
 57 59  0  0  0  0  0  0  0  0  1 V2000
  151.9613  144.0906  157.9558 C   0  0  0  0  0  0  0  0  0  0  0  0
  151.1743  142.8632  158.4420 C   0  0  0  0  0  0  0  0  0  0  0  0
  151.8240  141.5915  158.1108 N   0  0  0  0  0  0  0  0  0  0  0  0
  151.4492  140.9640  156.9622 C   0  0  0  0  0  0  0  0  0  0  0  0
  152.3324  140.1355  156.3431 N   0  0  0  0  0  0  0  0  0  0  0  0
  152.0007  139.5099  155.2109 C   0  0  0  0  0  0  0  0  0  0  0  0
  150.8542  139.5666  154.5330 N   0  0  0  0  0  0  0  0  0  0  0  0
  149.9595  140.3921  155.1459 C   0  0  0  0  0  0  0  0  0  0  0  0
  150.1720  141.1265  156.3484 C   0  0  0  0  0  0  0  0  0  0  0  0
  149.0245  141.8469  156.6622 N   0  0  0  0  0  0  0  0  0  0  0  0
  148.1865  141.5566  155.7055 C   0  0  0  0  0  0  0  0  0  0  0  0
  148.6640  140.6841  154.7561 N   0  0  0  0  0  0  0  0  0  0  0  0
  147.9419  140.1898  153.5964 C   0  0  0  0  0  0  0  0  0  0  0  0
  147.2397  138.8284  153.8472 C   0  0  2  0  0  0  0  0  0  0  0  0
  146.3237  138.4354  152.6593 C   0  0  0  0  0  0  0  0  0  0  0  0
  147.0740  138.1918  151.4873 O   0  0  0  0  0  0  0  0  0  0  0  0
  146.5100  138.8086  155.2254 C   0  0  2  0  0  0  0  0  0  0  0  0
  147.4554  138.7321  156.4212 C   0  0  0  0  0  0  0  0  0  0  0  0
  147.6960  137.2314  156.6041 C   0  0  0  0  0  0  0  0  0  0  0  0
  146.6358  136.5766  155.9161 O   0  0  0  0  0  0  0  0  0  0  0  0
  145.6837  137.5471  155.5080 C   0  0  0  0  0  0  0  0  0  0  0  0
  153.0805  141.1969  158.7644 C   0  0  1  0  0  0  0  0  0  0  0  0
  153.5369  142.2414  159.7974 C   0  0  0  0  0  0  0  0  0  0  0  0
  153.0119  139.7827  159.3803 C   0  0  0  0  0  0  0  0  0  0  0  0
  154.6461  139.1813  160.0108 S   0  0  0  0  0  0  0  0  0  0  0  0
  154.8286  140.0893  161.6010 C   0  0  0  0  0  0  0  0  0  0  0  0
  154.5535  137.7443  160.3120 O   0  0  0  0  0  0  0  0  0  0  0  0
  155.6908  139.6715  159.0993 O   0  0  0  0  0  0  0  0  0  0  0  0
  151.4631  145.0106  158.2613 H   0  0  0  0  0  0  0  0  0  0  0  0
  152.0446  144.1098  156.8690 H   0  0  0  0  0  0  0  0  0  0  0  0
  152.9697  144.1091  158.3688 H   0  0  0  0  0  0  0  0  0  0  0  0
  151.0614  142.9376  159.5226 H   0  0  0  0  0  0  0  0  0  0  0  0
  150.1607  142.8862  158.0462 H   0  0  0  0  0  0  0  0  0  0  0  0
  152.7623  138.8712  154.7883 H   0  0  0  0  0  0  0  0  0  0  0  0
  147.1879  141.9672  155.6689 H   0  0  0  0  0  0  0  0  0  0  0  0
  147.2270  140.9611  153.3164 H   0  0  0  0  0  0  0  0  0  0  0  0
  148.6377  140.1064  152.7607 H   0  0  0  0  0  0  0  0  0  0  0  0
  148.0232  138.0700  153.8839 H   0  0  0  0  0  0  0  0  0  0  0  0
  145.7395  137.5446  152.8882 H   0  0  0  0  0  0  0  0  0  0  0  0
  145.5849  139.2079  152.4537 H   0  0  0  0  0  0  0  0  0  0  0  0
  147.4925  137.3482  151.5683 H   0  0  0  0  0  0  0  0  0  0  0  0
  145.8737  139.6918  155.2976 H   0  0  0  0  0  0  0  0  0  0  0  0
  148.3834  139.2913  156.3180 H   0  0  0  0  0  0  0  0  0  0  0  0
  146.9472  139.1227  157.3042 H   0  0  0  0  0  0  0  0  0  0  0  0
  148.6443  136.9268  156.1606 H   0  0  0  0  0  0  0  0  0  0  0  0
  147.7086  136.9524  157.6579 H   0  0  0  0  0  0  0  0  0  0  0  0
  145.0032  137.7302  156.3412 H   0  0  0  0  0  0  0  0  0  0  0  0
  145.0724  137.1962  154.6792 H   0  0  0  0  0  0  0  0  0  0  0  0
  153.8703  141.1482  158.0147 H   0  0  0  0  0  0  0  0  0  0  0  0
  154.5168  141.9874  160.2021 H   0  0  0  0  0  0  0  0  0  0  0  0
  152.8427  142.3086  160.6352 H   0  0  0  0  0  0  0  0  0  0  0  0
  153.6167  143.2317  159.3482 H   0  0  0  0  0  0  0  0  0  0  0  0
  152.3464  139.8087  160.2434 H   0  0  0  0  0  0  0  0  0  0  0  0
  152.6009  139.0405  158.6972 H   0  0  0  0  0  0  0  0  0  0  0  0
  155.8214  139.9021  162.0090 H   0  0  0  0  0  0  0  0  0  0  0  0
  154.0851  139.7436  162.3151 H   0  0  0  0  0  0  0  0  0  0  0  0
  154.7049  141.1585  161.4311 H   0  0  0  0  0  0  0  0  0  0  0  0
  1  2  1  0  0  0  0
  1 29  1  0  0  0  0
  1 30  1  0  0  0  0
  1 31  1  0  0  0  0
  2  3  1  0  0  0  0
  2 32  1  0  0  0  0
  2 33  1  0  0  0  0
  3  4  1  0  0  0  0
  3 22  1  0  0  0  0
  4  9  1  0  0  0  0
  4  5  2  0  0  0  0
  5  6  1  0  0  0  0
  6  7  2  0  0  0  0
  6 34  1  0  0  0  0
  7  8  1  0  0  0  0
  8 12  1  0  0  0  0
  8  9  2  0  0  0  0
  9 10  1  0  0  0  0
 10 11  2  0  0  0  0
 11 12  1  0  0  0  0
 11 35  1  0  0  0  0
 12 13  1  0  0  0  0
 13 14  1  0  0  0  0
 13 36  1  0  0  0  0
 13 37  1  0  0  0  0
 14 15  1  0  0  0  0
 14 17  1  0  0  0  0
 14 38  1  0  0  0  0
 15 16  1  0  0  0  0
 15 39  1  0  0  0  0
 15 40  1  0  0  0  0
 16 41  1  0  0  0  0
 17 21  1  0  0  0  0
 17 18  1  0  0  0  0
 17 42  1  0  0  0  0
 18 19  1  0  0  0  0
 18 43  1  0  0  0  0
 18 44  1  0  0  0  0
 19 20  1  0  0  0  0
 19 45  1  0  0  0  0
 19 46  1  0  0  0  0
 20 21  1  0  0  0  0
 21 47  1  0  0  0  0
 21 48  1  0  0  0  0
 22 23  1  0  0  0  0
 22 24  1  0  0  0  0
 22 49  1  0  0  0  0
 23 50  1  0  0  0  0
 23 51  1  0  0  0  0
 23 52  1  0  0  0  0
 24 25  1  0  0  0  0
 24 53  1  0  0  0  0
 24 54  1  0  0  0  0
 25 26  1  0  0  0  0
 25 27  2  0  0  0  0
 25 28  2  0  0  0  0
 26 55  1  0  0  0  0
 26 56  1  0  0  0  0
 26 57  1  0  0  0  0
M  END
> <s_m_source_file>
AV-unprocessed.smi

> <i_m_source_file_index>
17

> <i_lp_mmshare_version>
43012

> <i_f3d_flags>
0

> <s_epik_input>
W0NIM11TKD1PKSg9TylbQ0gyXVtDQEBIXShbQ0gzXSlOKFtDSDJdW0NIM10pYyhuW2NIXW4xKWMoYzEyKW5bY0hdbjJbQ0gyXVtDQEhdKFtDSDJdW09IXSlbQ0BASF0zW0NIMl1bQ0gyXU9bQ0gyXTM=

> <s_epik_cmdline>
J2VwaWtfcHl0aG9uJywgJy1waCcsICc3LjAnLCAnLXRuJywgJzgnLCAnLW1hJywgJzIwMCcsICctbWV0YWxfYmluZGluZycsICctaW1hZScsICc8aW5maWxlLm1hZT4nLCAnLW9tYWUnLCAnPG91dGZpbGUubWFlPic=

> <r_lp_tautomer_probability>
1

> <r_epik_Ionization_Penalty>
0.00119955

> <r_epik_Ionization_Penalty_Charging>
0

> <r_epik_Ionization_Penalty_Neutral>
0.00119955

> <r_epik_State_Penalty>
0.000665399

> <r_epik_Charging_Adjusted_Penalty>
0.000665399

> <i_epik_Tot_Q>
0

> <i_epik_Tot_abs_Q>
0

> <r_epik_Metal_State_Penalty>
-0

> <b_epik_Metal_Only>
0

> <s_lp_Force_Field>
OPLS_2005

> <r_lp_Energy>
34.7732

> <b_lp_Chiralities_Consistent>
1

> <s_lp_Variant>
AV-unprocessed.smi:17-5

> <Gold.Version>
5.8.1

> <Gold.Id.Protein>
6NUR|6NUR_protein|mol2

> <Gold.PLP.Fitness>
52.5551

> <Gold.PLP.PLP>
-43.5979

> <Gold.PLP.part.hbond>
-6.0000

> <Gold.PLP.part.metal>
0.0000

> <Gold.PLP.part.buried>
-0.5284

> <Gold.PLP.part.nonpolar>
-36.8288

> <Gold.PLP.part.repulsive>
0.4329

> <Gold.PLP.ligand.clash>
0.0000

> <Gold.PLP.ligand.torsion>
1.5664

> <Gold.PLP.Chemscore.Hbond>
3.4920

> <Gold.PLP.Chemscore.CHOScore>
0.0000

> <Gold.PLP.Chemscore.Metal>
0.0000

> <Gold.Chemscore.Hbonds>
donor molecule, donor type, donor heavy atom, donor atom, acceptor molecule, acceptor atom, score
      L1  H    16    41       P1  7948  1.00
      P1  H  7989  7998       L1     7  0.28
      P1  H  7997  8008       L1     5  1.00
      P1  H  7997  8010       L1    28  1.00

> <Gold.PLP.Chemscore.Internal.Correction>
1.6140

> <Gold.Rescore>
     Score         DG    S(hbond)    S(metal)    S(lipo)     H(rot)  DE(clash)    DE(int)     intcor
      9.24     -13.80       2.54        0.00      75.44       3.51       0.17       4.38       ----

> <Gold.Chemscore.Fitness>
9.2439

> <Gold.Chemscore.DG>
-13.7984

> <Gold.Chemscore.ZeroCoef>
-5.4800

> <Gold.Chemscore.Hbond>
2.5352

> <Gold.Chemscore.Metal>
0.0000

> <Gold.Chemscore.Lipo>
75.4358

> <Gold.Chemscore.Internal_Hbond>
0.0000

> <Gold.Chemscore.DEClash>
0.1706

> <Gold.Chemscore.DEInternal>
4.3839

> <Gold.Chemscore.Rot>
3.5059

> <Gold.Chemscore.Internal.Correction>
   9.000000E+99

> <Gold.Chemscore.Hbonds>
donor molecule, donor type, donor heavy atom, donor atom, acceptor molecule, acceptor atom, score
      L1  H    16    41       P1  7948  0.97
      P1  H  7997  8008       L1     5  0.33
      P1  H  7997  8010       L1    28  0.94

> <Gold.Chemscore.Hbond.Weighted>
-8.4674

> <Gold.Chemscore.Metal.Weighted>
-0.0000

> <Gold.Chemscore.Lipo.Weighted>
-8.8260

> <Gold.Chemscore.Internal_Hbond.Weighted>
0.0000

> <Gold.Chemscore.DEClash.Weighted>
0.1706

> <Gold.Chemscore.DEInternal.Weighted>
4.3839

> <Gold.Chemscore.Rot.Weighted>
8.9750

> <Gold.Chemscore.Internal.Correction.Weighted>
   9.000000E+99

> <Gold.Protein.RotatedTorsions>
[ 6907 6896 6895 6894 ] final  -89.05 input  -60.11 | X-H torsion
[ 7974 7965 7964 7962 ] final -144.67 input  175.53 | X-H torsion
[ 8008 7997 7996 7995 ] final  -37.30 input   59.86 | X-H torsion
[ 10167 10162 10161 10158 ] final  -33.71 input  -65.29 | X-H torsion
[ 10718 10713 10712 10709 ] final -136.57 input   66.30 | X-H torsion
[ 10763 10752 10751 10750 ] final  145.08 input  -60.55 | X-H torsion
[ 11005 11000 10999 10996 ] final   89.81 input  -57.11 | X-H torsion

> <Gold.Protein.ActiveResidues>
 VAL166  LYS551  ARG553  GLY616  TRP617  ASP618  TYR619  PRO620  LYS621  CYS622 
 ASP623  PHE694  ASN695  SER759  ASP760  ASP761  ALA762  ILE779  LEU786  VAL792 
 PHE793  MET794  SER795  GLU796  ALA797  LYS798  CYS799  TRP800  GLU811  SER814 

> <Gold.Protein.RotatedAtoms>
  150.6871  134.2646  159.4563 H   0  0  0  0  0  0  0  0  0  0  0  0  # atno 6907 bound_to 6896
  152.0574  134.9613  160.0584 H   0  0  0  0  0  0  0  0  0  0  0  0  # atno 6908 bound_to 6896
  152.1054  133.4237  159.4643 H   0  0  0  0  0  0  0  0  0  0  0  0  # atno 6909 bound_to 6896
  144.8281  140.5681  143.5533 H   0  0  0  0  0  0  0  0  0  0  0  0  # atno 7974 bound_to 7965
  154.4056  140.1608  156.2514 H   0  0  0  0  0  0  0  0  0  0  0  0  # atno 8008 bound_to 7997
  155.9115  140.3427  155.6080 H   0  0  0  0  0  0  0  0  0  0  0  0  # atno 8009 bound_to 7997
  155.7330  140.0783  157.2271 H   0  0  0  0  0  0  0  0  0  0  0  0  # atno 8010 bound_to 7997
  140.7199  143.3600  151.1982 H   0  0  0  0  0  0  0  0  0  0  0  0  # atno 10167 bound_to 10162
  156.2785  130.7307  151.1297 H   0  0  0  0  0  0  0  0  0  0  0  0  # atno 10718 bound_to 10713
  153.9995  135.2924  155.3404 H   0  0  0  0  0  0  0  0  0  0  0  0  # atno 10763 bound_to 10752
  154.7167  135.5126  153.8752 H   0  0  0  0  0  0  0  0  0  0  0  0  # atno 10764 bound_to 10752
  153.0772  135.6667  154.0239 H   0  0  0  0  0  0  0  0  0  0  0  0  # atno 10765 bound_to 10752
  139.8868  134.8574  156.3194 H   0  0  0  0  0  0  0  0  0  0  0  0  # atno 11005 bound_to 11000
  145.4955  139.1486  143.3686 LP  0  0  0  0  0  0  0  0  0  0  0  0  # atno 17320 bound_to 7965
  146.2586  140.5094  142.8863 LP  0  0  0  0  0  0  0  0  0  0  0  0  # atno 17321 bound_to 7965
  139.7150  143.9315  152.2963 LP  0  0  0  0  0  0  0  0  0  0  0  0  # atno 17342 bound_to 10162
  139.9053  144.6888  150.8621 LP  0  0  0  0  0  0  0  0  0  0  0  0  # atno 17343 bound_to 10162
  157.7307  131.0614  150.5714 LP  0  0  0  0  0  0  0  0  0  0  0  0  # atno 17370 bound_to 10713
  156.5817  130.4306  149.5974 LP  0  0  0  0  0  0  0  0  0  0  0  0  # atno 17371 bound_to 10713
  140.9797  133.7275  156.0653 LP  0  0  0  0  0  0  0  0  0  0  0  0  # atno 17394 bound_to 11000
  140.7766  134.3773  157.5496 LP  0  0  0  0  0  0  0  0  0  0  0  0  # atno 17395 bound_to 11000

$$$$
