AV-unprocessed.smi:227|AV-procd|sdf|1735|dock5
  -GOLD-   2262020233D 1   1.00000     0.00000
 Structure written by MMmdl.
 54 58  0  0  0  0  0  0  0  0  1 V2000
  145.9998  130.0583  151.6510 O   0  0  0  0  0  0  0  0  0  0  0  0
  145.5742  130.9260  152.6806 C   0  0  0  0  0  0  0  0  0  0  0  0
  146.1911  132.3348  152.5127 C   0  0  2  0  0  0  0  0  0  0  0  0
  146.6326  132.9513  153.8688 C   0  0  0  0  0  0  0  0  0  0  0  0
  147.8683  132.3993  154.4068 N   0  0  0  0  0  0  0  0  0  0  0  0
  148.7588  131.5768  153.7558 C   0  0  0  0  0  0  0  0  0  0  0  0
  149.7958  131.2140  154.4578 N   0  0  0  0  0  0  0  0  0  0  0  0
  149.6081  131.8183  155.6956 C   0  0  0  0  0  0  0  0  0  0  0  0
  150.3422  131.8500  156.9193 C   0  0  0  0  0  0  0  0  0  0  0  0
  151.5281  131.2147  157.1360 N   0  0  0  0  0  0  0  0  0  0  0  0
  151.6390  130.0920  158.0562 C   0  0  2  0  0  0  0  0  0  0  0  0
  153.1580  129.8524  158.1025 C   0  0  0  0  0  0  0  0  0  0  0  0
  153.5624  130.1993  156.6629 C   0  0  0  0  0  0  0  0  0  0  0  0
  152.1949  130.5283  156.0364 C   0  0  1  0  0  0  0  0  0  0  0  0
  151.3342  129.2523  155.8435 C   0  0  1  0  0  0  0  0  0  0  0  0
  151.9836  128.1039  155.0496 C   0  0  0  0  0  0  0  0  0  0  0  0
  151.0596  127.0494  154.8850 O   0  0  0  0  0  0  0  0  0  0  0  0
  150.9741  128.9208  157.3047 C   0  0  0  0  0  0  0  0  0  0  0  0
  149.7978  132.5509  157.9492 N   0  0  0  0  0  0  0  0  0  0  0  0
  148.6363  133.1920  157.7991 C   0  0  0  0  0  0  0  0  0  0  0  0
  147.8571  133.2605  156.7199 N   0  0  0  0  0  0  0  0  0  0  0  0
  148.3869  132.5539  155.6816 C   0  0  0  0  0  0  0  0  0  0  0  0
  145.2412  133.2691  151.7177 C   0  0  1  0  0  0  0  0  0  0  0  0
  145.8830  134.5536  151.2199 C   0  0  0  0  0  0  0  0  0  0  0  0
  144.9037  135.0065  150.1432 C   0  0  0  0  0  0  0  0  0  0  0  0
  144.3776  133.8111  149.5796 O   0  0  0  0  0  0  0  0  0  0  0  0
  144.7327  132.6952  150.3900 C   0  0  0  0  0  0  0  0  0  0  0  0
  146.8438  130.3526  151.3422 H   0  0  0  0  0  0  0  0  0  0  0  0
  144.4870  130.9689  152.6254 H   0  0  0  0  0  0  0  0  0  0  0  0
  145.8229  130.4933  153.6498 H   0  0  0  0  0  0  0  0  0  0  0  0
  147.0951  132.2159  151.9133 H   0  0  0  0  0  0  0  0  0  0  0  0
  146.7583  134.0296  153.7670 H   0  0  0  0  0  0  0  0  0  0  0  0
  145.8499  132.8249  154.6168 H   0  0  0  0  0  0  0  0  0  0  0  0
  148.6203  131.2514  152.7360 H   0  0  0  0  0  0  0  0  0  0  0  0
  151.2351  130.2538  159.0537 H   0  0  0  0  0  0  0  0  0  0  0  0
  153.6401  130.5289  158.8092 H   0  0  0  0  0  0  0  0  0  0  0  0
  153.4151  128.8298  158.3815 H   0  0  0  0  0  0  0  0  0  0  0  0
  154.2039  131.0816  156.6556 H   0  0  0  0  0  0  0  0  0  0  0  0
  154.1028  129.3993  156.1587 H   0  0  0  0  0  0  0  0  0  0  0  0
  152.2948  131.1179  155.1243 H   0  0  0  0  0  0  0  0  0  0  0  0
  150.4229  129.5451  155.3185 H   0  0  0  0  0  0  0  0  0  0  0  0
  152.2919  128.4519  154.0635 H   0  0  0  0  0  0  0  0  0  0  0  0
  152.8682  127.7141  155.5526 H   0  0  0  0  0  0  0  0  0  0  0  0
  150.8142  127.0051  153.9735 H   0  0  0  0  0  0  0  0  0  0  0  0
  151.3474  127.9509  157.6356 H   0  0  0  0  0  0  0  0  0  0  0  0
  149.8923  128.9273  157.4432 H   0  0  0  0  0  0  0  0  0  0  0  0
  148.2815  133.7264  158.6680 H   0  0  0  0  0  0  0  0  0  0  0  0
  144.3740  133.5224  152.3292 H   0  0  0  0  0  0  0  0  0  0  0  0
  146.0212  135.3064  151.9950 H   0  0  0  0  0  0  0  0  0  0  0  0
  146.8566  134.3452  150.7738 H   0  0  0  0  0  0  0  0  0  0  0  0
  144.0832  135.5706  150.5885 H   0  0  0  0  0  0  0  0  0  0  0  0
  145.3754  135.6327  149.3856 H   0  0  0  0  0  0  0  0  0  0  0  0
  145.5221  132.1410  149.8802 H   0  0  0  0  0  0  0  0  0  0  0  0
  143.8814  132.0268  150.5215 H   0  0  0  0  0  0  0  0  0  0  0  0
  1  2  1  0  0  0  0
  1 28  1  0  0  0  0
  2  3  1  0  0  0  0
  2 29  1  0  0  0  0
  2 30  1  0  0  0  0
  3  4  1  0  0  0  0
  3 23  1  0  0  0  0
  3 31  1  0  0  0  0
  4  5  1  0  0  0  0
  4 32  1  0  0  0  0
  4 33  1  0  0  0  0
  5 22  1  0  0  0  0
  5  6  1  0  0  0  0
  6  7  2  0  0  0  0
  6 34  1  0  0  0  0
  7  8  1  0  0  0  0
  8 22  2  0  0  0  0
  8  9  1  0  0  0  0
  9 10  1  0  0  0  0
  9 19  2  0  0  0  0
 10 14  1  0  0  0  0
 10 11  1  0  0  0  0
 11 18  1  0  0  0  0
 11 12  1  0  0  0  0
 11 35  1  0  0  0  0
 12 13  1  0  0  0  0
 12 36  1  0  0  0  0
 12 37  1  0  0  0  0
 13 14  1  0  0  0  0
 13 38  1  0  0  0  0
 13 39  1  0  0  0  0
 14 15  1  0  0  0  0
 14 40  1  0  0  0  0
 15 16  1  0  0  0  0
 15 18  1  0  0  0  0
 15 41  1  0  0  0  0
 16 17  1  0  0  0  0
 16 42  1  0  0  0  0
 16 43  1  0  0  0  0
 17 44  1  0  0  0  0
 18 45  1  0  0  0  0
 18 46  1  0  0  0  0
 19 20  1  0  0  0  0
 20 21  2  0  0  0  0
 20 47  1  0  0  0  0
 21 22  1  0  0  0  0
 23 27  1  0  0  0  0
 23 24  1  0  0  0  0
 23 48  1  0  0  0  0
 24 25  1  0  0  0  0
 24 49  1  0  0  0  0
 24 50  1  0  0  0  0
 25 26  1  0  0  0  0
 25 51  1  0  0  0  0
 25 52  1  0  0  0  0
 26 27  1  0  0  0  0
 27 53  1  0  0  0  0
 27 54  1  0  0  0  0
M  END
> <s_m_source_file>
AV-unprocessed.smi

> <i_m_source_file_index>
227

> <i_lp_mmshare_version>
43012

> <i_f3d_flags>
0

> <s_epik_input>
W0NIMl0xT1tDSDJdW0NIMl1bQ0BIXTFbQ0BIXShbQ0gyXVtPSF0pW0NIMl1uKFtjSF1uMiljKGMyMyluW2NIXW5jM04oW0NASF00NSlbQ0BASF0oW0NIMl1bQ0gyXTQpW0NASF0oW0NIMl01KVtDSDJdW09IXQ==

> <s_epik_cmdline>
J2VwaWtfcHl0aG9uJywgJy1waCcsICc3LjAnLCAnLXRuJywgJzgnLCAnLW1hJywgJzIwMCcsICctbWV0YWxfYmluZGluZycsICctaW1hZScsICc8aW5maWxlLm1hZT4nLCAnLW9tYWUnLCAnPG91dGZpbGUubWFlPic=

> <r_lp_tautomer_probability>
1

> <r_epik_Ionization_Penalty>
0.0055791

> <r_epik_Ionization_Penalty_Charging>
0

> <r_epik_Ionization_Penalty_Neutral>
0.0055791

> <r_epik_State_Penalty>
0.00401299

> <r_epik_Charging_Adjusted_Penalty>
0.00401299

> <i_epik_Tot_Q>
0

> <i_epik_Tot_abs_Q>
0

> <r_epik_Metal_State_Penalty>
-0

> <b_epik_Metal_Only>
0

> <s_lp_Force_Field>
OPLS_2005

> <r_lp_Energy>
86.8427

> <b_lp_Chiralities_Consistent>
1

> <s_lp_Variant>
AV-unprocessed.smi:227-9

> <Gold.Version>
5.8.1

> <Gold.Id.Protein>
6NUR|6NUR_protein|mol2

> <Gold.PLP.Fitness>
43.2958

> <Gold.PLP.PLP>
-32.9518

> <Gold.PLP.part.hbond>
-3.0000

> <Gold.PLP.part.metal>
0.0000

> <Gold.PLP.part.buried>
-5.3837

> <Gold.PLP.part.nonpolar>
-25.0861

> <Gold.PLP.part.repulsive>
0.8195

> <Gold.PLP.ligand.clash>
0.0000

> <Gold.PLP.ligand.torsion>
0.9748

> <Gold.PLP.Chemscore.Hbond>
3.0000

> <Gold.PLP.Chemscore.CHOScore>
1.0000

> <Gold.PLP.Chemscore.Metal>
0.0000

> <Gold.Chemscore.Hbonds>
donor molecule, donor type, donor heavy atom, donor atom, acceptor molecule, acceptor atom, score
      L1  H     1    28       P1 10747  0.02
      P1  H  6896  6909       L1    19  1.00
      L1  C     6    34       P1 10747  1.00

> <Gold.PLP.Chemscore.Internal.Correction>
0.2935

> <Gold.Rescore>
     Score         DG    S(hbond)    S(metal)    S(lipo)     H(rot)  DE(clash)    DE(int)     intcor
     10.18     -13.80       2.68        0.00      73.36       3.61       0.12       3.50       ----

> <Gold.Chemscore.Fitness>
10.1766

> <Gold.Chemscore.DG>
-13.7972

> <Gold.Chemscore.ZeroCoef>
-5.4800

> <Gold.Chemscore.Hbond>
2.6850

> <Gold.Chemscore.Metal>
0.0000

> <Gold.Chemscore.Lipo>
73.3634

> <Gold.Chemscore.Internal_Hbond>
0.0000

> <Gold.Chemscore.DEClash>
0.1214

> <Gold.Chemscore.DEInternal>
3.4992

> <Gold.Chemscore.Rot>
3.6071

> <Gold.Chemscore.Internal.Correction>
   9.000000E+99

> <Gold.Chemscore.Hbonds>
donor molecule, donor type, donor heavy atom, donor atom, acceptor molecule, acceptor atom, score
      L1  H     1    28       P1 10747  0.07
      P1  H  6896  6909       L1    19  0.57

> <Gold.Chemscore.Hbond.Weighted>
-8.9679

> <Gold.Chemscore.Metal.Weighted>
-0.0000

> <Gold.Chemscore.Lipo.Weighted>
-8.5835

> <Gold.Chemscore.Internal_Hbond.Weighted>
0.0000

> <Gold.Chemscore.DEClash.Weighted>
0.1214

> <Gold.Chemscore.DEInternal.Weighted>
3.4992

> <Gold.Chemscore.Rot.Weighted>
9.2342

> <Gold.Chemscore.Internal.Correction.Weighted>
   9.000000E+99

> <Gold.Protein.RotatedTorsions>
[ 6907 6896 6895 6894 ] final  -11.06 input  -60.11 | X-H torsion
[ 7974 7965 7964 7962 ] final  159.73 input  175.53 | X-H torsion
[ 8008 7997 7996 7995 ] final   27.98 input   59.86 | X-H torsion
[ 10167 10162 10161 10158 ] final  127.37 input  -65.29 | X-H torsion
[ 10718 10713 10712 10709 ] final  106.63 input   66.30 | X-H torsion
[ 10763 10752 10751 10750 ] final  117.79 input  -60.55 | X-H torsion
[ 11005 11000 10999 10996 ] final   31.31 input  -57.11 | X-H torsion

> <Gold.Protein.ActiveResidues>
 VAL166  LYS551  ARG553  GLY616  TRP617  ASP618  TYR619  PRO620  LYS621  CYS622 
 ASP623  PHE694  ASN695  SER759  ASP760  ASP761  ALA762  ILE779  LEU786  VAL792 
 PHE793  MET794  SER795  GLU796  ALA797  LYS798  CYS799  TRP800  GLU811  SER814 

> <Gold.Protein.RotatedAtoms>
  151.3922  135.0958  159.9529 H   0  0  0  0  0  0  0  0  0  0  0  0  # atno 6907 bound_to 6896
  152.5076  133.8969  159.7432 H   0  0  0  0  0  0  0  0  0  0  0  0  # atno 6908 bound_to 6896
  150.9425  133.6585  159.2816 H   0  0  0  0  0  0  0  0  0  0  0  0  # atno 6909 bound_to 6896
  144.7774  139.7658  143.6273 H   0  0  0  0  0  0  0  0  0  0  0  0  # atno 7974 bound_to 7965
  155.0515  140.3180  155.4690 H   0  0  0  0  0  0  0  0  0  0  0  0  # atno 8008 bound_to 7997
  156.2833  140.2145  156.5585 H   0  0  0  0  0  0  0  0  0  0  0  0  # atno 8009 bound_to 7997
  154.7206  140.0490  157.0624 H   0  0  0  0  0  0  0  0  0  0  0  0  # atno 8010 bound_to 7997
  139.5582  144.6863  151.4120 H   0  0  0  0  0  0  0  0  0  0  0  0  # atno 10167 bound_to 10162
  157.6660  131.0855  150.6036 H   0  0  0  0  0  0  0  0  0  0  0  0  # atno 10718 bound_to 10713
  153.5578  135.3527  155.2786 H   0  0  0  0  0  0  0  0  0  0  0  0  # atno 10763 bound_to 10752
  154.8699  135.4129  154.2865 H   0  0  0  0  0  0  0  0  0  0  0  0  # atno 10764 bound_to 10752
  153.3604  135.7059  153.6785 H   0  0  0  0  0  0  0  0  0  0  0  0  # atno 10765 bound_to 10752
  140.2852  134.2927  155.7790 H   0  0  0  0  0  0  0  0  0  0  0  0  # atno 11005 bound_to 11000
  146.1963  139.5231  142.9772 LP  0  0  0  0  0  0  0  0  0  0  0  0  # atno 17320 bound_to 7965
  145.6145  141.0333  143.1948 LP  0  0  0  0  0  0  0  0  0  0  0  0  # atno 17321 bound_to 7965
  140.6858  143.7977  150.7184 LP  0  0  0  0  0  0  0  0  0  0  0  0  # atno 17342 bound_to 10162
  140.1444  143.4413  152.2172 LP  0  0  0  0  0  0  0  0  0  0  0  0  # atno 17343 bound_to 10162
  156.6336  130.4439  149.5777 LP  0  0  0  0  0  0  0  0  0  0  0  0  # atno 17370 bound_to 10713
  156.2263  130.6767  151.1418 LP  0  0  0  0  0  0  0  0  0  0  0  0  # atno 17371 bound_to 10713
  141.2156  133.7550  156.9542 LP  0  0  0  0  0  0  0  0  0  0  0  0  # atno 17394 bound_to 11000
  140.1246  134.9395  157.2251 LP  0  0  0  0  0  0  0  0  0  0  0  0  # atno 17395 bound_to 11000

$$$$
