AV-unprocessed.smi:3112|AV-procd|sdf|11845|dock2
  -GOLD-   2272017223D 1   1.00000     0.00000
 Structure written by MMmdl.
 36 36  0  0  0  0  0  0  0  0  1 V2000
  150.2826  138.7351  154.3912 C   0  0  0  0  0  0  0  0  0  0  0  0
  150.8336  139.2755  155.7177 C   0  0  0  0  0  0  0  0  0  0  0  0
  152.0117  138.4482  156.2695 C   0  0  1  0  0  0  0  0  0  0  0  0
  153.2089  138.7512  155.5813 O   0  0  0  0  0  0  0  0  0  0  0  0
  152.2490  138.6092  157.7831 C   0  0  0  0  0  0  0  0  0  0  0  0
  152.9906  139.8319  158.1046 N   0  0  0  0  0  0  0  0  0  0  0  0
  152.2052  140.8769  158.7682 C   0  0  2  0  0  0  0  0  0  0  0  0
  151.2135  141.4573  157.7421 C   0  0  0  0  0  0  0  0  0  0  0  0
  153.1176  141.9746  159.3939 C   0  0  2  0  0  0  0  0  0  0  0  0
  153.9052  141.5187  160.6363 C   0  0  0  0  0  0  0  0  0  0  0  0
  152.3704  143.1865  159.7091 N   0  0  0  0  0  0  0  0  0  0  0  0
  152.4213  144.4101  159.0734 C   0  0  0  0  0  0  0  0  0  0  0  0
  151.5495  145.2415  159.7159 C   0  0  0  0  0  0  0  0  0  0  0  0
  151.0043  144.4274  160.7474 C   0  0  0  0  0  0  0  0  0  0  0  0
  151.4966  143.1997  160.7417 N   0  0  0  0  0  0  0  0  0  0  0  0
  149.4326  139.3289  154.0546 H   0  0  0  0  0  0  0  0  0  0  0  0
  149.9460  137.7032  154.4948 H   0  0  0  0  0  0  0  0  0  0  0  0
  151.0375  138.7651  153.6053 H   0  0  0  0  0  0  0  0  0  0  0  0
  151.1306  140.3166  155.5862 H   0  0  0  0  0  0  0  0  0  0  0  0
  150.0262  139.2786  156.4507 H   0  0  0  0  0  0  0  0  0  0  0  0
  151.8068  137.3932  156.0845 H   0  0  0  0  0  0  0  0  0  0  0  0
  153.0004  138.9161  154.6747 H   0  0  0  0  0  0  0  0  0  0  0  0
  151.2799  138.6433  158.2824 H   0  0  0  0  0  0  0  0  0  0  0  0
  152.7492  137.7237  158.1696 H   0  0  0  0  0  0  0  0  0  0  0  0
  153.3969  140.2037  157.2522 H   0  0  0  0  0  0  0  0  0  0  0  0
  151.6044  140.4275  159.5606 H   0  0  0  0  0  0  0  0  0  0  0  0
  150.5090  142.1494  158.2035 H   0  0  0  0  0  0  0  0  0  0  0  0
  150.6213  140.6669  157.2797 H   0  0  0  0  0  0  0  0  0  0  0  0
  151.7331  141.9912  156.9457 H   0  0  0  0  0  0  0  0  0  0  0  0
  153.8531  142.2586  158.6393 H   0  0  0  0  0  0  0  0  0  0  0  0
  154.6607  140.7776  160.3777 H   0  0  0  0  0  0  0  0  0  0  0  0
  153.2483  141.0889  161.3931 H   0  0  0  0  0  0  0  0  0  0  0  0
  154.4341  142.3562  161.0927 H   0  0  0  0  0  0  0  0  0  0  0  0
  153.0659  144.5852  158.2244 H   0  0  0  0  0  0  0  0  0  0  0  0
  151.3339  146.2740  159.4844 H   0  0  0  0  0  0  0  0  0  0  0  0
  150.2705  144.6900  161.4950 H   0  0  0  0  0  0  0  0  0  0  0  0
  1  2  1  0  0  0  0
  1 16  1  0  0  0  0
  1 17  1  0  0  0  0
  1 18  1  0  0  0  0
  2  3  1  0  0  0  0
  2 19  1  0  0  0  0
  2 20  1  0  0  0  0
  3  4  1  0  0  0  0
  3  5  1  0  0  0  0
  3 21  1  0  0  0  0
  4 22  1  0  0  0  0
  5  6  1  0  0  0  0
  5 23  1  0  0  0  0
  5 24  1  0  0  0  0
  6  7  1  0  0  0  0
  6 25  1  0  0  0  0
  7  8  1  0  0  0  0
  7  9  1  0  0  0  0
  7 26  1  0  0  0  0
  8 27  1  0  0  0  0
  8 28  1  0  0  0  0
  8 29  1  0  0  0  0
  9 10  1  0  0  0  0
  9 11  1  0  0  0  0
  9 30  1  0  0  0  0
 10 31  1  0  0  0  0
 10 32  1  0  0  0  0
 10 33  1  0  0  0  0
 11 15  1  0  0  0  0
 11 12  1  0  0  0  0
 12 13  2  0  0  0  0
 12 34  1  0  0  0  0
 13 14  1  0  0  0  0
 13 35  1  0  0  0  0
 14 15  2  0  0  0  0
 14 36  1  0  0  0  0
M  END
> <s_m_source_file>
AV-unprocessed.smi

> <i_m_source_file_index>
3112

> <i_lp_mmshare_version>
43012

> <i_f3d_flags>
0

> <s_epik_input>
W0NIM11bQ0gyXVtDQEhdKFtPSF0pW0NIMl1bTkhdW0NASF0oW0NIM10pW0NASF0oW0NIM10pbjFbY0hdW2NIXVtjSF1uMQ==

> <s_epik_cmdline>
J2VwaWtfcHl0aG9uJywgJy1waCcsICc3LjAnLCAnLXRuJywgJzgnLCAnLW1hJywgJzIwMCcsICctbWV0YWxfYmluZGluZycsICctaW1hZScsICc8aW5maWxlLm1hZT4nLCAnLW9tYWUnLCAnPG91dGZpbGUubWFlPic=

> <r_lp_tautomer_probability>
1

> <r_epik_Ionization_Penalty>
2.16876

> <r_epik_Ionization_Penalty_Charging>
0

> <r_epik_Ionization_Penalty_Neutral>
2.16876

> <r_epik_State_Penalty>
2.30854

> <r_epik_Charging_Adjusted_Penalty>
2.30854

> <i_epik_Tot_Q>
0

> <i_epik_Tot_abs_Q>
0

> <r_epik_Metal_State_Penalty>
2.3073

> <b_epik_Metal_Only>
0

> <s_lp_Force_Field>
OPLS_2005

> <r_lp_Energy>
23.3328

> <b_lp_Chiralities_Consistent>
1

> <s_lp_Variant>
AV-unprocessed.smi:3112-10

> <Gold.Version>
5.8.1

> <Gold.Id.Protein>
6NUR|6NUR_protein|mol2

> <Gold.PLP.Fitness>
39.9383

> <Gold.PLP.PLP>
-38.8476

> <Gold.PLP.part.hbond>
-3.0000

> <Gold.PLP.part.metal>
0.0000

> <Gold.PLP.part.buried>
-3.9739

> <Gold.PLP.part.nonpolar>
-31.5219

> <Gold.PLP.part.repulsive>
0.0917

> <Gold.PLP.ligand.clash>
0.0000

> <Gold.PLP.ligand.torsion>
1.1140

> <Gold.PLP.Chemscore.Hbond>
1.0000

> <Gold.PLP.Chemscore.CHOScore>
0.0000

> <Gold.PLP.Chemscore.Metal>
0.0000

> <Gold.Chemscore.Hbonds>
donor molecule, donor type, donor heavy atom, donor atom, acceptor molecule, acceptor atom, score
      P1  H  7997  8010       L1     4  1.00

> <Gold.PLP.Chemscore.Internal.Correction>
0.3187

> <Gold.Rescore>
     Score         DG    S(hbond)    S(metal)    S(lipo)     H(rot)  DE(clash)    DE(int)     intcor
     13.21     -14.41       0.98        0.00      98.94       2.31       0.00       1.19       ----

> <Gold.Chemscore.Fitness>
13.2120

> <Gold.Chemscore.DG>
-14.4113

> <Gold.Chemscore.ZeroCoef>
-5.4800

> <Gold.Chemscore.Hbond>
0.9794

> <Gold.Chemscore.Metal>
0.0000

> <Gold.Chemscore.Lipo>
98.9377

> <Gold.Chemscore.Internal_Hbond>
0.0000

> <Gold.Chemscore.DEClash>
0.0047

> <Gold.Chemscore.DEInternal>
1.1946

> <Gold.Chemscore.Rot>
2.3108

> <Gold.Chemscore.Internal.Correction>
   9.000000E+99

> <Gold.Chemscore.Hbonds>
donor molecule, donor type, donor heavy atom, donor atom, acceptor molecule, acceptor atom, score
      P1  H  7997  8010       L1     4  0.48

> <Gold.Chemscore.Hbond.Weighted>
-3.2713

> <Gold.Chemscore.Metal.Weighted>
-0.0000

> <Gold.Chemscore.Lipo.Weighted>
-11.5757

> <Gold.Chemscore.Internal_Hbond.Weighted>
0.0000

> <Gold.Chemscore.DEClash.Weighted>
0.0047

> <Gold.Chemscore.DEInternal.Weighted>
1.1946

> <Gold.Chemscore.Rot.Weighted>
5.9157

> <Gold.Chemscore.Internal.Correction.Weighted>
   9.000000E+99

> <Gold.Protein.RotatedTorsions>
[ 6907 6896 6895 6894 ] final -164.51 input  -60.11 | X-H torsion
[ 7974 7965 7964 7962 ] final  173.09 input  175.53 | X-H torsion
[ 8008 7997 7996 7995 ] final   93.10 input   59.86 | X-H torsion
[ 10167 10162 10161 10158 ] final  -50.69 input  -65.29 | X-H torsion
[ 10718 10713 10712 10709 ] final  142.25 input   66.30 | X-H torsion
[ 10763 10752 10751 10750 ] final   88.96 input  -60.55 | X-H torsion
[ 11005 11000 10999 10996 ] final  -10.79 input  -57.11 | X-H torsion

> <Gold.Protein.ActiveResidues>
 VAL166  LYS551  ARG553  GLY616  TRP617  ASP618  TYR619  PRO620  LYS621  CYS622 
 ASP623  PHE694  ASN695  SER759  ASP760  ASP761  ALA762  ILE779  LEU786  VAL792 
 PHE793  MET794  SER795  GLU796  ALA797  LYS798  CYS799  TRP800  GLU811  SER814 

> <Gold.Protein.RotatedAtoms>
  151.4129  133.3722  159.2745 H   0  0  0  0  0  0  0  0  0  0  0  0  # atno 6907 bound_to 6896
  150.9350  134.8764  159.7586 H   0  0  0  0  0  0  0  0  0  0  0  0  # atno 6908 bound_to 6896
  152.5045  134.4076  159.9490 H   0  0  0  0  0  0  0  0  0  0  0  0  # atno 6909 bound_to 6896
  144.7252  139.9595  143.6434 H   0  0  0  0  0  0  0  0  0  0  0  0  # atno 7974 bound_to 7965
  156.0429  140.3317  155.7264 H   0  0  0  0  0  0  0  0  0  0  0  0  # atno 8008 bound_to 7997
  155.5717  140.0628  157.2822 H   0  0  0  0  0  0  0  0  0  0  0  0  # atno 8009 bound_to 7997
  154.4401  140.1859  156.0875 H   0  0  0  0  0  0  0  0  0  0  0  0  # atno 8010 bound_to 7997
  140.6625  143.2648  151.4396 H   0  0  0  0  0  0  0  0  0  0  0  0  # atno 10167 bound_to 10162
  157.3827  131.0994  151.0723 H   0  0  0  0  0  0  0  0  0  0  0  0  # atno 10718 bound_to 10713
  153.1822  135.4487  155.0043 H   0  0  0  0  0  0  0  0  0  0  0  0  # atno 10763 bound_to 10752
  154.8037  135.3266  154.7487 H   0  0  0  0  0  0  0  0  0  0  0  0  # atno 10764 bound_to 10752
  153.7950  135.6967  153.4920 H   0  0  0  0  0  0  0  0  0  0  0  0  # atno 10765 bound_to 10752
  140.7485  133.8612  155.9025 H   0  0  0  0  0  0  0  0  0  0  0  0  # atno 11005 bound_to 11000
  146.0648  139.3640  143.0559 LP  0  0  0  0  0  0  0  0  0  0  0  0  # atno 17320 bound_to 7965
  145.8045  140.9755  143.0981 LP  0  0  0  0  0  0  0  0  0  0  0  0  # atno 17321 bound_to 7965
  139.5863  144.1597  152.2033 LP  0  0  0  0  0  0  0  0  0  0  0  0  # atno 17342 bound_to 10162
  140.0938  144.5598  150.7036 LP  0  0  0  0  0  0  0  0  0  0  0  0  # atno 17343 bound_to 10162
  157.1786  130.6299  149.5664 LP  0  0  0  0  0  0  0  0  0  0  0  0  # atno 17370 bound_to 10713
  155.9779  130.4761  150.6625 LP  0  0  0  0  0  0  0  0  0  0  0  0  # atno 17371 bound_to 10713
  140.9772  134.1453  157.4525 LP  0  0  0  0  0  0  0  0  0  0  0  0  # atno 17394 bound_to 11000
  139.8792  134.9998  156.5978 LP  0  0  0  0  0  0  0  0  0  0  0  0  # atno 17395 bound_to 11000

$$$$
