AV-unprocessed.smi:1196|AV-procd|sdf|5007|dock6
  -GOLD-   22720 4 23D 1   1.00000     0.00000
 Structure written by MMmdl.
 36 37  0  0  0  0  0  0  0  0  2 V2000
  154.0835  140.6645  160.6232 C   0  0  0  0  0  0  0  0  0  0  0  0
  152.8054  141.4964  160.4322 C   0  0  1  0  0  0  0  0  0  0  0  0
  153.0793  143.0004  160.6283 C   0  0  0  0  0  0  0  0  0  0  0  0
  152.1881  143.8339  159.8402 N   0  0  0  0  0  0  0  0  0  0  0  0
  152.5156  144.7508  158.8639 C   0  0  0  0  0  0  0  0  0  0  0  0
  151.3487  145.2951  158.4096 C   0  0  0  0  0  0  0  0  0  0  0  0
  150.3478  144.6396  159.1797 C   0  0  0  0  0  0  0  0  0  0  0  0
  150.8528  143.7643  160.0339 N   0  0  0  0  0  0  0  0  0  0  0  0
  152.2490  141.2554  159.1027 N   0  0  0  0  0  0  0  0  0  0  0  0
  151.9551  140.0528  158.5856 C   0  0  0  0  0  0  0  0  0  0  0  0
  152.1366  138.9945  159.1880 O   0  0  0  0  0  0  0  0  0  0  0  0
  151.3581  140.0466  157.1768 C   0  0  0  0  0  0  0  0  0  0  0  0
  150.1704  141.0173  157.0406 C   0  0  0  0  0  0  0  0  0  0  0  0
  149.1644  140.5898  155.9538 C   0  0  1  0  0  0  0  0  0  0  0  0
  148.0682  141.5294  155.8554 N   0  0  0  0  0  0  0  0  0  0  0  0
  147.9756  142.0417  154.6300 C   0  0  0  0  0  0  0  0  0  0  0  0
  147.0973  142.8476  154.3307 O   0  0  0  0  0  0  0  0  0  0  0  0
  148.9543  141.5496  153.8461 N   0  5  0  0  0  0  0  0  0  0  0  0
  149.7256  140.6808  154.5349 C   0  0  0  0  0  0  0  0  0  0  0  0
  150.7062  140.0311  154.1762 O   0  0  0  0  0  0  0  0  0  0  0  0
  154.5053  140.8171  161.6168 H   0  0  0  0  0  0  0  0  0  0  0  0
  154.8459  140.9354  159.8920 H   0  0  0  0  0  0  0  0  0  0  0  0
  153.8820  139.5983  160.5145 H   0  0  0  0  0  0  0  0  0  0  0  0
  152.0811  141.1839  161.1870 H   0  0  0  0  0  0  0  0  0  0  0  0
  152.9449  143.2699  161.6768 H   0  0  0  0  0  0  0  0  0  0  0  0
  154.1132  143.2431  160.3767 H   0  0  0  0  0  0  0  0  0  0  0  0
  153.5402  144.9380  158.5783 H   0  0  0  0  0  0  0  0  0  0  0  0
  151.2284  146.0478  157.6447 H   0  0  0  0  0  0  0  0  0  0  0  0
  149.2766  144.7721  159.1432 H   0  0  0  0  0  0  0  0  0  0  0  0
  152.0568  142.0701  158.5375 H   0  0  0  0  0  0  0  0  0  0  0  0
  152.1432  140.3191  156.4709 H   0  0  0  0  0  0  0  0  0  0  0  0
  151.0446  139.0342  156.9172 H   0  0  0  0  0  0  0  0  0  0  0  0
  149.6607  141.1164  158.0009 H   0  0  0  0  0  0  0  0  0  0  0  0
  150.5491  142.0109  156.7953 H   0  0  0  0  0  0  0  0  0  0  0  0
  148.7845  139.5837  156.1355 H   0  0  0  0  0  0  0  0  0  0  0  0
  147.4453  141.7430  156.6199 H   0  0  0  0  0  0  0  0  0  0  0  0
  1  2  1  0  0  0  0
  1 21  1  0  0  0  0
  1 22  1  0  0  0  0
  1 23  1  0  0  0  0
  2  3  1  0  0  0  0
  2  9  1  0  0  0  0
  2 24  1  0  0  0  0
  3  4  1  0  0  0  0
  3 25  1  0  0  0  0
  3 26  1  0  0  0  0
  4  8  1  0  0  0  0
  4  5  1  0  0  0  0
  5  6  2  0  0  0  0
  5 27  1  0  0  0  0
  6  7  1  0  0  0  0
  6 28  1  0  0  0  0
  7  8  2  0  0  0  0
  7 29  1  0  0  0  0
  9 10  1  0  0  0  0
  9 30  1  0  0  0  0
 10 11  2  0  0  0  0
 10 12  1  0  0  0  0
 12 13  1  0  0  0  0
 12 31  1  0  0  0  0
 12 32  1  0  0  0  0
 13 14  1  0  0  0  0
 13 33  1  0  0  0  0
 13 34  1  0  0  0  0
 14 19  1  0  0  0  0
 14 15  1  0  0  0  0
 14 35  1  0  0  0  0
 15 16  1  0  0  0  0
 15 36  1  0  0  0  0
 16 17  2  0  0  0  0
 16 18  1  0  0  0  0
 18 19  1  0  0  0  0
 19 20  2  0  0  0  0
M  CHG  1  18  -1
M  END
> <s_m_source_file>
AV-unprocessed.smi

> <i_m_source_file_index>
1196

> <i_lp_mmshare_version>
43012

> <i_f3d_flags>
0

> <s_epik_input>
bjFbY0hdW2NIXVtjSF1uMVtDSDJdW0NAQEhdKFtDSDNdKVtOSF1DKD1PKVtDSDJdW0NIMl1bQ0BASF0yW05IXUMoPU8pW05IXUMyPU8=

> <s_epik_cmdline>
J2VwaWtfcHl0aG9uJywgJy1waCcsICc3LjAnLCAnLXRuJywgJzgnLCAnLW1hJywgJzIwMCcsICctbWV0YWxfYmluZGluZycsICctaW1hZScsICc8aW5maWxlLm1hZT4nLCAnLW9tYWUnLCAnPG91dGZpbGUubWFlPic=

> <r_lp_tautomer_probability>
1

> <r_epik_Ionization_Penalty>
2.57056

> <r_epik_Ionization_Penalty_Charging>
2.57023

> <r_epik_Ionization_Penalty_Neutral>
0.000331301

> <r_epik_State_Penalty>
2.56828

> <r_epik_Charging_Adjusted_Penalty>
5.13851

> <i_epik_Tot_Q>
-1

> <i_epik_Tot_abs_Q>
1

> <r_epik_Metal_State_Penalty>
0.444883

> <b_epik_Metal_Only>
1

> <s_lp_Force_Field>
OPLS_2005

> <r_lp_Energy>
6.594

> <b_lp_Chiralities_Consistent>
1

> <s_lp_Variant>
AV-unprocessed.smi:1196-12

> <Gold.Version>
5.8.1

> <Gold.Id.Protein>
6NUR|6NUR_protein|mol2

> <Gold.PLP.Fitness>
45.0302

> <Gold.PLP.PLP>
-37.7644

> <Gold.PLP.part.hbond>
-2.5516

> <Gold.PLP.part.metal>
0.0000

> <Gold.PLP.part.buried>
-4.9521

> <Gold.PLP.part.nonpolar>
-31.2323

> <Gold.PLP.part.repulsive>
2.0366

> <Gold.PLP.ligand.clash>
0.0000

> <Gold.PLP.ligand.torsion>
0.6748

> <Gold.PLP.Chemscore.Hbond>
1.8480

> <Gold.PLP.Chemscore.CHOScore>
0.9669

> <Gold.PLP.Chemscore.Metal>
0.0000

> <Gold.Chemscore.Hbonds>
donor molecule, donor type, donor heavy atom, donor atom, acceptor molecule, acceptor atom, score
      P1  H  7989  7998       L1    20  0.71
      P1  H  8011  8017       L1    18  0.69
      L1  C     7    29       P1  8029  0.77

> <Gold.PLP.Chemscore.Internal.Correction>
0.1706

> <Gold.Rescore>
     Score         DG    S(hbond)    S(metal)    S(lipo)     H(rot)  DE(clash)    DE(int)     intcor
      9.16     -11.20       1.26        0.00      76.19       2.89       0.16       1.87       ----

> <Gold.Chemscore.Fitness>
9.1641

> <Gold.Chemscore.DG>
-11.1965

> <Gold.Chemscore.ZeroCoef>
-5.4800

> <Gold.Chemscore.Hbond>
1.2612

> <Gold.Chemscore.Metal>
0.0000

> <Gold.Chemscore.Lipo>
76.1889

> <Gold.Chemscore.Internal_Hbond>
0.0000

> <Gold.Chemscore.DEClash>
0.1643

> <Gold.Chemscore.DEInternal>
1.8682

> <Gold.Chemscore.Rot>
2.8946

> <Gold.Chemscore.Internal.Correction>
   9.000000E+99

> <Gold.Chemscore.Hbonds>
donor molecule, donor type, donor heavy atom, donor atom, acceptor molecule, acceptor atom, score
      P1  H  7989  7998       L1    20  0.53
      P1  H  8011  8017       L1    18  0.64

> <Gold.Chemscore.Hbond.Weighted>
-4.2126

> <Gold.Chemscore.Metal.Weighted>
-0.0000

> <Gold.Chemscore.Lipo.Weighted>
-8.9141

> <Gold.Chemscore.Internal_Hbond.Weighted>
0.0000

> <Gold.Chemscore.DEClash.Weighted>
0.1643

> <Gold.Chemscore.DEInternal.Weighted>
1.8682

> <Gold.Chemscore.Rot.Weighted>
7.4101

> <Gold.Chemscore.Internal.Correction.Weighted>
   9.000000E+99

> <Gold.Protein.RotatedTorsions>
[ 6907 6896 6895 6894 ] final   83.47 input  -60.11 | X-H torsion
[ 7974 7965 7964 7962 ] final -111.93 input  175.53 | X-H torsion
[ 8008 7997 7996 7995 ] final   71.67 input   59.86 | X-H torsion
[ 10167 10162 10161 10158 ] final  -41.23 input  -65.29 | X-H torsion
[ 10718 10713 10712 10709 ] final  -26.71 input   66.30 | X-H torsion
[ 10763 10752 10751 10750 ] final   16.92 input  -60.55 | X-H torsion
[ 11005 11000 10999 10996 ] final -157.30 input  -57.11 | X-H torsion

> <Gold.Protein.ActiveResidues>
 VAL166  LYS551  ARG553  GLY616  TRP617  ASP618  TYR619  PRO620  LYS621  CYS622 
 ASP623  PHE694  ASN695  SER759  ASP760  ASP761  ALA762  ILE779  LEU786  VAL792 
 PHE793  MET794  SER795  GLU796  ALA797  LYS798  CYS799  TRP800  GLU811  SER814 

> <Gold.Protein.RotatedAtoms>
  152.5328  134.2891  159.9035 H   0  0  0  0  0  0  0  0  0  0  0  0  # atno 6907 bound_to 6896
  151.2843  133.4188  159.2636 H   0  0  0  0  0  0  0  0  0  0  0  0  # atno 6908 bound_to 6896
  151.0256  134.9517  159.8140 H   0  0  0  0  0  0  0  0  0  0  0  0  # atno 6909 bound_to 6896
  145.1502  140.8825  143.3651 H   0  0  0  0  0  0  0  0  0  0  0  0  # atno 7974 bound_to 7965
  155.7574  140.3487  155.5180 H   0  0  0  0  0  0  0  0  0  0  0  0  # atno 8008 bound_to 7997
  155.8947  140.1024  157.1414 H   0  0  0  0  0  0  0  0  0  0  0  0  # atno 8009 bound_to 7997
  154.4037  140.1297  156.4347 H   0  0  0  0  0  0  0  0  0  0  0  0  # atno 8010 bound_to 7997
  140.7009  143.3107  151.3037 H   0  0  0  0  0  0  0  0  0  0  0  0  # atno 10167 bound_to 10162
  156.4476  130.4477  149.7011 H   0  0  0  0  0  0  0  0  0  0  0  0  # atno 10718 bound_to 10713
  153.1386  135.6755  153.9062 H   0  0  0  0  0  0  0  0  0  0  0  0  # atno 10763 bound_to 10752
  153.8526  135.3091  155.3434 H   0  0  0  0  0  0  0  0  0  0  0  0  # atno 10764 bound_to 10752
  154.7769  135.4909  153.9846 H   0  0  0  0  0  0  0  0  0  0  0  0  # atno 10765 bound_to 10752
  140.6661  134.4297  157.5233 H   0  0  0  0  0  0  0  0  0  0  0  0  # atno 11005 bound_to 11000
  145.0439  139.3237  143.5963 LP  0  0  0  0  0  0  0  0  0  0  0  0  # atno 17320 bound_to 7965
  146.3495  139.9822  142.8694 LP  0  0  0  0  0  0  0  0  0  0  0  0  # atno 17321 bound_to 7965
  139.6528  144.0331  152.2638 LP  0  0  0  0  0  0  0  0  0  0  0  0  # atno 17342 bound_to 10162
  139.9873  144.6387  150.7846 LP  0  0  0  0  0  0  0  0  0  0  0  0  # atno 17343 bound_to 10162
  156.3850  130.7598  151.2594 LP  0  0  0  0  0  0  0  0  0  0  0  0  # atno 17370 bound_to 10713
  157.7504  131.0284  150.4049 LP  0  0  0  0  0  0  0  0  0  0  0  0  # atno 17371 bound_to 10713
  139.8997  134.8586  156.1950 LP  0  0  0  0  0  0  0  0  0  0  0  0  # atno 17394 bound_to 11000
  141.0428  133.6929  156.1629 LP  0  0  0  0  0  0  0  0  0  0  0  0  # atno 17395 bound_to 11000

$$$$
