AV-unprocessed.smi:445|AV-procd|sdf|2591|dock6
  -GOLD-   2262022583D 1   1.00000     0.00000
 Structure written by MMmdl.
 44 45  0  0  0  0  0  0  0  0  3 V2000
  153.1277  141.4791  161.4173 C   0  0  0  0  0  0  0  0  0  0  0  0
  152.8748  142.8800  160.8337 C   0  0  2  0  0  0  0  0  0  0  0  0
  151.7702  143.6269  161.6101 C   0  0  0  0  0  0  0  0  0  0  0  0
  151.5587  145.0484  161.0648 C   0  0  0  0  0  0  0  0  0  0  0  0
  151.2482  145.0301  159.5605 C   0  0  0  0  0  0  0  0  0  0  0  0
  152.3424  144.2864  158.7750 C   0  0  0  0  0  0  0  0  0  0  0  0
  152.5806  142.8605  159.3118 C   0  0  2  0  0  0  0  0  0  0  0  0
  151.4308  142.0117  158.9925 N   0  0  0  0  0  0  0  0  0  0  0  0
  150.8317  141.9037  157.7966 C   0  0  0  0  0  0  0  0  0  0  0  0
  151.2044  142.5114  156.7920 O   0  0  0  0  0  0  0  0  0  0  0  0
  149.6419  140.9358  157.7309 C   0  0  0  0  0  0  0  0  0  0  0  0
  150.0250  139.5298  157.9551 N   0  0  0  0  0  0  0  0  0  0  0  0
  151.3512  139.1830  157.6411 C   0  0  0  0  0  0  0  0  0  0  0  0
  151.8204  137.9322  157.7921 C   0  0  0  0  0  0  0  0  0  0  0  0
  153.1883  137.5988  157.4563 N   0  3  0  0  0  0  0  0  0  0  0  0
  153.5582  136.4352  157.5765 O   0  0  0  0  0  0  0  0  0  0  0  0
  153.9383  138.4869  157.0624 O   0  5  0  0  0  0  0  0  0  0  0  0
  150.9112  136.9250  158.2988 C   0  0  0  0  0  0  0  0  0  0  0  0
  149.6253  137.2355  158.6042 C   0  0  0  0  0  0  0  0  0  0  0  0
  148.6620  136.2389  159.1235 C   0  0  0  0  0  0  0  0  0  0  0  0
  147.6583  136.7626  159.8384 N   0  0  0  0  0  0  0  0  0  0  0  0
  148.7007  135.0190  158.9635 O   0  0  0  0  0  0  0  0  0  0  0  0
  149.1147  138.6226  158.4294 C   0  0  0  0  0  0  0  0  0  0  0  0
  147.9614  138.9854  158.6774 O   0  0  0  0  0  0  0  0  0  0  0  0
  152.2324  140.8580  161.3818 H   0  0  0  0  0  0  0  0  0  0  0  0
  153.4419  141.5417  162.4594 H   0  0  0  0  0  0  0  0  0  0  0  0
  153.9143  140.9620  160.8670 H   0  0  0  0  0  0  0  0  0  0  0  0
  153.7987  143.4441  160.9701 H   0  0  0  0  0  0  0  0  0  0  0  0
  150.8334  143.0709  161.5539 H   0  0  0  0  0  0  0  0  0  0  0  0
  152.0306  143.6805  162.6677 H   0  0  0  0  0  0  0  0  0  0  0  0
  150.7478  145.5371  161.6055 H   0  0  0  0  0  0  0  0  0  0  0  0
  152.4536  145.6453  161.2453 H   0  0  0  0  0  0  0  0  0  0  0  0
  150.2821  144.5533  159.3916 H   0  0  0  0  0  0  0  0  0  0  0  0
  151.1552  146.0509  159.1887 H   0  0  0  0  0  0  0  0  0  0  0  0
  152.0845  144.2525  157.7155 H   0  0  0  0  0  0  0  0  0  0  0  0
  153.2727  144.8521  158.8408 H   0  0  0  0  0  0  0  0  0  0  0  0
  153.4662  142.4726  158.8053 H   0  0  0  0  0  0  0  0  0  0  0  0
  151.0556  141.4640  159.7534 H   0  0  0  0  0  0  0  0  0  0  0  0
  148.9056  141.2574  158.4685 H   0  0  0  0  0  0  0  0  0  0  0  0
  149.1380  141.0417  156.7681 H   0  0  0  0  0  0  0  0  0  0  0  0
  151.9505  139.9990  157.2632 H   0  0  0  0  0  0  0  0  0  0  0  0
  151.2884  135.9215  158.4255 H   0  0  0  0  0  0  0  0  0  0  0  0
  146.9489  136.1626  160.2328 H   0  0  0  0  0  0  0  0  0  0  0  0
  147.6144  137.7619  159.9783 H   0  0  0  0  0  0  0  0  0  0  0  0
  1  2  1  0  0  0  0
  1 25  1  0  0  0  0
  1 26  1  0  0  0  0
  1 27  1  0  0  0  0
  2  7  1  0  0  0  0
  2  3  1  0  0  0  0
  2 28  1  0  0  0  0
  3  4  1  0  0  0  0
  3 29  1  0  0  0  0
  3 30  1  0  0  0  0
  4  5  1  0  0  0  0
  4 31  1  0  0  0  0
  4 32  1  0  0  0  0
  5  6  1  0  0  0  0
  5 33  1  0  0  0  0
  5 34  1  0  0  0  0
  6  7  1  0  0  0  0
  6 35  1  0  0  0  0
  6 36  1  0  0  0  0
  7  8  1  0  0  0  0
  7 37  1  0  0  0  0
  8  9  1  0  0  0  0
  8 38  1  0  0  0  0
  9 10  2  0  0  0  0
  9 11  1  0  0  0  0
 11 12  1  0  0  0  0
 11 39  1  0  0  0  0
 11 40  1  0  0  0  0
 12 23  1  0  0  0  0
 12 13  1  0  0  0  0
 13 14  2  0  0  0  0
 13 41  1  0  0  0  0
 14 15  1  0  0  0  0
 14 18  1  0  0  0  0
 15 16  2  0  0  0  0
 15 17  1  0  0  0  0
 18 19  2  0  0  0  0
 18 42  1  0  0  0  0
 19 20  1  0  0  0  0
 19 23  1  0  0  0  0
 20 21  1  0  0  0  0
 20 22  2  0  0  0  0
 21 43  1  0  0  0  0
 21 44  1  0  0  0  0
 23 24  2  0  0  0  0
M  CHG  1  15   1
M  CHG  1  17  -1
M  END
> <s_m_source_file>
AV-unprocessed.smi

> <i_m_source_file_index>
445

> <i_lp_mmshare_version>
43012

> <i_f3d_flags>
0

> <s_epik_input>
W0NIM11bQ0BASF0xW0NIMl1bQ0gyXVtDSDJdW0NIMl1bQ0BIXTFbTkhdQyg9TylbQ0gyXW4yW2NIXWMoW04rXSg9TylbTy1dKVtjSF1jKGMyPU8pQyg9TylbTkgyXQ==

> <s_epik_cmdline>
J2VwaWtfcHl0aG9uJywgJy1waCcsICc3LjAnLCAnLXRuJywgJzgnLCAnLW1hJywgJzIwMCcsICctbWV0YWxfYmluZGluZycsICctaW1hZScsICc8aW5maWxlLm1hZT4nLCAnLW9tYWUnLCAnPG91dGZpbGUubWFlPic=

> <r_lp_tautomer_probability>
1

> <r_epik_Ionization_Penalty>
2.81321e-06

> <r_epik_Ionization_Penalty_Charging>
2.43777e-12

> <r_epik_Ionization_Penalty_Neutral>
2.81321e-06

> <r_epik_State_Penalty>
-0

> <r_epik_Charging_Adjusted_Penalty>
2.43777e-12

> <i_epik_Tot_Q>
0

> <i_epik_Tot_abs_Q>
2

> <r_epik_Metal_State_Penalty>
-0

> <b_epik_Metal_Only>
0

> <s_lp_Force_Field>
OPLS_2005

> <r_lp_Energy>
27.547

> <b_lp_Chiralities_Consistent>
1

> <s_lp_Variant>
AV-unprocessed.smi:445-3

> <Gold.Version>
5.8.1

> <Gold.Id.Protein>
6NUR|6NUR_protein|mol2

> <Gold.PLP.Fitness>
49.6516

> <Gold.PLP.PLP>
-43.0880

> <Gold.PLP.part.hbond>
-3.5596

> <Gold.PLP.part.metal>
0.0000

> <Gold.PLP.part.buried>
-5.4391

> <Gold.PLP.part.nonpolar>
-34.3879

> <Gold.PLP.part.repulsive>
0.6797

> <Gold.PLP.ligand.clash>
0.0000

> <Gold.PLP.ligand.torsion>
0.7428

> <Gold.PLP.Chemscore.Hbond>
2.6720

> <Gold.PLP.Chemscore.CHOScore>
0.0000

> <Gold.PLP.Chemscore.Metal>
0.0000

> <Gold.Chemscore.Hbonds>
donor molecule, donor type, donor heavy atom, donor atom, acceptor molecule, acceptor atom, score
      P1  H  6896  6909       L1    22  0.86
      P1  H  7997  8009       L1    17  0.53

> <Gold.PLP.Chemscore.Internal.Correction>
0.0332

> <Gold.Rescore>
     Score         DG    S(hbond)    S(metal)    S(lipo)     H(rot)  DE(clash)    DE(int)     intcor
     17.84     -21.62       2.79        0.00      95.86       1.71       1.29       2.48       ----

> <Gold.Chemscore.Fitness>
17.8438

> <Gold.Chemscore.DG>
-21.6159

> <Gold.Chemscore.ZeroCoef>
-5.4800

> <Gold.Chemscore.Hbond>
2.7856

> <Gold.Chemscore.Metal>
0.0000

> <Gold.Chemscore.Lipo>
95.8599

> <Gold.Chemscore.Internal_Hbond>
0.0000

> <Gold.Chemscore.DEClash>
1.2887

> <Gold.Chemscore.DEInternal>
2.4834

> <Gold.Chemscore.Rot>
1.7123

> <Gold.Chemscore.Internal.Correction>
   9.000000E+99

> <Gold.Chemscore.Hbonds>
donor molecule, donor type, donor heavy atom, donor atom, acceptor molecule, acceptor atom, score
      P1  H  6896  6909       L1    22  0.42
      P1  H  7997  8009       L1    17  0.52
      P1  H 10752 10765       L1    16  0.04

> <Gold.Chemscore.Hbond.Weighted>
-9.3038

> <Gold.Chemscore.Metal.Weighted>
-0.0000

> <Gold.Chemscore.Lipo.Weighted>
-11.2156

> <Gold.Chemscore.Internal_Hbond.Weighted>
0.0000

> <Gold.Chemscore.DEClash.Weighted>
1.2887

> <Gold.Chemscore.DEInternal.Weighted>
2.4834

> <Gold.Chemscore.Rot.Weighted>
4.3835

> <Gold.Chemscore.Internal.Correction.Weighted>
   9.000000E+99

> <Gold.Protein.RotatedTorsions>
[ 6907 6896 6895 6894 ] final   43.05 input  -60.11 | X-H torsion
[ 7974 7965 7964 7962 ] final  -29.22 input  175.53 | X-H torsion
[ 8008 7997 7996 7995 ] final -168.08 input   59.86 | X-H torsion
[ 10167 10162 10161 10158 ] final  130.22 input  -65.29 | X-H torsion
[ 10718 10713 10712 10709 ] final  -29.86 input   66.30 | X-H torsion
[ 10763 10752 10751 10750 ] final -100.58 input  -60.55 | X-H torsion
[ 11005 11000 10999 10996 ] final   43.92 input  -57.11 | X-H torsion

> <Gold.Protein.ActiveResidues>
 VAL166  LYS551  ARG553  GLY616  TRP617  ASP618  TYR619  PRO620  LYS621  CYS622 
 ASP623  PHE694  ASN695  SER759  ASP760  ASP761  ALA762  ILE779  LEU786  VAL792 
 PHE793  MET794  SER795  GLU796  ALA797  LYS798  CYS799  TRP800  GLU811  SER814 

> <Gold.Protein.RotatedAtoms>
  152.2155  134.8462  160.0492 H   0  0  0  0  0  0  0  0  0  0  0  0  # atno 6907 bound_to 6896
  151.9265  133.3594  159.3923 H   0  0  0  0  0  0  0  0  0  0  0  0  # atno 6908 bound_to 6896
  150.6986  134.4506  159.5378 H   0  0  0  0  0  0  0  0  0  0  0  0  # atno 6909 bound_to 6896
  146.1232  140.5384  142.8726 H   0  0  0  0  0  0  0  0  0  0  0  0  # atno 7974 bound_to 7965
  155.8865  140.1017  157.1449 H   0  0  0  0  0  0  0  0  0  0  0  0  # atno 8008 bound_to 7997
  154.4010  140.1319  156.4325 H   0  0  0  0  0  0  0  0  0  0  0  0  # atno 8009 bound_to 7997
  155.7583  140.3463  155.5187 H   0  0  0  0  0  0  0  0  0  0  0  0  # atno 8010 bound_to 7997
  139.5440  144.6757  151.4532 H   0  0  0  0  0  0  0  0  0  0  0  0  # atno 10167 bound_to 10162
  156.4071  130.4401  149.7279 H   0  0  0  0  0  0  0  0  0  0  0  0  # atno 10718 bound_to 10713
  154.7591  135.4929  153.9429 H   0  0  0  0  0  0  0  0  0  0  0  0  # atno 10763 bound_to 10752
  153.1230  135.6736  153.9312 H   0  0  0  0  0  0  0  0  0  0  0  0  # atno 10764 bound_to 10752
  153.9038  135.3107  155.3427 H   0  0  0  0  0  0  0  0  0  0  0  0  # atno 10765 bound_to 10752
  140.1600  134.4354  155.8324 H   0  0  0  0  0  0  0  0  0  0  0  0  # atno 11005 bound_to 11000
  144.7617  140.5437  143.6731 LP  0  0  0  0  0  0  0  0  0  0  0  0  # atno 17320 bound_to 7965
  145.5421  139.1475  143.3441 LP  0  0  0  0  0  0  0  0  0  0  0  0  # atno 17321 bound_to 7965
  140.6682  143.8352  150.6967 LP  0  0  0  0  0  0  0  0  0  0  0  0  # atno 17342 bound_to 10162
  140.1768  143.4148  152.1961 LP  0  0  0  0  0  0  0  0  0  0  0  0  # atno 17343 bound_to 10162
  156.4273  130.7798  151.2817 LP  0  0  0  0  0  0  0  0  0  0  0  0  # atno 17370 bound_to 10713
  157.7506  131.0165  150.3546 LP  0  0  0  0  0  0  0  0  0  0  0  0  # atno 17371 bound_to 10713
  141.2208  133.6909  156.7576 LP  0  0  0  0  0  0  0  0  0  0  0  0  # atno 17394 bound_to 11000
  140.2501  134.8547  157.3659 LP  0  0  0  0  0  0  0  0  0  0  0  0  # atno 17395 bound_to 11000

$$$$
