AV-unprocessed.smi:1573|AV-procd|sdf|6333|dock4
  -GOLD-   22720 6543D 1   1.00000     0.00000
 Structure written by MMmdl.
 41 41  0  0  0  0  0  0  0  0  1 V2000
  146.1668  134.0516  151.5014 C   0  0  0  0  0  0  0  0  0  0  0  0
  145.4512  135.3437  151.0828 C   0  0  0  0  0  0  0  0  0  0  0  0
  146.1250  136.5241  151.6103 N   0  0  0  0  0  0  0  0  0  0  0  0
  145.5592  137.4377  152.4133 C   0  0  0  0  0  0  0  0  0  0  0  0
  144.3997  137.3509  152.8215 O   0  0  0  0  0  0  0  0  0  0  0  0
  146.4348  138.6380  152.8054 C   0  0  2  0  0  0  0  0  0  0  0  0
  146.7477  139.4508  151.5373 C   0  0  0  0  0  0  0  0  0  0  0  0
  147.6948  138.1394  153.3495 N   0  0  0  0  0  0  0  0  0  0  0  0
  148.5299  138.8441  154.1295 C   0  0  0  0  0  0  0  0  0  0  0  0
  148.3692  140.0355  154.3942 O   0  0  0  0  0  0  0  0  0  0  0  0
  149.7082  138.0795  154.7313 C   0  0  0  0  0  0  0  0  0  0  0  0
  150.5131  139.0166  155.5964 C   0  0  0  0  0  0  0  0  0  0  0  0
  151.9168  139.2580  155.5356 C   0  0  0  0  0  0  0  0  0  0  0  0
  152.9245  138.6371  154.6110 C   0  0  0  0  0  0  0  0  0  0  0  0
  152.3147  140.1540  156.4234 N   0  0  0  0  0  0  0  0  0  0  0  0
  151.1908  140.5175  157.0728 N   0  0  0  0  0  0  0  0  0  0  0  0
  151.2696  141.5109  158.1260 C   0  0  0  0  0  0  0  0  0  0  0  0
  150.0821  139.8423  156.6013 C   0  0  0  0  0  0  0  0  0  0  0  0
  148.7148  140.0701  157.1607 C   0  0  0  0  0  0  0  0  0  0  0  0
  145.6318  133.1764  151.1330 H   0  0  0  0  0  0  0  0  0  0  0  0
  146.2307  133.9704  152.5868 H   0  0  0  0  0  0  0  0  0  0  0  0
  147.1812  134.0096  151.1034 H   0  0  0  0  0  0  0  0  0  0  0  0
  145.3788  135.4042  149.9957 H   0  0  0  0  0  0  0  0  0  0  0  0
  144.4297  135.3371  151.4631 H   0  0  0  0  0  0  0  0  0  0  0  0
  147.0805  136.6739  151.3198 H   0  0  0  0  0  0  0  0  0  0  0  0
  145.9221  139.2730  153.5309 H   0  0  0  0  0  0  0  0  0  0  0  0
  145.8350  139.8317  151.0774 H   0  0  0  0  0  0  0  0  0  0  0  0
  147.2766  138.8590  150.7884 H   0  0  0  0  0  0  0  0  0  0  0  0
  147.3734  140.3116  151.7746 H   0  0  0  0  0  0  0  0  0  0  0  0
  147.9049  137.1650  153.1888 H   0  0  0  0  0  0  0  0  0  0  0  0
  149.3477  137.2225  155.3017 H   0  0  0  0  0  0  0  0  0  0  0  0
  150.3075  137.6703  153.9175 H   0  0  0  0  0  0  0  0  0  0  0  0
  152.6484  138.8018  153.5694 H   0  0  0  0  0  0  0  0  0  0  0  0
  152.9884  137.5610  154.7712 H   0  0  0  0  0  0  0  0  0  0  0  0
  153.9215  139.0534  154.7586 H   0  0  0  0  0  0  0  0  0  0  0  0
  151.1888  141.0214  159.0966 H   0  0  0  0  0  0  0  0  0  0  0  0
  150.4555  142.2282  158.0191 H   0  0  0  0  0  0  0  0  0  0  0  0
  152.2170  142.0490  158.0762 H   0  0  0  0  0  0  0  0  0  0  0  0
  147.9999  139.3486  156.7664 H   0  0  0  0  0  0  0  0  0  0  0  0
  148.3567  141.0679  156.9076 H   0  0  0  0  0  0  0  0  0  0  0  0
  148.7176  139.9760  158.2467 H   0  0  0  0  0  0  0  0  0  0  0  0
  1  2  1  0  0  0  0
  1 20  1  0  0  0  0
  1 21  1  0  0  0  0
  1 22  1  0  0  0  0
  2  3  1  0  0  0  0
  2 23  1  0  0  0  0
  2 24  1  0  0  0  0
  3  4  1  0  0  0  0
  3 25  1  0  0  0  0
  4  5  2  0  0  0  0
  4  6  1  0  0  0  0
  6  7  1  0  0  0  0
  6  8  1  0  0  0  0
  6 26  1  0  0  0  0
  7 27  1  0  0  0  0
  7 28  1  0  0  0  0
  7 29  1  0  0  0  0
  8  9  1  0  0  0  0
  8 30  1  0  0  0  0
  9 10  2  0  0  0  0
  9 11  1  0  0  0  0
 11 12  1  0  0  0  0
 11 31  1  0  0  0  0
 11 32  1  0  0  0  0
 12 18  2  0  0  0  0
 12 13  1  0  0  0  0
 13 14  1  0  0  0  0
 13 15  2  0  0  0  0
 14 33  1  0  0  0  0
 14 34  1  0  0  0  0
 14 35  1  0  0  0  0
 15 16  1  0  0  0  0
 16 17  1  0  0  0  0
 16 18  1  0  0  0  0
 17 36  1  0  0  0  0
 17 37  1  0  0  0  0
 17 38  1  0  0  0  0
 18 19  1  0  0  0  0
 19 39  1  0  0  0  0
 19 40  1  0  0  0  0
 19 41  1  0  0  0  0
M  END
> <s_m_source_file>
AV-unprocessed.smi

> <i_m_source_file_index>
1573

> <i_lp_mmshare_version>
43012

> <i_f3d_flags>
0

> <s_epik_input>
W0NIM11bQ0gyXVtOSF1DKD1PKVtDQEhdKFtDSDNdKVtOSF1DKD1PKVtDSDJdYzFjKFtDSDNdKW5uKFtDSDNdKWMxW0NIM10=

> <s_epik_cmdline>
J2VwaWtfcHl0aG9uJywgJy1waCcsICc3LjAnLCAnLXRuJywgJzgnLCAnLW1hJywgJzIwMCcsICctbWV0YWxfYmluZGluZycsICctaW1hZScsICc8aW5maWxlLm1hZT4nLCAnLW9tYWUnLCAnPG91dGZpbGUubWFlPic=

> <r_lp_tautomer_probability>
1

> <r_epik_Ionization_Penalty>
0.00278414

> <r_epik_Ionization_Penalty_Charging>
0

> <r_epik_Ionization_Penalty_Neutral>
0.00278414

> <r_epik_State_Penalty>
0.00194489

> <r_epik_Charging_Adjusted_Penalty>
0.00194489

> <i_epik_Tot_Q>
0

> <i_epik_Tot_abs_Q>
0

> <r_epik_Metal_State_Penalty>
-0

> <b_epik_Metal_Only>
0

> <s_lp_Force_Field>
OPLS_2005

> <r_lp_Energy>
-3.80626

> <b_lp_Chiralities_Consistent>
1

> <s_lp_Variant>
AV-unprocessed.smi:1573-1

> <Gold.Version>
5.8.1

> <Gold.Id.Protein>
6NUR|6NUR_protein|mol2

> <Gold.PLP.Fitness>
38.8113

> <Gold.PLP.PLP>
-32.1447

> <Gold.PLP.part.hbond>
-3.0000

> <Gold.PLP.part.metal>
0.0000

> <Gold.PLP.part.buried>
-1.8564

> <Gold.PLP.part.nonpolar>
-28.2420

> <Gold.PLP.part.repulsive>
0.4363

> <Gold.PLP.ligand.clash>
0.0000

> <Gold.PLP.ligand.torsion>
0.4526

> <Gold.PLP.Chemscore.Hbond>
2.5040

> <Gold.PLP.Chemscore.CHOScore>
0.0000

> <Gold.PLP.Chemscore.Metal>
0.0000

> <Gold.Chemscore.Hbonds>
donor molecule, donor type, donor heavy atom, donor atom, acceptor molecule, acceptor atom, score
      L1  H     3    25       P1  7948  0.85
      L1  H     8    30       P1  7948  0.66
      P1  H  7997  8009       L1    15  1.00

> <Gold.PLP.Chemscore.Internal.Correction>
0.0599

> <Gold.Rescore>
     Score         DG    S(hbond)    S(metal)    S(lipo)     H(rot)  DE(clash)    DE(int)     intcor
     12.74     -16.80       2.44        0.00      68.88       1.91       0.98       3.08       ----

> <Gold.Chemscore.Fitness>
12.7400

> <Gold.Chemscore.DG>
-16.7984

> <Gold.Chemscore.ZeroCoef>
-5.4800

> <Gold.Chemscore.Hbond>
2.4400

> <Gold.Chemscore.Metal>
0.0000

> <Gold.Chemscore.Lipo>
68.8754

> <Gold.Chemscore.Internal_Hbond>
0.0000

> <Gold.Chemscore.DEClash>
0.9754

> <Gold.Chemscore.DEInternal>
3.0830

> <Gold.Chemscore.Rot>
1.9100

> <Gold.Chemscore.Internal.Correction>
   9.000000E+99

> <Gold.Chemscore.Hbonds>
donor molecule, donor type, donor heavy atom, donor atom, acceptor molecule, acceptor atom, score
      L1  H     3    25       P1  7948  0.82
      L1  H     8    30       P1  7948  0.66
      P1  H  7997  8009       L1    15  0.52

> <Gold.Chemscore.Hbond.Weighted>
-8.1496

> <Gold.Chemscore.Metal.Weighted>
-0.0000

> <Gold.Chemscore.Lipo.Weighted>
-8.0584

> <Gold.Chemscore.Internal_Hbond.Weighted>
0.0000

> <Gold.Chemscore.DEClash.Weighted>
0.9754

> <Gold.Chemscore.DEInternal.Weighted>
3.0830

> <Gold.Chemscore.Rot.Weighted>
4.8896

> <Gold.Chemscore.Internal.Correction.Weighted>
   9.000000E+99

> <Gold.Protein.RotatedTorsions>
[ 6907 6896 6895 6894 ] final  145.06 input  -60.11 | X-H torsion
[ 7974 7965 7964 7962 ] final  125.08 input  175.53 | X-H torsion
[ 8008 7997 7996 7995 ] final -164.02 input   59.86 | X-H torsion
[ 10167 10162 10161 10158 ] final   58.10 input  -65.29 | X-H torsion
[ 10718 10713 10712 10709 ] final  -13.50 input   66.30 | X-H torsion
[ 10763 10752 10751 10750 ] final -166.50 input  -60.55 | X-H torsion
[ 11005 11000 10999 10996 ] final  111.91 input  -57.11 | X-H torsion

> <Gold.Protein.ActiveResidues>
 VAL166  LYS551  ARG553  GLY616  TRP617  ASP618  TYR619  PRO620  LYS621  CYS622 
 ASP623  PHE694  ASN695  SER759  ASP760  ASP761  ALA762  ILE779  LEU786  VAL792 
 PHE793  MET794  SER795  GLU796  ALA797  LYS798  CYS799  TRP800  GLU811  SER814 

> <Gold.Protein.RotatedAtoms>
  152.1857  133.4738  159.4980 H   0  0  0  0  0  0  0  0  0  0  0  0  # atno 6907 bound_to 6896
  150.6942  134.1777  159.4245 H   0  0  0  0  0  0  0  0  0  0  0  0  # atno 6908 bound_to 6896
  151.9690  135.0086  160.0602 H   0  0  0  0  0  0  0  0  0  0  0  0  # atno 6909 bound_to 6896
  145.0771  139.3685  143.4928 H   0  0  0  0  0  0  0  0  0  0  0  0  # atno 7974 bound_to 7965
  155.8296  140.0932  157.1800 H   0  0  0  0  0  0  0  0  0  0  0  0  # atno 8008 bound_to 7997
  154.3979  140.1421  156.3658 H   0  0  0  0  0  0  0  0  0  0  0  0  # atno 8009 bound_to 7997
  155.8180  140.3447  155.5500 H   0  0  0  0  0  0  0  0  0  0  0  0  # atno 8010 bound_to 7997
  140.1909  144.4087  150.6572 H   0  0  0  0  0  0  0  0  0  0  0  0  # atno 10167 bound_to 10162
  156.6294  130.4897  149.6135 H   0  0  0  0  0  0  0  0  0  0  0  0  # atno 10718 bound_to 10713
  154.6827  135.2957  154.9591 H   0  0  0  0  0  0  0  0  0  0  0  0  # atno 10763 bound_to 10752
  154.0580  135.6635  153.4812 H   0  0  0  0  0  0  0  0  0  0  0  0  # atno 10764 bound_to 10752
  153.0558  135.5145  154.7878 H   0  0  0  0  0  0  0  0  0  0  0  0  # atno 10765 bound_to 10752
  139.8914  134.9518  156.6505 H   0  0  0  0  0  0  0  0  0  0  0  0  # atno 11005 bound_to 11000
  146.3530  140.0543  142.8633 LP  0  0  0  0  0  0  0  0  0  0  0  0  # atno 17320 bound_to 7965
  145.1223  140.9469  143.4593 LP  0  0  0  0  0  0  0  0  0  0  0  0  # atno 17321 bound_to 7965
  140.6457  143.2213  151.6192 LP  0  0  0  0  0  0  0  0  0  0  0  0  # atno 17342 bound_to 10162
  139.5256  144.3068  152.1026 LP  0  0  0  0  0  0  0  0  0  0  0  0  # atno 17343 bound_to 10162
  156.2247  130.6758  151.1404 LP  0  0  0  0  0  0  0  0  0  0  0  0  # atno 17370 bound_to 10713
  157.7204  131.0685  150.6157 LP  0  0  0  0  0  0  0  0  0  0  0  0  # atno 17371 bound_to 10713
  140.7524  133.8886  155.8357 LP  0  0  0  0  0  0  0  0  0  0  0  0  # atno 17394 bound_to 11000
  140.9989  134.1177  157.4336 LP  0  0  0  0  0  0  0  0  0  0  0  0  # atno 17395 bound_to 11000

$$$$
