AV-unprocessed.smi:54|AV-procd|sdf|545|dock2
  -GOLD-   2262016433D 1   1.00000     0.00000
 Structure written by MMmdl.
 43 45  0  0  0  0  0  0  0  0  2 V2000
  153.3985  143.3596  159.3647 C   0  0  0  0  0  0  0  0  0  0  0  0
  152.9611  142.1364  160.1874 C   0  0  0  0  0  0  0  0  0  0  0  0
  153.6495  142.1142  161.5625 C   0  0  0  0  0  0  0  0  0  0  0  0
  153.2397  140.8370  159.4180 C   0  0  0  0  0  0  0  0  0  0  0  0
  154.3988  140.4240  159.3413 O   0  0  0  0  0  0  0  0  0  0  0  0
  152.1510  140.2372  158.8861 N   0  0  0  0  0  0  0  0  0  0  0  0
  152.0617  139.0503  158.1480 C   0  0  0  0  0  0  0  0  0  0  0  0
  151.4819  139.2134  156.9831 N   0  0  0  0  0  0  0  0  0  0  0  0
  151.4074  138.0393  156.2586 C   0  0  0  0  0  0  0  0  0  0  0  0
  151.8638  136.8012  156.6181 C   0  0  0  0  0  0  0  0  0  0  0  0
  151.6175  135.8600  155.6259 N   0  0  0  0  0  0  0  0  0  0  0  0
  151.0094  136.5917  154.6941 C   0  0  0  0  0  0  0  0  0  0  0  0
  150.8473  137.8970  154.9948 N   0  0  0  0  0  0  0  0  0  0  0  0
  150.2210  138.9681  154.1591 C   0  0  2  0  0  0  0  0  0  0  0  0
  150.7817  140.1925  154.5383 O   0  0  0  0  0  0  0  0  0  0  0  0
  149.7903  141.0694  155.0734 C   0  0  2  0  0  0  0  0  0  0  0  0
  150.3877  141.8983  156.2209 C   0  0  0  0  0  0  0  0  0  0  0  0
  149.3589  142.5548  156.9293 O   0  0  0  0  0  0  0  0  0  0  0  0
  148.6706  140.1265  155.5179 C   0  0  1  0  0  0  0  0  0  0  0  0
  147.4070  140.7580  155.5988 O   0  0  0  0  0  0  0  0  0  0  0  0
  148.7200  139.0334  154.4598 C   0  0  1  0  0  0  0  0  0  0  0  0
  147.9851  139.3524  153.2927 O   0  0  0  0  0  0  0  0  0  0  0  0
  152.5182  136.6885  157.9421 C   0  0  0  0  0  0  0  0  0  0  0  0
  152.9458  135.5953  158.3072 O   0  0  0  0  0  0  0  0  0  0  0  0
  152.5918  137.8488  158.6602 N   0  5  0  0  0  0  0  0  0  0  0  0
  150.4712  138.7003  153.1317 H   0  0  0  0  0  0  0  0  0  0  0  0
  149.4237  141.7126  154.2711 H   0  0  0  0  0  0  0  0  0  0  0  0
  148.9144  139.6949  156.4900 H   0  0  0  0  0  0  0  0  0  0  0  0
  148.3536  138.0778  154.8382 H   0  0  0  0  0  0  0  0  0  0  0  0
  152.9066  143.3785  158.3915 H   0  0  0  0  0  0  0  0  0  0  0  0
  154.4760  143.3650  159.1938 H   0  0  0  0  0  0  0  0  0  0  0  0
  153.1415  144.2862  159.8784 H   0  0  0  0  0  0  0  0  0  0  0  0
  151.8856  142.2147  160.3552 H   0  0  0  0  0  0  0  0  0  0  0  0
  153.3497  141.2396  162.1413 H   0  0  0  0  0  0  0  0  0  0  0  0
  153.3847  142.9975  162.1442 H   0  0  0  0  0  0  0  0  0  0  0  0
  154.7361  142.0952  161.4685 H   0  0  0  0  0  0  0  0  0  0  0  0
  151.2751  140.6925  159.0962 H   0  0  0  0  0  0  0  0  0  0  0  0
  150.6764  136.1617  153.7618 H   0  0  0  0  0  0  0  0  0  0  0  0
  150.9048  141.2457  156.9250 H   0  0  0  0  0  0  0  0  0  0  0  0
  151.1167  142.6212  155.8549 H   0  0  0  0  0  0  0  0  0  0  0  0
  149.2609  143.4268  156.5783 H   0  0  0  0  0  0  0  0  0  0  0  0
  147.2216  140.9384  156.5080 H   0  0  0  0  0  0  0  0  0  0  0  0
  148.5854  139.6922  152.6466 H   0  0  0  0  0  0  0  0  0  0  0  0
  1  2  1  0  0  0  0
  1 30  1  0  0  0  0
  1 31  1  0  0  0  0
  1 32  1  0  0  0  0
  2  3  1  0  0  0  0
  2  4  1  0  0  0  0
  2 33  1  0  0  0  0
  3 34  1  0  0  0  0
  3 35  1  0  0  0  0
  3 36  1  0  0  0  0
  4  5  2  0  0  0  0
  4  6  1  0  0  0  0
  6 37  1  0  0  0  0
  6  7  1  0  0  0  0
  7 25  1  0  0  0  0
  7  8  2  0  0  0  0
  8  9  1  0  0  0  0
  9 13  1  0  0  0  0
  9 10  2  0  0  0  0
 10 11  1  0  0  0  0
 10 23  1  0  0  0  0
 11 12  2  0  0  0  0
 12 13  1  0  0  0  0
 12 38  1  0  0  0  0
 13 14  1  0  0  0  0
 14 26  1  0  0  0  0
 14 21  1  0  0  0  0
 14 15  1  0  0  0  0
 15 16  1  0  0  0  0
 16 27  1  0  0  0  0
 16 17  1  0  0  0  0
 16 19  1  0  0  0  0
 17 18  1  0  0  0  0
 17 39  1  0  0  0  0
 17 40  1  0  0  0  0
 18 41  1  0  0  0  0
 19 28  1  0  0  0  0
 19 20  1  0  0  0  0
 19 21  1  0  0  0  0
 20 42  1  0  0  0  0
 21 29  1  0  0  0  0
 21 22  1  0  0  0  0
 22 43  1  0  0  0  0
 23 24  2  0  0  0  0
 23 25  1  0  0  0  0
M  CHG  1  25  -1
M  END
> <s_m_source_file>
AV-unprocessed.smi

> <i_m_source_file_index>
54

> <i_lp_mmshare_version>
43012

> <i_f3d_flags>
0

> <s_epik_input>
W0NIM11bQ0hdKFtDSDNdKUMoPU8pW05IXWMobjEpW25IXWMoPU8pYyhjMTIpbltjSF1uMltDQEBIXTNPW0NASF0oW0NIMl1bT0hdKVtDQEBIXShbT0hdKVtDQEhdM1tPSF0=

> <s_epik_cmdline>
J2VwaWtfcHl0aG9uJywgJy1waCcsICc3LjAnLCAnLXRuJywgJzgnLCAnLW1hJywgJzIwMCcsICctbWV0YWxfYmluZGluZycsICctaW1hZScsICc8aW5maWxlLm1hZT4nLCAnLW9tYWUnLCAnPG91dGZpbGUubWFlPic=

> <r_lp_tautomer_probability>
0.85571

> <r_epik_Ionization_Penalty>
1.75936

> <r_epik_Ionization_Penalty_Charging>
4.55893e-11

> <r_epik_Ionization_Penalty_Neutral>
1.75936

> <r_epik_State_Penalty>
1.72072

> <r_epik_Charging_Adjusted_Penalty>
1.72072

> <i_epik_Tot_Q>
-1

> <i_epik_Tot_abs_Q>
1

> <r_epik_Metal_State_Penalty>
0.400338

> <b_epik_Metal_Only>
1

> <s_epik_Chemistry_Notes>
This compound contains an acetal/aminal-like group ( X-CH(R)-Y where X, Y are N, S, or O) that may be acid/base labile, releasing an aldehyde.

> <s_lp_Force_Field>
OPLS_2005

> <r_lp_Energy>
58.3918

> <b_lp_Chiralities_Consistent>
1

> <s_lp_Variant>
AV-unprocessed.smi:54-17

> <Gold.Version>
5.8.1

> <Gold.Id.Protein>
6NUR|6NUR_protein|mol2

> <Gold.PLP.Fitness>
50.2619

> <Gold.PLP.PLP>
-36.3732

> <Gold.PLP.part.hbond>
-5.9217

> <Gold.PLP.part.metal>
0.0000

> <Gold.PLP.part.buried>
-2.5165

> <Gold.PLP.part.nonpolar>
-27.8565

> <Gold.PLP.part.repulsive>
0.2915

> <Gold.PLP.ligand.clash>
0.0000

> <Gold.PLP.ligand.torsion>
1.5967

> <Gold.PLP.Chemscore.Hbond>
4.9904

> <Gold.PLP.Chemscore.CHOScore>
0.6860

> <Gold.PLP.Chemscore.Metal>
0.0000

> <Gold.Chemscore.Hbonds>
donor molecule, donor type, donor heavy atom, donor atom, acceptor molecule, acceptor atom, score
      L1  H    18    41       P1  8028  1.00
      L1  H    22    43       P1  7957  1.00
      P1  H  6896  6908       L1    24  0.34
      P1  H  7989  7998       L1    15  0.93
      P1  H  7997  8008       L1     5  0.57
      P1  H 10752 10764       L1    11  0.80
      L1  C    12    38       P1  7948  0.16
      L1  C    12    38       P1  7949  0.57

> <Gold.PLP.Chemscore.Internal.Correction>
0.0529

> <Gold.Rescore>
     Score         DG    S(hbond)    S(metal)    S(lipo)     H(rot)  DE(clash)    DE(int)     intcor
     11.67     -15.96       4.06        0.00      61.66       4.02       0.39       3.91       ----

> <Gold.Chemscore.Fitness>
11.6650

> <Gold.Chemscore.DG>
-15.9633

> <Gold.Chemscore.ZeroCoef>
-5.4800

> <Gold.Chemscore.Hbond>
4.0594

> <Gold.Chemscore.Metal>
0.0000

> <Gold.Chemscore.Lipo>
61.6607

> <Gold.Chemscore.Internal_Hbond>
0.0000

> <Gold.Chemscore.DEClash>
0.3865

> <Gold.Chemscore.DEInternal>
3.9118

> <Gold.Chemscore.Rot>
4.0192

> <Gold.Chemscore.Internal.Correction>
   9.000000E+99

> <Gold.Chemscore.Hbonds>
donor molecule, donor type, donor heavy atom, donor atom, acceptor molecule, acceptor atom, score
      L1  H    18    41       P1  8028  0.99
      L1  H    22    43       P1  7957  1.00
      P1  H  6896  6908       L1    24  0.31
      P1  H  7989  7998       L1    15  0.67
      P1  H  7997  8008       L1     5  0.49
      P1  H 10752 10764       L1    11  0.10

> <Gold.Chemscore.Hbond.Weighted>
-13.5583

> <Gold.Chemscore.Metal.Weighted>
-0.0000

> <Gold.Chemscore.Lipo.Weighted>
-7.2143

> <Gold.Chemscore.Internal_Hbond.Weighted>
0.0000

> <Gold.Chemscore.DEClash.Weighted>
0.3865

> <Gold.Chemscore.DEInternal.Weighted>
3.9118

> <Gold.Chemscore.Rot.Weighted>
10.2893

> <Gold.Chemscore.Internal.Correction.Weighted>
   9.000000E+99

> <Gold.Protein.RotatedTorsions>
[ 6907 6896 6895 6894 ] final  -74.15 input  -60.11 | X-H torsion
[ 7974 7965 7964 7962 ] final  -99.93 input  175.53 | X-H torsion
[ 8008 7997 7996 7995 ] final -116.40 input   59.86 | X-H torsion
[ 10167 10162 10161 10158 ] final   55.23 input  -65.29 | X-H torsion
[ 10718 10713 10712 10709 ] final  -10.08 input   66.30 | X-H torsion
[ 10763 10752 10751 10750 ] final  -52.26 input  -60.55 | X-H torsion
[ 11005 11000 10999 10996 ] final   38.08 input  -57.11 | X-H torsion

> <Gold.Protein.ActiveResidues>
 VAL166  LYS551  ARG553  GLY616  TRP617  ASP618  TYR619  PRO620  LYS621  CYS622 
 ASP623  PHE694  ASN695  SER759  ASP760  ASP761  ALA762  ILE779  LEU786  VAL792 
 PHE793  MET794  SER795  GLU796  ALA797  LYS798  CYS799  TRP800  GLU811  SER814 

> <Gold.Protein.RotatedAtoms>
  150.7104  134.4912  159.5516 H   0  0  0  0  0  0  0  0  0  0  0  0  # atno 6907 bound_to 6896
  152.2529  134.8111  160.0452 H   0  0  0  0  0  0  0  0  0  0  0  0  # atno 6908 bound_to 6896
  151.8852  133.3468  159.3816 H   0  0  0  0  0  0  0  0  0  0  0  0  # atno 6909 bound_to 6896
  145.3011  140.9377  143.2823 H   0  0  0  0  0  0  0  0  0  0  0  0  # atno 7974 bound_to 7965
  155.0673  140.0393  157.2597 H   0  0  0  0  0  0  0  0  0  0  0  0  # atno 8008 bound_to 7997
  154.7011  140.2673  155.6694 H   0  0  0  0  0  0  0  0  0  0  0  0  # atno 8009 bound_to 7997
  156.2760  140.2740  156.1622 H   0  0  0  0  0  0  0  0  0  0  0  0  # atno 8010 bound_to 7997
  140.2216  144.3782  150.6448 H   0  0  0  0  0  0  0  0  0  0  0  0  # atno 10167 bound_to 10162
  156.6787  130.5030  149.5978 H   0  0  0  0  0  0  0  0  0  0  0  0  # atno 10718 bound_to 10713
  154.1399  135.6507  153.4940 H   0  0  0  0  0  0  0  0  0  0  0  0  # atno 10763 bound_to 10752
  153.0169  135.5313  154.6916 H   0  0  0  0  0  0  0  0  0  0  0  0  # atno 10764 bound_to 10752
  154.6174  135.2961  155.0335 H   0  0  0  0  0  0  0  0  0  0  0  0  # atno 10765 bound_to 10752
  140.2161  134.3697  155.8026 H   0  0  0  0  0  0  0  0  0  0  0  0  # atno 11005 bound_to 11000
  144.9093  139.4549  143.6595 LP  0  0  0  0  0  0  0  0  0  0  0  0  # atno 17320 bound_to 7965
  146.3151  139.7891  142.8989 LP  0  0  0  0  0  0  0  0  0  0  0  0  # atno 17321 bound_to 7965
  140.6251  143.2180  151.6614 LP  0  0  0  0  0  0  0  0  0  0  0  0  # atno 17342 bound_to 10162
  139.5142  144.3418  152.0733 LP  0  0  0  0  0  0  0  0  0  0  0  0  # atno 17343 bound_to 10162
  156.1884  130.6544  151.1033 LP  0  0  0  0  0  0  0  0  0  0  0  0  # atno 17370 bound_to 10713
  157.7051  131.0759  150.6692 LP  0  0  0  0  0  0  0  0  0  0  0  0  # atno 17371 bound_to 10713
  141.2225  133.7169  156.8499 LP  0  0  0  0  0  0  0  0  0  0  0  0  # atno 17394 bound_to 11000
  140.1899  134.8973  157.3048 LP  0  0  0  0  0  0  0  0  0  0  0  0  # atno 17395 bound_to 11000

$$$$
