AV-unprocessed.smi:109|AV-procd|sdf|1032|dock9
  -GOLD-   2262018 43D 1   1.00000     0.00000
 Structure written by MMmdl.
 58 61  0  0  0  0  0  0  0  0  1 V2000
  149.4321  138.5076  158.8136 O   0  0  0  0  0  0  0  0  0  0  0  0
  148.4923  137.6717  158.1740 C   0  0  0  0  0  0  0  0  0  0  0  0
  148.9993  136.2208  158.1728 C   0  0  0  0  0  0  0  0  0  0  0  0
  147.9030  135.2019  158.5430 C   0  0  1  0  0  0  0  0  0  0  0  0
  148.1832  133.9052  157.9227 N   0  0  0  0  0  0  0  0  0  0  0  0
  148.5197  133.7802  156.6192 C   0  0  0  0  0  0  0  0  0  0  0  0
  149.8073  133.8898  156.2009 N   0  0  0  0  0  0  0  0  0  0  0  0
  150.1051  133.7537  154.9056 C   0  0  0  0  0  0  0  0  0  0  0  0
  149.2838  133.5095  153.8827 N   0  0  0  0  0  0  0  0  0  0  0  0
  147.9875  133.4021  154.2946 C   0  0  0  0  0  0  0  0  0  0  0  0
  147.5288  133.5247  155.6362 C   0  0  0  0  0  0  0  0  0  0  0  0
  146.1514  133.3558  155.6794 N   0  0  0  0  0  0  0  0  0  0  0  0
  145.8199  133.1430  154.4344 C   0  0  0  0  0  0  0  0  0  0  0  0
  146.8622  133.1559  153.5340 N   0  0  0  0  0  0  0  0  0  0  0  0
  146.7913  132.9407  152.0568 C   0  0  2  0  0  0  0  0  0  0  0  0
  146.3450  134.1233  151.4670 O   0  0  0  0  0  0  0  0  0  0  0  0
  145.4028  133.8231  150.4438 C   0  0  2  0  0  0  0  0  0  0  0  0
  144.4893  135.0354  150.2093 C   0  0  0  0  0  0  0  0  0  0  0  0
  145.1942  136.0442  149.5183 O   0  0  0  0  0  0  0  0  0  0  0  0
  144.6713  132.6080  151.0169 C   0  0  1  0  0  0  0  0  0  0  0  0
  143.9821  131.8573  150.0339 O   0  0  0  0  0  0  0  0  0  0  0  0
  145.7894  131.8279  151.7054 C   0  0  1  0  0  0  0  0  0  0  0  0
  146.3848  130.8730  150.8445 O   0  0  0  0  0  0  0  0  0  0  0  0
  147.7037  135.0613  160.0732 C   0  0  0  0  0  0  0  0  0  0  0  0
  146.6048  134.0489  160.4744 C   0  0  0  0  0  0  0  0  0  0  0  0
  146.4822  133.9229  162.0019 C   0  0  0  0  0  0  0  0  0  0  0  0
  146.2315  135.2891  162.6578 C   0  0  0  0  0  0  0  0  0  0  0  0
  147.3268  136.2949  162.2733 C   0  0  0  0  0  0  0  0  0  0  0  0
  147.4484  136.4278  160.7469 C   0  0  0  0  0  0  0  0  0  0  0  0
  147.8172  132.7201  151.7578 H   0  0  0  0  0  0  0  0  0  0  0  0
  145.9340  133.5397  149.5326 H   0  0  0  0  0  0  0  0  0  0  0  0
  143.9483  132.9361  151.7639 H   0  0  0  0  0  0  0  0  0  0  0  0
  145.4326  131.3181  152.6017 H   0  0  0  0  0  0  0  0  0  0  0  0
  150.2928  138.1353  158.6962 H   0  0  0  0  0  0  0  0  0  0  0  0
  147.5375  137.7460  158.6953 H   0  0  0  0  0  0  0  0  0  0  0  0
  148.3375  138.0317  157.1565 H   0  0  0  0  0  0  0  0  0  0  0  0
  149.4210  135.9838  157.1952 H   0  0  0  0  0  0  0  0  0  0  0  0
  149.8190  136.1407  158.8880 H   0  0  0  0  0  0  0  0  0  0  0  0
  146.9737  135.6217  158.1601 H   0  0  0  0  0  0  0  0  0  0  0  0
  148.1051  133.1081  158.5382 H   0  0  0  0  0  0  0  0  0  0  0  0
  151.1504  133.8527  154.6529 H   0  0  0  0  0  0  0  0  0  0  0  0
  144.7958  132.9705  154.1363 H   0  0  0  0  0  0  0  0  0  0  0  0
  143.6380  134.7494  149.5909 H   0  0  0  0  0  0  0  0  0  0  0  0
  144.0922  135.4225  151.1484 H   0  0  0  0  0  0  0  0  0  0  0  0
  144.7942  136.8772  149.7167 H   0  0  0  0  0  0  0  0  0  0  0  0
  144.3005  132.1132  149.1818 H   0  0  0  0  0  0  0  0  0  0  0  0
  147.3236  130.9348  150.9311 H   0  0  0  0  0  0  0  0  0  0  0  0
  148.6456  134.6887  160.4791 H   0  0  0  0  0  0  0  0  0  0  0  0
  145.6424  134.3551  160.0632 H   0  0  0  0  0  0  0  0  0  0  0  0
  146.8208  133.0660  160.0562 H   0  0  0  0  0  0  0  0  0  0  0  0
  145.6735  133.2364  162.2542 H   0  0  0  0  0  0  0  0  0  0  0  0
  147.3956  133.4858  162.4070 H   0  0  0  0  0  0  0  0  0  0  0  0
  145.2580  135.6713  162.3477 H   0  0  0  0  0  0  0  0  0  0  0  0
  146.1907  135.1792  163.7420 H   0  0  0  0  0  0  0  0  0  0  0  0
  147.1096  137.2679  162.7148 H   0  0  0  0  0  0  0  0  0  0  0  0
  148.2819  135.9727  162.6898 H   0  0  0  0  0  0  0  0  0  0  0  0
  148.2565  137.1192  160.5057 H   0  0  0  0  0  0  0  0  0  0  0  0
  146.5346  136.8752  160.3539 H   0  0  0  0  0  0  0  0  0  0  0  0
  1  2  1  0  0  0  0
  1 34  1  0  0  0  0
  2  3  1  0  0  0  0
  2 35  1  0  0  0  0
  2 36  1  0  0  0  0
  3  4  1  0  0  0  0
  3 37  1  0  0  0  0
  3 38  1  0  0  0  0
  4  5  1  0  0  0  0
  4 24  1  0  0  0  0
  4 39  1  0  0  0  0
  5  6  1  0  0  0  0
  5 40  1  0  0  0  0
  6 11  1  0  0  0  0
  6  7  2  0  0  0  0
  7  8  1  0  0  0  0
  8  9  2  0  0  0  0
  8 41  1  0  0  0  0
  9 10  1  0  0  0  0
 10 14  1  0  0  0  0
 10 11  2  0  0  0  0
 11 12  1  0  0  0  0
 12 13  2  0  0  0  0
 13 14  1  0  0  0  0
 13 42  1  0  0  0  0
 14 15  1  0  0  0  0
 15 30  1  0  0  0  0
 15 22  1  0  0  0  0
 15 16  1  0  0  0  0
 16 17  1  0  0  0  0
 17 31  1  0  0  0  0
 17 18  1  0  0  0  0
 17 20  1  0  0  0  0
 18 19  1  0  0  0  0
 18 43  1  0  0  0  0
 18 44  1  0  0  0  0
 19 45  1  0  0  0  0
 20 32  1  0  0  0  0
 20 21  1  0  0  0  0
 20 22  1  0  0  0  0
 21 46  1  0  0  0  0
 22 33  1  0  0  0  0
 22 23  1  0  0  0  0
 23 47  1  0  0  0  0
 24 29  1  0  0  0  0
 24 25  1  0  0  0  0
 24 48  1  0  0  0  0
 25 26  1  0  0  0  0
 25 49  1  0  0  0  0
 25 50  1  0  0  0  0
 26 27  1  0  0  0  0
 26 51  1  0  0  0  0
 26 52  1  0  0  0  0
 27 28  1  0  0  0  0
 27 53  1  0  0  0  0
 27 54  1  0  0  0  0
 28 29  1  0  0  0  0
 28 55  1  0  0  0  0
 28 56  1  0  0  0  0
 29 57  1  0  0  0  0
 29 58  1  0  0  0  0
M  END
> <s_m_source_file>
AV-unprocessed.smi

> <i_m_source_file_index>
109

> <i_lp_mmshare_version>
43012

> <i_f3d_flags>
0

> <s_epik_input>
W0NIMl0xW0NIMl1bQ0gyXVtDSDJdW0NIMl1bQ0hdMVtDQEhdKFtDSDJdW0NIMl1bT0hdKVtOSF1jKG5bY0hdbjIpYyhjMjMpbltjSF1uM1tDQEBIXTRPW0NASF0oW0NIMl1bT0hdKVtDQEBIXShbT0hdKVtDQEhdNFtPSF0=

> <s_epik_cmdline>
J2VwaWtfcHl0aG9uJywgJy1waCcsICc3LjAnLCAnLXRuJywgJzgnLCAnLW1hJywgJzIwMCcsICctbWV0YWxfYmluZGluZycsICctaW1hZScsICc8aW5maWxlLm1hZT4nLCAnLW9tYWUnLCAnPG91dGZpbGUubWFlPic=

> <r_lp_tautomer_probability>
1

> <r_epik_Ionization_Penalty>
0.000793976

> <r_epik_Ionization_Penalty_Charging>
0

> <r_epik_Ionization_Penalty_Neutral>
0.000793976

> <r_epik_State_Penalty>
-0

> <r_epik_Charging_Adjusted_Penalty>
0

> <i_epik_Tot_Q>
0

> <i_epik_Tot_abs_Q>
0

> <r_epik_Metal_State_Penalty>
-0

> <b_epik_Metal_Only>
0

> <s_epik_Chemistry_Notes>
This compound contains an acetal/aminal-like group ( X-CH(R)-Y where X, Y are N, S, or O) that may be acid/base labile, releasing an aldehyde.

> <s_lp_Force_Field>
OPLS_2005

> <r_lp_Energy>
54.9407

> <b_lp_Chiralities_Consistent>
1

> <s_lp_Variant>
AV-unprocessed.smi:109-2

> <Gold.Version>
5.8.1

> <Gold.Id.Protein>
6NUR|6NUR_protein|mol2

> <Gold.PLP.Fitness>
49.6478

> <Gold.PLP.PLP>
-44.5824

> <Gold.PLP.part.hbond>
-4.1607

> <Gold.PLP.part.metal>
0.0000

> <Gold.PLP.part.buried>
-9.3819

> <Gold.PLP.part.nonpolar>
-31.4881

> <Gold.PLP.part.repulsive>
0.4717

> <Gold.PLP.ligand.clash>
0.0000

> <Gold.PLP.ligand.torsion>
2.0469

> <Gold.PLP.Chemscore.Hbond>
2.0000

> <Gold.PLP.Chemscore.CHOScore>
1.0000

> <Gold.PLP.Chemscore.Metal>
0.0000

> <Gold.Chemscore.Hbonds>
donor molecule, donor type, donor heavy atom, donor atom, acceptor molecule, acceptor atom, score
      L1  H    19    45       P1 10171  1.00
      L1  H    23    47       P1 10747  1.00
      L1  C    13    42       P1 10957  1.00

> <Gold.PLP.Chemscore.Internal.Correction>
0.1592

> <Gold.Rescore>
     Score         DG    S(hbond)    S(metal)    S(lipo)     H(rot)  DE(clash)    DE(int)     intcor
      5.54      -7.76       1.96        0.00      83.10       5.47       0.04       2.19       ----

> <Gold.Chemscore.Fitness>
5.5351

> <Gold.Chemscore.DG>
-7.7620

> <Gold.Chemscore.ZeroCoef>
-5.4800

> <Gold.Chemscore.Hbond>
1.9619

> <Gold.Chemscore.Metal>
0.0000

> <Gold.Chemscore.Lipo>
83.0995

> <Gold.Chemscore.Internal_Hbond>
0.0000

> <Gold.Chemscore.DEClash>
0.0383

> <Gold.Chemscore.DEInternal>
2.1886

> <Gold.Chemscore.Rot>
5.4662

> <Gold.Chemscore.Internal.Correction>
   9.000000E+99

> <Gold.Chemscore.Hbonds>
donor molecule, donor type, donor heavy atom, donor atom, acceptor molecule, acceptor atom, score
      L1  H    19    45       P1 10171  1.00
      L1  H    23    47       P1 10747  0.96

> <Gold.Chemscore.Hbond.Weighted>
-6.5529

> <Gold.Chemscore.Metal.Weighted>
-0.0000

> <Gold.Chemscore.Lipo.Weighted>
-9.7226

> <Gold.Chemscore.Internal_Hbond.Weighted>
0.0000

> <Gold.Chemscore.DEClash.Weighted>
0.0383

> <Gold.Chemscore.DEInternal.Weighted>
2.1886

> <Gold.Chemscore.Rot.Weighted>
13.9935

> <Gold.Chemscore.Internal.Correction.Weighted>
   9.000000E+99

> <Gold.Protein.RotatedTorsions>
[ 6907 6896 6895 6894 ] final  -34.04 input  -60.11 | X-H torsion
[ 7974 7965 7964 7962 ] final  -12.94 input  175.53 | X-H torsion
[ 8008 7997 7996 7995 ] final -172.29 input   59.86 | X-H torsion
[ 10167 10162 10161 10158 ] final   63.27 input  -65.29 | X-H torsion
[ 10718 10713 10712 10709 ] final   40.03 input   66.30 | X-H torsion
[ 10763 10752 10751 10750 ] final  -84.98 input  -60.55 | X-H torsion
[ 11005 11000 10999 10996 ] final -140.23 input  -57.11 | X-H torsion

> <Gold.Protein.ActiveResidues>
 VAL166  LYS551  ARG553  GLY616  TRP617  ASP618  TYR619  PRO620  LYS621  CYS622 
 ASP623  PHE694  ASN695  SER759  ASP760  ASP761  ALA762  ILE779  LEU786  VAL792 
 PHE793  MET794  SER795  GLU796  ALA797  LYS798  CYS799  TRP800  GLU811  SER814 

> <Gold.Protein.RotatedAtoms>
  151.0578  134.9716  159.8244 H   0  0  0  0  0  0  0  0  0  0  0  0  # atno 6907 bound_to 6896
  152.5391  134.2456  159.8889 H   0  0  0  0  0  0  0  0  0  0  0  0  # atno 6908 bound_to 6896
  151.2474  133.4324  159.2643 H   0  0  0  0  0  0  0  0  0  0  0  0  # atno 6909 bound_to 6896
  146.2133  140.3130  142.8384 H   0  0  0  0  0  0  0  0  0  0  0  0  # atno 7974 bound_to 7965
  155.9427  140.1111  157.1043 H   0  0  0  0  0  0  0  0  0  0  0  0  # atno 8008 bound_to 7997
  154.4092  140.1216  156.5014 H   0  0  0  0  0  0  0  0  0  0  0  0  # atno 8009 bound_to 7997
  155.6942  140.3472  155.4908 H   0  0  0  0  0  0  0  0  0  0  0  0  # atno 8010 bound_to 7997
  140.1349  144.4608  150.6844 H   0  0  0  0  0  0  0  0  0  0  0  0  # atno 10167 bound_to 10162
  157.3774  130.7734  149.7166 H   0  0  0  0  0  0  0  0  0  0  0  0  # atno 10718 bound_to 10713
  154.6058  135.5501  153.7421 H   0  0  0  0  0  0  0  0  0  0  0  0  # atno 10763 bound_to 10752
  153.0174  135.6377  154.1649 H   0  0  0  0  0  0  0  0  0  0  0  0  # atno 10764 bound_to 10752
  154.1588  135.2898  155.3094 H   0  0  0  0  0  0  0  0  0  0  0  0  # atno 10765 bound_to 10752
  140.8442  134.2364  157.4794 H   0  0  0  0  0  0  0  0  0  0  0  0  # atno 11005 bound_to 11000
  144.8974  140.7600  143.5888 LP  0  0  0  0  0  0  0  0  0  0  0  0  # atno 17320 bound_to 7965
  145.3055  139.1836  143.4667 LP  0  0  0  0  0  0  0  0  0  0  0  0  # atno 17321 bound_to 7965
  140.6795  143.2320  151.5421 LP  0  0  0  0  0  0  0  0  0  0  0  0  # atno 17342 bound_to 10162
  139.5501  144.2418  152.1514 LP  0  0  0  0  0  0  0  0  0  0  0  0  # atno 17343 bound_to 10162
  155.9768  130.4071  150.3753 LP  0  0  0  0  0  0  0  0  0  0  0  0  # atno 17370 bound_to 10713
  157.1853  131.0402  151.2728 LP  0  0  0  0  0  0  0  0  0  0  0  0  # atno 17371 bound_to 10713
  139.8703  134.9651  156.4517 LP  0  0  0  0  0  0  0  0  0  0  0  0  # atno 17394 bound_to 11000
  140.8861  133.7882  155.9520 LP  0  0  0  0  0  0  0  0  0  0  0  0  # atno 17395 bound_to 11000

$$$$
