AV-unprocessed.smi:2871|AV-procd|sdf|11031|dock5
  -GOLD-   2272015493D 1   1.00000     0.00000
 Structure written by MMmdl.
 38 40  0  0  0  0  0  0  0  0  1 V2000
  151.3699  144.7826  158.4288 C   0  0  0  0  0  0  0  0  0  0  0  0
  151.8953  143.9145  159.4775 N   0  0  0  0  0  0  0  0  0  0  0  0
  151.9687  144.3888  160.8535 C   0  0  0  0  0  0  0  0  0  0  0  0
  152.3309  142.6107  159.1535 C   0  0  0  0  0  0  0  0  0  0  0  0
  153.2441  141.8986  159.9689 C   0  0  0  0  0  0  0  0  0  0  0  0
  153.6055  140.6001  159.5442 C   0  0  0  0  0  0  0  0  0  0  0  0
  154.5792  139.7344  160.3297 C   0  0  0  0  0  0  0  0  0  0  0  0
  155.6571  139.4848  159.5859 F   0  0  0  0  0  0  0  0  0  0  0  0
  154.9715  140.3323  161.4553 F   0  0  0  0  0  0  0  0  0  0  0  0
  153.9982  138.5772  160.6474 F   0  0  0  0  0  0  0  0  0  0  0  0
  153.1031  140.0618  158.4104 N   0  0  0  0  0  0  0  0  0  0  0  0
  152.2491  140.8086  157.7121 C   0  0  0  0  0  0  0  0  0  0  0  0
  151.7468  140.2227  156.5649 N   0  0  0  0  0  0  0  0  0  0  0  0
  152.1777  138.9316  156.0405 C   0  0  1  0  0  0  0  0  0  0  0  0
  151.4359  137.7490  156.6673 C   0  0  0  0  0  0  0  0  0  0  0  0
  150.9160  137.0104  155.4256 C   0  0  1  0  0  0  0  0  0  0  0  0
  149.7295  137.7453  154.7887 C   0  0  0  0  0  0  0  0  0  0  0  0
  150.4170  138.9526  154.1541 C   0  0  0  0  0  0  0  0  0  0  0  0
  151.8878  138.7214  154.5409 C   0  0  2  0  0  0  0  0  0  0  0  0
  151.9367  137.3058  154.4867 O   0  0  0  0  0  0  0  0  0  0  0  0
  151.8446  142.0435  158.0234 N   0  0  0  0  0  0  0  0  0  0  0  0
  152.1313  144.9718  157.6714 H   0  0  0  0  0  0  0  0  0  0  0  0
  151.0517  145.7448  158.8302 H   0  0  0  0  0  0  0  0  0  0  0  0
  150.5080  144.3214  157.9450 H   0  0  0  0  0  0  0  0  0  0  0  0
  152.9967  144.3571  161.2159 H   0  0  0  0  0  0  0  0  0  0  0  0
  151.3497  143.7709  161.5047 H   0  0  0  0  0  0  0  0  0  0  0  0
  151.6184  145.4177  160.9388 H   0  0  0  0  0  0  0  0  0  0  0  0
  153.6536  142.3151  160.8765 H   0  0  0  0  0  0  0  0  0  0  0  0
  151.1345  140.7860  155.9934 H   0  0  0  0  0  0  0  0  0  0  0  0
  153.2468  138.8131  156.2228 H   0  0  0  0  0  0  0  0  0  0  0  0
  152.1300  137.1242  157.2305 H   0  0  0  0  0  0  0  0  0  0  0  0
  150.6254  138.0414  157.3366 H   0  0  0  0  0  0  0  0  0  0  0  0
  150.7431  135.9456  155.5830 H   0  0  0  0  0  0  0  0  0  0  0  0
  149.2557  137.1297  154.0234 H   0  0  0  0  0  0  0  0  0  0  0  0
  148.9715  138.0247  155.5210 H   0  0  0  0  0  0  0  0  0  0  0  0
  150.2990  138.9279  153.0703 H   0  0  0  0  0  0  0  0  0  0  0  0
  150.0238  139.9046  154.5117 H   0  0  0  0  0  0  0  0  0  0  0  0
  152.5999  139.2141  153.8783 H   0  0  0  0  0  0  0  0  0  0  0  0
  1  2  1  0  0  0  0
  1 22  1  0  0  0  0
  1 23  1  0  0  0  0
  1 24  1  0  0  0  0
  2  3  1  0  0  0  0
  2  4  1  0  0  0  0
  3 25  1  0  0  0  0
  3 26  1  0  0  0  0
  3 27  1  0  0  0  0
  4 21  1  0  0  0  0
  4  5  2  0  0  0  0
  5  6  1  0  0  0  0
  5 28  1  0  0  0  0
  6  7  1  0  0  0  0
  6 11  2  0  0  0  0
  7  8  1  0  0  0  0
  7  9  1  0  0  0  0
  7 10  1  0  0  0  0
 11 12  1  0  0  0  0
 12 13  1  0  0  0  0
 12 21  2  0  0  0  0
 13 14  1  0  0  0  0
 13 29  1  0  0  0  0
 14 19  1  0  0  0  0
 14 15  1  0  0  0  0
 14 30  1  0  0  0  0
 15 16  1  0  0  0  0
 15 31  1  0  0  0  0
 15 32  1  0  0  0  0
 16 20  1  0  0  0  0
 16 17  1  0  0  0  0
 16 33  1  0  0  0  0
 17 18  1  0  0  0  0
 17 34  1  0  0  0  0
 17 35  1  0  0  0  0
 18 19  1  0  0  0  0
 18 36  1  0  0  0  0
 18 37  1  0  0  0  0
 19 20  1  0  0  0  0
 19 38  1  0  0  0  0
M  END
> <s_m_source_file>
AV-unprocessed.smi

> <i_m_source_file_index>
2871

> <i_lp_mmshare_version>
43012

> <i_f3d_flags>
0

> <s_epik_input>
W0NIM11OKFtDSDNdKWMxW2NIXWMoQyhGKShGKUYpbmMobjEpW05IXVtDQEhdKFtDSDJdW0NAQEhdMjMpW0NAQEhdKE8zKVtDSDJdW0NIMl0y

> <s_epik_cmdline>
J2VwaWtfcHl0aG9uJywgJy1waCcsICc3LjAnLCAnLXRuJywgJzgnLCAnLW1hJywgJzIwMCcsICctbWV0YWxfYmluZGluZycsICctaW1hZScsICc8aW5maWxlLm1hZT4nLCAnLW9tYWUnLCAnPG91dGZpbGUubWFlPic=

> <r_lp_tautomer_probability>
1

> <r_epik_Ionization_Penalty>
0.00695968

> <r_epik_Ionization_Penalty_Charging>
0

> <r_epik_Ionization_Penalty_Neutral>
0.00695968

> <r_epik_State_Penalty>
0.0050343

> <r_epik_Charging_Adjusted_Penalty>
0.0050343

> <i_epik_Tot_Q>
0

> <i_epik_Tot_abs_Q>
0

> <r_epik_Metal_State_Penalty>
-0

> <b_epik_Metal_Only>
0

> <s_lp_Force_Field>
OPLS_2005

> <r_lp_Energy>
32.958

> <b_lp_Chiralities_Consistent>
1

> <s_lp_Variant>
AV-unprocessed.smi:2871-2

> <Gold.Version>
5.8.1

> <Gold.Id.Protein>
6NUR|6NUR_protein|mol2

> <Gold.PLP.Fitness>
47.3410

> <Gold.PLP.PLP>
-42.6025

> <Gold.PLP.part.hbond>
-2.0000

> <Gold.PLP.part.metal>
0.0000

> <Gold.PLP.part.buried>
-5.1969

> <Gold.PLP.part.nonpolar>
-35.2837

> <Gold.PLP.part.repulsive>
0.2858

> <Gold.PLP.ligand.clash>
0.0000

> <Gold.PLP.ligand.torsion>
0.5713

> <Gold.PLP.Chemscore.Hbond>
1.9510

> <Gold.PLP.Chemscore.CHOScore>
0.0000

> <Gold.PLP.Chemscore.Metal>
0.0000

> <Gold.Chemscore.Hbonds>
donor molecule, donor type, donor heavy atom, donor atom, acceptor molecule, acceptor atom, score
      P1  H  7997  8010       L1    11  0.98
      P1  H 10752 10765       L1    20  0.96

> <Gold.PLP.Chemscore.Internal.Correction>
0.0282

> <Gold.Rescore>
     Score         DG    S(hbond)    S(metal)    S(lipo)     H(rot)  DE(clash)    DE(int)     intcor
     16.13     -16.74       1.03        0.00      88.78       1.00       0.08       0.53       ----

> <Gold.Chemscore.Fitness>
16.1321

> <Gold.Chemscore.DG>
-16.7407

> <Gold.Chemscore.ZeroCoef>
-5.4800

> <Gold.Chemscore.Hbond>
1.0278

> <Gold.Chemscore.Metal>
0.0000

> <Gold.Chemscore.Lipo>
88.7848

> <Gold.Chemscore.Internal_Hbond>
0.0000

> <Gold.Chemscore.DEClash>
0.0755

> <Gold.Chemscore.DEInternal>
0.5331

> <Gold.Chemscore.Rot>
1.0000

> <Gold.Chemscore.Internal.Correction>
   9.000000E+99

> <Gold.Chemscore.Hbonds>
donor molecule, donor type, donor heavy atom, donor atom, acceptor molecule, acceptor atom, score
      P1  H  7997  8010       L1    11  0.10
      P1  H 10752 10765       L1    20  0.46

> <Gold.Chemscore.Hbond.Weighted>
-3.4328

> <Gold.Chemscore.Metal.Weighted>
-0.0000

> <Gold.Chemscore.Lipo.Weighted>
-10.3878

> <Gold.Chemscore.Internal_Hbond.Weighted>
0.0000

> <Gold.Chemscore.DEClash.Weighted>
0.0755

> <Gold.Chemscore.DEInternal.Weighted>
0.5331

> <Gold.Chemscore.Rot.Weighted>
2.5600

> <Gold.Chemscore.Internal.Correction.Weighted>
   9.000000E+99

> <Gold.Protein.RotatedTorsions>
[ 6907 6896 6895 6894 ] final   34.60 input  -60.11 | X-H torsion
[ 7974 7965 7964 7962 ] final -159.68 input  175.53 | X-H torsion
[ 8008 7997 7996 7995 ] final   27.18 input   59.86 | X-H torsion
[ 10167 10162 10161 10158 ] final   60.00 input  -65.29 | X-H torsion
[ 10718 10713 10712 10709 ] final -160.42 input   66.30 | X-H torsion
[ 10763 10752 10751 10750 ] final  164.05 input  -60.55 | X-H torsion
[ 11005 11000 10999 10996 ] final   86.18 input  -57.11 | X-H torsion

> <Gold.Protein.ActiveResidues>
 VAL166  LYS551  ARG553  GLY616  TRP617  ASP618  TYR619  PRO620  LYS621  CYS622 
 ASP623  PHE694  ASN695  SER759  ASP760  ASP761  ALA762  ILE779  LEU786  VAL792 
 PHE793  MET794  SER795  GLU796  ALA797  LYS798  CYS799  TRP800  GLU811  SER814 

> <Gold.Protein.RotatedAtoms>
  152.1047  134.9317  160.0568 H   0  0  0  0  0  0  0  0  0  0  0  0  # atno 6907 bound_to 6896
  152.0518  133.4017  159.4388 H   0  0  0  0  0  0  0  0  0  0  0  0  # atno 6908 bound_to 6896
  150.6841  134.3220  159.4834 H   0  0  0  0  0  0  0  0  0  0  0  0  # atno 6909 bound_to 6896
  144.7456  140.3650  143.6088 H   0  0  0  0  0  0  0  0  0  0  0  0  # atno 7974 bound_to 7965
  155.0388  140.3167  155.4732 H   0  0  0  0  0  0  0  0  0  0  0  0  # atno 8008 bound_to 7997
  156.2859  140.2167  156.5455 H   0  0  0  0  0  0  0  0  0  0  0  0  # atno 8009 bound_to 7997
  154.7307  140.0481  157.0711 H   0  0  0  0  0  0  0  0  0  0  0  0  # atno 8010 bound_to 7997
  140.1704  144.4282  150.6664 H   0  0  0  0  0  0  0  0  0  0  0  0  # atno 10167 bound_to 10162
  156.5819  130.8733  151.2867 H   0  0  0  0  0  0  0  0  0  0  0  0  # atno 10718 bound_to 10713
  154.3030  135.2758  155.2602 H   0  0  0  0  0  0  0  0  0  0  0  0  # atno 10763 bound_to 10752
  154.5030  135.5803  153.6549 H   0  0  0  0  0  0  0  0  0  0  0  0  # atno 10764 bound_to 10752
  152.9898  135.6162  154.3202 H   0  0  0  0  0  0  0  0  0  0  0  0  # atno 10765 bound_to 10752
  139.8951  134.8337  156.2684 H   0  0  0  0  0  0  0  0  0  0  0  0  # atno 11005 bound_to 11000
  145.7137  139.1691  143.2524 LP  0  0  0  0  0  0  0  0  0  0  0  0  # atno 17320 bound_to 7965
  146.1328  140.7163  142.9404 LP  0  0  0  0  0  0  0  0  0  0  0  0  # atno 17321 bound_to 7965
  140.6586  143.2245  151.5910 LP  0  0  0  0  0  0  0  0  0  0  0  0  # atno 17342 bound_to 10162
  139.5340  144.2833  152.1212 LP  0  0  0  0  0  0  0  0  0  0  0  0  # atno 17343 bound_to 10162
  157.7324  130.9715  150.1929 LP  0  0  0  0  0  0  0  0  0  0  0  0  # atno 17370 bound_to 10713
  156.2624  130.3712  149.8116 LP  0  0  0  0  0  0  0  0  0  0  0  0  # atno 17371 bound_to 10713
  141.0117  133.7092  156.1122 LP  0  0  0  0  0  0  0  0  0  0  0  0  # atno 17394 bound_to 11000
  140.7358  134.4204  157.5560 LP  0  0  0  0  0  0  0  0  0  0  0  0  # atno 17395 bound_to 11000

$$$$
