AV-unprocessed.smi:1110|AV-procd|sdf|4791|dock2
  -GOLD-   22720 3333D 1   1.00000     0.00000
 Structure written by MMmdl.
 44 45  0  0  0  0  0  0  0  0  2 V2000
  146.3756  132.8767  155.8701 C   0  0  0  0  0  0  0  0  0  0  0  0
  145.9978  134.2966  155.4240 C   0  0  0  0  0  0  0  0  0  0  0  0
  147.0589  134.9991  154.5342 C   0  0  1  0  0  0  0  0  0  0  0  0
  148.4864  134.8494  155.1208 C   0  0  0  0  0  0  0  0  0  0  0  0
  149.4154  135.7940  154.5108 N   0  0  0  0  0  0  0  0  0  0  0  0
  150.4520  136.3844  155.1269 C   0  0  0  0  0  0  0  0  0  0  0  0
  150.7313  136.1765  156.3066 O   0  0  0  0  0  0  0  0  0  0  0  0
  151.3103  137.3704  154.3153 C   0  0  0  0  0  0  0  0  0  0  0  0
  150.7311  138.7188  154.1694 N   0  0  0  0  0  0  0  0  0  0  0  0
  149.5491  138.8246  153.4093 C   0  0  0  0  0  0  0  0  0  0  0  0
  148.9422  140.0036  153.2003 C   0  0  0  0  0  0  0  0  0  0  0  0
  149.5314  141.1866  153.7816 C   0  0  0  0  0  0  0  0  0  0  0  0
  150.6646  141.0974  154.5063 C   0  0  0  0  0  0  0  0  0  0  0  0
  151.3361  139.8120  154.7297 C   0  0  0  0  0  0  0  0  0  0  0  0
  152.3836  139.7241  155.3697 O   0  0  0  0  0  0  0  0  0  0  0  0
  146.9842  134.4869  153.1319 N   0  3  0  0  0  0  0  0  0  0  0  0
  147.3026  133.0456  152.9621 C   0  0  0  0  0  0  0  0  0  0  0  0
  146.3493  132.4894  151.8956 C   0  0  0  0  0  0  0  0  0  0  0  0
  145.7008  133.7207  151.2753 C   0  0  0  0  0  0  0  0  0  0  0  0
  145.7056  134.7212  152.4242 C   0  0  0  0  0  0  0  0  0  0  0  0
  145.6563  132.4996  156.5975 H   0  0  0  0  0  0  0  0  0  0  0  0
  147.3600  132.8571  156.3383 H   0  0  0  0  0  0  0  0  0  0  0  0
  146.3816  132.1767  155.0347 H   0  0  0  0  0  0  0  0  0  0  0  0
  145.0351  134.2679  154.9118 H   0  0  0  0  0  0  0  0  0  0  0  0
  145.8303  134.8770  156.3308 H   0  0  0  0  0  0  0  0  0  0  0  0
  146.8266  136.0650  154.5052 H   0  0  0  0  0  0  0  0  0  0  0  0
  148.4624  134.9794  156.2035 H   0  0  0  0  0  0  0  0  0  0  0  0
  148.8666  133.8399  154.9696 H   0  0  0  0  0  0  0  0  0  0  0  0
  149.2671  136.0108  153.5355 H   0  0  0  0  0  0  0  0  0  0  0  0
  152.2896  137.4372  154.7918 H   0  0  0  0  0  0  0  0  0  0  0  0
  151.5064  136.9312  153.3357 H   0  0  0  0  0  0  0  0  0  0  0  0
  149.1762  137.8935  153.0079 H   0  0  0  0  0  0  0  0  0  0  0  0
  148.0373  140.0659  152.6138 H   0  0  0  0  0  0  0  0  0  0  0  0
  149.0601  142.1477  153.6369 H   0  0  0  0  0  0  0  0  0  0  0  0
  151.0901  141.9932  154.9349 H   0  0  0  0  0  0  0  0  0  0  0  0
  148.3434  132.9445  152.6526 H   0  0  0  0  0  0  0  0  0  0  0  0
  147.1760  132.4891  153.8920 H   0  0  0  0  0  0  0  0  0  0  0  0
  146.8592  131.8695  151.1576 H   0  0  0  0  0  0  0  0  0  0  0  0
  145.5846  131.8745  152.3727 H   0  0  0  0  0  0  0  0  0  0  0  0
  146.3171  134.0928  150.4557 H   0  0  0  0  0  0  0  0  0  0  0  0
  144.7012  133.5252  150.8855 H   0  0  0  0  0  0  0  0  0  0  0  0
  144.8691  134.5150  153.0943 H   0  0  0  0  0  0  0  0  0  0  0  0
  145.6146  135.7478  152.0682 H   0  0  0  0  0  0  0  0  0  0  0  0
  147.6807  134.9889  152.6000 H   0  0  0  0  0  0  0  0  0  0  0  0
  1  2  1  0  0  0  0
  1 21  1  0  0  0  0
  1 22  1  0  0  0  0
  1 23  1  0  0  0  0
  2  3  1  0  0  0  0
  2 24  1  0  0  0  0
  2 25  1  0  0  0  0
  3  4  1  0  0  0  0
  3 16  1  0  0  0  0
  3 26  1  0  0  0  0
  4  5  1  0  0  0  0
  4 27  1  0  0  0  0
  4 28  1  0  0  0  0
  5  6  1  0  0  0  0
  5 29  1  0  0  0  0
  6  7  2  0  0  0  0
  6  8  1  0  0  0  0
  8  9  1  0  0  0  0
  8 30  1  0  0  0  0
  8 31  1  0  0  0  0
  9 14  1  0  0  0  0
  9 10  1  0  0  0  0
 10 11  2  0  0  0  0
 10 32  1  0  0  0  0
 11 12  1  0  0  0  0
 11 33  1  0  0  0  0
 12 13  2  0  0  0  0
 12 34  1  0  0  0  0
 13 14  1  0  0  0  0
 13 35  1  0  0  0  0
 14 15  2  0  0  0  0
 16 20  1  0  0  0  0
 16 17  1  0  0  0  0
 16 44  1  0  0  0  0
 17 18  1  0  0  0  0
 17 36  1  0  0  0  0
 17 37  1  0  0  0  0
 18 19  1  0  0  0  0
 18 38  1  0  0  0  0
 18 39  1  0  0  0  0
 19 20  1  0  0  0  0
 19 40  1  0  0  0  0
 19 41  1  0  0  0  0
 20 42  1  0  0  0  0
 20 43  1  0  0  0  0
M  CHG  1  16   1
M  END
> <s_m_source_file>
AV-unprocessed.smi

> <i_m_source_file_index>
1110

> <i_lp_mmshare_version>
43012

> <i_f3d_flags>
0

> <s_epik_input>
W0NIMl0xW0NIMl1bQ0gyXVtDSDJdTjFbQ0BIXShbQ0gyXVtDSDNdKVtDSDJdW05IXUMoPU8pW0NIMl1uMltjSF1bY0hdW2NIXVtjSF1jMj1P

> <s_epik_cmdline>
J2VwaWtfcHl0aG9uJywgJy1waCcsICc3LjAnLCAnLXRuJywgJzgnLCAnLW1hJywgJzIwMCcsICctbWV0YWxfYmluZGluZycsICctaW1hZScsICc8aW5maWxlLm1hZT4nLCAnLW9tYWUnLCAnPG91dGZpbGUubWFlPic=

> <r_lp_tautomer_probability>
1

> <r_epik_Ionization_Penalty>
0.00361135

> <r_epik_Ionization_Penalty_Charging>
0.00361127

> <r_epik_Ionization_Penalty_Neutral>
7.8489e-08

> <r_epik_State_Penalty>
0.00256751

> <r_epik_Charging_Adjusted_Penalty>
0.00617878

> <i_epik_Tot_Q>
1

> <i_epik_Tot_abs_Q>
1

> <r_epik_Metal_State_Penalty>
-0

> <b_epik_Metal_Only>
0

> <s_lp_Force_Field>
OPLS_2005

> <r_lp_Energy>
49.2182

> <b_lp_Chiralities_Consistent>
1

> <s_lp_Variant>
AV-unprocessed.smi:1110-2

> <Gold.Version>
5.8.1

> <Gold.Id.Protein>
6NUR|6NUR_protein|mol2

> <Gold.PLP.Fitness>
51.1579

> <Gold.PLP.PLP>
-34.4192

> <Gold.PLP.part.hbond>
-4.8126

> <Gold.PLP.part.metal>
0.0000

> <Gold.PLP.part.buried>
2.0725

> <Gold.PLP.part.nonpolar>
-30.9449

> <Gold.PLP.part.repulsive>
0.0945

> <Gold.PLP.ligand.clash>
0.0000

> <Gold.PLP.ligand.torsion>
0.7259

> <Gold.PLP.Chemscore.Hbond>
5.0000

> <Gold.PLP.Chemscore.CHOScore>
1.0000

> <Gold.PLP.Chemscore.Metal>
0.0000

> <Gold.Chemscore.Hbonds>
donor molecule, donor type, donor heavy atom, donor atom, acceptor molecule, acceptor atom, score
      L1  H     5    29       P1  7948  1.00
      L1  H    16    44       P1  7948  2.00
      P1  H  7997  8008       L1    15  0.68
      L1  C    10    32       P1  7948  0.92

> <Gold.PLP.Chemscore.Internal.Correction>
0.1905

> <Gold.Rescore>
     Score         DG    S(hbond)    S(metal)    S(lipo)     H(rot)  DE(clash)    DE(int)     intcor
     17.74     -18.68       3.30        0.00      62.21       1.99       0.04       0.90       ----

> <Gold.Chemscore.Fitness>
17.7438

> <Gold.Chemscore.DG>
-18.6814

> <Gold.Chemscore.ZeroCoef>
-5.4800

> <Gold.Chemscore.Hbond>
3.2981

> <Gold.Chemscore.Metal>
0.0000

> <Gold.Chemscore.Lipo>
62.2083

> <Gold.Chemscore.Internal_Hbond>
0.0000

> <Gold.Chemscore.DEClash>
0.0407

> <Gold.Chemscore.DEInternal>
0.8968

> <Gold.Chemscore.Rot>
1.9893

> <Gold.Chemscore.Internal.Correction>
   9.000000E+99

> <Gold.Chemscore.Hbonds>
donor molecule, donor type, donor heavy atom, donor atom, acceptor molecule, acceptor atom, score
      L1  H     5    29       P1  7948  0.74
      L1  H    16    44       P1  7948  0.98
      P1  H  7997  8008       L1    15  0.69

> <Gold.Chemscore.Hbond.Weighted>
-11.0156

> <Gold.Chemscore.Metal.Weighted>
-0.0000

> <Gold.Chemscore.Lipo.Weighted>
-7.2784

> <Gold.Chemscore.Internal_Hbond.Weighted>
0.0000

> <Gold.Chemscore.DEClash.Weighted>
0.0407

> <Gold.Chemscore.DEInternal.Weighted>
0.8968

> <Gold.Chemscore.Rot.Weighted>
5.0927

> <Gold.Chemscore.Internal.Correction.Weighted>
   9.000000E+99

> <Gold.Protein.RotatedTorsions>
[ 6907 6896 6895 6894 ] final -172.58 input  -60.11 | X-H torsion
[ 7974 7965 7964 7962 ] final  -46.56 input  175.53 | X-H torsion
[ 8008 7997 7996 7995 ] final  -25.76 input   59.86 | X-H torsion
[ 10167 10162 10161 10158 ] final  135.69 input  -65.29 | X-H torsion
[ 10718 10713 10712 10709 ] final -101.36 input   66.30 | X-H torsion
[ 10763 10752 10751 10750 ] final   96.16 input  -60.55 | X-H torsion
[ 11005 11000 10999 10996 ] final   80.52 input  -57.11 | X-H torsion

> <Gold.Protein.ActiveResidues>
 VAL166  LYS551  ARG553  GLY616  TRP617  ASP618  TYR619  PRO620  LYS621  CYS622 
 ASP623  PHE694  ASN695  SER759  ASP760  ASP761  ALA762  ILE779  LEU786  VAL792 
 PHE793  MET794  SER795  GLU796  ALA797  LYS798  CYS799  TRP800  GLU811  SER814 

> <Gold.Protein.RotatedAtoms>
  151.5423  133.3431  159.2937 H   0  0  0  0  0  0  0  0  0  0  0  0  # atno 6907 bound_to 6896
  150.8528  134.7861  159.7033 H   0  0  0  0  0  0  0  0  0  0  0  0  # atno 6908 bound_to 6896
  152.4570  134.5278  159.9853 H   0  0  0  0  0  0  0  0  0  0  0  0  # atno 6909 bound_to 6896
  145.9706  140.7387  142.9412 H   0  0  0  0  0  0  0  0  0  0  0  0  # atno 7974 bound_to 7965
  154.4459  140.1917  156.0670 H   0  0  0  0  0  0  0  0  0  0  0  0  # atno 8008 bound_to 7997
  156.0540  140.3305  155.7357 H   0  0  0  0  0  0  0  0  0  0  0  0  # atno 8009 bound_to 7997
  155.5514  140.0595  157.2840 H   0  0  0  0  0  0  0  0  0  0  0  0  # atno 8010 bound_to 7997
  139.5208  144.6504  151.5319 H   0  0  0  0  0  0  0  0  0  0  0  0  # atno 10167 bound_to 10162
  156.0192  130.5370  150.6952 H   0  0  0  0  0  0  0  0  0  0  0  0  # atno 10718 bound_to 10713
  153.2616  135.4228  155.0900 H   0  0  0  0  0  0  0  0  0  0  0  0  # atno 10763 bound_to 10752
  154.8422  135.3450  154.6369 H   0  0  0  0  0  0  0  0  0  0  0  0  # atno 10764 bound_to 10752
  153.6790  135.7040  153.5181 H   0  0  0  0  0  0  0  0  0  0  0  0  # atno 10765 bound_to 10752
  139.9131  134.7927  156.1920 H   0  0  0  0  0  0  0  0  0  0  0  0  # atno 11005 bound_to 11000
  144.6836  140.2742  143.7301 LP  0  0  0  0  0  0  0  0  0  0  0  0  # atno 17320 bound_to 7965
  145.7911  139.1927  143.2102 LP  0  0  0  0  0  0  0  0  0  0  0  0  # atno 17321 bound_to 7965
  140.6306  143.9083  150.6602 LP  0  0  0  0  0  0  0  0  0  0  0  0  # atno 17342 bound_to 10162
  140.2386  143.3681  152.1506 LP  0  0  0  0  0  0  0  0  0  0  0  0  # atno 17343 bound_to 10162
  157.4625  131.0884  151.0731 LP  0  0  0  0  0  0  0  0  0  0  0  0  # atno 17370 bound_to 10713
  157.1214  130.6063  149.5506 LP  0  0  0  0  0  0  0  0  0  0  0  0  # atno 17371 bound_to 10713
  141.0578  133.6857  156.1893 LP  0  0  0  0  0  0  0  0  0  0  0  0  # atno 17394 bound_to 11000
  140.6710  134.4868  157.5587 LP  0  0  0  0  0  0  0  0  0  0  0  0  # atno 17395 bound_to 11000

$$$$
