AV-unprocessed.smi:1803|AV-procd|sdf|7292|dock7
  -GOLD-   22720 8553D 1   1.00000     0.00000
 Structure written by MMmdl.
 35 37  0  0  0  0  0  0  0  0  3 V2000
  149.4930  134.9757  158.1452 O   0  0  0  0  0  0  0  0  0  0  0  0
  148.3640  134.4890  158.1927 C   0  0  0  0  0  0  0  0  0  0  0  0
  147.7289  134.1841  159.3541 N   0  5  0  0  0  0  0  0  0  0  0  0
  147.6818  135.0313  160.3992 C   0  0  0  0  0  0  0  0  0  0  0  0
  147.8505  136.3565  160.2620 N   0  0  0  0  0  0  0  0  0  0  0  0
  147.7726  137.0437  161.4657 N   0  0  0  0  0  0  0  0  0  0  0  0
  147.5347  136.2167  162.4833 C   0  0  0  0  0  0  0  0  0  0  0  0
  147.3918  134.5225  162.0647 S   0  0  0  0  0  0  0  0  0  0  0  0
  147.7155  134.2397  157.0398 N   0  0  0  0  0  0  0  0  0  0  0  0
  148.2244  134.5006  155.6993 C   0  0  1  0  0  0  0  0  0  0  0  0
  149.6008  133.8687  155.4155 C   0  0  0  0  0  0  0  0  0  0  0  0
  149.5288  133.3737  153.9575 C   0  0  0  0  0  0  0  0  0  0  0  0
  148.2123  133.8172  153.4597 N   0  3  1  0  0  0  0  0  0  0  0  0
  147.6238  133.0591  152.3341 C   0  0  0  0  0  0  0  0  0  0  0  0
  146.2945  133.7197  151.9150 C   0  0  0  0  0  0  0  0  0  0  0  0
  145.3359  133.8902  153.1119 C   0  0  0  0  0  0  0  0  0  0  0  0
  146.0336  134.6048  154.2855 C   0  0  0  0  0  0  0  0  0  0  0  0
  147.3331  133.8629  154.6368 C   0  0  2  0  0  0  0  0  0  0  0  0
  147.4429  136.6062  163.4862 H   0  0  0  0  0  0  0  0  0  0  0  0
  146.7933  133.8343  157.1074 H   0  0  0  0  0  0  0  0  0  0  0  0
  148.2760  135.5772  155.5242 H   0  0  0  0  0  0  0  0  0  0  0  0
  150.4019  134.5941  155.5606 H   0  0  0  0  0  0  0  0  0  0  0  0
  149.7970  133.0272  156.0819 H   0  0  0  0  0  0  0  0  0  0  0  0
  150.3318  133.7775  153.3405 H   0  0  0  0  0  0  0  0  0  0  0  0
  149.5944  132.2848  153.9295 H   0  0  0  0  0  0  0  0  0  0  0  0
  148.3207  133.0485  151.4954 H   0  0  0  0  0  0  0  0  0  0  0  0
  147.4582  132.0222  152.6307 H   0  0  0  0  0  0  0  0  0  0  0  0
  146.5003  134.6984  151.4795 H   0  0  0  0  0  0  0  0  0  0  0  0
  145.8145  133.1305  151.1331 H   0  0  0  0  0  0  0  0  0  0  0  0
  144.4487  134.4463  152.8075 H   0  0  0  0  0  0  0  0  0  0  0  0
  144.9884  132.9096  153.4400 H   0  0  0  0  0  0  0  0  0  0  0  0
  146.2513  135.6385  154.0139 H   0  0  0  0  0  0  0  0  0  0  0  0
  145.3719  134.6402  155.1516 H   0  0  0  0  0  0  0  0  0  0  0  0
  147.0974  132.8380  154.9342 H   0  0  0  0  0  0  0  0  0  0  0  0
  148.3281  134.7729  153.1544 H   0  0  0  0  0  0  0  0  0  0  0  0
  1  2  2  0  0  0  0
  2  3  1  0  0  0  0
  2  9  1  0  0  0  0
  3  4  1  0  0  0  0
  4  8  1  0  0  0  0
  4  5  2  0  0  0  0
  5  6  1  0  0  0  0
  6  7  2  0  0  0  0
  7  8  1  0  0  0  0
  7 19  1  0  0  0  0
  9 10  1  0  0  0  0
  9 20  1  0  0  0  0
 10 18  1  0  0  0  0
 10 11  1  0  0  0  0
 10 21  1  0  0  0  0
 11 12  1  0  0  0  0
 11 22  1  0  0  0  0
 11 23  1  0  0  0  0
 12 13  1  0  0  0  0
 12 24  1  0  0  0  0
 12 25  1  0  0  0  0
 13 18  1  0  0  0  0
 13 14  1  0  0  0  0
 13 35  1  0  0  0  0
 14 15  1  0  0  0  0
 14 26  1  0  0  0  0
 14 27  1  0  0  0  0
 15 16  1  0  0  0  0
 15 28  1  0  0  0  0
 15 29  1  0  0  0  0
 16 17  1  0  0  0  0
 16 30  1  0  0  0  0
 16 31  1  0  0  0  0
 17 18  1  0  0  0  0
 17 32  1  0  0  0  0
 17 33  1  0  0  0  0
 18 34  1  0  0  0  0
M  CHG  1   3  -1
M  CHG  1  13   1
M  END
> <s_m_source_file>
AV-unprocessed.smi

> <i_m_source_file_index>
1803

> <i_lp_mmshare_version>
43012

> <i_f3d_flags>
0

> <s_epik_input>
czFbY0hdbm5jMVtOSF1DKD1PKVtOSF1bQ0BIXShbQ0gyXVtDSDJdMilbQ0BASF0oTjIzKVtDSDJdW0NIMl1bQ0gyXVtDSDJdMw==

> <s_epik_cmdline>
J2VwaWtfcHl0aG9uJywgJy1waCcsICc3LjAnLCAnLXRuJywgJzgnLCAnLW1hJywgJzIwMCcsICctbWV0YWxfYmluZGluZycsICctaW1hZScsICc8aW5maWxlLm1hZT4nLCAnLW9tYWUnLCAnPG91dGZpbGUubWFlPic=

> <r_lp_tautomer_probability>
1

> <r_epik_Ionization_Penalty>
3.78828

> <r_epik_Ionization_Penalty_Charging>
3.7591

> <r_epik_Ionization_Penalty_Neutral>
0.0291838

> <r_epik_State_Penalty>
3.757

> <r_epik_Charging_Adjusted_Penalty>
7.51609

> <i_epik_Tot_Q>
0

> <i_epik_Tot_abs_Q>
2

> <r_epik_Metal_State_Penalty>
0.558016

> <b_epik_Metal_Only>
1

> <s_lp_Force_Field>
OPLS_2005

> <r_lp_Energy>
28.5802

> <b_lp_Chiralities_Consistent>
1

> <s_lp_Variant>
AV-unprocessed.smi:1803-14

> <Gold.Version>
5.8.1

> <Gold.Id.Protein>
6NUR|6NUR_protein|mol2

> <Gold.PLP.Fitness>
40.4691

> <Gold.PLP.PLP>
-27.1871

> <Gold.PLP.part.hbond>
-4.0000

> <Gold.PLP.part.metal>
0.0000

> <Gold.PLP.part.buried>
-4.2504

> <Gold.PLP.part.nonpolar>
-18.8403

> <Gold.PLP.part.repulsive>
0.0115

> <Gold.PLP.ligand.clash>
0.0000

> <Gold.PLP.ligand.torsion>
0.5686

> <Gold.PLP.Chemscore.Hbond>
4.8000

> <Gold.PLP.Chemscore.CHOScore>
0.0000

> <Gold.PLP.Chemscore.Metal>
0.0000

> <Gold.Chemscore.Hbonds>
donor molecule, donor type, donor heavy atom, donor atom, acceptor molecule, acceptor atom, score
      L1  H    13    35       P1  7948  2.00
      P1  H  6896  6909       L1     1  1.00
      P1  H  6931  6943       L1     6  1.00
      P1  H  6934  6947       L1     6  0.60

> <Gold.PLP.Chemscore.Internal.Correction>
0.0193

> <Gold.Rescore>
     Score         DG    S(hbond)    S(metal)    S(lipo)     H(rot)  DE(clash)    DE(int)     intcor
     16.54     -19.41       3.24        0.00      48.41       1.00       0.01       2.86       ----

> <Gold.Chemscore.Fitness>
16.5438

> <Gold.Chemscore.DG>
-19.4128

> <Gold.Chemscore.ZeroCoef>
-5.4800

> <Gold.Chemscore.Hbond>
3.2421

> <Gold.Chemscore.Metal>
0.0000

> <Gold.Chemscore.Lipo>
48.4106

> <Gold.Chemscore.Internal_Hbond>
0.0000

> <Gold.Chemscore.DEClash>
0.0089

> <Gold.Chemscore.DEInternal>
2.8601

> <Gold.Chemscore.Rot>
1.0000

> <Gold.Chemscore.Internal.Correction>
   9.000000E+99

> <Gold.Chemscore.Hbonds>
donor molecule, donor type, donor heavy atom, donor atom, acceptor molecule, acceptor atom, score
      L1  H    13    35       P1  7948  0.65
      P1  H  6896  6909       L1     1  0.85
      P1  H  6931  6943       L1     6  0.76
      P1  H  6934  6947       L1     6  0.29

> <Gold.Chemscore.Hbond.Weighted>
-10.8287

> <Gold.Chemscore.Metal.Weighted>
-0.0000

> <Gold.Chemscore.Lipo.Weighted>
-5.6640

> <Gold.Chemscore.Internal_Hbond.Weighted>
0.0000

> <Gold.Chemscore.DEClash.Weighted>
0.0089

> <Gold.Chemscore.DEInternal.Weighted>
2.8601

> <Gold.Chemscore.Rot.Weighted>
2.5600

> <Gold.Chemscore.Internal.Correction.Weighted>
   9.000000E+99

> <Gold.Protein.RotatedTorsions>
[ 6907 6896 6895 6894 ] final   29.34 input  -60.11 | X-H torsion
[ 7974 7965 7964 7962 ] final -139.84 input  175.53 | X-H torsion
[ 8008 7997 7996 7995 ] final   71.66 input   59.86 | X-H torsion
[ 10167 10162 10161 10158 ] final   74.04 input  -65.29 | X-H torsion
[ 10718 10713 10712 10709 ] final   68.45 input   66.30 | X-H torsion
[ 10763 10752 10751 10750 ] final   32.84 input  -60.55 | X-H torsion
[ 11005 11000 10999 10996 ] final  175.81 input  -57.11 | X-H torsion

> <Gold.Protein.ActiveResidues>
 VAL166  LYS551  ARG553  GLY616  TRP617  ASP618  TYR619  PRO620  LYS621  CYS622 
 ASP623  PHE694  ASN695  SER759  ASP760  ASP761  ALA762  ILE779  LEU786  VAL792 
 PHE793  MET794  SER795  GLU796  ALA797  LYS798  CYS799  TRP800  GLU811  SER814 

> <Gold.Protein.RotatedAtoms>
  152.0300  134.9773  160.0572 H   0  0  0  0  0  0  0  0  0  0  0  0  # atno 6907 bound_to 6896
  152.1253  133.4372  159.4703 H   0  0  0  0  0  0  0  0  0  0  0  0  # atno 6908 bound_to 6896
  150.6852  134.2404  159.4513 H   0  0  0  0  0  0  0  0  0  0  0  0  # atno 6909 bound_to 6896
  144.8644  140.6270  143.5307 H   0  0  0  0  0  0  0  0  0  0  0  0  # atno 7974 bound_to 7965
  155.7572  140.3487  155.5180 H   0  0  0  0  0  0  0  0  0  0  0  0  # atno 8008 bound_to 7997
  155.8948  140.1024  157.1414 H   0  0  0  0  0  0  0  0  0  0  0  0  # atno 8009 bound_to 7997
  154.4037  140.1297  156.4348 H   0  0  0  0  0  0  0  0  0  0  0  0  # atno 8010 bound_to 7997
  140.0180  144.5563  150.7605 H   0  0  0  0  0  0  0  0  0  0  0  0  # atno 10167 bound_to 10162
  157.6290  130.9374  150.0380 H   0  0  0  0  0  0  0  0  0  0  0  0  # atno 10718 bound_to 10713
  153.0242  135.6402  154.1418 H   0  0  0  0  0  0  0  0  0  0  0  0  # atno 10763 bound_to 10752
  154.1149  135.2850  155.3223 H   0  0  0  0  0  0  0  0  0  0  0  0  # atno 10764 bound_to 10752
  154.6305  135.5494  153.7737 H   0  0  0  0  0  0  0  0  0  0  0  0  # atno 10765 bound_to 10752
  140.3662  134.7069  157.4363 H   0  0  0  0  0  0  0  0  0  0  0  0  # atno 11005 bound_to 11000
  145.4249  139.1558  143.4054 LP  0  0  0  0  0  0  0  0  0  0  0  0  # atno 17320 bound_to 7965
  146.2885  140.4362  142.8748 LP  0  0  0  0  0  0  0  0  0  0  0  0  # atno 17321 bound_to 7965
  140.7354  143.2741  151.3797 LP  0  0  0  0  0  0  0  0  0  0  0  0  # atno 17342 bound_to 10162
  139.6159  144.1003  152.2345 LP  0  0  0  0  0  0  0  0  0  0  0  0  # atno 17343 bound_to 10162
  156.1481  130.3642  149.9480 LP  0  0  0  0  0  0  0  0  0  0  0  0  # atno 17370 bound_to 10713
  156.7506  130.9114  151.3637 LP  0  0  0  0  0  0  0  0  0  0  0  0  # atno 17371 bound_to 10713
  140.0587  134.6026  155.8774 LP  0  0  0  0  0  0  0  0  0  0  0  0  # atno 17394 bound_to 11000
  141.1969  133.6593  156.5713 LP  0  0  0  0  0  0  0  0  0  0  0  0  # atno 17395 bound_to 11000

$$$$
