AV-unprocessed.smi:2999|AV-procd|sdf|11427|dock3
  -GOLD-   2272016353D 1   1.00000     0.00000
 Structure written by MMmdl.
 37 39  0  0  0  0  0  0  0  0  3 V2000
  147.4824  136.1400  158.1548 O   0  0  0  0  0  0  0  0  0  0  0  0
  148.1148  136.9219  158.8685 C   0  0  0  0  0  0  0  0  0  0  0  0
  149.0905  137.6736  158.3387 N   0  0  0  0  0  0  0  0  0  0  0  0
  149.5337  137.6578  156.9468 C   0  0  0  0  0  0  0  0  0  0  0  0
  148.9314  138.8097  156.1189 C   0  0  2  0  0  0  0  0  0  0  0  0
  149.2977  138.7715  154.6164 C   0  0  0  0  0  0  0  0  0  0  0  0
  148.7350  139.9328  153.8897 N   0  3  1  0  0  0  0  0  0  0  0  0
  147.2858  139.8087  153.6097 C   0  0  0  0  0  0  0  0  0  0  0  0
  146.9768  139.0335  152.3502 C   0  0  0  0  0  0  0  0  0  0  0  0
  146.8478  140.5405  152.3628 C   0  0  0  0  0  0  0  0  0  0  0  0
  149.1003  141.2031  154.5599 C   0  0  0  0  0  0  0  0  0  0  0  0
  148.7432  141.1697  156.0577 C   0  0  0  0  0  0  0  0  0  0  0  0
  149.3617  140.0481  156.6767 O   0  0  0  0  0  0  0  0  0  0  0  0
  147.9454  137.1112  160.1958 N   0  5  0  0  0  0  0  0  0  0  0  0
  147.5294  136.0969  160.9715 C   0  0  0  0  0  0  0  0  0  0  0  0
  147.0704  134.9416  160.4766 N   0  0  0  0  0  0  0  0  0  0  0  0
  146.7002  134.0240  161.4619 C   0  0  0  0  0  0  0  0  0  0  0  0
  146.8887  134.4890  162.7364 C   0  0  0  0  0  0  0  0  0  0  0  0
  147.5400  136.1032  162.7373 S   0  0  0  0  0  0  0  0  0  0  0  0
  149.5781  138.2995  158.9632 H   0  0  0  0  0  0  0  0  0  0  0  0
  150.6228  137.6839  156.8867 H   0  0  0  0  0  0  0  0  0  0  0  0
  149.2343  136.7036  156.5129 H   0  0  0  0  0  0  0  0  0  0  0  0
  147.8475  138.7452  156.2258 H   0  0  0  0  0  0  0  0  0  0  0  0
  150.3797  138.8093  154.4900 H   0  0  0  0  0  0  0  0  0  0  0  0
  148.9638  137.8396  154.1587 H   0  0  0  0  0  0  0  0  0  0  0  0
  146.6211  139.7435  154.4688 H   0  0  0  0  0  0  0  0  0  0  0  0
  147.8073  138.6044  151.7925 H   0  0  0  0  0  0  0  0  0  0  0  0
  146.0560  138.4542  152.3312 H   0  0  0  0  0  0  0  0  0  0  0  0
  145.8417  140.9545  152.3509 H   0  0  0  0  0  0  0  0  0  0  0  0
  147.5925  141.1123  151.8118 H   0  0  0  0  0  0  0  0  0  0  0  0
  150.1749  141.3531  154.4488 H   0  0  0  0  0  0  0  0  0  0  0  0
  148.6158  142.0455  154.0648 H   0  0  0  0  0  0  0  0  0  0  0  0
  149.0979  142.0779  156.5452 H   0  0  0  0  0  0  0  0  0  0  0  0
  147.6633  141.1349  156.2073 H   0  0  0  0  0  0  0  0  0  0  0  0
  146.3132  133.0607  161.1649 H   0  0  0  0  0  0  0  0  0  0  0  0
  146.6867  133.9847  163.6693 H   0  0  0  0  0  0  0  0  0  0  0  0
  149.1848  139.9458  152.9852 H   0  0  0  0  0  0  0  0  0  0  0  0
  1  2  2  0  0  0  0
  2  3  1  0  0  0  0
  2 14  1  0  0  0  0
  3  4  1  0  0  0  0
  3 20  1  0  0  0  0
  4  5  1  0  0  0  0
  4 21  1  0  0  0  0
  4 22  1  0  0  0  0
  5 13  1  0  0  0  0
  5  6  1  0  0  0  0
  5 23  1  0  0  0  0
  6  7  1  0  0  0  0
  6 24  1  0  0  0  0
  6 25  1  0  0  0  0
  7  8  1  0  0  0  0
  7 11  1  0  0  0  0
  7 37  1  0  0  0  0
  8 10  1  0  0  0  0
  8  9  1  0  0  0  0
  8 26  1  0  0  0  0
  9 10  1  0  0  0  0
  9 27  1  0  0  0  0
  9 28  1  0  0  0  0
 10 29  1  0  0  0  0
 10 30  1  0  0  0  0
 11 12  1  0  0  0  0
 11 31  1  0  0  0  0
 11 32  1  0  0  0  0
 12 13  1  0  0  0  0
 12 33  1  0  0  0  0
 12 34  1  0  0  0  0
 14 15  1  0  0  0  0
 15 19  1  0  0  0  0
 15 16  2  0  0  0  0
 16 17  1  0  0  0  0
 17 18  2  0  0  0  0
 17 35  1  0  0  0  0
 18 19  1  0  0  0  0
 18 36  1  0  0  0  0
M  CHG  1   7   1
M  CHG  1  14  -1
M  END
> <s_m_source_file>
AV-unprocessed.smi

> <i_m_source_file_index>
2999

> <i_lp_mmshare_version>
43012

> <i_f3d_flags>
0

> <s_epik_input>
czFbY0hdW2NIXW5jMVtOSF1DKD1PKVtOSF1bQ0gyXVtDQEBIXTJbQ0gyXU4oW0NIMl1bQ0gyXU8yKVtDSF0zW0NIMl1bQ0gyXTM=

> <s_epik_cmdline>
J2VwaWtfcHl0aG9uJywgJy1waCcsICc3LjAnLCAnLXRuJywgJzgnLCAnLW1hJywgJzIwMCcsICctbWV0YWxfYmluZGluZycsICctaW1hZScsICc8aW5maWxlLm1hZT4nLCAnLW9tYWUnLCAnPG91dGZpbGUubWFlPic=

> <r_lp_tautomer_probability>
0.999

> <r_epik_Ionization_Penalty>
7.79196

> <r_epik_Ionization_Penalty_Charging>
6.93299

> <r_epik_Ionization_Penalty_Neutral>
0.858963

> <r_epik_State_Penalty>
7.05108

> <r_epik_Charging_Adjusted_Penalty>
13.9841

> <i_epik_Tot_Q>
0

> <i_epik_Tot_abs_Q>
2

> <r_epik_Metal_State_Penalty>
3.05936

> <b_epik_Metal_Only>
1

> <s_lp_Force_Field>
OPLS_2005

> <r_lp_Energy>
16.1762

> <b_lp_Chiralities_Consistent>
1

> <s_lp_Variant>
AV-unprocessed.smi:2999-11

> <Gold.Version>
5.8.1

> <Gold.Id.Protein>
6NUR|6NUR_protein|mol2

> <Gold.PLP.Fitness>
39.5269

> <Gold.PLP.PLP>
-30.9657

> <Gold.PLP.part.hbond>
-3.0000

> <Gold.PLP.part.metal>
0.0000

> <Gold.PLP.part.buried>
-1.1142

> <Gold.PLP.part.nonpolar>
-27.8195

> <Gold.PLP.part.repulsive>
0.2674

> <Gold.PLP.ligand.clash>
0.0000

> <Gold.PLP.ligand.torsion>
1.0099

> <Gold.PLP.Chemscore.Hbond>
3.0860

> <Gold.PLP.Chemscore.CHOScore>
0.0000

> <Gold.PLP.Chemscore.Metal>
0.0000

> <Gold.Chemscore.Hbonds>
donor molecule, donor type, donor heavy atom, donor atom, acceptor molecule, acceptor atom, score
      L1  H     7    37       P1  7957  1.00
      P1  H  6931  6943       L1    14  0.33
      P1  H  6934  6947       L1    14  0.99

> <Gold.PLP.Chemscore.Internal.Correction>
1.3229

> <Gold.Rescore>
     Score         DG    S(hbond)    S(metal)    S(lipo)     H(rot)  DE(clash)    DE(int)     intcor
     12.92     -16.02       1.85        0.00      71.28       1.55       0.45       2.65       ----

> <Gold.Chemscore.Fitness>
12.9200

> <Gold.Chemscore.DG>
-16.0191

> <Gold.Chemscore.ZeroCoef>
-5.4800

> <Gold.Chemscore.Hbond>
1.8467

> <Gold.Chemscore.Metal>
0.0000

> <Gold.Chemscore.Lipo>
71.2841

> <Gold.Chemscore.Internal_Hbond>
0.0000

> <Gold.Chemscore.DEClash>
0.4479

> <Gold.Chemscore.DEInternal>
2.6511

> <Gold.Chemscore.Rot>
1.5504

> <Gold.Chemscore.Internal.Correction>
   9.000000E+99

> <Gold.Chemscore.Hbonds>
donor molecule, donor type, donor heavy atom, donor atom, acceptor molecule, acceptor atom, score
      L1  H     7    37       P1  7957  1.00
      P1  H  6931  6943       L1    14  0.02
      P1  H  6934  6947       L1    14  0.39

> <Gold.Chemscore.Hbond.Weighted>
-6.1678

> <Gold.Chemscore.Metal.Weighted>
-0.0000

> <Gold.Chemscore.Lipo.Weighted>
-8.3402

> <Gold.Chemscore.Internal_Hbond.Weighted>
0.0000

> <Gold.Chemscore.DEClash.Weighted>
0.4479

> <Gold.Chemscore.DEInternal.Weighted>
2.6511

> <Gold.Chemscore.Rot.Weighted>
3.9690

> <Gold.Chemscore.Internal.Correction.Weighted>
   9.000000E+99

> <Gold.Protein.RotatedTorsions>
[ 6907 6896 6895 6894 ] final  103.00 input  -60.11 | X-H torsion
[ 7974 7965 7964 7962 ] final  176.06 input  175.53 | X-H torsion
[ 8008 7997 7996 7995 ] final  -68.42 input   59.86 | X-H torsion
[ 10167 10162 10161 10158 ] final   82.03 input  -65.29 | X-H torsion
[ 10718 10713 10712 10709 ] final    5.31 input   66.30 | X-H torsion
[ 10763 10752 10751 10750 ] final    5.02 input  -60.55 | X-H torsion
[ 11005 11000 10999 10996 ] final   44.24 input  -57.11 | X-H torsion

> <Gold.Protein.ActiveResidues>
 VAL166  LYS551  ARG553  GLY616  TRP617  ASP618  TYR619  PRO620  LYS621  CYS622 
 ASP623  PHE694  ASN695  SER759  ASP760  ASP761  ALA762  ILE779  LEU786  VAL792 
 PHE793  MET794  SER795  GLU796  ALA797  LYS798  CYS799  TRP800  GLU811  SER814 

> <Gold.Protein.RotatedAtoms>
  152.5308  133.9892  159.7842 H   0  0  0  0  0  0  0  0  0  0  0  0  # atno 6907 bound_to 6896
  151.0131  133.5939  159.2687 H   0  0  0  0  0  0  0  0  0  0  0  0  # atno 6908 bound_to 6896
  151.3006  135.0774  159.9290 H   0  0  0  0  0  0  0  0  0  0  0  0  # atno 6909 bound_to 6896
  144.7191  140.0039  143.6440 H   0  0  0  0  0  0  0  0  0  0  0  0  # atno 7974 bound_to 7965
  154.4867  140.0873  156.7501 H   0  0  0  0  0  0  0  0  0  0  0  0  # atno 8008 bound_to 7997
  155.4333  140.3450  155.4264 H   0  0  0  0  0  0  0  0  0  0  0  0  # atno 8009 bound_to 7997
  156.1271  140.1490  156.9108 H   0  0  0  0  0  0  0  0  0  0  0  0  # atno 8010 bound_to 7997
  139.9330  144.6139  150.8326 H   0  0  0  0  0  0  0  0  0  0  0  0  # atno 10167 bound_to 10162
  156.9055  130.5737  149.5647 H   0  0  0  0  0  0  0  0  0  0  0  0  # atno 10718 bound_to 10713
  153.2643  135.6926  153.7546 H   0  0  0  0  0  0  0  0  0  0  0  0  # atno 10763 bound_to 10752
  153.6593  135.3363  155.3123 H   0  0  0  0  0  0  0  0  0  0  0  0  # atno 10764 bound_to 10752
  154.8441  135.4473  154.1644 H   0  0  0  0  0  0  0  0  0  0  0  0  # atno 10765 bound_to 10752
  140.1570  134.4389  155.8343 H   0  0  0  0  0  0  0  0  0  0  0  0  # atno 11005 bound_to 11000
  146.0313  139.3337  143.0754 LP  0  0  0  0  0  0  0  0  0  0  0  0  # atno 17320 bound_to 7965
  145.8449  140.9560  143.0780 LP  0  0  0  0  0  0  0  0  0  0  0  0  # atno 17321 bound_to 7965
  140.7632  143.3217  151.2607 LP  0  0  0  0  0  0  0  0  0  0  0  0  # atno 17342 bound_to 10162
  139.6766  143.9926  152.2785 LP  0  0  0  0  0  0  0  0  0  0  0  0  # atno 17343 bound_to 10162
  156.0561  130.5622  150.9095 LP  0  0  0  0  0  0  0  0  0  0  0  0  # atno 17370 bound_to 10713
  157.6000  131.0941  150.8976 LP  0  0  0  0  0  0  0  0  0  0  0  0  # atno 17371 bound_to 10713
  141.2205  133.6897  156.7525 LP  0  0  0  0  0  0  0  0  0  0  0  0  # atno 17394 bound_to 11000
  140.2536  134.8522  157.3691 LP  0  0  0  0  0  0  0  0  0  0  0  0  # atno 17395 bound_to 11000

$$$$
