AV-unprocessed.smi:2245|AV-procd|sdf|9081|dock7
  -GOLD-   2272012283D 1   1.00000     0.00000
 Structure written by MMmdl.
 45 46  0  0  0  0  0  0  0  0  2 V2000
  151.0790  145.3153  159.7644 C   0  0  0  0  0  0  0  0  0  0  0  0
  151.6451  143.9173  159.6291 C   0  0  0  0  0  0  0  0  0  0  0  0
  152.4365  143.3598  160.6512 C   0  0  0  0  0  0  0  0  0  0  0  0
  152.9401  142.0572  160.4666 C   0  0  0  0  0  0  0  0  0  0  0  0
  153.7952  141.3948  161.5263 C   0  0  0  0  0  0  0  0  0  0  0  0
  152.6982  141.3241  159.3590 N   0  0  0  0  0  0  0  0  0  0  0  0
  151.9374  141.8509  158.3678 C   0  0  0  0  0  0  0  0  0  0  0  0
  151.6273  141.1638  157.1640 N   0  0  0  0  0  0  0  0  0  0  0  0
  152.1932  140.0450  156.6779 C   0  0  0  0  0  0  0  0  0  0  0  0
  153.0893  139.4025  157.2257 O   0  0  0  0  0  0  0  0  0  0  0  0
  151.6592  139.7027  155.4963 N   0  0  0  0  0  0  0  0  0  0  0  0
  152.0434  138.5353  154.7087 C   0  0  0  0  0  0  0  0  0  0  0  0
  150.8540  137.5948  154.4293 C   0  0  1  0  0  0  0  0  0  0  0  0
  150.6021  136.5659  155.5299 C   0  0  0  0  0  0  0  0  0  0  0  0
  149.1270  136.1765  155.3621 C   0  0  0  0  0  0  0  0  0  0  0  0
  148.5055  137.2070  154.4948 N   0  3  1  0  0  0  0  0  0  0  0  0
  147.1637  137.6753  154.9183 C   0  0  0  0  0  0  0  0  0  0  0  0
  146.1142  137.5545  153.7992 C   0  0  0  0  0  0  0  0  0  0  0  0
  144.9390  137.9824  154.2578 F   0  0  0  0  0  0  0  0  0  0  0  0
  146.4677  138.3088  152.7587 F   0  0  0  0  0  0  0  0  0  0  0  0
  145.9768  136.2910  153.3990 F   0  0  0  0  0  0  0  0  0  0  0  0
  149.4959  138.2877  154.3191 C   0  0  0  0  0  0  0  0  0  0  0  0
  151.3947  143.1512  158.4725 C   0  0  0  0  0  0  0  0  0  0  0  0
  151.0009  145.6061  160.8125 H   0  0  0  0  0  0  0  0  0  0  0  0
  150.0840  145.3728  159.3224 H   0  0  0  0  0  0  0  0  0  0  0  0
  151.7239  146.0318  159.2555 H   0  0  0  0  0  0  0  0  0  0  0  0
  152.6514  143.9159  161.5521 H   0  0  0  0  0  0  0  0  0  0  0  0
  154.0823  142.1048  162.3026 H   0  0  0  0  0  0  0  0  0  0  0  0
  154.7058  140.9892  161.0843 H   0  0  0  0  0  0  0  0  0  0  0  0
  153.2472  140.5774  161.9954 H   0  0  0  0  0  0  0  0  0  0  0  0
  150.8934  141.5763  156.6077 H   0  0  0  0  0  0  0  0  0  0  0  0
  150.9220  140.2821  155.1222 H   0  0  0  0  0  0  0  0  0  0  0  0
  152.4956  138.8606  153.7703 H   0  0  0  0  0  0  0  0  0  0  0  0
  152.8218  138.0033  155.2564 H   0  0  0  0  0  0  0  0  0  0  0  0
  151.0344  137.0500  153.5010 H   0  0  0  0  0  0  0  0  0  0  0  0
  151.2723  135.7083  155.4619 H   0  0  0  0  0  0  0  0  0  0  0  0
  150.7479  137.0224  156.5101 H   0  0  0  0  0  0  0  0  0  0  0  0
  149.0317  135.2063  154.8740 H   0  0  0  0  0  0  0  0  0  0  0  0
  148.6409  136.1072  156.3360 H   0  0  0  0  0  0  0  0  0  0  0  0
  146.8427  137.1400  155.8134 H   0  0  0  0  0  0  0  0  0  0  0  0
  147.2436  138.7268  155.1984 H   0  0  0  0  0  0  0  0  0  0  0  0
  149.3849  139.0231  155.1181 H   0  0  0  0  0  0  0  0  0  0  0  0
  149.3614  138.7995  153.3654 H   0  0  0  0  0  0  0  0  0  0  0  0
  150.7911  143.5597  157.6747 H   0  0  0  0  0  0  0  0  0  0  0  0
  148.3984  136.7832  153.5839 H   0  0  0  0  0  0  0  0  0  0  0  0
  1  2  1  0  0  0  0
  1 24  1  0  0  0  0
  1 25  1  0  0  0  0
  1 26  1  0  0  0  0
  2 23  1  0  0  0  0
  2  3  2  0  0  0  0
  3  4  1  0  0  0  0
  3 27  1  0  0  0  0
  4  5  1  0  0  0  0
  4  6  2  0  0  0  0
  5 28  1  0  0  0  0
  5 29  1  0  0  0  0
  5 30  1  0  0  0  0
  6  7  1  0  0  0  0
  7  8  1  0  0  0  0
  7 23  2  0  0  0  0
  8  9  1  0  0  0  0
  8 31  1  0  0  0  0
  9 10  2  0  0  0  0
  9 11  1  0  0  0  0
 11 12  1  0  0  0  0
 11 32  1  0  0  0  0
 12 13  1  0  0  0  0
 12 33  1  0  0  0  0
 12 34  1  0  0  0  0
 13 22  1  0  0  0  0
 13 14  1  0  0  0  0
 13 35  1  0  0  0  0
 14 15  1  0  0  0  0
 14 36  1  0  0  0  0
 14 37  1  0  0  0  0
 15 16  1  0  0  0  0
 15 38  1  0  0  0  0
 15 39  1  0  0  0  0
 16 17  1  0  0  0  0
 16 22  1  0  0  0  0
 16 45  1  0  0  0  0
 17 18  1  0  0  0  0
 17 40  1  0  0  0  0
 17 41  1  0  0  0  0
 18 19  1  0  0  0  0
 18 20  1  0  0  0  0
 18 21  1  0  0  0  0
 22 42  1  0  0  0  0
 22 43  1  0  0  0  0
 23 44  1  0  0  0  0
M  CHG  1  16   1
M  END
> <s_m_source_file>
AV-unprocessed.smi

> <i_m_source_file_index>
2245

> <i_lp_mmshare_version>
43012

> <i_f3d_flags>
0

> <s_epik_input>
W0NIM11jMVtjSF1jKFtDSDNdKW5jKFtjSF0xKVtOSF1DKD1PKVtOSF1bQ0gyXVtDQEBIXTJbQ0gyXVtDSDJdTihbQ0gyXTIpW0NIMl1DKEYpKEYpRg==

> <s_epik_cmdline>
J2VwaWtfcHl0aG9uJywgJy1waCcsICc3LjAnLCAnLXRuJywgJzgnLCAnLW1hJywgJzIwMCcsICctbWV0YWxfYmluZGluZycsICctaW1hZScsICc8aW5maWxlLm1hZT4nLCAnLW9tYWUnLCAnPG91dGZpbGUubWFlPic=

> <r_epik_Ionization_Penalty>
0.628315

> <r_epik_Ionization_Penalty_Charging>
0.628113

> <r_epik_Ionization_Penalty_Neutral>
0.000202271

> <r_epik_State_Penalty>
0.644725

> <r_epik_Charging_Adjusted_Penalty>
1.27284

> <i_epik_Tot_Q>
1

> <i_epik_Tot_abs_Q>
1

> <r_epik_Metal_State_Penalty>
0.644752

> <b_epik_Metal_Only>
0

> <s_lp_Force_Field>
OPLS_2005

> <r_lp_Energy>
28.8991

> <b_lp_Chiralities_Consistent>
1

> <s_lp_Variant>
AV-unprocessed.smi:2245-6

> <Gold.Version>
5.8.1

> <Gold.Id.Protein>
6NUR|6NUR_protein|mol2

> <Gold.PLP.Fitness>
48.2939

> <Gold.PLP.PLP>
-41.0447

> <Gold.PLP.part.hbond>
-2.0000

> <Gold.PLP.part.metal>
0.0000

> <Gold.PLP.part.buried>
-4.3678

> <Gold.PLP.part.nonpolar>
-35.7731

> <Gold.PLP.part.repulsive>
0.2592

> <Gold.PLP.ligand.clash>
0.0000

> <Gold.PLP.ligand.torsion>
1.0866

> <Gold.PLP.Chemscore.Hbond>
3.0000

> <Gold.PLP.Chemscore.CHOScore>
0.0000

> <Gold.PLP.Chemscore.Metal>
0.0000

> <Gold.Chemscore.Hbonds>
donor molecule, donor type, donor heavy atom, donor atom, acceptor molecule, acceptor atom, score
      L1  H    16    45       P1  7948  2.00
      P1  H  7997  8009       L1    10  1.00

> <Gold.PLP.Chemscore.Internal.Correction>
0.4226

> <Gold.Rescore>
     Score         DG    S(hbond)    S(metal)    S(lipo)     H(rot)  DE(clash)    DE(int)     intcor
     16.62     -18.97       1.97        0.00      94.49       1.61       0.01       2.35       ----

> <Gold.Chemscore.Fitness>
16.6164

> <Gold.Chemscore.DG>
-18.9698

> <Gold.Chemscore.ZeroCoef>
-5.4800

> <Gold.Chemscore.Hbond>
1.9660

> <Gold.Chemscore.Metal>
0.0000

> <Gold.Chemscore.Lipo>
94.4933

> <Gold.Chemscore.Internal_Hbond>
0.0000

> <Gold.Chemscore.DEClash>
0.0073

> <Gold.Chemscore.DEInternal>
2.3460

> <Gold.Chemscore.Rot>
1.6143

> <Gold.Chemscore.Internal.Correction>
   9.000000E+99

> <Gold.Chemscore.Hbonds>
donor molecule, donor type, donor heavy atom, donor atom, acceptor molecule, acceptor atom, score
      L1  H    16    45       P1  7948  0.98
      P1  H  7997  8009       L1    10  0.43

> <Gold.Chemscore.Hbond.Weighted>
-6.5665

> <Gold.Chemscore.Metal.Weighted>
-0.0000

> <Gold.Chemscore.Lipo.Weighted>
-11.0557

> <Gold.Chemscore.Internal_Hbond.Weighted>
0.0000

> <Gold.Chemscore.DEClash.Weighted>
0.0073

> <Gold.Chemscore.DEInternal.Weighted>
2.3460

> <Gold.Chemscore.Rot.Weighted>
4.1325

> <Gold.Chemscore.Internal.Correction.Weighted>
   9.000000E+99

> <Gold.Protein.RotatedTorsions>
[ 6907 6896 6895 6894 ] final   66.25 input  -60.11 | X-H torsion
[ 7974 7965 7964 7962 ] final  -57.69 input  175.53 | X-H torsion
[ 8008 7997 7996 7995 ] final  176.61 input   59.86 | X-H torsion
[ 10167 10162 10161 10158 ] final   -2.01 input  -65.29 | X-H torsion
[ 10718 10713 10712 10709 ] final -109.26 input   66.30 | X-H torsion
[ 10763 10752 10751 10750 ] final  102.06 input  -60.55 | X-H torsion
[ 11005 11000 10999 10996 ] final -130.49 input  -57.11 | X-H torsion

> <Gold.Protein.ActiveResidues>
 VAL166  LYS551  ARG553  GLY616  TRP617  ASP618  TYR619  PRO620  LYS621  CYS622 
 ASP623  PHE694  ASN695  SER759  ASP760  ASP761  ALA762  ILE779  LEU786  VAL792 
 PHE793  MET794  SER795  GLU796  ALA797  LYS798  CYS799  TRP800  GLU811  SER814 

> <Gold.Protein.RotatedAtoms>
  152.4467  134.5479  159.9857 H   0  0  0  0  0  0  0  0  0  0  0  0  # atno 6907 bound_to 6896
  151.5562  133.3404  159.2970 H   0  0  0  0  0  0  0  0  0  0  0  0  # atno 6908 bound_to 6896
  150.8385  134.7701  159.6976 H   0  0  0  0  0  0  0  0  0  0  0  0  # atno 6909 bound_to 6896
  145.8481  140.8371  143.0000 H   0  0  0  0  0  0  0  0  0  0  0  0  # atno 7974 bound_to 7965
  156.0747  140.1379  156.9786 H   0  0  0  0  0  0  0  0  0  0  0  0  # atno 8008 bound_to 7997
  154.4551  140.0964  156.6783 H   0  0  0  0  0  0  0  0  0  0  0  0  # atno 8009 bound_to 7997
  155.5173  140.3455  155.4402 H   0  0  0  0  0  0  0  0  0  0  0  0  # atno 8010 bound_to 7997
  140.6834  143.6707  150.8187 H   0  0  0  0  0  0  0  0  0  0  0  0  # atno 10167 bound_to 10162
  156.0528  130.5755  150.8075 H   0  0  0  0  0  0  0  0  0  0  0  0  # atno 10718 bound_to 10713
  153.3347  135.4023  155.1524 H   0  0  0  0  0  0  0  0  0  0  0  0  # atno 10763 bound_to 10752
  154.8631  135.3619  154.5424 H   0  0  0  0  0  0  0  0  0  0  0  0  # atno 10764 bound_to 10752
  153.5865  135.7075  153.5500 H   0  0  0  0  0  0  0  0  0  0  0  0  # atno 10765 bound_to 10752
  140.9341  134.1280  157.4209 H   0  0  0  0  0  0  0  0  0  0  0  0  # atno 11005 bound_to 11000
  144.6730  140.0912  143.7465 LP  0  0  0  0  0  0  0  0  0  0  0  0  # atno 17320 bound_to 7965
  145.9389  139.2655  143.1281 LP  0  0  0  0  0  0  0  0  0  0  0  0  # atno 17321 bound_to 7965
  140.0411  143.5345  152.2717 LP  0  0  0  0  0  0  0  0  0  0  0  0  # atno 17342 bound_to 10162
  139.6173  144.7622  151.2818 LP  0  0  0  0  0  0  0  0  0  0  0  0  # atno 17343 bound_to 10162
  157.5470  131.0942  150.9749 LP  0  0  0  0  0  0  0  0  0  0  0  0  # atno 17370 bound_to 10713
  157.0018  130.5603  149.5312 LP  0  0  0  0  0  0  0  0  0  0  0  0  # atno 17371 bound_to 10713
  139.8803  135.0015  156.6071 LP  0  0  0  0  0  0  0  0  0  0  0  0  # atno 17394 bound_to 11000
  140.7823  133.8650  155.8577 LP  0  0  0  0  0  0  0  0  0  0  0  0  # atno 17395 bound_to 11000

$$$$
