AV-unprocessed.smi:1934|AV-procd|sdf|7825|dock3
  -GOLD-   22720 9573D 1   1.00000     0.00000
 Structure written by MMmdl.
 46 47  0  0  0  0  0  0  0  0  2 V2000
  150.9299  141.9453  156.8538 C   0  0  0  0  0  0  0  0  0  0  0  0
  150.6382  140.8070  155.9208 C   0  0  0  0  0  0  0  0  0  0  0  0
  149.4251  140.5297  155.2265 C   0  0  0  0  0  0  0  0  0  0  0  0
  149.7276  139.3897  154.5328 C   0  0  0  0  0  0  0  0  0  0  0  0
  148.9404  138.6720  153.6875 N   0  0  0  0  0  0  0  0  0  0  0  0
  147.6010  138.6821  153.5721 C   0  0  0  0  0  0  0  0  0  0  0  0
  146.8262  139.3370  154.2699 O   0  0  0  0  0  0  0  0  0  0  0  0
  147.1931  137.8691  152.5870 N   0  0  0  0  0  0  0  0  0  0  0  0
  145.8029  137.6649  152.1972 C   0  0  0  0  0  0  0  0  0  0  0  0
  145.6133  136.3209  151.4688 C   0  0  0  0  0  0  0  0  0  0  0  0
  146.2577  135.1956  152.1910 N   0  3  1  0  0  0  0  0  0  0  0  0
  145.7178  135.0223  153.5642 C   0  0  0  0  0  0  0  0  0  0  0  0
  146.5119  133.9604  154.3411 C   0  0  0  0  0  0  0  0  0  0  0  0
  146.5314  132.6243  153.5854 C   0  0  0  0  0  0  0  0  0  0  0  0
  147.0269  132.8064  152.1386 C   0  0  2  0  0  0  0  0  0  0  0  0
  148.5460  133.0354  152.0519 C   0  0  0  0  0  0  0  0  0  0  0  0
  146.2279  133.9183  151.4273 C   0  0  0  0  0  0  0  0  0  0  0  0
  151.0310  139.0349  154.8079 N   0  0  0  0  0  0  0  0  0  0  0  0
  151.8164  137.9142  154.3270 C   0  0  0  0  0  0  0  0  0  0  0  0
  151.5875  139.9130  155.6696 N   0  0  0  0  0  0  0  0  0  0  0  0
  150.1180  142.6728  156.8542 H   0  0  0  0  0  0  0  0  0  0  0  0
  151.8420  142.4678  156.5646 H   0  0  0  0  0  0  0  0  0  0  0  0
  151.0583  141.5903  157.8764 H   0  0  0  0  0  0  0  0  0  0  0  0
  148.5021  141.0890  155.2473 H   0  0  0  0  0  0  0  0  0  0  0  0
  149.4369  138.0621  153.0549 H   0  0  0  0  0  0  0  0  0  0  0  0
  147.8940  137.3653  152.0630 H   0  0  0  0  0  0  0  0  0  0  0  0
  145.1673  137.7366  153.0804 H   0  0  0  0  0  0  0  0  0  0  0  0
  145.5124  138.4861  151.5414 H   0  0  0  0  0  0  0  0  0  0  0  0
  144.5414  136.1336  151.3881 H   0  0  0  0  0  0  0  0  0  0  0  0
  145.9940  136.3662  150.4471 H   0  0  0  0  0  0  0  0  0  0  0  0
  145.7685  135.9680  154.1051 H   0  0  0  0  0  0  0  0  0  0  0  0
  144.6639  134.7436  153.5100 H   0  0  0  0  0  0  0  0  0  0  0  0
  147.5314  134.3102  154.5064 H   0  0  0  0  0  0  0  0  0  0  0  0
  146.0742  133.8195  155.3298 H   0  0  0  0  0  0  0  0  0  0  0  0
  147.1495  131.8979  154.1144 H   0  0  0  0  0  0  0  0  0  0  0  0
  145.5218  132.2113  153.5697 H   0  0  0  0  0  0  0  0  0  0  0  0
  146.8283  131.8735  151.6096 H   0  0  0  0  0  0  0  0  0  0  0  0
  148.8474  133.9641  152.5359 H   0  0  0  0  0  0  0  0  0  0  0  0
  148.8745  133.0842  151.0133 H   0  0  0  0  0  0  0  0  0  0  0  0
  149.0923  132.2208  152.5280 H   0  0  0  0  0  0  0  0  0  0  0  0
  145.1904  133.6031  151.3043 H   0  0  0  0  0  0  0  0  0  0  0  0
  146.6259  134.0609  150.4231 H   0  0  0  0  0  0  0  0  0  0  0  0
  151.3424  137.4583  153.4578 H   0  0  0  0  0  0  0  0  0  0  0  0
  151.9073  137.1665  155.1150 H   0  0  0  0  0  0  0  0  0  0  0  0
  152.8127  138.2541  154.0418 H   0  0  0  0  0  0  0  0  0  0  0  0
  147.2289  135.4494  152.3029 H   0  0  0  0  0  0  0  0  0  0  0  0
  1  2  1  0  0  0  0
  1 21  1  0  0  0  0
  1 22  1  0  0  0  0
  1 23  1  0  0  0  0
  2 20  2  0  0  0  0
  2  3  1  0  0  0  0
  3  4  2  0  0  0  0
  3 24  1  0  0  0  0
  4  5  1  0  0  0  0
  4 18  1  0  0  0  0
  5  6  1  0  0  0  0
  5 25  1  0  0  0  0
  6  7  2  0  0  0  0
  6  8  1  0  0  0  0
  8  9  1  0  0  0  0
  8 26  1  0  0  0  0
  9 10  1  0  0  0  0
  9 27  1  0  0  0  0
  9 28  1  0  0  0  0
 10 11  1  0  0  0  0
 10 29  1  0  0  0  0
 10 30  1  0  0  0  0
 11 17  1  0  0  0  0
 11 12  1  0  0  0  0
 11 46  1  0  0  0  0
 12 13  1  0  0  0  0
 12 31  1  0  0  0  0
 12 32  1  0  0  0  0
 13 14  1  0  0  0  0
 13 33  1  0  0  0  0
 13 34  1  0  0  0  0
 14 15  1  0  0  0  0
 14 35  1  0  0  0  0
 14 36  1  0  0  0  0
 15 16  1  0  0  0  0
 15 17  1  0  0  0  0
 15 37  1  0  0  0  0
 16 38  1  0  0  0  0
 16 39  1  0  0  0  0
 16 40  1  0  0  0  0
 17 41  1  0  0  0  0
 17 42  1  0  0  0  0
 18 19  1  0  0  0  0
 18 20  1  0  0  0  0
 19 43  1  0  0  0  0
 19 44  1  0  0  0  0
 19 45  1  0  0  0  0
M  CHG  1  11   1
M  END
> <s_m_source_file>
AV-unprocessed.smi

> <i_m_source_file_index>
1934

> <i_lp_mmshare_version>
43012

> <i_f3d_flags>
0

> <s_epik_input>
W0NIM11jMVtjSF1jKG4objEpW0NIM10pW05IXUMoPU8pW05IXVtDSDJdW0NIMl1OMltDSDJdW0NIMl1bQ0gyXVtDQEBIXShbQ0gzXSlbQ0gyXTI=

> <s_epik_cmdline>
J2VwaWtfcHl0aG9uJywgJy1waCcsICc3LjAnLCAnLXRuJywgJzgnLCAnLW1hJywgJzIwMCcsICctbWV0YWxfYmluZGluZycsICctaW1hZScsICc8aW5maWxlLm1hZT4nLCAnLW9tYWUnLCAnPG91dGZpbGUubWFlPic=

> <r_lp_tautomer_probability>
1

> <r_epik_Ionization_Penalty>
0.00202955

> <r_epik_Ionization_Penalty_Charging>
0.00195276

> <r_epik_Ionization_Penalty_Neutral>
7.67968e-05

> <r_epik_State_Penalty>
0.00133177

> <r_epik_Charging_Adjusted_Penalty>
0.00328452

> <i_epik_Tot_Q>
1

> <i_epik_Tot_abs_Q>
1

> <r_epik_Metal_State_Penalty>
-0

> <b_epik_Metal_Only>
0

> <s_lp_Force_Field>
OPLS_2005

> <r_lp_Energy>
20.4325

> <b_lp_Chiralities_Consistent>
1

> <s_lp_Variant>
AV-unprocessed.smi:1934-3

> <Gold.Version>
5.8.1

> <Gold.Id.Protein>
6NUR|6NUR_protein|mol2

> <Gold.PLP.Fitness>
45.6632

> <Gold.PLP.PLP>
-35.8732

> <Gold.PLP.part.hbond>
-4.8068

> <Gold.PLP.part.metal>
0.0000

> <Gold.PLP.part.buried>
-1.5434

> <Gold.PLP.part.nonpolar>
-29.3842

> <Gold.PLP.part.repulsive>
0.2879

> <Gold.PLP.ligand.clash>
0.0000

> <Gold.PLP.ligand.torsion>
0.2841

> <Gold.PLP.Chemscore.Hbond>
3.4301

> <Gold.PLP.Chemscore.CHOScore>
0.0000

> <Gold.PLP.Chemscore.Metal>
0.0000

> <Gold.Chemscore.Hbonds>
donor molecule, donor type, donor heavy atom, donor atom, acceptor molecule, acceptor atom, score
      L1  H     5    25       P1  7948  0.43
      L1  H     8    26       P1  7948  1.00
      L1  H    11    46       P1  7948  2.00

> <Gold.PLP.Chemscore.Internal.Correction>
0.0677

> <Gold.Rescore>
     Score         DG    S(hbond)    S(metal)    S(lipo)     H(rot)  DE(clash)    DE(int)     intcor
     16.33     -17.85       2.49        0.00      67.22       1.48       0.37       1.16       ----

> <Gold.Chemscore.Fitness>
16.3294

> <Gold.Chemscore.DG>
-17.8528

> <Gold.Chemscore.ZeroCoef>
-5.4800

> <Gold.Chemscore.Hbond>
2.4871

> <Gold.Chemscore.Metal>
0.0000

> <Gold.Chemscore.Lipo>
67.2166

> <Gold.Chemscore.Internal_Hbond>
0.0000

> <Gold.Chemscore.DEClash>
0.3671

> <Gold.Chemscore.DEInternal>
1.1562

> <Gold.Chemscore.Rot>
1.4838

> <Gold.Chemscore.Internal.Correction>
   9.000000E+99

> <Gold.Chemscore.Hbonds>
donor molecule, donor type, donor heavy atom, donor atom, acceptor molecule, acceptor atom, score
      L1  H     5    25       P1  7948  0.40
      L1  H     8    26       P1  7948  0.93
      L1  H    11    46       P1  7948  0.99

> <Gold.Chemscore.Hbond.Weighted>
-8.3069

> <Gold.Chemscore.Metal.Weighted>
-0.0000

> <Gold.Chemscore.Lipo.Weighted>
-7.8643

> <Gold.Chemscore.Internal_Hbond.Weighted>
0.0000

> <Gold.Chemscore.DEClash.Weighted>
0.3671

> <Gold.Chemscore.DEInternal.Weighted>
1.1562

> <Gold.Chemscore.Rot.Weighted>
3.7985

> <Gold.Chemscore.Internal.Correction.Weighted>
   9.000000E+99

> <Gold.Protein.RotatedTorsions>
[ 6907 6896 6895 6894 ] final  -12.94 input  -60.11 | X-H torsion
[ 7974 7965 7964 7962 ] final    9.04 input  175.53 | X-H torsion
[ 8008 7997 7996 7995 ] final  -85.93 input   59.86 | X-H torsion
[ 10167 10162 10161 10158 ] final  157.68 input  -65.29 | X-H torsion
[ 10718 10713 10712 10709 ] final   62.75 input   66.30 | X-H torsion
[ 10763 10752 10751 10750 ] final -108.54 input  -60.55 | X-H torsion
[ 11005 11000 10999 10996 ] final   73.81 input  -57.11 | X-H torsion

> <Gold.Protein.ActiveResidues>
 VAL166  LYS551  ARG553  GLY616  TRP617  ASP618  TYR619  PRO620  LYS621  CYS622 
 ASP623  PHE694  ASN695  SER759  ASP760  ASP761  ALA762  ILE779  LEU786  VAL792 
 PHE793  MET794  SER795  GLU796  ALA797  LYS798  CYS799  TRP800  GLU811  SER814 

> <Gold.Protein.RotatedAtoms>
  151.3627  135.0907  159.9439 H   0  0  0  0  0  0  0  0  0  0  0  0  # atno 6907 bound_to 6896
  152.5157  133.9242  159.7560 H   0  0  0  0  0  0  0  0  0  0  0  0  # atno 6908 bound_to 6896
  150.9640  133.6360  159.2778 H   0  0  0  0  0  0  0  0  0  0  0  0  # atno 6909 bound_to 6896
  146.2408  139.9842  142.8433 H   0  0  0  0  0  0  0  0  0  0  0  0  # atno 7974 bound_to 7965
  154.6462  140.0585  156.9903 H   0  0  0  0  0  0  0  0  0  0  0  0  # atno 8008 bound_to 7997
  155.1441  140.3268  155.4427 H   0  0  0  0  0  0  0  0  0  0  0  0  # atno 8009 bound_to 7997
  156.2555  140.1959  156.6555 H   0  0  0  0  0  0  0  0  0  0  0  0  # atno 8010 bound_to 7997
  139.4824  144.4895  151.8329 H   0  0  0  0  0  0  0  0  0  0  0  0  # atno 10167 bound_to 10162
  157.5923  130.9068  149.9628 H   0  0  0  0  0  0  0  0  0  0  0  0  # atno 10718 bound_to 10713
  154.8141  135.4634  154.0596 H   0  0  0  0  0  0  0  0  0  0  0  0  # atno 10763 bound_to 10752
  153.2003  135.6868  153.8247 H   0  0  0  0  0  0  0  0  0  0  0  0  # atno 10764 bound_to 10752
  153.7734  135.3267  155.3332 H   0  0  0  0  0  0  0  0  0  0  0  0  # atno 10765 bound_to 10752
  139.9421  134.7379  156.1072 H   0  0  0  0  0  0  0  0  0  0  0  0  # atno 11005 bound_to 11000
  145.1563  140.9649  143.4403 LP  0  0  0  0  0  0  0  0  0  0  0  0  # atno 17320 bound_to 7965
  145.0158  139.3469  143.6097 LP  0  0  0  0  0  0  0  0  0  0  0  0  # atno 17321 bound_to 7965
  140.4378  144.2028  150.5890 LP  0  0  0  0  0  0  0  0  0  0  0  0  # atno 17342 bound_to 10162
  140.4714  143.2411  151.9083 LP  0  0  0  0  0  0  0  0  0  0  0  0  # atno 17343 bound_to 10162
  156.0980  130.3658  150.0271 LP  0  0  0  0  0  0  0  0  0  0  0  0  # atno 17370 bound_to 10713
  156.8391  130.9419  151.3633 LP  0  0  0  0  0  0  0  0  0  0  0  0  # atno 17371 bound_to 10713
  141.1059  133.6660  156.2864 LP  0  0  0  0  0  0  0  0  0  0  0  0  # atno 17394 bound_to 11000
  140.5925  134.5636  157.5502 LP  0  0  0  0  0  0  0  0  0  0  0  0  # atno 17395 bound_to 11000

$$$$
