AV-unprocessed.smi:1208|AV-procd|sdf|5067|dock7
  -GOLD-   22720 4113D 1   1.00000     0.00000
 Structure written by MMmdl.
 36 37  0  0  0  0  0  0  0  0  1 V2000
  151.8352  143.8909  158.5333 C   0  0  0  0  0  0  0  0  0  0  0  0
  152.2736  142.4708  158.9264 C   0  0  2  0  0  0  0  0  0  0  0  0
  151.3598  141.4908  158.3485 N   0  0  0  0  0  0  0  0  0  0  0  0
  151.7071  140.3485  157.7324 C   0  0  0  0  0  0  0  0  0  0  0  0
  152.8779  140.0113  157.5615 O   0  0  0  0  0  0  0  0  0  0  0  0
  150.5807  139.4278  157.2303 C   0  0  0  0  0  0  0  0  0  0  0  0
  149.5781  140.0892  156.3787 N   0  0  0  0  0  0  0  0  0  0  0  0
  148.5491  140.6950  157.0841 N   0  0  0  0  0  0  0  0  0  0  0  0
  147.6214  141.3313  156.4528 C   0  0  0  0  0  0  0  0  0  0  0  0
  146.6245  141.9207  157.1906 O   0  0  0  0  0  0  0  0  0  0  0  0
  147.6271  141.4243  155.0094 C   0  0  0  0  0  0  0  0  0  0  0  0
  148.6331  140.8305  154.3309 C   0  0  0  0  0  0  0  0  0  0  0  0
  149.7058  140.1075  155.0162 C   0  0  0  0  0  0  0  0  0  0  0  0
  150.6443  139.5753  154.4248 O   0  0  0  0  0  0  0  0  0  0  0  0
  152.3208  142.2862  160.4553 C   0  0  1  0  0  0  0  0  0  0  0  0
  153.7010  141.9344  161.0148 C   0  0  0  0  0  0  0  0  0  0  0  0
  153.5676  142.3806  162.4523 C   0  0  0  0  0  0  0  0  0  0  0  0
  152.7343  143.6518  162.3126 C   0  0  0  0  0  0  0  0  0  0  0  0
  151.9668  143.4960  161.1208 O   0  0  0  0  0  0  0  0  0  0  0  0
  146.0744  141.2109  157.4842 H   0  0  0  0  0  0  0  0  0  0  0  0
  152.5135  144.6394  158.9433 H   0  0  0  0  0  0  0  0  0  0  0  0
  150.8331  144.1132  158.9011 H   0  0  0  0  0  0  0  0  0  0  0  0
  151.8276  144.0167  157.4502 H   0  0  0  0  0  0  0  0  0  0  0  0
  153.2764  142.2934  158.5336 H   0  0  0  0  0  0  0  0  0  0  0  0
  150.3737  141.6871  158.4413 H   0  0  0  0  0  0  0  0  0  0  0  0
  151.0288  138.5816  156.7072 H   0  0  0  0  0  0  0  0  0  0  0  0
  150.0889  138.9957  158.1035 H   0  0  0  0  0  0  0  0  0  0  0  0
  146.8412  141.9567  154.4941 H   0  0  0  0  0  0  0  0  0  0  0  0
  148.6497  140.8911  153.2529 H   0  0  0  0  0  0  0  0  0  0  0  0
  151.6108  141.5164  160.7630 H   0  0  0  0  0  0  0  0  0  0  0  0
  153.9449  140.8758  160.9180 H   0  0  0  0  0  0  0  0  0  0  0  0
  154.4787  142.5130  160.5143 H   0  0  0  0  0  0  0  0  0  0  0  0
  153.0187  141.6320  163.0251 H   0  0  0  0  0  0  0  0  0  0  0  0
  154.5270  142.5503  162.9415 H   0  0  0  0  0  0  0  0  0  0  0  0
  152.0929  143.8209  163.1777 H   0  0  0  0  0  0  0  0  0  0  0  0
  153.3804  144.5226  162.1950 H   0  0  0  0  0  0  0  0  0  0  0  0
  1  2  1  0  0  0  0
  1 21  1  0  0  0  0
  1 22  1  0  0  0  0
  1 23  1  0  0  0  0
  2  3  1  0  0  0  0
  2 15  1  0  0  0  0
  2 24  1  0  0  0  0
  3  4  1  0  0  0  0
  3 25  1  0  0  0  0
  4  5  2  0  0  0  0
  4  6  1  0  0  0  0
  6 26  1  0  0  0  0
  6 27  1  0  0  0  0
  6  7  1  0  0  0  0
  7  8  1  0  0  0  0
  7 13  1  0  0  0  0
  8  9  2  0  0  0  0
  9 10  1  0  0  0  0
  9 11  1  0  0  0  0
 10 20  1  0  0  0  0
 11 28  1  0  0  0  0
 11 12  2  0  0  0  0
 12 29  1  0  0  0  0
 12 13  1  0  0  0  0
 13 14  2  0  0  0  0
 15 19  1  0  0  0  0
 15 16  1  0  0  0  0
 15 30  1  0  0  0  0
 16 17  1  0  0  0  0
 16 31  1  0  0  0  0
 16 32  1  0  0  0  0
 17 18  1  0  0  0  0
 17 33  1  0  0  0  0
 17 34  1  0  0  0  0
 18 19  1  0  0  0  0
 18 35  1  0  0  0  0
 18 36  1  0  0  0  0
M  END
> <s_m_source_file>
AV-unprocessed.smi

> <i_m_source_file_index>
1208

> <i_lp_mmshare_version>
43012

> <i_f3d_flags>
0

> <s_epik_input>
TzFbQ0gyXVtDSDJdW0NIMl1bQ0BIXTFbQ0BIXShbQ0gzXSlbTkhdQyg9TylbQ0gyXW4yW25IXWMoPU8pW2NIXVtjSF1jMj1P

> <s_epik_cmdline>
J2VwaWtfcHl0aG9uJywgJy1waCcsICc3LjAnLCAnLXRuJywgJzgnLCAnLW1hJywgJzIwMCcsICctbWV0YWxfYmluZGluZycsICctaW1hZScsICc8aW5maWxlLm1hZT4nLCAnLW9tYWUnLCAnPG91dGZpbGUubWFlPic=

> <r_lp_tautomer_probability>
0.9996

> <r_epik_Ionization_Penalty>
2.12735

> <r_epik_Ionization_Penalty_Charging>
3.86665e-08

> <r_epik_Ionization_Penalty_Neutral>
2.12735

> <r_epik_State_Penalty>
1.70441

> <r_epik_Charging_Adjusted_Penalty>
1.70441

> <i_epik_Tot_Q>
0

> <i_epik_Tot_abs_Q>
0

> <r_epik_Metal_State_Penalty>
1.70441

> <b_epik_Metal_Only>
0

> <s_lp_Force_Field>
OPLS_2005

> <r_lp_Energy>
27.2877

> <b_lp_Chiralities_Consistent>
1

> <s_lp_Variant>
AV-unprocessed.smi:1208-7

> <Gold.Version>
5.8.1

> <Gold.Id.Protein>
6NUR|6NUR_protein|mol2

> <Gold.PLP.Fitness>
40.1761

> <Gold.PLP.PLP>
-38.4574

> <Gold.PLP.part.hbond>
-2.2920

> <Gold.PLP.part.metal>
0.0000

> <Gold.PLP.part.buried>
-2.9103

> <Gold.PLP.part.nonpolar>
-32.9255

> <Gold.PLP.part.repulsive>
0.3880

> <Gold.PLP.ligand.clash>
0.0000

> <Gold.PLP.ligand.torsion>
2.1477

> <Gold.PLP.Chemscore.Hbond>
2.0000

> <Gold.PLP.Chemscore.CHOScore>
0.0000

> <Gold.PLP.Chemscore.Metal>
0.0000

> <Gold.Chemscore.Hbonds>
donor molecule, donor type, donor heavy atom, donor atom, acceptor molecule, acceptor atom, score
      P1  H  7989  7998       L1    14  1.00
      P1  H  7997  8009       L1     5  1.00

> <Gold.PLP.Chemscore.Internal.Correction>
0.0141

> <Gold.Rescore>
     Score         DG    S(hbond)    S(metal)    S(lipo)     H(rot)  DE(clash)    DE(int)     intcor
     13.47     -15.55       1.97        0.00      87.19       2.63       0.01       2.07       ----

> <Gold.Chemscore.Fitness>
13.4672

> <Gold.Chemscore.DG>
-15.5473

> <Gold.Chemscore.ZeroCoef>
-5.4800

> <Gold.Chemscore.Hbond>
1.9729

> <Gold.Chemscore.Metal>
0.0000

> <Gold.Chemscore.Lipo>
87.1914

> <Gold.Chemscore.Internal_Hbond>
0.0000

> <Gold.Chemscore.DEClash>
0.0067

> <Gold.Chemscore.DEInternal>
2.0734

> <Gold.Chemscore.Rot>
2.6264

> <Gold.Chemscore.Internal.Correction>
   9.000000E+99

> <Gold.Chemscore.Hbonds>
donor molecule, donor type, donor heavy atom, donor atom, acceptor molecule, acceptor atom, score
      P1  H  7989  7998       L1    14  0.74
      P1  H  7997  8009       L1     5  0.98

> <Gold.Chemscore.Hbond.Weighted>
-6.5896

> <Gold.Chemscore.Metal.Weighted>
-0.0000

> <Gold.Chemscore.Lipo.Weighted>
-10.2014

> <Gold.Chemscore.Internal_Hbond.Weighted>
0.0000

> <Gold.Chemscore.DEClash.Weighted>
0.0067

> <Gold.Chemscore.DEInternal.Weighted>
2.0734

> <Gold.Chemscore.Rot.Weighted>
6.7237

> <Gold.Chemscore.Internal.Correction.Weighted>
   9.000000E+99

> <Gold.Protein.RotatedTorsions>
[ 6907 6896 6895 6894 ] final  130.25 input  -60.11 | X-H torsion
[ 7974 7965 7964 7962 ] final   21.65 input  175.53 | X-H torsion
[ 8008 7997 7996 7995 ] final  164.21 input   59.86 | X-H torsion
[ 10167 10162 10161 10158 ] final  -49.37 input  -65.29 | X-H torsion
[ 10718 10713 10712 10709 ] final  166.60 input   66.30 | X-H torsion
[ 10763 10752 10751 10750 ] final  -74.49 input  -60.55 | X-H torsion
[ 11005 11000 10999 10996 ] final -143.96 input  -57.11 | X-H torsion

> <Gold.Protein.ActiveResidues>
 VAL166  LYS551  ARG553  GLY616  TRP617  ASP618  TYR619  PRO620  LYS621  CYS622 
 ASP623  PHE694  ASN695  SER759  ASP760  ASP761  ALA762  ILE779  LEU786  VAL792 
 PHE793  MET794  SER795  GLU796  ALA797  LYS798  CYS799  TRP800  GLU811  SER814 

> <Gold.Protein.RotatedAtoms>
  152.3545  133.6220  159.5968 H   0  0  0  0  0  0  0  0  0  0  0  0  # atno 6907 bound_to 6896
  150.7559  133.9522  159.3498 H   0  0  0  0  0  0  0  0  0  0  0  0  # atno 6908 bound_to 6896
  151.7369  135.0863  160.0360 H   0  0  0  0  0  0  0  0  0  0  0  0  # atno 6909 bound_to 6896
  146.2062  139.7997  142.8724 H   0  0  0  0  0  0  0  0  0  0  0  0  # atno 7974 bound_to 7965
  156.1897  140.1703  156.8115 H   0  0  0  0  0  0  0  0  0  0  0  0  # atno 8008 bound_to 7997
  154.5457  140.0727  156.8616 H   0  0  0  0  0  0  0  0  0  0  0  0  # atno 8009 bound_to 7997
  155.3127  140.3368  155.4246 H   0  0  0  0  0  0  0  0  0  0  0  0  # atno 8010 bound_to 7997
  140.6688  143.2700  151.4205 H   0  0  0  0  0  0  0  0  0  0  0  0  # atno 10167 bound_to 10162
  157.0635  131.0346  151.2638 H   0  0  0  0  0  0  0  0  0  0  0  0  # atno 10718 bound_to 10713
  154.4739  135.5862  153.6341 H   0  0  0  0  0  0  0  0  0  0  0  0  # atno 10763 bound_to 10752
  152.9838  135.6073  154.3332 H   0  0  0  0  0  0  0  0  0  0  0  0  # atno 10764 bound_to 10752
  154.3217  135.2843  155.2495 H   0  0  0  0  0  0  0  0  0  0  0  0  # atno 10765 bound_to 10752
  140.8072  134.2787  157.4955 H   0  0  0  0  0  0  0  0  0  0  0  0  # atno 11005 bound_to 11000
  145.3309  141.0266  143.3447 LP  0  0  0  0  0  0  0  0  0  0  0  0  # atno 17320 bound_to 7965
  144.8799  139.4918  143.6728 LP  0  0  0  0  0  0  0  0  0  0  0  0  # atno 17321 bound_to 7965
  139.5948  144.1422  152.2130 LP  0  0  0  0  0  0  0  0  0  0  0  0  # atno 17342 bound_to 10162
  140.0788  144.5718  150.7138 LP  0  0  0  0  0  0  0  0  0  0  0  0  # atno 17343 bound_to 10162
  157.4935  130.7836  149.7532 LP  0  0  0  0  0  0  0  0  0  0  0  0  # atno 17370 bound_to 10713
  155.9971  130.3902  150.2753 LP  0  0  0  0  0  0  0  0  0  0  0  0  # atno 17371 bound_to 10713
  139.8717  134.9463  156.3934 LP  0  0  0  0  0  0  0  0  0  0  0  0  # atno 17394 bound_to 11000
  140.9234  133.7629  155.9935 LP  0  0  0  0  0  0  0  0  0  0  0  0  # atno 17395 bound_to 11000

$$$$
