AV-unprocessed.smi:2432|AV-procd|sdf|9588|dock9
  -GOLD-   2272013223D 1   1.00000     0.00000
 Structure written by MMmdl.
 33 34  0  0  0  0  0  0  0  0  1 V2000
  146.3023  142.5076  154.1206 C   0  0  0  0  0  0  0  0  0  0  0  0
  147.6901  142.2969  154.5017 N   0  0  0  0  0  0  0  0  0  0  0  0
  148.2830  141.0957  154.5709 C   0  0  0  0  0  0  0  0  0  0  0  0
  147.6937  140.0446  154.3159 O   0  0  0  0  0  0  0  0  0  0  0  0
  149.7523  141.0839  155.0163 C   0  0  1  0  0  0  0  0  0  0  0  0
  149.9617  141.7400  156.3999 C   0  0  0  0  0  0  0  0  0  0  0  0
  151.3540  141.6235  156.8141 N   0  0  0  0  0  0  0  0  0  0  0  0
  151.7506  142.3947  157.8903 C   0  0  0  0  0  0  0  0  0  0  0  0
  151.4494  143.6986  157.8620 N   0  0  0  0  0  0  0  0  0  0  0  0
  151.8440  144.4398  158.9200 C   0  0  0  0  0  0  0  0  0  0  0  0
  152.5406  143.8725  160.0060 C   0  0  0  0  0  0  0  0  0  0  0  0
  152.8006  142.4883  159.9234 C   0  0  0  0  0  0  0  0  0  0  0  0
  153.5415  141.7540  161.0206 C   0  0  0  0  0  0  0  0  0  0  0  0
  152.4021  141.7516  158.8632 N   0  0  0  0  0  0  0  0  0  0  0  0
  151.8316  140.2481  156.7844 C   0  0  0  0  0  0  0  0  0  0  0  0
  151.5859  139.6316  155.3981 C   0  0  0  0  0  0  0  0  0  0  0  0
  150.2035  139.7298  155.0715 O   0  0  0  0  0  0  0  0  0  0  0  0
  146.0435  143.5610  154.2258 H   0  0  0  0  0  0  0  0  0  0  0  0
  145.6312  141.9272  154.7551 H   0  0  0  0  0  0  0  0  0  0  0  0
  146.1383  142.2170  153.0823 H   0  0  0  0  0  0  0  0  0  0  0  0
  148.2401  143.1141  154.7247 H   0  0  0  0  0  0  0  0  0  0  0  0
  150.3281  141.6234  154.2619 H   0  0  0  0  0  0  0  0  0  0  0  0
  149.6857  142.7950  156.3625 H   0  0  0  0  0  0  0  0  0  0  0  0
  149.3231  141.2664  157.1474 H   0  0  0  0  0  0  0  0  0  0  0  0
  151.6024  145.4922  158.9003 H   0  0  0  0  0  0  0  0  0  0  0  0
  152.8555  144.4682  160.8501 H   0  0  0  0  0  0  0  0  0  0  0  0
  153.8536  142.4373  161.8108 H   0  0  0  0  0  0  0  0  0  0  0  0
  154.4318  141.2692  160.6187 H   0  0  0  0  0  0  0  0  0  0  0  0
  152.9029  140.9892  161.4632 H   0  0  0  0  0  0  0  0  0  0  0  0
  152.8952  140.2213  157.0237 H   0  0  0  0  0  0  0  0  0  0  0  0
  151.3139  139.6688  157.5500 H   0  0  0  0  0  0  0  0  0  0  0  0
  152.1873  140.1314  154.6368 H   0  0  0  0  0  0  0  0  0  0  0  0
  151.8774  138.5812  155.3964 H   0  0  0  0  0  0  0  0  0  0  0  0
  1  2  1  0  0  0  0
  1 18  1  0  0  0  0
  1 19  1  0  0  0  0
  1 20  1  0  0  0  0
  2  3  1  0  0  0  0
  2 21  1  0  0  0  0
  3  4  2  0  0  0  0
  3  5  1  0  0  0  0
  5 17  1  0  0  0  0
  5  6  1  0  0  0  0
  5 22  1  0  0  0  0
  6  7  1  0  0  0  0
  6 23  1  0  0  0  0
  6 24  1  0  0  0  0
  7  8  1  0  0  0  0
  7 15  1  0  0  0  0
  8 14  1  0  0  0  0
  8  9  2  0  0  0  0
  9 10  1  0  0  0  0
 10 11  2  0  0  0  0
 10 25  1  0  0  0  0
 11 12  1  0  0  0  0
 11 26  1  0  0  0  0
 12 13  1  0  0  0  0
 12 14  2  0  0  0  0
 13 27  1  0  0  0  0
 13 28  1  0  0  0  0
 13 29  1  0  0  0  0
 15 16  1  0  0  0  0
 15 30  1  0  0  0  0
 15 31  1  0  0  0  0
 16 17  1  0  0  0  0
 16 32  1  0  0  0  0
 16 33  1  0  0  0  0
M  END
> <s_m_source_file>
AV-unprocessed.smi

> <i_m_source_file_index>
2432

> <i_lp_mmshare_version>
43012

> <i_f3d_flags>
0

> <s_epik_input>
W0NIM11bTkhdQyg9TylbQ0BASF0xW0NIMl1OKFtDSDJdW0NIMl1PMSljMm5bY0hdW2NIXWMobjIpW0NIM10=

> <s_epik_cmdline>
J2VwaWtfcHl0aG9uJywgJy1waCcsICc3LjAnLCAnLXRuJywgJzgnLCAnLW1hJywgJzIwMCcsICctbWV0YWxfYmluZGluZycsICctaW1hZScsICc8aW5maWxlLm1hZT4nLCAnLW9tYWUnLCAnPG91dGZpbGUubWFlPic=

> <r_lp_tautomer_probability>
1

> <r_epik_Ionization_Penalty>
3.16085e-05

> <r_epik_Ionization_Penalty_Charging>
0

> <r_epik_Ionization_Penalty_Neutral>
3.16085e-05

> <r_epik_State_Penalty>
-0

> <r_epik_Charging_Adjusted_Penalty>
0

> <i_epik_Tot_Q>
0

> <i_epik_Tot_abs_Q>
0

> <r_epik_Metal_State_Penalty>
-0

> <b_epik_Metal_Only>
0

> <s_lp_Force_Field>
OPLS_2005

> <r_lp_Energy>
12.5177

> <b_lp_Chiralities_Consistent>
1

> <s_lp_Variant>
AV-unprocessed.smi:2432-2

> <Gold.Version>
5.8.1

> <Gold.Id.Protein>
6NUR|6NUR_protein|mol2

> <Gold.PLP.Fitness>
39.8936

> <Gold.PLP.PLP>
-36.9080

> <Gold.PLP.part.hbond>
-1.0000

> <Gold.PLP.part.metal>
0.0000

> <Gold.PLP.part.buried>
-4.4469

> <Gold.PLP.part.nonpolar>
-31.4790

> <Gold.PLP.part.repulsive>
0.5143

> <Gold.PLP.ligand.clash>
0.0000

> <Gold.PLP.ligand.torsion>
0.1507

> <Gold.PLP.Chemscore.Hbond>
1.0000

> <Gold.PLP.Chemscore.CHOScore>
0.0000

> <Gold.PLP.Chemscore.Metal>
0.0000

> <Gold.Chemscore.Hbonds>
donor molecule, donor type, donor heavy atom, donor atom, acceptor molecule, acceptor atom, score
      L1  H     2    21       P1  8028  1.00

> <Gold.PLP.Chemscore.Internal.Correction>
0.2870

> <Gold.Rescore>
     Score         DG    S(hbond)    S(metal)    S(lipo)     H(rot)  DE(clash)    DE(int)     intcor
     14.76     -14.99       0.99        0.00      81.77       1.31       0.03       0.20       ----

> <Gold.Chemscore.Fitness>
14.7604

> <Gold.Chemscore.DG>
-14.9906

> <Gold.Chemscore.ZeroCoef>
-5.4800

> <Gold.Chemscore.Hbond>
0.9863

> <Gold.Chemscore.Metal>
0.0000

> <Gold.Chemscore.Lipo>
81.7700

> <Gold.Chemscore.Internal_Hbond>
0.0000

> <Gold.Chemscore.DEClash>
0.0320

> <Gold.Chemscore.DEInternal>
0.1982

> <Gold.Chemscore.Rot>
1.3089

> <Gold.Chemscore.Internal.Correction>
   9.000000E+99

> <Gold.Chemscore.Hbonds>
donor molecule, donor type, donor heavy atom, donor atom, acceptor molecule, acceptor atom, score
      L1  H     2    21       P1  8028  0.98

> <Gold.Chemscore.Hbond.Weighted>
-3.2944

> <Gold.Chemscore.Metal.Weighted>
-0.0000

> <Gold.Chemscore.Lipo.Weighted>
-9.5671

> <Gold.Chemscore.Internal_Hbond.Weighted>
0.0000

> <Gold.Chemscore.DEClash.Weighted>
0.0320

> <Gold.Chemscore.DEInternal.Weighted>
0.1982

> <Gold.Chemscore.Rot.Weighted>
3.3509

> <Gold.Chemscore.Internal.Correction.Weighted>
   9.000000E+99

> <Gold.Protein.RotatedTorsions>
[ 6907 6896 6895 6894 ] final   80.20 input  -60.11 | X-H torsion
[ 7974 7965 7964 7962 ] final   50.14 input  175.53 | X-H torsion
[ 8008 7997 7996 7995 ] final -102.58 input   59.86 | X-H torsion
[ 10167 10162 10161 10158 ] final -154.87 input  -65.29 | X-H torsion
[ 10718 10713 10712 10709 ] final -165.66 input   66.30 | X-H torsion
[ 10763 10752 10751 10750 ] final  126.04 input  -60.55 | X-H torsion
[ 11005 11000 10999 10996 ] final  124.56 input  -57.11 | X-H torsion

> <Gold.Protein.ActiveResidues>
 VAL166  LYS551  ARG553  GLY616  TRP617  ASP618  TYR619  PRO620  LYS621  CYS622 
 ASP623  PHE694  ASN695  SER759  ASP760  ASP761  ALA762  ILE779  LEU786  VAL792 
 PHE793  MET794  SER795  GLU796  ALA797  LYS798  CYS799  TRP800  GLU811  SER814 

> <Gold.Protein.RotatedAtoms>
  152.5226  134.3395  159.9211 H   0  0  0  0  0  0  0  0  0  0  0  0  # atno 6907 bound_to 6896
  151.3344  133.3981  159.2673 H   0  0  0  0  0  0  0  0  0  0  0  0  # atno 6908 bound_to 6896
  150.9854  134.9218  159.7926 H   0  0  0  0  0  0  0  0  0  0  0  0  # atno 6909 bound_to 6896
  146.0041  139.4471  142.9997 H   0  0  0  0  0  0  0  0  0  0  0  0  # atno 7974 bound_to 7965
  154.8587  140.0427  157.1651 H   0  0  0  0  0  0  0  0  0  0  0  0  # atno 8008 bound_to 7997
  154.8863  140.2980  155.5375 H   0  0  0  0  0  0  0  0  0  0  0  0  # atno 8009 bound_to 7997
  156.2998  140.2402  156.3873 H   0  0  0  0  0  0  0  0  0  0  0  0  # atno 8010 bound_to 7997
  139.6978  143.9314  152.2415 H   0  0  0  0  0  0  0  0  0  0  0  0  # atno 10167 bound_to 10162
  156.6567  130.9029  151.3022 H   0  0  0  0  0  0  0  0  0  0  0  0  # atno 10718 bound_to 10713
  153.6869  135.3305  155.3192 H   0  0  0  0  0  0  0  0  0  0  0  0  # atno 10763 bound_to 10752
  154.8451  135.4422  154.1549 H   0  0  0  0  0  0  0  0  0  0  0  0  # atno 10764 bound_to 10752
  153.2580  135.6988  153.7686 H   0  0  0  0  0  0  0  0  0  0  0  0  # atno 10765 bound_to 10752
  139.9364  134.9639  156.8428 H   0  0  0  0  0  0  0  0  0  0  0  0  # atno 11005 bound_to 11000
  145.7443  140.9996  143.1284 LP  0  0  0  0  0  0  0  0  0  0  0  0  # atno 17320 bound_to 7965
  144.6929  139.9137  143.7464 LP  0  0  0  0  0  0  0  0  0  0  0  0  # atno 17321 bound_to 7965
  139.9148  144.6835  150.8524 LP  0  0  0  0  0  0  0  0  0  0  0  0  # atno 17342 bound_to 10162
  140.7701  143.3417  151.2194 LP  0  0  0  0  0  0  0  0  0  0  0  0  # atno 17343 bound_to 10162
  157.7123  130.9455  150.1132 LP  0  0  0  0  0  0  0  0  0  0  0  0  # atno 17370 bound_to 10713
  156.2042  130.3662  149.8750 LP  0  0  0  0  0  0  0  0  0  0  0  0  # atno 17371 bound_to 10713
  140.6063  134.0124  155.7558 LP  0  0  0  0  0  0  0  0  0  0  0  0  # atno 17394 bound_to 11000
  141.0980  133.9813  157.3127 LP  0  0  0  0  0  0  0  0  0  0  0  0  # atno 17395 bound_to 11000

$$$$
