AV-unprocessed.smi:2215|AV-procd|sdf|8961|dock4
  -GOLD-   2272012183D 1   1.00000     0.00000
 Structure written by MMmdl.
 40 41  0  0  0  0  0  0  0  0  1 V2000
  151.2391  141.3680  157.0201 C   0  0  0  0  0  0  0  0  0  0  0  0
  150.3913  140.4293  156.1872 C   0  0  0  0  0  0  0  0  0  0  0  0
  150.9736  139.3646  155.4741 C   0  0  0  0  0  0  0  0  0  0  0  0
  150.1398  138.5162  154.7204 C   0  0  0  0  0  0  0  0  0  0  0  0
  148.7463  138.7500  154.6978 C   0  0  0  0  0  0  0  0  0  0  0  0
  147.9957  137.8306  153.9170 N   0  0  0  0  0  0  0  0  0  0  0  0
  146.7007  137.4917  154.0462 C   0  0  0  0  0  0  0  0  0  0  0  0
  145.9130  137.9789  154.8577 O   0  0  0  0  0  0  0  0  0  0  0  0
  146.3592  136.5405  153.1649 N   0  0  0  0  0  0  0  0  0  0  0  0
  145.0345  135.9385  153.0492 C   0  0  0  0  0  0  0  0  0  0  0  0
  144.9985  134.7615  152.0477 C   0  0  1  0  0  0  0  0  0  0  0  0
  146.3833  134.1085  151.8320 C   0  0  0  0  0  0  0  0  0  0  0  0
  146.3184  132.9669  150.8044 C   0  0  0  0  0  0  0  0  0  0  0  0
  145.2783  131.9101  151.2045 C   0  0  0  0  0  0  0  0  0  0  0  0
  143.8933  132.5439  151.4195 C   0  0  0  0  0  0  0  0  0  0  0  0
  143.9373  133.7017  152.4354 C   0  0  1  0  0  0  0  0  0  0  0  0
  144.1850  133.1759  153.7264 O   0  0  0  0  0  0  0  0  0  0  0  0
  148.1946  139.7794  155.3879 N   0  0  0  0  0  0  0  0  0  0  0  0
  148.9945  140.5923  156.1097 C   0  0  0  0  0  0  0  0  0  0  0  0
  152.2702  141.3816  156.6656 H   0  0  0  0  0  0  0  0  0  0  0  0
  151.2383  141.0498  158.0627 H   0  0  0  0  0  0  0  0  0  0  0  0
  150.8503  142.3856  156.9701 H   0  0  0  0  0  0  0  0  0  0  0  0
  152.0402  139.1973  155.5029 H   0  0  0  0  0  0  0  0  0  0  0  0
  150.5705  137.6934  154.1682 H   0  0  0  0  0  0  0  0  0  0  0  0
  148.5118  137.3585  153.1892 H   0  0  0  0  0  0  0  0  0  0  0  0
  147.0684  136.1998  152.5323 H   0  0  0  0  0  0  0  0  0  0  0  0
  144.7415  135.5972  154.0422 H   0  0  0  0  0  0  0  0  0  0  0  0
  144.3087  136.7015  152.7627 H   0  0  0  0  0  0  0  0  0  0  0  0
  144.6873  135.1712  151.0852 H   0  0  0  0  0  0  0  0  0  0  0  0
  147.1035  134.8510  151.4877 H   0  0  0  0  0  0  0  0  0  0  0  0
  146.7657  133.7272  152.7796 H   0  0  0  0  0  0  0  0  0  0  0  0
  146.0672  133.3730  149.8238 H   0  0  0  0  0  0  0  0  0  0  0  0
  147.2995  132.5019  150.7035 H   0  0  0  0  0  0  0  0  0  0  0  0
  145.2175  131.1395  150.4356 H   0  0  0  0  0  0  0  0  0  0  0  0
  145.6010  131.4079  152.1175 H   0  0  0  0  0  0  0  0  0  0  0  0
  143.5240  132.9214  150.4653 H   0  0  0  0  0  0  0  0  0  0  0  0
  143.1798  131.7844  151.7414 H   0  0  0  0  0  0  0  0  0  0  0  0
  142.9549  134.1745  152.4671 H   0  0  0  0  0  0  0  0  0  0  0  0
  143.9922  132.2510  153.7158 H   0  0  0  0  0  0  0  0  0  0  0  0
  148.5036  141.3936  156.6426 H   0  0  0  0  0  0  0  0  0  0  0  0
  1  2  1  0  0  0  0
  1 20  1  0  0  0  0
  1 21  1  0  0  0  0
  1 22  1  0  0  0  0
  2 19  1  0  0  0  0
  2  3  2  0  0  0  0
  3  4  1  0  0  0  0
  3 23  1  0  0  0  0
  4  5  2  0  0  0  0
  4 24  1  0  0  0  0
  5  6  1  0  0  0  0
  5 18  1  0  0  0  0
  6  7  1  0  0  0  0
  6 25  1  0  0  0  0
  7  8  2  0  0  0  0
  7  9  1  0  0  0  0
  9 10  1  0  0  0  0
  9 26  1  0  0  0  0
 10 11  1  0  0  0  0
 10 27  1  0  0  0  0
 10 28  1  0  0  0  0
 11 16  1  0  0  0  0
 11 12  1  0  0  0  0
 11 29  1  0  0  0  0
 12 13  1  0  0  0  0
 12 30  1  0  0  0  0
 12 31  1  0  0  0  0
 13 14  1  0  0  0  0
 13 32  1  0  0  0  0
 13 33  1  0  0  0  0
 14 15  1  0  0  0  0
 14 34  1  0  0  0  0
 14 35  1  0  0  0  0
 15 16  1  0  0  0  0
 15 36  1  0  0  0  0
 15 37  1  0  0  0  0
 16 17  1  0  0  0  0
 16 38  1  0  0  0  0
 17 39  1  0  0  0  0
 18 19  2  0  0  0  0
 19 40  1  0  0  0  0
M  END
> <s_m_source_file>
AV-unprocessed.smi

> <i_m_source_file_index>
2215

> <i_lp_mmshare_version>
43012

> <i_f3d_flags>
0

> <s_epik_input>
W0NIM11jMVtjSF1bY0hdYyhuW2NIXTEpW05IXUMoPU8pW05IXVtDSDJdW0NAQEhdMltDSDJdW0NIMl1bQ0gyXVtDSDJdW0NASF0yW09IXQ==

> <s_epik_cmdline>
J2VwaWtfcHl0aG9uJywgJy1waCcsICc3LjAnLCAnLXRuJywgJzgnLCAnLW1hJywgJzIwMCcsICctbWV0YWxfYmluZGluZycsICctaW1hZScsICc8aW5maWxlLm1hZT4nLCAnLW9tYWUnLCAnPG91dGZpbGUubWFlPic=

> <r_lp_tautomer_probability>
1

> <r_epik_Ionization_Penalty>
6.08491e-05

> <r_epik_Ionization_Penalty_Charging>
0

> <r_epik_Ionization_Penalty_Neutral>
6.08491e-05

> <r_epik_State_Penalty>
-0

> <r_epik_Charging_Adjusted_Penalty>
0

> <i_epik_Tot_Q>
0

> <i_epik_Tot_abs_Q>
0

> <r_epik_Metal_State_Penalty>
-0

> <b_epik_Metal_Only>
0

> <s_lp_Force_Field>
OPLS_2005

> <r_lp_Energy>
16.7167

> <b_lp_Chiralities_Consistent>
1

> <s_lp_Variant>
AV-unprocessed.smi:2215-2

> <Gold.Version>
5.8.1

> <Gold.Id.Protein>
6NUR|6NUR_protein|mol2

> <Gold.PLP.Fitness>
44.8277

> <Gold.PLP.PLP>
-34.0980

> <Gold.PLP.part.hbond>
-3.0736

> <Gold.PLP.part.metal>
0.0000

> <Gold.PLP.part.buried>
-4.9378

> <Gold.PLP.part.nonpolar>
-27.1588

> <Gold.PLP.part.repulsive>
1.1550

> <Gold.PLP.ligand.clash>
0.0000

> <Gold.PLP.ligand.torsion>
0.5932

> <Gold.PLP.Chemscore.Hbond>
2.9680

> <Gold.PLP.Chemscore.CHOScore>
1.0000

> <Gold.PLP.Chemscore.Metal>
0.0000

> <Gold.Chemscore.Hbonds>
donor molecule, donor type, donor heavy atom, donor atom, acceptor molecule, acceptor atom, score
      L1  H     6    25       P1  7948  1.00
      L1  H     9    26       P1  7948  1.00
      L1  H    17    39       P1 10957  0.27

> <Gold.PLP.Chemscore.Internal.Correction>
0.0121

> <Gold.Rescore>
     Score         DG    S(hbond)    S(metal)    S(lipo)     H(rot)  DE(clash)    DE(int)     intcor
     17.22     -19.02       2.93        0.00      69.95       1.73       0.00       1.80       ----

> <Gold.Chemscore.Fitness>
17.2189

> <Gold.Chemscore.DG>
-19.0213

> <Gold.Chemscore.ZeroCoef>
-5.4800

> <Gold.Chemscore.Hbond>
2.9331

> <Gold.Chemscore.Metal>
0.0000

> <Gold.Chemscore.Lipo>
69.9450

> <Gold.Chemscore.Internal_Hbond>
0.0000

> <Gold.Chemscore.DEClash>
0.0029

> <Gold.Chemscore.DEInternal>
1.7996

> <Gold.Chemscore.Rot>
1.7339

> <Gold.Chemscore.Internal.Correction>
   9.000000E+99

> <Gold.Chemscore.Hbonds>
donor molecule, donor type, donor heavy atom, donor atom, acceptor molecule, acceptor atom, score
      L1  H     6    25       P1  7948  1.00
      L1  H     9    26       P1  7948  0.92
      L1  H    17    39       P1 10957  0.05

> <Gold.Chemscore.Hbond.Weighted>
-9.7964

> <Gold.Chemscore.Metal.Weighted>
-0.0000

> <Gold.Chemscore.Lipo.Weighted>
-8.1836

> <Gold.Chemscore.Internal_Hbond.Weighted>
0.0000

> <Gold.Chemscore.DEClash.Weighted>
0.0029

> <Gold.Chemscore.DEInternal.Weighted>
1.7996

> <Gold.Chemscore.Rot.Weighted>
4.4387

> <Gold.Chemscore.Internal.Correction.Weighted>
   9.000000E+99

> <Gold.Protein.RotatedTorsions>
[ 6907 6896 6895 6894 ] final   86.80 input  -60.11 | X-H torsion
[ 7974 7965 7964 7962 ] final   69.97 input  175.53 | X-H torsion
[ 8008 7997 7996 7995 ] final  -26.75 input   59.86 | X-H torsion
[ 10167 10162 10161 10158 ] final   71.63 input  -65.29 | X-H torsion
[ 10718 10713 10712 10709 ] final   19.03 input   66.30 | X-H torsion
[ 10763 10752 10751 10750 ] final  -33.66 input  -60.55 | X-H torsion
[ 11005 11000 10999 10996 ] final  -42.65 input  -57.11 | X-H torsion

> <Gold.Protein.ActiveResidues>
 VAL166  LYS551  ARG553  GLY616  TRP617  ASP618  TYR619  PRO620  LYS621  CYS622 
 ASP623  PHE694  ASN695  SER759  ASP760  ASP761  ALA762  ILE779  LEU786  VAL792 
 PHE793  MET794  SER795  GLU796  ALA797  LYS798  CYS799  TRP800  GLU811  SER814 

> <Gold.Protein.RotatedAtoms>
  152.5400  134.2375  159.8848 H   0  0  0  0  0  0  0  0  0  0  0  0  # atno 6907 bound_to 6896
  151.2344  133.4426  159.2612 H   0  0  0  0  0  0  0  0  0  0  0  0  # atno 6908 bound_to 6896
  151.0685  134.9796  159.8352 H   0  0  0  0  0  0  0  0  0  0  0  0  # atno 6909 bound_to 6896
  145.7839  139.2901  143.1250 H   0  0  0  0  0  0  0  0  0  0  0  0  # atno 7974 bound_to 7965
  154.4410  140.1891  156.0825 H   0  0  0  0  0  0  0  0  0  0  0  0  # atno 8008 bound_to 7997
  156.0428  140.3318  155.7236 H   0  0  0  0  0  0  0  0  0  0  0  0  # atno 8009 bound_to 7997
  155.5674  140.0609  157.2805 H   0  0  0  0  0  0  0  0  0  0  0  0  # atno 8010 bound_to 7997
  140.0440  144.5366  150.7412 H   0  0  0  0  0  0  0  0  0  0  0  0  # atno 10167 bound_to 10162
  157.1047  130.6483  149.5881 H   0  0  0  0  0  0  0  0  0  0  0  0  # atno 10718 bound_to 10713
  153.8339  135.6863  153.4811 H   0  0  0  0  0  0  0  0  0  0  0  0  # atno 10763 bound_to 10752
  153.1494  135.4624  154.9613 H   0  0  0  0  0  0  0  0  0  0  0  0  # atno 10764 bound_to 10752
  154.7875  135.3290  154.7799 H   0  0  0  0  0  0  0  0  0  0  0  0  # atno 10765 bound_to 10752
  141.0330  133.6812  156.2624 H   0  0  0  0  0  0  0  0  0  0  0  0  # atno 11005 bound_to 11000
  146.0046  140.8490  143.0001 LP  0  0  0  0  0  0  0  0  0  0  0  0  # atno 17320 bound_to 7965
  144.6792  140.2402  143.7344 LP  0  0  0  0  0  0  0  0  0  0  0  0  # atno 17321 bound_to 7965
  140.7247  143.2624  151.4161 LP  0  0  0  0  0  0  0  0  0  0  0  0  # atno 17342 bound_to 10162
  139.5995  144.1325  152.2182 LP  0  0  0  0  0  0  0  0  0  0  0  0  # atno 17343 bound_to 10162
  155.9865  130.4900  150.7081 LP  0  0  0  0  0  0  0  0  0  0  0  0  # atno 17370 bound_to 10713
  157.4611  131.0883  151.0745 LP  0  0  0  0  0  0  0  0  0  0  0  0  # atno 17371 bound_to 10713
  140.6372  134.5203  157.5566 LP  0  0  0  0  0  0  0  0  0  0  0  0  # atno 17394 bound_to 11000
  139.9221  134.8128  156.1179 LP  0  0  0  0  0  0  0  0  0  0  0  0  # atno 17395 bound_to 11000

$$$$
