AV-unprocessed.smi:3311|AV-procd|sdf|12723|dock8
  -GOLD-   2272019 63D 1   1.00000     0.00000
 Structure written by MMmdl.
 43 44  0  0  0  0  0  0  0  0  1 V2000
  145.5852  137.7083  154.9144 C   0  0  0  0  0  0  0  0  0  0  0  0
  146.5030  137.7156  153.6797 C   0  0  2  0  0  0  0  0  0  0  0  0
  146.5937  136.3397  153.1793 N   0  0  0  0  0  0  0  0  0  0  0  0
  145.3316  135.7724  152.6979 C   0  0  0  0  0  0  0  0  0  0  0  0
  145.5414  134.6761  151.6297 C   0  0  0  0  0  0  0  0  0  0  0  0
  146.3748  135.2315  150.6282 O   0  0  0  0  0  0  0  0  0  0  0  0
  146.1940  133.3931  152.2039 C   0  0  0  0  0  0  0  0  0  0  0  0
  146.2756  132.2507  151.1757 C   0  0  0  0  0  0  0  0  0  0  0  0
  144.8994  131.9360  150.5741 C   0  0  0  0  0  0  0  0  0  0  0  0
  144.2741  133.1905  149.9487 C   0  0  0  0  0  0  0  0  0  0  0  0
  144.1833  134.3387  150.9700 C   0  0  0  0  0  0  0  0  0  0  0  0
  147.9116  138.2956  154.0020 C   0  0  2  0  0  0  0  0  0  0  0  0
  148.5843  137.6300  155.2175 C   0  0  0  0  0  0  0  0  0  0  0  0
  147.8789  139.7402  154.2002 N   0  0  0  0  0  0  0  0  0  0  0  0
  146.8113  140.6082  154.0764 C   0  0  0  0  0  0  0  0  0  0  0  0
  147.2760  141.8666  154.3310 C   0  0  0  0  0  0  0  0  0  0  0  0
  148.6586  141.6679  154.5998 C   0  0  0  0  0  0  0  0  0  0  0  0
  149.0154  140.3966  154.5233 N   0  0  0  0  0  0  0  0  0  0  0  0
  145.3575  138.7176  155.2563 H   0  0  0  0  0  0  0  0  0  0  0  0
  146.0376  137.1650  155.7447 H   0  0  0  0  0  0  0  0  0  0  0  0
  144.6307  137.2316  154.6879 H   0  0  0  0  0  0  0  0  0  0  0  0
  146.0226  138.3451  152.9288 H   0  0  0  0  0  0  0  0  0  0  0  0
  147.2722  136.3051  152.4246 H   0  0  0  0  0  0  0  0  0  0  0  0
  144.7875  135.3537  153.5452 H   0  0  0  0  0  0  0  0  0  0  0  0
  144.6890  136.5481  152.2856 H   0  0  0  0  0  0  0  0  0  0  0  0
  147.2099  135.4407  151.0172 H   0  0  0  0  0  0  0  0  0  0  0  0
  147.1964  133.6049  152.5777 H   0  0  0  0  0  0  0  0  0  0  0  0
  145.6160  133.0521  153.0638 H   0  0  0  0  0  0  0  0  0  0  0  0
  146.9707  132.5202  150.3795 H   0  0  0  0  0  0  0  0  0  0  0  0
  146.6853  131.3580  151.6489 H   0  0  0  0  0  0  0  0  0  0  0  0
  144.9920  131.1517  149.8223 H   0  0  0  0  0  0  0  0  0  0  0  0
  144.2404  131.5454  151.3505 H   0  0  0  0  0  0  0  0  0  0  0  0
  144.8645  133.5051  149.0876 H   0  0  0  0  0  0  0  0  0  0  0  0
  143.2798  132.9563  149.5678 H   0  0  0  0  0  0  0  0  0  0  0  0
  143.4700  134.0548  151.7451 H   0  0  0  0  0  0  0  0  0  0  0  0
  143.7660  135.2247  150.4890 H   0  0  0  0  0  0  0  0  0  0  0  0
  148.5560  138.1009  153.1420 H   0  0  0  0  0  0  0  0  0  0  0  0
  148.8160  136.5826  155.0265 H   0  0  0  0  0  0  0  0  0  0  0  0
  147.9490  137.6768  156.1022 H   0  0  0  0  0  0  0  0  0  0  0  0
  149.5275  138.1212  155.4589 H   0  0  0  0  0  0  0  0  0  0  0  0
  145.8222  140.2630  153.8142 H   0  0  0  0  0  0  0  0  0  0  0  0
  146.7152  142.7894  154.3214 H   0  0  0  0  0  0  0  0  0  0  0  0
  149.4094  142.4043  154.8456 H   0  0  0  0  0  0  0  0  0  0  0  0
  1  2  1  0  0  0  0
  1 19  1  0  0  0  0
  1 20  1  0  0  0  0
  1 21  1  0  0  0  0
  2  3  1  0  0  0  0
  2 12  1  0  0  0  0
  2 22  1  0  0  0  0
  3  4  1  0  0  0  0
  3 23  1  0  0  0  0
  4  5  1  0  0  0  0
  4 24  1  0  0  0  0
  4 25  1  0  0  0  0
  5 11  1  0  0  0  0
  5  6  1  0  0  0  0
  5  7  1  0  0  0  0
  6 26  1  0  0  0  0
  7  8  1  0  0  0  0
  7 27  1  0  0  0  0
  7 28  1  0  0  0  0
  8  9  1  0  0  0  0
  8 29  1  0  0  0  0
  8 30  1  0  0  0  0
  9 10  1  0  0  0  0
  9 31  1  0  0  0  0
  9 32  1  0  0  0  0
 10 11  1  0  0  0  0
 10 33  1  0  0  0  0
 10 34  1  0  0  0  0
 11 35  1  0  0  0  0
 11 36  1  0  0  0  0
 12 13  1  0  0  0  0
 12 14  1  0  0  0  0
 12 37  1  0  0  0  0
 13 38  1  0  0  0  0
 13 39  1  0  0  0  0
 13 40  1  0  0  0  0
 14 18  1  0  0  0  0
 14 15  1  0  0  0  0
 15 16  2  0  0  0  0
 15 41  1  0  0  0  0
 16 17  1  0  0  0  0
 16 42  1  0  0  0  0
 17 18  2  0  0  0  0
 17 43  1  0  0  0  0
M  END
> <s_m_source_file>
AV-unprocessed.smi

> <i_m_source_file_index>
3311

> <i_lp_mmshare_version>
43012

> <i_f3d_flags>
0

> <s_epik_input>
bjFbY0hdW2NIXVtjSF1uMVtDQEBIXShbQ0gzXSlbQ0BIXShbQ0gzXSlbTkhdW0NIMl1DMihbT0hdKVtDSDJdW0NIMl1bQ0gyXVtDSDJdW0NIMl0y

> <s_epik_cmdline>
J2VwaWtfcHl0aG9uJywgJy1waCcsICc3LjAnLCAnLXRuJywgJzgnLCAnLW1hJywgJzIwMCcsICctbWV0YWxfYmluZGluZycsICctaW1hZScsICc8aW5maWxlLm1hZT4nLCAnLW9tYWUnLCAnPG91dGZpbGUubWFlPic=

> <r_lp_tautomer_probability>
1

> <r_epik_Ionization_Penalty>
2.222

> <r_epik_Ionization_Penalty_Charging>
0

> <r_epik_Ionization_Penalty_Neutral>
2.222

> <r_epik_State_Penalty>
2.36562

> <r_epik_Charging_Adjusted_Penalty>
2.36562

> <i_epik_Tot_Q>
0

> <i_epik_Tot_abs_Q>
0

> <r_epik_Metal_State_Penalty>
2.36435

> <b_epik_Metal_Only>
0

> <s_lp_Force_Field>
OPLS_2005

> <r_lp_Energy>
30.3398

> <b_lp_Chiralities_Consistent>
1

> <s_lp_Variant>
AV-unprocessed.smi:3311-5

> <Gold.Version>
5.8.1

> <Gold.Id.Protein>
6NUR|6NUR_protein|mol2

> <Gold.PLP.Fitness>
37.4343

> <Gold.PLP.PLP>
-26.6786

> <Gold.PLP.part.hbond>
-2.9009

> <Gold.PLP.part.metal>
0.0000

> <Gold.PLP.part.buried>
-0.6485

> <Gold.PLP.part.nonpolar>
-23.1152

> <Gold.PLP.part.repulsive>
0.1172

> <Gold.PLP.ligand.clash>
0.0000

> <Gold.PLP.ligand.torsion>
0.4445

> <Gold.PLP.Chemscore.Hbond>
1.9913

> <Gold.PLP.Chemscore.CHOScore>
1.8656

> <Gold.PLP.Chemscore.Metal>
0.0000

> <Gold.Chemscore.Hbonds>
donor molecule, donor type, donor heavy atom, donor atom, acceptor molecule, acceptor atom, score
      L1  H     3    23       P1  7948  1.00
      L1  H     6    26       P1  7948  0.99
      L1  C    15    41       P1 10175  1.00
      L1  C    17    43       P1  8028  0.87

> <Gold.PLP.Chemscore.Internal.Correction>
0.0743

> <Gold.Rescore>
     Score         DG    S(hbond)    S(metal)    S(lipo)     H(rot)  DE(clash)    DE(int)     intcor
     13.90     -14.56       1.93        0.00      67.79       2.07       0.27       0.39       ----

> <Gold.Chemscore.Fitness>
13.8953

> <Gold.Chemscore.DG>
-14.5551

> <Gold.Chemscore.ZeroCoef>
-5.4800

> <Gold.Chemscore.Hbond>
1.9280

> <Gold.Chemscore.Metal>
0.0000

> <Gold.Chemscore.Lipo>
67.7893

> <Gold.Chemscore.Internal_Hbond>
0.0000

> <Gold.Chemscore.DEClash>
0.2690

> <Gold.Chemscore.DEInternal>
0.3909

> <Gold.Chemscore.Rot>
2.0686

> <Gold.Chemscore.Internal.Correction>
   9.000000E+99

> <Gold.Chemscore.Hbonds>
donor molecule, donor type, donor heavy atom, donor atom, acceptor molecule, acceptor atom, score
      L1  H     3    23       P1  7948  0.96
      L1  H     6    26       P1  7948  0.65

> <Gold.Chemscore.Hbond.Weighted>
-6.4394

> <Gold.Chemscore.Metal.Weighted>
-0.0000

> <Gold.Chemscore.Lipo.Weighted>
-7.9313

> <Gold.Chemscore.Internal_Hbond.Weighted>
0.0000

> <Gold.Chemscore.DEClash.Weighted>
0.2690

> <Gold.Chemscore.DEInternal.Weighted>
0.3909

> <Gold.Chemscore.Rot.Weighted>
5.2957

> <Gold.Chemscore.Internal.Correction.Weighted>
   9.000000E+99

> <Gold.Protein.RotatedTorsions>
[ 6907 6896 6895 6894 ] final   72.32 input  -60.11 | X-H torsion
[ 7974 7965 7964 7962 ] final  150.86 input  175.53 | X-H torsion
[ 8008 7997 7996 7995 ] final -139.37 input   59.86 | X-H torsion
[ 10167 10162 10161 10158 ] final -175.10 input  -65.29 | X-H torsion
[ 10718 10713 10712 10709 ] final  176.97 input   66.30 | X-H torsion
[ 10763 10752 10751 10750 ] final  125.90 input  -60.55 | X-H torsion
[ 11005 11000 10999 10996 ] final   70.31 input  -57.11 | X-H torsion

> <Gold.Protein.ActiveResidues>
 VAL166  LYS551  ARG553  GLY616  TRP617  ASP618  TYR619  PRO620  LYS621  CYS622 
 ASP623  PHE694  ASN695  SER759  ASP760  ASP761  ALA762  ILE779  LEU786  VAL792 
 PHE793  MET794  SER795  GLU796  ALA797  LYS798  CYS799  TRP800  GLU811  SER814 

> <Gold.Protein.RotatedAtoms>
  152.4861  134.4589  159.9598 H   0  0  0  0  0  0  0  0  0  0  0  0  # atno 6907 bound_to 6896
  151.4585  133.3593  159.2813 H   0  0  0  0  0  0  0  0  0  0  0  0  # atno 6908 bound_to 6896
  150.8972  134.8407  159.7395 H   0  0  0  0  0  0  0  0  0  0  0  0  # atno 6909 bound_to 6896
  144.8333  139.6463  143.6049 H   0  0  0  0  0  0  0  0  0  0  0  0  # atno 7974 bound_to 7965
  155.4438  140.0533  157.3008 H   0  0  0  0  0  0  0  0  0  0  0  0  # atno 8008 bound_to 7997
  154.4807  140.2080  155.9728 H   0  0  0  0  0  0  0  0  0  0  0  0  # atno 8009 bound_to 7997
  156.1200  140.3190  155.8200 H   0  0  0  0  0  0  0  0  0  0  0  0  # atno 8010 bound_to 7997
  139.5599  144.1896  152.1221 H   0  0  0  0  0  0  0  0  0  0  0  0  # atno 10167 bound_to 10162
  156.9122  130.9913  151.3019 H   0  0  0  0  0  0  0  0  0  0  0  0  # atno 10718 bound_to 10713
  153.6847  135.3308  155.3187 H   0  0  0  0  0  0  0  0  0  0  0  0  # atno 10763 bound_to 10752
  154.8456  135.4417  154.1570 H   0  0  0  0  0  0  0  0  0  0  0  0  # atno 10764 bound_to 10752
  153.2595  135.6989  153.7670 H   0  0  0  0  0  0  0  0  0  0  0  0  # atno 10765 bound_to 10752
  139.9605  134.7070  156.0657 H   0  0  0  0  0  0  0  0  0  0  0  0  # atno 11005 bound_to 11000
  146.2635  139.6464  142.9346 LP  0  0  0  0  0  0  0  0  0  0  0  0  # atno 17320 bound_to 7965
  145.4848  141.0438  143.2626 LP  0  0  0  0  0  0  0  0  0  0  0  0  # atno 17321 bound_to 7965
  140.1408  144.5204  150.6745 LP  0  0  0  0  0  0  0  0  0  0  0  0  # atno 17342 bound_to 10162
  140.6877  143.2359  151.5216 LP  0  0  0  0  0  0  0  0  0  0  0  0  # atno 17343 bound_to 10162
  157.5960  130.8478  149.8730 LP  0  0  0  0  0  0  0  0  0  0  0  0  # atno 17370 bound_to 10713
  156.0530  130.3714  150.1156 LP  0  0  0  0  0  0  0  0  0  0  0  0  # atno 17371 bound_to 10713
  141.1281  133.6593  156.3391 LP  0  0  0  0  0  0  0  0  0  0  0  0  # atno 17394 bound_to 11000
  140.5512  134.6026  157.5408 LP  0  0  0  0  0  0  0  0  0  0  0  0  # atno 17395 bound_to 11000

$$$$
