AV-unprocessed.smi:1579|AV-procd|sdf|6354|dock3
  -GOLD-   22720 6573D 1   1.00000     0.00000
 Structure written by MMmdl.
 47 48  0  0  0  0  0  0  0  0  2 V2000
  148.6272  138.5615  158.0774 C   0  0  0  0  0  0  0  0  0  0  0  0
  149.9497  137.9024  157.7912 C   0  0  0  0  0  0  0  0  0  0  0  0
  149.9124  136.7799  157.1512 N   0  0  0  0  0  0  0  0  0  0  0  0
  151.0671  136.0895  156.8392 N   0  0  0  0  0  0  0  0  0  0  0  0
  150.8278  134.8301  156.1213 C   0  0  0  0  0  0  0  0  0  0  0  0
  150.1236  135.0465  154.7640 C   0  0  2  0  0  0  0  0  0  0  0  0
  150.3962  136.3724  154.3551 O   0  0  0  0  0  0  0  0  0  0  0  0
  148.5931  134.8435  154.8301 C   0  0  0  0  0  0  0  0  0  0  0  0
  147.9949  134.4729  153.5218 N   0  3  2  0  0  0  0  0  0  0  0  0
  146.5189  134.6423  153.5182 C   0  0  0  0  0  0  0  0  0  0  0  0
  145.9311  134.3837  152.1211 C   0  0  0  0  0  0  0  0  0  0  0  0
  146.3069  132.9837  151.6081 C   0  0  1  0  0  0  0  0  0  0  0  0
  145.7464  132.7233  150.2029 C   0  0  0  0  0  0  0  0  0  0  0  0
  147.8357  132.8247  151.6524 C   0  0  0  0  0  0  0  0  0  0  0  0
  148.3869  133.1144  153.0588 C   0  0  0  0  0  0  0  0  0  0  0  0
  152.3280  136.5077  157.1492 C   0  0  0  0  0  0  0  0  0  0  0  0
  153.3349  135.8750  156.8283 O   0  0  0  0  0  0  0  0  0  0  0  0
  152.3633  137.7774  157.8781 C   0  0  0  0  0  0  0  0  0  0  0  0
  153.6651  138.2461  158.2289 C   0  0  0  0  0  0  0  0  0  0  0  0
  154.7144  138.6443  158.5117 N   0  0  0  0  0  0  0  0  0  0  0  0
  151.2357  138.4619  158.1942 C   0  0  0  0  0  0  0  0  0  0  0  0
  151.2197  139.7848  158.9477 C   0  0  0  0  0  0  0  0  0  0  0  0
  148.4949  138.7165  159.1484 H   0  0  0  0  0  0  0  0  0  0  0  0
  147.7874  137.9597  157.7265 H   0  0  0  0  0  0  0  0  0  0  0  0
  148.5645  139.5318  157.5845 H   0  0  0  0  0  0  0  0  0  0  0  0
  151.7492  134.2619  155.9817 H   0  0  0  0  0  0  0  0  0  0  0  0
  150.2035  134.1956  156.7538 H   0  0  0  0  0  0  0  0  0  0  0  0
  150.5734  134.3772  154.0317 H   0  0  0  0  0  0  0  0  0  0  0  0
  149.7927  136.6141  153.6696 H   0  0  0  0  0  0  0  0  0  0  0  0
  148.3316  134.0717  155.5539 H   0  0  0  0  0  0  0  0  0  0  0  0
  148.1412  135.7666  155.1966 H   0  0  0  0  0  0  0  0  0  0  0  0
  146.0711  133.9652  154.2476 H   0  0  0  0  0  0  0  0  0  0  0  0
  146.2637  135.6564  153.8282 H   0  0  0  0  0  0  0  0  0  0  0  0
  144.8462  134.4909  152.1546 H   0  0  0  0  0  0  0  0  0  0  0  0
  146.2946  135.1434  151.4273 H   0  0  0  0  0  0  0  0  0  0  0  0
  145.8690  132.2451  152.2813 H   0  0  0  0  0  0  0  0  0  0  0  0
  146.1484  133.4304  149.4764 H   0  0  0  0  0  0  0  0  0  0  0  0
  144.6599  132.8158  150.1911 H   0  0  0  0  0  0  0  0  0  0  0  0
  145.9942  131.7178  149.8616 H   0  0  0  0  0  0  0  0  0  0  0  0
  148.1147  131.8144  151.3509 H   0  0  0  0  0  0  0  0  0  0  0  0
  148.3006  133.5004  150.9329 H   0  0  0  0  0  0  0  0  0  0  0  0
  149.4714  133.0169  153.0358 H   0  0  0  0  0  0  0  0  0  0  0  0
  148.0199  132.3677  153.7650 H   0  0  0  0  0  0  0  0  0  0  0  0
  152.2234  140.1621  159.1410 H   0  0  0  0  0  0  0  0  0  0  0  0
  150.7215  139.6682  159.9107 H   0  0  0  0  0  0  0  0  0  0  0  0
  150.6910  140.5484  158.3765 H   0  0  0  0  0  0  0  0  0  0  0  0
  148.3528  135.1331  152.8469 H   0  0  0  0  0  0  0  0  0  0  0  0
  1  2  1  0  0  0  0
  1 23  1  0  0  0  0
  1 24  1  0  0  0  0
  1 25  1  0  0  0  0
  2 21  1  0  0  0  0
  2  3  2  0  0  0  0
  3  4  1  0  0  0  0
  4  5  1  0  0  0  0
  4 16  1  0  0  0  0
  5  6  1  0  0  0  0
  5 26  1  0  0  0  0
  5 27  1  0  0  0  0
  6  7  1  0  0  0  0
  6  8  1  0  0  0  0
  6 28  1  0  0  0  0
  7 29  1  0  0  0  0
  8  9  1  0  0  0  0
  8 30  1  0  0  0  0
  8 31  1  0  0  0  0
  9 15  1  0  0  0  0
  9 10  1  0  0  0  0
  9 47  1  0  0  0  0
 10 11  1  0  0  0  0
 10 32  1  0  0  0  0
 10 33  1  0  0  0  0
 11 12  1  0  0  0  0
 11 34  1  0  0  0  0
 11 35  1  0  0  0  0
 12 13  1  0  0  0  0
 12 14  1  0  0  0  0
 12 36  1  0  0  0  0
 13 37  1  0  0  0  0
 13 38  1  0  0  0  0
 13 39  1  0  0  0  0
 14 15  1  0  0  0  0
 14 40  1  0  0  0  0
 14 41  1  0  0  0  0
 15 42  1  0  0  0  0
 15 43  1  0  0  0  0
 16 17  2  0  0  0  0
 16 18  1  0  0  0  0
 18 19  1  0  0  0  0
 18 21  2  0  0  0  0
 19 20  3  0  0  0  0
 21 22  1  0  0  0  0
 22 44  1  0  0  0  0
 22 45  1  0  0  0  0
 22 46  1  0  0  0  0
M  CHG  1   9   1
M  END
> <s_m_source_file>
AV-unprocessed.smi

> <i_m_source_file_index>
1579

> <i_lp_mmshare_version>
43012

> <i_f3d_flags>
0

> <s_epik_input>
TiNDYyhjMVtDSDNdKWMoPU8pbihuYzFbQ0gzXSlbQ0gyXVtDQEhdKFtPSF0pW0NIMl1OMltDSDJdW0NIMl1bQ0hdKFtDSDNdKVtDSDJdW0NIMl0y

> <s_epik_cmdline>
J2VwaWtfcHl0aG9uJywgJy1waCcsICc3LjAnLCAnLXRuJywgJzgnLCAnLW1hJywgJzIwMCcsICctbWV0YWxfYmluZGluZycsICctaW1hZScsICc8aW5maWxlLm1hZT4nLCAnLW9tYWUnLCAnPG91dGZpbGUubWFlPic=

> <r_epik_Ionization_Penalty>
0.00136816

> <r_epik_Ionization_Penalty_Charging>
0.00136813

> <r_epik_Ionization_Penalty_Neutral>
3.19884e-08

> <r_epik_State_Penalty>
0.000910892

> <r_epik_Charging_Adjusted_Penalty>
0.00227902

> <i_epik_Tot_Q>
1

> <i_epik_Tot_abs_Q>
1

> <r_epik_Metal_State_Penalty>
-0

> <b_epik_Metal_Only>
0

> <s_lp_Force_Field>
OPLS_2005

> <r_lp_Energy>
36.6054

> <b_lp_Chiralities_Consistent>
1

> <s_lp_Variant>
AV-unprocessed.smi:1579-1

> <Gold.Version>
5.8.1

> <Gold.Id.Protein>
6NUR|6NUR_protein|mol2

> <Gold.PLP.Fitness>
40.6323

> <Gold.PLP.PLP>
-27.2709

> <Gold.PLP.part.hbond>
-5.0000

> <Gold.PLP.part.metal>
0.0000

> <Gold.PLP.part.buried>
-0.7355

> <Gold.PLP.part.nonpolar>
-21.5104

> <Gold.PLP.part.repulsive>
0.0000

> <Gold.PLP.ligand.clash>
0.0000

> <Gold.PLP.ligand.torsion>
0.8552

> <Gold.PLP.Chemscore.Hbond>
5.0000

> <Gold.PLP.Chemscore.CHOScore>
0.0000

> <Gold.PLP.Chemscore.Metal>
0.0000

> <Gold.Chemscore.Hbonds>
donor molecule, donor type, donor heavy atom, donor atom, acceptor molecule, acceptor atom, score
      L1  H     7    29       P1  7948  0.98
      L1  H     9    47       P1  7948  2.00
      P1  H  7997  8008       L1    20  1.00
      P1  H 10752 10763       L1    17  1.00

> <Gold.PLP.Chemscore.Internal.Correction>
0.0719

> <Gold.Rescore>
     Score         DG    S(hbond)    S(metal)    S(lipo)     H(rot)  DE(clash)    DE(int)     intcor
     17.22     -19.22       3.56        0.00      63.30       2.17       1.22       0.77       ----

> <Gold.Chemscore.Fitness>
17.2238

> <Gold.Chemscore.DG>
-19.2180

> <Gold.Chemscore.ZeroCoef>
-5.4800

> <Gold.Chemscore.Hbond>
3.5600

> <Gold.Chemscore.Metal>
0.0000

> <Gold.Chemscore.Lipo>
63.3036

> <Gold.Chemscore.Internal_Hbond>
0.0000

> <Gold.Chemscore.DEClash>
1.2225

> <Gold.Chemscore.DEInternal>
0.7716

> <Gold.Chemscore.Rot>
2.1715

> <Gold.Chemscore.Internal.Correction>
   9.000000E+99

> <Gold.Chemscore.Hbonds>
donor molecule, donor type, donor heavy atom, donor atom, acceptor molecule, acceptor atom, score
      L1  H     7    29       P1  7948  0.40
      L1  H     9    47       P1  7948  0.82
      P1  H  7997  8008       L1    20  0.82
      P1  H 10752 10763       L1    17  0.97

> <Gold.Chemscore.Hbond.Weighted>
-11.8905

> <Gold.Chemscore.Metal.Weighted>
-0.0000

> <Gold.Chemscore.Lipo.Weighted>
-7.4065

> <Gold.Chemscore.Internal_Hbond.Weighted>
0.0000

> <Gold.Chemscore.DEClash.Weighted>
1.2225

> <Gold.Chemscore.DEInternal.Weighted>
0.7716

> <Gold.Chemscore.Rot.Weighted>
5.5591

> <Gold.Chemscore.Internal.Correction.Weighted>
   9.000000E+99

> <Gold.Protein.RotatedTorsions>
[ 6907 6896 6895 6894 ] final  167.89 input  -60.11 | X-H torsion
[ 7974 7965 7964 7962 ] final -126.69 input  175.53 | X-H torsion
[ 8008 7997 7996 7995 ] final -133.13 input   59.86 | X-H torsion
[ 10167 10162 10161 10158 ] final    5.65 input  -65.29 | X-H torsion
[ 10718 10713 10712 10709 ] final  -55.48 input   66.30 | X-H torsion
[ 10763 10752 10751 10750 ] final  121.36 input  -60.55 | X-H torsion
[ 11005 11000 10999 10996 ] final  -26.29 input  -57.11 | X-H torsion

> <Gold.Protein.ActiveResidues>
 VAL166  LYS551  ARG553  GLY616  TRP617  ASP618  TYR619  PRO620  LYS621  CYS622 
 ASP623  PHE694  ASN695  SER759  ASP760  ASP761  ALA762  ILE779  LEU786  VAL792 
 PHE793  MET794  SER795  GLU796  ALA797  LYS798  CYS799  TRP800  GLU811  SER814 

> <Gold.Protein.RotatedAtoms>
  151.8562  133.3449  159.3688 H   0  0  0  0  0  0  0  0  0  0  0  0  # atno 6907 bound_to 6896
  150.7192  134.5250  159.5682 H   0  0  0  0  0  0  0  0  0  0  0  0  # atno 6908 bound_to 6896
  152.2754  134.7887  160.0457 H   0  0  0  0  0  0  0  0  0  0  0  0  # atno 6909 bound_to 6896
  144.9847  140.7675  143.4590 H   0  0  0  0  0  0  0  0  0  0  0  0  # atno 7974 bound_to 7965
  155.3404  140.0472  157.3044 H   0  0  0  0  0  0  0  0  0  0  0  0  # atno 8008 bound_to 7997
  154.5280  140.2247  155.8820 H   0  0  0  0  0  0  0  0  0  0  0  0  # atno 8009 bound_to 7997
  156.1760  140.3085  155.9065 H   0  0  0  0  0  0  0  0  0  0  0  0  # atno 8010 bound_to 7997
  140.6471  143.7636  150.7515 H   0  0  0  0  0  0  0  0  0  0  0  0  # atno 10167 bound_to 10162
  156.1365  130.4156  150.0177 H   0  0  0  0  0  0  0  0  0  0  0  0  # atno 10718 bound_to 10713
  153.6129  135.3427  155.2985 H   0  0  0  0  0  0  0  0  0  0  0  0  # atno 10763 bound_to 10752
  154.8615  135.4254  154.2290 H   0  0  0  0  0  0  0  0  0  0  0  0  # atno 10764 bound_to 10752
  153.3145  135.7034  153.7158 H   0  0  0  0  0  0  0  0  0  0  0  0  # atno 10765 bound_to 10752
  140.9015  133.7521  156.0550 H   0  0  0  0  0  0  0  0  0  0  0  0  # atno 11005 bound_to 11000
  145.2370  139.2089  143.5012 LP  0  0  0  0  0  0  0  0  0  0  0  0  # atno 17320 bound_to 7965
  146.3417  140.2258  142.8592 LP  0  0  0  0  0  0  0  0  0  0  0  0  # atno 17321 bound_to 7965
  140.1279  143.4552  152.2272 LP  0  0  0  0  0  0  0  0  0  0  0  0  # atno 17342 bound_to 10162
  139.5682  144.7448  151.3963 LP  0  0  0  0  0  0  0  0  0  0  0  0  # atno 17343 bound_to 10162
  156.8075  130.9312  151.3645 LP  0  0  0  0  0  0  0  0  0  0  0  0  # atno 17370 bound_to 10713
  157.6537  130.8906  149.9684 LP  0  0  0  0  0  0  0  0  0  0  0  0  # atno 17371 bound_to 10713
  140.8223  134.3274  157.5377 LP  0  0  0  0  0  0  0  0  0  0  0  0  # atno 17394 bound_to 11000
  139.8743  134.9316  156.3533 LP  0  0  0  0  0  0  0  0  0  0  0  0  # atno 17395 bound_to 11000

$$$$
