AV-unprocessed.smi:1236|AV-procd|sdf|5179|dock1
  -GOLD-   22720 4253D 1   1.00000     0.00000
 Structure written by MMmdl.
 39 40  0  0  0  0  0  0  0  0  1 V2000
  148.9423  127.3834  153.2830 C   0  0  0  0  0  0  0  0  0  0  0  0
  147.8717  127.3953  152.1837 C   0  0  2  0  0  0  0  0  0  0  0  0
  148.2743  126.4872  151.0017 C   0  0  0  0  0  0  0  0  0  0  0  0
  147.9396  125.0696  151.1482 N   0  0  0  0  0  0  0  0  0  0  0  0
  148.6698  124.4252  152.2376 C   0  0  0  0  0  0  0  0  0  0  0  0
  148.3068  122.9358  152.3649 C   0  0  0  0  0  0  0  0  0  0  0  0
  148.5545  122.2756  151.1277 O   0  0  0  0  0  0  0  0  0  0  0  0
  147.8291  122.8484  150.0446 C   0  0  0  0  0  0  0  0  0  0  0  0
  148.1915  124.3375  149.9121 C   0  0  0  0  0  0  0  0  0  0  0  0
  147.6765  128.7691  151.7217 N   0  0  0  0  0  0  0  0  0  0  0  0
  146.5050  129.4205  151.6664 C   0  0  0  0  0  0  0  0  0  0  0  0
  145.4356  128.9354  152.0372 O   0  0  0  0  0  0  0  0  0  0  0  0
  146.6608  130.6531  151.1522 N   0  0  0  0  0  0  0  0  0  0  0  0
  145.6662  131.6407  150.9214 C   0  0  0  0  0  0  0  0  0  0  0  0
  146.1392  132.9723  150.8988 C   0  0  0  0  0  0  0  0  0  0  0  0
  145.2319  134.0262  150.6764 C   0  0  0  0  0  0  0  0  0  0  0  0
  143.8728  133.7212  150.4832 C   0  0  0  0  0  0  0  0  0  0  0  0
  143.4848  132.3692  150.5219 C   0  0  0  0  0  0  0  0  0  0  0  0
  144.3527  131.3578  150.7343 N   0  0  0  0  0  0  0  0  0  0  0  0
  149.1007  126.3741  153.6637 H   0  0  0  0  0  0  0  0  0  0  0  0
  148.6466  128.0095  154.1256 H   0  0  0  0  0  0  0  0  0  0  0  0
  149.8989  127.7529  152.9122 H   0  0  0  0  0  0  0  0  0  0  0  0
  146.9564  127.0133  152.6367 H   0  0  0  0  0  0  0  0  0  0  0  0
  147.7825  126.8719  150.1071 H   0  0  0  0  0  0  0  0  0  0  0  0
  149.3447  126.5889  150.8168 H   0  0  0  0  0  0  0  0  0  0  0  0
  149.7437  124.5230  152.0731 H   0  0  0  0  0  0  0  0  0  0  0  0
  148.4535  124.9158  153.1852 H   0  0  0  0  0  0  0  0  0  0  0  0
  148.9029  122.4651  153.1466 H   0  0  0  0  0  0  0  0  0  0  0  0
  147.2592  122.8180  152.6457 H   0  0  0  0  0  0  0  0  0  0  0  0
  148.0760  122.3140  149.1272 H   0  0  0  0  0  0  0  0  0  0  0  0
  146.7578  122.7253  150.2098 H   0  0  0  0  0  0  0  0  0  0  0  0
  147.6141  124.7760  149.0974 H   0  0  0  0  0  0  0  0  0  0  0  0
  149.2426  124.4296  149.6345 H   0  0  0  0  0  0  0  0  0  0  0  0
  148.4991  129.2520  151.3922 H   0  0  0  0  0  0  0  0  0  0  0  0
  147.5992  130.9127  150.8871 H   0  0  0  0  0  0  0  0  0  0  0  0
  147.1868  133.1887  151.0492 H   0  0  0  0  0  0  0  0  0  0  0  0
  145.5736  135.0504  150.6547 H   0  0  0  0  0  0  0  0  0  0  0  0
  143.1467  134.5019  150.3106 H   0  0  0  0  0  0  0  0  0  0  0  0
  142.4508  132.0923  150.3792 H   0  0  0  0  0  0  0  0  0  0  0  0
  1  2  1  0  0  0  0
  1 20  1  0  0  0  0
  1 21  1  0  0  0  0
  1 22  1  0  0  0  0
  2  3  1  0  0  0  0
  2 10  1  0  0  0  0
  2 23  1  0  0  0  0
  3  4  1  0  0  0  0
  3 24  1  0  0  0  0
  3 25  1  0  0  0  0
  4  9  1  0  0  0  0
  4  5  1  0  0  0  0
  5  6  1  0  0  0  0
  5 26  1  0  0  0  0
  5 27  1  0  0  0  0
  6  7  1  0  0  0  0
  6 28  1  0  0  0  0
  6 29  1  0  0  0  0
  7  8  1  0  0  0  0
  8  9  1  0  0  0  0
  8 30  1  0  0  0  0
  8 31  1  0  0  0  0
  9 32  1  0  0  0  0
  9 33  1  0  0  0  0
 10 11  1  0  0  0  0
 10 34  1  0  0  0  0
 11 12  2  0  0  0  0
 11 13  1  0  0  0  0
 13 14  1  0  0  0  0
 13 35  1  0  0  0  0
 14 19  1  0  0  0  0
 14 15  2  0  0  0  0
 15 16  1  0  0  0  0
 15 36  1  0  0  0  0
 16 17  2  0  0  0  0
 16 37  1  0  0  0  0
 17 18  1  0  0  0  0
 17 38  1  0  0  0  0
 18 19  2  0  0  0  0
 18 39  1  0  0  0  0
M  END
> <s_m_source_file>
AV-unprocessed.smi

> <i_m_source_file_index>
1236

> <i_lp_mmshare_version>
43012

> <i_f3d_flags>
0

> <s_epik_input>
W0NIMl0xW0NIMl1PW0NIMl1bQ0gyXU4xW0NIMl1bQ0BASF0oW0NIM10pW05IXUMoPU8pW05IXWMyW2NIXVtjSF1bY0hdW2NIXW4y

> <s_epik_cmdline>
J2VwaWtfcHl0aG9uJywgJy1waCcsICc3LjAnLCAnLXRuJywgJzgnLCAnLW1hJywgJzIwMCcsICctbWV0YWxfYmluZGluZycsICctaW1hZScsICc8aW5maWxlLm1hZT4nLCAnLW9tYWUnLCAnPG91dGZpbGUubWFlPic=

> <r_epik_Ionization_Penalty>
0.26604

> <r_epik_Ionization_Penalty_Charging>
0

> <r_epik_Ionization_Penalty_Neutral>
0.26604

> <r_epik_State_Penalty>
0.257924

> <r_epik_Charging_Adjusted_Penalty>
0.257924

> <i_epik_Tot_Q>
0

> <i_epik_Tot_abs_Q>
0

> <r_epik_Metal_State_Penalty>
0.257923

> <b_epik_Metal_Only>
0

> <s_lp_Force_Field>
OPLS_2005

> <r_lp_Energy>
27.6221

> <b_lp_Chiralities_Consistent>
1

> <s_lp_Variant>
AV-unprocessed.smi:1236-1

> <Gold.Version>
5.8.1

> <Gold.Id.Protein>
6NUR|6NUR_protein|mol2

> <Gold.PLP.Fitness>
43.0134

> <Gold.PLP.PLP>
-36.0570

> <Gold.PLP.part.hbond>
-1.9226

> <Gold.PLP.part.metal>
0.0000

> <Gold.PLP.part.buried>
-6.5272

> <Gold.PLP.part.nonpolar>
-28.3552

> <Gold.PLP.part.repulsive>
0.4234

> <Gold.PLP.ligand.clash>
0.0000

> <Gold.PLP.ligand.torsion>
0.4907

> <Gold.PLP.Chemscore.Hbond>
1.5513

> <Gold.PLP.Chemscore.CHOScore>
1.0900

> <Gold.PLP.Chemscore.Metal>
0.0000

> <Gold.Chemscore.Hbonds>
donor molecule, donor type, donor heavy atom, donor atom, acceptor molecule, acceptor atom, score
      L1  H    10    34       P1 10747  0.57
      L1  H    13    35       P1 10747  0.94
      L1  C    18    39       P1 10186  0.11
      L1  C    18    39       P1 10952  1.00

> <Gold.PLP.Chemscore.Internal.Correction>
0.0142

> <Gold.Rescore>
     Score         DG    S(hbond)    S(metal)    S(lipo)     H(rot)  DE(clash)    DE(int)     intcor
     11.57     -13.47       0.99        0.00      73.06       1.51       0.03       1.87       ----

> <Gold.Chemscore.Fitness>
11.5691

> <Gold.Chemscore.DG>
-13.4653

> <Gold.Chemscore.ZeroCoef>
-5.4800

> <Gold.Chemscore.Hbond>
0.9893

> <Gold.Chemscore.Metal>
0.0000

> <Gold.Chemscore.Lipo>
73.0565

> <Gold.Chemscore.Internal_Hbond>
0.0000

> <Gold.Chemscore.DEClash>
0.0294

> <Gold.Chemscore.DEInternal>
1.8669

> <Gold.Chemscore.Rot>
1.5104

> <Gold.Chemscore.Internal.Correction>
   9.000000E+99

> <Gold.Chemscore.Hbonds>
donor molecule, donor type, donor heavy atom, donor atom, acceptor molecule, acceptor atom, score
      L1  H    10    34       P1 10747  0.06
      L1  H    13    35       P1 10747  0.90

> <Gold.Chemscore.Hbond.Weighted>
-3.3042

> <Gold.Chemscore.Metal.Weighted>
-0.0000

> <Gold.Chemscore.Lipo.Weighted>
-8.5476

> <Gold.Chemscore.Internal_Hbond.Weighted>
0.0000

> <Gold.Chemscore.DEClash.Weighted>
0.0294

> <Gold.Chemscore.DEInternal.Weighted>
1.8669

> <Gold.Chemscore.Rot.Weighted>
3.8665

> <Gold.Chemscore.Internal.Correction.Weighted>
   9.000000E+99

> <Gold.Protein.RotatedTorsions>
[ 6907 6896 6895 6894 ] final  140.47 input  -60.11 | X-H torsion
[ 7974 7965 7964 7962 ] final  -57.22 input  175.53 | X-H torsion
[ 8008 7997 7996 7995 ] final   26.18 input   59.86 | X-H torsion
[ 10167 10162 10161 10158 ] final   36.95 input  -65.29 | X-H torsion
[ 10718 10713 10712 10709 ] final  155.61 input   66.30 | X-H torsion
[ 10763 10752 10751 10750 ] final   93.73 input  -60.55 | X-H torsion
[ 11005 11000 10999 10996 ] final -164.54 input  -57.11 | X-H torsion

> <Gold.Protein.ActiveResidues>
 VAL166  LYS551  ARG553  GLY616  TRP617  ASP618  TYR619  PRO620  LYS621  CYS622 
 ASP623  PHE694  ASN695  SER759  ASP760  ASP761  ALA762  ILE779  LEU786  VAL792 
 PHE793  MET794  SER795  GLU796  ALA797  LYS798  CYS799  TRP800  GLU811  SER814 

> <Gold.Protein.RotatedAtoms>
  152.2427  133.5149  159.5279 H   0  0  0  0  0  0  0  0  0  0  0  0  # atno 6907 bound_to 6896
  150.7069  134.1067  159.3994 H   0  0  0  0  0  0  0  0  0  0  0  0  # atno 6908 bound_to 6896
  151.8988  135.0387  160.0555 H   0  0  0  0  0  0  0  0  0  0  0  0  # atno 6909 bound_to 6896
  145.8536  140.8335  142.9973 H   0  0  0  0  0  0  0  0  0  0  0  0  # atno 7974 bound_to 7965
  155.0232  140.3150  155.4785 H   0  0  0  0  0  0  0  0  0  0  0  0  # atno 8008 bound_to 7997
  156.2888  140.2193  156.5293 H   0  0  0  0  0  0  0  0  0  0  0  0  # atno 8009 bound_to 7997
  154.7434  140.0472  157.0818 H   0  0  0  0  0  0  0  0  0  0  0  0  # atno 8010 bound_to 7997
  140.4079  144.1634  150.6137 H   0  0  0  0  0  0  0  0  0  0  0  0  # atno 10167 bound_to 10162
  157.2160  131.0708  151.1941 H   0  0  0  0  0  0  0  0  0  0  0  0  # atno 10718 bound_to 10713
  153.2336  135.4315  155.0622 H   0  0  0  0  0  0  0  0  0  0  0  0  # atno 10763 bound_to 10752
  154.8308  135.3385  154.6751 H   0  0  0  0  0  0  0  0  0  0  0  0  # atno 10764 bound_to 10752
  153.7177  135.7019  153.5077 H   0  0  0  0  0  0  0  0  0  0  0  0  # atno 10765 bound_to 10752
  140.5857  134.5096  157.5185 H   0  0  0  0  0  0  0  0  0  0  0  0  # atno 11005 bound_to 11000
  144.6728  140.0990  143.7461 LP  0  0  0  0  0  0  0  0  0  0  0  0  # atno 17320 bound_to 7965
  145.9329  139.2618  143.1314 LP  0  0  0  0  0  0  0  0  0  0  0  0  # atno 17321 bound_to 7965
  140.4670  143.2427  151.9142 LP  0  0  0  0  0  0  0  0  0  0  0  0  # atno 17342 bound_to 10162
  139.4783  144.5409  151.8529 LP  0  0  0  0  0  0  0  0  0  0  0  0  # atno 17343 bound_to 10162
  157.3624  130.7138  149.6510 LP  0  0  0  0  0  0  0  0  0  0  0  0  # atno 17370 bound_to 10713
  155.9686  130.4222  150.4504 LP  0  0  0  0  0  0  0  0  0  0  0  0  # atno 17371 bound_to 10713
  139.9297  134.7988  156.0967 LP  0  0  0  0  0  0  0  0  0  0  0  0  # atno 17394 bound_to 11000
  141.0967  133.6693  156.2662 LP  0  0  0  0  0  0  0  0  0  0  0  0  # atno 17395 bound_to 11000

$$$$
