AV-unprocessed.smi:1824|AV-procd|sdf|7393|dock5
  -GOLD-   22720 9 63D 1   1.00000     0.00000
 Structure written by MMmdl.
 44 46  0  0  0  0  0  0  0  0  1 V2000
  153.3953  138.5579  154.6510 C   0  0  0  0  0  0  0  0  0  0  0  0
  151.9629  138.1077  154.3171 C   0  0  2  0  0  0  0  0  0  0  0  0
  150.9238  139.2412  154.4285 C   0  0  0  0  0  0  0  0  0  0  0  0
  150.6223  139.5991  155.8104 N   0  0  0  0  0  0  0  0  0  0  0  0
  149.6330  140.6748  155.8687 C   0  0  0  0  0  0  0  0  0  0  0  0
  149.6894  141.5517  157.1378 C   0  0  2  0  0  0  0  0  0  0  0  0
  148.6888  142.5497  157.0572 O   0  0  0  0  0  0  0  0  0  0  0  0
  151.0589  142.2403  157.3009 C   0  0  0  0  0  0  0  0  0  0  0  0
  151.1428  143.0321  158.5155 N   0  0  0  0  0  0  0  0  0  0  0  0
  150.5161  144.1960  158.7744 C   0  0  0  0  0  0  0  0  0  0  0  0
  150.7380  144.7566  159.9602 N   0  0  0  0  0  0  0  0  0  0  0  0
  151.6116  143.8515  160.5385 C   0  0  0  0  0  0  0  0  0  0  0  0
  152.2333  143.8588  161.8074 C   0  0  0  0  0  0  0  0  0  0  0  0
  153.1000  142.8118  162.1850 C   0  0  0  0  0  0  0  0  0  0  0  0
  153.6875  142.8342  163.4049 F   0  0  0  0  0  0  0  0  0  0  0  0
  153.3575  141.7434  161.3003 C   0  0  0  0  0  0  0  0  0  0  0  0
  154.1901  140.7419  161.6708 F   0  0  0  0  0  0  0  0  0  0  0  0
  152.7499  141.7149  160.0304 C   0  0  0  0  0  0  0  0  0  0  0  0
  151.8860  142.7612  159.6588 C   0  0  0  0  0  0  0  0  0  0  0  0
  150.1947  138.4026  156.5281 C   0  0  0  0  0  0  0  0  0  0  0  0
  151.2540  137.2870  156.4702 C   0  0  1  0  0  0  0  0  0  0  0  0
  150.7694  135.9983  157.1425 C   0  0  0  0  0  0  0  0  0  0  0  0
  151.5594  136.9894  155.1090 O   0  0  0  0  0  0  0  0  0  0  0  0
  153.7264  139.3372  153.9643 H   0  0  0  0  0  0  0  0  0  0  0  0
  154.0938  137.7251  154.5670 H   0  0  0  0  0  0  0  0  0  0  0  0
  153.4744  138.9597  155.6611 H   0  0  0  0  0  0  0  0  0  0  0  0
  151.9720  137.7626  153.2829 H   0  0  0  0  0  0  0  0  0  0  0  0
  151.2811  140.1166  153.8847 H   0  0  0  0  0  0  0  0  0  0  0  0
  150.0061  138.9247  153.9296 H   0  0  0  0  0  0  0  0  0  0  0  0
  149.8132  141.3284  155.0140 H   0  0  0  0  0  0  0  0  0  0  0  0
  148.6270  140.2791  155.7198 H   0  0  0  0  0  0  0  0  0  0  0  0
  149.4997  140.9375  158.0195 H   0  0  0  0  0  0  0  0  0  0  0  0
  148.9046  143.1354  156.3478 H   0  0  0  0  0  0  0  0  0  0  0  0
  151.8544  141.4948  157.3315 H   0  0  0  0  0  0  0  0  0  0  0  0
  151.2680  142.8849  156.4457 H   0  0  0  0  0  0  0  0  0  0  0  0
  149.8578  144.6567  158.0523 H   0  0  0  0  0  0  0  0  0  0  0  0
  152.0436  144.6716  162.4928 H   0  0  0  0  0  0  0  0  0  0  0  0
  152.9440  140.8980  159.3512 H   0  0  0  0  0  0  0  0  0  0  0  0
  150.0008  138.6413  157.5736 H   0  0  0  0  0  0  0  0  0  0  0  0
  149.2546  138.0384  156.1104 H   0  0  0  0  0  0  0  0  0  0  0  0
  152.1594  137.6188  156.9795 H   0  0  0  0  0  0  0  0  0  0  0  0
  150.5330  136.1690  158.1929 H   0  0  0  0  0  0  0  0  0  0  0  0
  151.5349  135.2234  157.0958 H   0  0  0  0  0  0  0  0  0  0  0  0
  149.8737  135.6113  156.6560 H   0  0  0  0  0  0  0  0  0  0  0  0
  1  2  1  0  0  0  0
  1 24  1  0  0  0  0
  1 25  1  0  0  0  0
  1 26  1  0  0  0  0
  2 23  1  0  0  0  0
  2  3  1  0  0  0  0
  2 27  1  0  0  0  0
  3  4  1  0  0  0  0
  3 28  1  0  0  0  0
  3 29  1  0  0  0  0
  4  5  1  0  0  0  0
  4 20  1  0  0  0  0
  5  6  1  0  0  0  0
  5 30  1  0  0  0  0
  5 31  1  0  0  0  0
  6  7  1  0  0  0  0
  6  8  1  0  0  0  0
  6 32  1  0  0  0  0
  7 33  1  0  0  0  0
  8  9  1  0  0  0  0
  8 34  1  0  0  0  0
  8 35  1  0  0  0  0
  9 19  1  0  0  0  0
  9 10  1  0  0  0  0
 10 11  2  0  0  0  0
 10 36  1  0  0  0  0
 11 12  1  0  0  0  0
 12 19  2  0  0  0  0
 12 13  1  0  0  0  0
 13 14  2  0  0  0  0
 13 37  1  0  0  0  0
 14 15  1  0  0  0  0
 14 16  1  0  0  0  0
 16 17  1  0  0  0  0
 16 18  2  0  0  0  0
 18 19  1  0  0  0  0
 18 38  1  0  0  0  0
 20 21  1  0  0  0  0
 20 39  1  0  0  0  0
 20 40  1  0  0  0  0
 21 22  1  0  0  0  0
 21 23  1  0  0  0  0
 21 41  1  0  0  0  0
 22 42  1  0  0  0  0
 22 43  1  0  0  0  0
 22 44  1  0  0  0  0
M  END
> <s_m_source_file>
AV-unprocessed.smi

> <i_m_source_file_index>
1824

> <i_lp_mmshare_version>
43012

> <i_f3d_flags>
0

> <s_epik_input>
W0NIM11bQ0BASF0xW0NIMl1OKFtDSDJdW0NASF0oTzEpW0NIM10pW0NIMl1bQ0BIXShbT0hdKVtDSDJdbihbY0hdbjIpYyhjMjMpW2NIXWMoRiljKEYpW2NIXTM=

> <s_epik_cmdline>
J2VwaWtfcHl0aG9uJywgJy1waCcsICc3LjAnLCAnLXRuJywgJzgnLCAnLW1hJywgJzIwMCcsICctbWV0YWxfYmluZGluZycsICctaW1hZScsICc8aW5maWxlLm1hZT4nLCAnLW9tYWUnLCAnPG91dGZpbGUubWFlPic=

> <r_epik_Ionization_Penalty>
0.273778

> <r_epik_Ionization_Penalty_Charging>
0

> <r_epik_Ionization_Penalty_Neutral>
0.273778

> <r_epik_State_Penalty>
0.246794

> <r_epik_Charging_Adjusted_Penalty>
0.246794

> <i_epik_Tot_Q>
0

> <i_epik_Tot_abs_Q>
0

> <r_epik_Metal_State_Penalty>
0.238234

> <b_epik_Metal_Only>
0

> <s_lp_Force_Field>
OPLS_2005

> <r_lp_Energy>
29.8683

> <b_lp_Chiralities_Consistent>
1

> <s_lp_Variant>
AV-unprocessed.smi:1824-1

> <Gold.Version>
5.8.1

> <Gold.Id.Protein>
6NUR|6NUR_protein|mol2

> <Gold.PLP.Fitness>
58.5878

> <Gold.PLP.PLP>
-50.0365

> <Gold.PLP.part.hbond>
-2.0000

> <Gold.PLP.part.metal>
0.0000

> <Gold.PLP.part.buried>
-4.8818

> <Gold.PLP.part.nonpolar>
-42.9423

> <Gold.PLP.part.repulsive>
0.2660

> <Gold.PLP.ligand.clash>
0.0113

> <Gold.PLP.ligand.torsion>
0.3894

> <Gold.PLP.Chemscore.Hbond>
1.9920

> <Gold.PLP.Chemscore.CHOScore>
1.1143

> <Gold.PLP.Chemscore.Metal>
0.0000

> <Gold.Chemscore.Hbonds>
donor molecule, donor type, donor heavy atom, donor atom, acceptor molecule, acceptor atom, score
      L1  H     7    33       P1  8028  0.99
      P1  H 10752 10764       L1    23  1.00
      L1  C    10    36       P1  8028  0.47
      L1  C    10    36       P1  8029  0.67

> <Gold.PLP.Chemscore.Internal.Correction>
0.0224

> <Gold.Rescore>
     Score         DG    S(hbond)    S(metal)    S(lipo)     H(rot)  DE(clash)    DE(int)     intcor
     18.32     -18.92       1.56        0.00     119.81       2.26       0.21       0.39       ----

> <Gold.Chemscore.Fitness>
18.3245

> <Gold.Chemscore.DG>
-18.9243

> <Gold.Chemscore.ZeroCoef>
-5.4800

> <Gold.Chemscore.Hbond>
1.5620

> <Gold.Chemscore.Metal>
0.0000

> <Gold.Chemscore.Lipo>
119.8101

> <Gold.Chemscore.Internal_Hbond>
0.0000

> <Gold.Chemscore.DEClash>
0.2062

> <Gold.Chemscore.DEInternal>
0.3937

> <Gold.Chemscore.Rot>
2.2619

> <Gold.Chemscore.Internal.Correction>
   9.000000E+99

> <Gold.Chemscore.Hbonds>
donor molecule, donor type, donor heavy atom, donor atom, acceptor molecule, acceptor atom, score
      L1  H     7    33       P1  8028  0.92
      P1  H 10752 10764       L1    23  0.32

> <Gold.Chemscore.Hbond.Weighted>
-5.2170

> <Gold.Chemscore.Metal.Weighted>
-0.0000

> <Gold.Chemscore.Lipo.Weighted>
-14.0178

> <Gold.Chemscore.Internal_Hbond.Weighted>
0.0000

> <Gold.Chemscore.DEClash.Weighted>
0.2062

> <Gold.Chemscore.DEInternal.Weighted>
0.3937

> <Gold.Chemscore.Rot.Weighted>
5.7904

> <Gold.Chemscore.Internal.Correction.Weighted>
   9.000000E+99

> <Gold.Protein.RotatedTorsions>
[ 6907 6896 6895 6894 ] final  169.19 input  -60.11 | X-H torsion
[ 7974 7965 7964 7962 ] final  -76.33 input  175.53 | X-H torsion
[ 8008 7997 7996 7995 ] final  162.65 input   59.86 | X-H torsion
[ 10167 10162 10161 10158 ] final  159.76 input  -65.29 | X-H torsion
[ 10718 10713 10712 10709 ] final  170.62 input   66.30 | X-H torsion
[ 10763 10752 10751 10750 ] final  -57.15 input  -60.55 | X-H torsion
[ 11005 11000 10999 10996 ] final  118.31 input  -57.11 | X-H torsion

> <Gold.Protein.ActiveResidues>
 VAL166  LYS551  ARG553  GLY616  TRP617  ASP618  TYR619  PRO620  LYS621  CYS622 
 ASP623  PHE694  ASN695  SER759  ASP760  ASP761  ALA762  ILE779  LEU786  VAL792 
 PHE793  MET794  SER795  GLU796  ALA797  LYS798  CYS799  TRP800  GLU811  SER814 

> <Gold.Protein.RotatedAtoms>
  151.8358  133.3415  159.3627 H   0  0  0  0  0  0  0  0  0  0  0  0  # atno 6907 bound_to 6896
  150.7250  134.5439  159.5770 H   0  0  0  0  0  0  0  0  0  0  0  0  # atno 6908 bound_to 6896
  152.2902  134.7731  160.0430 H   0  0  0  0  0  0  0  0  0  0  0  0  # atno 6909 bound_to 6896
  145.6143  140.9379  143.1173 H   0  0  0  0  0  0  0  0  0  0  0  0  # atno 7974 bound_to 7965
  156.2016  140.1744  156.7888 H   0  0  0  0  0  0  0  0  0  0  0  0  # atno 8008 bound_to 7997
  154.5599  140.0701  156.8833 H   0  0  0  0  0  0  0  0  0  0  0  0  # atno 8009 bound_to 7997
  155.2868  140.3352  155.4257 H   0  0  0  0  0  0  0  0  0  0  0  0  # atno 8010 bound_to 7997
  139.4835  144.4699  151.8590 H   0  0  0  0  0  0  0  0  0  0  0  0  # atno 10167 bound_to 10162
  157.0055  131.0188  151.2818 H   0  0  0  0  0  0  0  0  0  0  0  0  # atno 10718 bound_to 10713
  154.2179  135.6383  153.5135 H   0  0  0  0  0  0  0  0  0  0  0  0  # atno 10763 bound_to 10752
  152.9975  135.5489  154.6146 H   0  0  0  0  0  0  0  0  0  0  0  0  # atno 10764 bound_to 10752
  154.5599  135.2908  155.0903 H   0  0  0  0  0  0  0  0  0  0  0  0  # atno 10765 bound_to 10752
  139.9105  134.9619  156.7483 H   0  0  0  0  0  0  0  0  0  0  0  0  # atno 11005 bound_to 11000
  144.7257  139.7883  143.7366 LP  0  0  0  0  0  0  0  0  0  0  0  0  # atno 17320 bound_to 7965
  146.1481  139.4555  143.0066 LP  0  0  0  0  0  0  0  0  0  0  0  0  # atno 17321 bound_to 7965
  140.4167  144.2297  150.5887 LP  0  0  0  0  0  0  0  0  0  0  0  0  # atno 17342 bound_to 10162
  140.4914  143.2346  151.8813 LP  0  0  0  0  0  0  0  0  0  0  0  0  # atno 17343 bound_to 10162
  157.5359  130.8088  149.7971 LP  0  0  0  0  0  0  0  0  0  0  0  0  # atno 17370 bound_to 10713
  156.0155  130.3815  150.2124 LP  0  0  0  0  0  0  0  0  0  0  0  0  # atno 17371 bound_to 10713
  140.6794  133.9488  155.7901 LP  0  0  0  0  0  0  0  0  0  0  0  0  # atno 17394 bound_to 11000
  141.0521  134.0469  157.3770 LP  0  0  0  0  0  0  0  0  0  0  0  0  # atno 17395 bound_to 11000

$$$$
