AV-unprocessed.smi:2616|AV-procd|sdf|10216|dock5
  -GOLD-   2272014223D 1   1.00000     0.00000
 Structure written by MMmdl.
 26 27  0  0  0  0  0  0  0  0  2 V2000
  152.2271  137.3786  155.4781 O   0  0  0  0  0  0  0  0  0  0  0  0
  151.9731  138.5892  155.6579 C   0  0  0  0  0  0  0  0  0  0  0  0
  152.7977  139.3355  156.2347 O   0  5  0  0  0  0  0  0  0  0  0  0
  150.6621  139.1903  155.1883 C   0  0  0  0  0  0  0  0  0  0  0  0
  150.6461  140.5457  155.1659 N   0  0  0  0  0  0  0  0  0  0  0  0
  149.5374  141.1919  154.7676 C   0  0  0  0  0  0  0  0  0  0  0  0
  148.3682  140.5312  154.3632 C   0  0  0  0  0  0  0  0  0  0  0  0
  146.9934  141.4576  153.8673 Cl  0  0  0  0  0  0  0  0  0  0  0  0
  148.3507  139.1191  154.3740 C   0  0  0  0  0  0  0  0  0  0  0  0
  147.1700  138.4741  153.9664 N   0  0  0  0  0  0  0  0  0  0  0  0
  146.0876  138.3942  154.9364 C   0  0  0  0  0  0  0  0  0  0  0  0
  145.0673  137.3381  154.4775 C   0  0  0  0  0  0  0  0  0  0  0  0
  144.6317  137.6328  153.1518 O   0  0  0  0  0  0  0  0  0  0  0  0
  145.7048  137.6080  152.2127 C   0  0  0  0  0  0  0  0  0  0  0  0
  146.7485  138.6742  152.5877 C   0  0  0  0  0  0  0  0  0  0  0  0
  149.5197  138.4220  154.7949 C   0  0  0  0  0  0  0  0  0  0  0  0
  149.5118  136.6839  154.8106 Cl  0  0  0  0  0  0  0  0  0  0  0  0
  149.5861  142.2709  154.7723 H   0  0  0  0  0  0  0  0  0  0  0  0
  146.4831  138.1362  155.9194 H   0  0  0  0  0  0  0  0  0  0  0  0
  145.5945  139.3614  155.0288 H   0  0  0  0  0  0  0  0  0  0  0  0
  145.5018  136.3379  154.5127 H   0  0  0  0  0  0  0  0  0  0  0  0
  144.2047  137.3341  155.1438 H   0  0  0  0  0  0  0  0  0  0  0  0
  146.1561  136.6147  152.1892 H   0  0  0  0  0  0  0  0  0  0  0  0
  145.3110  137.8023  151.2151 H   0  0  0  0  0  0  0  0  0  0  0  0
  146.3153  139.6666  152.4686 H   0  0  0  0  0  0  0  0  0  0  0  0
  147.6088  138.6127  151.9202 H   0  0  0  0  0  0  0  0  0  0  0  0
  1  2  2  0  0  0  0
  2  3  1  0  0  0  0
  2  4  1  0  0  0  0
  4 16  1  0  0  0  0
  4  5  2  0  0  0  0
  5  6  1  0  0  0  0
  6  7  2  0  0  0  0
  6 18  1  0  0  0  0
  7  8  1  0  0  0  0
  7  9  1  0  0  0  0
  9 10  1  0  0  0  0
  9 16  2  0  0  0  0
 10 15  1  0  0  0  0
 10 11  1  0  0  0  0
 11 12  1  0  0  0  0
 11 19  1  0  0  0  0
 11 20  1  0  0  0  0
 12 13  1  0  0  0  0
 12 21  1  0  0  0  0
 12 22  1  0  0  0  0
 13 14  1  0  0  0  0
 14 15  1  0  0  0  0
 14 23  1  0  0  0  0
 14 24  1  0  0  0  0
 15 25  1  0  0  0  0
 15 26  1  0  0  0  0
 16 17  1  0  0  0  0
M  CHG  1   3  -1
M  END
> <s_m_source_file>
AV-unprocessed.smi

> <i_m_source_file_index>
2616

> <i_lp_mmshare_version>
43012

> <i_f3d_flags>
0

> <s_epik_input>
Tz1DKFtPSF0pYzFuW2NIXWMoQ2wpYyhjMUNsKU4yW0NIMl1bQ0gyXU9bQ0gyXVtDSDJdMg==

> <s_epik_cmdline>
J2VwaWtfcHl0aG9uJywgJy1waCcsICc3LjAnLCAnLXRuJywgJzgnLCAnLW1hJywgJzIwMCcsICctbWV0YWxfYmluZGluZycsICctaW1hZScsICc8aW5maWxlLm1hZT4nLCAnLW9tYWUnLCAnPG91dGZpbGUubWFlPic=

> <r_epik_Ionization_Penalty>
0.00232884

> <r_epik_Ionization_Penalty_Charging>
7.03121e-06

> <r_epik_Ionization_Penalty_Neutral>
0.00232181

> <r_epik_State_Penalty>
0.00160212

> <r_epik_Charging_Adjusted_Penalty>
0.00160915

> <i_epik_Tot_Q>
-1

> <i_epik_Tot_abs_Q>
1

> <r_epik_Metal_State_Penalty>
-0

> <b_epik_Metal_Only>
0

> <s_lp_Force_Field>
OPLS_2005

> <r_lp_Energy>
33.645

> <b_lp_Chiralities_Consistent>
1

> <s_lp_Variant>
AV-unprocessed.smi:2616-1

> <Gold.Version>
5.8.1

> <Gold.Id.Protein>
6NUR|6NUR_protein|mol2

> <Gold.PLP.Fitness>
38.5285

> <Gold.PLP.PLP>
-24.3966

> <Gold.PLP.part.hbond>
-3.0000

> <Gold.PLP.part.metal>
0.0000

> <Gold.PLP.part.buried>
-1.0432

> <Gold.PLP.part.nonpolar>
-22.5422

> <Gold.PLP.part.repulsive>
0.4707

> <Gold.PLP.ligand.clash>
0.0000

> <Gold.PLP.ligand.torsion>
0.3793

> <Gold.PLP.Chemscore.Hbond>
4.2131

> <Gold.PLP.Chemscore.CHOScore>
0.5926

> <Gold.PLP.Chemscore.Metal>
0.0000

> <Gold.Chemscore.Hbonds>
donor molecule, donor type, donor heavy atom, donor atom, acceptor molecule, acceptor atom, score
      P1  H  7989  7998       L1     5  0.68
      P1  H  7997  8009       L1     3  2.00
      P1  H 10752 10763       L1     1  1.25
      L1  C     6    18       P1  8028  0.61

> <Gold.PLP.Chemscore.Internal.Correction>
0.4736

> <Gold.Rescore>
     Score         DG    S(hbond)    S(metal)    S(lipo)     H(rot)  DE(clash)    DE(int)     intcor
     13.10     -15.29       1.67        0.00      58.01       1.00       0.56       1.63       ----

> <Gold.Chemscore.Fitness>
13.0972

> <Gold.Chemscore.DG>
-15.2862

> <Gold.Chemscore.ZeroCoef>
-5.4800

> <Gold.Chemscore.Hbond>
1.6705

> <Gold.Chemscore.Metal>
0.0000

> <Gold.Chemscore.Lipo>
58.0055

> <Gold.Chemscore.Internal_Hbond>
0.0000

> <Gold.Chemscore.DEClash>
0.5574

> <Gold.Chemscore.DEInternal>
1.6316

> <Gold.Chemscore.Rot>
1.0000

> <Gold.Chemscore.Internal.Correction>
   9.000000E+99

> <Gold.Chemscore.Hbonds>
donor molecule, donor type, donor heavy atom, donor atom, acceptor molecule, acceptor atom, score
      P1  H  7989  7998       L1     5  0.02
      P1  H  7997  8009       L1     3  1.00
      P1  H 10752 10763       L1     1  0.61

> <Gold.Chemscore.Hbond.Weighted>
-5.5795

> <Gold.Chemscore.Metal.Weighted>
-0.0000

> <Gold.Chemscore.Lipo.Weighted>
-6.7866

> <Gold.Chemscore.Internal_Hbond.Weighted>
0.0000

> <Gold.Chemscore.DEClash.Weighted>
0.5574

> <Gold.Chemscore.DEInternal.Weighted>
1.6316

> <Gold.Chemscore.Rot.Weighted>
2.5600

> <Gold.Chemscore.Internal.Correction.Weighted>
   9.000000E+99

> <Gold.Protein.RotatedTorsions>
[ 6907 6896 6895 6894 ] final  137.53 input  -60.11 | X-H torsion
[ 7974 7965 7964 7962 ] final -129.22 input  175.53 | X-H torsion
[ 8008 7997 7996 7995 ] final -167.01 input   59.86 | X-H torsion
[ 10167 10162 10161 10158 ] final  -52.54 input  -65.29 | X-H torsion
[ 10718 10713 10712 10709 ] final   46.57 input   66.30 | X-H torsion
[ 10763 10752 10751 10750 ] final   60.93 input  -60.55 | X-H torsion
[ 11005 11000 10999 10996 ] final   69.35 input  -57.11 | X-H torsion

> <Gold.Protein.ActiveResidues>
 VAL166  LYS551  ARG553  GLY616  TRP617  ASP618  TYR619  PRO620  LYS621  CYS622 
 ASP623  PHE694  ASN695  SER759  ASP760  ASP761  ALA762  ILE779  LEU786  VAL792 
 PHE793  MET794  SER795  GLU796  ALA797  LYS798  CYS799  TRP800  GLU811  SER814 

> <Gold.Protein.RotatedAtoms>
  152.2770  133.5435  159.5474 H   0  0  0  0  0  0  0  0  0  0  0  0  # atno 6907 bound_to 6896
  150.7181  134.0617  159.3842 H   0  0  0  0  0  0  0  0  0  0  0  0  # atno 6908 bound_to 6896
  151.8529  135.0551  160.0512 H   0  0  0  0  0  0  0  0  0  0  0  0  # atno 6909 bound_to 6896
  144.9593  140.7430  143.4739 H   0  0  0  0  0  0  0  0  0  0  0  0  # atno 7974 bound_to 7965
  155.8718  140.0994  157.1545 H   0  0  0  0  0  0  0  0  0  0  0  0  # atno 8008 bound_to 7997
  154.3997  140.1345  156.4150 H   0  0  0  0  0  0  0  0  0  0  0  0  # atno 8009 bound_to 7997
  155.7742  140.3460  155.5265 H   0  0  0  0  0  0  0  0  0  0  0  0  # atno 8010 bound_to 7997
  140.6532  143.2580  151.4662 H   0  0  0  0  0  0  0  0  0  0  0  0  # atno 10167 bound_to 10162
  157.4495  130.8129  149.7774 H   0  0  0  0  0  0  0  0  0  0  0  0  # atno 10718 bound_to 10713
  152.9935  135.5519  154.5952 H   0  0  0  0  0  0  0  0  0  0  0  0  # atno 10763 bound_to 10752
  154.5305  135.2813  155.1186 H   0  0  0  0  0  0  0  0  0  0  0  0  # atno 10764 bound_to 10752
  154.2503  135.6400  153.5290 H   0  0  0  0  0  0  0  0  0  0  0  0  # atno 10765 bound_to 10752
  139.9659  134.6982  156.0548 H   0  0  0  0  0  0  0  0  0  0  0  0  # atno 11005 bound_to 11000
  145.2724  139.1949  143.4834 LP  0  0  0  0  0  0  0  0  0  0  0  0  # atno 17320 bound_to 7965
  146.3348  140.2672  142.8604 LP  0  0  0  0  0  0  0  0  0  0  0  0  # atno 17321 bound_to 7965
  139.5750  144.1839  152.1891 LP  0  0  0  0  0  0  0  0  0  0  0  0  # atno 17342 bound_to 10162
  140.1147  144.5426  150.6902 LP  0  0  0  0  0  0  0  0  0  0  0  0  # atno 17343 bound_to 10162
  155.9981  130.3896  150.2715 LP  0  0  0  0  0  0  0  0  0  0  0  0  # atno 17370 bound_to 10713
  157.0885  131.0163  151.3130 LP  0  0  0  0  0  0  0  0  0  0  0  0  # atno 17371 bound_to 10713
  141.1338  133.6580  156.3537 LP  0  0  0  0  0  0  0  0  0  0  0  0  # atno 17394 bound_to 11000
  140.5399  134.6131  157.5376 LP  0  0  0  0  0  0  0  0  0  0  0  0  # atno 17395 bound_to 11000

$$$$
