AV-unprocessed.smi:2526|AV-procd|sdf|9941|dock7
  -GOLD-   2272013583D 1   1.00000     0.00000
 Structure written by MMmdl.
 28 29  0  0  0  0  0  0  0  0  1 V2000
  151.9006  145.5999  159.4914 C   0  0  0  0  0  0  0  0  0  0  0  0
  151.6896  144.2529  159.0062 N   0  0  0  0  0  0  0  0  0  0  0  0
  150.6155  143.7518  158.3039 C   0  0  0  0  0  0  0  0  0  0  0  0
  150.8561  142.4257  158.0688 C   0  0  0  0  0  0  0  0  0  0  0  0
  150.0057  141.4113  157.3400 C   0  0  1  0  0  0  0  0  0  0  0  0
  149.6418  141.9025  156.0069 N   0  0  0  0  0  0  0  0  0  0  0  0
  149.5592  141.1870  154.8709 C   0  0  0  0  0  0  0  0  0  0  0  0
  149.1956  141.7000  153.8152 O   0  0  0  0  0  0  0  0  0  0  0  0
  149.9590  139.7047  154.8907 C   0  0  0  0  0  0  0  0  0  0  0  0
  149.9797  139.1009  156.3025 C   0  0  0  0  0  0  0  0  0  0  0  0
  150.7089  140.0342  157.2755 C   0  0  2  0  0  0  0  0  0  0  0  0
  150.7727  139.4186  158.5889 N   0  0  0  0  0  0  0  0  0  0  0  0
  152.1275  142.2149  158.6772 C   0  0  0  0  0  0  0  0  0  0  0  0
  152.6210  143.3063  159.2386 N   0  0  0  0  0  0  0  0  0  0  0  0
  151.2744  146.2982  158.9351 H   0  0  0  0  0  0  0  0  0  0  0  0
  152.9455  145.8856  159.3642 H   0  0  0  0  0  0  0  0  0  0  0  0
  151.6403  145.6527  160.5488 H   0  0  0  0  0  0  0  0  0  0  0  0
  149.7757  144.3742  158.0312 H   0  0  0  0  0  0  0  0  0  0  0  0
  149.0576  141.2858  157.8655 H   0  0  0  0  0  0  0  0  0  0  0  0
  149.3908  142.8790  155.9501 H   0  0  0  0  0  0  0  0  0  0  0  0
  149.2834  139.1358  154.2510 H   0  0  0  0  0  0  0  0  0  0  0  0
  150.9516  139.6249  154.4463 H   0  0  0  0  0  0  0  0  0  0  0  0
  148.9575  138.9260  156.6425 H   0  0  0  0  0  0  0  0  0  0  0  0
  150.4684  138.1263  156.2724 H   0  0  0  0  0  0  0  0  0  0  0  0
  151.7321  140.1689  156.9217 H   0  0  0  0  0  0  0  0  0  0  0  0
  149.8407  139.3290  158.9678 H   0  0  0  0  0  0  0  0  0  0  0  0
  151.1390  138.4810  158.5061 H   0  0  0  0  0  0  0  0  0  0  0  0
  152.7025  141.3021  158.7275 H   0  0  0  0  0  0  0  0  0  0  0  0
  1  2  1  0  0  0  0
  1 15  1  0  0  0  0
  1 16  1  0  0  0  0
  1 17  1  0  0  0  0
  2 14  1  0  0  0  0
  2  3  1  0  0  0  0
  3  4  2  0  0  0  0
  3 18  1  0  0  0  0
  4  5  1  0  0  0  0
  4 13  1  0  0  0  0
  5 11  1  0  0  0  0
  5  6  1  0  0  0  0
  5 19  1  0  0  0  0
  6  7  1  0  0  0  0
  6 20  1  0  0  0  0
  7  8  2  0  0  0  0
  7  9  1  0  0  0  0
  9 10  1  0  0  0  0
  9 21  1  0  0  0  0
  9 22  1  0  0  0  0
 10 11  1  0  0  0  0
 10 23  1  0  0  0  0
 10 24  1  0  0  0  0
 11 12  1  0  0  0  0
 11 25  1  0  0  0  0
 12 26  1  0  0  0  0
 12 27  1  0  0  0  0
 13 14  2  0  0  0  0
 13 28  1  0  0  0  0
M  END
> <s_m_source_file>
AV-unprocessed.smi

> <i_m_source_file_index>
2526

> <i_lp_mmshare_version>
43012

> <i_f3d_flags>
0

> <s_epik_input>
W0NIM11uMVtjSF1jKFtjSF1uMSlbQ0BASF0yW05IXUMoPU8pW0NIMl1bQ0gyXVtDQEhdMltOSDJd

> <s_epik_cmdline>
J2VwaWtfcHl0aG9uJywgJy1waCcsICc3LjAnLCAnLXRuJywgJzgnLCAnLW1hJywgJzIwMCcsICctbWV0YWxfYmluZGluZycsICctaW1hZScsICc8aW5maWxlLm1hZT4nLCAnLW9tYWUnLCAnPG91dGZpbGUubWFlPic=

> <r_lp_tautomer_probability>
1

> <r_epik_Ionization_Penalty>
2.50279

> <r_epik_Ionization_Penalty_Charging>
0

> <r_epik_Ionization_Penalty_Neutral>
2.50279

> <r_epik_State_Penalty>
2.66754

> <r_epik_Charging_Adjusted_Penalty>
2.66754

> <i_epik_Tot_Q>
0

> <i_epik_Tot_abs_Q>
0

> <r_epik_Metal_State_Penalty>
2.66721

> <b_epik_Metal_Only>
0

> <s_lp_Force_Field>
OPLS_2005

> <r_lp_Energy>
8.34042

> <b_lp_Chiralities_Consistent>
1

> <s_lp_Variant>
AV-unprocessed.smi:2526-8

> <Gold.Version>
5.8.1

> <Gold.Id.Protein>
6NUR|6NUR_protein|mol2

> <Gold.PLP.Fitness>
35.6869

> <Gold.PLP.PLP>
-27.3931

> <Gold.PLP.part.hbond>
-3.0000

> <Gold.PLP.part.metal>
0.0000

> <Gold.PLP.part.buried>
-2.6057

> <Gold.PLP.part.nonpolar>
-21.2565

> <Gold.PLP.part.repulsive>
0.3146

> <Gold.PLP.ligand.clash>
0.0000

> <Gold.PLP.ligand.torsion>
0.0507

> <Gold.PLP.Chemscore.Hbond>
1.6400

> <Gold.PLP.Chemscore.CHOScore>
1.1497

> <Gold.PLP.Chemscore.Metal>
0.0000

> <Gold.Chemscore.Hbonds>
donor molecule, donor type, donor heavy atom, donor atom, acceptor molecule, acceptor atom, score
      L1  H     6    20       P1  8028  1.00
      P1  H  8011  8017       L1     8  0.64
      L1  C     3    18       P1  8028  0.61
      L1  C     3    18       P1  8029  0.54

> <Gold.PLP.Chemscore.Internal.Correction>
0.0260

> <Gold.Rescore>
     Score         DG    S(hbond)    S(metal)    S(lipo)     H(rot)  DE(clash)    DE(int)     intcor
     15.07     -15.31       1.74        0.00      56.33       1.00       0.20       0.04       ----

> <Gold.Chemscore.Fitness>
15.0717

> <Gold.Chemscore.DG>
-15.3097

> <Gold.Chemscore.ZeroCoef>
-5.4800

> <Gold.Chemscore.Hbond>
1.7363

> <Gold.Chemscore.Metal>
0.0000

> <Gold.Chemscore.Lipo>
56.3298

> <Gold.Chemscore.Internal_Hbond>
0.0000

> <Gold.Chemscore.DEClash>
0.1983

> <Gold.Chemscore.DEInternal>
0.0398

> <Gold.Chemscore.Rot>
1.0000

> <Gold.Chemscore.Internal.Correction>
   9.000000E+99

> <Gold.Chemscore.Hbonds>
donor molecule, donor type, donor heavy atom, donor atom, acceptor molecule, acceptor atom, score
      L1  H     6    20       P1  8028  0.99
      P1  H  8011  8017       L1     8  0.64

> <Gold.Chemscore.Hbond.Weighted>
-5.7991

> <Gold.Chemscore.Metal.Weighted>
-0.0000

> <Gold.Chemscore.Lipo.Weighted>
-6.5906

> <Gold.Chemscore.Internal_Hbond.Weighted>
0.0000

> <Gold.Chemscore.DEClash.Weighted>
0.1983

> <Gold.Chemscore.DEInternal.Weighted>
0.0398

> <Gold.Chemscore.Rot.Weighted>
2.5600

> <Gold.Chemscore.Internal.Correction.Weighted>
   9.000000E+99

> <Gold.Protein.RotatedTorsions>
[ 6907 6896 6895 6894 ] final  138.77 input  -60.11 | X-H torsion
[ 7974 7965 7964 7962 ] final    0.18 input  175.53 | X-H torsion
[ 8008 7997 7996 7995 ] final   56.95 input   59.86 | X-H torsion
[ 10167 10162 10161 10158 ] final  132.79 input  -65.29 | X-H torsion
[ 10718 10713 10712 10709 ] final   58.04 input   66.30 | X-H torsion
[ 10763 10752 10751 10750 ] final   98.74 input  -60.55 | X-H torsion
[ 11005 11000 10999 10996 ] final  107.49 input  -57.11 | X-H torsion

> <Gold.Protein.ActiveResidues>
 VAL166  LYS551  ARG553  GLY616  TRP617  ASP618  TYR619  PRO620  LYS621  CYS622 
 ASP623  PHE694  ASN695  SER759  ASP760  ASP761  ALA762  ILE779  LEU786  VAL792 
 PHE793  MET794  SER795  GLU796  ALA797  LYS798  CYS799  TRP800  GLU811  SER814 

> <Gold.Protein.RotatedAtoms>
  152.2627  133.5312  159.5391 H   0  0  0  0  0  0  0  0  0  0  0  0  # atno 6907 bound_to 6896
  150.7131  134.0807  159.3906 H   0  0  0  0  0  0  0  0  0  0  0  0  # atno 6908 bound_to 6896
  151.8724  135.0484  160.0531 H   0  0  0  0  0  0  0  0  0  0  0  0  # atno 6909 bound_to 6896
  146.2432  140.1177  142.8341 H   0  0  0  0  0  0  0  0  0  0  0  0  # atno 7974 bound_to 7965
  155.5258  140.3481  155.4416 H   0  0  0  0  0  0  0  0  0  0  0  0  # atno 8008 bound_to 7997
  156.0752  140.1373  156.9807 H   0  0  0  0  0  0  0  0  0  0  0  0  # atno 8009 bound_to 7997
  154.4549  140.0957  156.6705 H   0  0  0  0  0  0  0  0  0  0  0  0  # atno 8010 bound_to 7997
  139.5324  144.6645  151.4903 H   0  0  0  0  0  0  0  0  0  0  0  0  # atno 10167 bound_to 10162
  157.5564  130.8803  149.9042 H   0  0  0  0  0  0  0  0  0  0  0  0  # atno 10718 bound_to 10713
  153.2928  135.4137  155.1182 H   0  0  0  0  0  0  0  0  0  0  0  0  # atno 10763 bound_to 10752
  154.8526  135.3522  154.5958 H   0  0  0  0  0  0  0  0  0  0  0  0  # atno 10764 bound_to 10752
  153.6381  135.7058  153.5309 H   0  0  0  0  0  0  0  0  0  0  0  0  # atno 10765 bound_to 10752
  139.8829  134.9402  156.5828 H   0  0  0  0  0  0  0  0  0  0  0  0  # atno 11005 bound_to 11000
  145.0433  140.8962  143.5039 LP  0  0  0  0  0  0  0  0  0  0  0  0  # atno 17320 bound_to 7965
  145.1261  139.2662  143.5563 LP  0  0  0  0  0  0  0  0  0  0  0  0  # atno 17321 bound_to 7965
  140.6511  143.8695  150.6786 LP  0  0  0  0  0  0  0  0  0  0  0  0  # atno 17342 bound_to 10162
  140.2060  143.3921  152.1755 LP  0  0  0  0  0  0  0  0  0  0  0  0  # atno 17343 bound_to 10162
  156.0622  130.3698  150.0956 LP  0  0  0  0  0  0  0  0  0  0  0  0  # atno 17370 bound_to 10713
  156.9124  130.9656  151.3561 LP  0  0  0  0  0  0  0  0  0  0  0  0  # atno 17371 bound_to 10713
  140.8014  133.8502  155.8730 LP  0  0  0  0  0  0  0  0  0  0  0  0  # atno 17394 bound_to 11000
  140.9589  134.1682  157.4670 LP  0  0  0  0  0  0  0  0  0  0  0  0  # atno 17395 bound_to 11000

$$$$
