AV-unprocessed.smi:2837|AV-procd|sdf|10921|dock6
  -GOLD-   2272015373D 1   1.00000     0.00000
 Structure written by MMmdl.
 32 34  0  0  0  0  0  0  0  0  1 V2000
  153.3608  143.0148  163.1934 F   0  0  0  0  0  0  0  0  0  0  0  0
  152.6743  142.7694  162.0515 C   0  0  0  0  0  0  0  0  0  0  0  0
  152.1225  143.9395  161.6463 F   0  0  0  0  0  0  0  0  0  0  0  0
  153.5199  142.2889  161.1016 O   0  0  0  0  0  0  0  0  0  0  0  0
  153.0069  141.5599  160.0531 C   0  0  0  0  0  0  0  0  0  0  0  0
  153.2058  140.1685  159.8925 C   0  0  0  0  0  0  0  0  0  0  0  0
  152.6236  139.5172  158.7882 C   0  0  0  0  0  0  0  0  0  0  0  0
  151.8532  140.2726  157.8805 C   0  0  0  0  0  0  0  0  0  0  0  0
  151.2822  139.6184  156.7796 N   0  0  0  0  0  0  0  0  0  0  0  0
  150.9737  140.3387  155.5478 C   0  0  1  0  0  0  0  0  0  0  0  0
  150.1486  139.5096  154.5610 C   0  0  0  0  0  0  0  0  0  0  0  0
  148.9556  140.4366  154.2895 C   0  0  1  0  0  0  0  0  0  0  0  0
  147.9851  140.4674  155.4775 C   0  0  0  0  0  0  0  0  0  0  0  0
  148.7700  141.2889  156.4983 C   0  0  0  0  0  0  0  0  0  0  0  0
  150.0755  141.5782  155.7380 C   0  0  2  0  0  0  0  0  0  0  0  0
  149.5671  141.7092  154.4209 O   0  0  0  0  0  0  0  0  0  0  0  0
  151.6517  141.6021  158.0334 N   0  0  0  0  0  0  0  0  0  0  0  0
  152.2113  142.2199  159.0950 C   0  0  0  0  0  0  0  0  0  0  0  0
  151.8834  142.0562  162.2851 H   0  0  0  0  0  0  0  0  0  0  0  0
  153.7890  139.5975  160.5996 H   0  0  0  0  0  0  0  0  0  0  0  0
  152.7656  138.4556  158.6463 H   0  0  0  0  0  0  0  0  0  0  0  0
  150.8861  138.6983  156.9066 H   0  0  0  0  0  0  0  0  0  0  0  0
  151.9031  140.6334  155.0580 H   0  0  0  0  0  0  0  0  0  0  0  0
  150.7193  139.3338  153.6486 H   0  0  0  0  0  0  0  0  0  0  0  0
  149.8329  138.5415  154.9527 H   0  0  0  0  0  0  0  0  0  0  0  0
  148.4717  140.2649  153.3278 H   0  0  0  0  0  0  0  0  0  0  0  0
  147.0575  140.9747  155.2102 H   0  0  0  0  0  0  0  0  0  0  0  0
  147.7379  139.4682  155.8378 H   0  0  0  0  0  0  0  0  0  0  0  0
  148.2439  142.2181  156.7199 H   0  0  0  0  0  0  0  0  0  0  0  0
  148.9286  140.7628  157.4399 H   0  0  0  0  0  0  0  0  0  0  0  0
  150.6071  142.4597  156.0970 H   0  0  0  0  0  0  0  0  0  0  0  0
  152.0215  143.2797  159.1810 H   0  0  0  0  0  0  0  0  0  0  0  0
  1  2  1  0  0  0  0
  2  3  1  0  0  0  0
  2  4  1  0  0  0  0
  2 19  1  0  0  0  0
  4  5  1  0  0  0  0
  5 18  1  0  0  0  0
  5  6  2  0  0  0  0
  6  7  1  0  0  0  0
  6 20  1  0  0  0  0
  7  8  2  0  0  0  0
  7 21  1  0  0  0  0
  8  9  1  0  0  0  0
  8 17  1  0  0  0  0
  9 10  1  0  0  0  0
  9 22  1  0  0  0  0
 10 15  1  0  0  0  0
 10 11  1  0  0  0  0
 10 23  1  0  0  0  0
 11 12  1  0  0  0  0
 11 24  1  0  0  0  0
 11 25  1  0  0  0  0
 12 16  1  0  0  0  0
 12 13  1  0  0  0  0
 12 26  1  0  0  0  0
 13 14  1  0  0  0  0
 13 27  1  0  0  0  0
 13 28  1  0  0  0  0
 14 15  1  0  0  0  0
 14 29  1  0  0  0  0
 14 30  1  0  0  0  0
 15 16  1  0  0  0  0
 15 31  1  0  0  0  0
 17 18  2  0  0  0  0
 18 32  1  0  0  0  0
M  END
> <s_m_source_file>
AV-unprocessed.smi

> <i_m_source_file_index>
2837

> <i_lp_mmshare_version>
43012

> <i_f3d_flags>
0

> <s_epik_input>
RltDSF0oRilPYzFbY0hdW2NIXWMobltjSF0xKVtOSF1bQ0BIXShbQ0gyXVtDQEBIXTIzKVtDQEBIXShPMylbQ0gyXVtDSDJdMg==

> <s_epik_cmdline>
J2VwaWtfcHl0aG9uJywgJy1waCcsICc3LjAnLCAnLXRuJywgJzgnLCAnLW1hJywgJzIwMCcsICctbWV0YWxfYmluZGluZycsICctaW1hZScsICc8aW5maWxlLm1hZT4nLCAnLW9tYWUnLCAnPG91dGZpbGUubWFlPic=

> <r_lp_tautomer_probability>
1

> <r_epik_Ionization_Penalty>
0.0124072

> <r_epik_Ionization_Penalty_Charging>
0

> <r_epik_Ionization_Penalty_Neutral>
0.0124072

> <r_epik_State_Penalty>
0.00959565

> <r_epik_Charging_Adjusted_Penalty>
0.00959565

> <i_epik_Tot_Q>
0

> <i_epik_Tot_abs_Q>
0

> <r_epik_Metal_State_Penalty>
9.67369e-06

> <b_epik_Metal_Only>
0

> <s_lp_Force_Field>
OPLS_2005

> <r_lp_Energy>
39.9144

> <b_lp_Chiralities_Consistent>
1

> <s_lp_Variant>
AV-unprocessed.smi:2837-2

> <Gold.Version>
5.8.1

> <Gold.Id.Protein>
6NUR|6NUR_protein|mol2

> <Gold.PLP.Fitness>
39.8525

> <Gold.PLP.PLP>
-39.9350

> <Gold.PLP.part.hbond>
-2.0000

> <Gold.PLP.part.metal>
0.0000

> <Gold.PLP.part.buried>
-3.0973

> <Gold.PLP.part.nonpolar>
-33.8997

> <Gold.PLP.part.repulsive>
0.2695

> <Gold.PLP.ligand.clash>
0.0000

> <Gold.PLP.ligand.torsion>
0.5233

> <Gold.PLP.Chemscore.Hbond>
0.3151

> <Gold.PLP.Chemscore.CHOScore>
0.0000

> <Gold.PLP.Chemscore.Metal>
0.0000

> <Gold.Chemscore.Hbonds>
donor molecule, donor type, donor heavy atom, donor atom, acceptor molecule, acceptor atom, score
      P1  H  7989  7998       L1    16  0.01
      P1  H  8011  8017       L1    16  0.26

> <Gold.PLP.Chemscore.Internal.Correction>
0.0189

> <Gold.Rescore>
     Score         DG    S(hbond)    S(metal)    S(lipo)     H(rot)  DE(clash)    DE(int)     intcor
     10.60     -12.97       0.42        0.00      80.86       1.32       0.18       2.19       ----

> <Gold.Chemscore.Fitness>
10.5952

> <Gold.Chemscore.DG>
-12.9670

> <Gold.Chemscore.ZeroCoef>
-5.4800

> <Gold.Chemscore.Hbond>
0.4216

> <Gold.Chemscore.Metal>
0.0000

> <Gold.Chemscore.Lipo>
80.8649

> <Gold.Chemscore.Internal_Hbond>
0.0000

> <Gold.Chemscore.DEClash>
0.1847

> <Gold.Chemscore.DEInternal>
2.1870

> <Gold.Chemscore.Rot>
1.3213

> <Gold.Chemscore.Internal.Correction>
   9.000000E+99

> <Gold.Chemscore.Hbonds>
donor molecule, donor type, donor heavy atom, donor atom, acceptor molecule, acceptor atom, score
      P1  H  8011  8017       L1    16  0.13

> <Gold.Chemscore.Hbond.Weighted>
-1.4083

> <Gold.Chemscore.Metal.Weighted>
-0.0000

> <Gold.Chemscore.Lipo.Weighted>
-9.4612

> <Gold.Chemscore.Internal_Hbond.Weighted>
0.0000

> <Gold.Chemscore.DEClash.Weighted>
0.1847

> <Gold.Chemscore.DEInternal.Weighted>
2.1870

> <Gold.Chemscore.Rot.Weighted>
3.3825

> <Gold.Chemscore.Internal.Correction.Weighted>
   9.000000E+99

> <Gold.Protein.RotatedTorsions>
[ 6907 6896 6895 6894 ] final  -85.87 input  -60.11 | X-H torsion
[ 7974 7965 7964 7962 ] final   21.84 input  175.53 | X-H torsion
[ 8008 7997 7996 7995 ] final   46.00 input   59.86 | X-H torsion
[ 10167 10162 10161 10158 ] final -121.06 input  -65.29 | X-H torsion
[ 10718 10713 10712 10709 ] final   79.47 input   66.30 | X-H torsion
[ 10763 10752 10751 10750 ] final  159.05 input  -60.55 | X-H torsion
[ 11005 11000 10999 10996 ] final -118.17 input  -57.11 | X-H torsion

> <Gold.Protein.ActiveResidues>
 VAL166  LYS551  ARG553  GLY616  TRP617  ASP618  TYR619  PRO620  LYS621  CYS622 
 ASP623  PHE694  ASN695  SER759  ASP760  ASP761  ALA762  ILE779  LEU786  VAL792 
 PHE793  MET794  SER795  GLU796  ALA797  LYS798  CYS799  TRP800  GLU811  SER814 

> <Gold.Protein.RotatedAtoms>
  150.6868  134.3138  159.4757 H   0  0  0  0  0  0  0  0  0  0  0  0  # atno 6907 bound_to 6896
  152.1021  134.9332  160.0578 H   0  0  0  0  0  0  0  0  0  0  0  0  # atno 6908 bound_to 6896
  152.0607  133.4026  159.4453 H   0  0  0  0  0  0  0  0  0  0  0  0  # atno 6909 bound_to 6896
  146.2054  139.7970  142.8729 H   0  0  0  0  0  0  0  0  0  0  0  0  # atno 7974 bound_to 7965
  155.3451  140.3410  155.4239 H   0  0  0  0  0  0  0  0  0  0  0  0  # atno 8008 bound_to 7997
  156.1793  140.1658  156.8340 H   0  0  0  0  0  0  0  0  0  0  0  0  # atno 8009 bound_to 7997
  154.5316  140.0744  156.8337 H   0  0  0  0  0  0  0  0  0  0  0  0  # atno 8010 bound_to 7997
  140.0291  143.5266  152.2185 H   0  0  0  0  0  0  0  0  0  0  0  0  # atno 10167 bound_to 10162
  157.6778  130.9916  150.1937 H   0  0  0  0  0  0  0  0  0  0  0  0  # atno 10718 bound_to 10713
  154.2257  135.2780  155.2908 H   0  0  0  0  0  0  0  0  0  0  0  0  # atno 10763 bound_to 10752
  154.5665  135.5631  153.7059 H   0  0  0  0  0  0  0  0  0  0  0  0  # atno 10764 bound_to 10752
  153.0031  135.6311  154.2398 H   0  0  0  0  0  0  0  0  0  0  0  0  # atno 10765 bound_to 10752
  141.0305  133.9989  157.3151 H   0  0  0  0  0  0  0  0  0  0  0  0  # atno 11005 bound_to 11000
  145.3336  141.0272  143.3432 LP  0  0  0  0  0  0  0  0  0  0  0  0  # atno 17320 bound_to 7965
  144.8781  139.4942  143.6736 LP  0  0  0  0  0  0  0  0  0  0  0  0  # atno 17321 bound_to 7965
  139.6088  144.7603  151.3000 LP  0  0  0  0  0  0  0  0  0  0  0  0  # atno 17342 bound_to 10162
  140.7310  143.6865  150.7957 LP  0  0  0  0  0  0  0  0  0  0  0  0  # atno 17343 bound_to 10162
  156.2643  130.3714  149.8097 LP  0  0  0  0  0  0  0  0  0  0  0  0  # atno 17370 bound_to 10713
  156.5833  130.8475  151.3389 LP  0  0  0  0  0  0  0  0  0  0  0  0  # atno 17371 bound_to 10713
  139.9204  135.0200  156.8043 LP  0  0  0  0  0  0  0  0  0  0  0  0  # atno 17394 bound_to 11000
  140.6416  133.9813  155.7710 LP  0  0  0  0  0  0  0  0  0  0  0  0  # atno 17395 bound_to 11000

$$$$
