AV-unprocessed.smi:2838|AV-procd|sdf|10929|dock4
  -GOLD-   2272015373D 1   1.00000     0.00000
 Structure written by MMmdl.
 48 49  0  0  0  0  0  0  0  0  1 V2000
  146.4616  141.9807  154.5386 C   0  0  0  0  0  0  0  0  0  0  0  0
  146.5163  140.5114  154.9915 C   0  0  1  0  0  0  0  0  0  0  0  0
  145.8328  139.7014  153.9818 N   0  0  0  0  0  0  0  0  0  0  0  0
  145.9427  138.3731  153.8296 C   0  0  0  0  0  0  0  0  0  0  0  0
  146.6487  137.6604  154.5421 O   0  0  0  0  0  0  0  0  0  0  0  0
  145.1771  137.9387  152.8142 N   0  0  0  0  0  0  0  0  0  0  0  0
  145.0283  136.6138  152.3226 C   0  0  0  0  0  0  0  0  0  0  0  0
  146.0646  135.6844  152.5413 C   0  0  0  0  0  0  0  0  0  0  0  0
  145.9828  134.4072  152.1134 N   0  0  0  0  0  0  0  0  0  0  0  0
  144.8538  134.0282  151.5001 C   0  0  0  0  0  0  0  0  0  0  0  0
  144.8262  132.6181  150.8846 C   0  0  0  0  0  0  0  0  0  0  0  0
  145.0294  131.5341  151.9693 C   0  0  0  0  0  0  0  0  0  0  0  0
  145.9790  132.4287  149.8705 C   0  0  0  0  0  0  0  0  0  0  0  0
  143.4781  132.3938  150.1754 C   0  0  0  0  0  0  0  0  0  0  0  0
  143.8242  134.8370  151.2166 N   0  0  0  0  0  0  0  0  0  0  0  0
  143.8936  136.1180  151.6370 C   0  0  0  0  0  0  0  0  0  0  0  0
  147.9614  139.9941  155.2239 C   0  0  0  0  0  0  0  0  0  0  0  0
  148.8480  141.0147  155.9703 C   0  0  0  0  0  0  0  0  0  0  0  0
  150.2917  140.5067  156.1111 C   0  0  0  0  0  0  0  0  0  0  0  0
  150.8331  140.2198  154.8281 O   0  0  0  0  0  0  0  0  0  0  0  0
  150.1247  139.1871  154.1547 C   0  0  0  0  0  0  0  0  0  0  0  0
  148.6704  139.6187  153.9065 C   0  0  0  0  0  0  0  0  0  0  0  0
  146.8349  142.6562  155.3079 H   0  0  0  0  0  0  0  0  0  0  0  0
  145.4364  142.2849  154.3238 H   0  0  0  0  0  0  0  0  0  0  0  0
  147.0513  142.1416  153.6356 H   0  0  0  0  0  0  0  0  0  0  0  0
  145.9791  140.4454  155.9391 H   0  0  0  0  0  0  0  0  0  0  0  0
  145.2258  140.1971  153.3457 H   0  0  0  0  0  0  0  0  0  0  0  0
  144.6007  138.6342  152.3636 H   0  0  0  0  0  0  0  0  0  0  0  0
  146.9717  135.9673  153.0555 H   0  0  0  0  0  0  0  0  0  0  0  0
  145.0560  130.5354  151.5324 H   0  0  0  0  0  0  0  0  0  0  0  0
  144.2231  131.5337  152.7037 H   0  0  0  0  0  0  0  0  0  0  0  0
  145.9668  131.6813  152.5073 H   0  0  0  0  0  0  0  0  0  0  0  0
  146.9502  132.6057  150.3343 H   0  0  0  0  0  0  0  0  0  0  0  0
  145.8902  133.1052  149.0198 H   0  0  0  0  0  0  0  0  0  0  0  0
  145.9890  131.4160  149.4659 H   0  0  0  0  0  0  0  0  0  0  0  0
  143.4236  131.4004  149.7288 H   0  0  0  0  0  0  0  0  0  0  0  0
  143.3246  133.1221  149.3784 H   0  0  0  0  0  0  0  0  0  0  0  0
  142.6438  132.4879  150.8715 H   0  0  0  0  0  0  0  0  0  0  0  0
  143.0259  136.7221  151.4249 H   0  0  0  0  0  0  0  0  0  0  0  0
  147.9032  139.0953  155.8399 H   0  0  0  0  0  0  0  0  0  0  0  0
  148.8493  141.9639  155.4326 H   0  0  0  0  0  0  0  0  0  0  0  0
  148.4508  141.2214  156.9641 H   0  0  0  0  0  0  0  0  0  0  0  0
  150.9092  141.2658  156.5911 H   0  0  0  0  0  0  0  0  0  0  0  0
  150.3327  139.6183  156.7432 H   0  0  0  0  0  0  0  0  0  0  0  0
  150.6206  138.9840  153.2054 H   0  0  0  0  0  0  0  0  0  0  0  0
  150.1628  138.2649  154.7366 H   0  0  0  0  0  0  0  0  0  0  0  0
  148.1473  138.8067  153.4025 H   0  0  0  0  0  0  0  0  0  0  0  0
  148.6577  140.4700  153.2245 H   0  0  0  0  0  0  0  0  0  0  0  0
  1  2  1  0  0  0  0
  1 23  1  0  0  0  0
  1 24  1  0  0  0  0
  1 25  1  0  0  0  0
  2  3  1  0  0  0  0
  2 17  1  0  0  0  0
  2 26  1  0  0  0  0
  3  4  1  0  0  0  0
  3 27  1  0  0  0  0
  4  5  2  0  0  0  0
  4  6  1  0  0  0  0
  6  7  1  0  0  0  0
  6 28  1  0  0  0  0
  7 16  1  0  0  0  0
  7  8  2  0  0  0  0
  8  9  1  0  0  0  0
  8 29  1  0  0  0  0
  9 10  2  0  0  0  0
 10 11  1  0  0  0  0
 10 15  1  0  0  0  0
 11 12  1  0  0  0  0
 11 13  1  0  0  0  0
 11 14  1  0  0  0  0
 12 30  1  0  0  0  0
 12 31  1  0  0  0  0
 12 32  1  0  0  0  0
 13 33  1  0  0  0  0
 13 34  1  0  0  0  0
 13 35  1  0  0  0  0
 14 36  1  0  0  0  0
 14 37  1  0  0  0  0
 14 38  1  0  0  0  0
 15 16  2  0  0  0  0
 16 39  1  0  0  0  0
 17 22  1  0  0  0  0
 17 18  1  0  0  0  0
 17 40  1  0  0  0  0
 18 19  1  0  0  0  0
 18 41  1  0  0  0  0
 18 42  1  0  0  0  0
 19 20  1  0  0  0  0
 19 43  1  0  0  0  0
 19 44  1  0  0  0  0
 20 21  1  0  0  0  0
 21 22  1  0  0  0  0
 21 45  1  0  0  0  0
 21 46  1  0  0  0  0
 22 47  1  0  0  0  0
 22 48  1  0  0  0  0
M  END
> <s_m_source_file>
AV-unprocessed.smi

> <i_m_source_file_index>
2838

> <i_lp_mmshare_version>
43012

> <i_f3d_flags>
0

> <s_epik_input>
W0NIMl0xW0NIMl1PW0NIMl1bQ0gyXVtDSF0xW0NASF0oW0NIM10pW05IXUMoPU8pW05IXWMyW2NIXW5jKEMoW0NIM10pKFtDSDNdKVtDSDNdKW5bY0hdMg==

> <s_epik_cmdline>
J2VwaWtfcHl0aG9uJywgJy1waCcsICc3LjAnLCAnLXRuJywgJzgnLCAnLW1hJywgJzIwMCcsICctbWV0YWxfYmluZGluZycsICctaW1hZScsICc8aW5maWxlLm1hZT4nLCAnLW9tYWUnLCAnPG91dGZpbGUubWFlPic=

> <r_lp_tautomer_probability>
1

> <r_epik_Ionization_Penalty>
2.74753e-05

> <r_epik_Ionization_Penalty_Charging>
0

> <r_epik_Ionization_Penalty_Neutral>
2.74753e-05

> <r_epik_State_Penalty>
-0

> <r_epik_Charging_Adjusted_Penalty>
0

> <i_epik_Tot_Q>
0

> <i_epik_Tot_abs_Q>
0

> <r_epik_Metal_State_Penalty>
-0

> <b_epik_Metal_Only>
0

> <s_lp_Force_Field>
OPLS_2005

> <r_lp_Energy>
9.11835

> <b_lp_Chiralities_Consistent>
1

> <s_lp_Variant>
AV-unprocessed.smi:2838-2

> <Gold.Version>
5.8.1

> <Gold.Id.Protein>
6NUR|6NUR_protein|mol2

> <Gold.PLP.Fitness>
41.9463

> <Gold.PLP.PLP>
-30.7788

> <Gold.PLP.part.hbond>
-3.0868

> <Gold.PLP.part.metal>
0.0000

> <Gold.PLP.part.buried>
-0.4377

> <Gold.PLP.part.nonpolar>
-27.4759

> <Gold.PLP.part.repulsive>
0.4608

> <Gold.PLP.ligand.clash>
0.0144

> <Gold.PLP.ligand.torsion>
0.7870

> <Gold.PLP.Chemscore.Hbond>
2.9016

> <Gold.PLP.Chemscore.CHOScore>
1.3001

> <Gold.PLP.Chemscore.Metal>
0.0000

> <Gold.Chemscore.Hbonds>
donor molecule, donor type, donor heavy atom, donor atom, acceptor molecule, acceptor atom, score
      L1  H     3    27       P1 10175  1.00
      L1  H     6    28       P1 10175  0.95
      P1  H  7989  7998       L1    20  0.90
      L1  C     8    29       P1  7948  0.79
      L1  C    16    39       P1 10171  0.45

> <Gold.PLP.Chemscore.Internal.Correction>
0.1508

> <Gold.Rescore>
     Score         DG    S(hbond)    S(metal)    S(lipo)     H(rot)  DE(clash)    DE(int)     intcor
     14.39     -21.12       2.82        0.00      82.48       1.34       0.11       6.62       ----

> <Gold.Chemscore.Fitness>
14.3875

> <Gold.Chemscore.DG>
-21.1203

> <Gold.Chemscore.ZeroCoef>
-5.4800

> <Gold.Chemscore.Hbond>
2.8168

> <Gold.Chemscore.Metal>
0.0000

> <Gold.Chemscore.Lipo>
82.4844

> <Gold.Chemscore.Internal_Hbond>
0.0000

> <Gold.Chemscore.DEClash>
0.1139

> <Gold.Chemscore.DEInternal>
6.6188

> <Gold.Chemscore.Rot>
1.3354

> <Gold.Chemscore.Internal.Correction>
   9.000000E+99

> <Gold.Chemscore.Hbonds>
donor molecule, donor type, donor heavy atom, donor atom, acceptor molecule, acceptor atom, score
      L1  H     3    27       P1 10175  0.98
      L1  H     6    28       P1 10175  0.86
      P1  H  7989  7998       L1    20  0.18

> <Gold.Chemscore.Hbond.Weighted>
-9.4081

> <Gold.Chemscore.Metal.Weighted>
-0.0000

> <Gold.Chemscore.Lipo.Weighted>
-9.6507

> <Gold.Chemscore.Internal_Hbond.Weighted>
0.0000

> <Gold.Chemscore.DEClash.Weighted>
0.1139

> <Gold.Chemscore.DEInternal.Weighted>
6.6188

> <Gold.Chemscore.Rot.Weighted>
3.4185

> <Gold.Chemscore.Internal.Correction.Weighted>
   9.000000E+99

> <Gold.Protein.RotatedTorsions>
[ 6907 6896 6895 6894 ] final   53.62 input  -60.11 | X-H torsion
[ 7974 7965 7964 7962 ] final   -4.56 input  175.53 | X-H torsion
[ 8008 7997 7996 7995 ] final   84.35 input   59.86 | X-H torsion
[ 10167 10162 10161 10158 ] final  -42.78 input  -65.29 | X-H torsion
[ 10718 10713 10712 10709 ] final  137.61 input   66.30 | X-H torsion
[ 10763 10752 10751 10750 ] final   14.98 input  -60.55 | X-H torsion
[ 11005 11000 10999 10996 ] final  104.23 input  -57.11 | X-H torsion

> <Gold.Protein.ActiveResidues>
 VAL166  LYS551  ARG553  GLY616  TRP617  ASP618  TYR619  PRO620  LYS621  CYS622 
 ASP623  PHE694  ASN695  SER759  ASP760  ASP761  ALA762  ILE779  LEU786  VAL792 
 PHE793  MET794  SER795  GLU796  ALA797  LYS798  CYS799  TRP800  GLU811  SER814 

> <Gold.Protein.RotatedAtoms>
  152.3355  134.7203  160.0277 H   0  0  0  0  0  0  0  0  0  0  0  0  # atno 6907 bound_to 6896
  151.7606  133.3328  159.3425 H   0  0  0  0  0  0  0  0  0  0  0  0  # atno 6908 bound_to 6896
  150.7448  134.6041  159.6096 H   0  0  0  0  0  0  0  0  0  0  0  0  # atno 6909 bound_to 6896
  146.2370  140.1890  142.8332 H   0  0  0  0  0  0  0  0  0  0  0  0  # atno 7974 bound_to 7965
  155.9359  140.3411  155.6287 H   0  0  0  0  0  0  0  0  0  0  0  0  # atno 8008 bound_to 7997
  155.7100  140.0770  157.2393 H   0  0  0  0  0  0  0  0  0  0  0  0  # atno 8009 bound_to 7997
  154.4093  140.1624  156.2273 H   0  0  0  0  0  0  0  0  0  0  0  0  # atno 8010 bound_to 7997
  140.6957  143.3019  151.3257 H   0  0  0  0  0  0  0  0  0  0  0  0  # atno 10167 bound_to 10162
  157.4343  131.1051  151.0215 H   0  0  0  0  0  0  0  0  0  0  0  0  # atno 10718 bound_to 10713
  153.1570  135.6789  153.8798 H   0  0  0  0  0  0  0  0  0  0  0  0  # atno 10763 bound_to 10752
  153.8206  135.3130  155.3411 H   0  0  0  0  0  0  0  0  0  0  0  0  # atno 10764 bound_to 10752
  154.7904  135.4838  154.0129 H   0  0  0  0  0  0  0  0  0  0  0  0  # atno 10765 bound_to 10752
  139.8790  134.9293  156.5330 H   0  0  0  0  0  0  0  0  0  0  0  0  # atno 11005 bound_to 11000
  144.9873  140.8515  143.5360 LP  0  0  0  0  0  0  0  0  0  0  0  0  # atno 17320 bound_to 7965
  145.1891  139.2311  143.5252 LP  0  0  0  0  0  0  0  0  0  0  0  0  # atno 17321 bound_to 7965
  139.6410  144.0539  152.2554 LP  0  0  0  0  0  0  0  0  0  0  0  0  # atno 17342 bound_to 10162
  140.0045  144.6269  150.7701 LP  0  0  0  0  0  0  0  0  0  0  0  0  # atno 17343 bound_to 10162
  157.1101  130.6018  149.5480 LP  0  0  0  0  0  0  0  0  0  0  0  0  # atno 17370 bound_to 10713
  155.9924  130.4982  150.7340 LP  0  0  0  0  0  0  0  0  0  0  0  0  # atno 17371 bound_to 10713
  140.8366  133.8237  155.9035 LP  0  0  0  0  0  0  0  0  0  0  0  0  # atno 17394 bound_to 11000
  140.9277  134.2061  157.4884 LP  0  0  0  0  0  0  0  0  0  0  0  0  # atno 17395 bound_to 11000

$$$$
