AV-unprocessed.smi:3348|AV-procd|sdf|12929|dock3
  -GOLD-   2272019353D 1   1.00000     0.00000
 Structure written by MMmdl.
 46 47  0  0  0  0  0  0  0  0  1 V2000
  151.0030  138.1198  154.0666 C   0  0  0  0  0  0  0  0  0  0  0  0
  151.7764  138.0317  155.3895 C   0  0  2  0  0  0  0  0  0  0  0  0
  150.9577  137.2219  156.4245 C   0  0  0  0  0  0  0  0  0  0  0  0
  150.8051  135.8156  156.0983 N   0  0  0  0  0  0  0  0  0  0  0  0
  150.2814  135.2555  154.9511 C   0  0  0  0  0  0  0  0  0  0  0  0
  150.3453  133.8992  155.0964 C   0  0  0  0  0  0  0  0  0  0  0  0
  150.9371  133.7243  156.3787 C   0  0  0  0  0  0  0  0  0  0  0  0
  151.2143  134.8729  156.9749 N   0  0  0  0  0  0  0  0  0  0  0  0
  152.0670  139.3887  155.8625 N   0  0  0  0  0  0  0  0  0  0  0  0
  150.9053  140.2696  155.9841 C   0  0  0  0  0  0  0  0  0  0  0  0
  151.3109  141.6376  156.5376 C   0  0  0  0  0  0  0  0  0  0  0  0
  151.8799  141.4313  157.8221 O   0  0  0  0  0  0  0  0  0  0  0  0
  152.2358  142.6184  158.5179 C   0  0  1  0  0  0  0  0  0  0  0  0
  151.0964  143.6529  158.3990 C   0  0  0  0  0  0  0  0  0  0  0  0
  151.3698  144.8964  159.2580 C   0  0  0  0  0  0  0  0  0  0  0  0
  151.6074  144.5115  160.7247 C   0  0  0  0  0  0  0  0  0  0  0  0
  152.7487  143.4908  160.8483 C   0  0  0  0  0  0  0  0  0  0  0  0
  152.4872  142.2340  159.9941 C   0  0  2  0  0  0  0  0  0  0  0  0
  153.6460  141.2325  160.1328 C   0  0  0  0  0  0  0  0  0  0  0  0
  150.8028  137.1270  153.6625 H   0  0  0  0  0  0  0  0  0  0  0  0
  151.5704  138.6693  153.3149 H   0  0  0  0  0  0  0  0  0  0  0  0
  150.0451  138.6250  154.1972 H   0  0  0  0  0  0  0  0  0  0  0  0
  152.7106  137.5085  155.1803 H   0  0  0  0  0  0  0  0  0  0  0  0
  151.4155  137.3002  157.4118 H   0  0  0  0  0  0  0  0  0  0  0  0
  149.9573  137.6466  156.5193 H   0  0  0  0  0  0  0  0  0  0  0  0
  149.9034  135.8616  154.1409 H   0  0  0  0  0  0  0  0  0  0  0  0
  150.0179  133.1474  154.3937 H   0  0  0  0  0  0  0  0  0  0  0  0
  151.1723  132.8026  156.8903 H   0  0  0  0  0  0  0  0  0  0  0  0
  152.5454  139.3442  156.7566 H   0  0  0  0  0  0  0  0  0  0  0  0
  150.3915  140.4060  155.0356 H   0  0  0  0  0  0  0  0  0  0  0  0
  150.1808  139.8098  156.6568 H   0  0  0  0  0  0  0  0  0  0  0  0
  152.0584  142.0833  155.8799 H   0  0  0  0  0  0  0  0  0  0  0  0
  150.4570  142.3146  156.5720 H   0  0  0  0  0  0  0  0  0  0  0  0
  153.1568  143.0358  158.1058 H   0  0  0  0  0  0  0  0  0  0  0  0
  150.9615  143.9583  157.3619 H   0  0  0  0  0  0  0  0  0  0  0  0
  150.1558  143.1968  158.7107 H   0  0  0  0  0  0  0  0  0  0  0  0
  152.2427  145.4238  158.8712 H   0  0  0  0  0  0  0  0  0  0  0  0
  150.5315  145.5900  159.1861 H   0  0  0  0  0  0  0  0  0  0  0  0
  151.8391  145.4019  161.3099 H   0  0  0  0  0  0  0  0  0  0  0  0
  150.6933  144.0922  161.1474 H   0  0  0  0  0  0  0  0  0  0  0  0
  153.6859  143.9569  160.5402 H   0  0  0  0  0  0  0  0  0  0  0  0
  152.8736  143.2107  161.8949 H   0  0  0  0  0  0  0  0  0  0  0  0
  151.5861  141.7516  160.3766 H   0  0  0  0  0  0  0  0  0  0  0  0
  154.5773  141.6482  159.7468 H   0  0  0  0  0  0  0  0  0  0  0  0
  153.4430  140.3108  159.5872 H   0  0  0  0  0  0  0  0  0  0  0  0
  153.8092  140.9629  161.1766 H   0  0  0  0  0  0  0  0  0  0  0  0
  1  2  1  0  0  0  0
  1 20  1  0  0  0  0
  1 21  1  0  0  0  0
  1 22  1  0  0  0  0
  2  3  1  0  0  0  0
  2  9  1  0  0  0  0
  2 23  1  0  0  0  0
  3  4  1  0  0  0  0
  3 24  1  0  0  0  0
  3 25  1  0  0  0  0
  4  8  1  0  0  0  0
  4  5  1  0  0  0  0
  5  6  2  0  0  0  0
  5 26  1  0  0  0  0
  6  7  1  0  0  0  0
  6 27  1  0  0  0  0
  7  8  2  0  0  0  0
  7 28  1  0  0  0  0
  9 10  1  0  0  0  0
  9 29  1  0  0  0  0
 10 11  1  0  0  0  0
 10 30  1  0  0  0  0
 10 31  1  0  0  0  0
 11 12  1  0  0  0  0
 11 32  1  0  0  0  0
 11 33  1  0  0  0  0
 12 13  1  0  0  0  0
 13 18  1  0  0  0  0
 13 14  1  0  0  0  0
 13 34  1  0  0  0  0
 14 15  1  0  0  0  0
 14 35  1  0  0  0  0
 14 36  1  0  0  0  0
 15 16  1  0  0  0  0
 15 37  1  0  0  0  0
 15 38  1  0  0  0  0
 16 17  1  0  0  0  0
 16 39  1  0  0  0  0
 16 40  1  0  0  0  0
 17 18  1  0  0  0  0
 17 41  1  0  0  0  0
 17 42  1  0  0  0  0
 18 19  1  0  0  0  0
 18 43  1  0  0  0  0
 19 44  1  0  0  0  0
 19 45  1  0  0  0  0
 19 46  1  0  0  0  0
M  END
> <s_m_source_file>
AV-unprocessed.smi

> <i_m_source_file_index>
3348

> <i_lp_mmshare_version>
43012

> <i_f3d_flags>
0

> <s_epik_input>
bjFbY0hdW2NIXVtjSF1uMVtDSDJdW0NAQEhdKFtDSDNdKVtOSF1bQ0gyXVtDSDJdT1tDQEBIXTJbQ0gyXVtDSDJdW0NIMl1bQ0gyXVtDQEhdMltDSDNd

> <s_epik_cmdline>
J2VwaWtfcHl0aG9uJywgJy1waCcsICc3LjAnLCAnLXRuJywgJzgnLCAnLW1hJywgJzIwMCcsICctbWV0YWxfYmluZGluZycsICctaW1hZScsICc8aW5maWxlLm1hZT4nLCAnLW9tYWUnLCAnPG91dGZpbGUubWFlPic=

> <r_lp_tautomer_probability>
1

> <r_epik_Ionization_Penalty>
2.46945

> <r_epik_Ionization_Penalty_Charging>
0

> <r_epik_Ionization_Penalty_Neutral>
2.46945

> <r_epik_State_Penalty>
2.6322

> <r_epik_Charging_Adjusted_Penalty>
2.6322

> <i_epik_Tot_Q>
0

> <i_epik_Tot_abs_Q>
0

> <r_epik_Metal_State_Penalty>
2.63217

> <b_epik_Metal_Only>
0

> <s_lp_Force_Field>
OPLS_2005

> <r_lp_Energy>
18.1963

> <b_lp_Chiralities_Consistent>
1

> <s_lp_Variant>
AV-unprocessed.smi:3348-15

> <Gold.Version>
5.8.1

> <Gold.Id.Protein>
6NUR|6NUR_protein|mol2

> <Gold.PLP.Fitness>
44.2488

> <Gold.PLP.PLP>
-41.4986

> <Gold.PLP.part.hbond>
-1.0000

> <Gold.PLP.part.metal>
0.0000

> <Gold.PLP.part.buried>
-6.8825

> <Gold.PLP.part.nonpolar>
-33.3089

> <Gold.PLP.part.repulsive>
0.0000

> <Gold.PLP.ligand.clash>
0.0000

> <Gold.PLP.ligand.torsion>
0.1782

> <Gold.PLP.Chemscore.Hbond>
0.0000

> <Gold.PLP.Chemscore.CHOScore>
1.0000

> <Gold.PLP.Chemscore.Metal>
0.0000

> <Gold.Chemscore.Hbonds>
donor molecule, donor type, donor heavy atom, donor atom, acceptor molecule, acceptor atom, score
      L1  C     5    26       P1  7948  0.93

> <Gold.PLP.Chemscore.Internal.Correction>
0.1066

> <Gold.Rescore>
     Score         DG    S(hbond)    S(metal)    S(lipo)     H(rot)  DE(clash)    DE(int)     intcor
     15.53     -15.72       0.00        0.00     125.24       1.72       0.03       0.16       ----

> <Gold.Chemscore.Fitness>
15.5291

> <Gold.Chemscore.DG>
-15.7211

> <Gold.Chemscore.ZeroCoef>
-5.4800

> <Gold.Chemscore.Hbond>
0.0000

> <Gold.Chemscore.Metal>
0.0000

> <Gold.Chemscore.Lipo>
125.2447

> <Gold.Chemscore.Internal_Hbond>
0.0000

> <Gold.Chemscore.DEClash>
0.0324

> <Gold.Chemscore.DEInternal>
0.1595

> <Gold.Chemscore.Rot>
1.7237

> <Gold.Chemscore.Internal.Correction>
   9.000000E+99

> <Gold.Chemscore.Hbond.Weighted>
-0.0000

> <Gold.Chemscore.Metal.Weighted>
-0.0000

> <Gold.Chemscore.Lipo.Weighted>
-14.6536

> <Gold.Chemscore.Internal_Hbond.Weighted>
0.0000

> <Gold.Chemscore.DEClash.Weighted>
0.0324

> <Gold.Chemscore.DEInternal.Weighted>
0.1595

> <Gold.Chemscore.Rot.Weighted>
4.4126

> <Gold.Chemscore.Internal.Correction.Weighted>
   9.000000E+99

> <Gold.Protein.RotatedTorsions>
[ 6907 6896 6895 6894 ] final   89.11 input  -60.11 | X-H torsion
[ 7974 7965 7964 7962 ] final  -49.82 input  175.53 | X-H torsion
[ 8008 7997 7996 7995 ] final   48.69 input   59.86 | X-H torsion
[ 10167 10162 10161 10158 ] final -145.40 input  -65.29 | X-H torsion
[ 10718 10713 10712 10709 ] final   96.16 input   66.30 | X-H torsion
[ 10763 10752 10751 10750 ] final  141.10 input  -60.55 | X-H torsion
[ 11005 11000 10999 10996 ] final   28.16 input  -57.11 | X-H torsion

> <Gold.Protein.ActiveResidues>
 VAL166  LYS551  ARG553  GLY616  TRP617  ASP618  TYR619  PRO620  LYS621  CYS622 
 ASP623  PHE694  ASN695  SER759  ASP760  ASP761  ALA762  ILE779  LEU786  VAL792 
 PHE793  MET794  SER795  GLU796  ALA797  LYS798  CYS799  TRP800  GLU811  SER814 

> <Gold.Protein.RotatedAtoms>
  152.5433  134.2018  159.8714 H   0  0  0  0  0  0  0  0  0  0  0  0  # atno 6907 bound_to 6896
  151.2006  133.4606  159.2604 H   0  0  0  0  0  0  0  0  0  0  0  0  # atno 6908 bound_to 6896
  151.0993  134.9975  159.8496 H   0  0  0  0  0  0  0  0  0  0  0  0  # atno 6909 bound_to 6896
  145.9365  140.7702  142.9573 H   0  0  0  0  0  0  0  0  0  0  0  0  # atno 7974 bound_to 7965
  155.3899  140.3433  155.4251 H   0  0  0  0  0  0  0  0  0  0  0  0  # atno 8008 bound_to 7997
  156.1563  140.1586  156.8719 H   0  0  0  0  0  0  0  0  0  0  0  0  # atno 8009 bound_to 7997
  154.5098  140.0793  156.7949 H   0  0  0  0  0  0  0  0  0  0  0  0  # atno 8010 bound_to 7997
  139.7809  143.8102  152.2638 H   0  0  0  0  0  0  0  0  0  0  0  0  # atno 10167 bound_to 10162
  157.6930  131.0569  150.4448 H   0  0  0  0  0  0  0  0  0  0  0  0  # atno 10718 bound_to 10713
  153.9336  135.2987  155.3445 H   0  0  0  0  0  0  0  0  0  0  0  0  # atno 10763 bound_to 10752
  154.7514  135.4978  153.9298 H   0  0  0  0  0  0  0  0  0  0  0  0  # atno 10764 bound_to 10752
  153.1079  135.6751  153.9659 H   0  0  0  0  0  0  0  0  0  0  0  0  # atno 10765 bound_to 10752
  140.3186  134.2569  155.7721 H   0  0  0  0  0  0  0  0  0  0  0  0  # atno 11005 bound_to 11000
  144.6772  140.2211  143.7366 LP  0  0  0  0  0  0  0  0  0  0  0  0  # atno 17320 bound_to 7965
  145.8357  139.2106  143.1857 LP  0  0  0  0  0  0  0  0  0  0  0  0  # atno 17321 bound_to 7965
  139.8164  144.7314  150.9629 LP  0  0  0  0  0  0  0  0  0  0  0  0  # atno 17342 bound_to 10162
  140.7818  143.4201  151.0856 LP  0  0  0  0  0  0  0  0  0  0  0  0  # atno 17343 bound_to 10162
  156.4804  130.4072  149.6465 LP  0  0  0  0  0  0  0  0  0  0  0  0  # atno 17370 bound_to 10713
  156.3512  130.7433  151.2393 LP  0  0  0  0  0  0  0  0  0  0  0  0  # atno 17371 bound_to 10713
  141.2092  133.7756  157.0013 LP  0  0  0  0  0  0  0  0  0  0  0  0  # atno 17394 bound_to 11000
  140.0962  134.9563  157.1852 LP  0  0  0  0  0  0  0  0  0  0  0  0  # atno 17395 bound_to 11000

$$$$
