AV-unprocessed.smi:3149|AV-procd|sdf|12004|dock4
  -GOLD-   2272017413D 1   1.00000     0.00000
 Structure written by MMmdl.
 37 38  0  0  0  0  0  0  0  0  1 V2000
  147.8989  140.3294  156.7395 C   0  0  0  0  0  0  0  0  0  0  0  0
  148.8679  141.2494  155.9648 C   0  0  1  0  0  0  0  0  0  0  0  0
  150.1252  141.3512  156.7013 N   0  0  0  0  0  0  0  0  0  0  0  0
  149.9389  141.5776  158.1397 C   0  0  0  0  0  0  0  0  0  0  0  0
  151.2698  141.8905  158.8282 C   0  0  0  0  0  0  0  0  0  0  0  0
  152.0964  140.9965  159.0090 O   0  0  0  0  0  0  0  0  0  0  0  0
  151.5413  143.2228  159.1516 N   0  0  0  0  0  0  0  0  0  0  0  0
  152.9092  143.7074  159.2551 C   0  0  0  0  0  0  0  0  0  0  0  0
  152.3434  145.0660  158.8285 C   0  0  0  0  0  0  0  0  0  0  0  0
  151.1123  144.3224  158.3001 C   0  0  0  0  0  0  0  0  0  0  0  0
  149.1868  140.7352  154.5338 C   0  0  2  0  0  0  0  0  0  0  0  0
  147.9424  140.1779  153.8139 C   0  0  0  0  0  0  0  0  0  0  0  0
  150.2518  139.7391  154.5305 N   0  0  0  0  0  0  0  0  0  0  0  0
  150.2013  138.4389  154.0714 C   0  0  0  0  0  0  0  0  0  0  0  0
  151.4350  137.8875  154.2674 C   0  0  0  0  0  0  0  0  0  0  0  0
  152.1851  138.9400  154.8618 C   0  0  0  0  0  0  0  0  0  0  0  0
  151.4759  140.0456  155.0187 N   0  0  0  0  0  0  0  0  0  0  0  0
  146.9306  140.2580  156.2444 H   0  0  0  0  0  0  0  0  0  0  0  0
  147.7002  140.6974  157.7455 H   0  0  0  0  0  0  0  0  0  0  0  0
  148.2991  139.3190  156.8285 H   0  0  0  0  0  0  0  0  0  0  0  0
  148.4159  142.2387  155.8748 H   0  0  0  0  0  0  0  0  0  0  0  0
  150.6954  140.5372  156.5201 H   0  0  0  0  0  0  0  0  0  0  0  0
  149.2346  142.3937  158.3073 H   0  0  0  0  0  0  0  0  0  0  0  0
  149.5135  140.6907  158.6083 H   0  0  0  0  0  0  0  0  0  0  0  0
  153.3143  143.6789  160.2670 H   0  0  0  0  0  0  0  0  0  0  0  0
  153.5849  143.2718  158.5160 H   0  0  0  0  0  0  0  0  0  0  0  0
  152.1225  145.7259  159.6694 H   0  0  0  0  0  0  0  0  0  0  0  0
  152.9260  145.5721  158.0582 H   0  0  0  0  0  0  0  0  0  0  0  0
  151.1729  144.1009  157.2330 H   0  0  0  0  0  0  0  0  0  0  0  0
  150.1569  144.7624  158.5871 H   0  0  0  0  0  0  0  0  0  0  0  0
  149.5547  141.5781  153.9458 H   0  0  0  0  0  0  0  0  0  0  0  0
  147.1842  140.9479  153.6719 H   0  0  0  0  0  0  0  0  0  0  0  0
  147.4845  139.3641  154.3770 H   0  0  0  0  0  0  0  0  0  0  0  0
  148.2011  139.7945  152.8263 H   0  0  0  0  0  0  0  0  0  0  0  0
  149.3016  138.0188  153.6463 H   0  0  0  0  0  0  0  0  0  0  0  0
  151.7532  136.8848  154.0235 H   0  0  0  0  0  0  0  0  0  0  0  0
  153.2168  138.9337  155.1815 H   0  0  0  0  0  0  0  0  0  0  0  0
  1  2  1  0  0  0  0
  1 18  1  0  0  0  0
  1 19  1  0  0  0  0
  1 20  1  0  0  0  0
  2  3  1  0  0  0  0
  2 11  1  0  0  0  0
  2 21  1  0  0  0  0
  3  4  1  0  0  0  0
  3 22  1  0  0  0  0
  4  5  1  0  0  0  0
  4 23  1  0  0  0  0
  4 24  1  0  0  0  0
  5  6  2  0  0  0  0
  5  7  1  0  0  0  0
  7 10  1  0  0  0  0
  7  8  1  0  0  0  0
  8  9  1  0  0  0  0
  8 25  1  0  0  0  0
  8 26  1  0  0  0  0
  9 10  1  0  0  0  0
  9 27  1  0  0  0  0
  9 28  1  0  0  0  0
 10 29  1  0  0  0  0
 10 30  1  0  0  0  0
 11 12  1  0  0  0  0
 11 13  1  0  0  0  0
 11 31  1  0  0  0  0
 12 32  1  0  0  0  0
 12 33  1  0  0  0  0
 12 34  1  0  0  0  0
 13 17  1  0  0  0  0
 13 14  1  0  0  0  0
 14 15  2  0  0  0  0
 14 35  1  0  0  0  0
 15 16  1  0  0  0  0
 15 36  1  0  0  0  0
 16 17  2  0  0  0  0
 16 37  1  0  0  0  0
M  END
> <s_m_source_file>
AV-unprocessed.smi

> <i_m_source_file_index>
3149

> <i_lp_mmshare_version>
43012

> <i_f3d_flags>
0

> <s_epik_input>
bjFbY0hdW2NIXVtjSF1uMVtDQEBIXShbQ0gzXSlbQ0BIXShbQ0gzXSlbTkhdW0NIMl1DKD1PKU4yW0NIMl1bQ0gyXVtDSDJdMg==

> <s_epik_cmdline>
J2VwaWtfcHl0aG9uJywgJy1waCcsICc3LjAnLCAnLXRuJywgJzgnLCAnLW1hJywgJzIwMCcsICctbWV0YWxfYmluZGluZycsICctaW1hZScsICc8aW5maWxlLm1hZT4nLCAnLW9tYWUnLCAnPG91dGZpbGUubWFlPic=

> <r_lp_tautomer_probability>
1

> <r_epik_Ionization_Penalty>
0.918674

> <r_epik_Ionization_Penalty_Charging>
0

> <r_epik_Ionization_Penalty_Neutral>
0.918674

> <r_epik_State_Penalty>
0.958258

> <r_epik_Charging_Adjusted_Penalty>
0.958258

> <i_epik_Tot_Q>
0

> <i_epik_Tot_abs_Q>
0

> <r_epik_Metal_State_Penalty>
0.956881

> <b_epik_Metal_Only>
0

> <s_lp_Force_Field>
OPLS_2005

> <r_lp_Energy>
23.4298

> <b_lp_Chiralities_Consistent>
1

> <s_lp_Variant>
AV-unprocessed.smi:3149-6

> <Gold.Version>
5.8.1

> <Gold.Id.Protein>
6NUR|6NUR_protein|mol2

> <Gold.PLP.Fitness>
40.4287

> <Gold.PLP.PLP>
-38.0256

> <Gold.PLP.part.hbond>
-1.0000

> <Gold.PLP.part.metal>
0.0000

> <Gold.PLP.part.buried>
-3.5766

> <Gold.PLP.part.nonpolar>
-33.9911

> <Gold.PLP.part.repulsive>
0.0489

> <Gold.PLP.ligand.clash>
0.0000

> <Gold.PLP.ligand.torsion>
1.1289

> <Gold.PLP.Chemscore.Hbond>
0.3000

> <Gold.PLP.Chemscore.CHOScore>
0.9437

> <Gold.PLP.Chemscore.Metal>
0.0000

> <Gold.Chemscore.Hbonds>
donor molecule, donor type, donor heavy atom, donor atom, acceptor molecule, acceptor atom, score
      P1  H  7989  7998       L1    17  0.20
      L1  C    14    35       P1  7948  1.00

> <Gold.PLP.Chemscore.Internal.Correction>
0.9297

> <Gold.Rescore>
     Score         DG    S(hbond)    S(metal)    S(lipo)     H(rot)  DE(clash)    DE(int)     intcor
      8.88     -11.22       0.00        0.00      88.20       1.79       0.06       2.28       ----

> <Gold.Chemscore.Fitness>
8.8813

> <Gold.Chemscore.DG>
-11.2237

> <Gold.Chemscore.ZeroCoef>
-5.4800

> <Gold.Chemscore.Hbond>
0.0000

> <Gold.Chemscore.Metal>
0.0000

> <Gold.Chemscore.Lipo>
88.2016

> <Gold.Chemscore.Internal_Hbond>
0.0000

> <Gold.Chemscore.DEClash>
0.0580

> <Gold.Chemscore.DEInternal>
2.2844

> <Gold.Chemscore.Rot>
1.7874

> <Gold.Chemscore.Internal.Correction>
   9.000000E+99

> <Gold.Chemscore.Hbond.Weighted>
-0.0000

> <Gold.Chemscore.Metal.Weighted>
-0.0000

> <Gold.Chemscore.Lipo.Weighted>
-10.3196

> <Gold.Chemscore.Internal_Hbond.Weighted>
0.0000

> <Gold.Chemscore.DEClash.Weighted>
0.0580

> <Gold.Chemscore.DEInternal.Weighted>
2.2844

> <Gold.Chemscore.Rot.Weighted>
4.5758

> <Gold.Chemscore.Internal.Correction.Weighted>
   9.000000E+99

> <Gold.Protein.RotatedTorsions>
[ 6907 6896 6895 6894 ] final  166.31 input  -60.11 | X-H torsion
[ 7974 7965 7964 7962 ] final  170.56 input  175.53 | X-H torsion
[ 8008 7997 7996 7995 ] final   82.02 input   59.86 | X-H torsion
[ 10167 10162 10161 10158 ] final -173.51 input  -65.29 | X-H torsion
[ 10718 10713 10712 10709 ] final -150.02 input   66.30 | X-H torsion
[ 10763 10752 10751 10750 ] final    7.66 input  -60.55 | X-H torsion
[ 11005 11000 10999 10996 ] final  -53.99 input  -57.11 | X-H torsion

> <Gold.Protein.ActiveResidues>
 VAL166  LYS551  ARG553  GLY616  TRP617  ASP618  TYR619  PRO620  LYS621  CYS622 
 ASP623  PHE694  ASN695  SER759  ASP760  ASP761  ALA762  ILE779  LEU786  VAL792 
 PHE793  MET794  SER795  GLU796  ALA797  LYS798  CYS799  TRP800  GLU811  SER814 

> <Gold.Protein.RotatedAtoms>
  151.8809  133.3495  159.3765 H   0  0  0  0  0  0  0  0  0  0  0  0  # atno 6907 bound_to 6896
  150.7128  134.5020  159.5575 H   0  0  0  0  0  0  0  0  0  0  0  0  # atno 6908 bound_to 6896
  152.2571  134.8073  160.0487 H   0  0  0  0  0  0  0  0  0  0  0  0  # atno 6909 bound_to 6896
  144.7320  139.9221  143.6420 H   0  0  0  0  0  0  0  0  0  0  0  0  # atno 7974 bound_to 7965
  155.9050  140.3431  155.6055 H   0  0  0  0  0  0  0  0  0  0  0  0  # atno 8008 bound_to 7997
  155.7455  140.0813  157.2244 H   0  0  0  0  0  0  0  0  0  0  0  0  # atno 8009 bound_to 7997
  154.4048  140.1563  156.2652 H   0  0  0  0  0  0  0  0  0  0  0  0  # atno 8010 bound_to 7997
  139.5685  144.1699  152.1348 H   0  0  0  0  0  0  0  0  0  0  0  0  # atno 10167 bound_to 10162
  156.4407  130.8120  151.2350 H   0  0  0  0  0  0  0  0  0  0  0  0  # atno 10718 bound_to 10713
  153.2338  135.6895  153.7860 H   0  0  0  0  0  0  0  0  0  0  0  0  # atno 10763 bound_to 10752
  153.7014  135.3297  155.3226 H   0  0  0  0  0  0  0  0  0  0  0  0  # atno 10764 bound_to 10752
  154.8326  135.4569  154.1234 H   0  0  0  0  0  0  0  0  0  0  0  0  # atno 10765 bound_to 10752
  141.1003  133.6619  156.4253 H   0  0  0  0  0  0  0  0  0  0  0  0  # atno 11005 bound_to 11000
  146.0922  139.3912  143.0399 LP  0  0  0  0  0  0  0  0  0  0  0  0  # atno 17320 bound_to 7965
  145.7695  140.9902  143.1157 LP  0  0  0  0  0  0  0  0  0  0  0  0  # atno 17321 bound_to 7965
  140.1227  144.5359  150.6853 LP  0  0  0  0  0  0  0  0  0  0  0  0  # atno 17342 bound_to 10162
  140.6969  143.2409  151.4976 LP  0  0  0  0  0  0  0  0  0  0  0  0  # atno 17343 bound_to 10162
  157.7506  131.0169  150.3564 LP  0  0  0  0  0  0  0  0  0  0  0  0  # atno 17370 bound_to 10713
  156.3921  130.3900  149.7022 LP  0  0  0  0  0  0  0  0  0  0  0  0  # atno 17371 bound_to 10713
  140.5038  134.6461  157.5258 LP  0  0  0  0  0  0  0  0  0  0  0  0  # atno 17394 bound_to 11000
  139.9853  134.7072  155.9786 LP  0  0  0  0  0  0  0  0  0  0  0  0  # atno 17395 bound_to 11000

$$$$
