AV-unprocessed.smi:354|AV-procd|sdf|2403|dock7
  -GOLD-   2262022333D 1   1.00000     0.00000
 Structure written by MMmdl.
 36 38  0  0  0  0  0  0  0  0  1 V2000
  153.1853  139.4135  155.2581 O   0  0  0  0  0  0  0  0  0  0  0  0
  152.0218  138.7713  155.7325 C   0  0  0  0  0  0  0  0  0  0  0  0
  150.7650  139.2898  155.1008 C   0  0  0  0  0  0  0  0  0  0  0  0
  149.9818  138.5056  154.3587 N   0  0  0  0  0  0  0  0  0  0  0  0
  148.9488  139.3513  154.0063 C   0  0  0  0  0  0  0  0  0  0  0  0
  147.7941  139.1151  153.2262 C   0  0  0  0  0  0  0  0  0  0  0  0
  146.8581  140.1467  153.0058 C   0  0  0  0  0  0  0  0  0  0  0  0
  147.0618  141.4259  153.5624 C   0  0  0  0  0  0  0  0  0  0  0  0
  148.2060  141.6826  154.3416 C   0  0  0  0  0  0  0  0  0  0  0  0
  149.1396  140.6502  154.5557 C   0  0  0  0  0  0  0  0  0  0  0  0
  150.3424  140.5721  155.2515 N   0  0  0  0  0  0  0  0  0  0  0  0
  150.9697  141.6609  155.9909 C   0  0  0  0  0  0  0  0  0  0  0  0
  150.3612  141.8618  157.3942 C   0  0  2  0  0  0  0  0  0  0  0  0
  149.2342  142.7133  157.3177 O   0  0  0  0  0  0  0  0  0  0  0  0
  151.4079  142.3679  158.3773 C   0  0  0  0  0  0  0  0  0  0  0  0
  151.8491  141.5447  159.4379 C   0  0  0  0  0  0  0  0  0  0  0  0
  152.8084  142.0170  160.3543 C   0  0  0  0  0  0  0  0  0  0  0  0
  153.3314  143.3169  160.2191 C   0  0  0  0  0  0  0  0  0  0  0  0
  152.8920  144.1449  159.1689 C   0  0  0  0  0  0  0  0  0  0  0  0
  151.9316  143.6749  158.2514 C   0  0  0  0  0  0  0  0  0  0  0  0
  151.5135  144.4888  157.2523 F   0  0  0  0  0  0  0  0  0  0  0  0
  153.4844  138.9598  154.4853 H   0  0  0  0  0  0  0  0  0  0  0  0
  152.1125  137.7038  155.5286 H   0  0  0  0  0  0  0  0  0  0  0  0
  151.9598  138.8738  156.8158 H   0  0  0  0  0  0  0  0  0  0  0  0
  147.6271  138.1375  152.7984 H   0  0  0  0  0  0  0  0  0  0  0  0
  145.9788  139.9552  152.4086 H   0  0  0  0  0  0  0  0  0  0  0  0
  146.3390  142.2101  153.3911 H   0  0  0  0  0  0  0  0  0  0  0  0
  148.3636  142.6615  154.7695 H   0  0  0  0  0  0  0  0  0  0  0  0
  152.0322  141.4312  156.0789 H   0  0  0  0  0  0  0  0  0  0  0  0
  150.9073  142.5855  155.4185 H   0  0  0  0  0  0  0  0  0  0  0  0
  149.9847  140.9061  157.7587 H   0  0  0  0  0  0  0  0  0  0  0  0
  149.3705  143.3286  156.6136 H   0  0  0  0  0  0  0  0  0  0  0  0
  151.4506  140.5475  159.5546 H   0  0  0  0  0  0  0  0  0  0  0  0
  153.1416  141.3823  161.1623 H   0  0  0  0  0  0  0  0  0  0  0  0
  154.0667  143.6798  160.9223 H   0  0  0  0  0  0  0  0  0  0  0  0
  153.2904  145.1437  159.0679 H   0  0  0  0  0  0  0  0  0  0  0  0
  1  2  1  0  0  0  0
  1 22  1  0  0  0  0
  2  3  1  0  0  0  0
  2 23  1  0  0  0  0
  2 24  1  0  0  0  0
  3 11  1  0  0  0  0
  3  4  2  0  0  0  0
  4  5  1  0  0  0  0
  5 10  2  0  0  0  0
  5  6  1  0  0  0  0
  6  7  2  0  0  0  0
  6 25  1  0  0  0  0
  7  8  1  0  0  0  0
  7 26  1  0  0  0  0
  8  9  2  0  0  0  0
  8 27  1  0  0  0  0
  9 10  1  0  0  0  0
  9 28  1  0  0  0  0
 10 11  1  0  0  0  0
 11 12  1  0  0  0  0
 12 13  1  0  0  0  0
 12 29  1  0  0  0  0
 12 30  1  0  0  0  0
 13 14  1  0  0  0  0
 13 15  1  0  0  0  0
 13 31  1  0  0  0  0
 14 32  1  0  0  0  0
 15 20  1  0  0  0  0
 15 16  2  0  0  0  0
 16 17  1  0  0  0  0
 16 33  1  0  0  0  0
 17 18  2  0  0  0  0
 17 34  1  0  0  0  0
 18 19  1  0  0  0  0
 18 35  1  0  0  0  0
 19 20  2  0  0  0  0
 19 36  1  0  0  0  0
 20 21  1  0  0  0  0
M  END
> <s_m_source_file>
AV-unprocessed.smi

> <i_m_source_file_index>
354

> <i_lp_mmshare_version>
43012

> <i_f3d_flags>
0

> <s_epik_input>
W2NIXTFbY0hdW2NIXVtjSF1jKGMxMiluKGMobjIpW0NIMl1bT0hdKVtDSDJdW0NASF0oW09IXSljM1tjSF1bY0hdW2NIXVtjSF1jM0Y=

> <s_epik_cmdline>
J2VwaWtfcHl0aG9uJywgJy1waCcsICc3LjAnLCAnLXRuJywgJzgnLCAnLW1hJywgJzIwMCcsICctbWV0YWxfYmluZGluZycsICctaW1hZScsICc8aW5maWxlLm1hZT4nLCAnLW9tYWUnLCAnPG91dGZpbGUubWFlPic=

> <r_epik_Ionization_Penalty>
0.0634722

> <r_epik_Ionization_Penalty_Charging>
0

> <r_epik_Ionization_Penalty_Neutral>
0.0634722

> <r_epik_State_Penalty>
0.0551572

> <r_epik_Charging_Adjusted_Penalty>
0.0551572

> <i_epik_Tot_Q>
0

> <i_epik_Tot_abs_Q>
0

> <r_epik_Metal_State_Penalty>
5.78034e-05

> <b_epik_Metal_Only>
0

> <s_lp_Force_Field>
OPLS_2005

> <r_lp_Energy>
13.1732

> <b_lp_Chiralities_Consistent>
1

> <s_lp_Variant>
AV-unprocessed.smi:354-1

> <Gold.Version>
5.8.1

> <Gold.Id.Protein>
6NUR|6NUR_protein|mol2

> <Gold.PLP.Fitness>
53.2091

> <Gold.PLP.PLP>
-48.6791

> <Gold.PLP.part.hbond>
-2.0000

> <Gold.PLP.part.metal>
0.0000

> <Gold.PLP.part.buried>
-0.9024

> <Gold.PLP.part.nonpolar>
-45.7487

> <Gold.PLP.part.repulsive>
0.2202

> <Gold.PLP.ligand.clash>
0.0000

> <Gold.PLP.ligand.torsion>
0.7583

> <Gold.PLP.Chemscore.Hbond>
2.0000

> <Gold.PLP.Chemscore.CHOScore>
0.0000

> <Gold.PLP.Chemscore.Metal>
0.0000

> <Gold.Chemscore.Hbonds>
donor molecule, donor type, donor heavy atom, donor atom, acceptor molecule, acceptor atom, score
      L1  H    14    32       P1  8028  1.00
      P1  H  7997  8010       L1     1  1.00

> <Gold.PLP.Chemscore.Internal.Correction>
0.0467

> <Gold.Rescore>
     Score         DG    S(hbond)    S(metal)    S(lipo)     H(rot)  DE(clash)    DE(int)     intcor
     17.15     -19.83       1.84        0.00     130.45       2.75       0.81       1.88       ----

> <Gold.Chemscore.Fitness>
17.1491

> <Gold.Chemscore.DG>
-19.8330

> <Gold.Chemscore.ZeroCoef>
-5.4800

> <Gold.Chemscore.Hbond>
1.8354

> <Gold.Chemscore.Metal>
0.0000

> <Gold.Chemscore.Lipo>
130.4510

> <Gold.Chemscore.Internal_Hbond>
0.0000

> <Gold.Chemscore.DEClash>
0.8055

> <Gold.Chemscore.DEInternal>
1.8784

> <Gold.Chemscore.Rot>
2.7500

> <Gold.Chemscore.Internal.Correction>
   9.000000E+99

> <Gold.Chemscore.Hbonds>
donor molecule, donor type, donor heavy atom, donor atom, acceptor molecule, acceptor atom, score
      L1  H    14    32       P1  8028  0.95
      P1  H  7997  8010       L1     1  0.91

> <Gold.Chemscore.Hbond.Weighted>
-6.1301

> <Gold.Chemscore.Metal.Weighted>
-0.0000

> <Gold.Chemscore.Lipo.Weighted>
-15.2628

> <Gold.Chemscore.Internal_Hbond.Weighted>
0.0000

> <Gold.Chemscore.DEClash.Weighted>
0.8055

> <Gold.Chemscore.DEInternal.Weighted>
1.8784

> <Gold.Chemscore.Rot.Weighted>
7.0399

> <Gold.Chemscore.Internal.Correction.Weighted>
   9.000000E+99

> <Gold.Protein.RotatedTorsions>
[ 6907 6896 6895 6894 ] final  -56.90 input  -60.11 | X-H torsion
[ 7974 7965 7964 7962 ] final -157.30 input  175.53 | X-H torsion
[ 8008 7997 7996 7995 ] final   85.21 input   59.86 | X-H torsion
[ 10167 10162 10161 10158 ] final   28.09 input  -65.29 | X-H torsion
[ 10718 10713 10712 10709 ] final  107.17 input   66.30 | X-H torsion
[ 10763 10752 10751 10750 ] final  -26.60 input  -60.55 | X-H torsion
[ 11005 11000 10999 10996 ] final  -87.42 input  -57.11 | X-H torsion

> <Gold.Protein.ActiveResidues>
 VAL166  LYS551  ARG553  GLY616  TRP617  ASP618  TYR619  PRO620  LYS621  CYS622 
 ASP623  PHE694  ASN695  SER759  ASP760  ASP761  ALA762  ILE779  LEU786  VAL792 
 PHE793  MET794  SER795  GLU796  ALA797  LYS798  CYS799  TRP800  GLU811  SER814 

> <Gold.Protein.RotatedAtoms>
  150.8129  134.7295  159.6703 H   0  0  0  0  0  0  0  0  0  0  0  0  # atno 6907 bound_to 6896
  152.4249  134.5884  159.9977 H   0  0  0  0  0  0  0  0  0  0  0  0  # atno 6908 bound_to 6896
  151.6089  133.3312  159.3099 H   0  0  0  0  0  0  0  0  0  0  0  0  # atno 6909 bound_to 6896
  144.7554  140.3988  143.6016 H   0  0  0  0  0  0  0  0  0  0  0  0  # atno 7974 bound_to 7965
  155.9471  140.3403  155.6376 H   0  0  0  0  0  0  0  0  0  0  0  0  # atno 8008 bound_to 7997
  155.6966  140.0755  157.2445 H   0  0  0  0  0  0  0  0  0  0  0  0  # atno 8009 bound_to 7997
  154.4114  140.1647  156.2132 H   0  0  0  0  0  0  0  0  0  0  0  0  # atno 8010 bound_to 7997
  140.4882  144.0509  150.6288 H   0  0  0  0  0  0  0  0  0  0  0  0  # atno 10167 bound_to 10162
  157.6639  131.0867  150.6116 H   0  0  0  0  0  0  0  0  0  0  0  0  # atno 10718 bound_to 10713
  153.7186  135.6946  153.5018 H   0  0  0  0  0  0  0  0  0  0  0  0  # atno 10763 bound_to 10752
  153.2220  135.4366  155.0499 H   0  0  0  0  0  0  0  0  0  0  0  0  # atno 10764 bound_to 10752
  154.8292  135.3463  154.6720 H   0  0  0  0  0  0  0  0  0  0  0  0  # atno 10765 bound_to 10752
  141.1617  133.7510  156.9305 H   0  0  0  0  0  0  0  0  0  0  0  0  # atno 11005 bound_to 11000
  145.6797  139.1616  143.2708 LP  0  0  0  0  0  0  0  0  0  0  0  0  # atno 17320 bound_to 7965
  146.1558  140.6860  142.9300 LP  0  0  0  0  0  0  0  0  0  0  0  0  # atno 17321 bound_to 7965
  140.3770  143.2823  152.0213 LP  0  0  0  0  0  0  0  0  0  0  0  0  # atno 17342 bound_to 10162
  139.4846  144.6185  151.7301 LP  0  0  0  0  0  0  0  0  0  0  0  0  # atno 17343 bound_to 10162
  156.6418  130.4460  149.5750 LP  0  0  0  0  0  0  0  0  0  0  0  0  # atno 17370 bound_to 10713
  156.2203  130.6733  151.1362 LP  0  0  0  0  0  0  0  0  0  0  0  0  # atno 17371 bound_to 10713
  140.1390  134.9306  157.2441 LP  0  0  0  0  0  0  0  0  0  0  0  0  # atno 17394 bound_to 11000
  140.2860  134.3295  155.7329 LP  0  0  0  0  0  0  0  0  0  0  0  0  # atno 17395 bound_to 11000

$$$$
