AV-unprocessed.smi:1978|AV-procd|sdf|7998|dock6
  -GOLD-   2272010183D 1   1.00000     0.00000
 Structure written by MMmdl.
 45 46  0  0  0  0  0  0  0  0  2 V2000
  150.3259  141.8551  156.1432 C   0  0  0  0  0  0  0  0  0  0  0  0
  150.2224  140.5379  155.4540 C   0  0  0  0  0  0  0  0  0  0  0  0
  149.1699  139.7077  155.1881 C   0  0  0  0  0  0  0  0  0  0  0  0
  149.7818  138.6263  154.5001 C   0  0  0  0  0  0  0  0  0  0  0  0
  149.0120  137.5301  154.0344 N   0  0  0  0  0  0  0  0  0  0  0  0
  148.1072  136.8150  154.7242 C   0  0  0  0  0  0  0  0  0  0  0  0
  147.7838  137.0168  155.8949 O   0  0  0  0  0  0  0  0  0  0  0  0
  147.5890  135.8296  153.9767 N   0  0  0  0  0  0  0  0  0  0  0  0
  146.5904  134.8691  154.4395 C   0  0  0  0  0  0  0  0  0  0  0  0
  146.6730  133.4941  153.7138 C   0  0  2  0  0  0  0  0  0  0  0  0
  148.1418  132.9956  153.7336 C   0  0  0  0  0  0  0  0  0  0  0  0
  146.1011  133.5657  152.3231 N   0  3  2  0  0  0  0  0  0  0  0  0
  144.6969  134.0773  152.2690 C   0  0  0  0  0  0  0  0  0  0  0  0
  144.2495  134.3629  150.8257 C   0  0  0  0  0  0  0  0  0  0  0  0
  144.3906  133.1236  149.9399 C   0  0  0  0  0  0  0  0  0  0  0  0
  145.8258  132.5938  150.0270 C   0  0  0  0  0  0  0  0  0  0  0  0
  146.2632  132.3304  151.4837 C   0  0  2  0  0  0  0  0  0  0  0  0
  145.5661  131.0852  152.0785 C   0  0  0  0  0  0  0  0  0  0  0  0
  151.0897  138.7805  154.3615 N   0  0  0  0  0  0  0  0  0  0  0  0
  151.3789  140.0060  154.9729 O   0  0  0  0  0  0  0  0  0  0  0  0
  149.3549  142.3489  156.1857 H   0  0  0  0  0  0  0  0  0  0  0  0
  151.0168  142.5150  155.6179 H   0  0  0  0  0  0  0  0  0  0  0  0
  150.6868  141.7289  157.1638 H   0  0  0  0  0  0  0  0  0  0  0  0
  148.1313  139.8554  155.4442 H   0  0  0  0  0  0  0  0  0  0  0  0
  149.1764  137.2554  153.0772 H   0  0  0  0  0  0  0  0  0  0  0  0
  147.9079  135.7346  153.0235 H   0  0  0  0  0  0  0  0  0  0  0  0
  146.7215  134.7848  155.5164 H   0  0  0  0  0  0  0  0  0  0  0  0
  145.6047  135.3094  154.2853 H   0  0  0  0  0  0  0  0  0  0  0  0
  146.0732  132.7746  154.2731 H   0  0  0  0  0  0  0  0  0  0  0  0
  148.5585  132.9900  154.7404 H   0  0  0  0  0  0  0  0  0  0  0  0
  148.7827  133.6297  153.1204 H   0  0  0  0  0  0  0  0  0  0  0  0
  148.2444  131.9704  153.3816 H   0  0  0  0  0  0  0  0  0  0  0  0
  144.0198  133.3688  152.7469 H   0  0  0  0  0  0  0  0  0  0  0  0
  144.5861  135.0111  152.8120 H   0  0  0  0  0  0  0  0  0  0  0  0
  143.2149  134.7079  150.8176 H   0  0  0  0  0  0  0  0  0  0  0  0
  144.8485  135.1761  150.4134 H   0  0  0  0  0  0  0  0  0  0  0  0
  143.6822  132.3565  150.2536 H   0  0  0  0  0  0  0  0  0  0  0  0
  144.1422  133.3696  148.9071 H   0  0  0  0  0  0  0  0  0  0  0  0
  145.9237  131.6850  149.4319 H   0  0  0  0  0  0  0  0  0  0  0  0
  146.5013  133.3226  149.5764 H   0  0  0  0  0  0  0  0  0  0  0  0
  147.3254  132.1032  151.4067 H   0  0  0  0  0  0  0  0  0  0  0  0
  145.7452  130.2106  151.4527 H   0  0  0  0  0  0  0  0  0  0  0  0
  144.4864  131.2083  152.1542 H   0  0  0  0  0  0  0  0  0  0  0  0
  145.9359  130.8415  153.0735 H   0  0  0  0  0  0  0  0  0  0  0  0
  146.6569  134.2662  151.8537 H   0  0  0  0  0  0  0  0  0  0  0  0
  1  2  1  0  0  0  0
  1 21  1  0  0  0  0
  1 22  1  0  0  0  0
  1 23  1  0  0  0  0
  2 20  1  0  0  0  0
  2  3  2  0  0  0  0
  3  4  1  0  0  0  0
  3 24  1  0  0  0  0
  4  5  1  0  0  0  0
  4 19  2  0  0  0  0
  5  6  1  0  0  0  0
  5 25  1  0  0  0  0
  6  7  2  0  0  0  0
  6  8  1  0  0  0  0
  8  9  1  0  0  0  0
  8 26  1  0  0  0  0
  9 10  1  0  0  0  0
  9 27  1  0  0  0  0
  9 28  1  0  0  0  0
 10 11  1  0  0  0  0
 10 12  1  0  0  0  0
 10 29  1  0  0  0  0
 11 30  1  0  0  0  0
 11 31  1  0  0  0  0
 11 32  1  0  0  0  0
 12 17  1  0  0  0  0
 12 13  1  0  0  0  0
 12 45  1  0  0  0  0
 13 14  1  0  0  0  0
 13 33  1  0  0  0  0
 13 34  1  0  0  0  0
 14 15  1  0  0  0  0
 14 35  1  0  0  0  0
 14 36  1  0  0  0  0
 15 16  1  0  0  0  0
 15 37  1  0  0  0  0
 15 38  1  0  0  0  0
 16 17  1  0  0  0  0
 16 39  1  0  0  0  0
 16 40  1  0  0  0  0
 17 18  1  0  0  0  0
 17 41  1  0  0  0  0
 18 42  1  0  0  0  0
 18 43  1  0  0  0  0
 18 44  1  0  0  0  0
 19 20  1  0  0  0  0
M  CHG  1  12   1
M  END
> <s_m_source_file>
AV-unprocessed.smi

> <i_m_source_file_index>
1978

> <i_lp_mmshare_version>
43012

> <i_f3d_flags>
0

> <s_epik_input>
W0NIM11jMVtjSF1jKG5vMSlbTkhdQyg9TylbTkhdW0NIMl1bQ0BIXShbQ0gzXSlOMltDSDJdW0NIMl1bQ0gyXVtDSDJdW0NASF0yW0NIM10=

> <s_epik_cmdline>
J2VwaWtfcHl0aG9uJywgJy1waCcsICc3LjAnLCAnLXRuJywgJzgnLCAnLW1hJywgJzIwMCcsICctbWV0YWxfYmluZGluZycsICctaW1hZScsICc8aW5maWxlLm1hZT4nLCAnLW9tYWUnLCAnPG91dGZpbGUubWFlPic=

> <r_epik_Ionization_Penalty>
0.00265971

> <r_epik_Ionization_Penalty_Charging>
0.00262393

> <r_epik_Ionization_Penalty_Neutral>
3.57846e-05

> <r_epik_State_Penalty>
0.00182566

> <r_epik_Charging_Adjusted_Penalty>
0.00444959

> <i_epik_Tot_Q>
1

> <i_epik_Tot_abs_Q>
1

> <r_epik_Metal_State_Penalty>
0.0216344

> <b_epik_Metal_Only>
0

> <s_lp_Force_Field>
OPLS_2005

> <r_lp_Energy>
22.9215

> <b_lp_Chiralities_Consistent>
1

> <s_lp_Variant>
AV-unprocessed.smi:1978-7

> <Gold.Version>
5.8.1

> <Gold.Id.Protein>
6NUR|6NUR_protein|mol2

> <Gold.PLP.Fitness>
36.7449

> <Gold.PLP.PLP>
-29.6770

> <Gold.PLP.part.hbond>
-2.8930

> <Gold.PLP.part.metal>
0.0000

> <Gold.PLP.part.buried>
-4.7653

> <Gold.PLP.part.nonpolar>
-23.4677

> <Gold.PLP.part.repulsive>
0.2415

> <Gold.PLP.ligand.clash>
0.0000

> <Gold.PLP.ligand.torsion>
0.7384

> <Gold.PLP.Chemscore.Hbond>
2.8150

> <Gold.PLP.Chemscore.CHOScore>
0.0000

> <Gold.PLP.Chemscore.Metal>
0.0000

> <Gold.Chemscore.Hbonds>
donor molecule, donor type, donor heavy atom, donor atom, acceptor molecule, acceptor atom, score
      L1  H     5    25       P1  7948  1.00
      L1  H     8    26       P1  7948  0.96
      P1  H  7989  7998       L1    20  0.80

> <Gold.PLP.Chemscore.Internal.Correction>
0.0996

> <Gold.Rescore>
     Score         DG    S(hbond)    S(metal)    S(lipo)     H(rot)  DE(clash)    DE(int)     intcor
     15.60     -16.44       1.93        0.00      72.53       1.55       0.06       0.77       ----

> <Gold.Chemscore.Fitness>
15.5971

> <Gold.Chemscore.DG>
-16.4358

> <Gold.Chemscore.ZeroCoef>
-5.4800

> <Gold.Chemscore.Hbond>
1.9254

> <Gold.Chemscore.Metal>
0.0000

> <Gold.Chemscore.Lipo>
72.5301

> <Gold.Chemscore.Internal_Hbond>
0.0000

> <Gold.Chemscore.DEClash>
0.0643

> <Gold.Chemscore.DEInternal>
0.7744

> <Gold.Chemscore.Rot>
1.5474

> <Gold.Chemscore.Internal.Correction>
   9.000000E+99

> <Gold.Chemscore.Hbonds>
donor molecule, donor type, donor heavy atom, donor atom, acceptor molecule, acceptor atom, score
      L1  H     5    25       P1  7948  0.93
      L1  H     8    26       P1  7948  0.92
      P1  H  7989  7998       L1    20  0.05

> <Gold.Chemscore.Hbond.Weighted>
-6.4310

> <Gold.Chemscore.Metal.Weighted>
-0.0000

> <Gold.Chemscore.Lipo.Weighted>
-8.4860

> <Gold.Chemscore.Internal_Hbond.Weighted>
0.0000

> <Gold.Chemscore.DEClash.Weighted>
0.0643

> <Gold.Chemscore.DEInternal.Weighted>
0.7744

> <Gold.Chemscore.Rot.Weighted>
3.9612

> <Gold.Chemscore.Internal.Correction.Weighted>
   9.000000E+99

> <Gold.Protein.RotatedTorsions>
[ 6907 6896 6895 6894 ] final -151.74 input  -60.11 | X-H torsion
[ 7974 7965 7964 7962 ] final  179.38 input  175.53 | X-H torsion
[ 8008 7997 7996 7995 ] final  -71.58 input   59.86 | X-H torsion
[ 10167 10162 10161 10158 ] final  172.99 input  -65.29 | X-H torsion
[ 10718 10713 10712 10709 ] final  179.04 input   66.30 | X-H torsion
[ 10763 10752 10751 10750 ] final    4.42 input  -60.55 | X-H torsion
[ 11005 11000 10999 10996 ] final   49.21 input  -57.11 | X-H torsion

> <Gold.Protein.ActiveResidues>
 VAL166  LYS551  ARG553  GLY616  TRP617  ASP618  TYR619  PRO620  LYS621  CYS622 
 ASP623  PHE694  ASN695  SER759  ASP760  ASP761  ALA762  ILE779  LEU786  VAL792 
 PHE793  MET794  SER795  GLU796  ALA797  LYS798  CYS799  TRP800  GLU811  SER814 

> <Gold.Protein.RotatedAtoms>
  151.2175  133.4521  159.2599 H   0  0  0  0  0  0  0  0  0  0  0  0  # atno 6907 bound_to 6896
  151.0917  134.9920  159.8416 H   0  0  0  0  0  0  0  0  0  0  0  0  # atno 6908 bound_to 6896
  152.5435  134.2108  159.8802 H   0  0  0  0  0  0  0  0  0  0  0  0  # atno 6909 bound_to 6896
  144.7146  140.0540  143.6434 H   0  0  0  0  0  0  0  0  0  0  0  0  # atno 7974 bound_to 7965
  154.5098  140.0813  156.7968 H   0  0  0  0  0  0  0  0  0  0  0  0  # atno 8008 bound_to 7997
  155.3810  140.3428  155.4228 H   0  0  0  0  0  0  0  0  0  0  0  0  # atno 8009 bound_to 7997
  156.1560  140.1573  156.8679 H   0  0  0  0  0  0  0  0  0  0  0  0  # atno 8010 bound_to 7997
  139.5094  144.3311  152.0110 H   0  0  0  0  0  0  0  0  0  0  0  0  # atno 10167 bound_to 10162
  156.8816  130.9818  151.3061 H   0  0  0  0  0  0  0  0  0  0  0  0  # atno 10718 bound_to 10713
  153.2714  135.6932  153.7476 H   0  0  0  0  0  0  0  0  0  0  0  0  # atno 10763 bound_to 10752
  153.6498  135.3379  155.3097 H   0  0  0  0  0  0  0  0  0  0  0  0  # atno 10764 bound_to 10752
  154.8465  135.4451  154.1738 H   0  0  0  0  0  0  0  0  0  0  0  0  # atno 10765 bound_to 10752
  140.1123  134.4938  155.8667 H   0  0  0  0  0  0  0  0  0  0  0  0  # atno 11005 bound_to 11000
  145.9920  139.3022  143.0979 LP  0  0  0  0  0  0  0  0  0  0  0  0  # atno 17320 bound_to 7965
  145.8892  140.9314  143.0561 LP  0  0  0  0  0  0  0  0  0  0  0  0  # atno 17321 bound_to 7965
  140.2751  144.3921  150.6138 LP  0  0  0  0  0  0  0  0  0  0  0  0  # atno 17342 bound_to 10162
  140.6060  143.2168  151.6980 LP  0  0  0  0  0  0  0  0  0  0  0  0  # atno 17343 bound_to 10162
  157.6137  130.8602  149.8993 LP  0  0  0  0  0  0  0  0  0  0  0  0  # atno 17370 bound_to 10713
  156.0674  130.3690  150.0849 LP  0  0  0  0  0  0  0  0  0  0  0  0  # atno 17371 bound_to 10713
  141.2133  133.6731  156.6729 LP  0  0  0  0  0  0  0  0  0  0  0  0  # atno 17394 bound_to 11000
  140.3074  134.8114  157.4148 LP  0  0  0  0  0  0  0  0  0  0  0  0  # atno 17395 bound_to 11000

$$$$
