AV-unprocessed.smi:260|AV-procd|sdf|1975|dock5
  -GOLD-   2262021143D 1   1.00000     0.00000
 Structure written by MMmdl.
 53 56  0  0  0  0  0  0  0  0  1 V2000
  152.1924  130.6241  156.5584 C   0  0  0  0  0  0  0  0  0  0  0  0
  151.2043  131.3588  155.7836 N   0  0  0  0  0  0  0  0  0  0  0  0
  150.7201  132.5659  156.1180 C   0  0  0  0  0  0  0  0  0  0  0  0
  151.0920  133.1545  157.1347 O   0  0  0  0  0  0  0  0  0  0  0  0
  149.6615  133.2147  155.1829 C   0  0  1  0  0  0  0  0  0  0  0  0
  149.1892  132.2468  154.0727 C   0  0  0  0  0  0  0  0  0  0  0  0
  148.4735  133.7416  156.0145 C   0  0  0  0  0  0  0  0  0  0  0  0
  148.8948  135.1391  156.4744 C   0  0  0  0  0  0  0  0  0  0  0  0
  149.8132  135.6067  155.4510 N   0  0  0  0  0  0  0  0  0  0  0  0
  150.5024  136.7739  155.5399 C   0  0  0  0  0  0  0  0  0  0  0  0
  151.5006  136.9992  154.6452 N   0  0  0  0  0  0  0  0  0  0  0  0
  152.2096  138.1301  154.6858 C   0  0  0  0  0  0  0  0  0  0  0  0
  152.0908  139.1581  155.5262 N   0  0  0  0  0  0  0  0  0  0  0  0
  151.0888  138.9461  156.4261 C   0  0  0  0  0  0  0  0  0  0  0  0
  150.2488  137.7970  156.5026 C   0  0  0  0  0  0  0  0  0  0  0  0
  149.3418  137.9565  157.5452 N   0  0  0  0  0  0  0  0  0  0  0  0
  149.6310  139.1213  158.0550 C   0  0  0  0  0  0  0  0  0  0  0  0
  150.6816  139.7767  157.4560 N   0  0  0  0  0  0  0  0  0  0  0  0
  151.2103  141.0811  157.8163 C   0  0  0  0  0  0  0  0  0  0  0  0
  150.1338  142.1875  157.9035 C   0  0  2  0  0  0  0  0  0  0  0  0
  149.7116  142.4146  156.5740 O   0  0  0  0  0  0  0  0  0  0  0  0
  150.6183  143.5443  158.4656 C   0  0  2  0  0  0  0  0  0  0  0  0
  151.8799  144.1299  157.8251 C   0  0  0  0  0  0  0  0  0  0  0  0
  152.4706  145.0112  158.9132 C   0  0  0  0  0  0  0  0  0  0  0  0
  151.7727  144.5370  160.1881 C   0  0  0  0  0  0  0  0  0  0  0  0
  151.0646  143.3678  159.8029 O   0  0  0  0  0  0  0  0  0  0  0  0
  150.2171  134.5189  154.5655 C   0  0  0  0  0  0  0  0  0  0  0  0
  152.4374  129.6887  156.0555 H   0  0  0  0  0  0  0  0  0  0  0  0
  151.8084  130.3875  157.5514 H   0  0  0  0  0  0  0  0  0  0  0  0
  153.1108  131.2021  156.6680 H   0  0  0  0  0  0  0  0  0  0  0  0
  150.8630  130.9240  154.9386 H   0  0  0  0  0  0  0  0  0  0  0  0
  148.4847  132.7349  153.3984 H   0  0  0  0  0  0  0  0  0  0  0  0
  148.6799  131.3753  154.4861 H   0  0  0  0  0  0  0  0  0  0  0  0
  150.0237  131.8954  153.4644 H   0  0  0  0  0  0  0  0  0  0  0  0
  147.5863  133.8259  155.3856 H   0  0  0  0  0  0  0  0  0  0  0  0
  148.2102  133.0967  156.8541 H   0  0  0  0  0  0  0  0  0  0  0  0
  148.0339  135.8004  156.5750 H   0  0  0  0  0  0  0  0  0  0  0  0
  149.4093  135.0906  157.4347 H   0  0  0  0  0  0  0  0  0  0  0  0
  152.9837  138.2234  153.9384 H   0  0  0  0  0  0  0  0  0  0  0  0
  149.0866  139.5325  158.8926 H   0  0  0  0  0  0  0  0  0  0  0  0
  151.7519  141.0037  158.7601 H   0  0  0  0  0  0  0  0  0  0  0  0
  151.9503  141.3410  157.0578 H   0  0  0  0  0  0  0  0  0  0  0  0
  149.2762  141.8298  158.4746 H   0  0  0  0  0  0  0  0  0  0  0  0
  149.6217  143.3461  156.4431 H   0  0  0  0  0  0  0  0  0  0  0  0
  149.8167  144.2856  158.4403 H   0  0  0  0  0  0  0  0  0  0  0  0
  152.5860  143.3343  157.5843 H   0  0  0  0  0  0  0  0  0  0  0  0
  151.6707  144.6877  156.9127 H   0  0  0  0  0  0  0  0  0  0  0  0
  153.5527  144.8884  158.9711 H   0  0  0  0  0  0  0  0  0  0  0  0
  152.2606  146.0658  158.7308 H   0  0  0  0  0  0  0  0  0  0  0  0
  152.4731  144.3229  160.9954 H   0  0  0  0  0  0  0  0  0  0  0  0
  151.0643  145.2879  160.5408 H   0  0  0  0  0  0  0  0  0  0  0  0
  151.3012  134.4730  154.4484 H   0  0  0  0  0  0  0  0  0  0  0  0
  149.7927  134.7028  153.5781 H   0  0  0  0  0  0  0  0  0  0  0  0
  1  2  1  0  0  0  0
  1 28  1  0  0  0  0
  1 29  1  0  0  0  0
  1 30  1  0  0  0  0
  2  3  1  0  0  0  0
  2 31  1  0  0  0  0
  3  4  2  0  0  0  0
  3  5  1  0  0  0  0
  5 27  1  0  0  0  0
  5  6  1  0  0  0  0
  5  7  1  0  0  0  0
  6 32  1  0  0  0  0
  6 33  1  0  0  0  0
  6 34  1  0  0  0  0
  7  8  1  0  0  0  0
  7 35  1  0  0  0  0
  7 36  1  0  0  0  0
  8  9  1  0  0  0  0
  8 37  1  0  0  0  0
  8 38  1  0  0  0  0
  9 10  1  0  0  0  0
  9 27  1  0  0  0  0
 10 15  1  0  0  0  0
 10 11  2  0  0  0  0
 11 12  1  0  0  0  0
 12 13  2  0  0  0  0
 12 39  1  0  0  0  0
 13 14  1  0  0  0  0
 14 18  1  0  0  0  0
 14 15  2  0  0  0  0
 15 16  1  0  0  0  0
 16 17  2  0  0  0  0
 17 18  1  0  0  0  0
 17 40  1  0  0  0  0
 18 19  1  0  0  0  0
 19 20  1  0  0  0  0
 19 41  1  0  0  0  0
 19 42  1  0  0  0  0
 20 21  1  0  0  0  0
 20 22  1  0  0  0  0
 20 43  1  0  0  0  0
 21 44  1  0  0  0  0
 22 26  1  0  0  0  0
 22 23  1  0  0  0  0
 22 45  1  0  0  0  0
 23 24  1  0  0  0  0
 23 46  1  0  0  0  0
 23 47  1  0  0  0  0
 24 25  1  0  0  0  0
 24 48  1  0  0  0  0
 24 49  1  0  0  0  0
 25 26  1  0  0  0  0
 25 50  1  0  0  0  0
 25 51  1  0  0  0  0
 27 52  1  0  0  0  0
 27 53  1  0  0  0  0
M  END
> <s_m_source_file>
AV-unprocessed.smi

> <i_m_source_file_index>
260

> <i_lp_mmshare_version>
43012

> <i_f3d_flags>
0

> <s_epik_input>
W0NIM11bTkhdQyg9TylbQ0BAXTEoW0NIM10pW0NIMl1bQ0gyXU4oW0NIMl0xKWMobltjSF1uMiljKGMyMyluW2NIXW4zW0NIMl1bQ0BIXShbT0hdKVtDQEBIXTRbQ0gyXVtDSDJdW0NIMl1PNA==

> <s_epik_cmdline>
J2VwaWtfcHl0aG9uJywgJy1waCcsICc3LjAnLCAnLXRuJywgJzgnLCAnLW1hJywgJzIwMCcsICctbWV0YWxfYmluZGluZycsICctaW1hZScsICc8aW5maWxlLm1hZT4nLCAnLW9tYWUnLCAnPG91dGZpbGUubWFlPic=

> <r_lp_tautomer_probability>
1

> <r_epik_Ionization_Penalty>
0.00115068

> <r_epik_Ionization_Penalty_Charging>
0

> <r_epik_Ionization_Penalty_Neutral>
0.00115068

> <r_epik_State_Penalty>
0.000668876

> <r_epik_Charging_Adjusted_Penalty>
0.000668876

> <i_epik_Tot_Q>
0

> <i_epik_Tot_abs_Q>
0

> <r_epik_Metal_State_Penalty>
-0

> <b_epik_Metal_Only>
0

> <s_lp_Force_Field>
OPLS_2005

> <r_lp_Energy>
51.9197

> <b_lp_Chiralities_Consistent>
1

> <s_lp_Variant>
AV-unprocessed.smi:260-1

> <Gold.Version>
5.8.1

> <Gold.Id.Protein>
6NUR|6NUR_protein|mol2

> <Gold.PLP.Fitness>
50.9758

> <Gold.PLP.PLP>
-42.9545

> <Gold.PLP.part.hbond>
-3.0341

> <Gold.PLP.part.metal>
0.0000

> <Gold.PLP.part.buried>
-9.0441

> <Gold.PLP.part.nonpolar>
-32.1921

> <Gold.PLP.part.repulsive>
0.1983

> <Gold.PLP.ligand.clash>
0.0000

> <Gold.PLP.ligand.torsion>
0.3842

> <Gold.PLP.Chemscore.Hbond>
2.8406

> <Gold.PLP.Chemscore.CHOScore>
0.0000

> <Gold.PLP.Chemscore.Metal>
0.0000

> <Gold.Chemscore.Hbonds>
donor molecule, donor type, donor heavy atom, donor atom, acceptor molecule, acceptor atom, score
      L1  H    21    44       P1  8028  1.00
      P1  H  6896  6907       L1     4  0.76
      P1  H 10752 10765       L1    11  1.00

> <Gold.PLP.Chemscore.Internal.Correction>
0.2678

> <Gold.Rescore>
     Score         DG    S(hbond)    S(metal)    S(lipo)     H(rot)  DE(clash)    DE(int)     intcor
     15.15     -17.21       2.42        0.00      86.58       2.53       0.13       1.94       ----

> <Gold.Chemscore.Fitness>
15.1459

> <Gold.Chemscore.DG>
-17.2108

> <Gold.Chemscore.ZeroCoef>
-5.4800

> <Gold.Chemscore.Hbond>
2.4152

> <Gold.Chemscore.Metal>
0.0000

> <Gold.Chemscore.Lipo>
86.5838

> <Gold.Chemscore.Internal_Hbond>
0.0000

> <Gold.Chemscore.DEClash>
0.1272

> <Gold.Chemscore.DEInternal>
1.9378

> <Gold.Chemscore.Rot>
2.5259

> <Gold.Chemscore.Internal.Correction>
   9.000000E+99

> <Gold.Chemscore.Hbonds>
donor molecule, donor type, donor heavy atom, donor atom, acceptor molecule, acceptor atom, score
      L1  H    21    44       P1  8028  0.96
      P1  H  6896  6907       L1     4  0.73
      P1  H 10752 10765       L1    11  0.29

> <Gold.Chemscore.Hbond.Weighted>
-8.0668

> <Gold.Chemscore.Metal.Weighted>
-0.0000

> <Gold.Chemscore.Lipo.Weighted>
-10.1303

> <Gold.Chemscore.Internal_Hbond.Weighted>
0.0000

> <Gold.Chemscore.DEClash.Weighted>
0.1272

> <Gold.Chemscore.DEInternal.Weighted>
1.9378

> <Gold.Chemscore.Rot.Weighted>
6.4663

> <Gold.Chemscore.Internal.Correction.Weighted>
   9.000000E+99

> <Gold.Protein.RotatedTorsions>
[ 6907 6896 6895 6894 ] final -150.16 input  -60.11 | X-H torsion
[ 7974 7965 7964 7962 ] final  152.26 input  175.53 | X-H torsion
[ 8008 7997 7996 7995 ] final -135.10 input   59.86 | X-H torsion
[ 10167 10162 10161 10158 ] final  130.34 input  -65.29 | X-H torsion
[ 10718 10713 10712 10709 ] final -113.04 input   66.30 | X-H torsion
[ 10763 10752 10751 10750 ] final  165.48 input  -60.55 | X-H torsion
[ 11005 11000 10999 10996 ] final  139.38 input  -57.11 | X-H torsion

> <Gold.Protein.ActiveResidues>
 VAL166  LYS551  ARG553  GLY616  TRP617  ASP618  TYR619  PRO620  LYS621  CYS622 
 ASP623  PHE694  ASN695  SER759  ASP760  ASP761  ALA762  ILE779  LEU786  VAL792 
 PHE793  MET794  SER795  GLU796  ALA797  LYS798  CYS799  TRP800  GLU811  SER814 

> <Gold.Protein.RotatedAtoms>
  151.1945  133.4647  159.2595 H   0  0  0  0  0  0  0  0  0  0  0  0  # atno 6907 bound_to 6896
  151.1130  135.0037  159.8513 H   0  0  0  0  0  0  0  0  0  0  0  0  # atno 6908 bound_to 6896
  152.5451  134.1863  159.8709 H   0  0  0  0  0  0  0  0  0  0  0  0  # atno 6909 bound_to 6896
  144.8234  139.6645  143.6090 H   0  0  0  0  0  0  0  0  0  0  0  0  # atno 7974 bound_to 7965
  155.3731  140.0489  157.3045 H   0  0  0  0  0  0  0  0  0  0  0  0  # atno 8008 bound_to 7997
  154.5120  140.2195  155.9101 H   0  0  0  0  0  0  0  0  0  0  0  0  # atno 8009 bound_to 7997
  156.1593  140.3120  155.8785 H   0  0  0  0  0  0  0  0  0  0  0  0  # atno 8010 bound_to 7997
  139.5434  144.6752  151.4550 H   0  0  0  0  0  0  0  0  0  0  0  0  # atno 10167 bound_to 10162
  156.0742  130.5952  150.8590 H   0  0  0  0  0  0  0  0  0  0  0  0  # atno 10718 bound_to 10713
  154.3246  135.2755  155.2502 H   0  0  0  0  0  0  0  0  0  0  0  0  # atno 10763 bound_to 10752
  154.4840  135.5851  153.6414 H   0  0  0  0  0  0  0  0  0  0  0  0  # atno 10764 bound_to 10752
  152.9873  135.6118  154.3434 H   0  0  0  0  0  0  0  0  0  0  0  0  # atno 10765 bound_to 10752
  140.0251  134.9379  157.0551 H   0  0  0  0  0  0  0  0  0  0  0  0  # atno 11005 bound_to 11000
  146.2540  139.6261  142.9408 LP  0  0  0  0  0  0  0  0  0  0  0  0  # atno 17320 bound_to 7965
  145.5053  141.0437  143.2518 LP  0  0  0  0  0  0  0  0  0  0  0  0  # atno 17321 bound_to 7965
  140.6674  143.8369  150.6958 LP  0  0  0  0  0  0  0  0  0  0  0  0  # atno 17342 bound_to 10162
  140.1782  143.4137  152.1952 LP  0  0  0  0  0  0  0  0  0  0  0  0  # atno 17343 bound_to 10162
  157.5829  131.0946  150.9242 LP  0  0  0  0  0  0  0  0  0  0  0  0  # atno 17370 bound_to 10713
  156.9433  130.5393  149.5280 LP  0  0  0  0  0  0  0  0  0  0  0  0  # atno 17371 bound_to 10713
  140.4321  134.1770  155.7168 LP  0  0  0  0  0  0  0  0  0  0  0  0  # atno 17394 bound_to 11000
  141.1797  133.8439  157.1299 LP  0  0  0  0  0  0  0  0  0  0  0  0  # atno 17395 bound_to 11000

$$$$
