AV-unprocessed.smi:985|AV-procd|sdf|4319|dock2
  -GOLD-   22720 2223D 1   1.00000     0.00000
 Structure written by MMmdl.
 26 27  0  0  0  0  0  0  0  0  2 V2000
  153.9219  137.3930  158.1612 C   0  0  0  0  0  0  0  0  0  0  0  0
  152.9220  138.4863  158.3211 C   0  0  0  0  0  0  0  0  0  0  0  0
  153.1627  139.7920  158.4127 N   0  0  0  0  0  0  0  0  0  0  0  0
  151.8987  140.2836  158.5446 C   0  0  0  0  0  0  0  0  0  0  0  0
  151.6020  141.7454  158.6848 C   0  0  1  0  0  0  0  0  0  0  0  0
  152.8396  142.5507  159.1244 C   0  0  0  0  0  0  0  0  0  0  0  0
  152.4938  144.0431  159.2434 C   0  0  0  0  0  0  0  0  0  0  0  0
  151.8654  144.5690  157.9418 C   0  0  0  0  0  0  0  0  0  0  0  0
  150.6725  143.7735  157.5779 N   0  3  0  0  0  0  0  0  0  0  0  0
  150.9658  142.3328  157.4085 C   0  0  0  0  0  0  0  0  0  0  0  0
  150.9244  139.3816  158.5330 N   0  0  0  0  0  0  0  0  0  0  0  0
  151.6078  138.1661  158.3839 O   0  0  0  0  0  0  0  0  0  0  0  0
  154.9312  137.8033  158.1176 H   0  0  0  0  0  0  0  0  0  0  0  0
  153.7282  136.8410  157.2414 H   0  0  0  0  0  0  0  0  0  0  0  0
  153.8600  136.7040  159.0037 H   0  0  0  0  0  0  0  0  0  0  0  0
  150.8618  141.8478  159.4810 H   0  0  0  0  0  0  0  0  0  0  0  0
  153.2160  142.1775  160.0776 H   0  0  0  0  0  0  0  0  0  0  0  0
  153.6448  142.4230  158.3993 H   0  0  0  0  0  0  0  0  0  0  0  0
  151.8002  144.1939  160.0717 H   0  0  0  0  0  0  0  0  0  0  0  0
  153.3904  144.6152  159.4833 H   0  0  0  0  0  0  0  0  0  0  0  0
  151.5741  145.6131  158.0582 H   0  0  0  0  0  0  0  0  0  0  0  0
  152.5888  144.5286  157.1262 H   0  0  0  0  0  0  0  0  0  0  0  0
  149.9833  143.8777  158.3091 H   0  0  0  0  0  0  0  0  0  0  0  0
  151.6323  142.2064  156.5540 H   0  0  0  0  0  0  0  0  0  0  0  0
  150.0386  141.8107  157.1697 H   0  0  0  0  0  0  0  0  0  0  0  0
  150.2888  144.1334  156.7156 H   0  0  0  0  0  0  0  0  0  0  0  0
  1  2  1  0  0  0  0
  1 13  1  0  0  0  0
  1 14  1  0  0  0  0
  1 15  1  0  0  0  0
  2 12  1  0  0  0  0
  2  3  2  0  0  0  0
  3  4  1  0  0  0  0
  4  5  1  0  0  0  0
  4 11  2  0  0  0  0
  5 10  1  0  0  0  0
  5  6  1  0  0  0  0
  5 16  1  0  0  0  0
  6  7  1  0  0  0  0
  6 17  1  0  0  0  0
  6 18  1  0  0  0  0
  7  8  1  0  0  0  0
  7 19  1  0  0  0  0
  7 20  1  0  0  0  0
  8  9  1  0  0  0  0
  8 21  1  0  0  0  0
  8 22  1  0  0  0  0
  9 10  1  0  0  0  0
  9 23  1  0  0  0  0
  9 26  1  0  0  0  0
 10 24  1  0  0  0  0
 10 25  1  0  0  0  0
 11 12  1  0  0  0  0
M  CHG  1   9   1
M  END
> <s_m_source_file>
AV-unprocessed.smi

> <i_m_source_file_index>
985

> <i_lp_mmshare_version>
43012

> <i_f3d_flags>
0

> <s_epik_input>
W0NIM11jMW5jKG5vMSlbQ0BASF0yW0NIMl1bQ0gyXVtDSDJdW05IXVtDSDJdMg==

> <s_epik_cmdline>
J2VwaWtfcHl0aG9uJywgJy1waCcsICc3LjAnLCAnLXRuJywgJzgnLCAnLW1hJywgJzIwMCcsICctbWV0YWxfYmluZGluZycsICctaW1hZScsICc8aW5maWxlLm1hZT4nLCAnLW9tYWUnLCAnPG91dGZpbGUubWFlPic=

> <r_lp_tautomer_probability>
1

> <r_epik_Ionization_Penalty>
0.000532935

> <r_epik_Ionization_Penalty_Charging>
0.000532935

> <r_epik_Ionization_Penalty_Neutral>
3.88228e-13

> <r_epik_State_Penalty>
0.000332992

> <r_epik_Charging_Adjusted_Penalty>
0.000865928

> <i_epik_Tot_Q>
1

> <i_epik_Tot_abs_Q>
1

> <r_epik_Metal_State_Penalty>
-0

> <b_epik_Metal_Only>
0

> <s_lp_Force_Field>
OPLS_2005

> <r_lp_Energy>
6.62541

> <b_lp_Chiralities_Consistent>
1

> <s_lp_Variant>
AV-unprocessed.smi:985-2

> <Gold.Version>
5.8.1

> <Gold.Id.Protein>
6NUR|6NUR_protein|mol2

> <Gold.PLP.Fitness>
31.9406

> <Gold.PLP.PLP>
-23.6697

> <Gold.PLP.part.hbond>
-2.0000

> <Gold.PLP.part.metal>
0.0000

> <Gold.PLP.part.buried>
-3.7909

> <Gold.PLP.part.nonpolar>
-18.4388

> <Gold.PLP.part.repulsive>
0.0041

> <Gold.PLP.ligand.clash>
0.0000

> <Gold.PLP.ligand.torsion>
0.3862

> <Gold.PLP.Chemscore.Hbond>
3.0000

> <Gold.PLP.Chemscore.CHOScore>
0.0000

> <Gold.PLP.Chemscore.Metal>
0.0000

> <Gold.Chemscore.Hbonds>
donor molecule, donor type, donor heavy atom, donor atom, acceptor molecule, acceptor atom, score
      L1  H     9    26       P1  8028  2.00
      P1  H  7997  8010       L1     3  1.00

> <Gold.PLP.Chemscore.Internal.Correction>
0.0434

> <Gold.Rescore>
     Score         DG    S(hbond)    S(metal)    S(lipo)     H(rot)  DE(clash)    DE(int)     intcor
     15.44     -15.90       1.86        0.00      57.74       1.00       0.00       0.46       ----

> <Gold.Chemscore.Fitness>
15.4409

> <Gold.Chemscore.DG>
-15.8982

> <Gold.Chemscore.ZeroCoef>
-5.4800

> <Gold.Chemscore.Hbond>
1.8631

> <Gold.Chemscore.Metal>
0.0000

> <Gold.Chemscore.Lipo>
57.7402

> <Gold.Chemscore.Internal_Hbond>
0.0000

> <Gold.Chemscore.DEClash>
0.0015

> <Gold.Chemscore.DEInternal>
0.4558

> <Gold.Chemscore.Rot>
1.0000

> <Gold.Chemscore.Internal.Correction>
   9.000000E+99

> <Gold.Chemscore.Hbonds>
donor molecule, donor type, donor heavy atom, donor atom, acceptor molecule, acceptor atom, score
      L1  H     9    26       P1  8028  0.96
      P1  H  7997  8010       L1     3  0.33

> <Gold.Chemscore.Hbond.Weighted>
-6.2226

> <Gold.Chemscore.Metal.Weighted>
-0.0000

> <Gold.Chemscore.Lipo.Weighted>
-6.7556

> <Gold.Chemscore.Internal_Hbond.Weighted>
0.0000

> <Gold.Chemscore.DEClash.Weighted>
0.0015

> <Gold.Chemscore.DEInternal.Weighted>
0.4558

> <Gold.Chemscore.Rot.Weighted>
2.5600

> <Gold.Chemscore.Internal.Correction.Weighted>
   9.000000E+99

> <Gold.Protein.RotatedTorsions>
[ 6907 6896 6895 6894 ] final  -53.93 input  -60.11 | X-H torsion
[ 7974 7965 7964 7962 ] final    2.35 input  175.53 | X-H torsion
[ 8008 7997 7996 7995 ] final   36.19 input   59.86 | X-H torsion
[ 10167 10162 10161 10158 ] final   88.19 input  -65.29 | X-H torsion
[ 10718 10713 10712 10709 ] final  -32.94 input   66.30 | X-H torsion
[ 10763 10752 10751 10750 ] final -165.14 input  -60.55 | X-H torsion
[ 11005 11000 10999 10996 ] final  -78.12 input  -57.11 | X-H torsion

> <Gold.Protein.ActiveResidues>
 VAL166  LYS551  ARG553  GLY616  TRP617  ASP618  TYR619  PRO620  LYS621  CYS622 
 ASP623  PHE694  ASN695  SER759  ASP760  ASP761  ALA762  ILE779  LEU786  VAL792 
 PHE793  MET794  SER795  GLU796  ALA797  LYS798  CYS799  TRP800  GLU811  SER814 

> <Gold.Protein.RotatedAtoms>
  150.8383  134.7665  159.6910 H   0  0  0  0  0  0  0  0  0  0  0  0  # atno 6907 bound_to 6896
  152.4475  134.5460  159.9863 H   0  0  0  0  0  0  0  0  0  0  0  0  # atno 6908 bound_to 6896
  151.5605  133.3366  159.3006 H   0  0  0  0  0  0  0  0  0  0  0  0  # atno 6909 bound_to 6896
  146.2443  140.0850  142.8355 H   0  0  0  0  0  0  0  0  0  0  0  0  # atno 7974 bound_to 7965
  155.1833  140.3302  155.4371 H   0  0  0  0  0  0  0  0  0  0  0  0  # atno 8008 bound_to 7997
  156.2469  140.1923  156.6880 H   0  0  0  0  0  0  0  0  0  0  0  0  # atno 8009 bound_to 7997
  154.6256  140.0589  156.9655 H   0  0  0  0  0  0  0  0  0  0  0  0  # atno 8010 bound_to 7997
  139.8698  144.6499  150.8963 H   0  0  0  0  0  0  0  0  0  0  0  0  # atno 10167 bound_to 10162
  156.3687  130.4336  149.7563 H   0  0  0  0  0  0  0  0  0  0  0  0  # atno 10718 bound_to 10713
  154.6961  135.2979  154.9410 H   0  0  0  0  0  0  0  0  0  0  0  0  # atno 10763 bound_to 10752
  154.0357  135.6664  153.4789 H   0  0  0  0  0  0  0  0  0  0  0  0  # atno 10764 bound_to 10752
  153.0646  135.5095  154.8079 H   0  0  0  0  0  0  0  0  0  0  0  0  # atno 10765 bound_to 10752
  141.1663  133.7050  156.7924 H   0  0  0  0  0  0  0  0  0  0  0  0  # atno 11005 bound_to 11000
  145.0700  140.9149  143.4887 LP  0  0  0  0  0  0  0  0  0  0  0  0  # atno 17320 bound_to 7965
  145.0982  139.2841  143.5700 LP  0  0  0  0  0  0  0  0  0  0  0  0  # atno 17321 bound_to 7965
  140.7762  143.3674  151.1714 LP  0  0  0  0  0  0  0  0  0  0  0  0  # atno 17342 bound_to 10162
  139.7295  143.9095  152.3014 LP  0  0  0  0  0  0  0  0  0  0  0  0  # atno 17343 bound_to 10162
  156.4699  130.7991  151.3010 LP  0  0  0  0  0  0  0  0  0  0  0  0  # atno 17370 bound_to 10713
  157.7481  131.0039  150.3056 LP  0  0  0  0  0  0  0  0  0  0  0  0  # atno 17371 bound_to 10713
  140.2316  134.8682  157.3482 LP  0  0  0  0  0  0  0  0  0  0  0  0  # atno 17394 bound_to 11000
  140.1886  134.4400  155.7729 LP  0  0  0  0  0  0  0  0  0  0  0  0  # atno 17395 bound_to 11000

$$$$
