AV-unprocessed.smi:1260|AV-procd|sdf|5298|dock1
  -GOLD-   22720 4413D 1   1.00000     0.00000
 Structure written by MMmdl.
 37 39  0  0  0  0  0  0  0  0  2 V2000
  150.3786  133.7344  155.3280 O   0  0  0  0  0  0  0  0  0  0  0  0
  149.5574  134.5538  154.9176 C   0  0  0  0  0  0  0  0  0  0  0  0
  149.5230  135.9624  155.5093 C   0  0  0  0  0  0  0  0  0  0  0  0
  150.7998  136.6249  155.3216 N   0  0  0  0  0  0  0  0  0  0  0  0
  151.2707  137.3509  154.3053 C   0  0  0  0  0  0  0  0  0  0  0  0
  152.5080  137.7643  154.5313 N   0  0  0  0  0  0  0  0  0  0  0  0
  152.7901  137.2427  155.7831 N   0  0  0  0  0  0  0  0  0  0  0  0
  151.7807  136.5646  156.2562 N   0  0  0  0  0  0  0  0  0  0  0  0
  148.6760  134.2917  153.9399 N   0  0  0  0  0  0  0  0  0  0  0  0
  148.5893  133.0331  153.2056 C   0  0  1  0  0  0  0  0  0  0  0  0
  148.7445  131.7962  154.1074 C   0  0  0  0  0  0  0  0  0  0  0  0
  147.7761  130.7450  153.5283 C   0  0  0  0  0  0  0  0  0  0  0  0
  147.1872  131.3723  152.3292 N   0  3  1  0  0  0  0  0  0  0  0  0
  145.8613  130.8827  151.8936 C   0  0  0  0  0  0  0  0  0  0  0  0
  145.4608  131.5960  150.5867 C   0  0  0  0  0  0  0  0  0  0  0  0
  145.5351  133.1302  150.7264 C   0  0  0  0  0  0  0  0  0  0  0  0
  146.9065  133.5739  151.2714 C   0  0  0  0  0  0  0  0  0  0  0  0
  147.2092  132.8217  152.5785 C   0  0  2  0  0  0  0  0  0  0  0  0
  148.7425  136.5607  155.0370 H   0  0  0  0  0  0  0  0  0  0  0  0
  149.2922  135.9126  156.5746 H   0  0  0  0  0  0  0  0  0  0  0  0
  150.7145  137.5683  153.4054 H   0  0  0  0  0  0  0  0  0  0  0  0
  148.0341  135.0237  153.6711 H   0  0  0  0  0  0  0  0  0  0  0  0
  149.3542  132.9874  152.4272 H   0  0  0  0  0  0  0  0  0  0  0  0
  149.7753  131.4402  154.1145 H   0  0  0  0  0  0  0  0  0  0  0  0
  148.4681  132.0197  155.1390 H   0  0  0  0  0  0  0  0  0  0  0  0
  148.2806  129.8146  153.2661 H   0  0  0  0  0  0  0  0  0  0  0  0
  146.9963  130.5138  154.2555 H   0  0  0  0  0  0  0  0  0  0  0  0
  145.9021  129.8042  151.7371 H   0  0  0  0  0  0  0  0  0  0  0  0
  145.1210  131.0688  152.6731 H   0  0  0  0  0  0  0  0  0  0  0  0
  146.1263  131.2766  149.7835 H   0  0  0  0  0  0  0  0  0  0  0  0
  144.4554  131.2958  150.2898 H   0  0  0  0  0  0  0  0  0  0  0  0
  145.3416  133.6053  149.7642 H   0  0  0  0  0  0  0  0  0  0  0  0
  144.7495  133.4706  151.4023 H   0  0  0  0  0  0  0  0  0  0  0  0
  147.6838  133.3740  150.5326 H   0  0  0  0  0  0  0  0  0  0  0  0
  146.9051  134.6505  151.4429 H   0  0  0  0  0  0  0  0  0  0  0  0
  146.4408  133.0588  153.3184 H   0  0  0  0  0  0  0  0  0  0  0  0
  147.8333  131.2047  151.5710 H   0  0  0  0  0  0  0  0  0  0  0  0
  1  2  2  0  0  0  0
  2  3  1  0  0  0  0
  2  9  1  0  0  0  0
  3  4  1  0  0  0  0
  3 19  1  0  0  0  0
  3 20  1  0  0  0  0
  4  8  1  0  0  0  0
  4  5  1  0  0  0  0
  5  6  2  0  0  0  0
  5 21  1  0  0  0  0
  6  7  1  0  0  0  0
  7  8  2  0  0  0  0
  9 10  1  0  0  0  0
  9 22  1  0  0  0  0
 10 18  1  0  0  0  0
 10 11  1  0  0  0  0
 10 23  1  0  0  0  0
 11 12  1  0  0  0  0
 11 24  1  0  0  0  0
 11 25  1  0  0  0  0
 12 13  1  0  0  0  0
 12 26  1  0  0  0  0
 12 27  1  0  0  0  0
 13 18  1  0  0  0  0
 13 14  1  0  0  0  0
 13 37  1  0  0  0  0
 14 15  1  0  0  0  0
 14 28  1  0  0  0  0
 14 29  1  0  0  0  0
 15 16  1  0  0  0  0
 15 30  1  0  0  0  0
 15 31  1  0  0  0  0
 16 17  1  0  0  0  0
 16 32  1  0  0  0  0
 16 33  1  0  0  0  0
 17 18  1  0  0  0  0
 17 34  1  0  0  0  0
 17 35  1  0  0  0  0
 18 36  1  0  0  0  0
M  CHG  1  13   1
M  END
> <s_m_source_file>
AV-unprocessed.smi

> <i_m_source_file_index>
1260

> <i_lp_mmshare_version>
43012

> <i_f3d_flags>
0

> <s_epik_input>
bjFubltjSF1uMVtDSDJdQyg9TylbTkhdW0NASF0oW0NIMl1bQ0gyXTIpW0NAQEhdKE4yMylbQ0gyXVtDSDJdW0NIMl1bQ0gyXTM=

> <s_epik_cmdline>
J2VwaWtfcHl0aG9uJywgJy1waCcsICc3LjAnLCAnLXRuJywgJzgnLCAnLW1hJywgJzIwMCcsICctbWV0YWxfYmluZGluZycsICctaW1hZScsICc8aW5maWxlLm1hZT4nLCAnLW9tYWUnLCAnPG91dGZpbGUubWFlPic=

> <r_lp_tautomer_probability>
1

> <r_epik_Ionization_Penalty>
0.00234324

> <r_epik_Ionization_Penalty_Charging>
0.00233897

> <r_epik_Ionization_Penalty_Neutral>
4.26861e-06

> <r_epik_State_Penalty>
0.00161477

> <r_epik_Charging_Adjusted_Penalty>
0.00395374

> <i_epik_Tot_Q>
1

> <i_epik_Tot_abs_Q>
1

> <r_epik_Metal_State_Penalty>
-0

> <b_epik_Metal_Only>
0

> <s_lp_Force_Field>
OPLS_2005

> <r_lp_Energy>
36.6869

> <b_lp_Chiralities_Consistent>
1

> <s_lp_Variant>
AV-unprocessed.smi:1260-6

> <Gold.Version>
5.8.1

> <Gold.Id.Protein>
6NUR|6NUR_protein|mol2

> <Gold.PLP.Fitness>
37.3767

> <Gold.PLP.PLP>
-32.5409

> <Gold.PLP.part.hbond>
-4.7525

> <Gold.PLP.part.metal>
0.0000

> <Gold.PLP.part.buried>
-5.2455

> <Gold.PLP.part.nonpolar>
-23.9058

> <Gold.PLP.part.repulsive>
0.1479

> <Gold.PLP.ligand.clash>
0.0000

> <Gold.PLP.ligand.torsion>
0.6532

> <Gold.PLP.Chemscore.Hbond>
1.1528

> <Gold.PLP.Chemscore.CHOScore>
0.8889

> <Gold.PLP.Chemscore.Metal>
0.0000

> <Gold.Chemscore.Hbonds>
donor molecule, donor type, donor heavy atom, donor atom, acceptor molecule, acceptor atom, score
      L1  H     9    22       P1  7948  0.04
      L1  H    13    37       P1 10747  1.00
      P1  H 10752 10763       L1     6  0.01
      P1  H 10752 10764       L1     7  0.10
      L1  C     5    21       P1  7948  0.36
      L1  C     5    21       P1  7949  0.53

> <Gold.PLP.Chemscore.Internal.Correction>
0.0170

> <Gold.Rescore>
     Score         DG    S(hbond)    S(metal)    S(lipo)     H(rot)  DE(clash)    DE(int)     intcor
      9.37     -11.22       1.04        0.00      62.64       1.98       0.00       1.84       ----

> <Gold.Chemscore.Fitness>
9.3748

> <Gold.Chemscore.DG>
-11.2232

> <Gold.Chemscore.ZeroCoef>
-5.4800

> <Gold.Chemscore.Hbond>
1.0394

> <Gold.Chemscore.Metal>
0.0000

> <Gold.Chemscore.Lipo>
62.6449

> <Gold.Chemscore.Internal_Hbond>
0.0000

> <Gold.Chemscore.DEClash>
0.0038

> <Gold.Chemscore.DEInternal>
1.8446

> <Gold.Chemscore.Rot>
1.9757

> <Gold.Chemscore.Internal.Correction>
   9.000000E+99

> <Gold.Chemscore.Hbonds>
donor molecule, donor type, donor heavy atom, donor atom, acceptor molecule, acceptor atom, score
      L1  H     9    22       P1  7948  0.04
      L1  H    13    37       P1 10747  1.00

> <Gold.Chemscore.Hbond.Weighted>
-3.4715

> <Gold.Chemscore.Metal.Weighted>
-0.0000

> <Gold.Chemscore.Lipo.Weighted>
-7.3295

> <Gold.Chemscore.Internal_Hbond.Weighted>
0.0000

> <Gold.Chemscore.DEClash.Weighted>
0.0038

> <Gold.Chemscore.DEInternal.Weighted>
1.8446

> <Gold.Chemscore.Rot.Weighted>
5.0578

> <Gold.Chemscore.Internal.Correction.Weighted>
   9.000000E+99

> <Gold.Protein.RotatedTorsions>
[ 6907 6896 6895 6894 ] final  143.73 input  -60.11 | X-H torsion
[ 7974 7965 7964 7962 ] final   74.84 input  175.53 | X-H torsion
[ 8008 7997 7996 7995 ] final -170.05 input   59.86 | X-H torsion
[ 10167 10162 10161 10158 ] final  -70.25 input  -65.29 | X-H torsion
[ 10718 10713 10712 10709 ] final  124.84 input   66.30 | X-H torsion
[ 10763 10752 10751 10750 ] final   -0.95 input  -60.55 | X-H torsion
[ 11005 11000 10999 10996 ] final -132.09 input  -57.11 | X-H torsion

> <Gold.Protein.ActiveResidues>
 VAL166  LYS551  ARG553  GLY616  TRP617  ASP618  TYR619  PRO620  LYS621  CYS622 
 ASP623  PHE694  ASN695  SER759  ASP760  ASP761  ALA762  ILE779  LEU786  VAL792 
 PHE793  MET794  SER795  GLU796  ALA797  LYS798  CYS799  TRP800  GLU811  SER814 

> <Gold.Protein.RotatedAtoms>
  152.2026  133.4852  159.5066 H   0  0  0  0  0  0  0  0  0  0  0  0  # atno 6907 bound_to 6896
  150.6973  134.1571  159.4171 H   0  0  0  0  0  0  0  0  0  0  0  0  # atno 6908 bound_to 6896
  151.9488  135.0178  160.0591 H   0  0  0  0  0  0  0  0  0  0  0  0  # atno 6909 bound_to 6896
  145.7232  139.2656  143.1584 H   0  0  0  0  0  0  0  0  0  0  0  0  # atno 7974 bound_to 7965
  155.9132  140.1061  157.1263 H   0  0  0  0  0  0  0  0  0  0  0  0  # atno 8008 bound_to 7997
  154.4042  140.1270  156.4649 H   0  0  0  0  0  0  0  0  0  0  0  0  # atno 8009 bound_to 7997
  155.7285  140.3469  155.5050 H   0  0  0  0  0  0  0  0  0  0  0  0  # atno 8010 bound_to 7997
  140.5367  143.2317  151.7163 H   0  0  0  0  0  0  0  0  0  0  0  0  # atno 10167 bound_to 10162
  157.5552  131.1092  150.8634 H   0  0  0  0  0  0  0  0  0  0  0  0  # atno 10718 bound_to 10713
  153.3385  135.6979  153.6887 H   0  0  0  0  0  0  0  0  0  0  0  0  # atno 10763 bound_to 10752
  153.5661  135.3525  155.2820 H   0  0  0  0  0  0  0  0  0  0  0  0  # atno 10764 bound_to 10752
  154.8632  135.4261  154.2592 H   0  0  0  0  0  0  0  0  0  0  0  0  # atno 10765 bound_to 10752
  140.9201  134.1456  157.4321 H   0  0  0  0  0  0  0  0  0  0  0  0  # atno 11005 bound_to 11000
  146.0606  140.7974  142.9736 LP  0  0  0  0  0  0  0  0  0  0  0  0  # atno 17320 bound_to 7965
  144.6911  140.3191  143.7235 LP  0  0  0  0  0  0  0  0  0  0  0  0  # atno 17321 bound_to 7965
  139.4973  144.4031  152.0160 LP  0  0  0  0  0  0  0  0  0  0  0  0  # atno 17342 bound_to 10162
  140.3137  144.3508  150.6027 LP  0  0  0  0  0  0  0  0  0  0  0  0  # atno 17343 bound_to 10162
  156.9147  130.5293  149.5280 LP  0  0  0  0  0  0  0  0  0  0  0  0  # atno 17370 bound_to 10713
  156.0612  130.5664  150.9196 LP  0  0  0  0  0  0  0  0  0  0  0  0  # atno 17371 bound_to 10713
  139.8773  134.9968  156.5813 LP  0  0  0  0  0  0  0  0  0  0  0  0  # atno 17394 bound_to 11000
  140.7999  133.8513  155.8718 LP  0  0  0  0  0  0  0  0  0  0  0  0  # atno 17395 bound_to 11000

$$$$
