AV-unprocessed.smi:1507|AV-procd|sdf|6084|dock2
  -GOLD-   22720 6203D 1   1.00000     0.00000
 Structure written by MMmdl.
 32 33  0  0  0  0  0  0  0  0  3 V2000
  149.6975  134.7277  154.6865 N   0  5  0  0  0  0  0  0  0  0  0  0
  150.4514  135.6340  155.7975 S   0  0  0  0  0  0  0  0  0  0  0  0
  149.4645  136.4510  156.5200 O   0  0  0  0  0  0  0  0  0  0  0  0
  151.3325  134.8162  156.6496 O   0  0  0  0  0  0  0  0  0  0  0  0
  151.2762  136.5676  154.7423 N   0  5  0  0  0  0  0  0  0  0  0  0
  150.7633  137.8499  154.2656 C   0  0  0  0  0  0  0  0  0  0  0  0
  151.0460  138.9694  155.2575 C   0  0  0  0  0  0  0  0  0  0  0  0
  150.2024  140.0977  155.3433 C   0  0  0  0  0  0  0  0  0  0  0  0
  150.5056  141.1088  156.2763 C   0  0  0  0  0  0  0  0  0  0  0  0
  151.6477  140.9702  157.1001 C   0  0  0  0  0  0  0  0  0  0  0  0
  151.9730  141.9755  158.0371 N   0  0  0  0  0  0  0  0  0  0  0  0
  151.2484  143.2428  157.9597 C   0  0  0  0  0  0  0  0  0  0  0  0
  151.9176  144.2988  158.8555 C   0  0  0  0  0  0  0  0  0  0  0  0
  152.0172  143.8042  160.1866 O   0  0  0  0  0  0  0  0  0  0  0  0
  152.8188  142.6297  160.2564 C   0  0  0  0  0  0  0  0  0  0  0  0
  152.1856  141.5141  159.4069 C   0  0  0  0  0  0  0  0  0  0  0  0
  152.4517  139.8813  157.0205 N   0  0  0  0  0  0  0  0  0  0  0  0
  152.1606  138.9144  156.1229 C   0  0  0  0  0  0  0  0  0  0  0  0
  149.1559  135.3517  154.0769 H   0  0  0  0  0  0  0  0  0  0  0  0
  151.2054  138.1316  153.3092 H   0  0  0  0  0  0  0  0  0  0  0  0
  149.6872  137.8189  154.0902 H   0  0  0  0  0  0  0  0  0  0  0  0
  149.3302  140.2030  154.7125 H   0  0  0  0  0  0  0  0  0  0  0  0
  149.8549  141.9665  156.3547 H   0  0  0  0  0  0  0  0  0  0  0  0
  151.2270  143.6037  156.9306 H   0  0  0  0  0  0  0  0  0  0  0  0
  150.2153  143.0877  158.2739 H   0  0  0  0  0  0  0  0  0  0  0  0
  152.9074  144.5595  158.4772 H   0  0  0  0  0  0  0  0  0  0  0  0
  151.3271  145.2148  158.8604 H   0  0  0  0  0  0  0  0  0  0  0  0
  153.8331  142.8475  159.9178 H   0  0  0  0  0  0  0  0  0  0  0  0
  152.8922  142.3122  161.2966 H   0  0  0  0  0  0  0  0  0  0  0  0
  151.2247  141.2216  159.8323 H   0  0  0  0  0  0  0  0  0  0  0  0
  152.8278  140.6353  159.4425 H   0  0  0  0  0  0  0  0  0  0  0  0
  152.8478  138.0791  156.1099 H   0  0  0  0  0  0  0  0  0  0  0  0
  1  2  1  0  0  0  0
  1 19  1  0  0  0  0
  2  3  2  0  0  0  0
  2  4  2  0  0  0  0
  2  5  1  0  0  0  0
  5  6  1  0  0  0  0
  6  7  1  0  0  0  0
  6 20  1  0  0  0  0
  6 21  1  0  0  0  0
  7 18  1  0  0  0  0
  7  8  2  0  0  0  0
  8  9  1  0  0  0  0
  8 22  1  0  0  0  0
  9 10  2  0  0  0  0
  9 23  1  0  0  0  0
 10 11  1  0  0  0  0
 10 17  1  0  0  0  0
 11 16  1  0  0  0  0
 11 12  1  0  0  0  0
 12 13  1  0  0  0  0
 12 24  1  0  0  0  0
 12 25  1  0  0  0  0
 13 14  1  0  0  0  0
 13 26  1  0  0  0  0
 13 27  1  0  0  0  0
 14 15  1  0  0  0  0
 15 16  1  0  0  0  0
 15 28  1  0  0  0  0
 15 29  1  0  0  0  0
 16 30  1  0  0  0  0
 16 31  1  0  0  0  0
 17 18  2  0  0  0  0
 18 32  1  0  0  0  0
M  CHG  1   1  -1
M  CHG  1   5  -1
M  END
> <s_m_source_file>
AV-unprocessed.smi

> <i_m_source_file_index>
1507

> <i_lp_mmshare_version>
43012

> <i_f3d_flags>
0

> <s_epik_input>
W05IMl1TKD1PKSg9TylbTkhdW0NIMl1jMVtjSF1bY0hdYyhuW2NIXTEpTjJbQ0gyXVtDSDJdT1tDSDJdW0NIMl0y

> <s_epik_cmdline>
J2VwaWtfcHl0aG9uJywgJy1waCcsICc3LjAnLCAnLXRuJywgJzgnLCAnLW1hJywgJzIwMCcsICctbWV0YWxfYmluZGluZycsICctaW1hZScsICc8aW5maWxlLm1hZT4nLCAnLW9tYWUnLCAnPG91dGZpbGUubWFlPic=

> <r_lp_tautomer_probability>
1

> <r_epik_Ionization_Penalty>
9.15309

> <r_epik_Ionization_Penalty_Charging>
9.0542

> <r_epik_Ionization_Penalty_Neutral>
0.0988946

> <r_epik_State_Penalty>
4.65345

> <r_epik_Charging_Adjusted_Penalty>
13.7077

> <i_epik_Tot_Q>
-2

> <i_epik_Tot_abs_Q>
2

> <r_epik_Metal_State_Penalty>
1.24006

> <b_epik_Metal_Only>
1

> <s_lp_Force_Field>
OPLS_2005

> <r_lp_Energy>
23.9695

> <b_lp_Chiralities_Consistent>
1

> <s_lp_Variant>
AV-unprocessed.smi:1507-5

> <Gold.Version>
5.8.1

> <Gold.Id.Protein>
6NUR|6NUR_protein|mol2

> <Gold.PLP.Fitness>
44.7931

> <Gold.PLP.PLP>
-33.8598

> <Gold.PLP.part.hbond>
-3.0000

> <Gold.PLP.part.metal>
0.0000

> <Gold.PLP.part.buried>
-3.1751

> <Gold.PLP.part.nonpolar>
-27.7253

> <Gold.PLP.part.repulsive>
0.2592

> <Gold.PLP.ligand.clash>
0.0000

> <Gold.PLP.ligand.torsion>
1.2070

> <Gold.PLP.Chemscore.Hbond>
4.0000

> <Gold.PLP.Chemscore.CHOScore>
0.0000

> <Gold.PLP.Chemscore.Metal>
0.0000

> <Gold.Chemscore.Hbonds>
donor molecule, donor type, donor heavy atom, donor atom, acceptor molecule, acceptor atom, score
      L1  H     1    19       P1  7948  0.14
      P1  H  7997  8008       L1    17  1.00
      P1  H 10752 10764       L1     5  2.00

> <Gold.PLP.Chemscore.Internal.Correction>
1.3472

> <Gold.Rescore>
     Score         DG    S(hbond)    S(metal)    S(lipo)     H(rot)  DE(clash)    DE(int)     intcor
     14.92     -16.56       1.95        0.00      79.67       1.86       0.36       1.28       ----

> <Gold.Chemscore.Fitness>
14.9220

> <Gold.Chemscore.DG>
-16.5555

> <Gold.Chemscore.ZeroCoef>
-5.4800

> <Gold.Chemscore.Hbond>
1.9514

> <Gold.Chemscore.Metal>
0.0000

> <Gold.Chemscore.Lipo>
79.6662

> <Gold.Chemscore.Internal_Hbond>
0.0000

> <Gold.Chemscore.DEClash>
0.3560

> <Gold.Chemscore.DEInternal>
1.2774

> <Gold.Chemscore.Rot>
1.8606

> <Gold.Chemscore.Internal.Correction>
   9.000000E+99

> <Gold.Chemscore.Hbonds>
donor molecule, donor type, donor heavy atom, donor atom, acceptor molecule, acceptor atom, score
      L1  H     1    19       P1  7948  0.10
      P1  H  7997  8008       L1    17  0.32
      P1  H 10752 10764       L1     5  0.30

> <Gold.Chemscore.Hbond.Weighted>
-6.5176

> <Gold.Chemscore.Metal.Weighted>
-0.0000

> <Gold.Chemscore.Lipo.Weighted>
-9.3209

> <Gold.Chemscore.Internal_Hbond.Weighted>
0.0000

> <Gold.Chemscore.DEClash.Weighted>
0.3560

> <Gold.Chemscore.DEInternal.Weighted>
1.2774

> <Gold.Chemscore.Rot.Weighted>
4.7631

> <Gold.Chemscore.Internal.Correction.Weighted>
   9.000000E+99

> <Gold.Protein.RotatedTorsions>
[ 6907 6896 6895 6894 ] final  169.12 input  -60.11 | X-H torsion
[ 7974 7965 7964 7962 ] final  165.27 input  175.53 | X-H torsion
[ 8008 7997 7996 7995 ] final  -69.81 input   59.86 | X-H torsion
[ 10167 10162 10161 10158 ] final  -56.81 input  -65.29 | X-H torsion
[ 10718 10713 10712 10709 ] final -130.15 input   66.30 | X-H torsion
[ 10763 10752 10751 10750 ] final  -57.34 input  -60.55 | X-H torsion
[ 11005 11000 10999 10996 ] final    8.32 input  -57.11 | X-H torsion

> <Gold.Protein.ActiveResidues>
 VAL166  LYS551  ARG553  GLY616  TRP617  ASP618  TYR619  PRO620  LYS621  CYS622 
 ASP623  PHE694  ASN695  SER759  ASP760  ASP761  ALA762  ILE779  LEU786  VAL792 
 PHE793  MET794  SER795  GLU796  ALA797  LYS798  CYS799  TRP800  GLU811  SER814 

> <Gold.Protein.RotatedAtoms>
  151.8369  133.3417  159.3630 H   0  0  0  0  0  0  0  0  0  0  0  0  # atno 6907 bound_to 6896
  150.7247  134.5429  159.5765 H   0  0  0  0  0  0  0  0  0  0  0  0  # atno 6908 bound_to 6896
  152.2894  134.7740  160.0432 H   0  0  0  0  0  0  0  0  0  0  0  0  # atno 6909 bound_to 6896
  144.7510  139.8445  143.6366 H   0  0  0  0  0  0  0  0  0  0  0  0  # atno 7974 bound_to 7965
  154.4965  140.0846  156.7708 H   0  0  0  0  0  0  0  0  0  0  0  0  # atno 8008 bound_to 7997
  155.4103  140.3441  155.4245 H   0  0  0  0  0  0  0  0  0  0  0  0  # atno 8009 bound_to 7997
  156.1401  140.1527  156.8921 H   0  0  0  0  0  0  0  0  0  0  0  0  # atno 8010 bound_to 7997
  140.6295  143.2453  151.5278 H   0  0  0  0  0  0  0  0  0  0  0  0  # atno 10167 bound_to 10162
  156.2116  130.6922  151.0656 H   0  0  0  0  0  0  0  0  0  0  0  0  # atno 10718 bound_to 10713
  154.2209  135.6378  153.5144 H   0  0  0  0  0  0  0  0  0  0  0  0  # atno 10763 bound_to 10752
  152.9969  135.5496  154.6115 H   0  0  0  0  0  0  0  0  0  0  0  0  # atno 10764 bound_to 10752
  154.5575  135.2906  155.0925 H   0  0  0  0  0  0  0  0  0  0  0  0  # atno 10765 bound_to 10752
  140.5383  134.0399  155.7895 H   0  0  0  0  0  0  0  0  0  0  0  0  # atno 11005 bound_to 11000
  146.1459  139.4528  143.0079 LP  0  0  0  0  0  0  0  0  0  0  0  0  # atno 17320 bound_to 7965
  145.6946  141.0154  143.1537 LP  0  0  0  0  0  0  0  0  0  0  0  0  # atno 17321 bound_to 7965
  139.5511  144.2394  152.1531 LP  0  0  0  0  0  0  0  0  0  0  0  0  # atno 17342 bound_to 10162
  140.1634  144.5004  150.6620 LP  0  0  0  0  0  0  0  0  0  0  0  0  # atno 17343 bound_to 10162
  157.7041  131.0763  150.6724 LP  0  0  0  0  0  0  0  0  0  0  0  0  # atno 17370 bound_to 10713
  156.6783  130.4560  149.5635 LP  0  0  0  0  0  0  0  0  0  0  0  0  # atno 17371 bound_to 10713
  141.1242  133.9411  157.2669 LP  0  0  0  0  0  0  0  0  0  0  0  0  # atno 17394 bound_to 11000
  139.9517  135.0174  156.9014 LP  0  0  0  0  0  0  0  0  0  0  0  0  # atno 17395 bound_to 11000

$$$$
