AV-unprocessed.smi:1991|AV-procd|sdf|8067|dock1
  -GOLD-   2272010273D 1   1.00000     0.00000
 Structure written by MMmdl.
 44 45  0  0  0  0  0  0  0  0  1 V2000
  145.8277  138.5597  158.8872 C   0  0  0  0  0  0  0  0  0  0  0  0
  146.8997  137.4983  159.1772 C   0  0  2  0  0  0  0  0  0  0  0  0
  147.4113  137.7496  160.4837 O   0  0  0  0  0  0  0  0  0  0  0  0
  147.7861  136.5963  161.2306 C   0  0  0  0  0  0  0  0  0  0  0  0
  146.9884  136.5588  162.5395 C   0  0  0  0  0  0  0  0  0  0  0  0
  147.3902  137.5561  163.3266 F   0  0  0  0  0  0  0  0  0  0  0  0
  145.6875  136.7066  162.2908 F   0  0  0  0  0  0  0  0  0  0  0  0
  147.1956  135.4046  163.1727 F   0  0  0  0  0  0  0  0  0  0  0  0
  148.0315  137.5413  158.1376 C   0  0  0  0  0  0  0  0  0  0  0  0
  149.2084  137.5304  158.4987 O   0  0  0  0  0  0  0  0  0  0  0  0
  147.6540  137.5822  156.8500 N   0  0  0  0  0  0  0  0  0  0  0  0
  148.5492  137.6341  155.6985 C   0  0  0  0  0  0  0  0  0  0  0  0
  148.7635  139.0554  155.1849 C   0  0  0  0  0  0  0  0  0  0  0  0
  147.7398  139.6856  154.4435 C   0  0  0  0  0  0  0  0  0  0  0  0
  147.9355  140.9952  153.9696 C   0  0  0  0  0  0  0  0  0  0  0  0
  149.1546  141.6331  154.2597 C   0  0  0  0  0  0  0  0  0  0  0  0
  150.1416  141.0496  154.9702 N   0  0  0  0  0  0  0  0  0  0  0  0
  149.9565  139.7872  155.4280 C   0  0  0  0  0  0  0  0  0  0  0  0
  151.0101  139.2148  156.1579 N   0  0  0  0  0  0  0  0  0  0  0  0
  151.4155  139.9910  157.3230 C   0  0  0  0  0  0  0  0  0  0  0  0
  152.4647  139.2099  158.1324 C   0  0  0  0  0  0  0  0  0  0  0  0
  153.5646  138.8741  157.2910 O   0  0  0  0  0  0  0  0  0  0  0  0
  153.1703  138.0536  156.1945 C   0  0  0  0  0  0  0  0  0  0  0  0
  152.1392  138.8034  155.3337 C   0  0  0  0  0  0  0  0  0  0  0  0
  145.4132  138.4414  157.8852 H   0  0  0  0  0  0  0  0  0  0  0  0
  146.2307  139.5702  158.9672 H   0  0  0  0  0  0  0  0  0  0  0  0
  145.0032  138.4791  159.5958 H   0  0  0  0  0  0  0  0  0  0  0  0
  146.4198  136.5179  159.1573 H   0  0  0  0  0  0  0  0  0  0  0  0
  147.5834  135.6946  160.6511 H   0  0  0  0  0  0  0  0  0  0  0  0
  148.8534  136.6069  161.4545 H   0  0  0  0  0  0  0  0  0  0  0  0
  146.6643  137.5840  156.6513 H   0  0  0  0  0  0  0  0  0  0  0  0
  149.5236  137.2057  155.9377 H   0  0  0  0  0  0  0  0  0  0  0  0
  148.1273  136.9832  154.9342 H   0  0  0  0  0  0  0  0  0  0  0  0
  146.8113  139.1735  154.2389 H   0  0  0  0  0  0  0  0  0  0  0  0
  147.1691  141.4981  153.3987 H   0  0  0  0  0  0  0  0  0  0  0  0
  149.3423  142.6387  153.9136 H   0  0  0  0  0  0  0  0  0  0  0  0
  151.8312  140.9479  157.0042 H   0  0  0  0  0  0  0  0  0  0  0  0
  150.5455  140.2059  157.9447 H   0  0  0  0  0  0  0  0  0  0  0  0
  152.8247  139.8145  158.9649 H   0  0  0  0  0  0  0  0  0  0  0  0
  152.0310  138.3043  158.5599 H   0  0  0  0  0  0  0  0  0  0  0  0
  154.0499  137.8074  155.5996 H   0  0  0  0  0  0  0  0  0  0  0  0
  152.7591  137.1118  156.5613 H   0  0  0  0  0  0  0  0  0  0  0  0
  151.7912  138.1630  154.5223 H   0  0  0  0  0  0  0  0  0  0  0  0
  152.6027  139.6798  154.8787 H   0  0  0  0  0  0  0  0  0  0  0  0
  1  2  1  0  0  0  0
  1 25  1  0  0  0  0
  1 26  1  0  0  0  0
  1 27  1  0  0  0  0
  2  3  1  0  0  0  0
  2  9  1  0  0  0  0
  2 28  1  0  0  0  0
  3  4  1  0  0  0  0
  4  5  1  0  0  0  0
  4 29  1  0  0  0  0
  4 30  1  0  0  0  0
  5  6  1  0  0  0  0
  5  7  1  0  0  0  0
  5  8  1  0  0  0  0
  9 10  2  0  0  0  0
  9 11  1  0  0  0  0
 11 12  1  0  0  0  0
 11 31  1  0  0  0  0
 12 13  1  0  0  0  0
 12 32  1  0  0  0  0
 12 33  1  0  0  0  0
 13 18  1  0  0  0  0
 13 14  2  0  0  0  0
 14 15  1  0  0  0  0
 14 34  1  0  0  0  0
 15 16  2  0  0  0  0
 15 35  1  0  0  0  0
 16 17  1  0  0  0  0
 16 36  1  0  0  0  0
 17 18  2  0  0  0  0
 18 19  1  0  0  0  0
 19 24  1  0  0  0  0
 19 20  1  0  0  0  0
 20 21  1  0  0  0  0
 20 37  1  0  0  0  0
 20 38  1  0  0  0  0
 21 22  1  0  0  0  0
 21 39  1  0  0  0  0
 21 40  1  0  0  0  0
 22 23  1  0  0  0  0
 23 24  1  0  0  0  0
 23 41  1  0  0  0  0
 23 42  1  0  0  0  0
 24 43  1  0  0  0  0
 24 44  1  0  0  0  0
M  END
> <s_m_source_file>
AV-unprocessed.smi

> <i_m_source_file_index>
1991

> <i_lp_mmshare_version>
43012

> <i_f3d_flags>
0

> <s_epik_input>
RkMoRikoRilbQ0gyXU9bQ0BASF0oW0NIM10pQyg9TylbTkhdW0NIMl1jMVtjSF1bY0hdW2NIXW5jMU4yW0NIMl1bQ0gyXU9bQ0gyXVtDSDJdMg==

> <s_epik_cmdline>
J2VwaWtfcHl0aG9uJywgJy1waCcsICc3LjAnLCAnLXRuJywgJzgnLCAnLW1hJywgJzIwMCcsICctbWV0YWxfYmluZGluZycsICctaW1hZScsICc8aW5maWxlLm1hZT4nLCAnLW9tYWUnLCAnPG91dGZpbGUubWFlPic=

> <r_lp_tautomer_probability>
1

> <r_epik_Ionization_Penalty>
0.00436412

> <r_epik_Ionization_Penalty_Charging>
0

> <r_epik_Ionization_Penalty_Neutral>
0.00436412

> <r_epik_State_Penalty>
0.00314317

> <r_epik_Charging_Adjusted_Penalty>
0.00314317

> <i_epik_Tot_Q>
0

> <i_epik_Tot_abs_Q>
0

> <r_epik_Metal_State_Penalty>
-0

> <b_epik_Metal_Only>
0

> <s_lp_Force_Field>
OPLS_2005

> <r_lp_Energy>
21.8151

> <b_lp_Chiralities_Consistent>
1

> <s_lp_Variant>
AV-unprocessed.smi:1991-1

> <Gold.Version>
5.8.1

> <Gold.Id.Protein>
6NUR|6NUR_protein|mol2

> <Gold.PLP.Fitness>
44.3856

> <Gold.PLP.PLP>
-37.6277

> <Gold.PLP.part.hbond>
-3.2800

> <Gold.PLP.part.metal>
0.0000

> <Gold.PLP.part.buried>
-2.5439

> <Gold.PLP.part.nonpolar>
-31.8606

> <Gold.PLP.part.repulsive>
0.1128

> <Gold.PLP.ligand.clash>
0.0000

> <Gold.PLP.ligand.torsion>
1.7164

> <Gold.PLP.Chemscore.Hbond>
2.3429

> <Gold.PLP.Chemscore.CHOScore>
0.9203

> <Gold.PLP.Chemscore.Metal>
0.0000

> <Gold.Chemscore.Hbonds>
donor molecule, donor type, donor heavy atom, donor atom, acceptor molecule, acceptor atom, score
      P1  H  6934  6947       L1     3  0.59
      P1  H  7989  7998       L1    17  0.58
      P1  H  7997  8009       L1    22  0.91
      L1  C    16    36       P1  8028  0.40

> <Gold.PLP.Chemscore.Internal.Correction>
0.4011

> <Gold.Rescore>
     Score         DG    S(hbond)    S(metal)    S(lipo)     H(rot)  DE(clash)    DE(int)     intcor
     11.19     -13.08       1.94        0.00      64.21       2.49       0.02       1.87       ----

> <Gold.Chemscore.Fitness>
11.1902

> <Gold.Chemscore.DG>
-13.0829

> <Gold.Chemscore.ZeroCoef>
-5.4800

> <Gold.Chemscore.Hbond>
1.9356

> <Gold.Chemscore.Metal>
0.0000

> <Gold.Chemscore.Lipo>
64.2059

> <Gold.Chemscore.Internal_Hbond>
0.0000

> <Gold.Chemscore.DEClash>
0.0215

> <Gold.Chemscore.DEInternal>
1.8712

> <Gold.Chemscore.Rot>
2.4899

> <Gold.Chemscore.Internal.Correction>
   9.000000E+99

> <Gold.Chemscore.Hbonds>
donor molecule, donor type, donor heavy atom, donor atom, acceptor molecule, acceptor atom, score
      P1  H  6934  6947       L1     3  0.47
      P1  H  7989  7998       L1    17  0.08
      P1  H  7997  8009       L1    22  0.34

> <Gold.Chemscore.Hbond.Weighted>
-6.4650

> <Gold.Chemscore.Metal.Weighted>
-0.0000

> <Gold.Chemscore.Lipo.Weighted>
-7.5121

> <Gold.Chemscore.Internal_Hbond.Weighted>
0.0000

> <Gold.Chemscore.DEClash.Weighted>
0.0215

> <Gold.Chemscore.DEInternal.Weighted>
1.8712

> <Gold.Chemscore.Rot.Weighted>
6.3741

> <Gold.Chemscore.Internal.Correction.Weighted>
   9.000000E+99

> <Gold.Protein.RotatedTorsions>
[ 6907 6896 6895 6894 ] final   32.87 input  -60.11 | X-H torsion
[ 7974 7965 7964 7962 ] final  -24.49 input  175.53 | X-H torsion
[ 8008 7997 7996 7995 ] final -175.97 input   59.86 | X-H torsion
[ 10167 10162 10161 10158 ] final   22.11 input  -65.29 | X-H torsion
[ 10718 10713 10712 10709 ] final   18.07 input   66.30 | X-H torsion
[ 10763 10752 10751 10750 ] final -144.70 input  -60.55 | X-H torsion
[ 11005 11000 10999 10996 ] final  101.17 input  -57.11 | X-H torsion

> <Gold.Protein.ActiveResidues>
 VAL166  LYS551  ARG553  GLY616  TRP617  ASP618  TYR619  PRO620  LYS621  CYS622 
 ASP623  PHE694  ASN695  SER759  ASP760  ASP761  ALA762  ILE779  LEU786  VAL792 
 PHE793  MET794  SER795  GLU796  ALA797  LYS798  CYS799  TRP800  GLU811  SER814 

> <Gold.Protein.RotatedAtoms>
  152.0806  134.9473  160.0573 H   0  0  0  0  0  0  0  0  0  0  0  0  # atno 6907 bound_to 6896
  152.0764  133.4126  159.4490 H   0  0  0  0  0  0  0  0  0  0  0  0  # atno 6908 bound_to 6896
  150.6836  134.2953  159.4727 H   0  0  0  0  0  0  0  0  0  0  0  0  # atno 6909 bound_to 6896
  146.1551  140.4758  142.8595 H   0  0  0  0  0  0  0  0  0  0  0  0  # atno 7974 bound_to 7965
  155.9892  140.1197  157.0654 H   0  0  0  0  0  0  0  0  0  0  0  0  # atno 8008 bound_to 7997
  154.4206  140.1129  156.5610 H   0  0  0  0  0  0  0  0  0  0  0  0  # atno 8009 bound_to 7997
  155.6366  140.3473  155.4703 H   0  0  0  0  0  0  0  0  0  0  0  0  # atno 8010 bound_to 7997
  140.5374  143.9737  150.6499 H   0  0  0  0  0  0  0  0  0  0  0  0  # atno 10167 bound_to 10162
  157.0911  130.6428  149.5849 H   0  0  0  0  0  0  0  0  0  0  0  0  # atno 10718 bound_to 10713
  154.8416  135.3433  154.6388 H   0  0  0  0  0  0  0  0  0  0  0  0  # atno 10763 bound_to 10752
  153.6998  135.6970  153.5071 H   0  0  0  0  0  0  0  0  0  0  0  0  # atno 10764 bound_to 10752
  153.2531  135.4347  155.0772 H   0  0  0  0  0  0  0  0  0  0  0  0  # atno 10765 bound_to 10752
  139.8772  134.9172  156.4866 H   0  0  0  0  0  0  0  0  0  0  0  0  # atno 11005 bound_to 11000
  144.7954  140.6112  143.6514 LP  0  0  0  0  0  0  0  0  0  0  0  0  # atno 17320 bound_to 7965
  145.4727  139.1502  143.3805 LP  0  0  0  0  0  0  0  0  0  0  0  0  # atno 17321 bound_to 7965
  140.3128  143.3187  152.0862 LP  0  0  0  0  0  0  0  0  0  0  0  0  # atno 17342 bound_to 10162
  139.4976  144.6625  151.6432 LP  0  0  0  0  0  0  0  0  0  0  0  0  # atno 17343 bound_to 10162
  155.9898  130.4946  150.7229 LP  0  0  0  0  0  0  0  0  0  0  0  0  # atno 17370 bound_to 10713
  157.4720  131.0894  151.0631 LP  0  0  0  0  0  0  0  0  0  0  0  0  # atno 17371 bound_to 10713
  140.8688  133.8004  155.9343 LP  0  0  0  0  0  0  0  0  0  0  0  0  # atno 17394 bound_to 11000
  140.8974  134.2421  157.5061 LP  0  0  0  0  0  0  0  0  0  0  0  0  # atno 17395 bound_to 11000

$$$$
