AV-unprocessed.smi:2187|AV-procd|sdf|8879|dock4
  -GOLD-   2272012 83D 1   1.00000     0.00000
 Structure written by MMmdl.
 42 43  0  0  0  0  0  0  0  0  1 V2000
  152.5014  139.9685  157.9587 C   0  0  0  0  0  0  0  0  0  0  0  0
  152.3014  141.2374  158.7375 C   0  0  0  0  0  0  0  0  0  0  0  0
  152.6229  141.2658  160.0201 N   0  0  0  0  0  0  0  0  0  0  0  0
  152.3424  142.5230  160.4176 N   0  0  0  0  0  0  0  0  0  0  0  0
  152.5856  142.9033  161.7955 C   0  0  0  0  0  0  0  0  0  0  0  0
  151.8466  143.2919  159.3827 C   0  0  0  0  0  0  0  0  0  0  0  0
  151.4689  144.7267  159.5653 C   0  0  0  0  0  0  0  0  0  0  0  0
  151.8013  142.4903  158.2735 C   0  0  0  0  0  0  0  0  0  0  0  0
  151.3444  142.8395  156.8798 C   0  0  0  0  0  0  0  0  0  0  0  0
  150.1220  141.9959  156.5214 C   0  0  0  0  0  0  0  0  0  0  0  0
  149.2622  141.7636  157.3710 O   0  0  0  0  0  0  0  0  0  0  0  0
  150.0521  141.5553  155.2548 N   0  0  0  0  0  0  0  0  0  0  0  0
  148.9592  140.7651  154.6851 C   0  0  1  0  0  0  0  0  0  0  0  0
  148.1277  141.7080  153.7852 C   0  0  0  0  0  0  0  0  0  0  0  0
  146.6849  141.2296  153.5481 C   0  0  0  0  0  0  0  0  0  0  0  0
  146.5578  139.9146  152.7641 C   0  0  0  0  0  0  0  0  0  0  0  0
  147.1907  138.7069  153.4760 C   0  0  0  0  0  0  0  0  0  0  0  0
  148.6417  138.6913  153.3438 N   0  0  0  0  0  0  0  0  0  0  0  0
  149.5045  139.5956  153.8319 C   0  0  0  0  0  0  0  0  0  0  0  0
  150.7090  139.4949  153.5984 O   0  0  0  0  0  0  0  0  0  0  0  0
  153.4221  140.0118  157.3766 H   0  0  0  0  0  0  0  0  0  0  0  0
  151.6779  139.7988  157.2653 H   0  0  0  0  0  0  0  0  0  0  0  0
  152.5634  139.0990  158.6140 H   0  0  0  0  0  0  0  0  0  0  0  0
  151.7085  143.4104  162.1980 H   0  0  0  0  0  0  0  0  0  0  0  0
  153.4408  143.5777  161.8424 H   0  0  0  0  0  0  0  0  0  0  0  0
  152.7934  142.0239  162.4069 H   0  0  0  0  0  0  0  0  0  0  0  0
  151.3028  145.2170  158.6063 H   0  0  0  0  0  0  0  0  0  0  0  0
  152.2564  145.2743  160.0831 H   0  0  0  0  0  0  0  0  0  0  0  0
  150.5536  144.8130  160.1507 H   0  0  0  0  0  0  0  0  0  0  0  0
  151.0965  143.8982  156.7946 H   0  0  0  0  0  0  0  0  0  0  0  0
  152.1272  142.6577  156.1429 H   0  0  0  0  0  0  0  0  0  0  0  0
  150.8111  141.7909  154.6324 H   0  0  0  0  0  0  0  0  0  0  0  0
  148.3422  140.3798  155.4989 H   0  0  0  0  0  0  0  0  0  0  0  0
  148.0623  142.6878  154.2611 H   0  0  0  0  0  0  0  0  0  0  0  0
  148.6297  141.8815  152.8316 H   0  0  0  0  0  0  0  0  0  0  0  0
  146.1748  141.1309  154.5071 H   0  0  0  0  0  0  0  0  0  0  0  0
  146.1467  142.0079  153.0061 H   0  0  0  0  0  0  0  0  0  0  0  0
  145.4969  139.7112  152.6161 H   0  0  0  0  0  0  0  0  0  0  0  0
  146.9816  140.0283  151.7653 H   0  0  0  0  0  0  0  0  0  0  0  0
  146.9005  138.6700  154.5270 H   0  0  0  0  0  0  0  0  0  0  0  0
  146.8174  137.7883  153.0230 H   0  0  0  0  0  0  0  0  0  0  0  0
  149.0307  137.9332  152.8017 H   0  0  0  0  0  0  0  0  0  0  0  0
  1  2  1  0  0  0  0
  1 21  1  0  0  0  0
  1 22  1  0  0  0  0
  1 23  1  0  0  0  0
  2  8  1  0  0  0  0
  2  3  2  0  0  0  0
  3  4  1  0  0  0  0
  4  5  1  0  0  0  0
  4  6  1  0  0  0  0
  5 24  1  0  0  0  0
  5 25  1  0  0  0  0
  5 26  1  0  0  0  0
  6  7  1  0  0  0  0
  6  8  2  0  0  0  0
  7 27  1  0  0  0  0
  7 28  1  0  0  0  0
  7 29  1  0  0  0  0
  8  9  1  0  0  0  0
  9 10  1  0  0  0  0
  9 30  1  0  0  0  0
  9 31  1  0  0  0  0
 10 11  2  0  0  0  0
 10 12  1  0  0  0  0
 12 13  1  0  0  0  0
 12 32  1  0  0  0  0
 13 19  1  0  0  0  0
 13 14  1  0  0  0  0
 13 33  1  0  0  0  0
 14 15  1  0  0  0  0
 14 34  1  0  0  0  0
 14 35  1  0  0  0  0
 15 16  1  0  0  0  0
 15 36  1  0  0  0  0
 15 37  1  0  0  0  0
 16 17  1  0  0  0  0
 16 38  1  0  0  0  0
 16 39  1  0  0  0  0
 17 18  1  0  0  0  0
 17 40  1  0  0  0  0
 17 41  1  0  0  0  0
 18 19  1  0  0  0  0
 18 42  1  0  0  0  0
 19 20  2  0  0  0  0
M  END
> <s_m_source_file>
AV-unprocessed.smi

> <i_m_source_file_index>
2187

> <i_lp_mmshare_version>
43012

> <i_f3d_flags>
0

> <s_epik_input>
W0NIM11jMW5uKFtDSDNdKWMoW0NIM10pYzFbQ0gyXUMoPU8pW05IXVtDQEBIXTJbQ0gyXVtDSDJdW0NIMl1bQ0gyXVtOSF1DMj1P

> <s_epik_cmdline>
J2VwaWtfcHl0aG9uJywgJy1waCcsICc3LjAnLCAnLXRuJywgJzgnLCAnLW1hJywgJzIwMCcsICctbWV0YWxfYmluZGluZycsICctaW1hZScsICc8aW5maWxlLm1hZT4nLCAnLW9tYWUnLCAnPG91dGZpbGUubWFlPic=

> <r_lp_tautomer_probability>
1

> <r_epik_Ionization_Penalty>
0.00280384

> <r_epik_Ionization_Penalty_Charging>
0

> <r_epik_Ionization_Penalty_Neutral>
0.00280384

> <r_epik_State_Penalty>
0.00195959

> <r_epik_Charging_Adjusted_Penalty>
0.00195959

> <i_epik_Tot_Q>
0

> <i_epik_Tot_abs_Q>
0

> <r_epik_Metal_State_Penalty>
-0

> <b_epik_Metal_Only>
0

> <s_lp_Force_Field>
OPLS_2005

> <r_lp_Energy>
5.77256

> <b_lp_Chiralities_Consistent>
1

> <s_lp_Variant>
AV-unprocessed.smi:2187-2

> <Gold.Version>
5.8.1

> <Gold.Id.Protein>
6NUR|6NUR_protein|mol2

> <Gold.PLP.Fitness>
45.1779

> <Gold.PLP.PLP>
-42.0102

> <Gold.PLP.part.hbond>
-2.1424

> <Gold.PLP.part.metal>
0.0000

> <Gold.PLP.part.buried>
-3.2912

> <Gold.PLP.part.nonpolar>
-36.0010

> <Gold.PLP.part.repulsive>
0.4491

> <Gold.PLP.ligand.clash>
0.0000

> <Gold.PLP.ligand.torsion>
0.5080

> <Gold.PLP.Chemscore.Hbond>
1.3931

> <Gold.PLP.Chemscore.CHOScore>
0.0000

> <Gold.PLP.Chemscore.Metal>
0.0000

> <Gold.Chemscore.Hbonds>
donor molecule, donor type, donor heavy atom, donor atom, acceptor molecule, acceptor atom, score
      L1  H    18    42       P1  7948  1.00
      P1  H  7989  7998       L1    20  0.91

> <Gold.PLP.Chemscore.Internal.Correction>
0.0044

> <Gold.Rescore>
     Score         DG    S(hbond)    S(metal)    S(lipo)     H(rot)  DE(clash)    DE(int)     intcor
     17.85     -18.77       1.63        0.00      98.88       1.46       0.24       0.68       ----

> <Gold.Chemscore.Fitness>
17.8521

> <Gold.Chemscore.DG>
-18.7700

> <Gold.Chemscore.ZeroCoef>
-5.4800

> <Gold.Chemscore.Hbond>
1.6326

> <Gold.Chemscore.Metal>
0.0000

> <Gold.Chemscore.Lipo>
98.8827

> <Gold.Chemscore.Internal_Hbond>
0.0000

> <Gold.Chemscore.DEClash>
0.2352

> <Gold.Chemscore.DEInternal>
0.6827

> <Gold.Chemscore.Rot>
1.4578

> <Gold.Chemscore.Internal.Correction>
   9.000000E+99

> <Gold.Chemscore.Hbonds>
donor molecule, donor type, donor heavy atom, donor atom, acceptor molecule, acceptor atom, score
      L1  H    18    42       P1  7948  0.98
      P1  H  7989  7998       L1    20  0.87

> <Gold.Chemscore.Hbond.Weighted>
-5.4528

> <Gold.Chemscore.Metal.Weighted>
-0.0000

> <Gold.Chemscore.Lipo.Weighted>
-11.5693

> <Gold.Chemscore.Internal_Hbond.Weighted>
0.0000

> <Gold.Chemscore.DEClash.Weighted>
0.2352

> <Gold.Chemscore.DEInternal.Weighted>
0.6827

> <Gold.Chemscore.Rot.Weighted>
3.7321

> <Gold.Chemscore.Internal.Correction.Weighted>
   9.000000E+99

> <Gold.Protein.RotatedTorsions>
[ 6907 6896 6895 6894 ] final  103.79 input  -60.11 | X-H torsion
[ 7974 7965 7964 7962 ] final   70.47 input  175.53 | X-H torsion
[ 8008 7997 7996 7995 ] final  148.10 input   59.86 | X-H torsion
[ 10167 10162 10161 10158 ] final   92.71 input  -65.29 | X-H torsion
[ 10718 10713 10712 10709 ] final  -71.06 input   66.30 | X-H torsion
[ 10763 10752 10751 10750 ] final -175.51 input  -60.55 | X-H torsion
[ 11005 11000 10999 10996 ] final  118.40 input  -57.11 | X-H torsion

> <Gold.Protein.ActiveResidues>
 VAL166  LYS551  ARG553  GLY616  TRP617  ASP618  TYR619  PRO620  LYS621  CYS622 
 ASP623  PHE694  ASN695  SER759  ASP760  ASP761  ALA762  ILE779  LEU786  VAL792 
 PHE793  MET794  SER795  GLU796  ALA797  LYS798  CYS799  TRP800  GLU811  SER814 

> <Gold.Protein.RotatedAtoms>
  152.5284  133.9773  159.7789 H   0  0  0  0  0  0  0  0  0  0  0  0  # atno 6907 bound_to 6896
  151.0033  133.6027  159.2699 H   0  0  0  0  0  0  0  0  0  0  0  0  # atno 6908 bound_to 6896
  151.3128  135.0805  159.9331 H   0  0  0  0  0  0  0  0  0  0  0  0  # atno 6909 bound_to 6896
  145.7777  139.2873  143.1284 H   0  0  0  0  0  0  0  0  0  0  0  0  # atno 7974 bound_to 7965
  156.2803  140.2138  156.5644 H   0  0  0  0  0  0  0  0  0  0  0  0  # atno 8008 bound_to 7997
  154.7187  140.0505  157.0642 H   0  0  0  0  0  0  0  0  0  0  0  0  # atno 8009 bound_to 7997
  155.0508  140.3156  155.4696 H   0  0  0  0  0  0  0  0  0  0  0  0  # atno 8010 bound_to 7997
  139.8251  144.6713  150.9470 H   0  0  0  0  0  0  0  0  0  0  0  0  # atno 10167 bound_to 10162
  156.0380  130.4344  150.2387 H   0  0  0  0  0  0  0  0  0  0  0  0  # atno 10718 bound_to 10713
  154.5835  135.2838  155.0708 H   0  0  0  0  0  0  0  0  0  0  0  0  # atno 10763 bound_to 10752
  154.2036  135.6420  153.5098 H   0  0  0  0  0  0  0  0  0  0  0  0  # atno 10764 bound_to 10752
  153.0096  135.5475  154.6497 H   0  0  0  0  0  0  0  0  0  0  0  0  # atno 10765 bound_to 10752
  139.9108  134.9620  156.7497 H   0  0  0  0  0  0  0  0  0  0  0  0  # atno 11005 bound_to 11000
  146.0106  140.8439  142.9973 LP  0  0  0  0  0  0  0  0  0  0  0  0  # atno 17320 bound_to 7965
  144.6801  140.2484  143.7335 LP  0  0  0  0  0  0  0  0  0  0  0  0  # atno 17321 bound_to 7965
  140.7811  143.4054  151.1079 LP  0  0  0  0  0  0  0  0  0  0  0  0  # atno 17342 bound_to 10162
  139.7712  143.8491  152.3121 LP  0  0  0  0  0  0  0  0  0  0  0  0  # atno 17343 bound_to 10162
  157.0485  131.0056  151.3261 LP  0  0  0  0  0  0  0  0  0  0  0  0  # atno 17370 bound_to 10713
  157.5158  130.7967  149.7754 LP  0  0  0  0  0  0  0  0  0  0  0  0  # atno 17371 bound_to 10713
  140.6783  133.9497  155.7896 LP  0  0  0  0  0  0  0  0  0  0  0  0  # atno 17394 bound_to 11000
  141.0528  134.0460  157.3761 LP  0  0  0  0  0  0  0  0  0  0  0  0  # atno 17395 bound_to 11000

$$$$
