AV-unprocessed.smi:2278|AV-procd|sdf|9180|dock2
  -GOLD-   2272012393D 1   1.00000     0.00000
 Structure written by MMmdl.
 46 47  0  0  0  0  0  0  0  0  2 V2000
  152.5031  142.9331  160.7084 C   0  0  0  0  0  0  0  0  0  0  0  0
  152.0417  142.1865  159.4694 C   0  0  0  0  0  0  0  0  0  0  0  0
  150.8242  142.6092  158.9278 N   0  0  0  0  0  0  0  0  0  0  0  0
  150.3510  142.0297  157.8737 C   0  0  0  0  0  0  0  0  0  0  0  0
  151.0303  140.9731  157.2458 N   0  0  0  0  0  0  0  0  0  0  0  0
  150.3820  140.3926  156.0577 C   0  0  0  0  0  0  0  0  0  0  0  0
  149.4589  141.4055  155.3427 C   0  0  1  0  0  0  0  0  0  0  0  0
  149.5573  141.1918  153.9480 O   0  0  0  0  0  0  0  0  0  0  0  0
  147.9816  141.1990  155.7354 C   0  0  0  0  0  0  0  0  0  0  0  0
  147.1226  142.3459  155.3435 N   0  3  2  0  0  0  0  0  0  0  0  0
  145.9717  142.5575  156.2616 C   0  0  0  0  0  0  0  0  0  0  0  0
  145.1926  143.8302  155.8904 C   0  0  0  0  0  0  0  0  0  0  0  0
  144.7087  143.7825  154.4316 C   0  0  1  0  0  0  0  0  0  0  0  0
  143.9527  145.0603  154.0413 C   0  0  0  0  0  0  0  0  0  0  0  0
  145.9114  143.5260  153.5081 C   0  0  0  0  0  0  0  0  0  0  0  0
  146.6798  142.2613  153.9280 C   0  0  0  0  0  0  0  0  0  0  0  0
  152.2221  140.4969  157.7099 C   0  0  0  0  0  0  0  0  0  0  0  0
  152.8023  139.5610  157.1554 O   0  0  0  0  0  0  0  0  0  0  0  0
  152.7489  141.1672  158.9092 C   0  0  0  0  0  0  0  0  0  0  0  0
  154.0779  140.6615  159.4566 C   0  0  0  0  0  0  0  0  0  0  0  0
  153.4764  143.3943  160.5380 H   0  0  0  0  0  0  0  0  0  0  0  0
  152.5834  142.2515  161.5558 H   0  0  0  0  0  0  0  0  0  0  0  0
  151.8024  143.7238  160.9800 H   0  0  0  0  0  0  0  0  0  0  0  0
  149.4041  142.3197  157.4149 H   0  0  0  0  0  0  0  0  0  0  0  0
  151.1023  139.9656  155.3561 H   0  0  0  0  0  0  0  0  0  0  0  0
  149.7940  139.5339  156.3868 H   0  0  0  0  0  0  0  0  0  0  0  0
  149.7710  142.4243  155.5687 H   0  0  0  0  0  0  0  0  0  0  0  0
  148.9025  140.5598  153.6913 H   0  0  0  0  0  0  0  0  0  0  0  0
  147.6220  140.2827  155.2637 H   0  0  0  0  0  0  0  0  0  0  0  0
  147.8877  141.0404  156.8109 H   0  0  0  0  0  0  0  0  0  0  0  0
  145.3101  141.6906  156.2227 H   0  0  0  0  0  0  0  0  0  0  0  0
  146.3144  142.6431  157.2921 H   0  0  0  0  0  0  0  0  0  0  0  0
  144.3416  143.9469  156.5625 H   0  0  0  0  0  0  0  0  0  0  0  0
  145.8284  144.7036  156.0427 H   0  0  0  0  0  0  0  0  0  0  0  0
  144.0170  142.9446  154.3302 H   0  0  0  0  0  0  0  0  0  0  0  0
  144.5921  145.9404  154.1198 H   0  0  0  0  0  0  0  0  0  0  0  0
  143.0889  145.2177  154.6880 H   0  0  0  0  0  0  0  0  0  0  0  0
  143.5888  145.0035  153.0152 H   0  0  0  0  0  0  0  0  0  0  0  0
  145.5749  143.4237  152.4758 H   0  0  0  0  0  0  0  0  0  0  0  0
  146.5847  144.3842  153.5294 H   0  0  0  0  0  0  0  0  0  0  0  0
  147.5468  142.1402  153.2772 H   0  0  0  0  0  0  0  0  0  0  0  0
  146.0550  141.3768  153.7929 H   0  0  0  0  0  0  0  0  0  0  0  0
  153.9999  139.6057  159.7175 H   0  0  0  0  0  0  0  0  0  0  0  0
  154.4067  141.1945  160.3475 H   0  0  0  0  0  0  0  0  0  0  0  0
  154.8593  140.7680  158.7034 H   0  0  0  0  0  0  0  0  0  0  0  0
  147.7078  143.1671  155.4046 H   0  0  0  0  0  0  0  0  0  0  0  0
  1  2  1  0  0  0  0
  1 21  1  0  0  0  0
  1 22  1  0  0  0  0
  1 23  1  0  0  0  0
  2 19  2  0  0  0  0
  2  3  1  0  0  0  0
  3  4  2  0  0  0  0
  4  5  1  0  0  0  0
  4 24  1  0  0  0  0
  5  6  1  0  0  0  0
  5 17  1  0  0  0  0
  6  7  1  0  0  0  0
  6 25  1  0  0  0  0
  6 26  1  0  0  0  0
  7  8  1  0  0  0  0
  7  9  1  0  0  0  0
  7 27  1  0  0  0  0
  8 28  1  0  0  0  0
  9 10  1  0  0  0  0
  9 29  1  0  0  0  0
  9 30  1  0  0  0  0
 10 16  1  0  0  0  0
 10 11  1  0  0  0  0
 10 46  1  0  0  0  0
 11 12  1  0  0  0  0
 11 31  1  0  0  0  0
 11 32  1  0  0  0  0
 12 13  1  0  0  0  0
 12 33  1  0  0  0  0
 12 34  1  0  0  0  0
 13 14  1  0  0  0  0
 13 15  1  0  0  0  0
 13 35  1  0  0  0  0
 14 36  1  0  0  0  0
 14 37  1  0  0  0  0
 14 38  1  0  0  0  0
 15 16  1  0  0  0  0
 15 39  1  0  0  0  0
 15 40  1  0  0  0  0
 16 41  1  0  0  0  0
 16 42  1  0  0  0  0
 17 18  2  0  0  0  0
 17 19  1  0  0  0  0
 19 20  1  0  0  0  0
 20 43  1  0  0  0  0
 20 44  1  0  0  0  0
 20 45  1  0  0  0  0
M  CHG  1  10   1
M  END
> <s_m_source_file>
AV-unprocessed.smi

> <i_m_source_file_index>
2278

> <i_lp_mmshare_version>
43012

> <i_f3d_flags>
0

> <s_epik_input>
W0NIM11jMW5bY0hdbihjKD1PKWMxW0NIM10pW0NIMl1bQ0BIXShbT0hdKVtDSDJdTjJbQ0gyXVtDSDJdW0NIXShbQ0gzXSlbQ0gyXVtDSDJdMg==

> <s_epik_cmdline>
J2VwaWtfcHl0aG9uJywgJy1waCcsICc3LjAnLCAnLXRuJywgJzgnLCAnLW1hJywgJzIwMCcsICctbWV0YWxfYmluZGluZycsICctaW1hZScsICc8aW5maWxlLm1hZT4nLCAnLW9tYWUnLCAnPG91dGZpbGUubWFlPic=

> <r_lp_tautomer_probability>
1

> <r_epik_Ionization_Penalty>
0.00139489

> <r_epik_Ionization_Penalty_Charging>
0.00136819

> <r_epik_Ionization_Penalty_Neutral>
2.66975e-05

> <r_epik_State_Penalty>
0.000910892

> <r_epik_Charging_Adjusted_Penalty>
0.00227908

> <i_epik_Tot_Q>
1

> <i_epik_Tot_abs_Q>
1

> <r_epik_Metal_State_Penalty>
-0

> <b_epik_Metal_Only>
0

> <s_lp_Force_Field>
OPLS_2005

> <r_lp_Energy>
29.3235

> <b_lp_Chiralities_Consistent>
1

> <s_lp_Variant>
AV-unprocessed.smi:2278-2

> <Gold.Version>
5.8.1

> <Gold.Id.Protein>
6NUR|6NUR_protein|mol2

> <Gold.PLP.Fitness>
50.7118

> <Gold.PLP.PLP>
-40.9976

> <Gold.PLP.part.hbond>
-5.0000

> <Gold.PLP.part.metal>
0.0000

> <Gold.PLP.part.buried>
-5.5495

> <Gold.PLP.part.nonpolar>
-30.2335

> <Gold.PLP.part.repulsive>
0.1129

> <Gold.PLP.ligand.clash>
0.0000

> <Gold.PLP.ligand.torsion>
1.3141

> <Gold.PLP.Chemscore.Hbond>
4.0890

> <Gold.PLP.Chemscore.CHOScore>
0.0000

> <Gold.PLP.Chemscore.Metal>
0.0000

> <Gold.Chemscore.Hbonds>
donor molecule, donor type, donor heavy atom, donor atom, acceptor molecule, acceptor atom, score
      L1  H    10    46       P1  8028  2.00
      P1  H  7989  7998       L1     8  0.27
      P1  H  7997  8008       L1    18  1.00
      P1  H  8011  8017       L1     8  0.81

> <Gold.PLP.Chemscore.Internal.Correction>
0.0755

> <Gold.Rescore>
     Score         DG    S(hbond)    S(metal)    S(lipo)     H(rot)  DE(clash)    DE(int)     intcor
     15.76     -17.23       2.15        0.00      87.00       2.20       0.04       1.42       ----

> <Gold.Chemscore.Fitness>
15.7610

> <Gold.Chemscore.DG>
-17.2255

> <Gold.Chemscore.ZeroCoef>
-5.4800

> <Gold.Chemscore.Hbond>
2.1540

> <Gold.Chemscore.Metal>
0.0000

> <Gold.Chemscore.Lipo>
87.0036

> <Gold.Chemscore.Internal_Hbond>
0.0000

> <Gold.Chemscore.DEClash>
0.0414

> <Gold.Chemscore.DEInternal>
1.4231

> <Gold.Chemscore.Rot>
2.1986

> <Gold.Chemscore.Internal.Correction>
   9.000000E+99

> <Gold.Chemscore.Hbonds>
donor molecule, donor type, donor heavy atom, donor atom, acceptor molecule, acceptor atom, score
      L1  H    10    46       P1  8028  0.39
      P1  H  7989  7998       L1     8  0.17
      P1  H  7997  8008       L1    18  0.74
      P1  H  8011  8017       L1     8  0.42

> <Gold.Chemscore.Hbond.Weighted>
-7.1945

> <Gold.Chemscore.Metal.Weighted>
-0.0000

> <Gold.Chemscore.Lipo.Weighted>
-10.1794

> <Gold.Chemscore.Internal_Hbond.Weighted>
0.0000

> <Gold.Chemscore.DEClash.Weighted>
0.0414

> <Gold.Chemscore.DEInternal.Weighted>
1.4231

> <Gold.Chemscore.Rot.Weighted>
5.6285

> <Gold.Chemscore.Internal.Correction.Weighted>
   9.000000E+99

> <Gold.Protein.RotatedTorsions>
[ 6907 6896 6895 6894 ] final  -83.20 input  -60.11 | X-H torsion
[ 7974 7965 7964 7962 ] final -122.47 input  175.53 | X-H torsion
[ 8008 7997 7996 7995 ] final  -48.31 input   59.86 | X-H torsion
[ 10167 10162 10161 10158 ] final  -77.86 input  -65.29 | X-H torsion
[ 10718 10713 10712 10709 ] final -119.93 input   66.30 | X-H torsion
[ 10763 10752 10751 10750 ] final -147.93 input  -60.55 | X-H torsion
[ 11005 11000 10999 10996 ] final   53.62 input  -57.11 | X-H torsion

> <Gold.Protein.ActiveResidues>
 VAL166  LYS551  ARG553  GLY616  TRP617  ASP618  TYR619  PRO620  LYS621  CYS622 
 ASP623  PHE694  ASN695  SER759  ASP760  ASP761  ALA762  ILE779  LEU786  VAL792 
 PHE793  MET794  SER795  GLU796  ALA797  LYS798  CYS799  TRP800  GLU811  SER814 

> <Gold.Protein.RotatedAtoms>
  150.6888  134.3548  159.4924 H   0  0  0  0  0  0  0  0  0  0  0  0  # atno 6907 bound_to 6896
  152.1385  134.9078  160.0564 H   0  0  0  0  0  0  0  0  0  0  0  0  # atno 6908 bound_to 6896
  152.0221  133.3868  159.4299 H   0  0  0  0  0  0  0  0  0  0  0  0  # atno 6909 bound_to 6896
  145.0291  140.8052  143.4335 H   0  0  0  0  0  0  0  0  0  0  0  0  # atno 7974 bound_to 7965
  154.4027  140.1324  156.4318 H   0  0  0  0  0  0  0  0  0  0  0  0  # atno 8008 bound_to 7997
  155.7544  140.3487  155.5146 H   0  0  0  0  0  0  0  0  0  0  0  0  # atno 8009 bound_to 7997
  155.8919  140.1004  157.1402 H   0  0  0  0  0  0  0  0  0  0  0  0  # atno 8010 bound_to 7997
  140.4733  143.2421  151.8171 H   0  0  0  0  0  0  0  0  0  0  0  0  # atno 10167 bound_to 10162
  156.1219  130.6329  150.9477 H   0  0  0  0  0  0  0  0  0  0  0  0  # atno 10718 bound_to 10713
  154.8260  135.3347  154.6895 H   0  0  0  0  0  0  0  0  0  0  0  0  # atno 10763 bound_to 10752
  153.7521  135.6938  153.4948 H   0  0  0  0  0  0  0  0  0  0  0  0  # atno 10764 bound_to 10752
  153.2169  135.4462  155.0395 H   0  0  0  0  0  0  0  0  0  0  0  0  # atno 10765 bound_to 10752
  140.0753  134.5414  155.9003 H   0  0  0  0  0  0  0  0  0  0  0  0  # atno 11005 bound_to 11000
  145.1795  139.2360  143.5300 LP  0  0  0  0  0  0  0  0  0  0  0  0  # atno 17320 bound_to 7965
  146.3496  140.1565  142.8591 LP  0  0  0  0  0  0  0  0  0  0  0  0  # atno 17321 bound_to 7965
  139.4822  144.4864  151.9241 LP  0  0  0  0  0  0  0  0  0  0  0  0  # atno 17342 bound_to 10162
  140.3949  144.2567  150.5897 LP  0  0  0  0  0  0  0  0  0  0  0  0  # atno 17343 bound_to 10162
  157.6402  131.0911  150.8267 LP  0  0  0  0  0  0  0  0  0  0  0  0  # atno 17370 bound_to 10713
  156.8362  130.5032  149.5326 LP  0  0  0  0  0  0  0  0  0  0  0  0  # atno 17371 bound_to 10713
  141.2027  133.6627  156.6021 LP  0  0  0  0  0  0  0  0  0  0  0  0  # atno 17394 bound_to 11000
  140.3567  134.7722  157.4505 LP  0  0  0  0  0  0  0  0  0  0  0  0  # atno 17395 bound_to 11000

$$$$
