AV-unprocessed.smi:1187|AV-procd|sdf|4976|dock7
  -GOLD-   22720 3573D 1   1.00000     0.00000
 Structure written by MMmdl.
 38 39  0  0  0  0  0  0  0  0  1 V2000
  151.3245  141.4251  158.2779 C   0  0  0  0  0  0  0  0  0  0  0  0
  151.1823  141.4255  156.8615 O   0  0  0  0  0  0  0  0  0  0  0  0
  150.5843  140.3354  156.2631 C   0  0  0  0  0  0  0  0  0  0  0  0
  149.8610  139.4346  157.0699 C   0  0  0  0  0  0  0  0  0  0  0  0
  149.2504  138.3179  156.4673 C   0  0  0  0  0  0  0  0  0  0  0  0
  149.3906  138.1331  155.0711 C   0  0  0  0  0  0  0  0  0  0  0  0
  148.8128  137.0591  154.3419 N   0  0  0  0  0  0  0  0  0  0  0  0
  147.8539  136.2011  154.7304 C   0  0  0  0  0  0  0  0  0  0  0  0
  147.2926  136.2053  155.8257 O   0  0  0  0  0  0  0  0  0  0  0  0
  147.5864  135.3071  153.7670 N   0  0  0  0  0  0  0  0  0  0  0  0
  146.5959  134.2364  153.8621 C   0  0  0  0  0  0  0  0  0  0  0  0
  146.8099  133.1108  152.8331 C   0  0  0  0  0  0  0  0  0  0  0  0
  147.8388  132.4331  152.8671 O   0  0  0  0  0  0  0  0  0  0  0  0
  145.8394  132.8911  151.9220 N   0  0  0  0  0  0  0  0  0  0  0  0
  144.5801  133.6279  151.8210 C   0  0  0  0  0  0  0  0  0  0  0  0
  143.7242  132.8484  150.8222 C   0  0  0  0  0  0  0  0  0  0  0  0
  144.7377  132.1158  149.9542 C   0  0  0  0  0  0  0  0  0  0  0  0
  145.9148  131.8543  150.8943 C   0  0  0  0  0  0  0  0  0  0  0  0
  150.1215  139.1007  154.3514 C   0  0  0  0  0  0  0  0  0  0  0  0
  150.7099  140.1723  154.9229 N   0  0  0  0  0  0  0  0  0  0  0  0
  151.8125  142.3476  158.5922 H   0  0  0  0  0  0  0  0  0  0  0  0
  151.9419  140.5925  158.6178 H   0  0  0  0  0  0  0  0  0  0  0  0
  150.3545  141.3783  158.7750 H   0  0  0  0  0  0  0  0  0  0  0  0
  149.7736  139.5990  158.1338 H   0  0  0  0  0  0  0  0  0  0  0  0
  148.6809  137.6394  157.0832 H   0  0  0  0  0  0  0  0  0  0  0  0
  149.2250  136.8816  153.4377 H   0  0  0  0  0  0  0  0  0  0  0  0
  148.0942  135.3780  152.8977 H   0  0  0  0  0  0  0  0  0  0  0  0
  146.6589  133.8107  154.8637 H   0  0  0  0  0  0  0  0  0  0  0  0
  145.5933  134.6541  153.7587 H   0  0  0  0  0  0  0  0  0  0  0  0
  144.0727  133.7182  152.7824 H   0  0  0  0  0  0  0  0  0  0  0  0
  144.7837  134.6319  151.4454 H   0  0  0  0  0  0  0  0  0  0  0  0
  143.1109  132.1218  151.3569 H   0  0  0  0  0  0  0  0  0  0  0  0
  143.0566  133.4892  150.2454 H   0  0  0  0  0  0  0  0  0  0  0  0
  144.3363  131.2021  149.5148 H   0  0  0  0  0  0  0  0  0  0  0  0
  145.0581  132.7663  149.1395 H   0  0  0  0  0  0  0  0  0  0  0  0
  146.8643  131.8756  150.3568 H   0  0  0  0  0  0  0  0  0  0  0  0
  145.8150  130.8771  151.3693 H   0  0  0  0  0  0  0  0  0  0  0  0
  150.2448  139.0113  153.2817 H   0  0  0  0  0  0  0  0  0  0  0  0
  1  2  1  0  0  0  0
  1 21  1  0  0  0  0
  1 22  1  0  0  0  0
  1 23  1  0  0  0  0
  2  3  1  0  0  0  0
  3 20  1  0  0  0  0
  3  4  2  0  0  0  0
  4  5  1  0  0  0  0
  4 24  1  0  0  0  0
  5  6  2  0  0  0  0
  5 25  1  0  0  0  0
  6  7  1  0  0  0  0
  6 19  1  0  0  0  0
  7  8  1  0  0  0  0
  7 26  1  0  0  0  0
  8  9  2  0  0  0  0
  8 10  1  0  0  0  0
 10 11  1  0  0  0  0
 10 27  1  0  0  0  0
 11 12  1  0  0  0  0
 11 28  1  0  0  0  0
 11 29  1  0  0  0  0
 12 13  2  0  0  0  0
 12 14  1  0  0  0  0
 14 18  1  0  0  0  0
 14 15  1  0  0  0  0
 15 16  1  0  0  0  0
 15 30  1  0  0  0  0
 15 31  1  0  0  0  0
 16 17  1  0  0  0  0
 16 32  1  0  0  0  0
 16 33  1  0  0  0  0
 17 18  1  0  0  0  0
 17 34  1  0  0  0  0
 17 35  1  0  0  0  0
 18 36  1  0  0  0  0
 18 37  1  0  0  0  0
 19 20  2  0  0  0  0
 19 38  1  0  0  0  0
M  END
> <s_m_source_file>
AV-unprocessed.smi

> <i_m_source_file_index>
1187

> <i_lp_mmshare_version>
43012

> <i_f3d_flags>
0

> <s_epik_input>
W0NIM11PYzFbY0hdW2NIXWMoW2NIXW4xKVtOSF1DKD1PKVtOSF1bQ0gyXUMoPU8pTjJbQ0gyXVtDSDJdW0NIMl1bQ0gyXTI=

> <s_epik_cmdline>
J2VwaWtfcHl0aG9uJywgJy1waCcsICc3LjAnLCAnLXRuJywgJzgnLCAnLW1hJywgJzIwMCcsICctbWV0YWxfYmluZGluZycsICctaW1hZScsICc8aW5maWxlLm1hZT4nLCAnLW9tYWUnLCAnPG91dGZpbGUubWFlPic=

> <r_lp_tautomer_probability>
1

> <r_epik_Ionization_Penalty>
0.000141675

> <r_epik_Ionization_Penalty_Charging>
0

> <r_epik_Ionization_Penalty_Neutral>
0.000141675

> <r_epik_State_Penalty>
-0

> <r_epik_Charging_Adjusted_Penalty>
0

> <i_epik_Tot_Q>
0

> <i_epik_Tot_abs_Q>
0

> <r_epik_Metal_State_Penalty>
-0

> <b_epik_Metal_Only>
0

> <s_lp_Force_Field>
OPLS_2005

> <r_lp_Energy>
27.0256

> <b_lp_Chiralities_Consistent>
1

> <s_lp_Variant>
AV-unprocessed.smi:1187-1

> <Gold.Version>
5.8.1

> <Gold.Id.Protein>
6NUR|6NUR_protein|mol2

> <Gold.PLP.Fitness>
38.6143

> <Gold.PLP.PLP>
-27.4789

> <Gold.PLP.part.hbond>
-3.0000

> <Gold.PLP.part.metal>
0.0000

> <Gold.PLP.part.buried>
-5.5147

> <Gold.PLP.part.nonpolar>
-20.0438

> <Gold.PLP.part.repulsive>
0.2715

> <Gold.PLP.ligand.clash>
0.0000

> <Gold.PLP.ligand.torsion>
0.3748

> <Gold.PLP.Chemscore.Hbond>
2.9600

> <Gold.PLP.Chemscore.CHOScore>
1.0000

> <Gold.PLP.Chemscore.Metal>
0.0000

> <Gold.Chemscore.Hbonds>
donor molecule, donor type, donor heavy atom, donor atom, acceptor molecule, acceptor atom, score
      L1  H     7    26       P1  7948  0.93
      L1  H    10    27       P1  7948  1.00
      P1  H  7989  7998       L1    20  1.00
      L1  C    19    38       P1  7957  1.00

> <Gold.PLP.Chemscore.Internal.Correction>
0.0050

> <Gold.Rescore>
     Score         DG    S(hbond)    S(metal)    S(lipo)     H(rot)  DE(clash)    DE(int)     intcor
     15.86     -17.37       2.80        0.00      56.34       1.58       0.04       1.47       ----

> <Gold.Chemscore.Fitness>
15.8558

> <Gold.Chemscore.DG>
-17.3677

> <Gold.Chemscore.ZeroCoef>
-5.4800

> <Gold.Chemscore.Hbond>
2.7968

> <Gold.Chemscore.Metal>
0.0000

> <Gold.Chemscore.Lipo>
56.3446

> <Gold.Chemscore.Internal_Hbond>
0.0000

> <Gold.Chemscore.DEClash>
0.0402

> <Gold.Chemscore.DEInternal>
1.4716

> <Gold.Chemscore.Rot>
1.5804

> <Gold.Chemscore.Internal.Correction>
   9.000000E+99

> <Gold.Chemscore.Hbonds>
donor molecule, donor type, donor heavy atom, donor atom, acceptor molecule, acceptor atom, score
      L1  H     7    26       P1  7948  0.89
      L1  H    10    27       P1  7948  0.94
      P1  H  7989  7998       L1    20  0.30

> <Gold.Chemscore.Hbond.Weighted>
-9.3413

> <Gold.Chemscore.Metal.Weighted>
-0.0000

> <Gold.Chemscore.Lipo.Weighted>
-6.5923

> <Gold.Chemscore.Internal_Hbond.Weighted>
0.0000

> <Gold.Chemscore.DEClash.Weighted>
0.0402

> <Gold.Chemscore.DEInternal.Weighted>
1.4716

> <Gold.Chemscore.Rot.Weighted>
4.0459

> <Gold.Chemscore.Internal.Correction.Weighted>
   9.000000E+99

> <Gold.Protein.RotatedTorsions>
[ 6907 6896 6895 6894 ] final -177.13 input  -60.11 | X-H torsion
[ 7974 7965 7964 7962 ] final   21.35 input  175.53 | X-H torsion
[ 8008 7997 7996 7995 ] final  -13.27 input   59.86 | X-H torsion
[ 10167 10162 10161 10158 ] final  127.44 input  -65.29 | X-H torsion
[ 10718 10713 10712 10709 ] final  -51.35 input   66.30 | X-H torsion
[ 10763 10752 10751 10750 ] final -155.38 input  -60.55 | X-H torsion
[ 11005 11000 10999 10996 ] final    4.73 input  -57.11 | X-H torsion

> <Gold.Protein.ActiveResidues>
 VAL166  LYS551  ARG553  GLY616  TRP617  ASP618  TYR619  PRO620  LYS621  CYS622 
 ASP623  PHE694  ASN695  SER759  ASP760  ASP761  ALA762  ILE779  LEU786  VAL792 
 PHE793  MET794  SER795  GLU796  ALA797  LYS798  CYS799  TRP800  GLU811  SER814 

> <Gold.Protein.RotatedAtoms>
  151.6161  133.3343  159.3077 H   0  0  0  0  0  0  0  0  0  0  0  0  # atno 6907 bound_to 6896
  150.8131  134.7300  159.6717 H   0  0  0  0  0  0  0  0  0  0  0  0  # atno 6908 bound_to 6896
  152.4227  134.5930  160.0031 H   0  0  0  0  0  0  0  0  0  0  0  0  # atno 6909 bound_to 6896
  146.2075  139.8040  142.8715 H   0  0  0  0  0  0  0  0  0  0  0  0  # atno 7974 bound_to 7965
  154.5307  140.2254  155.8810 H   0  0  0  0  0  0  0  0  0  0  0  0  # atno 8008 bound_to 7997
  156.1760  140.3111  155.9024 H   0  0  0  0  0  0  0  0  0  0  0  0  # atno 8009 bound_to 7997
  155.3458  140.0453  157.3036 H   0  0  0  0  0  0  0  0  0  0  0  0  # atno 8010 bound_to 7997
  139.5578  144.6861  151.4131 H   0  0  0  0  0  0  0  0  0  0  0  0  # atno 10167 bound_to 10162
  156.1718  130.4149  149.9636 H   0  0  0  0  0  0  0  0  0  0  0  0  # atno 10718 bound_to 10713
  154.7791  135.3169  154.8029 H   0  0  0  0  0  0  0  0  0  0  0  0  # atno 10763 bound_to 10752
  153.8745  135.6841  153.4776 H   0  0  0  0  0  0  0  0  0  0  0  0  # atno 10764 bound_to 10752
  153.1422  135.4734  154.9450 H   0  0  0  0  0  0  0  0  0  0  0  0  # atno 10765 bound_to 10752
  140.5786  134.0034  155.8038 H   0  0  0  0  0  0  0  0  0  0  0  0  # atno 11005 bound_to 11000
  145.3266  141.0257  143.3470 LP  0  0  0  0  0  0  0  0  0  0  0  0  # atno 17320 bound_to 7965
  144.8828  139.4880  143.6715 LP  0  0  0  0  0  0  0  0  0  0  0  0  # atno 17321 bound_to 7965
  140.6854  143.7987  150.7178 LP  0  0  0  0  0  0  0  0  0  0  0  0  # atno 17342 bound_to 10162
  140.1453  143.4405  152.2167 LP  0  0  0  0  0  0  0  0  0  0  0  0  # atno 17343 bound_to 10162
  156.7434  130.9088  151.3633 LP  0  0  0  0  0  0  0  0  0  0  0  0  # atno 17370 bound_to 10713
  157.6808  130.9138  150.0262 LP  0  0  0  0  0  0  0  0  0  0  0  0  # atno 17371 bound_to 10713
  141.1010  133.9768  157.3078 LP  0  0  0  0  0  0  0  0  0  0  0  0  # atno 17394 bound_to 11000
  139.9328  135.0199  156.8456 LP  0  0  0  0  0  0  0  0  0  0  0  0  # atno 17395 bound_to 11000

$$$$
