AV-unprocessed.smi:3228|AV-procd|sdf|12321|dock10
  -GOLD-   2272018173D 1   1.00000     0.00000
 Structure written by MMmdl.
 31 32  0  0  0  0  0  0  0  0  1 V2000
  145.3224  138.4522  152.8978 O   0  0  0  0  0  0  0  0  0  0  0  0
  146.3322  137.8542  152.5250 C   0  0  0  0  0  0  0  0  0  0  0  0
  146.2969  136.7197  151.8111 N   0  0  0  0  0  0  0  0  0  0  0  0
  145.0787  136.0382  151.3850 C   0  0  0  0  0  0  0  0  0  0  0  0
  145.1772  134.5066  151.5519 C   0  0  2  0  0  0  0  0  0  0  0  0
  146.4989  133.9038  151.0622 C   0  0  0  0  0  0  0  0  0  0  0  0
  146.2059  132.4201  150.7909 C   0  0  0  0  0  0  0  0  0  0  0  0
  144.6792  132.2545  150.8575 C   0  0  0  0  0  0  0  0  0  0  0  0
  144.0990  133.6725  150.8415 C   0  0  2  0  0  0  0  0  0  0  0  0
  143.9271  134.0836  149.4976 O   0  0  0  0  0  0  0  0  0  0  0  0
  147.5976  138.2387  152.7682 N   0  0  0  0  0  0  0  0  0  0  0  0
  148.0451  139.3696  153.5006 C   0  0  0  0  0  0  0  0  0  0  0  0
  149.2159  139.4368  154.1452 N   0  0  0  0  0  0  0  0  0  0  0  0
  149.3972  140.6697  154.7770 C   0  0  0  0  0  0  0  0  0  0  0  0
  148.3465  141.5356  154.6021 C   0  0  0  0  0  0  0  0  0  0  0  0
  147.0802  140.8329  153.6314 S   0  0  0  0  0  0  0  0  0  0  0  0
  147.1736  136.2935  151.5489 H   0  0  0  0  0  0  0  0  0  0  0  0
  144.2466  136.4334  151.9682 H   0  0  0  0  0  0  0  0  0  0  0  0
  144.8621  136.2874  150.3449 H   0  0  0  0  0  0  0  0  0  0  0  0
  145.1048  134.2793  152.6172 H   0  0  0  0  0  0  0  0  0  0  0  0
  146.8091  134.3869  150.1346 H   0  0  0  0  0  0  0  0  0  0  0  0
  147.3033  134.0407  151.7856 H   0  0  0  0  0  0  0  0  0  0  0  0
  146.5864  132.1337  149.8101 H   0  0  0  0  0  0  0  0  0  0  0  0
  146.6917  131.7799  151.5278 H   0  0  0  0  0  0  0  0  0  0  0  0
  144.2885  131.6239  150.0577 H   0  0  0  0  0  0  0  0  0  0  0  0
  144.4171  131.7742  151.8011 H   0  0  0  0  0  0  0  0  0  0  0  0
  143.1370  133.7230  151.3524 H   0  0  0  0  0  0  0  0  0  0  0  0
  144.7784  134.2523  149.1243 H   0  0  0  0  0  0  0  0  0  0  0  0
  148.3265  137.6507  152.3918 H   0  0  0  0  0  0  0  0  0  0  0  0
  150.3068  140.8464  155.3320 H   0  0  0  0  0  0  0  0  0  0  0  0
  148.2415  142.5401  154.9838 H   0  0  0  0  0  0  0  0  0  0  0  0
  1  2  2  0  0  0  0
  2  3  1  0  0  0  0
  2 11  1  0  0  0  0
  3  4  1  0  0  0  0
  3 17  1  0  0  0  0
  4  5  1  0  0  0  0
  4 18  1  0  0  0  0
  4 19  1  0  0  0  0
  5  9  1  0  0  0  0
  5  6  1  0  0  0  0
  5 20  1  0  0  0  0
  6  7  1  0  0  0  0
  6 21  1  0  0  0  0
  6 22  1  0  0  0  0
  7  8  1  0  0  0  0
  7 23  1  0  0  0  0
  7 24  1  0  0  0  0
  8  9  1  0  0  0  0
  8 25  1  0  0  0  0
  8 26  1  0  0  0  0
  9 10  1  0  0  0  0
  9 27  1  0  0  0  0
 10 28  1  0  0  0  0
 11 12  1  0  0  0  0
 11 29  1  0  0  0  0
 12 16  1  0  0  0  0
 12 13  2  0  0  0  0
 13 14  1  0  0  0  0
 14 15  2  0  0  0  0
 14 30  1  0  0  0  0
 15 16  1  0  0  0  0
 15 31  1  0  0  0  0
M  END
> <s_m_source_file>
AV-unprocessed.smi

> <i_m_source_file_index>
3228

> <i_lp_mmshare_version>
43012

> <i_f3d_flags>
0

> <s_epik_input>
czFbY0hdW2NIXW5jMVtOSF1DKD1PKVtOSF1bQ0gyXVtDQEBIXTJbQ0gyXVtDSDJdW0NIMl1bQ0BIXTJbT0hd

> <s_epik_cmdline>
J2VwaWtfcHl0aG9uJywgJy1waCcsICc3LjAnLCAnLXRuJywgJzgnLCAnLW1hJywgJzIwMCcsICctbWV0YWxfYmluZGluZycsICctaW1hZScsICc8aW5maWxlLm1hZT4nLCAnLW9tYWUnLCAnPG91dGZpbGUubWFlPic=

> <r_lp_tautomer_probability>
0.999

> <r_epik_Ionization_Penalty>
0.000399498

> <r_epik_Ionization_Penalty_Charging>
0

> <r_epik_Ionization_Penalty_Neutral>
0.000399498

> <r_epik_State_Penalty>
0.000177984

> <r_epik_Charging_Adjusted_Penalty>
0.000177984

> <i_epik_Tot_Q>
0

> <i_epik_Tot_abs_Q>
0

> <r_epik_Metal_State_Penalty>
0.0060793

> <b_epik_Metal_Only>
0

> <s_lp_Force_Field>
OPLS_2005

> <r_lp_Energy>
23.3722

> <b_lp_Chiralities_Consistent>
1

> <s_lp_Variant>
AV-unprocessed.smi:3228-3

> <Gold.Version>
5.8.1

> <Gold.Id.Protein>
6NUR|6NUR_protein|mol2

> <Gold.PLP.Fitness>
39.6185

> <Gold.PLP.PLP>
-28.5043

> <Gold.PLP.part.hbond>
-4.8891

> <Gold.PLP.part.metal>
0.0000

> <Gold.PLP.part.buried>
-2.2023

> <Gold.PLP.part.nonpolar>
-25.9603

> <Gold.PLP.part.repulsive>
4.8446

> <Gold.PLP.ligand.clash>
0.0000

> <Gold.PLP.ligand.torsion>
0.3835

> <Gold.PLP.Chemscore.Hbond>
2.9600

> <Gold.PLP.Chemscore.CHOScore>
1.0000

> <Gold.PLP.Chemscore.Metal>
0.0000

> <Gold.Chemscore.Hbonds>
donor molecule, donor type, donor heavy atom, donor atom, acceptor molecule, acceptor atom, score
      L1  H     3    17       P1  7948  0.94
      L1  H    10    28       P1  7921  0.84
      L1  H    11    29       P1  7948  1.00
      L1  C    15    31       P1  8028  1.00

> <Gold.PLP.Chemscore.Internal.Correction>
0.0011

> <Gold.Rescore>
     Score         DG    S(hbond)    S(metal)    S(lipo)     H(rot)  DE(clash)    DE(int)     intcor
     14.60     -17.20       2.92        0.00      58.08       1.88       1.36       1.24       ----

> <Gold.Chemscore.Fitness>
14.6036

> <Gold.Chemscore.DG>
-17.2049

> <Gold.Chemscore.ZeroCoef>
-5.4800

> <Gold.Chemscore.Hbond>
2.9158

> <Gold.Chemscore.Metal>
0.0000

> <Gold.Chemscore.Lipo>
58.0789

> <Gold.Chemscore.Internal_Hbond>
0.0000

> <Gold.Chemscore.DEClash>
1.3631

> <Gold.Chemscore.DEInternal>
1.2382

> <Gold.Chemscore.Rot>
1.8786

> <Gold.Chemscore.Internal.Correction>
   9.000000E+99

> <Gold.Chemscore.Hbonds>
donor molecule, donor type, donor heavy atom, donor atom, acceptor molecule, acceptor atom, score
      L1  H     3    17       P1  7948  0.91
      L1  H    10    28       P1  7921  0.83
      L1  H    11    29       P1  7948  0.98

> <Gold.Chemscore.Hbond.Weighted>
-9.7388

> <Gold.Chemscore.Metal.Weighted>
-0.0000

> <Gold.Chemscore.Lipo.Weighted>
-6.7952

> <Gold.Chemscore.Internal_Hbond.Weighted>
0.0000

> <Gold.Chemscore.DEClash.Weighted>
1.3631

> <Gold.Chemscore.DEInternal.Weighted>
1.2382

> <Gold.Chemscore.Rot.Weighted>
4.8091

> <Gold.Chemscore.Internal.Correction.Weighted>
   9.000000E+99

> <Gold.Protein.RotatedTorsions>
[ 6907 6896 6895 6894 ] final  -39.80 input  -60.11 | X-H torsion
[ 7974 7965 7964 7962 ] final  -13.11 input  175.53 | X-H torsion
[ 8008 7997 7996 7995 ] final   51.32 input   59.86 | X-H torsion
[ 10167 10162 10161 10158 ] final -169.49 input  -65.29 | X-H torsion
[ 10718 10713 10712 10709 ] final -115.44 input   66.30 | X-H torsion
[ 10763 10752 10751 10750 ] final -143.44 input  -60.55 | X-H torsion
[ 11005 11000 10999 10996 ] final  171.92 input  -57.11 | X-H torsion

> <Gold.Protein.ActiveResidues>
 VAL166  LYS551  ARG553  GLY616  TRP617  ASP618  TYR619  PRO620  LYS621  CYS622 
 ASP623  PHE694  ASN695  SER759  ASP760  ASP761  ALA762  ILE779  LEU786  VAL792 
 PHE793  MET794  SER795  GLU796  ALA797  LYS798  CYS799  TRP800  GLU811  SER814 

> <Gold.Protein.RotatedAtoms>
  150.9860  134.9205  159.7871 H   0  0  0  0  0  0  0  0  0  0  0  0  # atno 6907 bound_to 6896
  152.5236  134.3346  159.9205 H   0  0  0  0  0  0  0  0  0  0  0  0  # atno 6908 bound_to 6896
  151.3352  133.3943  159.2700 H   0  0  0  0  0  0  0  0  0  0  0  0  # atno 6909 bound_to 6896
  146.2127  140.3155  142.8386 H   0  0  0  0  0  0  0  0  0  0  0  0  # atno 7974 bound_to 7965
  155.4334  140.3451  155.4282 H   0  0  0  0  0  0  0  0  0  0  0  0  # atno 8008 bound_to 7997
  156.1323  140.1517  156.9078 H   0  0  0  0  0  0  0  0  0  0  0  0  # atno 8009 bound_to 7997
  154.4904  140.0843  156.7561 H   0  0  0  0  0  0  0  0  0  0  0  0  # atno 8010 bound_to 7997
  139.5919  144.1194  152.1644 H   0  0  0  0  0  0  0  0  0  0  0  0  # atno 10167 bound_to 10162
  156.0896  130.6081  150.8906 H   0  0  0  0  0  0  0  0  0  0  0  0  # atno 10718 bound_to 10713
  154.8469  135.3468  154.6188 H   0  0  0  0  0  0  0  0  0  0  0  0  # atno 10763 bound_to 10752
  153.6797  135.6981  153.5126 H   0  0  0  0  0  0  0  0  0  0  0  0  # atno 10764 bound_to 10752
  153.2678  135.4302  155.0914 H   0  0  0  0  0  0  0  0  0  0  0  0  # atno 10765 bound_to 10752
  140.3241  134.7412  157.4086 H   0  0  0  0  0  0  0  0  0  0  0  0  # atno 11005 bound_to 11000
  144.8957  140.7580  143.5898 LP  0  0  0  0  0  0  0  0  0  0  0  0  # atno 17320 bound_to 7965
  145.3079  139.1828  143.4654 LP  0  0  0  0  0  0  0  0  0  0  0  0  # atno 17321 bound_to 7965
  140.0771  144.5731  150.7149 LP  0  0  0  0  0  0  0  0  0  0  0  0  # atno 17342 bound_to 10162
  140.7180  143.2562  151.4371 LP  0  0  0  0  0  0  0  0  0  0  0  0  # atno 17343 bound_to 10162
  157.6041  131.0940  150.8910 LP  0  0  0  0  0  0  0  0  0  0  0  0  # atno 17370 bound_to 10713
  156.9061  130.5264  149.5281 LP  0  0  0  0  0  0  0  0  0  0  0  0  # atno 17371 bound_to 10713
  140.0916  134.5593  155.8439 LP  0  0  0  0  0  0  0  0  0  0  0  0  # atno 17394 bound_to 11000
  141.2079  133.6669  156.6338 LP  0  0  0  0  0  0  0  0  0  0  0  0  # atno 17395 bound_to 11000

$$$$
