AV-unprocessed.smi:2032|AV-procd|sdf|8249|dock5
  -GOLD-   2272010523D 1   1.00000     0.00000
 Structure written by MMmdl.
 41 42  0  0  0  0  0  0  0  0  2 V2000
  153.4398  141.7640  161.5205 C   0  0  0  0  0  0  0  0  0  0  0  0
  152.8899  142.0773  160.1248 C   0  0  1  0  0  0  0  0  0  0  0  0
  152.2712  140.8371  159.4551 C   0  0  0  0  0  0  0  0  0  0  0  0
  151.6658  141.1346  158.1538 N   0  0  0  0  0  0  0  0  0  0  0  0
  151.0944  139.9316  157.5030 C   0  0  2  0  0  0  0  0  0  0  0  0
  150.9769  140.0823  155.9645 C   0  0  0  0  0  0  0  0  0  0  0  0
  149.7055  139.5237  158.0779 C   0  0  0  0  0  0  0  0  0  0  0  0
  149.7132  138.2447  158.7849 N   0  0  0  0  0  0  0  0  0  0  0  0
  149.0194  137.1505  158.4408 C   0  0  0  0  0  0  0  0  0  0  0  0
  148.3018  137.1664  157.4380 O   0  0  0  0  0  0  0  0  0  0  0  0
  149.1967  136.1078  159.2839 N   0  5  0  0  0  0  0  0  0  0  0  0
  148.4195  135.9822  160.3718 C   0  0  0  0  0  0  0  0  0  0  0  0
  148.0227  137.0254  161.1097 N   0  0  0  0  0  0  0  0  0  0  0  0
  147.2113  136.6665  162.1874 C   0  0  0  0  0  0  0  0  0  0  0  0
  146.9770  135.3193  162.2669 C   0  0  0  0  0  0  0  0  0  0  0  0
  147.7749  134.4557  160.9835 S   0  0  0  0  0  0  0  0  0  0  0  0
  150.6742  142.1978  158.3524 C   0  0  0  0  0  0  0  0  0  0  0  0
  151.2444  143.4505  159.0470 C   0  0  2  0  0  0  0  0  0  0  0  0
  152.1511  144.2933  158.1331 C   0  0  0  0  0  0  0  0  0  0  0  0
  151.8996  143.0907  160.2609 O   0  0  0  0  0  0  0  0  0  0  0  0
  154.2154  140.9990  161.4750 H   0  0  0  0  0  0  0  0  0  0  0  0
  152.6524  141.4040  162.1834 H   0  0  0  0  0  0  0  0  0  0  0  0
  153.8771  142.6531  161.9752 H   0  0  0  0  0  0  0  0  0  0  0  0
  153.7103  142.4500  159.5113 H   0  0  0  0  0  0  0  0  0  0  0  0
  153.0695  140.1053  159.3489 H   0  0  0  0  0  0  0  0  0  0  0  0
  151.5236  140.3962  160.1166 H   0  0  0  0  0  0  0  0  0  0  0  0
  151.7755  139.0996  157.6871 H   0  0  0  0  0  0  0  0  0  0  0  0
  150.5042  139.2204  155.4950 H   0  0  0  0  0  0  0  0  0  0  0  0
  151.9493  140.1646  155.4812 H   0  0  0  0  0  0  0  0  0  0  0  0
  150.3899  140.9619  155.6985 H   0  0  0  0  0  0  0  0  0  0  0  0
  149.3205  140.2615  158.7803 H   0  0  0  0  0  0  0  0  0  0  0  0
  148.9760  139.4566  157.2705 H   0  0  0  0  0  0  0  0  0  0  0  0
  150.2902  138.1852  159.6108 H   0  0  0  0  0  0  0  0  0  0  0  0
  146.8421  137.4373  162.8476 H   0  0  0  0  0  0  0  0  0  0  0  0
  146.3864  134.7850  162.9957 H   0  0  0  0  0  0  0  0  0  0  0  0
  150.2539  142.5237  157.4036 H   0  0  0  0  0  0  0  0  0  0  0  0
  149.8437  141.8106  158.9449 H   0  0  0  0  0  0  0  0  0  0  0  0
  150.4050  144.0853  159.3313 H   0  0  0  0  0  0  0  0  0  0  0  0
  151.5959  144.6605  157.2697 H   0  0  0  0  0  0  0  0  0  0  0  0
  152.9979  143.7217  157.7537 H   0  0  0  0  0  0  0  0  0  0  0  0
  152.5440  145.1594  158.6662 H   0  0  0  0  0  0  0  0  0  0  0  0
  1  2  1  0  0  0  0
  1 21  1  0  0  0  0
  1 22  1  0  0  0  0
  1 23  1  0  0  0  0
  2 20  1  0  0  0  0
  2  3  1  0  0  0  0
  2 24  1  0  0  0  0
  3  4  1  0  0  0  0
  3 25  1  0  0  0  0
  3 26  1  0  0  0  0
  4  5  1  0  0  0  0
  4 17  1  0  0  0  0
  5  6  1  0  0  0  0
  5  7  1  0  0  0  0
  5 27  1  0  0  0  0
  6 28  1  0  0  0  0
  6 29  1  0  0  0  0
  6 30  1  0  0  0  0
  7  8  1  0  0  0  0
  7 31  1  0  0  0  0
  7 32  1  0  0  0  0
  8  9  1  0  0  0  0
  8 33  1  0  0  0  0
  9 10  2  0  0  0  0
  9 11  1  0  0  0  0
 11 12  1  0  0  0  0
 12 16  1  0  0  0  0
 12 13  2  0  0  0  0
 13 14  1  0  0  0  0
 14 15  2  0  0  0  0
 14 34  1  0  0  0  0
 15 16  1  0  0  0  0
 15 35  1  0  0  0  0
 17 18  1  0  0  0  0
 17 36  1  0  0  0  0
 17 37  1  0  0  0  0
 18 19  1  0  0  0  0
 18 20  1  0  0  0  0
 18 38  1  0  0  0  0
 19 39  1  0  0  0  0
 19 40  1  0  0  0  0
 19 41  1  0  0  0  0
M  CHG  1  11  -1
M  END
> <s_m_source_file>
AV-unprocessed.smi

> <i_m_source_file_index>
2032

> <i_lp_mmshare_version>
43012

> <i_f3d_flags>
0

> <s_epik_input>
W0NIM11bQ0BASF0xW0NIMl1OKFtDSDJdW0NASF0oTzEpW0NIM10pW0NASF0oW0NIM10pW0NIMl1bTkhdQyg9TylbTkhdYzJuW2NIXVtjSF1zMg==

> <s_epik_cmdline>
J2VwaWtfcHl0aG9uJywgJy1waCcsICc3LjAnLCAnLXRuJywgJzgnLCAnLW1hJywgJzIwMCcsICctbWV0YWxfYmluZGluZycsICctaW1hZScsICc8aW5maWxlLm1hZT4nLCAnLW9tYWUnLCAnPG91dGZpbGUubWFlPic=

> <r_lp_tautomer_probability>
0.999

> <r_epik_Ionization_Penalty>
7.22375

> <r_epik_Ionization_Penalty_Charging>
5.82415

> <r_epik_Ionization_Penalty_Neutral>
1.39959

> <r_epik_State_Penalty>
6.03347

> <r_epik_Charging_Adjusted_Penalty>
11.8576

> <i_epik_Tot_Q>
-1

> <i_epik_Tot_abs_Q>
1

> <r_epik_Metal_State_Penalty>
2.01024

> <b_epik_Metal_Only>
1

> <s_lp_Force_Field>
OPLS_2005

> <r_lp_Energy>
25.9518

> <b_lp_Chiralities_Consistent>
1

> <s_lp_Variant>
AV-unprocessed.smi:2032-19

> <Gold.Version>
5.8.1

> <Gold.Id.Protein>
6NUR|6NUR_protein|mol2

> <Gold.PLP.Fitness>
46.9629

> <Gold.PLP.PLP>
-40.7762

> <Gold.PLP.part.hbond>
-3.0000

> <Gold.PLP.part.metal>
0.0000

> <Gold.PLP.part.buried>
-5.5759

> <Gold.PLP.part.nonpolar>
-32.9643

> <Gold.PLP.part.repulsive>
0.2543

> <Gold.PLP.ligand.clash>
0.0000

> <Gold.PLP.ligand.torsion>
2.1605

> <Gold.PLP.Chemscore.Hbond>
3.4784

> <Gold.PLP.Chemscore.CHOScore>
0.0000

> <Gold.PLP.Chemscore.Metal>
0.0000

> <Gold.Chemscore.Hbonds>
donor molecule, donor type, donor heavy atom, donor atom, acceptor molecule, acceptor atom, score
      P1  H  6896  6908       L1    11  1.69
      P1  H  6931  6943       L1    13  1.00
      P1  H  6934  6947       L1    13  0.36

> <Gold.PLP.Chemscore.Internal.Correction>
0.0725

> <Gold.Rescore>
     Score         DG    S(hbond)    S(metal)    S(lipo)     H(rot)  DE(clash)    DE(int)     intcor
     16.57     -18.92       1.78        0.00      97.97       1.54       0.05       2.30       ----

> <Gold.Chemscore.Fitness>
16.5701

> <Gold.Chemscore.DG>
-18.9238

> <Gold.Chemscore.ZeroCoef>
-5.4800

> <Gold.Chemscore.Hbond>
1.7759

> <Gold.Chemscore.Metal>
0.0000

> <Gold.Chemscore.Lipo>
97.9700

> <Gold.Chemscore.Internal_Hbond>
0.0000

> <Gold.Chemscore.DEClash>
0.0515

> <Gold.Chemscore.DEInternal>
2.3023

> <Gold.Chemscore.Rot>
1.5431

> <Gold.Chemscore.Internal.Correction>
   9.000000E+99

> <Gold.Chemscore.Hbonds>
donor molecule, donor type, donor heavy atom, donor atom, acceptor molecule, acceptor atom, score
      P1  H  6896  6908       L1    11  0.33
      P1  H  6931  6943       L1    13  0.25
      P1  H  6934  6947       L1    13  0.04

> <Gold.Chemscore.Hbond.Weighted>
-5.9316

> <Gold.Chemscore.Metal.Weighted>
-0.0000

> <Gold.Chemscore.Lipo.Weighted>
-11.4625

> <Gold.Chemscore.Internal_Hbond.Weighted>
0.0000

> <Gold.Chemscore.DEClash.Weighted>
0.0515

> <Gold.Chemscore.DEInternal.Weighted>
2.3023

> <Gold.Chemscore.Rot.Weighted>
3.9503

> <Gold.Chemscore.Internal.Correction.Weighted>
   9.000000E+99

> <Gold.Protein.RotatedTorsions>
[ 6907 6896 6895 6894 ] final -176.69 input  -60.11 | X-H torsion
[ 7974 7965 7964 7962 ] final   58.67 input  175.53 | X-H torsion
[ 8008 7997 7996 7995 ] final -177.74 input   59.86 | X-H torsion
[ 10167 10162 10161 10158 ] final   76.14 input  -65.29 | X-H torsion
[ 10718 10713 10712 10709 ] final   22.33 input   66.30 | X-H torsion
[ 10763 10752 10751 10750 ] final   28.60 input  -60.55 | X-H torsion
[ 11005 11000 10999 10996 ] final -124.24 input  -57.11 | X-H torsion

> <Gold.Protein.ActiveResidues>
 VAL166  LYS551  ARG553  GLY616  TRP617  ASP618  TYR619  PRO620  LYS621  CYS622 
 ASP623  PHE694  ASN695  SER759  ASP760  ASP761  ALA762  ILE779  LEU786  VAL792 
 PHE793  MET794  SER795  GLU796  ALA797  LYS798  CYS799  TRP800  GLU811  SER814 

> <Gold.Protein.RotatedAtoms>
  151.6088  133.3349  159.3062 H   0  0  0  0  0  0  0  0  0  0  0  0  # atno 6907 bound_to 6896
  150.8168  134.7357  159.6748 H   0  0  0  0  0  0  0  0  0  0  0  0  # atno 6908 bound_to 6896
  152.4263  134.5867  160.0014 H   0  0  0  0  0  0  0  0  0  0  0  0  # atno 6909 bound_to 6896
  145.9156  139.3688  143.0509 H   0  0  0  0  0  0  0  0  0  0  0  0  # atno 7974 bound_to 7965
  156.0105  140.1239  157.0458 H   0  0  0  0  0  0  0  0  0  0  0  0  # atno 8008 bound_to 7997
  154.4274  140.1088  156.5892 H   0  0  0  0  0  0  0  0  0  0  0  0  # atno 8009 bound_to 7997
  155.6086  140.3471  155.4618 H   0  0  0  0  0  0  0  0  0  0  0  0  # atno 8010 bound_to 7997
  139.9955  144.5725  150.7782 H   0  0  0  0  0  0  0  0  0  0  0  0  # atno 10167 bound_to 10162
  157.1509  130.6674  149.6011 H   0  0  0  0  0  0  0  0  0  0  0  0  # atno 10718 bound_to 10713
  153.0482  135.6509  154.0762 H   0  0  0  0  0  0  0  0  0  0  0  0  # atno 10763 bound_to 10752
  154.0456  135.2900  155.3350 H   0  0  0  0  0  0  0  0  0  0  0  0  # atno 10764 bound_to 10752
  154.6753  135.5340  153.8258 H   0  0  0  0  0  0  0  0  0  0  0  0  # atno 10765 bound_to 10752
  140.9856  134.0611  157.3714 H   0  0  0  0  0  0  0  0  0  0  0  0  # atno 11005 bound_to 11000
  145.8615  140.9472  143.0697 LP  0  0  0  0  0  0  0  0  0  0  0  0  # atno 17320 bound_to 7965
  144.6747  140.0537  143.7478 LP  0  0  0  0  0  0  0  0  0  0  0  0  # atno 17321 bound_to 7965
  140.7439  143.2852  151.3483 LP  0  0  0  0  0  0  0  0  0  0  0  0  # atno 17342 bound_to 10162
  139.6309  144.0722  152.2475 LP  0  0  0  0  0  0  0  0  0  0  0  0  # atno 17343 bound_to 10162
  155.9771  130.4745  150.6570 LP  0  0  0  0  0  0  0  0  0  0  0  0  # atno 17370 bound_to 10713
  157.4221  131.0838  151.1120 LP  0  0  0  0  0  0  0  0  0  0  0  0  # atno 17371 bound_to 10713
  139.8969  135.0148  156.7075 LP  0  0  0  0  0  0  0  0  0  0  0  0  # atno 17394 bound_to 11000
  140.7119  133.9216  155.8090 LP  0  0  0  0  0  0  0  0  0  0  0  0  # atno 17395 bound_to 11000

$$$$
