AV-unprocessed.smi:675|AV-procd|sdf|3304|dock6
  -GOLD-   22720 0263D 1   1.00000     0.00000
 Structure written by MMmdl.
 29 30  0  0  0  0  0  0  0  0  1 V2000
  147.0013  139.1868  152.5639 O   0  0  0  0  0  0  0  0  0  0  0  0
  147.8607  139.6326  153.3218 C   0  0  0  0  0  0  0  0  0  0  0  0
  148.9761  138.8535  153.6443 N   0  0  0  0  0  0  0  0  0  0  0  0
  150.0199  139.2373  154.4872 C   0  0  0  0  0  0  0  0  0  0  0  0
  150.9486  138.4592  154.7033 O   0  0  0  0  0  0  0  0  0  0  0  0
  149.9368  140.5302  155.0540 N   0  0  0  0  0  0  0  0  0  0  0  0
  150.9847  140.9538  155.9513 C   0  0  0  0  0  0  0  0  0  0  0  0
  150.4481  141.5813  157.2568 C   0  0  1  0  0  0  0  0  0  0  0  0
  149.4790  140.7170  157.8197 O   0  0  0  0  0  0  0  0  0  0  0  0
  151.5913  141.8672  158.2302 C   0  0  0  0  0  0  0  0  0  0  0  0
  151.8709  143.1969  158.6246 C   0  0  0  0  0  0  0  0  0  0  0  0
  152.9149  143.4739  159.5272 C   0  0  0  0  0  0  0  0  0  0  0  0
  153.6884  142.4231  160.0517 C   0  0  0  0  0  0  0  0  0  0  0  0
  153.4116  141.0955  159.6772 C   0  0  0  0  0  0  0  0  0  0  0  0
  152.3670  140.8118  158.7746 C   0  0  0  0  0  0  0  0  0  0  0  0
  152.0566  139.1587  158.3710 Cl  0  0  0  0  0  0  0  0  0  0  0  0
  148.8442  141.3343  154.7678 C   0  0  0  0  0  0  0  0  0  0  0  0
  147.8337  140.9526  153.9503 C   0  0  0  0  0  0  0  0  0  0  0  0
  146.5050  142.0132  153.6447 Cl  0  0  0  0  0  0  0  0  0  0  0  0
  149.0302  137.9328  153.2337 H   0  0  0  0  0  0  0  0  0  0  0  0
  151.6885  140.1337  156.1105 H   0  0  0  0  0  0  0  0  0  0  0  0
  151.5371  141.6995  155.3763 H   0  0  0  0  0  0  0  0  0  0  0  0
  149.9301  142.5143  157.0364 H   0  0  0  0  0  0  0  0  0  0  0  0
  148.8595  141.2380  158.3070 H   0  0  0  0  0  0  0  0  0  0  0  0
  151.2828  144.0179  158.2413 H   0  0  0  0  0  0  0  0  0  0  0  0
  153.1199  144.4935  159.8190 H   0  0  0  0  0  0  0  0  0  0  0  0
  154.4892  142.6341  160.7451 H   0  0  0  0  0  0  0  0  0  0  0  0
  154.0018  140.2902  160.0893 H   0  0  0  0  0  0  0  0  0  0  0  0
  148.7909  142.3143  155.2208 H   0  0  0  0  0  0  0  0  0  0  0  0
  1  2  2  0  0  0  0
  2 18  1  0  0  0  0
  2  3  1  0  0  0  0
  3 20  1  0  0  0  0
  3  4  1  0  0  0  0
  4  5  2  0  0  0  0
  4  6  1  0  0  0  0
  6  7  1  0  0  0  0
  6 17  1  0  0  0  0
  7  8  1  0  0  0  0
  7 21  1  0  0  0  0
  7 22  1  0  0  0  0
  8  9  1  0  0  0  0
  8 10  1  0  0  0  0
  8 23  1  0  0  0  0
  9 24  1  0  0  0  0
 10 15  1  0  0  0  0
 10 11  2  0  0  0  0
 11 12  1  0  0  0  0
 11 25  1  0  0  0  0
 12 13  2  0  0  0  0
 12 26  1  0  0  0  0
 13 14  1  0  0  0  0
 13 27  1  0  0  0  0
 14 15  2  0  0  0  0
 14 28  1  0  0  0  0
 15 16  1  0  0  0  0
 17 18  2  0  0  0  0
 17 29  1  0  0  0  0
 18 19  1  0  0  0  0
M  END
> <s_m_source_file>
AV-unprocessed.smi

> <i_m_source_file_index>
675

> <i_lp_mmshare_version>
43012

> <i_f3d_flags>
0

> <s_epik_input>
Tz1jMVtuSF1jKD1PKW4oW2NIXWMxQ2wpW0NIMl1bQ0BIXShbT0hdKWMyW2NIXVtjSF1bY0hdW2NIXWMyQ2w=

> <s_epik_cmdline>
J2VwaWtfcHl0aG9uJywgJy1waCcsICc3LjAnLCAnLXRuJywgJzgnLCAnLW1hJywgJzIwMCcsICctbWV0YWxfYmluZGluZycsICctaW1hZScsICc8aW5maWxlLm1hZT4nLCAnLW9tYWUnLCAnPG91dGZpbGUubWFlPic=

> <r_lp_tautomer_probability>
0.999537

> <r_epik_Ionization_Penalty>
0.029206

> <r_epik_Ionization_Penalty_Charging>
0.0292057

> <r_epik_Ionization_Penalty_Neutral>
2.68278e-07

> <r_epik_State_Penalty>
0.0240115

> <r_epik_Charging_Adjusted_Penalty>
0.0532172

> <i_epik_Tot_Q>
0

> <i_epik_Tot_abs_Q>
0

> <r_epik_Metal_State_Penalty>
2.21956

> <b_epik_Metal_Only>
0

> <s_lp_Force_Field>
OPLS_2005

> <r_lp_Energy>
14.2263

> <b_lp_Chiralities_Consistent>
1

> <s_lp_Variant>
AV-unprocessed.smi:675-2

> <Gold.Version>
5.8.1

> <Gold.Id.Protein>
6NUR|6NUR_protein|mol2

> <Gold.PLP.Fitness>
45.1566

> <Gold.PLP.PLP>
-40.5949

> <Gold.PLP.part.hbond>
-1.5724

> <Gold.PLP.part.metal>
0.0000

> <Gold.PLP.part.buried>
-2.5471

> <Gold.PLP.part.nonpolar>
-36.8330

> <Gold.PLP.part.repulsive>
1.2970

> <Gold.PLP.ligand.clash>
0.0000

> <Gold.PLP.ligand.torsion>
0.2020

> <Gold.PLP.Chemscore.Hbond>
0.6500

> <Gold.PLP.Chemscore.CHOScore>
1.0000

> <Gold.PLP.Chemscore.Metal>
0.0000

> <Gold.Chemscore.Hbonds>
donor molecule, donor type, donor heavy atom, donor atom, acceptor molecule, acceptor atom, score
      L1  H     3    20       P1  7948  0.67
      L1  C    17    29       P1  8028  1.00

> <Gold.PLP.Chemscore.Internal.Correction>
0.0157

> <Gold.Rescore>
     Score         DG    S(hbond)    S(metal)    S(lipo)     H(rot)  DE(clash)    DE(int)     intcor
     13.97     -14.34       0.67        0.00     104.28       2.18       0.15       0.22       ----

> <Gold.Chemscore.Fitness>
13.9705

> <Gold.Chemscore.DG>
-14.3421

> <Gold.Chemscore.ZeroCoef>
-5.4800

> <Gold.Chemscore.Hbond>
0.6695

> <Gold.Chemscore.Metal>
0.0000

> <Gold.Chemscore.Lipo>
104.2780

> <Gold.Chemscore.Internal_Hbond>
0.0000

> <Gold.Chemscore.DEClash>
0.1524

> <Gold.Chemscore.DEInternal>
0.2192

> <Gold.Chemscore.Rot>
2.1775

> <Gold.Chemscore.Internal.Correction>
   9.000000E+99

> <Gold.Chemscore.Hbonds>
donor molecule, donor type, donor heavy atom, donor atom, acceptor molecule, acceptor atom, score
      L1  H     3    20       P1  7948  0.67

> <Gold.Chemscore.Hbond.Weighted>
-2.2360

> <Gold.Chemscore.Metal.Weighted>
-0.0000

> <Gold.Chemscore.Lipo.Weighted>
-12.2005

> <Gold.Chemscore.Internal_Hbond.Weighted>
0.0000

> <Gold.Chemscore.DEClash.Weighted>
0.1524

> <Gold.Chemscore.DEInternal.Weighted>
0.2192

> <Gold.Chemscore.Rot.Weighted>
5.5745

> <Gold.Chemscore.Internal.Correction.Weighted>
   9.000000E+99

> <Gold.Protein.RotatedTorsions>
[ 6907 6896 6895 6894 ] final -124.45 input  -60.11 | X-H torsion
[ 7974 7965 7964 7962 ] final -139.72 input  175.53 | X-H torsion
[ 8008 7997 7996 7995 ] final  173.22 input   59.86 | X-H torsion
[ 10167 10162 10161 10158 ] final  -58.03 input  -65.29 | X-H torsion
[ 10718 10713 10712 10709 ] final  -44.28 input   66.30 | X-H torsion
[ 10763 10752 10751 10750 ] final  101.20 input  -60.55 | X-H torsion
[ 11005 11000 10999 10996 ] final -103.44 input  -57.11 | X-H torsion

> <Gold.Protein.ActiveResidues>
 VAL166  LYS551  ARG553  GLY616  TRP617  ASP618  TYR619  PRO620  LYS621  CYS622 
 ASP623  PHE694  ASN695  SER759  ASP760  ASP761  ALA762  ILE779  LEU786  VAL792 
 PHE793  MET794  SER795  GLU796  ALA797  LYS798  CYS799  TRP800  GLU811  SER814 

> <Gold.Protein.RotatedAtoms>
  150.8769  133.7426  159.2943 H   0  0  0  0  0  0  0  0  0  0  0  0  # atno 6907 bound_to 6896
  151.5020  135.1060  159.9841 H   0  0  0  0  0  0  0  0  0  0  0  0  # atno 6908 bound_to 6896
  152.4734  133.8035  159.7021 H   0  0  0  0  0  0  0  0  0  0  0  0  # atno 6909 bound_to 6896
  144.8654  140.6285  143.5301 H   0  0  0  0  0  0  0  0  0  0  0  0  # atno 7974 bound_to 7965
  156.1097  140.1465  156.9356 H   0  0  0  0  0  0  0  0  0  0  0  0  # atno 8008 bound_to 7997
  154.4758  140.0895  156.7302 H   0  0  0  0  0  0  0  0  0  0  0  0  # atno 8009 bound_to 7997
  155.4618  140.3438  155.4316 H   0  0  0  0  0  0  0  0  0  0  0  0  # atno 8010 bound_to 7997
  140.6222  143.2424  151.5452 H   0  0  0  0  0  0  0  0  0  0  0  0  # atno 10167 bound_to 10162
  156.2402  130.4179  149.8770 H   0  0  0  0  0  0  0  0  0  0  0  0  # atno 10718 bound_to 10713
  153.3236  135.4053  155.1437 H   0  0  0  0  0  0  0  0  0  0  0  0  # atno 10763 bound_to 10752
  154.8606  135.3593  154.5563 H   0  0  0  0  0  0  0  0  0  0  0  0  # atno 10764 bound_to 10752
  153.5998  135.7071  153.5448 H   0  0  0  0  0  0  0  0  0  0  0  0  # atno 10765 bound_to 10752
  141.1145  133.8640  157.1486 H   0  0  0  0  0  0  0  0  0  0  0  0  # atno 11005 bound_to 11000
  145.4232  139.1560  143.4063 LP  0  0  0  0  0  0  0  0  0  0  0  0  # atno 17320 bound_to 7965
  146.2892  140.4343  142.8746 LP  0  0  0  0  0  0  0  0  0  0  0  0  # atno 17321 bound_to 7965
  139.5448  144.2549  152.1422 LP  0  0  0  0  0  0  0  0  0  0  0  0  # atno 17342 bound_to 10162
  140.1772  144.4879  150.6548 LP  0  0  0  0  0  0  0  0  0  0  0  0  # atno 17343 bound_to 10162
  156.6354  130.8683  151.3503 LP  0  0  0  0  0  0  0  0  0  0  0  0  # atno 17370 bound_to 10713
  157.7172  130.9512  150.1299 LP  0  0  0  0  0  0  0  0  0  0  0  0  # atno 17371 bound_to 10713
  140.0059  135.0008  157.0292 LP  0  0  0  0  0  0  0  0  0  0  0  0  # atno 17394 bound_to 11000
  140.4683  134.1413  155.7200 LP  0  0  0  0  0  0  0  0  0  0  0  0  # atno 17395 bound_to 11000

$$$$
