AV-unprocessed.smi:183|AV-procd|sdf|1458|dock5
  -GOLD-   2262019263D 1   1.00000     0.00000
 Structure written by MMmdl.
 55 57  0  0  0  0  0  0  0  0  1 V2000
  151.4507  137.4982  154.9893 C   0  0  0  0  0  0  0  0  0  0  0  0
  151.1053  138.9227  155.4091 C   0  0  0  0  0  0  0  0  0  0  0  0
  150.3362  139.5977  154.7246 O   0  0  0  0  0  0  0  0  0  0  0  0
  151.6788  139.3646  156.5401 N   0  0  0  0  0  0  0  0  0  0  0  0
  151.4637  140.6875  157.1136 C   0  0  0  0  0  0  0  0  0  0  0  0
  151.7237  140.6917  158.6361 C   0  0  0  0  0  0  0  0  0  0  0  0
  152.3524  141.9237  159.1249 N   0  0  0  0  0  0  0  0  0  0  0  0
  153.3176  141.6398  160.0359 C   0  0  0  0  0  0  0  0  0  0  0  0
  153.3439  142.3995  161.1605 N   0  0  0  0  0  0  0  0  0  0  0  0
  154.3054  142.2214  162.0704 C   0  0  0  0  0  0  0  0  0  0  0  0
  155.3287  141.3661  162.0460 N   0  0  0  0  0  0  0  0  0  0  0  0
  155.3097  140.6034  160.9156 C   0  0  0  0  0  0  0  0  0  0  0  0
  154.3405  140.6602  159.8747 C   0  0  0  0  0  0  0  0  0  0  0  0
  154.6502  139.7246  158.8937 N   0  0  0  0  0  0  0  0  0  0  0  0
  155.7439  139.1590  159.3233 C   0  0  0  0  0  0  0  0  0  0  0  0
  156.2265  139.6475  160.5157 N   0  0  0  0  0  0  0  0  0  0  0  0
  157.4373  139.2279  161.2022 C   0  0  0  0  0  0  0  0  0  0  0  0
  158.5580  140.2999  161.2529 C   0  0  2  0  0  0  0  0  0  0  0  0
  158.0825  141.3276  162.1057 O   0  0  0  0  0  0  0  0  0  0  0  0
  158.9329  140.9132  159.9105 C   0  0  0  0  0  0  0  0  0  0  0  0
  160.3029  141.5241  160.1877 C   0  0  0  0  0  0  0  0  0  0  0  0
  160.9026  140.6948  161.1778 O   0  0  0  0  0  0  0  0  0  0  0  0
  159.9385  139.8048  161.7364 C   0  0  1  0  0  0  0  0  0  0  0  0
  160.1227  139.6635  163.2550 C   0  0  0  0  0  0  0  0  0  0  0  0
  151.5419  143.1376  159.3195 C   0  0  0  0  0  0  0  0  0  0  0  0
  150.5735  143.3697  158.1446 C   0  0  0  0  0  0  0  0  0  0  0  0
  152.4094  144.4024  159.5016 C   0  0  0  0  0  0  0  0  0  0  0  0
  151.1340  136.7886  155.7541 H   0  0  0  0  0  0  0  0  0  0  0  0
  152.5260  137.3937  154.8433 H   0  0  0  0  0  0  0  0  0  0  0  0
  150.9518  137.2382  154.0551 H   0  0  0  0  0  0  0  0  0  0  0  0
  152.2980  138.7416  157.0383 H   0  0  0  0  0  0  0  0  0  0  0  0
  152.1254  141.4007  156.6221 H   0  0  0  0  0  0  0  0  0  0  0  0
  150.4518  141.0104  156.8717 H   0  0  0  0  0  0  0  0  0  0  0  0
  150.7845  140.5380  159.1705 H   0  0  0  0  0  0  0  0  0  0  0  0
  152.3340  139.8319  158.9113 H   0  0  0  0  0  0  0  0  0  0  0  0
  154.2550  142.8656  162.9356 H   0  0  0  0  0  0  0  0  0  0  0  0
  156.2449  138.3802  158.7670 H   0  0  0  0  0  0  0  0  0  0  0  0
  157.1639  138.9273  162.2146 H   0  0  0  0  0  0  0  0  0  0  0  0
  157.8058  138.3272  160.7092 H   0  0  0  0  0  0  0  0  0  0  0  0
  158.4207  142.1529  161.7932 H   0  0  0  0  0  0  0  0  0  0  0  0
  159.0525  140.1427  159.1498 H   0  0  0  0  0  0  0  0  0  0  0  0
  158.2061  141.6368  159.5396 H   0  0  0  0  0  0  0  0  0  0  0  0
  160.9205  141.5844  159.2913 H   0  0  0  0  0  0  0  0  0  0  0  0
  160.1976  142.5306  160.5941 H   0  0  0  0  0  0  0  0  0  0  0  0
  160.1569  138.8424  161.2761 H   0  0  0  0  0  0  0  0  0  0  0  0
  159.3806  138.9859  163.6777 H   0  0  0  0  0  0  0  0  0  0  0  0
  160.0330  140.6232  163.7644 H   0  0  0  0  0  0  0  0  0  0  0  0
  161.1087  139.2613  163.4875 H   0  0  0  0  0  0  0  0  0  0  0  0
  150.9381  143.0059  160.2171 H   0  0  0  0  0  0  0  0  0  0  0  0
  150.0106  144.2939  158.2784 H   0  0  0  0  0  0  0  0  0  0  0  0
  149.8405  142.5682  158.0562 H   0  0  0  0  0  0  0  0  0  0  0  0
  151.1092  143.4431  157.1975 H   0  0  0  0  0  0  0  0  0  0  0  0
  151.7856  145.2900  159.6092 H   0  0  0  0  0  0  0  0  0  0  0  0
  153.0611  144.5605  158.6418 H   0  0  0  0  0  0  0  0  0  0  0  0
  153.0386  144.3554  160.3897 H   0  0  0  0  0  0  0  0  0  0  0  0
  1  2  1  0  0  0  0
  1 28  1  0  0  0  0
  1 29  1  0  0  0  0
  1 30  1  0  0  0  0
  2  3  2  0  0  0  0
  2  4  1  0  0  0  0
  4  5  1  0  0  0  0
  4 31  1  0  0  0  0
  5  6  1  0  0  0  0
  5 32  1  0  0  0  0
  5 33  1  0  0  0  0
  6  7  1  0  0  0  0
  6 34  1  0  0  0  0
  6 35  1  0  0  0  0
  7  8  1  0  0  0  0
  7 25  1  0  0  0  0
  8 13  1  0  0  0  0
  8  9  2  0  0  0  0
  9 10  1  0  0  0  0
 10 11  2  0  0  0  0
 10 36  1  0  0  0  0
 11 12  1  0  0  0  0
 12 16  1  0  0  0  0
 12 13  2  0  0  0  0
 13 14  1  0  0  0  0
 14 15  2  0  0  0  0
 15 16  1  0  0  0  0
 15 37  1  0  0  0  0
 16 17  1  0  0  0  0
 17 18  1  0  0  0  0
 17 38  1  0  0  0  0
 17 39  1  0  0  0  0
 18 23  1  0  0  0  0
 18 19  1  0  0  0  0
 18 20  1  0  0  0  0
 19 40  1  0  0  0  0
 20 21  1  0  0  0  0
 20 41  1  0  0  0  0
 20 42  1  0  0  0  0
 21 22  1  0  0  0  0
 21 43  1  0  0  0  0
 21 44  1  0  0  0  0
 22 23  1  0  0  0  0
 23 24  1  0  0  0  0
 23 45  1  0  0  0  0
 24 46  1  0  0  0  0
 24 47  1  0  0  0  0
 24 48  1  0  0  0  0
 25 26  1  0  0  0  0
 25 27  1  0  0  0  0
 25 49  1  0  0  0  0
 26 50  1  0  0  0  0
 26 51  1  0  0  0  0
 26 52  1  0  0  0  0
 27 53  1  0  0  0  0
 27 54  1  0  0  0  0
 27 55  1  0  0  0  0
M  END
> <s_m_source_file>
AV-unprocessed.smi

> <i_m_source_file_index>
183

> <i_lp_mmshare_version>
43012

> <i_f3d_flags>
0

> <s_epik_input>
W0NIM11DKD1PKVtOSF1bQ0gyXVtDSDJdTihbQ0hdKFtDSDNdKVtDSDNdKWMobltjSF1uMSljKGMxMiluW2NIXW4yW0NIMl1bQ0BAXTMoW09IXSlbQ0gyXVtDSDJdT1tDQEhdM1tDSDNd

> <s_epik_cmdline>
J2VwaWtfcHl0aG9uJywgJy1waCcsICc3LjAnLCAnLXRuJywgJzgnLCAnLW1hJywgJzIwMCcsICctbWV0YWxfYmluZGluZycsICctaW1hZScsICc8aW5maWxlLm1hZT4nLCAnLW9tYWUnLCAnPG91dGZpbGUubWFlPic=

> <r_lp_tautomer_probability>
1

> <r_epik_Ionization_Penalty>
0.00156158

> <r_epik_Ionization_Penalty_Charging>
0

> <r_epik_Ionization_Penalty_Neutral>
0.00156158

> <r_epik_State_Penalty>
0.000865808

> <r_epik_Charging_Adjusted_Penalty>
0.000865808

> <i_epik_Tot_Q>
0

> <i_epik_Tot_abs_Q>
0

> <r_epik_Metal_State_Penalty>
-0

> <b_epik_Metal_Only>
0

> <s_lp_Force_Field>
OPLS_2005

> <r_lp_Energy>
32.608

> <b_lp_Chiralities_Consistent>
1

> <s_lp_Variant>
AV-unprocessed.smi:183-2

> <Gold.Version>
5.8.1

> <Gold.Id.Protein>
6NUR|6NUR_protein|mol2

> <Gold.PLP.Fitness>
45.5444

> <Gold.PLP.PLP>
-40.9880

> <Gold.PLP.part.hbond>
-3.5765

> <Gold.PLP.part.metal>
0.0000

> <Gold.PLP.part.buried>
-5.4435

> <Gold.PLP.part.nonpolar>
-31.6477

> <Gold.PLP.part.repulsive>
0.3003

> <Gold.PLP.ligand.clash>
0.0000

> <Gold.PLP.ligand.torsion>
1.3239

> <Gold.PLP.Chemscore.Hbond>
2.0000

> <Gold.PLP.Chemscore.CHOScore>
0.0000

> <Gold.PLP.Chemscore.Metal>
0.0000

> <Gold.Chemscore.Hbonds>
donor molecule, donor type, donor heavy atom, donor atom, acceptor molecule, acceptor atom, score
      P1  H  7989  7998       L1     3  0.60
      P1  H  7997  8009       L1    14  0.96

> <Gold.PLP.Chemscore.Internal.Correction>
1.2042

> <Gold.Rescore>
     Score         DG    S(hbond)    S(metal)    S(lipo)     H(rot)  DE(clash)    DE(int)     intcor
      7.85     -10.90       1.81        0.00      70.05       3.45       0.63       2.42       ----

> <Gold.Chemscore.Fitness>
7.8452

> <Gold.Chemscore.DG>
-10.8994

> <Gold.Chemscore.ZeroCoef>
-5.4800

> <Gold.Chemscore.Hbond>
1.8094

> <Gold.Chemscore.Metal>
0.0000

> <Gold.Chemscore.Lipo>
70.0470

> <Gold.Chemscore.Internal_Hbond>
0.0000

> <Gold.Chemscore.DEClash>
0.6296

> <Gold.Chemscore.DEInternal>
2.4246

> <Gold.Chemscore.Rot>
3.4451

> <Gold.Chemscore.Internal.Correction>
   9.000000E+99

> <Gold.Chemscore.Hbonds>
donor molecule, donor type, donor heavy atom, donor atom, acceptor molecule, acceptor atom, score
      P1  H  7989  7998       L1     3  0.30
      P1  H  7997  8009       L1    14  0.60

> <Gold.Chemscore.Hbond.Weighted>
-6.0433

> <Gold.Chemscore.Metal.Weighted>
-0.0000

> <Gold.Chemscore.Lipo.Weighted>
-8.1955

> <Gold.Chemscore.Internal_Hbond.Weighted>
0.0000

> <Gold.Chemscore.DEClash.Weighted>
0.6296

> <Gold.Chemscore.DEInternal.Weighted>
2.4246

> <Gold.Chemscore.Rot.Weighted>
8.8194

> <Gold.Chemscore.Internal.Correction.Weighted>
   9.000000E+99

> <Gold.Protein.RotatedTorsions>
[ 6907 6896 6895 6894 ] final   82.32 input  -60.11 | X-H torsion
[ 7974 7965 7964 7962 ] final -145.26 input  175.53 | X-H torsion
[ 8008 7997 7996 7995 ] final  139.39 input   59.86 | X-H torsion
[ 10167 10162 10161 10158 ] final -139.60 input  -65.29 | X-H torsion
[ 10718 10713 10712 10709 ] final  -32.76 input   66.30 | X-H torsion
[ 10763 10752 10751 10750 ] final -121.10 input  -60.55 | X-H torsion
[ 11005 11000 10999 10996 ] final   46.48 input  -57.11 | X-H torsion

> <Gold.Protein.ActiveResidues>
 VAL166  LYS551  ARG553  GLY616  TRP617  ASP618  TYR619  PRO620  LYS621  CYS622 
 ASP623  PHE694  ASN695  SER759  ASP760  ASP761  ALA762  ILE779  LEU786  VAL792 
 PHE793  MET794  SER795  GLU796  ALA797  LYS798  CYS799  TRP800  GLU811  SER814 

> <Gold.Protein.RotatedAtoms>
  152.5296  134.3067  159.9098 H   0  0  0  0  0  0  0  0  0  0  0  0  # atno 6907 bound_to 6896
  151.3017  133.4113  159.2648 H   0  0  0  0  0  0  0  0  0  0  0  0  # atno 6908 bound_to 6896
  151.0113  134.9415  159.8066 H   0  0  0  0  0  0  0  0  0  0  0  0  # atno 6909 bound_to 6896
  144.8240  140.5607  143.5559 H   0  0  0  0  0  0  0  0  0  0  0  0  # atno 7974 bound_to 7965
  156.2990  140.2369  156.4229 H   0  0  0  0  0  0  0  0  0  0  0  0  # atno 8008 bound_to 7997
  154.8339  140.0431  157.1516 H   0  0  0  0  0  0  0  0  0  0  0  0  # atno 8009 bound_to 7997
  154.9177  140.2999  155.5236 H   0  0  0  0  0  0  0  0  0  0  0  0  # atno 8010 bound_to 7997
  139.8363  143.7380  152.2664 H   0  0  0  0  0  0  0  0  0  0  0  0  # atno 10167 bound_to 10162
  156.3709  130.4339  149.7546 H   0  0  0  0  0  0  0  0  0  0  0  0  # atno 10718 bound_to 10713
  154.8660  135.4180  154.2566 H   0  0  0  0  0  0  0  0  0  0  0  0  # atno 10763 bound_to 10752
  153.3502  135.6998  153.6800 H   0  0  0  0  0  0  0  0  0  0  0  0  # atno 10764 bound_to 10752
  153.5743  135.3585  155.2823 H   0  0  0  0  0  0  0  0  0  0  0  0  # atno 10765 bound_to 10752
  140.1365  134.4638  155.8481 H   0  0  0  0  0  0  0  0  0  0  0  0  # atno 11005 bound_to 11000
  145.5041  139.1482  143.3641 LP  0  0  0  0  0  0  0  0  0  0  0  0  # atno 17320 bound_to 7965
  146.2545  140.5181  142.8879 LP  0  0  0  0  0  0  0  0  0  0  0  0  # atno 17321 bound_to 7965
  139.7603  144.7508  151.0373 LP  0  0  0  0  0  0  0  0  0  0  0  0  # atno 17342 bound_to 10162
  140.7802  143.4758  151.0084 LP  0  0  0  0  0  0  0  0  0  0  0  0  # atno 17343 bound_to 10162
  156.4673  130.7980  151.2999 LP  0  0  0  0  0  0  0  0  0  0  0  0  # atno 17370 bound_to 10713
  157.7484  131.0047  150.3085 LP  0  0  0  0  0  0  0  0  0  0  0  0  # atno 17371 bound_to 10713
  141.2179  133.6816  156.7167 LP  0  0  0  0  0  0  0  0  0  0  0  0  # atno 17394 bound_to 11000
  140.2776  134.8343  157.3904 LP  0  0  0  0  0  0  0  0  0  0  0  0  # atno 17395 bound_to 11000

$$$$
