AV-unprocessed.smi:3287|AV-procd|sdf|12598|dock5
  -GOLD-   2272018523D 1   1.00000     0.00000
 Structure written by MMmdl.
 43 44  0  0  0  0  0  0  0  0  2 V2000
  152.7874  142.8679  161.1393 C   0  0  0  0  0  0  0  0  0  0  0  0
  151.9359  142.6169  159.8840 C   0  0  2  0  0  0  0  0  0  0  0  0
  152.6239  141.6404  158.9101 C   0  0  0  0  0  0  0  0  0  0  0  0
  151.7304  141.3255  157.6997 C   0  0  0  0  0  0  0  0  0  0  0  0
  151.2901  142.6088  156.9654 C   0  0  1  0  0  0  0  0  0  0  0  0
  150.3669  142.3068  155.8492 N   0  3  0  0  0  0  0  0  0  0  0  0
  149.4776  141.1433  156.0564 C   0  0  0  0  0  0  0  0  0  0  0  0
  148.5907  140.8898  154.8247 C   0  0  2  0  0  0  0  0  0  0  0  0
  149.3498  141.1427  153.6582 O   0  0  0  0  0  0  0  0  0  0  0  0
  147.3300  141.7387  154.8694 C   0  0  0  0  0  0  0  0  0  0  0  0
  146.9833  142.5636  153.7789 C   0  0  0  0  0  0  0  0  0  0  0  0
  145.8034  143.3299  153.8614 C   0  0  0  0  0  0  0  0  0  0  0  0
  144.9819  143.3131  154.9325 N   0  0  0  0  0  0  0  0  0  0  0  0
  145.3164  142.5205  155.9729 C   0  0  0  0  0  0  0  0  0  0  0  0
  146.4739  141.7167  155.9919 C   0  0  0  0  0  0  0  0  0  0  0  0
  150.6094  143.5805  157.9504 C   0  0  0  0  0  0  0  0  0  0  0  0
  151.4961  143.9192  159.1676 C   0  0  2  0  0  0  0  0  0  0  0  0
  152.6605  144.8547  158.7836 C   0  0  0  0  0  0  0  0  0  0  0  0
  153.7658  143.2790  160.8902 H   0  0  0  0  0  0  0  0  0  0  0  0
  152.9550  141.9399  161.6869 H   0  0  0  0  0  0  0  0  0  0  0  0
  152.2930  143.5632  161.8183 H   0  0  0  0  0  0  0  0  0  0  0  0
  151.0242  142.1271  160.2304 H   0  0  0  0  0  0  0  0  0  0  0  0
  153.5735  142.0540  158.5694 H   0  0  0  0  0  0  0  0  0  0  0  0
  152.8673  140.7121  159.4285 H   0  0  0  0  0  0  0  0  0  0  0  0
  152.2725  140.6623  157.0260 H   0  0  0  0  0  0  0  0  0  0  0  0
  150.8514  140.7728  158.0346 H   0  0  0  0  0  0  0  0  0  0  0  0
  152.1689  143.1018  156.5479 H   0  0  0  0  0  0  0  0  0  0  0  0
  149.8005  143.1223  155.6623 H   0  0  0  0  0  0  0  0  0  0  0  0
  150.0949  140.2645  156.2477 H   0  0  0  0  0  0  0  0  0  0  0  0
  148.8556  141.2957  156.9387 H   0  0  0  0  0  0  0  0  0  0  0  0
  148.2988  139.8387  154.8012 H   0  0  0  0  0  0  0  0  0  0  0  0
  149.3804  140.3502  153.1431 H   0  0  0  0  0  0  0  0  0  0  0  0
  147.6033  142.6129  152.8959 H   0  0  0  0  0  0  0  0  0  0  0  0
  145.5117  143.9729  153.0443 H   0  0  0  0  0  0  0  0  0  0  0  0
  144.6410  142.5254  156.8156 H   0  0  0  0  0  0  0  0  0  0  0  0
  146.6937  141.0989  156.8505 H   0  0  0  0  0  0  0  0  0  0  0  0
  150.3236  144.4980  157.4342 H   0  0  0  0  0  0  0  0  0  0  0  0
  149.6786  143.1361  158.3069 H   0  0  0  0  0  0  0  0  0  0  0  0
  150.8730  144.4802  159.8657 H   0  0  0  0  0  0  0  0  0  0  0  0
  153.3860  144.3665  158.1336 H   0  0  0  0  0  0  0  0  0  0  0  0
  153.1941  145.2100  159.6649 H   0  0  0  0  0  0  0  0  0  0  0  0
  152.2932  145.7377  158.2601 H   0  0  0  0  0  0  0  0  0  0  0  0
  150.9268  142.1144  155.0311 H   0  0  0  0  0  0  0  0  0  0  0  0
  1  2  1  0  0  0  0
  1 19  1  0  0  0  0
  1 20  1  0  0  0  0
  1 21  1  0  0  0  0
  2 17  1  0  0  0  0
  2  3  1  0  0  0  0
  2 22  1  0  0  0  0
  3  4  1  0  0  0  0
  3 23  1  0  0  0  0
  3 24  1  0  0  0  0
  4  5  1  0  0  0  0
  4 25  1  0  0  0  0
  4 26  1  0  0  0  0
  5  6  1  0  0  0  0
  5 16  1  0  0  0  0
  5 27  1  0  0  0  0
  6  7  1  0  0  0  0
  6 28  1  0  0  0  0
  6 43  1  0  0  0  0
  7  8  1  0  0  0  0
  7 29  1  0  0  0  0
  7 30  1  0  0  0  0
  8  9  1  0  0  0  0
  8 10  1  0  0  0  0
  8 31  1  0  0  0  0
  9 32  1  0  0  0  0
 10 15  1  0  0  0  0
 10 11  2  0  0  0  0
 11 12  1  0  0  0  0
 11 33  1  0  0  0  0
 12 13  2  0  0  0  0
 12 34  1  0  0  0  0
 13 14  1  0  0  0  0
 14 15  2  0  0  0  0
 14 35  1  0  0  0  0
 15 36  1  0  0  0  0
 16 17  1  0  0  0  0
 16 37  1  0  0  0  0
 16 38  1  0  0  0  0
 17 18  1  0  0  0  0
 17 39  1  0  0  0  0
 18 40  1  0  0  0  0
 18 41  1  0  0  0  0
 18 42  1  0  0  0  0
M  CHG  1   6   1
M  END
> <s_m_source_file>
AV-unprocessed.smi

> <i_m_source_file_index>
3287

> <i_lp_mmshare_version>
43012

> <i_f3d_flags>
0

> <s_epik_input>
W0NIM11bQ0BASF0xW0NIMl1bQ0gyXVtDQEhdKFtDSDJdW0NASF0xW0NIM10pW05IXVtDSDJdW0NASF0oW09IXSljMltjSF1bY0hdbltjSF1bY0hdMg==

> <s_epik_cmdline>
J2VwaWtfcHl0aG9uJywgJy1waCcsICc3LjAnLCAnLXRuJywgJzgnLCAnLW1hJywgJzIwMCcsICctbWV0YWxfYmluZGluZycsICctaW1hZScsICc8aW5maWxlLm1hZT4nLCAnLW9tYWUnLCAnPG91dGZpbGUubWFlPic=

> <r_lp_tautomer_probability>
1

> <r_epik_Ionization_Penalty>
0.00537262

> <r_epik_Ionization_Penalty_Charging>
0.00321624

> <r_epik_Ionization_Penalty_Neutral>
0.00215638

> <r_epik_State_Penalty>
-0

> <r_epik_Charging_Adjusted_Penalty>
0.00321624

> <i_epik_Tot_Q>
1

> <i_epik_Tot_abs_Q>
1

> <r_epik_Metal_State_Penalty>
-0

> <b_epik_Metal_Only>
0

> <s_lp_Force_Field>
OPLS_2005

> <r_lp_Energy>
18.5341

> <b_lp_Chiralities_Consistent>
1

> <s_lp_Variant>
AV-unprocessed.smi:3287-9

> <Gold.Version>
5.8.1

> <Gold.Id.Protein>
6NUR|6NUR_protein|mol2

> <Gold.PLP.Fitness>
50.1614

> <Gold.PLP.PLP>
-40.6405

> <Gold.PLP.part.hbond>
-4.0000

> <Gold.PLP.part.metal>
0.0000

> <Gold.PLP.part.buried>
-4.8342

> <Gold.PLP.part.nonpolar>
-31.0791

> <Gold.PLP.part.repulsive>
0.3388

> <Gold.PLP.ligand.clash>
0.0000

> <Gold.PLP.ligand.torsion>
0.6704

> <Gold.PLP.Chemscore.Hbond>
3.6160

> <Gold.PLP.Chemscore.CHOScore>
0.0000

> <Gold.PLP.Chemscore.Metal>
0.0000

> <Gold.Chemscore.Hbonds>
donor molecule, donor type, donor heavy atom, donor atom, acceptor molecule, acceptor atom, score
      L1  H     6    28       P1  8028  2.00
      L1  H     9    32       P1  7957  0.62
      P1  H  8011  8017       L1     9  0.96

> <Gold.PLP.Chemscore.Internal.Correction>
0.0137

> <Gold.Rescore>
     Score         DG    S(hbond)    S(metal)    S(lipo)     H(rot)  DE(clash)    DE(int)     intcor
     19.27     -20.75       1.91        0.00     117.69       1.90       0.59       0.89       ----

> <Gold.Chemscore.Fitness>
19.2686

> <Gold.Chemscore.DG>
-20.7493

> <Gold.Chemscore.ZeroCoef>
-5.4800

> <Gold.Chemscore.Hbond>
1.9081

> <Gold.Chemscore.Metal>
0.0000

> <Gold.Chemscore.Lipo>
117.6858

> <Gold.Chemscore.Internal_Hbond>
0.0000

> <Gold.Chemscore.DEClash>
0.5863

> <Gold.Chemscore.DEInternal>
0.8944

> <Gold.Chemscore.Rot>
1.9035

> <Gold.Chemscore.Internal.Correction>
   9.000000E+99

> <Gold.Chemscore.Hbonds>
donor molecule, donor type, donor heavy atom, donor atom, acceptor molecule, acceptor atom, score
      L1  H     6    28       P1  8028  1.00
      L1  H     9    32       P1  7957  0.60
      P1  H  8011  8017       L1     9  0.24

> <Gold.Chemscore.Hbond.Weighted>
-6.3730

> <Gold.Chemscore.Metal.Weighted>
-0.0000

> <Gold.Chemscore.Lipo.Weighted>
-13.7692

> <Gold.Chemscore.Internal_Hbond.Weighted>
0.0000

> <Gold.Chemscore.DEClash.Weighted>
0.5863

> <Gold.Chemscore.DEInternal.Weighted>
0.8944

> <Gold.Chemscore.Rot.Weighted>
4.8729

> <Gold.Chemscore.Internal.Correction.Weighted>
   9.000000E+99

> <Gold.Protein.RotatedTorsions>
[ 6907 6896 6895 6894 ] final   63.43 input  -60.11 | X-H torsion
[ 7974 7965 7964 7962 ] final -108.80 input  175.53 | X-H torsion
[ 8008 7997 7996 7995 ] final  113.32 input   59.86 | X-H torsion
[ 10167 10162 10161 10158 ] final    4.05 input  -65.29 | X-H torsion
[ 10718 10713 10712 10709 ] final  134.92 input   66.30 | X-H torsion
[ 10763 10752 10751 10750 ] final   42.61 input  -60.55 | X-H torsion
[ 11005 11000 10999 10996 ] final  -88.54 input  -57.11 | X-H torsion

> <Gold.Protein.ActiveResidues>
 VAL166  LYS551  ARG553  GLY616  TRP617  ASP618  TYR619  PRO620  LYS621  CYS622 
 ASP623  PHE694  ASN695  SER759  ASP760  ASP761  ALA762  ILE779  LEU786  VAL792 
 PHE793  MET794  SER795  GLU796  ALA797  LYS798  CYS799  TRP800  GLU811  SER814 

> <Gold.Protein.RotatedAtoms>
  152.4252  134.5881  159.9966 H   0  0  0  0  0  0  0  0  0  0  0  0  # atno 6907 bound_to 6896
  151.6019  133.3350  159.3057 H   0  0  0  0  0  0  0  0  0  0  0  0  # atno 6908 bound_to 6896
  150.8142  134.7351  159.6780 H   0  0  0  0  0  0  0  0  0  0  0  0  # atno 6909 bound_to 6896
  145.1884  140.9003  143.3439 H   0  0  0  0  0  0  0  0  0  0  0  0  # atno 7974 bound_to 7965
  156.2250  140.2982  156.0045 H   0  0  0  0  0  0  0  0  0  0  0  0  # atno 8008 bound_to 7997
  155.2380  140.0421  157.2988 H   0  0  0  0  0  0  0  0  0  0  0  0  # atno 8009 bound_to 7997
  154.5901  140.2399  155.7940 H   0  0  0  0  0  0  0  0  0  0  0  0  # atno 8010 bound_to 7997
  140.6555  143.7438  150.7646 H   0  0  0  0  0  0  0  0  0  0  0  0  # atno 10167 bound_to 10162
  157.4623  131.1074  150.9904 H   0  0  0  0  0  0  0  0  0  0  0  0  # atno 10718 bound_to 10713
  152.9879  135.6126  154.2978 H   0  0  0  0  0  0  0  0  0  0  0  0  # atno 10763 bound_to 10752
  154.2700  135.2780  155.2744 H   0  0  0  0  0  0  0  0  0  0  0  0  # atno 10764 bound_to 10752
  154.5131  135.5835  153.6677 H   0  0  0  0  0  0  0  0  0  0  0  0  # atno 10765 bound_to 10752
  141.1600  133.7576  156.9466 H   0  0  0  0  0  0  0  0  0  0  0  0  # atno 11005 bound_to 11000
  145.0066  139.3549  143.6141 LP  0  0  0  0  0  0  0  0  0  0  0  0  # atno 17320 bound_to 7965
  146.3441  139.9311  142.8753 LP  0  0  0  0  0  0  0  0  0  0  0  0  # atno 17321 bound_to 7965
  140.1097  143.4710  152.2377 LP  0  0  0  0  0  0  0  0  0  0  0  0  # atno 17342 bound_to 10162
  139.5777  144.7495  151.3722 LP  0  0  0  0  0  0  0  0  0  0  0  0  # atno 17343 bound_to 10162
  157.0697  130.5859  149.5400 LP  0  0  0  0  0  0  0  0  0  0  0  0  # atno 17370 bound_to 10713
  156.0034  130.5117  150.7746 LP  0  0  0  0  0  0  0  0  0  0  0  0  # atno 17371 bound_to 10713
  140.1285  134.9371  157.2304 LP  0  0  0  0  0  0  0  0  0  0  0  0  # atno 17394 bound_to 11000
  140.2982  134.3162  155.7297 LP  0  0  0  0  0  0  0  0  0  0  0  0  # atno 17395 bound_to 11000

$$$$
