AV-unprocessed.smi:609|AV-procd|sdf|3046|dock7
  -GOLD-   2262023563D 1   1.00000     0.00000
 Structure written by MMmdl.
 43 45  0  0  0  0  0  0  0  0  2 V2000
  152.7812  142.9258  160.8097 C   0  0  0  0  0  0  0  0  0  0  0  0
  152.2144  142.3692  159.5155 C   0  0  0  0  0  0  0  0  0  0  0  0
  152.1891  140.9695  159.3228 C   0  0  0  0  0  0  0  0  0  0  0  0
  151.6690  140.4111  158.1347 C   0  0  0  0  0  0  0  0  0  0  0  0
  151.5520  139.0900  157.7379 N   0  0  0  0  0  0  0  0  0  0  0  0
  150.9978  139.2184  156.5358 C   0  0  0  0  0  0  0  0  0  0  0  0
  150.7454  140.4690  156.1044 N   0  0  0  0  0  0  0  0  0  0  0  0
  150.1604  140.8517  154.8319 C   0  0  0  0  0  0  0  0  0  0  0  0
  148.7165  141.3742  154.9720 C   0  0  1  0  0  0  0  0  0  0  0  0
  148.5750  142.4870  154.1128 O   0  0  0  0  0  0  0  0  0  0  0  0
  147.6426  140.3248  154.6268 C   0  0  0  0  0  0  0  0  0  0  0  0
  146.3119  140.2557  155.8586 S   0  0  0  0  0  0  0  0  0  0  0  0
  145.4805  141.8098  155.7329 C   0  0  0  0  0  0  0  0  0  0  0  0
  144.6179  142.1601  154.7736 N   0  3  0  0  0  0  0  0  0  0  0  0
  144.1684  143.4341  154.9959 C   0  0  0  0  0  0  0  0  0  0  0  0
  144.7870  143.8729  156.1401 C   0  0  0  0  0  0  0  0  0  0  0  0
  145.5905  142.8484  156.5728 N   0  0  0  0  0  0  0  0  0  0  0  0
  146.4499  142.8403  157.7574 C   0  0  0  0  0  0  0  0  0  0  0  0
  151.1703  141.2985  157.1371 C   0  0  0  0  0  0  0  0  0  0  0  0
  151.1896  142.6931  157.3172 C   0  0  0  0  0  0  0  0  0  0  0  0
  151.7138  143.2344  158.5096 C   0  0  0  0  0  0  0  0  0  0  0  0
  151.7297  144.7411  158.6952 C   0  0  0  0  0  0  0  0  0  0  0  0
  153.0952  142.1275  161.4827 H   0  0  0  0  0  0  0  0  0  0  0  0
  152.0322  143.5240  161.3293 H   0  0  0  0  0  0  0  0  0  0  0  0
  153.6486  143.5546  160.6080 H   0  0  0  0  0  0  0  0  0  0  0  0
  152.5704  140.3103  160.0888 H   0  0  0  0  0  0  0  0  0  0  0  0
  150.7661  138.3539  155.9308 H   0  0  0  0  0  0  0  0  0  0  0  0
  150.7957  141.6143  154.3790 H   0  0  0  0  0  0  0  0  0  0  0  0
  150.1899  139.9884  154.1656 H   0  0  0  0  0  0  0  0  0  0  0  0
  148.5625  141.7194  155.9953 H   0  0  0  0  0  0  0  0  0  0  0  0
  148.8653  143.2603  154.5723 H   0  0  0  0  0  0  0  0  0  0  0  0
  147.2101  140.5297  153.6467 H   0  0  0  0  0  0  0  0  0  0  0  0
  148.0870  139.3309  154.5791 H   0  0  0  0  0  0  0  0  0  0  0  0
  143.4606  143.9207  154.3408 H   0  0  0  0  0  0  0  0  0  0  0  0
  144.7153  144.8149  156.6644 H   0  0  0  0  0  0  0  0  0  0  0  0
  146.3557  143.7902  158.2843 H   0  0  0  0  0  0  0  0  0  0  0  0
  147.4864  142.6979  157.4504 H   0  0  0  0  0  0  0  0  0  0  0  0
  146.1449  142.0286  158.4185 H   0  0  0  0  0  0  0  0  0  0  0  0
  150.8042  143.3403  156.5434 H   0  0  0  0  0  0  0  0  0  0  0  0
  151.3190  145.2541  157.8250 H   0  0  0  0  0  0  0  0  0  0  0  0
  152.7489  145.0978  158.8441 H   0  0  0  0  0  0  0  0  0  0  0  0
  151.1329  145.0249  159.5623 H   0  0  0  0  0  0  0  0  0  0  0  0
  144.3402  141.5692  154.0004 H   0  0  0  0  0  0  0  0  0  0  0  0
  1  2  1  0  0  0  0
  1 23  1  0  0  0  0
  1 24  1  0  0  0  0
  1 25  1  0  0  0  0
  2 21  1  0  0  0  0
  2  3  2  0  0  0  0
  3  4  1  0  0  0  0
  3 26  1  0  0  0  0
  4 19  2  0  0  0  0
  4  5  1  0  0  0  0
  5  6  2  0  0  0  0
  6  7  1  0  0  0  0
  6 27  1  0  0  0  0
  7  8  1  0  0  0  0
  7 19  1  0  0  0  0
  8  9  1  0  0  0  0
  8 28  1  0  0  0  0
  8 29  1  0  0  0  0
  9 10  1  0  0  0  0
  9 11  1  0  0  0  0
  9 30  1  0  0  0  0
 10 31  1  0  0  0  0
 11 12  1  0  0  0  0
 11 32  1  0  0  0  0
 11 33  1  0  0  0  0
 12 13  1  0  0  0  0
 13 17  1  0  0  0  0
 13 14  2  0  0  0  0
 14 15  1  0  0  0  0
 14 43  1  0  0  0  0
 15 16  2  0  0  0  0
 15 34  1  0  0  0  0
 16 17  1  0  0  0  0
 16 35  1  0  0  0  0
 17 18  1  0  0  0  0
 18 36  1  0  0  0  0
 18 37  1  0  0  0  0
 18 38  1  0  0  0  0
 19 20  1  0  0  0  0
 20 21  2  0  0  0  0
 20 39  1  0  0  0  0
 21 22  1  0  0  0  0
 22 40  1  0  0  0  0
 22 41  1  0  0  0  0
 22 42  1  0  0  0  0
M  CHG  1  14   1
M  END
> <s_m_source_file>
AV-unprocessed.smi

> <i_m_source_file_index>
609

> <i_lp_mmshare_version>
43012

> <i_f3d_flags>
0

> <s_epik_input>
W0NIM11jKFtjSF0xKWMoW0NIM10pW2NIXWMoYzEyKW4oW2NIXW4yKVtDSDJdW0NASF0oW09IXSlbQ0gyXVNjM25bY0hdW2NIXW4zW0NIM10=

> <s_epik_cmdline>
J2VwaWtfcHl0aG9uJywgJy1waCcsICc3LjAnLCAnLXRuJywgJzgnLCAnLW1hJywgJzIwMCcsICctbWV0YWxfYmluZGluZycsICctaW1hZScsICc8aW5maWxlLm1hZT4nLCAnLW9tYWUnLCAnPG91dGZpbGUubWFlPic=

> <r_lp_tautomer_probability>
1

> <r_epik_Ionization_Penalty>
0.215713

> <r_epik_Ionization_Penalty_Charging>
0

> <r_epik_Ionization_Penalty_Neutral>
0.215713

> <r_epik_State_Penalty>
0.19579

> <r_epik_Charging_Adjusted_Penalty>
0.19579

> <i_epik_Tot_Q>
1

> <i_epik_Tot_abs_Q>
1

> <r_epik_Metal_State_Penalty>
0.429751

> <b_epik_Metal_Only>
0

> <s_lp_Force_Field>
OPLS_2005

> <r_lp_Energy>
9.84341

> <b_lp_Chiralities_Consistent>
1

> <s_lp_Variant>
AV-unprocessed.smi:609-2

> <Gold.Version>
5.8.1

> <Gold.Id.Protein>
6NUR|6NUR_protein|mol2

> <Gold.PLP.Fitness>
47.1890

> <Gold.PLP.PLP>
-40.8386

> <Gold.PLP.part.hbond>
-3.0000

> <Gold.PLP.part.metal>
0.0000

> <Gold.PLP.part.buried>
-4.4081

> <Gold.PLP.part.nonpolar>
-33.8722

> <Gold.PLP.part.repulsive>
0.0000

> <Gold.PLP.ligand.clash>
0.0000

> <Gold.PLP.ligand.torsion>
1.5890

> <Gold.PLP.Chemscore.Hbond>
3.1690

> <Gold.PLP.Chemscore.CHOScore>
0.0000

> <Gold.PLP.Chemscore.Metal>
0.0000

> <Gold.Chemscore.Hbonds>
donor molecule, donor type, donor heavy atom, donor atom, acceptor molecule, acceptor atom, score
      L1  H    10    31       P1  8028  1.00
      L1  H    14    43       P1 10175  1.70
      P1  H  8011  8017       L1    10  0.11

> <Gold.PLP.Chemscore.Internal.Correction>
0.0215

> <Gold.Rescore>
     Score         DG    S(hbond)    S(metal)    S(lipo)     H(rot)  DE(clash)    DE(int)     intcor
     15.43     -18.33       2.06        0.00     106.12       2.52       1.01       1.89       ----

> <Gold.Chemscore.Fitness>
15.4291

> <Gold.Chemscore.DG>
-18.3289

> <Gold.Chemscore.ZeroCoef>
-5.4800

> <Gold.Chemscore.Hbond>
2.0574

> <Gold.Chemscore.Metal>
0.0000

> <Gold.Chemscore.Lipo>
106.1231

> <Gold.Chemscore.Internal_Hbond>
0.0000

> <Gold.Chemscore.DEClash>
1.0093

> <Gold.Chemscore.DEInternal>
1.8905

> <Gold.Chemscore.Rot>
2.5153

> <Gold.Chemscore.Internal.Correction>
   9.000000E+99

> <Gold.Chemscore.Hbonds>
donor molecule, donor type, donor heavy atom, donor atom, acceptor molecule, acceptor atom, score
      L1  H    10    31       P1  8028  1.00
      L1  H    14    43       P1 10175  0.14
      P1  H  8011  8017       L1    10  0.05

> <Gold.Chemscore.Hbond.Weighted>
-6.8717

> <Gold.Chemscore.Metal.Weighted>
-0.0000

> <Gold.Chemscore.Lipo.Weighted>
-12.4164

> <Gold.Chemscore.Internal_Hbond.Weighted>
0.0000

> <Gold.Chemscore.DEClash.Weighted>
1.0093

> <Gold.Chemscore.DEInternal.Weighted>
1.8905

> <Gold.Chemscore.Rot.Weighted>
6.4391

> <Gold.Chemscore.Internal.Correction.Weighted>
   9.000000E+99

> <Gold.Protein.RotatedTorsions>
[ 6907 6896 6895 6894 ] final  -25.73 input  -60.11 | X-H torsion
[ 7974 7965 7964 7962 ] final  178.32 input  175.53 | X-H torsion
[ 8008 7997 7996 7995 ] final  -78.30 input   59.86 | X-H torsion
[ 10167 10162 10161 10158 ] final  -50.88 input  -65.29 | X-H torsion
[ 10718 10713 10712 10709 ] final   80.44 input   66.30 | X-H torsion
[ 10763 10752 10751 10750 ] final   49.51 input  -60.55 | X-H torsion
[ 11005 11000 10999 10996 ] final   74.16 input  -57.11 | X-H torsion

> <Gold.Protein.ActiveResidues>
 VAL166  LYS551  ARG553  GLY616  TRP617  ASP618  TYR619  PRO620  LYS621  CYS622 
 ASP623  PHE694  ASN695  SER759  ASP760  ASP761  ALA762  ILE779  LEU786  VAL792 
 PHE793  MET794  SER795  GLU796  ALA797  LYS798  CYS799  TRP800  GLU811  SER814 

> <Gold.Protein.RotatedAtoms>
  151.1710  135.0318  159.8751 H   0  0  0  0  0  0  0  0  0  0  0  0  # atno 6907 bound_to 6896
  152.5449  134.1171  159.8393 H   0  0  0  0  0  0  0  0  0  0  0  0  # atno 6908 bound_to 6896
  151.1276  133.5013  159.2632 H   0  0  0  0  0  0  0  0  0  0  0  0  # atno 6909 bound_to 6896
  144.7157  140.0380  143.6438 H   0  0  0  0  0  0  0  0  0  0  0  0  # atno 7974 bound_to 7965
  154.5677  140.0696  156.8916 H   0  0  0  0  0  0  0  0  0  0  0  0  # atno 8008 bound_to 7997
  155.2693  140.3364  155.4248 H   0  0  0  0  0  0  0  0  0  0  0  0  # atno 8009 bound_to 7997
  156.2093  140.1753  156.7715 H   0  0  0  0  0  0  0  0  0  0  0  0  # atno 8010 bound_to 7997
  140.6616  143.2640  151.4423 H   0  0  0  0  0  0  0  0  0  0  0  0  # atno 10167 bound_to 10162
  157.6806  130.9959  150.2080 H   0  0  0  0  0  0  0  0  0  0  0  0  # atno 10718 bound_to 10713
  152.9786  135.5909  154.4101 H   0  0  0  0  0  0  0  0  0  0  0  0  # atno 10763 bound_to 10752
  154.3737  135.2767  155.2253 H   0  0  0  0  0  0  0  0  0  0  0  0  # atno 10764 bound_to 10752
  154.4198  135.6062  153.6057 H   0  0  0  0  0  0  0  0  0  0  0  0  # atno 10765 bound_to 10752
  139.9404  134.7409  156.1114 H   0  0  0  0  0  0  0  0  0  0  0  0  # atno 11005 bound_to 11000
  146.0048  139.3120  143.0906 LP  0  0  0  0  0  0  0  0  0  0  0  0  # atno 17320 bound_to 7965
  145.8751  140.9396  143.0630 LP  0  0  0  0  0  0  0  0  0  0  0  0  # atno 17321 bound_to 7965
  139.5851  144.1622  152.2019 LP  0  0  0  0  0  0  0  0  0  0  0  0  # atno 17342 bound_to 10162
  140.0959  144.5581  150.7022 LP  0  0  0  0  0  0  0  0  0  0  0  0  # atno 17343 bound_to 10162
  156.2757  130.3727  149.7986 LP  0  0  0  0  0  0  0  0  0  0  0  0  # atno 17370 bound_to 10713
  156.5690  130.8416  151.3351 LP  0  0  0  0  0  0  0  0  0  0  0  0  # atno 17371 bound_to 10713
  141.1036  133.6668  156.2812 LP  0  0  0  0  0  0  0  0  0  0  0  0  # atno 17394 bound_to 11000
  140.5966  134.5597  157.5510 LP  0  0  0  0  0  0  0  0  0  0  0  0  # atno 17395 bound_to 11000

$$$$
