AV-unprocessed.smi:671|AV-procd|sdf|3276|dock9
  -GOLD-   22720 0233D 1   1.00000     0.00000
 Structure written by MMmdl.
 49 50  0  0  0  0  0  0  0  0  1 V2000
  152.9081  138.3331  154.8328 C   0  0  0  0  0  0  0  0  0  0  0  0
  152.0095  139.3176  155.5247 C   0  0  0  0  0  0  0  0  0  0  0  0
  152.4270  139.9149  156.6288 N   0  0  0  0  0  0  0  0  0  0  0  0
  151.4086  140.7207  156.9914 N   0  0  0  0  0  0  0  0  0  0  0  0
  151.5367  141.5388  158.1817 C   0  0  0  0  0  0  0  0  0  0  0  0
  150.3450  140.6305  156.1151 C   0  0  0  0  0  0  0  0  0  0  0  0
  149.0905  141.4226  156.2928 C   0  0  0  0  0  0  0  0  0  0  0  0
  150.6995  139.7328  155.1448 C   0  0  0  0  0  0  0  0  0  0  0  0
  149.8987  139.2831  153.9501 C   0  0  0  0  0  0  0  0  0  0  0  0
  148.4211  139.0044  154.3021 C   0  0  1  0  0  0  0  0  0  0  0  0
  147.4959  140.1716  153.9224 C   0  0  0  0  0  0  0  0  0  0  0  0
  147.9573  137.7936  153.6212 N   0  0  0  0  0  0  0  0  0  0  0  0
  146.7363  137.2291  153.6592 C   0  0  0  0  0  0  0  0  0  0  0  0
  145.8212  137.7112  154.3240 O   0  0  0  0  0  0  0  0  0  0  0  0
  146.6102  136.1108  152.9234 N   0  0  0  0  0  0  0  0  0  0  0  0
  145.3885  135.3193  152.7716 C   0  0  1  0  0  0  0  0  0  0  0  0
  144.4282  136.0363  151.8129 C   0  0  0  0  0  0  0  0  0  0  0  0
  144.6763  135.3941  150.4515 C   0  0  0  0  0  0  0  0  0  0  0  0
  144.9518  133.9273  150.7716 C   0  0  0  0  0  0  0  0  0  0  0  0
  145.6210  133.9096  152.1582 C   0  0  1  0  0  0  0  0  0  0  0  0
  147.0818  133.4228  152.0981 C   0  0  0  0  0  0  0  0  0  0  0  0
  152.4234  137.3609  154.7421 H   0  0  0  0  0  0  0  0  0  0  0  0
  153.8433  138.1864  155.3747 H   0  0  0  0  0  0  0  0  0  0  0  0
  153.1580  138.6743  153.8280 H   0  0  0  0  0  0  0  0  0  0  0  0
  150.7574  141.2716  158.8958 H   0  0  0  0  0  0  0  0  0  0  0  0
  151.4316  142.5908  157.9158 H   0  0  0  0  0  0  0  0  0  0  0  0
  152.5104  141.3886  158.6506 H   0  0  0  0  0  0  0  0  0  0  0  0
  148.3080  141.0678  155.6232 H   0  0  0  0  0  0  0  0  0  0  0  0
  149.2646  142.4769  156.0776 H   0  0  0  0  0  0  0  0  0  0  0  0
  148.7152  141.3405  157.3130 H   0  0  0  0  0  0  0  0  0  0  0  0
  149.9433  140.0254  153.1523 H   0  0  0  0  0  0  0  0  0  0  0  0
  150.3498  138.3854  153.5263 H   0  0  0  0  0  0  0  0  0  0  0  0
  148.3302  138.8610  155.3801 H   0  0  0  0  0  0  0  0  0  0  0  0
  147.7605  141.0821  154.4606 H   0  0  0  0  0  0  0  0  0  0  0  0
  146.4576  139.9436  154.1654 H   0  0  0  0  0  0  0  0  0  0  0  0
  147.5480  140.3894  152.8551 H   0  0  0  0  0  0  0  0  0  0  0  0
  148.6487  137.3203  153.0575 H   0  0  0  0  0  0  0  0  0  0  0  0
  147.4222  135.7881  152.4181 H   0  0  0  0  0  0  0  0  0  0  0  0
  144.9027  135.2253  153.7446 H   0  0  0  0  0  0  0  0  0  0  0  0
  143.3995  135.8399  152.1182 H   0  0  0  0  0  0  0  0  0  0  0  0
  144.5588  137.1194  151.7968 H   0  0  0  0  0  0  0  0  0  0  0  0
  143.8388  135.5246  149.7658 H   0  0  0  0  0  0  0  0  0  0  0  0
  145.5580  135.8369  149.9880 H   0  0  0  0  0  0  0  0  0  0  0  0
  144.0058  133.3862  150.8197 H   0  0  0  0  0  0  0  0  0  0  0  0
  145.5543  133.4497  149.9979 H   0  0  0  0  0  0  0  0  0  0  0  0
  145.0769  133.1895  152.7711 H   0  0  0  0  0  0  0  0  0  0  0  0
  147.6970  134.0691  151.4711 H   0  0  0  0  0  0  0  0  0  0  0  0
  147.1376  132.4158  151.6841 H   0  0  0  0  0  0  0  0  0  0  0  0
  147.5279  133.3886  153.0922 H   0  0  0  0  0  0  0  0  0  0  0  0
  1  2  1  0  0  0  0
  1 22  1  0  0  0  0
  1 23  1  0  0  0  0
  1 24  1  0  0  0  0
  2  8  1  0  0  0  0
  2  3  2  0  0  0  0
  3  4  1  0  0  0  0
  4  5  1  0  0  0  0
  4  6  1  0  0  0  0
  5 25  1  0  0  0  0
  5 26  1  0  0  0  0
  5 27  1  0  0  0  0
  6  7  1  0  0  0  0
  6  8  2  0  0  0  0
  7 28  1  0  0  0  0
  7 29  1  0  0  0  0
  7 30  1  0  0  0  0
  8  9  1  0  0  0  0
  9 10  1  0  0  0  0
  9 31  1  0  0  0  0
  9 32  1  0  0  0  0
 10 11  1  0  0  0  0
 10 12  1  0  0  0  0
 10 33  1  0  0  0  0
 11 34  1  0  0  0  0
 11 35  1  0  0  0  0
 11 36  1  0  0  0  0
 12 13  1  0  0  0  0
 12 37  1  0  0  0  0
 13 14  2  0  0  0  0
 13 15  1  0  0  0  0
 15 16  1  0  0  0  0
 15 38  1  0  0  0  0
 16 20  1  0  0  0  0
 16 17  1  0  0  0  0
 16 39  1  0  0  0  0
 17 18  1  0  0  0  0
 17 40  1  0  0  0  0
 17 41  1  0  0  0  0
 18 19  1  0  0  0  0
 18 42  1  0  0  0  0
 18 43  1  0  0  0  0
 19 20  1  0  0  0  0
 19 44  1  0  0  0  0
 19 45  1  0  0  0  0
 20 21  1  0  0  0  0
 20 46  1  0  0  0  0
 21 47  1  0  0  0  0
 21 48  1  0  0  0  0
 21 49  1  0  0  0  0
M  END
> <s_m_source_file>
AV-unprocessed.smi

> <i_m_source_file_index>
671

> <i_lp_mmshare_version>
43012

> <i_f3d_flags>
0

> <s_epik_input>
W0NIM11jMW5uKFtDSDNdKWMoW0NIM10pYzFbQ0gyXVtDQEhdKFtDSDNdKVtOSF1DKD1PKVtOSF1bQ0BASF0yW0NIMl1bQ0gyXVtDSDJdW0NASF0yW0NIM10=

> <s_epik_cmdline>
J2VwaWtfcHl0aG9uJywgJy1waCcsICc3LjAnLCAnLXRuJywgJzgnLCAnLW1hJywgJzIwMCcsICctbWV0YWxfYmluZGluZycsICctaW1hZScsICc8aW5maWxlLm1hZT4nLCAnLW9tYWUnLCAnPG91dGZpbGUubWFlPic=

> <r_lp_tautomer_probability>
1

> <r_epik_Ionization_Penalty>
0.0126855

> <r_epik_Ionization_Penalty_Charging>
0

> <r_epik_Ionization_Penalty_Neutral>
0.0126855

> <r_epik_State_Penalty>
0.00977547

> <r_epik_Charging_Adjusted_Penalty>
0.00977547

> <i_epik_Tot_Q>
0

> <i_epik_Tot_abs_Q>
0

> <r_epik_Metal_State_Penalty>
0.00957132

> <b_epik_Metal_Only>
0

> <s_lp_Force_Field>
OPLS_2005

> <r_lp_Energy>
24.0852

> <b_lp_Chiralities_Consistent>
1

> <s_lp_Variant>
AV-unprocessed.smi:671-4

> <Gold.Version>
5.8.1

> <Gold.Id.Protein>
6NUR|6NUR_protein|mol2

> <Gold.PLP.Fitness>
41.9002

> <Gold.PLP.PLP>
-35.1115

> <Gold.PLP.part.hbond>
-3.0000

> <Gold.PLP.part.metal>
0.0000

> <Gold.PLP.part.buried>
-0.3484

> <Gold.PLP.part.nonpolar>
-32.0956

> <Gold.PLP.part.repulsive>
0.1146

> <Gold.PLP.ligand.clash>
0.0000

> <Gold.PLP.ligand.torsion>
0.9930

> <Gold.PLP.Chemscore.Hbond>
2.9200

> <Gold.PLP.Chemscore.CHOScore>
0.0000

> <Gold.PLP.Chemscore.Metal>
0.0000

> <Gold.Chemscore.Hbonds>
donor molecule, donor type, donor heavy atom, donor atom, acceptor molecule, acceptor atom, score
      L1  H    12    37       P1  7948  0.98
      L1  H    15    38       P1  7948  0.91
      P1  H  7997  8009       L1     3  1.00

> <Gold.PLP.Chemscore.Internal.Correction>
0.0146

> <Gold.Rescore>
     Score         DG    S(hbond)    S(metal)    S(lipo)     H(rot)  DE(clash)    DE(int)     intcor
     18.77     -21.09       2.74        0.00      86.89       1.45       0.10       2.22       ----

> <Gold.Chemscore.Fitness>
18.7712

> <Gold.Chemscore.DG>
-21.0945

> <Gold.Chemscore.ZeroCoef>
-5.4800

> <Gold.Chemscore.Hbond>
2.7425

> <Gold.Chemscore.Metal>
0.0000

> <Gold.Chemscore.Lipo>
86.8917

> <Gold.Chemscore.Internal_Hbond>
0.0000

> <Gold.Chemscore.DEClash>
0.1027

> <Gold.Chemscore.DEInternal>
2.2205

> <Gold.Chemscore.Rot>
1.4499

> <Gold.Chemscore.Internal.Correction>
   9.000000E+99

> <Gold.Chemscore.Hbonds>
donor molecule, donor type, donor heavy atom, donor atom, acceptor molecule, acceptor atom, score
      L1  H    12    37       P1  7948  0.93
      L1  H    15    38       P1  7948  0.88
      P1  H  7997  8009       L1     3  0.39

> <Gold.Chemscore.Hbond.Weighted>
-9.1600

> <Gold.Chemscore.Metal.Weighted>
-0.0000

> <Gold.Chemscore.Lipo.Weighted>
-10.1663

> <Gold.Chemscore.Internal_Hbond.Weighted>
0.0000

> <Gold.Chemscore.DEClash.Weighted>
0.1027

> <Gold.Chemscore.DEInternal.Weighted>
2.2205

> <Gold.Chemscore.Rot.Weighted>
3.7118

> <Gold.Chemscore.Internal.Correction.Weighted>
   9.000000E+99

> <Gold.Protein.RotatedTorsions>
[ 6907 6896 6895 6894 ] final  -93.38 input  -60.11 | X-H torsion
[ 7974 7965 7964 7962 ] final  106.23 input  175.53 | X-H torsion
[ 8008 7997 7996 7995 ] final -160.54 input   59.86 | X-H torsion
[ 10167 10162 10161 10158 ] final -151.06 input  -65.29 | X-H torsion
[ 10718 10713 10712 10709 ] final  -53.67 input   66.30 | X-H torsion
[ 10763 10752 10751 10750 ] final  139.76 input  -60.55 | X-H torsion
[ 11005 11000 10999 10996 ] final  171.13 input  -57.11 | X-H torsion

> <Gold.Protein.ActiveResidues>
 VAL166  LYS551  ARG553  GLY616  TRP617  ASP618  TYR619  PRO620  LYS621  CYS622 
 ASP623  PHE694  ASN695  SER759  ASP760  ASP761  ALA762  ILE779  LEU786  VAL792 
 PHE793  MET794  SER795  GLU796  ALA797  LYS798  CYS799  TRP800  GLU811  SER814 

> <Gold.Protein.RotatedAtoms>
  150.6921  134.1976  159.4309 H   0  0  0  0  0  0  0  0  0  0  0  0  # atno 6907 bound_to 6896
  151.9944  134.9959  160.0572 H   0  0  0  0  0  0  0  0  0  0  0  0  # atno 6908 bound_to 6896
  152.1637  133.4563  159.4911 H   0  0  0  0  0  0  0  0  0  0  0  0  # atno 6909 bound_to 6896
  145.3093  139.2545  143.3771 H   0  0  0  0  0  0  0  0  0  0  0  0  # atno 7974 bound_to 7965
  155.7789  140.0862  157.2069 H   0  0  0  0  0  0  0  0  0  0  0  0  # atno 8008 bound_to 7997
  154.3991  140.1511  156.3086 H   0  0  0  0  0  0  0  0  0  0  0  0  # atno 8009 bound_to 7997
  155.8673  140.3427  155.5800 H   0  0  0  0  0  0  0  0  0  0  0  0  # atno 8010 bound_to 7997
  139.7300  143.8823  152.2531 H   0  0  0  0  0  0  0  0  0  0  0  0  # atno 10167 bound_to 10162
  156.1515  130.4151  149.9937 H   0  0  0  0  0  0  0  0  0  0  0  0  # atno 10718 bound_to 10713
  153.9114  135.3011  155.3448 H   0  0  0  0  0  0  0  0  0  0  0  0  # atno 10763 bound_to 10752
  154.7621  135.4928  153.9488 H   0  0  0  0  0  0  0  0  0  0  0  0  # atno 10764 bound_to 10752
  153.1191  135.6778  153.9469 H   0  0  0  0  0  0  0  0  0  0  0  0  # atno 10765 bound_to 10752
  140.3157  134.7479  157.4026 H   0  0  0  0  0  0  0  0  0  0  0  0  # atno 11005 bound_to 11000
  146.3124  140.3625  142.8666 LP  0  0  0  0  0  0  0  0  0  0  0  0  # atno 17320 bound_to 7965
  144.9029  140.7664  143.5856 LP  0  0  0  0  0  0  0  0  0  0  0  0  # atno 17321 bound_to 7965
  139.8744  144.7051  150.8950 LP  0  0  0  0  0  0  0  0  0  0  0  0  # atno 17342 bound_to 10162
  140.7769  143.3712  151.1646 LP  0  0  0  0  0  0  0  0  0  0  0  0  # atno 17343 bound_to 10162
  156.7793  130.9215  151.3646 LP  0  0  0  0  0  0  0  0  0  0  0  0  # atno 17370 bound_to 10713
  157.6661  130.9008  149.9934 LP  0  0  0  0  0  0  0  0  0  0  0  0  # atno 17371 bound_to 10713
  140.0985  134.5504  155.8375 LP  0  0  0  0  0  0  0  0  0  0  0  0  # atno 17394 bound_to 11000
  141.2098  133.6688  156.6465 LP  0  0  0  0  0  0  0  0  0  0  0  0  # atno 17395 bound_to 11000

$$$$
