AV-unprocessed.smi:2005|AV-procd|sdf|8128|dock4
  -GOLD-   2272010363D 1   1.00000     0.00000
 Structure written by MMmdl.
 38 39  0  0  0  0  0  0  0  0  2 V2000
  153.7558  136.9145  163.8297 C   0  0  0  0  0  0  0  0  0  0  0  0
  155.0793  137.5612  163.3952 C   0  0  0  0  0  0  0  0  0  0  0  0
  155.5340  138.6915  164.3301 C   0  0  0  0  0  0  0  0  0  0  0  0
  155.0529  137.9902  161.9614 C   0  0  0  0  0  0  0  0  0  0  0  0
  156.0951  138.5627  161.3504 N   0  0  0  0  0  0  0  0  0  0  0  0
  155.8229  138.8695  160.0256 N   0  0  0  0  0  0  0  0  0  0  0  0
  154.5786  138.5375  159.6539 C   0  0  0  0  0  0  0  0  0  0  0  0
  154.1165  138.7510  158.4109 N   0  5  0  0  0  0  0  0  0  0  0  0
  152.7845  138.7442  158.1747 C   0  0  0  0  0  0  0  0  0  0  0  0
  151.9375  138.0923  158.7901 O   0  0  0  0  0  0  0  0  0  0  0  0
  152.4115  139.5420  157.1631 N   0  0  0  0  0  0  0  0  0  0  0  0
  151.0477  139.7390  156.6786 C   0  0  2  0  0  0  0  0  0  0  0  0
  150.7656  138.7653  155.5201 C   0  0  0  0  0  0  0  0  0  0  0  0
  149.3517  138.9649  154.9461 C   0  0  0  0  0  0  0  0  0  0  0  0
  149.0943  140.4228  154.5202 C   0  0  2  0  0  0  0  0  0  0  0  0
  149.8534  140.7328  153.3681 O   0  0  0  0  0  0  0  0  0  0  0  0
  149.4239  141.4120  155.6542 C   0  0  0  0  0  0  0  0  0  0  0  0
  150.8365  141.1976  156.2256 C   0  0  0  0  0  0  0  0  0  0  0  0
  153.6394  137.7812  160.9401 S   0  0  0  0  0  0  0  0  0  0  0  0
  153.5096  136.0627  163.1949 H   0  0  0  0  0  0  0  0  0  0  0  0
  152.9292  137.6237  163.7710 H   0  0  0  0  0  0  0  0  0  0  0  0
  153.8129  136.5549  164.8575 H   0  0  0  0  0  0  0  0  0  0  0  0
  155.8387  136.7815  163.4677 H   0  0  0  0  0  0  0  0  0  0  0  0
  156.5142  139.0708  164.0389 H   0  0  0  0  0  0  0  0  0  0  0  0
  155.6073  138.3431  165.3605 H   0  0  0  0  0  0  0  0  0  0  0  0
  154.8337  139.5274  164.3110 H   0  0  0  0  0  0  0  0  0  0  0  0
  153.1396  140.0575  156.6907 H   0  0  0  0  0  0  0  0  0  0  0  0
  150.3478  139.5138  157.4857 H   0  0  0  0  0  0  0  0  0  0  0  0
  151.5033  138.9075  154.7288 H   0  0  0  0  0  0  0  0  0  0  0  0
  150.8780  137.7360  155.8627 H   0  0  0  0  0  0  0  0  0  0  0  0
  149.1898  138.2903  154.1045 H   0  0  0  0  0  0  0  0  0  0  0  0
  148.6211  138.6833  155.7054 H   0  0  0  0  0  0  0  0  0  0  0  0
  148.0445  140.5329  154.2462 H   0  0  0  0  0  0  0  0  0  0  0  0
  149.6833  140.0756  152.7106 H   0  0  0  0  0  0  0  0  0  0  0  0
  149.3120  142.4395  155.3063 H   0  0  0  0  0  0  0  0  0  0  0  0
  148.6980  141.2839  156.4582 H   0  0  0  0  0  0  0  0  0  0  0  0
  150.9957  141.8784  157.0624 H   0  0  0  0  0  0  0  0  0  0  0  0
  151.5796  141.4609  155.4714 H   0  0  0  0  0  0  0  0  0  0  0  0
  1  2  1  0  0  0  0
  1 20  1  0  0  0  0
  1 21  1  0  0  0  0
  1 22  1  0  0  0  0
  2  3  1  0  0  0  0
  2  4  1  0  0  0  0
  2 23  1  0  0  0  0
  3 24  1  0  0  0  0
  3 25  1  0  0  0  0
  3 26  1  0  0  0  0
  4 19  1  0  0  0  0
  4  5  2  0  0  0  0
  5  6  1  0  0  0  0
  6  7  2  0  0  0  0
  7  8  1  0  0  0  0
  7 19  1  0  0  0  0
  8  9  1  0  0  0  0
  9 10  2  0  0  0  0
  9 11  1  0  0  0  0
 11 12  1  0  0  0  0
 11 27  1  0  0  0  0
 12 18  1  0  0  0  0
 12 13  1  0  0  0  0
 12 28  1  0  0  0  0
 13 14  1  0  0  0  0
 13 29  1  0  0  0  0
 13 30  1  0  0  0  0
 14 15  1  0  0  0  0
 14 31  1  0  0  0  0
 14 32  1  0  0  0  0
 15 16  1  0  0  0  0
 15 17  1  0  0  0  0
 15 33  1  0  0  0  0
 16 34  1  0  0  0  0
 17 18  1  0  0  0  0
 17 35  1  0  0  0  0
 17 36  1  0  0  0  0
 18 37  1  0  0  0  0
 18 38  1  0  0  0  0
M  CHG  1   8  -1
M  END
> <s_m_source_file>
AV-unprocessed.smi

> <i_m_source_file_index>
2005

> <i_lp_mmshare_version>
43012

> <i_f3d_flags>
0

> <s_epik_input>
W0NIM11bQ0hdKFtDSDNdKWMxbm5jKHMxKVtOSF1DKD1PKVtOSF1bQ0BASF0yW0NIMl1bQ0gyXVtDQEBIXShbT0hdKVtDSDJdW0NIMl0y

> <s_epik_cmdline>
J2VwaWtfcHl0aG9uJywgJy1waCcsICc3LjAnLCAnLXRuJywgJzgnLCAnLW1hJywgJzIwMCcsICctbWV0YWxfYmluZGluZycsICctaW1hZScsICc8aW5maWxlLm1hZT4nLCAnLW9tYWUnLCAnPG91dGZpbGUubWFlPic=

> <r_lp_tautomer_probability>
1

> <r_epik_Ionization_Penalty>
4.58298

> <r_epik_Ionization_Penalty_Charging>
4.41114

> <r_epik_Ionization_Penalty_Neutral>
0.171842

> <r_epik_State_Penalty>
4.41079

> <r_epik_Charging_Adjusted_Penalty>
8.82193

> <i_epik_Tot_Q>
-1

> <i_epik_Tot_abs_Q>
1

> <r_epik_Metal_State_Penalty>
0.7766

> <b_epik_Metal_Only>
1

> <s_lp_Force_Field>
OPLS_2005

> <r_lp_Energy>
2.0831

> <b_lp_Chiralities_Consistent>
1

> <s_lp_Variant>
AV-unprocessed.smi:2005-4

> <Gold.Version>
5.8.1

> <Gold.Id.Protein>
6NUR|6NUR_protein|mol2

> <Gold.PLP.Fitness>
39.2960

> <Gold.PLP.PLP>
-28.2598

> <Gold.PLP.part.hbond>
-2.8596

> <Gold.PLP.part.metal>
0.0000

> <Gold.PLP.part.buried>
-2.4570

> <Gold.PLP.part.nonpolar>
-22.4564

> <Gold.PLP.part.repulsive>
0.1132

> <Gold.PLP.ligand.clash>
0.0000

> <Gold.PLP.ligand.torsion>
0.6711

> <Gold.PLP.Chemscore.Hbond>
4.0967

> <Gold.PLP.Chemscore.CHOScore>
0.0000

> <Gold.PLP.Chemscore.Metal>
0.0000

> <Gold.Chemscore.Hbonds>
donor molecule, donor type, donor heavy atom, donor atom, acceptor molecule, acceptor atom, score
      L1  H    16    34       P1  7957  0.72
      P1  H  7989  7998       L1    16  0.32
      P1  H  7997  8010       L1     8  1.80
      P1  H  8011  8017       L1    16  1.00

> <Gold.PLP.Chemscore.Internal.Correction>
0.0883

> <Gold.Rescore>
     Score         DG    S(hbond)    S(metal)    S(lipo)     H(rot)  DE(clash)    DE(int)     intcor
     13.90     -16.09       2.14        0.00      66.76       1.70       0.08       2.11       ----

> <Gold.Chemscore.Fitness>
13.9048

> <Gold.Chemscore.DG>
-16.0932

> <Gold.Chemscore.ZeroCoef>
-5.4800

> <Gold.Chemscore.Hbond>
2.1396

> <Gold.Chemscore.Metal>
0.0000

> <Gold.Chemscore.Lipo>
66.7594

> <Gold.Chemscore.Internal_Hbond>
0.0000

> <Gold.Chemscore.DEClash>
0.0811

> <Gold.Chemscore.DEInternal>
2.1074

> <Gold.Chemscore.Rot>
1.6968

> <Gold.Chemscore.Internal.Correction>
   9.000000E+99

> <Gold.Chemscore.Hbonds>
donor molecule, donor type, donor heavy atom, donor atom, acceptor molecule, acceptor atom, score
      L1  H    16    34       P1  7957  0.69
      P1  H  7989  7998       L1    16  0.17
      P1  H  7997  8010       L1     8  0.17
      P1  H  8011  8017       L1    16  0.34

> <Gold.Chemscore.Hbond.Weighted>
-7.1463

> <Gold.Chemscore.Metal.Weighted>
-0.0000

> <Gold.Chemscore.Lipo.Weighted>
-7.8108

> <Gold.Chemscore.Internal_Hbond.Weighted>
0.0000

> <Gold.Chemscore.DEClash.Weighted>
0.0811

> <Gold.Chemscore.DEInternal.Weighted>
2.1074

> <Gold.Chemscore.Rot.Weighted>
4.3439

> <Gold.Chemscore.Internal.Correction.Weighted>
   9.000000E+99

> <Gold.Protein.RotatedTorsions>
[ 6907 6896 6895 6894 ] final  174.28 input  -60.11 | X-H torsion
[ 7974 7965 7964 7962 ] final  -55.74 input  175.53 | X-H torsion
[ 8008 7997 7996 7995 ] final   34.41 input   59.86 | X-H torsion
[ 10167 10162 10161 10158 ] final  133.26 input  -65.29 | X-H torsion
[ 10718 10713 10712 10709 ] final  146.61 input   66.30 | X-H torsion
[ 10763 10752 10751 10750 ] final  -42.60 input  -60.55 | X-H torsion
[ 11005 11000 10999 10996 ] final   74.93 input  -57.11 | X-H torsion

> <Gold.Protein.ActiveResidues>
 VAL166  LYS551  ARG553  GLY616  TRP617  ASP618  TYR619  PRO620  LYS621  CYS622 
 ASP623  PHE694  ASN695  SER759  ASP760  ASP761  ALA762  ILE779  LEU786  VAL792 
 PHE793  MET794  SER795  GLU796  ALA797  LYS798  CYS799  TRP800  GLU811  SER814 

> <Gold.Protein.RotatedAtoms>
  151.7548  133.3329  159.3401 H   0  0  0  0  0  0  0  0  0  0  0  0  # atno 6907 bound_to 6896
  150.7521  134.6159  159.6120 H   0  0  0  0  0  0  0  0  0  0  0  0  # atno 6908 bound_to 6896
  152.3444  134.7092  160.0306 H   0  0  0  0  0  0  0  0  0  0  0  0  # atno 6909 bound_to 6896
  145.8707  140.8218  142.9890 H   0  0  0  0  0  0  0  0  0  0  0  0  # atno 7974 bound_to 7965
  155.1543  140.3277  155.4424 H   0  0  0  0  0  0  0  0  0  0  0  0  # atno 8008 bound_to 7997
  156.2564  140.1971  156.6604 H   0  0  0  0  0  0  0  0  0  0  0  0  # atno 8009 bound_to 7997
  154.6450  140.0565  156.9877 H   0  0  0  0  0  0  0  0  0  0  0  0  # atno 8010 bound_to 7997
  139.5304  144.6624  151.4970 H   0  0  0  0  0  0  0  0  0  0  0  0  # atno 10167 bound_to 10162
  157.3311  131.0920  151.1162 H   0  0  0  0  0  0  0  0  0  0  0  0  # atno 10718 bound_to 10713
  153.9817  135.6716  153.4750 H   0  0  0  0  0  0  0  0  0  0  0  0  # atno 10763 bound_to 10752
  153.0745  135.4956  154.8372 H   0  0  0  0  0  0  0  0  0  0  0  0  # atno 10764 bound_to 10752
  154.7160  135.3107  154.9084 H   0  0  0  0  0  0  0  0  0  0  0  0  # atno 10765 bound_to 10752
  139.9367  134.7474  156.1208 H   0  0  0  0  0  0  0  0  0  0  0  0  # atno 11005 bound_to 11000
  144.6726  140.1235  143.7448 LP  0  0  0  0  0  0  0  0  0  0  0  0  # atno 17320 bound_to 7965
  145.9140  139.2504  143.1421 LP  0  0  0  0  0  0  0  0  0  0  0  0  # atno 17321 bound_to 7965
  140.6478  143.8758  150.6755 LP  0  0  0  0  0  0  0  0  0  0  0  0  # atno 17342 bound_to 10162
  140.2113  143.3881  152.1716 LP  0  0  0  0  0  0  0  0  0  0  0  0  # atno 17343 bound_to 10162
  157.2410  130.6569  149.5889 LP  0  0  0  0  0  0  0  0  0  0  0  0  # atno 17370 bound_to 10713
  155.9696  130.4568  150.5940 LP  0  0  0  0  0  0  0  0  0  0  0  0  # atno 17371 bound_to 10713
  141.0984  133.6686  156.2699 LP  0  0  0  0  0  0  0  0  0  0  0  0  # atno 17394 bound_to 11000
  140.6056  134.5510  157.5525 LP  0  0  0  0  0  0  0  0  0  0  0  0  # atno 17395 bound_to 11000

$$$$
