AV-unprocessed.smi:107|AV-procd|sdf|1013|dock10
  -GOLD-   2262018 13D 1   1.00000     0.00000
 Structure written by MMmdl.
 31 32  0  0  0  0  0  0  0  0  1 V2000
  152.2911  142.8241  160.1187 C   0  0  0  0  0  0  0  0  0  0  0  0
  151.8005  142.4075  158.7421 C   0  0  0  0  0  0  0  0  0  0  0  0
  152.0336  141.1721  158.2298 C   0  0  0  0  0  0  0  0  0  0  0  0
  151.5985  140.7612  156.9776 N   0  0  0  0  0  0  0  0  0  0  0  0
  151.8953  139.3696  156.4660 C   0  0  2  0  0  0  0  0  0  0  0  0
  151.0538  138.3239  157.2051 C   0  0  0  0  0  0  0  0  0  0  0  0
  152.0390  137.1852  157.3805 C   0  0  1  0  0  0  0  0  0  0  0  0
  152.0211  136.3320  156.2512 O   0  0  0  0  0  0  0  0  0  0  0  0
  153.3722  137.9326  157.5279 C   0  0  1  0  0  0  0  0  0  0  0  0
  154.6522  137.1469  157.1939 C   0  0  0  0  0  0  0  0  0  0  0  0
  155.7943  137.8894  157.5650 O   0  0  0  0  0  0  0  0  0  0  0  0
  153.2447  139.0806  156.6921 O   0  0  0  0  0  0  0  0  0  0  0  0
  150.8514  141.6528  156.1796 C   0  0  0  0  0  0  0  0  0  0  0  0
  150.4069  141.3534  155.0721 O   0  0  0  0  0  0  0  0  0  0  0  0
  150.6149  142.9229  156.7031 N   0  0  0  0  0  0  0  0  0  0  0  0
  151.0453  143.3821  157.9503 C   0  0  0  0  0  0  0  0  0  0  0  0
  150.7751  144.5295  158.3016 O   0  0  0  0  0  0  0  0  0  0  0  0
  150.0833  143.5654  156.1337 H   0  0  0  0  0  0  0  0  0  0  0  0
  152.8399  142.0216  160.6124 H   0  0  0  0  0  0  0  0  0  0  0  0
  151.4494  143.0954  160.7568 H   0  0  0  0  0  0  0  0  0  0  0  0
  152.9555  143.6856  160.0424 H   0  0  0  0  0  0  0  0  0  0  0  0
  152.5855  140.4703  158.8364 H   0  0  0  0  0  0  0  0  0  0  0  0
  151.7392  139.3627  155.3864 H   0  0  0  0  0  0  0  0  0  0  0  0
  150.7586  138.7121  158.1810 H   0  0  0  0  0  0  0  0  0  0  0  0
  150.1551  138.0645  156.6442 H   0  0  0  0  0  0  0  0  0  0  0  0
  151.8128  136.5876  158.2641 H   0  0  0  0  0  0  0  0  0  0  0  0
  151.3829  136.6623  155.6369 H   0  0  0  0  0  0  0  0  0  0  0  0
  153.4442  138.2987  158.5531 H   0  0  0  0  0  0  0  0  0  0  0  0
  154.6674  136.1746  157.6864 H   0  0  0  0  0  0  0  0  0  0  0  0
  154.7016  136.9588  156.1211 H   0  0  0  0  0  0  0  0  0  0  0  0
  156.5539  137.4896  157.1694 H   0  0  0  0  0  0  0  0  0  0  0  0
  1  2  1  0  0  0  0
  1 19  1  0  0  0  0
  1 20  1  0  0  0  0
  1 21  1  0  0  0  0
  2 16  1  0  0  0  0
  2  3  2  0  0  0  0
  3  4  1  0  0  0  0
  3 22  1  0  0  0  0
  4  5  1  0  0  0  0
  4 13  1  0  0  0  0
  5 12  1  0  0  0  0
  5  6  1  0  0  0  0
  5 23  1  0  0  0  0
  6  7  1  0  0  0  0
  6 24  1  0  0  0  0
  6 25  1  0  0  0  0
  7  8  1  0  0  0  0
  7  9  1  0  0  0  0
  7 26  1  0  0  0  0
  8 27  1  0  0  0  0
  9 10  1  0  0  0  0
  9 12  1  0  0  0  0
  9 28  1  0  0  0  0
 10 11  1  0  0  0  0
 10 29  1  0  0  0  0
 10 30  1  0  0  0  0
 11 31  1  0  0  0  0
 13 14  2  0  0  0  0
 13 15  1  0  0  0  0
 15 18  1  0  0  0  0
 15 16  1  0  0  0  0
 16 17  2  0  0  0  0
M  END
> <s_m_source_file>
AV-unprocessed.smi

> <i_m_source_file_index>
107

> <i_lp_mmshare_version>
43012

> <i_f3d_flags>
0

> <s_epik_input>
Tz1jMVtuSF1jKD1PKW4oW2NIXWMxW0NIM10pW0NAQEhdMltDSDJdW0NAQEhdKFtPSF0pW0NASF0oTzIpW0NIMl1bT0hd

> <s_epik_cmdline>
J2VwaWtfcHl0aG9uJywgJy1waCcsICc3LjAnLCAnLXRuJywgJzgnLCAnLW1hJywgJzIwMCcsICctbWV0YWxfYmluZGluZycsICctaW1hZScsICc8aW5maWxlLm1hZT4nLCAnLW9tYWUnLCAnPG91dGZpbGUubWFlPic=

> <r_lp_tautomer_probability>
0.999537

> <r_epik_Ionization_Penalty>
0.00121888

> <r_epik_Ionization_Penalty_Charging>
0.00121876

> <r_epik_Ionization_Penalty_Neutral>
1.19946e-07

> <r_epik_State_Penalty>
0.000805124

> <r_epik_Charging_Adjusted_Penalty>
0.00202389

> <i_epik_Tot_Q>
0

> <i_epik_Tot_abs_Q>
0

> <r_epik_Metal_State_Penalty>
0.662472

> <b_epik_Metal_Only>
0

> <s_epik_Chemistry_Notes>
This compound contains an acetal/aminal-like group ( X-CH(R)-Y where X, Y are N, S, or O) that may be acid/base labile, releasing an aldehyde.

> <s_lp_Force_Field>
OPLS_2005

> <r_lp_Energy>
27.6975

> <b_lp_Chiralities_Consistent>
1

> <s_lp_Variant>
AV-unprocessed.smi:107-1

> <Gold.Version>
5.8.1

> <Gold.Id.Protein>
6NUR|6NUR_protein|mol2

> <Gold.PLP.Fitness>
35.6262

> <Gold.PLP.PLP>
-24.7493

> <Gold.PLP.part.hbond>
-4.7508

> <Gold.PLP.part.metal>
0.0000

> <Gold.PLP.part.buried>
-3.4190

> <Gold.PLP.part.nonpolar>
-16.3731

> <Gold.PLP.part.repulsive>
0.3447

> <Gold.PLP.ligand.clash>
0.0000

> <Gold.PLP.ligand.torsion>
0.3419

> <Gold.PLP.Chemscore.Hbond>
3.8529

> <Gold.PLP.Chemscore.CHOScore>
0.0000

> <Gold.PLP.Chemscore.Metal>
0.0000

> <Gold.Chemscore.Hbonds>
donor molecule, donor type, donor heavy atom, donor atom, acceptor molecule, acceptor atom, score
      L1  H    15    18       P1  8028  1.00
      P1  H  7989  7998       L1    14  0.52
      P1  H  7997  8008       L1    12  0.96
      P1  H  7997  8010       L1    11  0.35
      P1  H 10752 10763       L1     8  1.00

> <Gold.PLP.Chemscore.Internal.Correction>
0.0021

> <Gold.Rescore>
     Score         DG    S(hbond)    S(metal)    S(lipo)     H(rot)  DE(clash)    DE(int)     intcor
     14.37     -14.91       3.39        0.00      43.43       2.73       0.25       0.29       ----

> <Gold.Chemscore.Fitness>
14.3658

> <Gold.Chemscore.DG>
-14.9082

> <Gold.Chemscore.ZeroCoef>
-5.4800

> <Gold.Chemscore.Hbond>
3.3905

> <Gold.Chemscore.Metal>
0.0000

> <Gold.Chemscore.Lipo>
43.4260

> <Gold.Chemscore.Internal_Hbond>
0.0000

> <Gold.Chemscore.DEClash>
0.2497

> <Gold.Chemscore.DEInternal>
0.2927

> <Gold.Chemscore.Rot>
2.7253

> <Gold.Chemscore.Internal.Correction>
   9.000000E+99

> <Gold.Chemscore.Hbonds>
donor molecule, donor type, donor heavy atom, donor atom, acceptor molecule, acceptor atom, score
      L1  H    15    18       P1  8028  1.00
      P1  H  7989  7998       L1    14  0.48
      P1  H  7997  8008       L1    12  0.87
      P1  H  7997  8010       L1    11  0.27
      P1  H 10752 10763       L1     8  0.35

> <Gold.Chemscore.Hbond.Weighted>
-11.3242

> <Gold.Chemscore.Metal.Weighted>
-0.0000

> <Gold.Chemscore.Lipo.Weighted>
-5.0808

> <Gold.Chemscore.Internal_Hbond.Weighted>
0.0000

> <Gold.Chemscore.DEClash.Weighted>
0.2497

> <Gold.Chemscore.DEInternal.Weighted>
0.2927

> <Gold.Chemscore.Rot.Weighted>
6.9769

> <Gold.Chemscore.Internal.Correction.Weighted>
   9.000000E+99

> <Gold.Protein.RotatedTorsions>
[ 6907 6896 6895 6894 ] final -127.25 input  -60.11 | X-H torsion
[ 7974 7965 7964 7962 ] final -119.19 input  175.53 | X-H torsion
[ 8008 7997 7996 7995 ] final  -37.87 input   59.86 | X-H torsion
[ 10167 10162 10161 10158 ] final -102.26 input  -65.29 | X-H torsion
[ 10718 10713 10712 10709 ] final  158.64 input   66.30 | X-H torsion
[ 10763 10752 10751 10750 ] final   95.48 input  -60.55 | X-H torsion
[ 11005 11000 10999 10996 ] final -162.30 input  -57.11 | X-H torsion

> <Gold.Protein.ActiveResidues>
 VAL166  LYS551  ARG553  GLY616  TRP617  ASP618  TYR619  PRO620  LYS621  CYS622 
 ASP623  PHE694  ASN695  SER759  ASP760  ASP761  ALA762  ILE779  LEU786  VAL792 
 PHE793  MET794  SER795  GLU796  ALA797  LYS798  CYS799  TRP800  GLU811  SER814 

> <Gold.Protein.RotatedAtoms>
  150.9054  133.7065  159.2868 H   0  0  0  0  0  0  0  0  0  0  0  0  # atno 6907 bound_to 6896
  151.4570  135.1033  159.9723 H   0  0  0  0  0  0  0  0  0  0  0  0  # atno 6908 bound_to 6896
  152.4900  133.8426  159.7216 H   0  0  0  0  0  0  0  0  0  0  0  0  # atno 6909 bound_to 6896
  145.0654  140.8320  143.4127 H   0  0  0  0  0  0  0  0  0  0  0  0  # atno 7974 bound_to 7965
  154.4046  140.1593  156.2607 H   0  0  0  0  0  0  0  0  0  0  0  0  # atno 8008 bound_to 7997
  155.9039  140.3431  155.6025 H   0  0  0  0  0  0  0  0  0  0  0  0  # atno 8009 bound_to 7997
  155.7416  140.0793  157.2234 H   0  0  0  0  0  0  0  0  0  0  0  0  # atno 8010 bound_to 7997
  140.2326  143.3596  152.0873 H   0  0  0  0  0  0  0  0  0  0  0  0  # atno 10167 bound_to 10162
  157.1751  131.0619  151.2162 H   0  0  0  0  0  0  0  0  0  0  0  0  # atno 10718 bound_to 10713
  153.2537  135.4252  155.0823 H   0  0  0  0  0  0  0  0  0  0  0  0  # atno 10763 bound_to 10752
  154.8392  135.3432  154.6477 H   0  0  0  0  0  0  0  0  0  0  0  0  # atno 10764 bound_to 10752
  153.6898  135.7034  153.5150 H   0  0  0  0  0  0  0  0  0  0  0  0  # atno 10765 bound_to 10752
  140.6108  134.4851  157.5215 H   0  0  0  0  0  0  0  0  0  0  0  0  # atno 11005 bound_to 11000
  145.1358  139.2603  143.5516 LP  0  0  0  0  0  0  0  0  0  0  0  0  # atno 17320 bound_to 7965
  146.3526  140.1021  142.8607 LP  0  0  0  0  0  0  0  0  0  0  0  0  # atno 17321 bound_to 7965
  139.5105  144.6885  151.5824 LP  0  0  0  0  0  0  0  0  0  0  0  0  # atno 17342 bound_to 10162
  140.6174  143.9323  150.6499 LP  0  0  0  0  0  0  0  0  0  0  0  0  # atno 17343 bound_to 10162
  157.4006  130.7331  149.6764 LP  0  0  0  0  0  0  0  0  0  0  0  0  # atno 17370 bound_to 10713
  155.9732  130.4122  150.4018 LP  0  0  0  0  0  0  0  0  0  0  0  0  # atno 17371 bound_to 10713
  139.9193  134.8181  156.1263 LP  0  0  0  0  0  0  0  0  0  0  0  0  # atno 17394 bound_to 11000
  141.0809  133.6754  156.2335 LP  0  0  0  0  0  0  0  0  0  0  0  0  # atno 17395 bound_to 11000

$$$$
