AV-unprocessed.smi:1925|AV-procd|sdf|7792|dock3
  -GOLD-   22720 9533D 1   1.00000     0.00000
 Structure written by MMmdl.
 31 32  0  0  0  0  0  0  0  0  1 V2000
  150.4803  140.7014  156.1540 O   0  0  0  0  0  0  0  0  0  0  0  0
  150.0834  141.8591  156.0164 C   0  0  0  0  0  0  0  0  0  0  0  0
  149.2031  142.2308  155.0760 N   0  0  0  0  0  0  0  0  0  0  0  0
  148.5980  141.3377  154.0933 C   0  0  0  0  0  0  0  0  0  0  0  0
  147.0694  141.5132  154.0099 C   0  0  2  0  0  0  0  0  0  0  0  0
  146.6020  142.9364  153.7415 C   0  0  0  0  0  0  0  0  0  0  0  0
  145.2415  143.0184  154.4428 C   0  0  0  0  0  0  0  0  0  0  0  0
  145.0653  141.7763  155.1154 O   0  0  0  0  0  0  0  0  0  0  0  0
  146.3392  141.1844  155.3075 C   0  0  0  0  0  0  0  0  0  0  0  0
  150.4606  142.9068  156.7704 N   0  0  0  0  0  0  0  0  0  0  0  0
  151.3850  142.9256  157.8486 C   0  0  0  0  0  0  0  0  0  0  0  0
  151.5757  144.1896  158.4515 C   0  0  0  0  0  0  0  0  0  0  0  0
  152.4742  144.3154  159.5287 C   0  0  0  0  0  0  0  0  0  0  0  0
  153.1605  143.1723  159.9757 C   0  0  0  0  0  0  0  0  0  0  0  0
  152.9137  141.9520  159.3199 C   0  0  0  0  0  0  0  0  0  0  0  0
  152.0526  141.8294  158.2877 N   0  0  0  0  0  0  0  0  0  0  0  0
  148.9307  143.2019  155.0350 H   0  0  0  0  0  0  0  0  0  0  0  0
  149.0507  141.5023  153.1141 H   0  0  0  0  0  0  0  0  0  0  0  0
  148.8420  140.3130  154.3753 H   0  0  0  0  0  0  0  0  0  0  0  0
  146.6690  140.8656  153.2282 H   0  0  0  0  0  0  0  0  0  0  0  0
  147.2880  143.6607  154.1830 H   0  0  0  0  0  0  0  0  0  0  0  0
  146.5339  143.1491  152.6741 H   0  0  0  0  0  0  0  0  0  0  0  0
  145.2276  143.8347  155.1657 H   0  0  0  0  0  0  0  0  0  0  0  0
  144.4257  143.1769  153.7372 H   0  0  0  0  0  0  0  0  0  0  0  0
  146.2599  140.1120  155.4875 H   0  0  0  0  0  0  0  0  0  0  0  0
  146.8289  141.6452  156.1670 H   0  0  0  0  0  0  0  0  0  0  0  0
  150.0399  143.7959  156.5448 H   0  0  0  0  0  0  0  0  0  0  0  0
  151.0404  145.0578  158.0955 H   0  0  0  0  0  0  0  0  0  0  0  0
  152.6332  145.2725  160.0030 H   0  0  0  0  0  0  0  0  0  0  0  0
  153.8576  143.2288  160.7988 H   0  0  0  0  0  0  0  0  0  0  0  0
  153.4204  141.0506  159.6312 H   0  0  0  0  0  0  0  0  0  0  0  0
  1  2  2  0  0  0  0
  2  3  1  0  0  0  0
  2 10  1  0  0  0  0
  3  4  1  0  0  0  0
  3 17  1  0  0  0  0
  4  5  1  0  0  0  0
  4 18  1  0  0  0  0
  4 19  1  0  0  0  0
  5  9  1  0  0  0  0
  5  6  1  0  0  0  0
  5 20  1  0  0  0  0
  6  7  1  0  0  0  0
  6 21  1  0  0  0  0
  6 22  1  0  0  0  0
  7  8  1  0  0  0  0
  7 23  1  0  0  0  0
  7 24  1  0  0  0  0
  8  9  1  0  0  0  0
  9 25  1  0  0  0  0
  9 26  1  0  0  0  0
 10 11  1  0  0  0  0
 10 27  1  0  0  0  0
 11 16  1  0  0  0  0
 11 12  2  0  0  0  0
 12 13  1  0  0  0  0
 12 28  1  0  0  0  0
 13 14  2  0  0  0  0
 13 29  1  0  0  0  0
 14 15  1  0  0  0  0
 14 30  1  0  0  0  0
 15 16  2  0  0  0  0
 15 31  1  0  0  0  0
M  END
> <s_m_source_file>
AV-unprocessed.smi

> <i_m_source_file_index>
1925

> <i_lp_mmshare_version>
43012

> <i_f3d_flags>
0

> <s_epik_input>
bjFbY0hdW2NIXVtjSF1bY0hdYzFbTkhdQyg9TylbTkhdW0NIMl1bQ0BASF0yW0NIMl1bQ0gyXU9bQ0gyXTI=

> <s_epik_cmdline>
J2VwaWtfcHl0aG9uJywgJy1waCcsICc3LjAnLCAnLXRuJywgJzgnLCAnLW1hJywgJzIwMCcsICctbWV0YWxfYmluZGluZycsICctaW1hZScsICc8aW5maWxlLm1hZT4nLCAnLW9tYWUnLCAnPG91dGZpbGUubWFlPic=

> <r_lp_tautomer_probability>
1

> <r_epik_Ionization_Penalty>
4.81143e-05

> <r_epik_Ionization_Penalty_Charging>
0

> <r_epik_Ionization_Penalty_Neutral>
4.81143e-05

> <r_epik_State_Penalty>
-0

> <r_epik_Charging_Adjusted_Penalty>
0

> <i_epik_Tot_Q>
0

> <i_epik_Tot_abs_Q>
0

> <r_epik_Metal_State_Penalty>
-0

> <b_epik_Metal_Only>
0

> <s_lp_Force_Field>
OPLS_2005

> <r_lp_Energy>
20.9741

> <b_lp_Chiralities_Consistent>
1

> <s_lp_Variant>
AV-unprocessed.smi:1925-1

> <Gold.Version>
5.8.1

> <Gold.Id.Protein>
6NUR|6NUR_protein|mol2

> <Gold.PLP.Fitness>
41.7612

> <Gold.PLP.PLP>
-35.8970

> <Gold.PLP.part.hbond>
-2.0000

> <Gold.PLP.part.metal>
0.0000

> <Gold.PLP.part.buried>
-4.5875

> <Gold.PLP.part.nonpolar>
-29.7206

> <Gold.PLP.part.repulsive>
0.4430

> <Gold.PLP.ligand.clash>
0.0000

> <Gold.PLP.ligand.torsion>
0.0693

> <Gold.PLP.Chemscore.Hbond>
2.0000

> <Gold.PLP.Chemscore.CHOScore>
0.0000

> <Gold.PLP.Chemscore.Metal>
0.0000

> <Gold.Chemscore.Hbonds>
donor molecule, donor type, donor heavy atom, donor atom, acceptor molecule, acceptor atom, score
      L1  H     3    17       P1  8028  1.00
      L1  H    10    27       P1  8028  1.00

> <Gold.PLP.Chemscore.Internal.Correction>
0.0027

> <Gold.Rescore>
     Score         DG    S(hbond)    S(metal)    S(lipo)     H(rot)  DE(clash)    DE(int)     intcor
     16.56     -17.94       1.96        0.00      78.24       1.27       0.03       1.35       ----

> <Gold.Chemscore.Fitness>
16.5639

> <Gold.Chemscore.DG>
-17.9395

> <Gold.Chemscore.ZeroCoef>
-5.4800

> <Gold.Chemscore.Hbond>
1.9613

> <Gold.Chemscore.Metal>
0.0000

> <Gold.Chemscore.Lipo>
78.2414

> <Gold.Chemscore.Internal_Hbond>
0.0000

> <Gold.Chemscore.DEClash>
0.0280

> <Gold.Chemscore.DEInternal>
1.3476

> <Gold.Chemscore.Rot>
1.2678

> <Gold.Chemscore.Internal.Correction>
   9.000000E+99

> <Gold.Chemscore.Hbonds>
donor molecule, donor type, donor heavy atom, donor atom, acceptor molecule, acceptor atom, score
      L1  H     3    17       P1  8028  0.96
      L1  H    10    27       P1  8028  0.95

> <Gold.Chemscore.Hbond.Weighted>
-6.5507

> <Gold.Chemscore.Metal.Weighted>
-0.0000

> <Gold.Chemscore.Lipo.Weighted>
-9.1542

> <Gold.Chemscore.Internal_Hbond.Weighted>
0.0000

> <Gold.Chemscore.DEClash.Weighted>
0.0280

> <Gold.Chemscore.DEInternal.Weighted>
1.3476

> <Gold.Chemscore.Rot.Weighted>
3.2455

> <Gold.Chemscore.Internal.Correction.Weighted>
   9.000000E+99

> <Gold.Protein.RotatedTorsions>
[ 6907 6896 6895 6894 ] final -145.01 input  -60.11 | X-H torsion
[ 7974 7965 7964 7962 ] final   -3.49 input  175.53 | X-H torsion
[ 8008 7997 7996 7995 ] final  162.05 input   59.86 | X-H torsion
[ 10167 10162 10161 10158 ] final  -89.54 input  -65.29 | X-H torsion
[ 10718 10713 10712 10709 ] final   63.31 input   66.30 | X-H torsion
[ 10763 10752 10751 10750 ] final  -21.89 input  -60.55 | X-H torsion
[ 11005 11000 10999 10996 ] final  -11.82 input  -57.11 | X-H torsion

> <Gold.Protein.ActiveResidues>
 VAL166  LYS551  ARG553  GLY616  TRP617  ASP618  TYR619  PRO620  LYS621  CYS622 
 ASP623  PHE694  ASN695  SER759  ASP760  ASP761  ALA762  ILE779  LEU786  VAL792 
 PHE793  MET794  SER795  GLU796  ALA797  LYS798  CYS799  TRP800  GLU811  SER814 

> <Gold.Protein.RotatedAtoms>
  151.1218  133.5098  159.2601 H   0  0  0  0  0  0  0  0  0  0  0  0  # atno 6907 bound_to 6896
  151.1853  135.0378  159.8819 H   0  0  0  0  0  0  0  0  0  0  0  0  # atno 6908 bound_to 6896
  152.5456  134.1066  159.8394 H   0  0  0  0  0  0  0  0  0  0  0  0  # atno 6909 bound_to 6896
  146.2389  140.1728  142.8332 H   0  0  0  0  0  0  0  0  0  0  0  0  # atno 7974 bound_to 7965
  156.2059  140.1761  156.7800 H   0  0  0  0  0  0  0  0  0  0  0  0  # atno 8008 bound_to 7997
  154.5655  140.0692  156.8915 H   0  0  0  0  0  0  0  0  0  0  0  0  # atno 8009 bound_to 7997
  155.2769  140.3346  155.4263 H   0  0  0  0  0  0  0  0  0  0  0  0  # atno 8010 bound_to 7997
  140.3638  143.2828  151.9582 H   0  0  0  0  0  0  0  0  0  0  0  0  # atno 10167 bound_to 10162
  157.5962  130.9098  149.9699 H   0  0  0  0  0  0  0  0  0  0  0  0  # atno 10718 bound_to 10713
  153.6432  135.6984  153.5234 H   0  0  0  0  0  0  0  0  0  0  0  0  # atno 10763 bound_to 10752
  153.2765  135.4198  155.1038 H   0  0  0  0  0  0  0  0  0  0  0  0  # atno 10764 bound_to 10752
  154.8494  135.3591  154.5976 H   0  0  0  0  0  0  0  0  0  0  0  0  # atno 10765 bound_to 10752
  140.7592  133.8528  155.9110 H   0  0  0  0  0  0  0  0  0  0  0  0  # atno 11005 bound_to 11000
  144.9997  140.8621  143.5289 LP  0  0  0  0  0  0  0  0  0  0  0  0  # atno 17320 bound_to 7965
  145.1746  139.2385  143.5324 LP  0  0  0  0  0  0  0  0  0  0  0  0  # atno 17321 bound_to 7965
  139.4811  144.5968  151.7675 LP  0  0  0  0  0  0  0  0  0  0  0  0  # atno 17342 bound_to 10162
  140.5100  144.1039  150.5993 LP  0  0  0  0  0  0  0  0  0  0  0  0  # atno 17343 bound_to 10162
  156.1025  130.3655  150.0192 LP  0  0  0  0  0  0  0  0  0  0  0  0  # atno 17370 bound_to 10713
  156.8305  130.9391  151.3637 LP  0  0  0  0  0  0  0  0  0  0  0  0  # atno 17371 bound_to 10713
  140.9678  134.1570  157.4601 LP  0  0  0  0  0  0  0  0  0  0  0  0  # atno 17394 bound_to 11000
  139.8773  134.9968  156.5813 LP  0  0  0  0  0  0  0  0  0  0  0  0  # atno 17395 bound_to 11000

$$$$
