AV-unprocessed.smi:38|AV-procd|sdf|339|dock1
  -GOLD-   2262016173D 1   1.00000     0.00000
 Structure written by MMmdl.
 28 29  0  0  0  0  0  0  0  0  1 V2000
  151.7063  142.9160  161.4745 O   0  0  0  0  0  0  0  0  0  0  0  0
  151.6126  142.5681  160.2991 C   0  0  0  0  0  0  0  0  0  0  0  0
  152.0366  141.2951  159.9068 N   0  0  0  0  0  0  0  0  0  0  0  0
  151.9842  140.7863  158.6074 C   0  0  0  0  0  0  0  0  0  0  0  0
  152.3724  139.6407  158.3828 O   0  0  0  0  0  0  0  0  0  0  0  0
  151.4670  141.6357  157.6038 N   0  0  0  0  0  0  0  0  0  0  0  0
  151.3899  141.1473  156.1756 C   0  0  1  0  0  0  0  0  0  0  0  0
  150.8144  139.7287  156.1125 C   0  0  0  0  0  0  0  0  0  0  0  0
  149.9266  139.7978  154.8858 C   0  0  2  0  0  0  0  0  0  0  0  0
  150.6677  139.5003  153.7171 O   0  0  0  0  0  0  0  0  0  0  0  0
  149.4459  141.2557  154.9181 C   0  0  2  0  0  0  0  0  0  0  0  0
  148.9716  141.8633  153.5866 C   0  0  0  0  0  0  0  0  0  0  0  0
  148.2743  143.0687  153.8188 O   0  0  0  0  0  0  0  0  0  0  0  0
  150.5425  141.9930  155.4535 O   0  0  0  0  0  0  0  0  0  0  0  0
  151.0215  142.9043  157.9504 C   0  0  0  0  0  0  0  0  0  0  0  0
  151.0741  143.3844  159.2152 C   0  0  0  0  0  0  0  0  0  0  0  0
  150.6210  144.6228  159.4744 F   0  0  0  0  0  0  0  0  0  0  0  0
  152.4088  140.6909  160.6252 H   0  0  0  0  0  0  0  0  0  0  0  0
  152.3835  141.2286  155.7326 H   0  0  0  0  0  0  0  0  0  0  0  0
  149.0934  139.0972  154.9497 H   0  0  0  0  0  0  0  0  0  0  0  0
  148.6352  141.3292  155.6446 H   0  0  0  0  0  0  0  0  0  0  0  0
  151.6045  138.9786  156.0603 H   0  0  0  0  0  0  0  0  0  0  0  0
  150.2075  139.5378  156.9989 H   0  0  0  0  0  0  0  0  0  0  0  0
  150.2238  138.8086  153.2498 H   0  0  0  0  0  0  0  0  0  0  0  0
  149.8315  142.0834  152.9536 H   0  0  0  0  0  0  0  0  0  0  0  0
  148.3386  141.1709  153.0313 H   0  0  0  0  0  0  0  0  0  0  0  0
  148.6920  143.5241  154.5340 H   0  0  0  0  0  0  0  0  0  0  0  0
  150.6072  143.5459  157.1876 H   0  0  0  0  0  0  0  0  0  0  0  0
  1  2  2  0  0  0  0
  2 16  1  0  0  0  0
  2  3  1  0  0  0  0
  3 18  1  0  0  0  0
  3  4  1  0  0  0  0
  4  5  2  0  0  0  0
  4  6  1  0  0  0  0
  6  7  1  0  0  0  0
  6 15  1  0  0  0  0
  7 19  1  0  0  0  0
  7 14  1  0  0  0  0
  7  8  1  0  0  0  0
  8  9  1  0  0  0  0
  8 22  1  0  0  0  0
  8 23  1  0  0  0  0
  9 20  1  0  0  0  0
  9 10  1  0  0  0  0
  9 11  1  0  0  0  0
 10 24  1  0  0  0  0
 11 21  1  0  0  0  0
 11 12  1  0  0  0  0
 11 14  1  0  0  0  0
 12 13  1  0  0  0  0
 12 25  1  0  0  0  0
 12 26  1  0  0  0  0
 13 27  1  0  0  0  0
 15 16  2  0  0  0  0
 15 28  1  0  0  0  0
 16 17  1  0  0  0  0
M  END
> <s_m_source_file>
AV-unprocessed.smi

> <i_m_source_file_index>
38

> <i_lp_mmshare_version>
43012

> <i_f3d_flags>
0

> <s_epik_input>
Tz1jMVtuSF1jKD1PKW4oW2NIXWMxRilbQ0BIXTJbQ0gyXVtDQEhdKFtPSF0pW0NASF0oTzIpW0NIMl1bT0hd

> <s_epik_cmdline>
J2VwaWtfcHl0aG9uJywgJy1waCcsICc3LjAnLCAnLXRuJywgJzgnLCAnLW1hJywgJzIwMCcsICctbWV0YWxfYmluZGluZycsICctaW1hZScsICc8aW5maWxlLm1hZT4nLCAnLW9tYWUnLCAnPG91dGZpbGUubWFlPic=

> <r_lp_tautomer_probability>
0.999537

> <r_epik_Ionization_Penalty>
0.0357432

> <r_epik_Ionization_Penalty_Charging>
0.0357431

> <r_epik_Ionization_Penalty_Neutral>
1.19946e-07

> <r_epik_State_Penalty>
0.0298169

> <r_epik_Charging_Adjusted_Penalty>
0.06556

> <i_epik_Tot_Q>
0

> <i_epik_Tot_abs_Q>
0

> <r_epik_Metal_State_Penalty>
2.348

> <b_epik_Metal_Only>
0

> <s_epik_Chemistry_Notes>
This compound contains an acetal/aminal-like group ( X-CH(R)-Y where X, Y are N, S, or O) that may be acid/base labile, releasing an aldehyde.

> <s_lp_Force_Field>
OPLS_2005

> <r_lp_Energy>
29.3974

> <b_lp_Chiralities_Consistent>
1

> <s_lp_Variant>
AV-unprocessed.smi:38-5

> <Gold.Version>
5.8.1

> <Gold.Id.Protein>
6NUR|6NUR_protein|mol2

> <Gold.PLP.Fitness>
41.9003

> <Gold.PLP.PLP>
-30.9601

> <Gold.PLP.part.hbond>
-4.0000

> <Gold.PLP.part.metal>
0.0000

> <Gold.PLP.part.buried>
-5.2194

> <Gold.PLP.part.nonpolar>
-22.1111

> <Gold.PLP.part.repulsive>
1.1385

> <Gold.PLP.ligand.clash>
0.0000

> <Gold.PLP.ligand.torsion>
0.4471

> <Gold.PLP.Chemscore.Hbond>
2.9440

> <Gold.PLP.Chemscore.CHOScore>
1.0000

> <Gold.PLP.Chemscore.Metal>
0.0000

> <Gold.Chemscore.Hbonds>
donor molecule, donor type, donor heavy atom, donor atom, acceptor molecule, acceptor atom, score
      L1  H    13    27       P1  8028  1.00
      P1  H  6933  6945       L1     1  0.32
      P1  H  7989  7998       L1    10  0.99
      L1  C    15    28       P1  8028  0.90

> <Gold.PLP.Chemscore.Internal.Correction>
0.0023

> <Gold.Rescore>
     Score         DG    S(hbond)    S(metal)    S(lipo)     H(rot)  DE(clash)    DE(int)     intcor
      9.97     -11.64       2.62        0.00      41.67       2.91       0.13       1.54       ----

> <Gold.Chemscore.Fitness>
9.9683

> <Gold.Chemscore.DG>
-11.6374

> <Gold.Chemscore.ZeroCoef>
-5.4800

> <Gold.Chemscore.Hbond>
2.6174

> <Gold.Chemscore.Metal>
0.0000

> <Gold.Chemscore.Lipo>
41.6695

> <Gold.Chemscore.Internal_Hbond>
0.0000

> <Gold.Chemscore.DEClash>
0.1264

> <Gold.Chemscore.DEInternal>
1.5427

> <Gold.Chemscore.Rot>
2.9141

> <Gold.Chemscore.Internal.Correction>
   9.000000E+99

> <Gold.Chemscore.Hbonds>
donor molecule, donor type, donor heavy atom, donor atom, acceptor molecule, acceptor atom, score
      L1  H    13    27       P1  8028  0.97
      P1  H  6933  6945       L1     1  0.06
      P1  H  7989  7998       L1    10  0.47

> <Gold.Chemscore.Hbond.Weighted>
-8.7421

> <Gold.Chemscore.Metal.Weighted>
-0.0000

> <Gold.Chemscore.Lipo.Weighted>
-4.8753

> <Gold.Chemscore.Internal_Hbond.Weighted>
0.0000

> <Gold.Chemscore.DEClash.Weighted>
0.1264

> <Gold.Chemscore.DEInternal.Weighted>
1.5427

> <Gold.Chemscore.Rot.Weighted>
7.4601

> <Gold.Chemscore.Internal.Correction.Weighted>
   9.000000E+99

> <Gold.Protein.RotatedTorsions>
[ 6907 6896 6895 6894 ] final  157.21 input  -60.11 | X-H torsion
[ 7974 7965 7964 7962 ] final  -11.91 input  175.53 | X-H torsion
[ 8008 7997 7996 7995 ] final  148.71 input   59.86 | X-H torsion
[ 10167 10162 10161 10158 ] final  -49.70 input  -65.29 | X-H torsion
[ 10718 10713 10712 10709 ] final  166.31 input   66.30 | X-H torsion
[ 10763 10752 10751 10750 ] final  133.45 input  -60.55 | X-H torsion
[ 11005 11000 10999 10996 ] final -115.05 input  -57.11 | X-H torsion

> <Gold.Protein.ActiveResidues>
 VAL166  LYS551  ARG553  GLY616  TRP617  ASP618  TYR619  PRO620  LYS621  CYS622 
 ASP623  PHE694  ASN695  SER759  ASP760  ASP761  ALA762  ILE779  LEU786  VAL792 
 PHE793  MET794  SER795  GLU796  ALA797  LYS798  CYS799  TRP800  GLU811  SER814 

> <Gold.Protein.RotatedAtoms>
  152.0184  133.3889  159.4247 H   0  0  0  0  0  0  0  0  0  0  0  0  # atno 6907 bound_to 6896
  150.6892  134.3653  159.4978 H   0  0  0  0  0  0  0  0  0  0  0  0  # atno 6908 bound_to 6896
  152.1424  134.9052  160.0603 H   0  0  0  0  0  0  0  0  0  0  0  0  # atno 6909 bound_to 6896
  146.2171  140.2981  142.8373 H   0  0  0  0  0  0  0  0  0  0  0  0  # atno 7974 bound_to 7965
  156.2781  140.2121  156.5741 H   0  0  0  0  0  0  0  0  0  0  0  0  # atno 8008 bound_to 7997
  154.7112  140.0512  157.0574 H   0  0  0  0  0  0  0  0  0  0  0  0  # atno 8009 bound_to 7997
  155.0604  140.3166  155.4665 H   0  0  0  0  0  0  0  0  0  0  0  0  # atno 8010 bound_to 7997
  140.6673  143.2687  151.4253 H   0  0  0  0  0  0  0  0  0  0  0  0  # atno 10167 bound_to 10162
  157.0677  131.0357  151.2623 H   0  0  0  0  0  0  0  0  0  0  0  0  # atno 10718 bound_to 10713
  153.8073  135.3134  155.3397 H   0  0  0  0  0  0  0  0  0  0  0  0  # atno 10763 bound_to 10752
  154.8065  135.4694  154.0409 H   0  0  0  0  0  0  0  0  0  0  0  0  # atno 10764 bound_to 10752
  153.1776  135.6888  153.8610 H   0  0  0  0  0  0  0  0  0  0  0  0  # atno 10765 bound_to 10752
  141.0513  133.9683  157.2831 H   0  0  0  0  0  0  0  0  0  0  0  0  # atno 11005 bound_to 11000
  144.9077  140.7720  143.5827 LP  0  0  0  0  0  0  0  0  0  0  0  0  # atno 17320 bound_to 7965
  145.2910  139.1884  143.4740 LP  0  0  0  0  0  0  0  0  0  0  0  0  # atno 17321 bound_to 7965
  139.5926  144.1466  152.2106 LP  0  0  0  0  0  0  0  0  0  0  0  0  # atno 17342 bound_to 10162
  140.0825  144.5688  150.7112 LP  0  0  0  0  0  0  0  0  0  0  0  0  # atno 17343 bound_to 10162
  157.4903  130.7818  149.7501 LP  0  0  0  0  0  0  0  0  0  0  0  0  # atno 17370 bound_to 10713
  155.9959  130.3909  150.2798 LP  0  0  0  0  0  0  0  0  0  0  0  0  # atno 17371 bound_to 10713
  139.9353  135.0197  156.8534 LP  0  0  0  0  0  0  0  0  0  0  0  0  # atno 17394 bound_to 11000
  140.6050  134.0136  155.7553 LP  0  0  0  0  0  0  0  0  0  0  0  0  # atno 17395 bound_to 11000

$$$$
