AV-unprocessed.smi:625|AV-procd|sdf|3106|dock8
  -GOLD-   22720 0 33D 1   1.00000     0.00000
 Structure written by MMmdl.
 49 51  0  0  0  0  0  0  0  0  1 V2000
  150.1449  132.6760  154.7304 C   0  0  0  0  0  0  0  0  0  0  0  0
  149.0327  132.8236  153.8037 N   0  0  0  0  0  0  0  0  0  0  0  0
  148.1516  131.8517  153.5094 C   0  0  0  0  0  0  0  0  0  0  0  0
  148.2288  130.7346  154.0226 O   0  0  0  0  0  0  0  0  0  0  0  0
  147.1219  132.2436  152.5424 C   0  0  0  0  0  0  0  0  0  0  0  0
  146.2556  131.2252  151.9804 C   0  0  0  0  0  0  0  0  0  0  0  0
  145.3101  131.5458  151.0756 C   0  0  0  0  0  0  0  0  0  0  0  0
  145.1143  132.9254  150.6229 C   0  0  0  0  0  0  0  0  0  0  0  0
  144.2669  133.2223  149.7805 O   0  0  0  0  0  0  0  0  0  0  0  0
  145.9397  133.8590  151.1875 N   0  0  0  0  0  0  0  0  0  0  0  0
  145.8498  135.2793  150.7994 C   0  0  0  0  0  0  0  0  0  0  0  0
  145.4157  136.2262  151.9319 C   0  0  0  0  0  0  0  0  0  0  0  0
  144.2987  136.0935  152.4299 O   0  0  0  0  0  0  0  0  0  0  0  0
  146.2830  137.1740  152.3258 N   0  0  0  0  0  0  0  0  0  0  0  0
  146.0345  138.2109  153.3219 C   0  0  1  0  0  0  0  0  0  0  0  0
  145.8563  137.5554  154.7029 C   0  0  0  0  0  0  0  0  0  0  0  0
  147.1996  139.2301  153.3006 C   0  0  2  0  0  0  0  0  0  0  0  0
  148.5064  138.6932  153.9331 C   0  0  0  0  0  0  0  0  0  0  0  0
  148.8608  139.7655  154.9787 C   0  0  1  0  0  0  0  0  0  0  0  0
  149.2923  141.0604  154.2663 C   0  0  0  0  0  0  0  0  0  0  0  0
  147.9626  141.5955  153.7033 C   0  0  0  0  0  0  0  0  0  0  0  0
  146.9526  140.5152  154.1349 C   0  0  2  0  0  0  0  0  0  0  0  0
  147.4844  140.1374  155.5133 C   0  0  0  0  0  0  0  0  0  0  0  0
  146.9303  133.5159  152.1293 C   0  0  0  0  0  0  0  0  0  0  0  0
  150.7156  133.6035  154.7768 H   0  0  0  0  0  0  0  0  0  0  0  0
  150.8160  131.8786  154.4083 H   0  0  0  0  0  0  0  0  0  0  0  0
  149.7856  132.4458  155.7344 H   0  0  0  0  0  0  0  0  0  0  0  0
  148.9232  133.7209  153.3534 H   0  0  0  0  0  0  0  0  0  0  0  0
  146.3588  130.1924  152.2812 H   0  0  0  0  0  0  0  0  0  0  0  0
  144.6796  130.7670  150.6723 H   0  0  0  0  0  0  0  0  0  0  0  0
  146.8068  135.6263  150.4055 H   0  0  0  0  0  0  0  0  0  0  0  0
  145.1483  135.3999  149.9729 H   0  0  0  0  0  0  0  0  0  0  0  0
  147.1811  137.2036  151.8652 H   0  0  0  0  0  0  0  0  0  0  0  0
  145.1117  138.7334  153.0646 H   0  0  0  0  0  0  0  0  0  0  0  0
  145.6360  138.2948  155.4725 H   0  0  0  0  0  0  0  0  0  0  0  0
  146.7565  137.0197  155.0064 H   0  0  0  0  0  0  0  0  0  0  0  0
  145.0317  136.8420  154.6966 H   0  0  0  0  0  0  0  0  0  0  0  0
  147.3824  139.5086  152.2611 H   0  0  0  0  0  0  0  0  0  0  0  0
  148.3465  137.7351  154.4295 H   0  0  0  0  0  0  0  0  0  0  0  0
  149.2973  138.5538  153.1954 H   0  0  0  0  0  0  0  0  0  0  0  0
  149.5706  139.4226  155.7322 H   0  0  0  0  0  0  0  0  0  0  0  0
  149.7222  141.7706  154.9738 H   0  0  0  0  0  0  0  0  0  0  0  0
  150.0309  140.8752  153.4854 H   0  0  0  0  0  0  0  0  0  0  0  0
  147.7150  142.5567  154.1554 H   0  0  0  0  0  0  0  0  0  0  0  0
  147.9910  141.7350  152.6219 H   0  0  0  0  0  0  0  0  0  0  0  0
  145.9244  140.8773  154.1291 H   0  0  0  0  0  0  0  0  0  0  0  0
  146.9552  139.3007  155.9718 H   0  0  0  0  0  0  0  0  0  0  0  0
  147.5038  140.9739  156.2144 H   0  0  0  0  0  0  0  0  0  0  0  0
  147.5156  134.3584  152.4688 H   0  0  0  0  0  0  0  0  0  0  0  0
  1  2  1  0  0  0  0
  1 25  1  0  0  0  0
  1 26  1  0  0  0  0
  1 27  1  0  0  0  0
  2  3  1  0  0  0  0
  2 28  1  0  0  0  0
  3  4  2  0  0  0  0
  3  5  1  0  0  0  0
  5 24  2  0  0  0  0
  5  6  1  0  0  0  0
  6  7  2  0  0  0  0
  6 29  1  0  0  0  0
  7  8  1  0  0  0  0
  7 30  1  0  0  0  0
  8  9  2  0  0  0  0
  8 10  1  0  0  0  0
 10 11  1  0  0  0  0
 10 24  1  0  0  0  0
 11 12  1  0  0  0  0
 11 31  1  0  0  0  0
 11 32  1  0  0  0  0
 12 13  2  0  0  0  0
 12 14  1  0  0  0  0
 14 15  1  0  0  0  0
 14 33  1  0  0  0  0
 15 16  1  0  0  0  0
 15 17  1  0  0  0  0
 15 34  1  0  0  0  0
 16 35  1  0  0  0  0
 16 36  1  0  0  0  0
 16 37  1  0  0  0  0
 17 22  1  0  0  0  0
 17 18  1  0  0  0  0
 17 38  1  0  0  0  0
 18 19  1  0  0  0  0
 18 39  1  0  0  0  0
 18 40  1  0  0  0  0
 19 23  1  0  0  0  0
 19 20  1  0  0  0  0
 19 41  1  0  0  0  0
 20 21  1  0  0  0  0
 20 42  1  0  0  0  0
 20 43  1  0  0  0  0
 21 22  1  0  0  0  0
 21 44  1  0  0  0  0
 21 45  1  0  0  0  0
 22 23  1  0  0  0  0
 22 46  1  0  0  0  0
 23 47  1  0  0  0  0
 23 48  1  0  0  0  0
 24 49  1  0  0  0  0
M  END
> <s_m_source_file>
AV-unprocessed.smi

> <i_m_source_file_index>
625

> <i_lp_mmshare_version>
43012

> <i_f3d_flags>
0

> <s_epik_input>
W0NIM11bTkhdQyg9TyljMVtjSF1bY0hdYyg9TyluKFtjSF0xKVtDSDJdQyg9TylbTkhdW0NASF0oW0NIM10pW0NASF0oW0NIMl1bQ0BIXTIzKVtDQEhdKFtDSDJdMylbQ0gyXVtDSDJdMg==

> <s_epik_cmdline>
J2VwaWtfcHl0aG9uJywgJy1waCcsICc3LjAnLCAnLXRuJywgJzgnLCAnLW1hJywgJzIwMCcsICctbWV0YWxfYmluZGluZycsICctaW1hZScsICc8aW5maWxlLm1hZT4nLCAnLW9tYWUnLCAnPG91dGZpbGUubWFlPic=

> <r_lp_tautomer_probability>
1

> <r_epik_Ionization_Penalty>
3.7129e-07

> <r_epik_Ionization_Penalty_Charging>
5.04114e-08

> <r_epik_Ionization_Penalty_Neutral>
3.20879e-07

> <r_epik_State_Penalty>
-0

> <r_epik_Charging_Adjusted_Penalty>
5.04114e-08

> <i_epik_Tot_Q>
0

> <i_epik_Tot_abs_Q>
0

> <r_epik_Metal_State_Penalty>
-0

> <b_epik_Metal_Only>
0

> <s_lp_Force_Field>
OPLS_2005

> <r_lp_Energy>
63.073

> <b_lp_Chiralities_Consistent>
1

> <s_lp_Variant>
AV-unprocessed.smi:625-6

> <Gold.Version>
5.8.1

> <Gold.Id.Protein>
6NUR|6NUR_protein|mol2

> <Gold.PLP.Fitness>
43.0543

> <Gold.PLP.PLP>
-37.9867

> <Gold.PLP.part.hbond>
-1.0000

> <Gold.PLP.part.metal>
0.0000

> <Gold.PLP.part.buried>
-6.7165

> <Gold.PLP.part.nonpolar>
-30.5606

> <Gold.PLP.part.repulsive>
0.4397

> <Gold.PLP.ligand.clash>
0.0000

> <Gold.PLP.ligand.torsion>
0.2661

> <Gold.PLP.Chemscore.Hbond>
0.8564

> <Gold.PLP.Chemscore.CHOScore>
1.0000

> <Gold.PLP.Chemscore.Metal>
0.0000

> <Gold.Chemscore.Hbonds>
donor molecule, donor type, donor heavy atom, donor atom, acceptor molecule, acceptor atom, score
      L1  H    14    33       P1  7948  0.83
      L1  C    24    49       P1  7948  1.00

> <Gold.PLP.Chemscore.Internal.Correction>
0.0305

> <Gold.Rescore>
     Score         DG    S(hbond)    S(metal)    S(lipo)     H(rot)  DE(clash)    DE(int)     intcor
     13.90     -14.33       0.91        0.00      86.21       1.67       0.18       0.25       ----

> <Gold.Chemscore.Fitness>
13.8954

> <Gold.Chemscore.DG>
-14.3264

> <Gold.Chemscore.ZeroCoef>
-5.4800

> <Gold.Chemscore.Hbond>
0.9093

> <Gold.Chemscore.Metal>
0.0000

> <Gold.Chemscore.Lipo>
86.2122

> <Gold.Chemscore.Internal_Hbond>
0.0000

> <Gold.Chemscore.DEClash>
0.1772

> <Gold.Chemscore.DEInternal>
0.2538

> <Gold.Chemscore.Rot>
1.6709

> <Gold.Chemscore.Internal.Correction>
   9.000000E+99

> <Gold.Chemscore.Hbonds>
donor molecule, donor type, donor heavy atom, donor atom, acceptor molecule, acceptor atom, score
      L1  H    14    33       P1  7948  0.78

> <Gold.Chemscore.Hbond.Weighted>
-3.0369

> <Gold.Chemscore.Metal.Weighted>
-0.0000

> <Gold.Chemscore.Lipo.Weighted>
-10.0868

> <Gold.Chemscore.Internal_Hbond.Weighted>
0.0000

> <Gold.Chemscore.DEClash.Weighted>
0.1772

> <Gold.Chemscore.DEInternal.Weighted>
0.2538

> <Gold.Chemscore.Rot.Weighted>
4.2774

> <Gold.Chemscore.Internal.Correction.Weighted>
   9.000000E+99

> <Gold.Protein.RotatedTorsions>
[ 6907 6896 6895 6894 ] final  -76.87 input  -60.11 | X-H torsion
[ 7974 7965 7964 7962 ] final -156.62 input  175.53 | X-H torsion
[ 8008 7997 7996 7995 ] final -138.07 input   59.86 | X-H torsion
[ 10167 10162 10161 10158 ] final   36.39 input  -65.29 | X-H torsion
[ 10718 10713 10712 10709 ] final  -18.69 input   66.30 | X-H torsion
[ 10763 10752 10751 10750 ] final  -13.88 input  -60.55 | X-H torsion
[ 11005 11000 10999 10996 ] final  111.94 input  -57.11 | X-H torsion

> <Gold.Protein.ActiveResidues>
 VAL166  LYS551  ARG553  GLY616  TRP617  ASP618  TYR619  PRO620  LYS621  CYS622 
 ASP623  PHE694  ASN695  SER759  ASP760  ASP761  ALA762  ILE779  LEU786  VAL792 
 PHE793  MET794  SER795  GLU796  ALA797  LYS798  CYS799  TRP800  GLU811  SER814 

> <Gold.Protein.RotatedAtoms>
  150.7015  134.4508  159.5335 H   0  0  0  0  0  0  0  0  0  0  0  0  # atno 6907 bound_to 6896
  152.2201  134.8418  160.0496 H   0  0  0  0  0  0  0  0  0  0  0  0  # atno 6908 bound_to 6896
  151.9272  133.3566  159.3955 H   0  0  0  0  0  0  0  0  0  0  0  0  # atno 6909 bound_to 6896
  144.7585  140.4084  143.5994 H   0  0  0  0  0  0  0  0  0  0  0  0  # atno 7974 bound_to 7965
  155.4223  140.0519  157.3025 H   0  0  0  0  0  0  0  0  0  0  0  0  # atno 8008 bound_to 7997
  154.4897  140.2115  155.9534 H   0  0  0  0  0  0  0  0  0  0  0  0  # atno 8009 bound_to 7997
  156.1325  140.3169  155.8375 H   0  0  0  0  0  0  0  0  0  0  0  0  # atno 8010 bound_to 7997
  140.4132  144.1563  150.6141 H   0  0  0  0  0  0  0  0  0  0  0  0  # atno 10167 bound_to 10162
  156.5560  130.4713  149.6429 H   0  0  0  0  0  0  0  0  0  0  0  0  # atno 10718 bound_to 10713
  153.5199  135.7016  153.5737 H   0  0  0  0  0  0  0  0  0  0  0  0  # atno 10763 bound_to 10752
  153.3790  135.3925  155.1843 H   0  0  0  0  0  0  0  0  0  0  0  0  # atno 10764 bound_to 10752
  154.8695  135.3830  154.4687 H   0  0  0  0  0  0  0  0  0  0  0  0  # atno 10765 bound_to 10752
  139.8915  134.9519  156.6509 H   0  0  0  0  0  0  0  0  0  0  0  0  # atno 11005 bound_to 11000
  145.6698  139.1597  143.2761 LP  0  0  0  0  0  0  0  0  0  0  0  0  # atno 17320 bound_to 7965
  146.1622  140.6771  142.9272 LP  0  0  0  0  0  0  0  0  0  0  0  0  # atno 17321 bound_to 7965
  140.4615  143.2447  151.9213 LP  0  0  0  0  0  0  0  0  0  0  0  0  # atno 17342 bound_to 10162
  139.4782  144.5462  151.8454 LP  0  0  0  0  0  0  0  0  0  0  0  0  # atno 17343 bound_to 10162
  156.2841  130.7087  151.1919 LP  0  0  0  0  0  0  0  0  0  0  0  0  # atno 17370 bound_to 10713
  157.7378  131.0548  150.5334 LP  0  0  0  0  0  0  0  0  0  0  0  0  # atno 17371 bound_to 10713
  140.7521  133.8888  155.8355 LP  0  0  0  0  0  0  0  0  0  0  0  0  # atno 17394 bound_to 11000
  140.9992  134.1174  157.4334 LP  0  0  0  0  0  0  0  0  0  0  0  0  # atno 17395 bound_to 11000

$$$$
