AV-unprocessed.smi:1893|AV-procd|sdf|7674|dock7
  -GOLD-   22720 9413D 1   1.00000     0.00000
 Structure written by MMmdl.
 43 44  0  0  0  0  0  0  0  0  2 V2000
  151.1084  145.2987  159.5596 C   0  0  0  0  0  0  0  0  0  0  0  0
  152.0871  144.1103  159.4798 C   0  0  1  0  0  0  0  0  0  0  0  0
  152.3960  143.6154  160.9100 C   0  0  0  0  0  0  0  0  0  0  0  0
  153.3511  142.4183  160.9103 C   0  0  0  0  0  0  0  0  0  0  0  0
  152.7696  141.3022  160.0406 C   0  0  0  0  0  0  0  0  0  0  0  0
  152.4875  141.8178  158.6229 C   0  0  0  0  0  0  0  0  0  0  0  0
  151.5705  142.9909  158.6290 N   0  3  2  0  0  0  0  0  0  0  0  0
  151.2003  143.3929  157.2442 C   0  0  0  0  0  0  0  0  0  0  0  0
  150.9814  142.1666  156.3387 C   0  0  0  0  0  0  0  0  0  0  0  0
  149.6275  142.1408  155.7995 N   0  0  0  0  0  0  0  0  0  0  0  0
  149.1991  141.3088  154.8366 C   0  0  0  0  0  0  0  0  0  0  0  0
  149.9187  140.4475  154.3291 O   0  0  0  0  0  0  0  0  0  0  0  0
  147.7438  141.4921  154.3765 C   0  0  2  0  0  0  0  0  0  0  0  0
  146.7514  141.5967  155.5524 C   0  0  0  0  0  0  0  0  0  0  0  0
  147.3748  140.4355  153.4424 N   0  0  0  0  0  0  0  0  0  0  0  0
  147.4011  139.1093  153.5925 C   0  0  0  0  0  0  0  0  0  0  0  0
  146.9456  138.4394  152.5434 N   0  0  0  0  0  0  0  0  0  0  0  0
  146.6282  139.4856  151.7245 C   0  0  0  0  0  0  0  0  0  0  0  0
  146.8528  140.7027  152.2191 N   0  0  0  0  0  0  0  0  0  0  0  0
  151.4912  146.0714  160.2269 H   0  0  0  0  0  0  0  0  0  0  0  0
  150.1368  144.9871  159.9445 H   0  0  0  0  0  0  0  0  0  0  0  0
  150.9515  145.7747  158.5922 H   0  0  0  0  0  0  0  0  0  0  0  0
  153.0174  144.4661  159.0337 H   0  0  0  0  0  0  0  0  0  0  0  0
  152.8314  144.4232  161.4997 H   0  0  0  0  0  0  0  0  0  0  0  0
  151.4684  143.3361  161.4122 H   0  0  0  0  0  0  0  0  0  0  0  0
  154.3271  142.7198  160.5276 H   0  0  0  0  0  0  0  0  0  0  0  0
  153.5089  142.0608  161.9284 H   0  0  0  0  0  0  0  0  0  0  0  0
  153.4631  140.4616  160.0008 H   0  0  0  0  0  0  0  0  0  0  0  0
  151.8485  140.9248  160.4871 H   0  0  0  0  0  0  0  0  0  0  0  0
  153.4229  142.0897  158.1309 H   0  0  0  0  0  0  0  0  0  0  0  0
  152.0434  141.0110  158.0380 H   0  0  0  0  0  0  0  0  0  0  0  0
  150.3204  144.0378  157.2488 H   0  0  0  0  0  0  0  0  0  0  0  0
  151.9925  144.0029  156.8072 H   0  0  0  0  0  0  0  0  0  0  0  0
  151.7075  142.1593  155.5238 H   0  0  0  0  0  0  0  0  0  0  0  0
  151.1348  141.2420  156.8934 H   0  0  0  0  0  0  0  0  0  0  0  0
  148.9740  142.8163  156.1687 H   0  0  0  0  0  0  0  0  0  0  0  0
  147.6957  142.4352  153.8291 H   0  0  0  0  0  0  0  0  0  0  0  0
  147.0116  142.4231  156.2148 H   0  0  0  0  0  0  0  0  0  0  0  0
  146.7286  140.6866  156.1531 H   0  0  0  0  0  0  0  0  0  0  0  0
  145.7389  141.7769  155.1902 H   0  0  0  0  0  0  0  0  0  0  0  0
  147.7556  138.6234  154.4899 H   0  0  0  0  0  0  0  0  0  0  0  0
  146.2114  139.3464  150.7377 H   0  0  0  0  0  0  0  0  0  0  0  0
  150.7184  142.6684  159.0653 H   0  0  0  0  0  0  0  0  0  0  0  0
  1  2  1  0  0  0  0
  1 20  1  0  0  0  0
  1 21  1  0  0  0  0
  1 22  1  0  0  0  0
  2  7  1  0  0  0  0
  2  3  1  0  0  0  0
  2 23  1  0  0  0  0
  3  4  1  0  0  0  0
  3 24  1  0  0  0  0
  3 25  1  0  0  0  0
  4  5  1  0  0  0  0
  4 26  1  0  0  0  0
  4 27  1  0  0  0  0
  5  6  1  0  0  0  0
  5 28  1  0  0  0  0
  5 29  1  0  0  0  0
  6  7  1  0  0  0  0
  6 30  1  0  0  0  0
  6 31  1  0  0  0  0
  7  8  1  0  0  0  0
  7 43  1  0  0  0  0
  8  9  1  0  0  0  0
  8 32  1  0  0  0  0
  8 33  1  0  0  0  0
  9 10  1  0  0  0  0
  9 34  1  0  0  0  0
  9 35  1  0  0  0  0
 10 11  1  0  0  0  0
 10 36  1  0  0  0  0
 11 12  2  0  0  0  0
 11 13  1  0  0  0  0
 13 14  1  0  0  0  0
 13 15  1  0  0  0  0
 13 37  1  0  0  0  0
 14 38  1  0  0  0  0
 14 39  1  0  0  0  0
 14 40  1  0  0  0  0
 15 19  1  0  0  0  0
 15 16  1  0  0  0  0
 16 17  2  0  0  0  0
 16 41  1  0  0  0  0
 17 18  1  0  0  0  0
 18 19  2  0  0  0  0
 18 42  1  0  0  0  0
M  CHG  1   7   1
M  END
> <s_m_source_file>
AV-unprocessed.smi

> <i_m_source_file_index>
1893

> <i_lp_mmshare_version>
43012

> <i_f3d_flags>
0

> <s_epik_input>
W0NIM11bQ0BASF0xW0NIMl1bQ0gyXVtDSDJdW0NIMl1OMVtDSDJdW0NIMl1bTkhdQyg9TylbQ0BIXShbQ0gzXSluMltjSF1uW2NIXW4y

> <s_epik_cmdline>
J2VwaWtfcHl0aG9uJywgJy1waCcsICc3LjAnLCAnLXRuJywgJzgnLCAnLW1hJywgJzIwMCcsICctbWV0YWxfYmluZGluZycsICctaW1hZScsICc8aW5maWxlLm1hZT4nLCAnLW9tYWUnLCAnPG91dGZpbGUubWFlPic=

> <r_lp_tautomer_probability>
1

> <r_epik_Ionization_Penalty>
0.00266409

> <r_epik_Ionization_Penalty_Charging>
0.00265606

> <r_epik_Ionization_Penalty_Neutral>
8.02794e-06

> <r_epik_State_Penalty>
0.00184955

> <r_epik_Charging_Adjusted_Penalty>
0.00450561

> <i_epik_Tot_Q>
1

> <i_epik_Tot_abs_Q>
1

> <r_epik_Metal_State_Penalty>
-0

> <b_epik_Metal_Only>
0

> <s_lp_Force_Field>
OPLS_2005

> <r_lp_Energy>
24.4169

> <b_lp_Chiralities_Consistent>
1

> <s_lp_Variant>
AV-unprocessed.smi:1893-4

> <Gold.Version>
5.8.1

> <Gold.Id.Protein>
6NUR|6NUR_protein|mol2

> <Gold.PLP.Fitness>
46.3412

> <Gold.PLP.PLP>
-40.4656

> <Gold.PLP.part.hbond>
-2.0000

> <Gold.PLP.part.metal>
0.0000

> <Gold.PLP.part.buried>
-3.2483

> <Gold.PLP.part.nonpolar>
-36.2061

> <Gold.PLP.part.repulsive>
1.4930

> <Gold.PLP.ligand.clash>
0.0000

> <Gold.PLP.ligand.torsion>
0.8911

> <Gold.PLP.Chemscore.Hbond>
1.5040

> <Gold.PLP.Chemscore.CHOScore>
1.0000

> <Gold.PLP.Chemscore.Metal>
0.0000

> <Gold.Chemscore.Hbonds>
donor molecule, donor type, donor heavy atom, donor atom, acceptor molecule, acceptor atom, score
      L1  H    10    36       P1  8028  0.51
      P1  H  7989  7998       L1    12  0.83
      L1  C    18    42       P1 10171  0.83

> <Gold.PLP.Chemscore.Internal.Correction>
0.1458

> <Gold.Rescore>
     Score         DG    S(hbond)    S(metal)    S(lipo)     H(rot)  DE(clash)    DE(int)     intcor
     13.06     -15.53       1.50        0.00      98.44       2.54       0.54       1.93       ----

> <Gold.Chemscore.Fitness>
13.0588

> <Gold.Chemscore.DG>
-15.5266

> <Gold.Chemscore.ZeroCoef>
-5.4800

> <Gold.Chemscore.Hbond>
1.5046

> <Gold.Chemscore.Metal>
0.0000

> <Gold.Chemscore.Lipo>
98.4422

> <Gold.Chemscore.Internal_Hbond>
0.0000

> <Gold.Chemscore.DEClash>
0.5363

> <Gold.Chemscore.DEInternal>
1.9315

> <Gold.Chemscore.Rot>
2.5377

> <Gold.Chemscore.Internal.Correction>
   9.000000E+99

> <Gold.Chemscore.Hbonds>
donor molecule, donor type, donor heavy atom, donor atom, acceptor molecule, acceptor atom, score
      L1  H    10    36       P1  8028  0.51
      P1  H  7989  7998       L1    12  0.80

> <Gold.Chemscore.Hbond.Weighted>
-5.0254

> <Gold.Chemscore.Metal.Weighted>
-0.0000

> <Gold.Chemscore.Lipo.Weighted>
-11.5177

> <Gold.Chemscore.Internal_Hbond.Weighted>
0.0000

> <Gold.Chemscore.DEClash.Weighted>
0.5363

> <Gold.Chemscore.DEInternal.Weighted>
1.9315

> <Gold.Chemscore.Rot.Weighted>
6.4966

> <Gold.Chemscore.Internal.Correction.Weighted>
   9.000000E+99

> <Gold.Protein.RotatedTorsions>
[ 6907 6896 6895 6894 ] final  124.30 input  -60.11 | X-H torsion
[ 7974 7965 7964 7962 ] final  -73.76 input  175.53 | X-H torsion
[ 8008 7997 7996 7995 ] final    0.65 input   59.86 | X-H torsion
[ 10167 10162 10161 10158 ] final -132.24 input  -65.29 | X-H torsion
[ 10718 10713 10712 10709 ] final   48.39 input   66.30 | X-H torsion
[ 10763 10752 10751 10750 ] final   67.15 input  -60.55 | X-H torsion
[ 11005 11000 10999 10996 ] final -101.40 input  -57.11 | X-H torsion

> <Gold.Protein.ActiveResidues>
 VAL166  LYS551  ARG553  GLY616  TRP617  ASP618  TYR619  PRO620  LYS621  CYS622 
 ASP623  PHE694  ASN695  SER759  ASP760  ASP761  ALA762  ILE779  LEU786  VAL792 
 PHE793  MET794  SER795  GLU796  ALA797  LYS798  CYS799  TRP800  GLU811  SER814 

> <Gold.Protein.RotatedAtoms>
  152.4089  133.6933  159.6380 H   0  0  0  0  0  0  0  0  0  0  0  0  # atno 6907 bound_to 6896
  150.7971  133.8659  159.3253 H   0  0  0  0  0  0  0  0  0  0  0  0  # atno 6908 bound_to 6896
  151.6406  135.1015  160.0192 H   0  0  0  0  0  0  0  0  0  0  0  0  # atno 6909 bound_to 6896
  145.6479  140.9291  143.1000 H   0  0  0  0  0  0  0  0  0  0  0  0  # atno 7974 bound_to 7965
  154.6705  140.2611  155.7012 H   0  0  0  0  0  0  0  0  0  0  0  0  # atno 8008 bound_to 7997
  156.2657  140.2830  156.1134 H   0  0  0  0  0  0  0  0  0  0  0  0  # atno 8009 bound_to 7997
  155.1175  140.0376  157.2731 H   0  0  0  0  0  0  0  0  0  0  0  0  # atno 8010 bound_to 7997
  139.9106  143.6498  152.2576 H   0  0  0  0  0  0  0  0  0  0  0  0  # atno 10167 bound_to 10162
  157.4681  130.8238  149.7958 H   0  0  0  0  0  0  0  0  0  0  0  0  # atno 10718 bound_to 10713
  153.0172  135.5294  154.6934 H   0  0  0  0  0  0  0  0  0  0  0  0  # atno 10763 bound_to 10752
  154.6063  135.2873  155.0483 H   0  0  0  0  0  0  0  0  0  0  0  0  # atno 10764 bound_to 10752
  154.1522  135.6561  153.5018 H   0  0  0  0  0  0  0  0  0  0  0  0  # atno 10765 bound_to 10752
  141.1232  133.8475  157.1227 H   0  0  0  0  0  0  0  0  0  0  0  0  # atno 11005 bound_to 11000
  144.7133  139.8289  143.7407 LP  0  0  0  0  0  0  0  0  0  0  0  0  # atno 17320 bound_to 7965
  146.1228  139.4248  143.0218 LP  0  0  0  0  0  0  0  0  0  0  0  0  # atno 17321 bound_to 7965
  139.6946  144.7643  151.1379 LP  0  0  0  0  0  0  0  0  0  0  0  0  # atno 17342 bound_to 10162
  140.7686  143.5542  150.9171 LP  0  0  0  0  0  0  0  0  0  0  0  0  # atno 17343 bound_to 10162
  156.0060  130.3855  150.2430 LP  0  0  0  0  0  0  0  0  0  0  0  0  # atno 17370 bound_to 10713
  157.0611  131.0090  151.3222 LP  0  0  0  0  0  0  0  0  0  0  0  0  # atno 17371 bound_to 10713
  140.0207  134.9947  157.0585 LP  0  0  0  0  0  0  0  0  0  0  0  0  # atno 17394 bound_to 11000
  140.4445  134.1647  155.7176 LP  0  0  0  0  0  0  0  0  0  0  0  0  # atno 17395 bound_to 11000

$$$$
