AV-unprocessed.smi:311|AV-procd|sdf|2301|dock10
  -GOLD-   2262022203D 1   1.00000     0.00000
 Structure written by MMmdl.
 44 46  0  0  0  0  0  0  0  0  2 V2000
  149.5514  133.1924  154.8468 C   0  0  0  0  0  0  0  0  0  0  0  0
  150.3231  132.5108  155.9402 C   0  0  0  0  0  0  0  0  0  0  0  0
  150.5704  133.1587  157.0661 N   0  0  0  0  0  0  0  0  0  0  0  0
  151.3038  132.2748  157.8636 O   0  0  0  0  0  0  0  0  0  0  0  0
  151.4731  131.1163  157.1768 C   0  0  0  0  0  0  0  0  0  0  0  0
  152.2448  130.0375  157.8585 C   0  0  0  0  0  0  0  0  0  0  0  0
  150.8743  131.1971  155.9497 C   0  0  0  0  0  0  0  0  0  0  0  0
  150.8147  130.1543  154.8632 C   0  0  0  0  0  0  0  0  0  0  0  0
  149.3637  129.7298  154.6317 C   0  0  0  0  0  0  0  0  0  0  0  0
  148.9253  128.7111  155.1659 O   0  0  0  0  0  0  0  0  0  0  0  0
  148.6280  130.5169  153.8309 N   0  0  0  0  0  0  0  0  0  0  0  0
  147.2452  130.2575  153.4344 C   0  0  2  0  0  0  0  0  0  0  0  0
  147.0938  128.9945  152.5660 C   0  0  0  0  0  0  0  0  0  0  0  0
  146.0353  129.3696  151.5234 C   0  0  0  0  0  0  0  0  0  0  0  0
  146.2899  130.7973  151.2997 N   0  3  1  0  0  0  0  0  0  0  0  0
  145.3058  131.5809  150.5260 C   0  0  0  0  0  0  0  0  0  0  0  0
  145.8978  132.9831  150.2674 C   0  0  0  0  0  0  0  0  0  0  0  0
  146.3812  133.6647  151.5680 C   0  0  0  0  0  0  0  0  0  0  0  0
  147.3009  132.7404  152.3959 C   0  0  0  0  0  0  0  0  0  0  0  0
  146.5878  131.3937  152.6135 C   0  0  2  0  0  0  0  0  0  0  0  0
  148.8537  132.5033  154.3711 H   0  0  0  0  0  0  0  0  0  0  0  0
  150.2228  133.5702  154.0756 H   0  0  0  0  0  0  0  0  0  0  0  0
  148.9735  134.0354  155.2266 H   0  0  0  0  0  0  0  0  0  0  0  0
  153.0334  129.6591  157.2081 H   0  0  0  0  0  0  0  0  0  0  0  0
  151.5927  129.2042  158.1197 H   0  0  0  0  0  0  0  0  0  0  0  0
  152.7100  130.4034  158.7740 H   0  0  0  0  0  0  0  0  0  0  0  0
  151.2141  130.5356  153.9230 H   0  0  0  0  0  0  0  0  0  0  0  0
  151.4229  129.2854  155.1187 H   0  0  0  0  0  0  0  0  0  0  0  0
  149.0703  131.3368  153.4408 H   0  0  0  0  0  0  0  0  0  0  0  0
  146.6510  130.1061  154.3380 H   0  0  0  0  0  0  0  0  0  0  0  0
  148.0334  128.7692  152.0584 H   0  0  0  0  0  0  0  0  0  0  0  0
  146.8141  128.1152  153.1470 H   0  0  0  0  0  0  0  0  0  0  0  0
  146.1234  128.7891  150.6045 H   0  0  0  0  0  0  0  0  0  0  0  0
  145.0311  129.2323  151.9276 H   0  0  0  0  0  0  0  0  0  0  0  0
  145.0961  131.0806  149.5798 H   0  0  0  0  0  0  0  0  0  0  0  0
  144.3643  131.6495  151.0731 H   0  0  0  0  0  0  0  0  0  0  0  0
  146.7407  132.8919  149.5810 H   0  0  0  0  0  0  0  0  0  0  0  0
  145.1628  133.6132  149.7656 H   0  0  0  0  0  0  0  0  0  0  0  0
  146.8983  134.5956  151.3333 H   0  0  0  0  0  0  0  0  0  0  0  0
  145.5141  133.9394  152.1701 H   0  0  0  0  0  0  0  0  0  0  0  0
  148.2487  132.5906  151.8767 H   0  0  0  0  0  0  0  0  0  0  0  0
  147.5307  133.2142  153.3504 H   0  0  0  0  0  0  0  0  0  0  0  0
  145.6329  131.6018  153.1013 H   0  0  0  0  0  0  0  0  0  0  0  0
  147.1540  130.8334  150.7779 H   0  0  0  0  0  0  0  0  0  0  0  0
  1  2  1  0  0  0  0
  1 21  1  0  0  0  0
  1 22  1  0  0  0  0
  1 23  1  0  0  0  0
  2  7  1  0  0  0  0
  2  3  2  0  0  0  0
  3  4  1  0  0  0  0
  4  5  1  0  0  0  0
  5  6  1  0  0  0  0
  5  7  2  0  0  0  0
  6 24  1  0  0  0  0
  6 25  1  0  0  0  0
  6 26  1  0  0  0  0
  7  8  1  0  0  0  0
  8  9  1  0  0  0  0
  8 27  1  0  0  0  0
  8 28  1  0  0  0  0
  9 10  2  0  0  0  0
  9 11  1  0  0  0  0
 11 12  1  0  0  0  0
 11 29  1  0  0  0  0
 12 20  1  0  0  0  0
 12 13  1  0  0  0  0
 12 30  1  0  0  0  0
 13 14  1  0  0  0  0
 13 31  1  0  0  0  0
 13 32  1  0  0  0  0
 14 15  1  0  0  0  0
 14 33  1  0  0  0  0
 14 34  1  0  0  0  0
 15 20  1  0  0  0  0
 15 16  1  0  0  0  0
 15 44  1  0  0  0  0
 16 17  1  0  0  0  0
 16 35  1  0  0  0  0
 16 36  1  0  0  0  0
 17 18  1  0  0  0  0
 17 37  1  0  0  0  0
 17 38  1  0  0  0  0
 18 19  1  0  0  0  0
 18 39  1  0  0  0  0
 18 40  1  0  0  0  0
 19 20  1  0  0  0  0
 19 41  1  0  0  0  0
 19 42  1  0  0  0  0
 20 43  1  0  0  0  0
M  CHG  1  15   1
M  END
> <s_m_source_file>
AV-unprocessed.smi

> <i_m_source_file_index>
311

> <i_lp_mmshare_version>
43012

> <i_f3d_flags>
0

> <s_epik_input>
W0NIM11jMW5vYyhbQ0gzXSljMVtDSDJdQyg9TylbTkhdW0NASF0oW0NIMl1bQ0gyXTIpW0NAQEhdKE4yMylbQ0gyXVtDSDJdW0NIMl1bQ0gyXTM=

> <s_epik_cmdline>
J2VwaWtfcHl0aG9uJywgJy1waCcsICc3LjAnLCAnLXRuJywgJzgnLCAnLW1hJywgJzIwMCcsICctbWV0YWxfYmluZGluZycsICctaW1hZScsICc8aW5maWxlLm1hZT4nLCAnLW9tYWUnLCAnPG91dGZpbGUubWFlPic=

> <r_epik_Ionization_Penalty>
0.00173669

> <r_epik_Ionization_Penalty_Charging>
0.0017366

> <r_epik_Ionization_Penalty_Neutral>
9.2145e-08

> <r_epik_State_Penalty>
0.00117499

> <r_epik_Charging_Adjusted_Penalty>
0.00291159

> <i_epik_Tot_Q>
1

> <i_epik_Tot_abs_Q>
1

> <r_epik_Metal_State_Penalty>
-0

> <b_epik_Metal_Only>
0

> <s_lp_Force_Field>
OPLS_2005

> <r_lp_Energy>
35.7975

> <b_lp_Chiralities_Consistent>
1

> <s_lp_Variant>
AV-unprocessed.smi:311-5

> <Gold.Version>
5.8.1

> <Gold.Id.Protein>
6NUR|6NUR_protein|mol2

> <Gold.PLP.Fitness>
39.5098

> <Gold.PLP.PLP>
-34.2722

> <Gold.PLP.part.hbond>
-2.5589

> <Gold.PLP.part.metal>
0.0000

> <Gold.PLP.part.buried>
-4.6872

> <Gold.PLP.part.nonpolar>
-26.9168

> <Gold.PLP.part.repulsive>
0.0517

> <Gold.PLP.ligand.clash>
0.0000

> <Gold.PLP.ligand.torsion>
0.3695

> <Gold.PLP.Chemscore.Hbond>
1.9920

> <Gold.PLP.Chemscore.CHOScore>
0.0000

> <Gold.PLP.Chemscore.Metal>
0.0000

> <Gold.Chemscore.Hbonds>
donor molecule, donor type, donor heavy atom, donor atom, acceptor molecule, acceptor atom, score
      L1  H    15    44       P1 10747  1.00
      P1  H  6896  6909       L1     4  0.98

> <Gold.PLP.Chemscore.Internal.Correction>
0.0006

> <Gold.Rescore>
     Score         DG    S(hbond)    S(metal)    S(lipo)     H(rot)  DE(clash)    DE(int)     intcor
     18.00     -18.47       1.70        0.00      92.17       1.36       0.03       0.45       ----

> <Gold.Chemscore.Fitness>
17.9955

> <Gold.Chemscore.DG>
-18.4687

> <Gold.Chemscore.ZeroCoef>
-5.4800

> <Gold.Chemscore.Hbond>
1.7001

> <Gold.Chemscore.Metal>
0.0000

> <Gold.Chemscore.Lipo>
92.1668

> <Gold.Chemscore.Internal_Hbond>
0.0000

> <Gold.Chemscore.DEClash>
0.0270

> <Gold.Chemscore.DEInternal>
0.4462

> <Gold.Chemscore.Rot>
1.3567

> <Gold.Chemscore.Internal.Correction>
   9.000000E+99

> <Gold.Chemscore.Hbonds>
donor molecule, donor type, donor heavy atom, donor atom, acceptor molecule, acceptor atom, score
      L1  H    15    44       P1 10747  1.00
      P1  H  6896  6909       L1     4  0.37

> <Gold.Chemscore.Hbond.Weighted>
-5.6783

> <Gold.Chemscore.Metal.Weighted>
-0.0000

> <Gold.Chemscore.Lipo.Weighted>
-10.7835

> <Gold.Chemscore.Internal_Hbond.Weighted>
0.0000

> <Gold.Chemscore.DEClash.Weighted>
0.0270

> <Gold.Chemscore.DEInternal.Weighted>
0.4462

> <Gold.Chemscore.Rot.Weighted>
3.4731

> <Gold.Chemscore.Internal.Correction.Weighted>
   9.000000E+99

> <Gold.Protein.RotatedTorsions>
[ 6907 6896 6895 6894 ] final  -66.82 input  -60.11 | X-H torsion
[ 7974 7965 7964 7962 ] final -149.05 input  175.53 | X-H torsion
[ 8008 7997 7996 7995 ] final -165.67 input   59.86 | X-H torsion
[ 10167 10162 10161 10158 ] final  -99.57 input  -65.29 | X-H torsion
[ 10718 10713 10712 10709 ] final  -71.86 input   66.30 | X-H torsion
[ 10763 10752 10751 10750 ] final   72.20 input  -60.55 | X-H torsion
[ 11005 11000 10999 10996 ] final  172.32 input  -57.11 | X-H torsion

> <Gold.Protein.ActiveResidues>
 VAL166  LYS551  ARG553  GLY616  TRP617  ASP618  TYR619  PRO620  LYS621  CYS622 
 ASP623  PHE694  ASN695  SER759  ASP760  ASP761  ALA762  ILE779  LEU786  VAL792 
 PHE793  MET794  SER795  GLU796  ALA797  LYS798  CYS799  TRP800  GLU811  SER814 

> <Gold.Protein.RotatedAtoms>
  150.7443  134.5967  159.6015 H   0  0  0  0  0  0  0  0  0  0  0  0  # atno 6907 bound_to 6896
  152.3340  134.7219  160.0291 H   0  0  0  0  0  0  0  0  0  0  0  0  # atno 6908 bound_to 6896
  151.7694  133.3304  159.3476 H   0  0  0  0  0  0  0  0  0  0  0  0  # atno 6909 bound_to 6896
  144.7991  140.5116  143.5719 H   0  0  0  0  0  0  0  0  0  0  0  0  # atno 7974 bound_to 7965
  155.8531  140.0966  157.1662 H   0  0  0  0  0  0  0  0  0  0  0  0  # atno 8008 bound_to 7997
  154.3986  140.1379  156.3930 H   0  0  0  0  0  0  0  0  0  0  0  0  # atno 8009 bound_to 7997
  155.7940  140.3455  155.5367 H   0  0  0  0  0  0  0  0  0  0  0  0  # atno 8010 bound_to 7997
  140.2610  143.3407  152.0625 H   0  0  0  0  0  0  0  0  0  0  0  0  # atno 10167 bound_to 10162
  156.0345  130.4360  150.2506 H   0  0  0  0  0  0  0  0  0  0  0  0  # atno 10718 bound_to 10713
  153.0444  135.5109  154.7707 H   0  0  0  0  0  0  0  0  0  0  0  0  # atno 10763 bound_to 10752
  154.6619  135.2940  154.9857 H   0  0  0  0  0  0  0  0  0  0  0  0  # atno 10764 bound_to 10752
  154.0705  135.6678  153.4876 H   0  0  0  0  0  0  0  0  0  0  0  0  # atno 10765 bound_to 10752
  140.3285  134.7377  157.4117 H   0  0  0  0  0  0  0  0  0  0  0  0  # atno 11005 bound_to 11000
  145.5598  139.1479  143.3348 LP  0  0  0  0  0  0  0  0  0  0  0  0  # atno 17320 bound_to 7965
  146.2268  140.5734  142.8993 LP  0  0  0  0  0  0  0  0  0  0  0  0  # atno 17321 bound_to 7965
  139.5017  144.6718  151.6224 LP  0  0  0  0  0  0  0  0  0  0  0  0  # atno 17342 bound_to 10162
  140.5965  143.9686  150.6358 LP  0  0  0  0  0  0  0  0  0  0  0  0  # atno 17343 bound_to 10162
  157.0607  131.0089  151.3223 LP  0  0  0  0  0  0  0  0  0  0  0  0  # atno 17370 bound_to 10713
  157.5073  130.7916  149.7667 LP  0  0  0  0  0  0  0  0  0  0  0  0  # atno 17371 bound_to 10713
  140.0881  134.5639  155.8472 LP  0  0  0  0  0  0  0  0  0  0  0  0  # atno 17394 bound_to 11000
  141.2069  133.6659  156.6273 LP  0  0  0  0  0  0  0  0  0  0  0  0  # atno 17395 bound_to 11000

$$$$
