AV-unprocessed.smi:3044|AV-procd|sdf|11607|dock6
  -GOLD-   2272016583D 1   1.00000     0.00000
 Structure written by MMmdl.
 41 42  0  0  0  0  0  0  0  0  1 V2000
  146.9130  137.1671  155.8937 C   0  0  0  0  0  0  0  0  0  0  0  0
  146.9225  137.8655  154.5448 C   0  0  0  0  0  0  0  0  0  0  0  0
  146.0490  137.3810  153.6338 N   0  0  0  0  0  0  0  0  0  0  0  0
  146.0110  137.9590  152.4153 C   0  0  0  0  0  0  0  0  0  0  0  0
  146.8402  139.0345  152.0460 C   0  0  0  0  0  0  0  0  0  0  0  0
  147.7489  139.5384  152.9955 C   0  0  0  0  0  0  0  0  0  0  0  0
  147.7903  138.9546  154.2848 C   0  0  0  0  0  0  0  0  0  0  0  0
  148.6864  139.3801  155.3039 N   0  0  0  0  0  0  0  0  0  0  0  0
  149.9402  139.8533  155.1773 C   0  0  0  0  0  0  0  0  0  0  0  0
  150.5369  139.9725  154.1080 O   0  0  0  0  0  0  0  0  0  0  0  0
  150.6413  140.2645  156.4732 C   0  0  0  0  0  0  0  0  0  0  0  0
  150.9000  141.6636  156.4500 O   0  0  0  0  0  0  0  0  0  0  0  0
  151.0421  142.2589  157.7323 C   0  0  2  0  0  0  0  0  0  0  0  0
  151.3498  143.7495  157.5123 C   0  0  0  0  0  0  0  0  0  0  0  0
  151.6046  144.4691  158.8450 C   0  0  0  0  0  0  0  0  0  0  0  0
  152.7370  143.7914  159.6324 C   0  0  0  0  0  0  0  0  0  0  0  0
  152.4487  142.2953  159.8634 C   0  0  2  0  0  0  0  0  0  0  0  0
  153.5868  141.6198  160.6420 C   0  0  0  0  0  0  0  0  0  0  0  0
  152.1806  141.5817  158.5234 C   0  0  0  0  0  0  0  0  0  0  0  0
  146.6644  137.8748  156.6850 H   0  0  0  0  0  0  0  0  0  0  0  0
  147.8934  136.7413  156.1082 H   0  0  0  0  0  0  0  0  0  0  0  0
  146.1813  136.3588  155.9231 H   0  0  0  0  0  0  0  0  0  0  0  0
  145.3026  137.5479  151.7114 H   0  0  0  0  0  0  0  0  0  0  0  0
  146.7842  139.4602  151.0550 H   0  0  0  0  0  0  0  0  0  0  0  0
  148.4033  140.3492  152.7150 H   0  0  0  0  0  0  0  0  0  0  0  0
  148.2980  139.4208  156.2353 H   0  0  0  0  0  0  0  0  0  0  0  0
  149.9984  140.0111  157.3172 H   0  0  0  0  0  0  0  0  0  0  0  0
  151.5668  139.6973  156.5746 H   0  0  0  0  0  0  0  0  0  0  0  0
  150.1053  142.1802  158.2876 H   0  0  0  0  0  0  0  0  0  0  0  0
  152.2255  143.8537  156.8701 H   0  0  0  0  0  0  0  0  0  0  0  0
  150.5221  144.2262  156.9863 H   0  0  0  0  0  0  0  0  0  0  0  0
  151.8542  145.5145  158.6612 H   0  0  0  0  0  0  0  0  0  0  0  0
  150.6917  144.4695  159.4422 H   0  0  0  0  0  0  0  0  0  0  0  0
  153.6759  143.9069  159.0890 H   0  0  0  0  0  0  0  0  0  0  0  0
  152.8704  144.2981  160.5886 H   0  0  0  0  0  0  0  0  0  0  0  0
  151.5454  142.2180  160.4703 H   0  0  0  0  0  0  0  0  0  0  0  0
  154.5240  141.6561  160.0857 H   0  0  0  0  0  0  0  0  0  0  0  0
  153.3587  140.5723  160.8418 H   0  0  0  0  0  0  0  0  0  0  0  0
  153.7507  142.1094  161.6023 H   0  0  0  0  0  0  0  0  0  0  0  0
  151.9384  140.5364  158.7142 H   0  0  0  0  0  0  0  0  0  0  0  0
  153.0897  141.5809  157.9203 H   0  0  0  0  0  0  0  0  0  0  0  0
  1  2  1  0  0  0  0
  1 20  1  0  0  0  0
  1 21  1  0  0  0  0
  1 22  1  0  0  0  0
  2  7  1  0  0  0  0
  2  3  2  0  0  0  0
  3  4  1  0  0  0  0
  4  5  2  0  0  0  0
  4 23  1  0  0  0  0
  5  6  1  0  0  0  0
  5 24  1  0  0  0  0
  6  7  2  0  0  0  0
  6 25  1  0  0  0  0
  7  8  1  0  0  0  0
  8  9  1  0  0  0  0
  8 26  1  0  0  0  0
  9 10  2  0  0  0  0
  9 11  1  0  0  0  0
 11 12  1  0  0  0  0
 11 27  1  0  0  0  0
 11 28  1  0  0  0  0
 12 13  1  0  0  0  0
 13 19  1  0  0  0  0
 13 14  1  0  0  0  0
 13 29  1  0  0  0  0
 14 15  1  0  0  0  0
 14 30  1  0  0  0  0
 14 31  1  0  0  0  0
 15 16  1  0  0  0  0
 15 32  1  0  0  0  0
 15 33  1  0  0  0  0
 16 17  1  0  0  0  0
 16 34  1  0  0  0  0
 16 35  1  0  0  0  0
 17 18  1  0  0  0  0
 17 19  1  0  0  0  0
 17 36  1  0  0  0  0
 18 37  1  0  0  0  0
 18 38  1  0  0  0  0
 18 39  1  0  0  0  0
 19 40  1  0  0  0  0
 19 41  1  0  0  0  0
M  END
> <s_m_source_file>
AV-unprocessed.smi

> <i_m_source_file_index>
3044

> <i_lp_mmshare_version>
43012

> <i_f3d_flags>
0

> <s_epik_input>
W0NIM11jMW5bY0hdW2NIXVtjSF1jMVtOSF1DKD1PKVtDSDJdT1tDQEBIXTJbQ0gyXVtDSDJdW0NIMl1bQ0BASF0oW0NIM10pW0NIMl0y

> <s_epik_cmdline>
J2VwaWtfcHl0aG9uJywgJy1waCcsICc3LjAnLCAnLXRuJywgJzgnLCAnLW1hJywgJzIwMCcsICctbWV0YWxfYmluZGluZycsICctaW1hZScsICc8aW5maWxlLm1hZT4nLCAnLW9tYWUnLCAnPG91dGZpbGUubWFlPic=

> <r_epik_Ionization_Penalty>
0.0077122

> <r_epik_Ionization_Penalty_Charging>
0

> <r_epik_Ionization_Penalty_Neutral>
0.0077122

> <r_epik_State_Penalty>
0.00577497

> <r_epik_Charging_Adjusted_Penalty>
0.00577497

> <i_epik_Tot_Q>
0

> <i_epik_Tot_abs_Q>
0

> <r_epik_Metal_State_Penalty>
-0

> <b_epik_Metal_Only>
0

> <s_lp_Force_Field>
OPLS_2005

> <r_lp_Energy>
17.0629

> <b_lp_Chiralities_Consistent>
1

> <s_lp_Variant>
AV-unprocessed.smi:3044-3

> <Gold.Version>
5.8.1

> <Gold.Id.Protein>
6NUR|6NUR_protein|mol2

> <Gold.PLP.Fitness>
39.5489

> <Gold.PLP.PLP>
-34.3220

> <Gold.PLP.part.hbond>
-0.8886

> <Gold.PLP.part.metal>
0.0000

> <Gold.PLP.part.buried>
0.8599

> <Gold.PLP.part.nonpolar>
-35.3492

> <Gold.PLP.part.repulsive>
0.7653

> <Gold.PLP.ligand.clash>
0.0000

> <Gold.PLP.ligand.torsion>
0.3867

> <Gold.PLP.Chemscore.Hbond>
1.0000

> <Gold.PLP.Chemscore.CHOScore>
0.9946

> <Gold.PLP.Chemscore.Metal>
0.0000

> <Gold.Chemscore.Hbonds>
donor molecule, donor type, donor heavy atom, donor atom, acceptor molecule, acceptor atom, score
      P1  H  7989  7998       L1    10  1.00
      L1  C     4    23       P1 10171  0.84

> <Gold.PLP.Chemscore.Internal.Correction>
0.0167

> <Gold.Rescore>
     Score         DG    S(hbond)    S(metal)    S(lipo)     H(rot)  DE(clash)    DE(int)     intcor
     17.08     -18.26       0.99        0.00     109.63       1.31       0.09       1.09       ----

> <Gold.Chemscore.Fitness>
17.0756

> <Gold.Chemscore.DG>
-18.2559

> <Gold.Chemscore.ZeroCoef>
-5.4800

> <Gold.Chemscore.Hbond>
0.9862

> <Gold.Chemscore.Metal>
0.0000

> <Gold.Chemscore.Lipo>
109.6281

> <Gold.Chemscore.Internal_Hbond>
0.0000

> <Gold.Chemscore.DEClash>
0.0885

> <Gold.Chemscore.DEInternal>
1.0919

> <Gold.Chemscore.Rot>
1.3064

> <Gold.Chemscore.Internal.Correction>
   9.000000E+99

> <Gold.Chemscore.Hbonds>
donor molecule, donor type, donor heavy atom, donor atom, acceptor molecule, acceptor atom, score
      P1  H  7989  7998       L1    10  0.93

> <Gold.Chemscore.Hbond.Weighted>
-3.2938

> <Gold.Chemscore.Metal.Weighted>
-0.0000

> <Gold.Chemscore.Lipo.Weighted>
-12.8265

> <Gold.Chemscore.Internal_Hbond.Weighted>
0.0000

> <Gold.Chemscore.DEClash.Weighted>
0.0885

> <Gold.Chemscore.DEInternal.Weighted>
1.0919

> <Gold.Chemscore.Rot.Weighted>
3.3443

> <Gold.Chemscore.Internal.Correction.Weighted>
   9.000000E+99

> <Gold.Protein.RotatedTorsions>
[ 6907 6896 6895 6894 ] final  -55.76 input  -60.11 | X-H torsion
[ 7974 7965 7964 7962 ] final  -37.75 input  175.53 | X-H torsion
[ 8008 7997 7996 7995 ] final   49.92 input   59.86 | X-H torsion
[ 10167 10162 10161 10158 ] final  -76.03 input  -65.29 | X-H torsion
[ 10718 10713 10712 10709 ] final  153.52 input   66.30 | X-H torsion
[ 10763 10752 10751 10750 ] final -102.76 input  -60.55 | X-H torsion
[ 11005 11000 10999 10996 ] final  145.77 input  -57.11 | X-H torsion

> <Gold.Protein.ActiveResidues>
 VAL166  LYS551  ARG553  GLY616  TRP617  ASP618  TYR619  PRO620  LYS621  CYS622 
 ASP623  PHE694  ASN695  SER759  ASP760  ASP761  ALA762  ILE779  LEU786  VAL792 
 PHE793  MET794  SER795  GLU796  ALA797  LYS798  CYS799  TRP800  GLU811  SER814 

> <Gold.Protein.RotatedAtoms>
  150.8225  134.7439  159.6783 H   0  0  0  0  0  0  0  0  0  0  0  0  # atno 6907 bound_to 6896
  152.4339  134.5721  159.9934 H   0  0  0  0  0  0  0  0  0  0  0  0  # atno 6908 bound_to 6896
  151.5902  133.3330  159.3062 H   0  0  0  0  0  0  0  0  0  0  0  0  # atno 6909 bound_to 6896
  146.0547  140.6432  142.9025 H   0  0  0  0  0  0  0  0  0  0  0  0  # atno 7974 bound_to 7965
  155.4102  140.3442  155.4263 H   0  0  0  0  0  0  0  0  0  0  0  0  # atno 8008 bound_to 7997
  156.1453  140.1554  156.8888 H   0  0  0  0  0  0  0  0  0  0  0  0  # atno 8009 bound_to 7997
  154.5005  140.0816  156.7769 H   0  0  0  0  0  0  0  0  0  0  0  0  # atno 8010 bound_to 7997
  140.4892  143.2384  151.7935 H   0  0  0  0  0  0  0  0  0  0  0  0  # atno 10167 bound_to 10162
  157.2436  131.0764  151.1776 H   0  0  0  0  0  0  0  0  0  0  0  0  # atno 10718 bound_to 10713
  154.7758  135.4848  153.9740 H   0  0  0  0  0  0  0  0  0  0  0  0  # atno 10763 bound_to 10752
  153.1426  135.6775  153.9011 H   0  0  0  0  0  0  0  0  0  0  0  0  # atno 10764 bound_to 10752
  153.8680  135.3147  155.3419 H   0  0  0  0  0  0  0  0  0  0  0  0  # atno 10765 bound_to 10752
  140.0739  134.9136  157.1391 H   0  0  0  0  0  0  0  0  0  0  0  0  # atno 11005 bound_to 11000
  144.7142  140.4148  143.7057 LP  0  0  0  0  0  0  0  0  0  0  0  0  # atno 17320 bound_to 7965
  145.6663  139.1591  143.2780 LP  0  0  0  0  0  0  0  0  0  0  0  0  # atno 17321 bound_to 7965
  139.4848  144.4672  151.9470 LP  0  0  0  0  0  0  0  0  0  0  0  0  # atno 17342 bound_to 10162
  140.3758  144.2798  150.5914 LP  0  0  0  0  0  0  0  0  0  0  0  0  # atno 17343 bound_to 10162
  157.3352  130.7005  149.6348 LP  0  0  0  0  0  0  0  0  0  0  0  0  # atno 17370 bound_to 10713
  155.9669  130.4296  150.4838 LP  0  0  0  0  0  0  0  0  0  0  0  0  # atno 17371 bound_to 10713
  140.3586  134.2519  155.7189 LP  0  0  0  0  0  0  0  0  0  0  0  0  # atno 17394 bound_to 11000
  141.2022  133.7943  157.0401 LP  0  0  0  0  0  0  0  0  0  0  0  0  # atno 17395 bound_to 11000

$$$$
