AV-unprocessed.smi:1827|AV-procd|sdf|7421|dock6
  -GOLD-   22720 9103D 1   1.00000     0.00000
 Structure written by MMmdl.
 44 45  0  0  0  0  0  0  0  0  2 V2000
  145.1918  131.6501  151.2797 C   0  0  0  0  0  0  0  0  0  0  0  0
  146.3909  131.5971  152.1859 C   0  0  0  0  0  0  0  0  0  0  0  0
  146.7843  130.4195  152.6534 N   0  0  0  0  0  0  0  0  0  0  0  0
  147.8984  130.6885  153.3674 N   0  0  0  0  0  0  0  0  0  0  0  0
  148.2389  132.0223  153.3731 C   0  0  0  0  0  0  0  0  0  0  0  0
  149.4428  132.5392  154.0872 C   0  0  0  0  0  0  0  0  0  0  0  0
  147.2640  132.6345  152.6402 C   0  0  0  0  0  0  0  0  0  0  0  0
  147.2286  134.0228  152.3568 N   0  0  0  0  0  0  0  0  0  0  0  0
  146.1348  134.7861  152.2139 C   0  0  0  0  0  0  0  0  0  0  0  0
  144.9773  134.3913  152.3491 O   0  0  0  0  0  0  0  0  0  0  0  0
  146.4567  136.0546  151.9222 N   0  0  0  0  0  0  0  0  0  0  0  0
  145.4996  137.1426  151.7215 C   0  0  2  0  0  0  0  0  0  0  0  0
  146.1996  138.4637  151.3434 C   0  0  0  0  0  0  0  0  0  0  0  0
  146.9760  139.0640  152.5280 C   0  0  0  0  0  0  0  0  0  0  0  0
  146.0873  139.2608  153.7044 N   0  3  2  0  0  0  0  0  0  0  0  0
  146.7553  139.9678  154.8277 C   0  0  0  0  0  0  0  0  0  0  0  0
  147.0298  141.4450  154.5275 C   0  0  0  0  0  0  0  0  0  0  0  0
  148.1165  141.9817  155.0869 N   0  0  0  0  0  0  0  0  0  0  0  0
  146.2679  142.0983  153.8169 O   0  0  0  0  0  0  0  0  0  0  0  0
  145.4568  137.9859  154.1318 C   0  0  0  0  0  0  0  0  0  0  0  0
  144.6478  137.3510  152.9856 C   0  0  0  0  0  0  0  0  0  0  0  0
  148.4150  129.9566  153.8341 H   0  0  0  0  0  0  0  0  0  0  0  0
  145.2931  132.4394  150.5350 H   0  0  0  0  0  0  0  0  0  0  0  0
  144.2806  131.8373  151.8477 H   0  0  0  0  0  0  0  0  0  0  0  0
  145.0570  130.7119  150.7405 H   0  0  0  0  0  0  0  0  0  0  0  0
  149.6129  133.5922  153.8631 H   0  0  0  0  0  0  0  0  0  0  0  0
  150.3350  131.9858  153.7937 H   0  0  0  0  0  0  0  0  0  0  0  0
  149.3229  132.4408  155.1663 H   0  0  0  0  0  0  0  0  0  0  0  0
  148.1204  134.4953  152.3501 H   0  0  0  0  0  0  0  0  0  0  0  0
  147.4362  136.2869  151.8465 H   0  0  0  0  0  0  0  0  0  0  0  0
  144.8318  136.8534  150.9079 H   0  0  0  0  0  0  0  0  0  0  0  0
  146.8672  138.3187  150.4934 H   0  0  0  0  0  0  0  0  0  0  0  0
  145.4483  139.1822  151.0126 H   0  0  0  0  0  0  0  0  0  0  0  0
  147.8092  138.4149  152.8018 H   0  0  0  0  0  0  0  0  0  0  0  0
  147.4099  140.0163  152.2216 H   0  0  0  0  0  0  0  0  0  0  0  0
  146.1130  139.9450  155.7092 H   0  0  0  0  0  0  0  0  0  0  0  0
  147.6783  139.4526  155.0992 H   0  0  0  0  0  0  0  0  0  0  0  0
  148.3501  142.9498  154.9200 H   0  0  0  0  0  0  0  0  0  0  0  0
  148.7091  141.4129  155.6754 H   0  0  0  0  0  0  0  0  0  0  0  0
  146.2267  137.2973  154.4827 H   0  0  0  0  0  0  0  0  0  0  0  0
  144.7902  138.1701  154.9752 H   0  0  0  0  0  0  0  0  0  0  0  0
  143.8055  138.0011  152.7446 H   0  0  0  0  0  0  0  0  0  0  0  0
  144.2147  136.4042  153.3108 H   0  0  0  0  0  0  0  0  0  0  0  0
  145.3337  139.8641  153.4056 H   0  0  0  0  0  0  0  0  0  0  0  0
  1  2  1  0  0  0  0
  1 23  1  0  0  0  0
  1 24  1  0  0  0  0
  1 25  1  0  0  0  0
  2  7  1  0  0  0  0
  2  3  2  0  0  0  0
  3  4  1  0  0  0  0
  4 22  1  0  0  0  0
  4  5  1  0  0  0  0
  5  6  1  0  0  0  0
  5  7  2  0  0  0  0
  6 26  1  0  0  0  0
  6 27  1  0  0  0  0
  6 28  1  0  0  0  0
  7  8  1  0  0  0  0
  8  9  1  0  0  0  0
  8 29  1  0  0  0  0
  9 10  2  0  0  0  0
  9 11  1  0  0  0  0
 11 12  1  0  0  0  0
 11 30  1  0  0  0  0
 12 21  1  0  0  0  0
 12 13  1  0  0  0  0
 12 31  1  0  0  0  0
 13 14  1  0  0  0  0
 13 32  1  0  0  0  0
 13 33  1  0  0  0  0
 14 15  1  0  0  0  0
 14 34  1  0  0  0  0
 14 35  1  0  0  0  0
 15 16  1  0  0  0  0
 15 20  1  0  0  0  0
 15 44  1  0  0  0  0
 16 17  1  0  0  0  0
 16 36  1  0  0  0  0
 16 37  1  0  0  0  0
 17 18  1  0  0  0  0
 17 19  2  0  0  0  0
 18 38  1  0  0  0  0
 18 39  1  0  0  0  0
 20 21  1  0  0  0  0
 20 40  1  0  0  0  0
 20 41  1  0  0  0  0
 21 42  1  0  0  0  0
 21 43  1  0  0  0  0
M  CHG  1  15   1
M  END
> <s_m_source_file>
AV-unprocessed.smi

> <i_m_source_file_index>
1827

> <i_lp_mmshare_version>
43012

> <i_f3d_flags>
0

> <s_epik_input>
W0NIM11jMW5bbkhdYyhbQ0gzXSljMVtOSF1DKD1PKVtOSF1bQ0hdMltDSDJdW0NIMl1OKFtDSDJdW0NIMl0yKVtDSDJdQyg9TylbTkgyXQ==

> <s_epik_cmdline>
J2VwaWtfcHl0aG9uJywgJy1waCcsICc3LjAnLCAnLXRuJywgJzgnLCAnLW1hJywgJzIwMCcsICctbWV0YWxfYmluZGluZycsICctaW1hZScsICc8aW5maWxlLm1hZT4nLCAnLW9tYWUnLCAnPG91dGZpbGUubWFlPic=

> <r_lp_tautomer_probability>
0.5

> <r_epik_Ionization_Penalty>
0.839233

> <r_epik_Ionization_Penalty_Charging>
0.838844

> <r_epik_Ionization_Penalty_Neutral>
0.000388936

> <r_epik_State_Penalty>
0.8734

> <r_epik_Charging_Adjusted_Penalty>
1.71224

> <i_epik_Tot_Q>
1

> <i_epik_Tot_abs_Q>
1

> <r_epik_Metal_State_Penalty>
0.890753

> <b_epik_Metal_Only>
0

> <s_lp_Force_Field>
OPLS_2005

> <r_lp_Energy>
15.6473

> <b_lp_Chiralities_Consistent>
1

> <s_lp_Variant>
AV-unprocessed.smi:1827-3

> <Gold.Version>
5.8.1

> <Gold.Id.Protein>
6NUR|6NUR_protein|mol2

> <Gold.PLP.Fitness>
42.1473

> <Gold.PLP.PLP>
-28.9830

> <Gold.PLP.part.hbond>
-4.0261

> <Gold.PLP.part.metal>
0.0000

> <Gold.PLP.part.buried>
1.0047

> <Gold.PLP.part.nonpolar>
-27.4632

> <Gold.PLP.part.repulsive>
0.6298

> <Gold.PLP.ligand.clash>
0.0000

> <Gold.PLP.ligand.torsion>
0.7149

> <Gold.PLP.Chemscore.Hbond>
4.7500

> <Gold.PLP.Chemscore.CHOScore>
0.0000

> <Gold.PLP.Chemscore.Metal>
0.0000

> <Gold.Chemscore.Hbonds>
donor molecule, donor type, donor heavy atom, donor atom, acceptor molecule, acceptor atom, score
      L1  H     8    29       P1  7948  0.85
      L1  H    11    30       P1  7948  0.91
      L1  H    15    44       P1 10175  2.00
      L1  H    18    38       P1  8028  0.99

> <Gold.PLP.Chemscore.Internal.Correction>
0.3441

> <Gold.Rescore>
     Score         DG    S(hbond)    S(metal)    S(lipo)     H(rot)  DE(clash)    DE(int)     intcor
     15.59     -19.34       3.45        0.00      63.36       1.98       2.17       1.58       ----

> <Gold.Chemscore.Fitness>
15.5896

> <Gold.Chemscore.DG>
-19.3445

> <Gold.Chemscore.ZeroCoef>
-5.4800

> <Gold.Chemscore.Hbond>
3.4528

> <Gold.Chemscore.Metal>
0.0000

> <Gold.Chemscore.Lipo>
63.3608

> <Gold.Chemscore.Internal_Hbond>
0.0000

> <Gold.Chemscore.DEClash>
2.1722

> <Gold.Chemscore.DEInternal>
1.5827

> <Gold.Chemscore.Rot>
1.9848

> <Gold.Chemscore.Internal.Correction>
   9.000000E+99

> <Gold.Chemscore.Hbonds>
donor molecule, donor type, donor heavy atom, donor atom, acceptor molecule, acceptor atom, score
      L1  H     8    29       P1  7948  0.21
      L1  H    11    30       P1  7948  0.87
      L1  H    15    44       P1 10175  0.96
      L1  H    18    38       P1  8028  0.93

> <Gold.Chemscore.Hbond.Weighted>
-11.5323

> <Gold.Chemscore.Metal.Weighted>
-0.0000

> <Gold.Chemscore.Lipo.Weighted>
-7.4132

> <Gold.Chemscore.Internal_Hbond.Weighted>
0.0000

> <Gold.Chemscore.DEClash.Weighted>
2.1722

> <Gold.Chemscore.DEInternal.Weighted>
1.5827

> <Gold.Chemscore.Rot.Weighted>
5.0810

> <Gold.Chemscore.Internal.Correction.Weighted>
   9.000000E+99

> <Gold.Protein.RotatedTorsions>
[ 6907 6896 6895 6894 ] final -143.12 input  -60.11 | X-H torsion
[ 7974 7965 7964 7962 ] final -143.77 input  175.53 | X-H torsion
[ 8008 7997 7996 7995 ] final   59.71 input   59.86 | X-H torsion
[ 10167 10162 10161 10158 ] final   15.73 input  -65.29 | X-H torsion
[ 10718 10713 10712 10709 ] final  124.52 input   66.30 | X-H torsion
[ 10763 10752 10751 10750 ] final  130.59 input  -60.55 | X-H torsion
[ 11005 11000 10999 10996 ] final  178.82 input  -57.11 | X-H torsion

> <Gold.Protein.ActiveResidues>
 VAL166  LYS551  ARG553  GLY616  TRP617  ASP618  TYR619  PRO620  LYS621  CYS622 
 ASP623  PHE694  ASN695  SER759  ASP760  ASP761  ALA762  ILE779  LEU786  VAL792 
 PHE793  MET794  SER795  GLU796  ALA797  LYS798  CYS799  TRP800  GLU811  SER814 

> <Gold.Protein.RotatedAtoms>
  151.0963  133.5278  159.2612 H   0  0  0  0  0  0  0  0  0  0  0  0  # atno 6907 bound_to 6896
  151.2126  135.0486  159.8927 H   0  0  0  0  0  0  0  0  0  0  0  0  # atno 6908 bound_to 6896
  152.5439  134.0776  159.8275 H   0  0  0  0  0  0  0  0  0  0  0  0  # atno 6909 bound_to 6896
  144.8345  140.5793  143.5493 H   0  0  0  0  0  0  0  0  0  0  0  0  # atno 7974 bound_to 7965
  155.5706  140.3490  155.4514 H   0  0  0  0  0  0  0  0  0  0  0  0  # atno 8008 bound_to 7997
  156.0447  140.1304  157.0142 H   0  0  0  0  0  0  0  0  0  0  0  0  # atno 8009 bound_to 7997
  154.4407  140.1017  156.6274 H   0  0  0  0  0  0  0  0  0  0  0  0  # atno 8010 bound_to 7997
  140.5847  143.8913  150.6819 H   0  0  0  0  0  0  0  0  0  0  0  0  # atno 10167 bound_to 10162
  157.5578  131.1091  150.8591 H   0  0  0  0  0  0  0  0  0  0  0  0  # atno 10718 bound_to 10713
  153.7604  135.3196  155.3336 H   0  0  0  0  0  0  0  0  0  0  0  0  # atno 10763 bound_to 10752
  154.8232  135.4588  154.0843 H   0  0  0  0  0  0  0  0  0  0  0  0  # atno 10764 bound_to 10752
  153.2072  135.6931  153.8241 H   0  0  0  0  0  0  0  0  0  0  0  0  # atno 10765 bound_to 10752
  140.3994  134.6791  157.4553 H   0  0  0  0  0  0  0  0  0  0  0  0  # atno 11005 bound_to 11000
  145.4824  139.1494  143.3754 LP  0  0  0  0  0  0  0  0  0  0  0  0  # atno 17320 bound_to 7965
  146.2645  140.4960  142.8840 LP  0  0  0  0  0  0  0  0  0  0  0  0  # atno 17321 bound_to 7965
  140.2421  143.3656  152.1477 LP  0  0  0  0  0  0  0  0  0  0  0  0  # atno 17342 bound_to 10162
  139.5190  144.7014  151.5483 LP  0  0  0  0  0  0  0  0  0  0  0  0  # atno 17343 bound_to 10162
  156.9098  130.5276  149.5280 LP  0  0  0  0  0  0  0  0  0  0  0  0  # atno 17370 bound_to 10713
  156.0634  130.5682  150.9240 LP  0  0  0  0  0  0  0  0  0  0  0  0  # atno 17371 bound_to 10713
  140.0348  134.6354  155.9058 LP  0  0  0  0  0  0  0  0  0  0  0  0  # atno 17394 bound_to 11000
  141.1862  133.6557  156.5230 LP  0  0  0  0  0  0  0  0  0  0  0  0  # atno 17395 bound_to 11000

$$$$
