AV-unprocessed.smi:1703|AV-procd|sdf|6877|dock9
  -GOLD-   22720 8 83D 1   1.00000     0.00000
 Structure written by MMmdl.
 50 52  0  0  0  0  0  0  0  0  3 V2000
  152.2013  143.8932  160.6746 C   0  0  0  0  0  0  0  0  0  0  0  0
  152.7625  142.6189  160.0342 C   0  0  2  0  0  0  0  0  0  0  0  0
  151.6564  141.7429  159.4164 C   0  0  0  0  0  0  0  0  0  0  0  0
  152.2286  140.4887  158.8725 N   0  3  2  0  0  0  0  0  0  0  0  0
  151.2068  139.6422  158.2044 C   0  0  0  0  0  0  0  0  0  0  0  0
  151.6993  139.0601  156.8639 C   0  0  2  0  0  0  0  0  0  0  0  0
  153.1054  138.9207  156.9170 O   0  0  0  0  0  0  0  0  0  0  0  0
  151.3397  139.9580  155.6583 C   0  0  0  0  0  0  0  0  0  0  0  0
  150.2067  139.4250  154.8882 N   0  0  0  0  0  0  0  0  0  0  0  0
  149.9898  138.1653  154.4111 C   0  0  0  0  0  0  0  0  0  0  0  0
  150.8891  136.9836  154.5626 C   0  0  0  0  0  0  0  0  0  0  0  0
  152.0250  137.0652  153.7314 O   0  0  0  0  0  0  0  0  0  0  0  0
  148.7942  138.1803  153.7583 N   0  3  0  0  0  0  0  0  0  0  0  0
  148.2368  139.4579  153.8226 C   0  0  0  0  0  0  0  0  0  0  0  0
  147.0423  139.9557  153.3117 C   0  0  0  0  0  0  0  0  0  0  0  0
  146.7692  141.3177  153.5545 C   0  0  0  0  0  0  0  0  0  0  0  0
  147.6651  142.1274  154.2820 C   0  0  0  0  0  0  0  0  0  0  0  0
  148.8727  141.6112  154.7968 C   0  0  0  0  0  0  0  0  0  0  0  0
  149.1379  140.2640  154.5496 C   0  0  0  0  0  0  0  0  0  0  0  0
  153.0011  139.7772  159.9209 C   0  0  0  0  0  0  0  0  0  0  0  0
  154.0703  140.7069  160.5262 C   0  0  2  0  0  0  0  0  0  0  0  0
  154.8408  140.0361  161.6687 C   0  0  0  0  0  0  0  0  0  0  0  0
  153.4352  141.8718  161.0418 O   0  0  0  0  0  0  0  0  0  0  0  0
  151.6830  144.5076  159.9377 H   0  0  0  0  0  0  0  0  0  0  0  0
  153.0001  144.4965  161.1064 H   0  0  0  0  0  0  0  0  0  0  0  0
  151.4949  143.6580  161.4710 H   0  0  0  0  0  0  0  0  0  0  0  0
  153.4782  142.9066  159.2620 H   0  0  0  0  0  0  0  0  0  0  0  0
  150.8997  141.5028  160.1653 H   0  0  0  0  0  0  0  0  0  0  0  0
  151.1559  142.2949  158.6196 H   0  0  0  0  0  0  0  0  0  0  0  0
  150.9081  138.8429  158.8835 H   0  0  0  0  0  0  0  0  0  0  0  0
  150.3085  140.2322  158.0153 H   0  0  0  0  0  0  0  0  0  0  0  0
  151.2861  138.0635  156.7088 H   0  0  0  0  0  0  0  0  0  0  0  0
  153.3376  138.0554  156.6147 H   0  0  0  0  0  0  0  0  0  0  0  0
  151.1252  140.9831  155.9605 H   0  0  0  0  0  0  0  0  0  0  0  0
  152.1771  140.0346  154.9628 H   0  0  0  0  0  0  0  0  0  0  0  0
  151.2081  136.8960  155.6013 H   0  0  0  0  0  0  0  0  0  0  0  0
  150.3373  136.0752  154.3192 H   0  0  0  0  0  0  0  0  0  0  0  0
  151.7472  136.9871  152.8314 H   0  0  0  0  0  0  0  0  0  0  0  0
  146.3536  139.3371  152.7544 H   0  0  0  0  0  0  0  0  0  0  0  0
  145.8546  141.7500  153.1746 H   0  0  0  0  0  0  0  0  0  0  0  0
  147.4210  143.1672  154.4467 H   0  0  0  0  0  0  0  0  0  0  0  0
  149.5495  142.2457  155.3485 H   0  0  0  0  0  0  0  0  0  0  0  0
  152.3221  139.4285  160.7007 H   0  0  0  0  0  0  0  0  0  0  0  0
  153.4861  138.8953  159.5039 H   0  0  0  0  0  0  0  0  0  0  0  0
  154.7834  140.9997  159.7536 H   0  0  0  0  0  0  0  0  0  0  0  0
  155.3591  139.1420  161.3216 H   0  0  0  0  0  0  0  0  0  0  0  0
  154.1722  139.7438  162.4791 H   0  0  0  0  0  0  0  0  0  0  0  0
  155.5890  140.7124  162.0828 H   0  0  0  0  0  0  0  0  0  0  0  0
  152.8844  140.7652  158.1550 H   0  0  0  0  0  0  0  0  0  0  0  0
  148.3928  137.3725  153.2992 H   0  0  0  0  0  0  0  0  0  0  0  0
  1  2  1  0  0  0  0
  1 24  1  0  0  0  0
  1 25  1  0  0  0  0
  1 26  1  0  0  0  0
  2 23  1  0  0  0  0
  2  3  1  0  0  0  0
  2 27  1  0  0  0  0
  3  4  1  0  0  0  0
  3 28  1  0  0  0  0
  3 29  1  0  0  0  0
  4  5  1  0  0  0  0
  4 20  1  0  0  0  0
  4 49  1  0  0  0  0
  5  6  1  0  0  0  0
  5 30  1  0  0  0  0
  5 31  1  0  0  0  0
  6  7  1  0  0  0  0
  6  8  1  0  0  0  0
  6 32  1  0  0  0  0
  7 33  1  0  0  0  0
  8  9  1  0  0  0  0
  8 34  1  0  0  0  0
  8 35  1  0  0  0  0
  9 19  1  0  0  0  0
  9 10  1  0  0  0  0
 10 11  1  0  0  0  0
 10 13  2  0  0  0  0
 11 12  1  0  0  0  0
 11 36  1  0  0  0  0
 11 37  1  0  0  0  0
 12 38  1  0  0  0  0
 13 14  1  0  0  0  0
 13 50  1  0  0  0  0
 14 19  2  0  0  0  0
 14 15  1  0  0  0  0
 15 16  2  0  0  0  0
 15 39  1  0  0  0  0
 16 17  1  0  0  0  0
 16 40  1  0  0  0  0
 17 18  2  0  0  0  0
 17 41  1  0  0  0  0
 18 19  1  0  0  0  0
 18 42  1  0  0  0  0
 20 21  1  0  0  0  0
 20 43  1  0  0  0  0
 20 44  1  0  0  0  0
 21 22  1  0  0  0  0
 21 23  1  0  0  0  0
 21 45  1  0  0  0  0
 22 46  1  0  0  0  0
 22 47  1  0  0  0  0
 22 48  1  0  0  0  0
M  CHG  1   4   1
M  CHG  1  13   1
M  END
> <s_m_source_file>
AV-unprocessed.smi

> <i_m_source_file_index>
1703

> <i_lp_mmshare_version>
43012

> <i_f3d_flags>
0

> <s_epik_input>
W0NIM11bQ0BASF0xW0NIMl1OKFtDSDJdW0NASF0oTzEpW0NIM10pW0NIMl1bQ0BIXShbT0hdKVtDSDJdbihjKG4yKVtDSDJdW09IXSljKGMyMylbY0hdW2NIXVtjSF1bY0hdMw==

> <s_epik_cmdline>
J2VwaWtfcHl0aG9uJywgJy1waCcsICc3LjAnLCAnLXRuJywgJzgnLCAnLW1hJywgJzIwMCcsICctbWV0YWxfYmluZGluZycsICctaW1hZScsICc8aW5maWxlLm1hZT4nLCAnLW9tYWUnLCAnPG91dGZpbGUubWFlPic=

> <r_epik_Ionization_Penalty>
2.22579

> <r_epik_Ionization_Penalty_Charging>
2.22492

> <r_epik_Ionization_Penalty_Neutral>
0.000870007

> <r_epik_State_Penalty>
2.3141

> <r_epik_Charging_Adjusted_Penalty>
4.53902

> <i_epik_Tot_Q>
2

> <i_epik_Tot_abs_Q>
2

> <r_epik_Metal_State_Penalty>
6.36517

> <b_epik_Metal_Only>
0

> <s_lp_Force_Field>
OPLS_2005

> <r_lp_Energy>
31.942

> <b_lp_Chiralities_Consistent>
1

> <s_lp_Variant>
AV-unprocessed.smi:1703-25

> <Gold.Version>
5.8.1

> <Gold.Id.Protein>
6NUR|6NUR_protein|mol2

> <Gold.PLP.Fitness>
59.8390

> <Gold.PLP.PLP>
-50.0683

> <Gold.PLP.part.hbond>
-4.1748

> <Gold.PLP.part.metal>
0.0000

> <Gold.PLP.part.buried>
-2.6729

> <Gold.PLP.part.nonpolar>
-44.2750

> <Gold.PLP.part.repulsive>
0.1523

> <Gold.PLP.ligand.clash>
0.0000

> <Gold.PLP.ligand.torsion>
1.8921

> <Gold.PLP.Chemscore.Hbond>
4.4960

> <Gold.PLP.Chemscore.CHOScore>
0.0000

> <Gold.PLP.Chemscore.Metal>
0.0000

> <Gold.Chemscore.Hbonds>
donor molecule, donor type, donor heavy atom, donor atom, acceptor molecule, acceptor atom, score
      L1  H    12    38       P1  7949  1.00
      L1  H    13    50       P1  7948  1.34
      P1  H  7997  8008       L1     7  1.00
      P1  H 10752 10765       L1    12  1.00

> <Gold.PLP.Chemscore.Internal.Correction>
0.0668

> <Gold.Rescore>
     Score         DG    S(hbond)    S(metal)    S(lipo)     H(rot)  DE(clash)    DE(int)     intcor
     20.26     -22.78       3.10        0.00     125.89       3.04       0.40       2.12       ----

> <Gold.Chemscore.Fitness>
20.2585

> <Gold.Chemscore.DG>
-22.7795

> <Gold.Chemscore.ZeroCoef>
-5.4800

> <Gold.Chemscore.Hbond>
3.0979

> <Gold.Chemscore.Metal>
0.0000

> <Gold.Chemscore.Lipo>
125.8913

> <Gold.Chemscore.Internal_Hbond>
0.0000

> <Gold.Chemscore.DEClash>
0.4033

> <Gold.Chemscore.DEInternal>
2.1178

> <Gold.Chemscore.Rot>
3.0378

> <Gold.Chemscore.Internal.Correction>
   9.000000E+99

> <Gold.Chemscore.Hbonds>
donor molecule, donor type, donor heavy atom, donor atom, acceptor molecule, acceptor atom, score
      L1  H    12    38       P1  7949  0.94
      L1  H    13    50       P1  7948  0.66
      P1  H  7997  8008       L1     7  0.74
      P1  H 10752 10765       L1    12  0.39

> <Gold.Chemscore.Hbond.Weighted>
-10.3469

> <Gold.Chemscore.Metal.Weighted>
-0.0000

> <Gold.Chemscore.Lipo.Weighted>
-14.7293

> <Gold.Chemscore.Internal_Hbond.Weighted>
0.0000

> <Gold.Chemscore.DEClash.Weighted>
0.4033

> <Gold.Chemscore.DEInternal.Weighted>
2.1178

> <Gold.Chemscore.Rot.Weighted>
7.7767

> <Gold.Chemscore.Internal.Correction.Weighted>
   9.000000E+99

> <Gold.Protein.RotatedTorsions>
[ 6907 6896 6895 6894 ] final  170.12 input  -60.11 | X-H torsion
[ 7974 7965 7964 7962 ] final  -79.10 input  175.53 | X-H torsion
[ 8008 7997 7996 7995 ] final  -49.36 input   59.86 | X-H torsion
[ 10167 10162 10161 10158 ] final  -79.50 input  -65.29 | X-H torsion
[ 10718 10713 10712 10709 ] final   30.48 input   66.30 | X-H torsion
[ 10763 10752 10751 10750 ] final  148.40 input  -60.55 | X-H torsion
[ 11005 11000 10999 10996 ] final  164.37 input  -57.11 | X-H torsion

> <Gold.Protein.ActiveResidues>
 VAL166  LYS551  ARG553  GLY616  TRP617  ASP618  TYR619  PRO620  LYS621  CYS622 
 ASP623  PHE694  ASN695  SER759  ASP760  ASP761  ALA762  ILE779  LEU786  VAL792 
 PHE793  MET794  SER795  GLU796  ALA797  LYS798  CYS799  TRP800  GLU811  SER814 

> <Gold.Protein.RotatedAtoms>
  151.8212  133.3395  159.3584 H   0  0  0  0  0  0  0  0  0  0  0  0  # atno 6907 bound_to 6896
  150.7294  134.5572  159.5833 H   0  0  0  0  0  0  0  0  0  0  0  0  # atno 6908 bound_to 6896
  152.3005  134.7618  160.0410 H   0  0  0  0  0  0  0  0  0  0  0  0  # atno 6909 bound_to 6896
  145.5777  140.9454  143.1361 H   0  0  0  0  0  0  0  0  0  0  0  0  # atno 7974 bound_to 7965
  154.4043  140.1298  156.4490 H   0  0  0  0  0  0  0  0  0  0  0  0  # atno 8008 bound_to 7997
  155.7384  140.3490  155.5072 H   0  0  0  0  0  0  0  0  0  0  0  0  # atno 8009 bound_to 7997
  155.9062  140.1028  157.1304 H   0  0  0  0  0  0  0  0  0  0  0  0  # atno 8010 bound_to 7997
  140.4587  143.2460  151.8381 H   0  0  0  0  0  0  0  0  0  0  0  0  # atno 10167 bound_to 10162
  157.2601  130.7157  149.6449 H   0  0  0  0  0  0  0  0  0  0  0  0  # atno 10718 bound_to 10713
  154.0541  135.2879  155.3335 H   0  0  0  0  0  0  0  0  0  0  0  0  # atno 10763 bound_to 10752
  154.6850  135.5248  153.8318 H   0  0  0  0  0  0  0  0  0  0  0  0  # atno 10764 bound_to 10752
  153.0549  135.6591  154.0735 H   0  0  0  0  0  0  0  0  0  0  0  0  # atno 10765 bound_to 10752
  140.2452  134.8020  157.3449 H   0  0  0  0  0  0  0  0  0  0  0  0  # atno 11005 bound_to 11000
  144.7408  139.7455  143.7311 LP  0  0  0  0  0  0  0  0  0  0  0  0  # atno 17320 bound_to 7965
  146.1738  139.4900  142.9910 LP  0  0  0  0  0  0  0  0  0  0  0  0  # atno 17321 bound_to 7965
  139.4804  144.5033  151.9031 LP  0  0  0  0  0  0  0  0  0  0  0  0  # atno 17342 bound_to 10162
  140.4119  144.2357  150.5888 LP  0  0  0  0  0  0  0  0  0  0  0  0  # atno 17343 bound_to 10162
  155.9664  130.4400  150.5282 LP  0  0  0  0  0  0  0  0  0  0  0  0  # atno 17370 bound_to 10713
  157.3185  131.0677  151.1949 LP  0  0  0  0  0  0  0  0  0  0  0  0  # atno 17371 bound_to 10713
  140.1613  134.4725  155.7893 LP  0  0  0  0  0  0  0  0  0  0  0  0  # atno 17394 bound_to 11000
  141.2207  133.6902  156.7549 LP  0  0  0  0  0  0  0  0  0  0  0  0  # atno 17395 bound_to 11000

$$$$
