AV-unprocessed.smi:72|AV-procd|sdf|671|dock9
  -GOLD-   2262016573D 1   1.00000     0.00000
 Structure written by MMmdl.
 29 30  0  0  0  0  0  0  0  0  1 V2000
  152.3483  137.0628  159.6749 N   0  0  0  0  0  0  0  0  0  0  0  0
  151.8971  137.5993  158.5977 C   0  0  0  0  0  0  0  0  0  0  0  0
  150.5482  137.8860  158.3388 N   0  0  0  0  0  0  0  0  0  0  0  0
  150.2360  138.4359  157.2061 C   0  0  0  0  0  0  0  0  0  0  0  0
  151.2368  138.7682  156.2037 N   0  0  0  0  0  0  0  0  0  0  0  0
  150.8353  139.4178  154.8956 C   0  0  2  0  0  0  0  0  0  0  0  0
  150.0986  140.5653  155.1861 O   0  0  0  0  0  0  0  0  0  0  0  0
  149.0270  140.6861  154.2634 C   0  0  2  0  0  0  0  0  0  0  0  0
  147.9168  141.5436  154.8912 C   0  0  0  0  0  0  0  0  0  0  0  0
  147.4799  142.5339  153.9853 O   0  0  0  0  0  0  0  0  0  0  0  0
  148.6344  139.2337  153.9673 C   0  0  1  0  0  0  0  0  0  0  0  0
  148.0378  139.1279  152.6900 O   0  0  0  0  0  0  0  0  0  0  0  0
  149.9726  138.5045  153.9935 C   0  0  2  0  0  0  0  0  0  0  0  0
  149.8167  137.1796  154.4694 O   0  0  0  0  0  0  0  0  0  0  0  0
  152.6004  138.4699  156.4412 C   0  0  0  0  0  0  0  0  0  0  0  0
  153.4840  138.7001  155.6162 O   0  0  0  0  0  0  0  0  0  0  0  0
  152.8715  137.9008  157.6360 N   0  0  0  0  0  0  0  0  0  0  0  0
  151.7560  139.7338  154.4034 H   0  0  0  0  0  0  0  0  0  0  0  0
  149.4261  141.1667  153.3677 H   0  0  0  0  0  0  0  0  0  0  0  0
  147.9661  138.8527  154.7413 H   0  0  0  0  0  0  0  0  0  0  0  0
  150.4331  138.4881  153.0045 H   0  0  0  0  0  0  0  0  0  0  0  0
  153.3509  136.9558  159.6250 H   0  0  0  0  0  0  0  0  0  0  0  0
  149.2094  138.6800  156.9291 H   0  0  0  0  0  0  0  0  0  0  0  0
  147.0726  140.9277  155.2019 H   0  0  0  0  0  0  0  0  0  0  0  0
  148.2933  142.0459  155.7825 H   0  0  0  0  0  0  0  0  0  0  0  0
  147.7351  143.3804  154.3188 H   0  0  0  0  0  0  0  0  0  0  0  0
  148.5735  139.5956  152.0680 H   0  0  0  0  0  0  0  0  0  0  0  0
  149.5026  136.6412  153.7594 H   0  0  0  0  0  0  0  0  0  0  0  0
  153.8353  137.6773  157.8363 H   0  0  0  0  0  0  0  0  0  0  0  0
  1  2  2  0  0  0  0
  1 22  1  0  0  0  0
  2 17  1  0  0  0  0
  2  3  1  0  0  0  0
  3  4  2  0  0  0  0
  4  5  1  0  0  0  0
  4 23  1  0  0  0  0
  5  6  1  0  0  0  0
  5 15  1  0  0  0  0
  6 18  1  0  0  0  0
  6 13  1  0  0  0  0
  6  7  1  0  0  0  0
  7  8  1  0  0  0  0
  8 19  1  0  0  0  0
  8  9  1  0  0  0  0
  8 11  1  0  0  0  0
  9 10  1  0  0  0  0
  9 24  1  0  0  0  0
  9 25  1  0  0  0  0
 10 26  1  0  0  0  0
 11 20  1  0  0  0  0
 11 12  1  0  0  0  0
 11 13  1  0  0  0  0
 12 27  1  0  0  0  0
 13 21  1  0  0  0  0
 13 14  1  0  0  0  0
 14 28  1  0  0  0  0
 15 16  2  0  0  0  0
 15 17  1  0  0  0  0
 17 29  1  0  0  0  0
M  END
> <s_m_source_file>
AV-unprocessed.smi

> <i_m_source_file_index>
72

> <i_lp_mmshare_version>
43012

> <i_f3d_flags>
0

> <s_epik_input>
W05IMl1jMW5bY0hdbihjKD1PKW4xKVtDQEBIXTJPW0NASF0oW0NIMl1bT0hdKVtDQEBIXShbT0hdKVtDQEhdMltPSF0=

> <s_epik_cmdline>
J2VwaWtfcHl0aG9uJywgJy1waCcsICc3LjAnLCAnLXRuJywgJzgnLCAnLW1hJywgJzIwMCcsICctbWV0YWxfYmluZGluZycsICctaW1hZScsICc8aW5maWxlLm1hZT4nLCAnLW9tYWUnLCAnPG91dGZpbGUubWFlPic=

> <r_lp_tautomer_probability>
7.17554e-07

> <r_epik_Ionization_Penalty>
0.0066451

> <r_epik_Ionization_Penalty_Charging>
0.00663793

> <r_epik_Ionization_Penalty_Neutral>
7.17052e-06

> <r_epik_State_Penalty>
0.419231

> <r_epik_Charging_Adjusted_Penalty>
0.425868

> <i_epik_Tot_Q>
0

> <i_epik_Tot_abs_Q>
0

> <r_epik_Metal_State_Penalty>
1.44144

> <b_epik_Metal_Only>
0

> <s_epik_Chemistry_Notes>
This compound contains an acetal/aminal-like group ( X-CH(R)-Y where X, Y are N, S, or O) that may be acid/base labile, releasing an aldehyde.

> <s_lp_Force_Field>
OPLS_2005

> <r_lp_Energy>
42.2993

> <b_lp_Chiralities_Consistent>
1

> <s_lp_Variant>
AV-unprocessed.smi:72-9

> <Gold.Version>
5.8.1

> <Gold.Id.Protein>
6NUR|6NUR_protein|mol2

> <Gold.PLP.Fitness>
37.2955

> <Gold.PLP.PLP>
-24.4351

> <Gold.PLP.part.hbond>
-5.5835

> <Gold.PLP.part.metal>
0.0000

> <Gold.PLP.part.buried>
-3.9586

> <Gold.PLP.part.nonpolar>
-15.9554

> <Gold.PLP.part.repulsive>
0.2022

> <Gold.PLP.ligand.clash>
0.0000

> <Gold.PLP.ligand.torsion>
0.7728

> <Gold.PLP.Chemscore.Hbond>
4.7665

> <Gold.PLP.Chemscore.CHOScore>
0.0000

> <Gold.PLP.Chemscore.Metal>
0.0000

> <Gold.Chemscore.Hbonds>
donor molecule, donor type, donor heavy atom, donor atom, acceptor molecule, acceptor atom, score
      L1  H    10    26       P1  8028  0.67
      L1  H    12    27       P1  7957  0.75
      L1  H    14    28       P1  7948  1.00
      P1  H  6896  6909       L1     1  0.78
      P1  H  7997  8010       L1    16  0.88

> <Gold.PLP.Chemscore.Internal.Correction>
0.1065

> <Gold.Rescore>
     Score         DG    S(hbond)    S(metal)    S(lipo)     H(rot)  DE(clash)    DE(int)     intcor
     10.06     -11.85       4.10        0.00      26.29       4.06       0.02       1.77       ----

> <Gold.Chemscore.Fitness>
10.0593

> <Gold.Chemscore.DG>
-11.8480

> <Gold.Chemscore.ZeroCoef>
-5.4800

> <Gold.Chemscore.Hbond>
4.0974

> <Gold.Chemscore.Metal>
0.0000

> <Gold.Chemscore.Lipo>
26.2932

> <Gold.Chemscore.Internal_Hbond>
0.0000

> <Gold.Chemscore.DEClash>
0.0178

> <Gold.Chemscore.DEInternal>
1.7710

> <Gold.Chemscore.Rot>
4.0600

> <Gold.Chemscore.Internal.Correction>
   9.000000E+99

> <Gold.Chemscore.Hbonds>
donor molecule, donor type, donor heavy atom, donor atom, acceptor molecule, acceptor atom, score
      L1  H    10    26       P1  8028  0.39
      L1  H    12    27       P1  7957  0.75
      L1  H    14    28       P1  7948  0.78
      P1  H  6896  6909       L1     1  0.10
      P1  H  7997  8010       L1    16  0.48

> <Gold.Chemscore.Hbond.Weighted>
-13.6853

> <Gold.Chemscore.Metal.Weighted>
-0.0000

> <Gold.Chemscore.Lipo.Weighted>
-3.0763

> <Gold.Chemscore.Internal_Hbond.Weighted>
0.0000

> <Gold.Chemscore.DEClash.Weighted>
0.0178

> <Gold.Chemscore.DEInternal.Weighted>
1.7710

> <Gold.Chemscore.Rot.Weighted>
10.3936

> <Gold.Chemscore.Internal.Correction.Weighted>
   9.000000E+99

> <Gold.Protein.RotatedTorsions>
[ 6907 6896 6895 6894 ] final  141.29 input  -60.11 | X-H torsion
[ 7974 7965 7964 7962 ] final -139.36 input  175.53 | X-H torsion
[ 8008 7997 7996 7995 ] final   82.91 input   59.86 | X-H torsion
[ 10167 10162 10161 10158 ] final  -81.48 input  -65.29 | X-H torsion
[ 10718 10713 10712 10709 ] final   36.35 input   66.30 | X-H torsion
[ 10763 10752 10751 10750 ] final -153.99 input  -60.55 | X-H torsion
[ 11005 11000 10999 10996 ] final   80.32 input  -57.11 | X-H torsion

> <Gold.Protein.ActiveResidues>
 VAL166  LYS551  ARG553  GLY616  TRP617  ASP618  TYR619  PRO620  LYS621  CYS622 
 ASP623  PHE694  ASN695  SER759  ASP760  ASP761  ALA762  ILE779  LEU786  VAL792 
 PHE793  MET794  SER795  GLU796  ALA797  LYS798  CYS799  TRP800  GLU811  SER814 

> <Gold.Protein.RotatedAtoms>
  152.2327  133.5071  159.5224 H   0  0  0  0  0  0  0  0  0  0  0  0  # atno 6907 bound_to 6896
  150.7042  134.1194  159.4038 H   0  0  0  0  0  0  0  0  0  0  0  0  # atno 6908 bound_to 6896
  151.9116  135.0336  160.0565 H   0  0  0  0  0  0  0  0  0  0  0  0  # atno 6909 bound_to 6896
  144.8683  140.6327  143.5283 H   0  0  0  0  0  0  0  0  0  0  0  0  # atno 7974 bound_to 7965
  155.9169  140.3424  155.6142 H   0  0  0  0  0  0  0  0  0  0  0  0  # atno 8008 bound_to 7997
  155.7320  140.0796  157.2303 H   0  0  0  0  0  0  0  0  0  0  0  0  # atno 8009 bound_to 7997
  154.4064  140.1586  156.2507 H   0  0  0  0  0  0  0  0  0  0  0  0  # atno 8010 bound_to 7997
  140.4408  143.2515  151.8628 H   0  0  0  0  0  0  0  0  0  0  0  0  # atno 10167 bound_to 10162
  157.3338  130.7512  149.6865 H   0  0  0  0  0  0  0  0  0  0  0  0  # atno 10718 bound_to 10713
  154.7890  135.3200  154.7821 H   0  0  0  0  0  0  0  0  0  0  0  0  # atno 10763 bound_to 10752
  153.8514  135.6862  153.4796 H   0  0  0  0  0  0  0  0  0  0  0  0  # atno 10764 bound_to 10752
  153.1552  135.4683  154.9634 H   0  0  0  0  0  0  0  0  0  0  0  0  # atno 10765 bound_to 10752
  139.9139  134.7911  156.1893 H   0  0  0  0  0  0  0  0  0  0  0  0  # atno 11005 bound_to 11000
  145.4179  139.1569  143.4090 LP  0  0  0  0  0  0  0  0  0  0  0  0  # atno 17320 bound_to 7965
  146.2912  140.4288  142.8739 LP  0  0  0  0  0  0  0  0  0  0  0  0  # atno 17321 bound_to 7965
  139.4789  144.5231  151.8774 LP  0  0  0  0  0  0  0  0  0  0  0  0  # atno 17342 bound_to 10162
  140.4320  144.2103  150.5888 LP  0  0  0  0  0  0  0  0  0  0  0  0  # atno 17343 bound_to 10162
  155.9699  130.4187  150.4342 LP  0  0  0  0  0  0  0  0  0  0  0  0  # atno 17370 bound_to 10713
  157.2378  131.0518  151.2454 LP  0  0  0  0  0  0  0  0  0  0  0  0  # atno 17371 bound_to 10713
  141.0593  133.6849  156.1922 LP  0  0  0  0  0  0  0  0  0  0  0  0  # atno 17394 bound_to 11000
  140.6686  134.4892  157.5586 LP  0  0  0  0  0  0  0  0  0  0  0  0  # atno 17395 bound_to 11000

$$$$
