AV-unprocessed.smi:1676|AV-procd|sdf|6719|dock10
  -GOLD-   22720 7463D 1   1.00000     0.00000
 Structure written by MMmdl.
 42 43  0  0  0  0  0  0  0  0  2 V2000
  147.5819  136.3173  161.3029 C   0  0  0  0  0  0  0  0  0  0  0  0
  148.3062  135.8174  160.0860 C   0  0  0  0  0  0  0  0  0  0  0  0
  148.5412  134.5220  159.9612 N   0  0  0  0  0  0  0  0  0  0  0  0
  149.2034  134.3685  158.7394 O   0  0  0  0  0  0  0  0  0  0  0  0
  149.3416  135.5924  158.1692 C   0  0  0  0  0  0  0  0  0  0  0  0
  150.0204  135.6382  156.8425 C   0  0  0  0  0  0  0  0  0  0  0  0
  148.8004  136.5577  158.9731 C   0  0  0  0  0  0  0  0  0  0  0  0
  148.7320  138.0474  158.7355 C   0  0  0  0  0  0  0  0  0  0  0  0
  150.0892  138.6262  158.3148 C   0  0  0  0  0  0  0  0  0  0  0  0
  151.0938  137.9146  158.2947 O   0  0  0  0  0  0  0  0  0  0  0  0
  150.0622  139.9339  157.9951 N   0  0  0  0  0  0  0  0  0  0  0  0
  151.0998  140.8789  157.5399 C   0  0  0  0  0  0  0  0  0  0  0  0
  151.5684  140.3100  156.1728 C   0  0  0  0  0  0  0  0  0  0  0  0
  152.7197  139.8278  156.0813 O   0  0  0  0  0  0  0  0  0  0  0  0
  150.7698  140.3988  155.2118 O   0  5  0  0  0  0  0  0  0  0  0  0
  150.5929  142.3520  157.3845 C   0  0  0  0  0  0  0  0  0  0  0  0
  151.6813  143.4150  157.1397 C   0  0  0  0  0  0  0  0  0  0  0  0
  152.1852  144.0477  158.4473 C   0  0  0  0  0  0  0  0  0  0  0  0
  153.0112  143.1076  159.3381 C   0  0  0  0  0  0  0  0  0  0  0  0
  152.3169  141.7830  159.7067 C   0  0  0  0  0  0  0  0  0  0  0  0
  152.2912  140.7715  158.5444 C   0  0  0  0  0  0  0  0  0  0  0  0
  147.6956  137.3945  161.4213 H   0  0  0  0  0  0  0  0  0  0  0  0
  147.9602  135.8456  162.2102 H   0  0  0  0  0  0  0  0  0  0  0  0
  146.5151  136.1040  161.2351 H   0  0  0  0  0  0  0  0  0  0  0  0
  149.7219  136.5247  156.2825 H   0  0  0  0  0  0  0  0  0  0  0  0
  149.7657  134.7628  156.2447 H   0  0  0  0  0  0  0  0  0  0  0  0
  151.1030  135.6628  156.9645 H   0  0  0  0  0  0  0  0  0  0  0  0
  148.0003  138.2885  157.9640 H   0  0  0  0  0  0  0  0  0  0  0  0
  148.4009  138.5689  159.6344 H   0  0  0  0  0  0  0  0  0  0  0  0
  149.1559  140.3679  158.0944 H   0  0  0  0  0  0  0  0  0  0  0  0
  149.8668  142.4096  156.5719 H   0  0  0  0  0  0  0  0  0  0  0  0
  150.0310  142.6551  158.2674 H   0  0  0  0  0  0  0  0  0  0  0  0
  152.5099  143.0155  156.5546 H   0  0  0  0  0  0  0  0  0  0  0  0
  151.2473  144.2105  156.5332 H   0  0  0  0  0  0  0  0  0  0  0  0
  152.7980  144.9158  158.2028 H   0  0  0  0  0  0  0  0  0  0  0  0
  151.3391  144.4365  159.0150 H   0  0  0  0  0  0  0  0  0  0  0  0
  153.9699  142.8999  158.8611 H   0  0  0  0  0  0  0  0  0  0  0  0
  153.2527  143.6409  160.2581 H   0  0  0  0  0  0  0  0  0  0  0  0
  152.8889  141.3345  160.5198 H   0  0  0  0  0  0  0  0  0  0  0  0
  151.3185  141.9512  160.1113 H   0  0  0  0  0  0  0  0  0  0  0  0
  152.3049  139.7680  158.9740 H   0  0  0  0  0  0  0  0  0  0  0  0
  153.2465  140.8498  158.0218 H   0  0  0  0  0  0  0  0  0  0  0  0
  1  2  1  0  0  0  0
  1 22  1  0  0  0  0
  1 23  1  0  0  0  0
  1 24  1  0  0  0  0
  2  7  1  0  0  0  0
  2  3  2  0  0  0  0
  3  4  1  0  0  0  0
  4  5  1  0  0  0  0
  5  6  1  0  0  0  0
  5  7  2  0  0  0  0
  6 25  1  0  0  0  0
  6 26  1  0  0  0  0
  6 27  1  0  0  0  0
  7  8  1  0  0  0  0
  8  9  1  0  0  0  0
  8 28  1  0  0  0  0
  8 29  1  0  0  0  0
  9 10  2  0  0  0  0
  9 11  1  0  0  0  0
 11 12  1  0  0  0  0
 11 30  1  0  0  0  0
 12 21  1  0  0  0  0
 12 13  1  0  0  0  0
 12 16  1  0  0  0  0
 13 14  2  0  0  0  0
 13 15  1  0  0  0  0
 16 17  1  0  0  0  0
 16 31  1  0  0  0  0
 16 32  1  0  0  0  0
 17 18  1  0  0  0  0
 17 33  1  0  0  0  0
 17 34  1  0  0  0  0
 18 19  1  0  0  0  0
 18 35  1  0  0  0  0
 18 36  1  0  0  0  0
 19 20  1  0  0  0  0
 19 37  1  0  0  0  0
 19 38  1  0  0  0  0
 20 21  1  0  0  0  0
 20 39  1  0  0  0  0
 20 40  1  0  0  0  0
 21 41  1  0  0  0  0
 21 42  1  0  0  0  0
M  CHG  1  15  -1
M  END
> <s_m_source_file>
AV-unprocessed.smi

> <i_m_source_file_index>
1676

> <i_lp_mmshare_version>
43012

> <i_f3d_flags>
0

> <s_epik_input>
W0NIM11jMW5vYyhbQ0gzXSljMVtDSDJdQyg9TylbTkhdQzIoQyg9TylbT0hdKVtDSDJdW0NIMl1bQ0gyXVtDSDJdW0NIMl1bQ0gyXTI=

> <s_epik_cmdline>
J2VwaWtfcHl0aG9uJywgJy1waCcsICc3LjAnLCAnLXRuJywgJzgnLCAnLW1hJywgJzIwMCcsICctbWV0YWxfYmluZGluZycsICctaW1hZScsICc8aW5maWxlLm1hZT4nLCAnLW9tYWUnLCAnPG91dGZpbGUubWFlPic=

> <r_epik_Ionization_Penalty>
0.000392727

> <r_epik_Ionization_Penalty_Charging>
0.000392708

> <r_epik_Ionization_Penalty_Neutral>
1.90763e-08

> <r_epik_State_Penalty>
0.000240388

> <r_epik_Charging_Adjusted_Penalty>
0.000633096

> <i_epik_Tot_Q>
-1

> <i_epik_Tot_abs_Q>
1

> <r_epik_Metal_State_Penalty>
-0

> <b_epik_Metal_Only>
0

> <s_lp_Force_Field>
OPLS_2005

> <r_lp_Energy>
9.66029

> <b_lp_Chiralities_Consistent>
1

> <s_lp_Variant>
AV-unprocessed.smi:1676-1

> <Gold.Version>
5.8.1

> <Gold.Id.Protein>
6NUR|6NUR_protein|mol2

> <Gold.PLP.Fitness>
44.2214

> <Gold.PLP.PLP>
-33.1561

> <Gold.PLP.part.hbond>
-3.5313

> <Gold.PLP.part.metal>
0.0000

> <Gold.PLP.part.buried>
-4.5721

> <Gold.PLP.part.nonpolar>
-26.5242

> <Gold.PLP.part.repulsive>
0.1938

> <Gold.PLP.ligand.clash>
0.0000

> <Gold.PLP.ligand.torsion>
0.3526

> <Gold.PLP.Chemscore.Hbond>
3.9000

> <Gold.PLP.Chemscore.CHOScore>
0.0000

> <Gold.PLP.Chemscore.Metal>
0.0000

> <Gold.Chemscore.Hbonds>
donor molecule, donor type, donor heavy atom, donor atom, acceptor molecule, acceptor atom, score
      P1  H  6896  6909       L1     4  0.94
      P1  H  7989  7998       L1    15  1.00
      P1  H  7997  8008       L1    14  2.00

> <Gold.PLP.Chemscore.Internal.Correction>
0.0705

> <Gold.Rescore>
     Score         DG    S(hbond)    S(metal)    S(lipo)     H(rot)  DE(clash)    DE(int)     intcor
     15.90     -18.81       2.24        0.00      91.43       1.89       1.60       1.31       ----

> <Gold.Chemscore.Fitness>
15.8964

> <Gold.Chemscore.DG>
-18.8086

> <Gold.Chemscore.ZeroCoef>
-5.4800

> <Gold.Chemscore.Hbond>
2.2381

> <Gold.Chemscore.Metal>
0.0000

> <Gold.Chemscore.Lipo>
91.4336

> <Gold.Chemscore.Internal_Hbond>
0.0000

> <Gold.Chemscore.DEClash>
1.6003

> <Gold.Chemscore.DEInternal>
1.3119

> <Gold.Chemscore.Rot>
1.8924

> <Gold.Chemscore.Internal.Correction>
   9.000000E+99

> <Gold.Chemscore.Hbonds>
donor molecule, donor type, donor heavy atom, donor atom, acceptor molecule, acceptor atom, score
      P1  H  6896  6909       L1     4  0.12
      P1  H  7989  7998       L1    15  0.84
      P1  H  7997  8008       L1    14  1.00

> <Gold.Chemscore.Hbond.Weighted>
-7.4754

> <Gold.Chemscore.Metal.Weighted>
-0.0000

> <Gold.Chemscore.Lipo.Weighted>
-10.6977

> <Gold.Chemscore.Internal_Hbond.Weighted>
0.0000

> <Gold.Chemscore.DEClash.Weighted>
1.6003

> <Gold.Chemscore.DEInternal.Weighted>
1.3119

> <Gold.Chemscore.Rot.Weighted>
4.8445

> <Gold.Chemscore.Internal.Correction.Weighted>
   9.000000E+99

> <Gold.Protein.RotatedTorsions>
[ 6907 6896 6895 6894 ] final    8.65 input  -60.11 | X-H torsion
[ 7974 7965 7964 7962 ] final -107.35 input  175.53 | X-H torsion
[ 8008 7997 7996 7995 ] final  -32.71 input   59.86 | X-H torsion
[ 10167 10162 10161 10158 ] final   20.76 input  -65.29 | X-H torsion
[ 10718 10713 10712 10709 ] final  161.97 input   66.30 | X-H torsion
[ 10763 10752 10751 10750 ] final  152.48 input  -60.55 | X-H torsion
[ 11005 11000 10999 10996 ] final -127.96 input  -57.11 | X-H torsion

> <Gold.Protein.ActiveResidues>
 VAL166  LYS551  ARG553  GLY616  TRP617  ASP618  TYR619  PRO620  LYS621  CYS622 
 ASP623  PHE694  ASN695  SER759  ASP760  ASP761  ALA762  ILE779  LEU786  VAL792 
 PHE793  MET794  SER795  GLU796  ALA797  LYS798  CYS799  TRP800  GLU811  SER814 

> <Gold.Protein.RotatedAtoms>
  151.7094  135.0915  160.0264 H   0  0  0  0  0  0  0  0  0  0  0  0  # atno 6907 bound_to 6896
  152.3671  133.6366  159.6067 H   0  0  0  0  0  0  0  0  0  0  0  0  # atno 6908 bound_to 6896
  150.7646  133.9246  159.3450 H   0  0  0  0  0  0  0  0  0  0  0  0  # atno 6909 bound_to 6896
  145.2065  140.9078  143.3339 H   0  0  0  0  0  0  0  0  0  0  0  0  # atno 7974 bound_to 7965
  154.4171  140.1730  156.1771 H   0  0  0  0  0  0  0  0  0  0  0  0  # atno 8008 bound_to 7997
  155.9713  140.3385  155.6554 H   0  0  0  0  0  0  0  0  0  0  0  0  # atno 8009 bound_to 7997
  155.6622  140.0702  157.2541 H   0  0  0  0  0  0  0  0  0  0  0  0  # atno 8010 bound_to 7997
  140.5479  143.9562  150.6559 H   0  0  0  0  0  0  0  0  0  0  0  0  # atno 10167 bound_to 10162
  157.1291  131.0512  151.2380 H   0  0  0  0  0  0  0  0  0  0  0  0  # atno 10718 bound_to 10713
  154.1207  135.2833  155.3209 H   0  0  0  0  0  0  0  0  0  0  0  0  # atno 10763 bound_to 10752
  154.6425  135.5397  153.7809 H   0  0  0  0  0  0  0  0  0  0  0  0  # atno 10764 bound_to 10752
  153.0314  135.6490  154.1361 H   0  0  0  0  0  0  0  0  0  0  0  0  # atno 10765 bound_to 10752
  140.9556  134.1006  157.4019 H   0  0  0  0  0  0  0  0  0  0  0  0  # atno 11005 bound_to 11000
  144.9897  139.3701  143.6221 LP  0  0  0  0  0  0  0  0  0  0  0  0  # atno 17320 bound_to 7965
  146.3407  139.9075  142.8785 LP  0  0  0  0  0  0  0  0  0  0  0  0  # atno 17321 bound_to 7965
  140.2980  143.3279  152.0999 LP  0  0  0  0  0  0  0  0  0  0  0  0  # atno 17342 bound_to 10162
  139.5015  144.6714  151.6233 LP  0  0  0  0  0  0  0  0  0  0  0  0  # atno 17343 bound_to 10162
  157.4408  130.7543  149.7068 LP  0  0  0  0  0  0  0  0  0  0  0  0  # atno 17370 bound_to 10713
  155.9812  130.4022  150.3486 LP  0  0  0  0  0  0  0  0  0  0  0  0  # atno 17371 bound_to 10713
  139.8861  135.0078  156.6478 LP  0  0  0  0  0  0  0  0  0  0  0  0  # atno 17394 bound_to 11000
  140.7541  133.8873  155.8368 LP  0  0  0  0  0  0  0  0  0  0  0  0  # atno 17395 bound_to 11000

$$$$
