AV-unprocessed.smi:884|AV-procd|sdf|4042|dock4
  -GOLD-   22720 1533D 1   1.00000     0.00000
 Structure written by MMmdl.
 47 49  0  0  0  0  0  0  0  0  1 V2000
  146.6439  136.9886  154.7777 O   0  0  0  0  0  0  0  0  0  0  0  0
  146.2241  138.0691  154.3610 C   0  0  0  0  0  0  0  0  0  0  0  0
  145.2931  138.1518  153.3943 N   0  0  0  0  0  0  0  0  0  0  0  0
  144.7104  137.0247  152.6697 C   0  0  0  0  0  0  0  0  0  0  0  0
  145.7681  136.2237  151.8867 C   0  0  0  0  0  0  0  0  0  0  0  0
  145.3311  134.8149  151.5177 C   0  0  0  0  0  0  0  0  0  0  0  0
  143.9984  134.4004  151.7252 C   0  0  0  0  0  0  0  0  0  0  0  0
  143.6454  133.0803  151.3839 C   0  0  0  0  0  0  0  0  0  0  0  0
  144.6325  132.2309  150.8481 C   0  0  0  0  0  0  0  0  0  0  0  0
  145.9356  132.7399  150.6809 C   0  0  0  0  0  0  0  0  0  0  0  0
  146.2864  134.0013  151.0120 N   0  0  0  0  0  0  0  0  0  0  0  0
  146.6718  139.2647  154.8244 N   0  0  0  0  0  0  0  0  0  0  0  0
  146.3741  140.5851  154.2487 C   0  0  0  0  0  0  0  0  0  0  0  0
  147.5797  141.0492  153.4211 C   0  0  0  0  0  0  0  0  0  0  0  0
  149.0515  141.2480  154.4722 S   0  0  0  0  0  0  0  0  0  0  0  0
  149.0834  139.6534  155.3778 C   0  0  0  0  0  0  0  0  0  0  0  0
  149.5860  138.5104  154.4555 C   0  0  0  0  0  0  0  0  0  0  0  0
  151.0650  138.6488  154.0551 C   0  0  0  0  0  0  0  0  0  0  0  0
  151.9678  138.7567  155.2905 C   0  0  0  0  0  0  0  0  0  0  0  0
  151.5219  139.9140  156.1939 C   0  0  0  0  0  0  0  0  0  0  0  0
  150.0405  139.7749  156.5903 C   0  0  0  0  0  0  0  0  0  0  0  0
  147.6552  139.3596  155.9141 C   0  0  0  0  0  0  0  0  0  0  0  0
  144.9994  139.0739  153.1070 H   0  0  0  0  0  0  0  0  0  0  0  0
  144.1797  136.3550  153.3483 H   0  0  0  0  0  0  0  0  0  0  0  0
  143.9594  137.4106  151.9803 H   0  0  0  0  0  0  0  0  0  0  0  0
  146.0320  136.7605  150.9749 H   0  0  0  0  0  0  0  0  0  0  0  0
  146.6855  136.1656  152.4747 H   0  0  0  0  0  0  0  0  0  0  0  0
  143.2650  135.0751  152.1421 H   0  0  0  0  0  0  0  0  0  0  0  0
  142.6357  132.7260  151.5307 H   0  0  0  0  0  0  0  0  0  0  0  0
  144.3984  131.2123  150.5761 H   0  0  0  0  0  0  0  0  0  0  0  0
  146.7197  132.1141  150.2807 H   0  0  0  0  0  0  0  0  0  0  0  0
  145.4749  140.5961  153.6325 H   0  0  0  0  0  0  0  0  0  0  0  0
  146.1731  141.3014  155.0466 H   0  0  0  0  0  0  0  0  0  0  0  0
  147.7964  140.3372  152.6251 H   0  0  0  0  0  0  0  0  0  0  0  0
  147.3646  142.0043  152.9419 H   0  0  0  0  0  0  0  0  0  0  0  0
  149.4533  137.5542  154.9636 H   0  0  0  0  0  0  0  0  0  0  0  0
  148.9816  138.4520  153.5527 H   0  0  0  0  0  0  0  0  0  0  0  0
  151.3646  137.7900  153.4543 H   0  0  0  0  0  0  0  0  0  0  0  0
  151.2000  139.5256  153.4212 H   0  0  0  0  0  0  0  0  0  0  0  0
  151.9350  137.8216  155.8507 H   0  0  0  0  0  0  0  0  0  0  0  0
  153.0044  138.8994  154.9843 H   0  0  0  0  0  0  0  0  0  0  0  0
  152.1417  139.9402  157.0906 H   0  0  0  0  0  0  0  0  0  0  0  0
  151.6865  140.8635  155.6834 H   0  0  0  0  0  0  0  0  0  0  0  0
  149.7501  140.6228  157.2123 H   0  0  0  0  0  0  0  0  0  0  0  0
  149.9369  138.8913  157.2220 H   0  0  0  0  0  0  0  0  0  0  0  0
  147.3488  140.1481  156.6033 H   0  0  0  0  0  0  0  0  0  0  0  0
  147.6636  138.4528  156.5211 H   0  0  0  0  0  0  0  0  0  0  0  0
  1  2  2  0  0  0  0
  2  3  1  0  0  0  0
  2 12  1  0  0  0  0
  3  4  1  0  0  0  0
  3 23  1  0  0  0  0
  4  5  1  0  0  0  0
  4 24  1  0  0  0  0
  4 25  1  0  0  0  0
  5  6  1  0  0  0  0
  5 26  1  0  0  0  0
  5 27  1  0  0  0  0
  6 11  1  0  0  0  0
  6  7  2  0  0  0  0
  7  8  1  0  0  0  0
  7 28  1  0  0  0  0
  8  9  2  0  0  0  0
  8 29  1  0  0  0  0
  9 10  1  0  0  0  0
  9 30  1  0  0  0  0
 10 11  2  0  0  0  0
 10 31  1  0  0  0  0
 12 22  1  0  0  0  0
 12 13  1  0  0  0  0
 13 14  1  0  0  0  0
 13 32  1  0  0  0  0
 13 33  1  0  0  0  0
 14 15  1  0  0  0  0
 14 34  1  0  0  0  0
 14 35  1  0  0  0  0
 15 16  1  0  0  0  0
 16 21  1  0  0  0  0
 16 17  1  0  0  0  0
 16 22  1  0  0  0  0
 17 18  1  0  0  0  0
 17 36  1  0  0  0  0
 17 37  1  0  0  0  0
 18 19  1  0  0  0  0
 18 38  1  0  0  0  0
 18 39  1  0  0  0  0
 19 20  1  0  0  0  0
 19 40  1  0  0  0  0
 19 41  1  0  0  0  0
 20 21  1  0  0  0  0
 20 42  1  0  0  0  0
 20 43  1  0  0  0  0
 21 44  1  0  0  0  0
 21 45  1  0  0  0  0
 22 46  1  0  0  0  0
 22 47  1  0  0  0  0
M  END
> <s_m_source_file>
AV-unprocessed.smi

> <i_m_source_file_index>
884

> <i_lp_mmshare_version>
43012

> <i_f3d_flags>
0

> <s_epik_input>
bjFbY0hdW2NIXVtjSF1bY0hdYzFbQ0gyXVtDSDJdW05IXUMoPU8pTihbQ0gyXTIpW0NIMl1bQ0gyXVNDMjNbQ0gyXVtDSDJdW0NIMl1bQ0gyXVtDSDJdMw==

> <s_epik_cmdline>
J2VwaWtfcHl0aG9uJywgJy1waCcsICc3LjAnLCAnLXRuJywgJzgnLCAnLW1hJywgJzIwMCcsICctbWV0YWxfYmluZGluZycsICctaW1hZScsICc8aW5maWxlLm1hZT4nLCAnLW9tYWUnLCAnPG91dGZpbGUubWFlPic=

> <r_epik_Ionization_Penalty>
0.0449137

> <r_epik_Ionization_Penalty_Charging>
0

> <r_epik_Ionization_Penalty_Neutral>
0.0449137

> <r_epik_State_Penalty>
0.0380475

> <r_epik_Charging_Adjusted_Penalty>
0.0380475

> <i_epik_Tot_Q>
0

> <i_epik_Tot_abs_Q>
0

> <r_epik_Metal_State_Penalty>
0.0353559

> <b_epik_Metal_Only>
0

> <s_lp_Force_Field>
OPLS_2005

> <r_lp_Energy>
30.1612

> <b_lp_Chiralities_Consistent>
1

> <s_lp_Variant>
AV-unprocessed.smi:884-1

> <Gold.Version>
5.8.1

> <Gold.Id.Protein>
6NUR|6NUR_protein|mol2

> <Gold.PLP.Fitness>
40.1148

> <Gold.PLP.PLP>
-34.4807

> <Gold.PLP.part.hbond>
-1.0000

> <Gold.PLP.part.metal>
0.0000

> <Gold.PLP.part.buried>
-3.7856

> <Gold.PLP.part.nonpolar>
-29.8397

> <Gold.PLP.part.repulsive>
0.2807

> <Gold.PLP.ligand.clash>
0.0000

> <Gold.PLP.ligand.torsion>
0.1934

> <Gold.PLP.Chemscore.Hbond>
1.0000

> <Gold.PLP.Chemscore.CHOScore>
1.0000

> <Gold.PLP.Chemscore.Metal>
0.0000

> <Gold.Chemscore.Hbonds>
donor molecule, donor type, donor heavy atom, donor atom, acceptor molecule, acceptor atom, score
      L1  H     3    23       P1 10175  1.00
      L1  C    10    31       P1 10747  0.89

> <Gold.PLP.Chemscore.Internal.Correction>
0.0208

> <Gold.Rescore>
     Score         DG    S(hbond)    S(metal)    S(lipo)     H(rot)  DE(clash)    DE(int)     intcor
     16.98     -17.23       0.96        0.00      99.86       1.23       0.12       0.13       ----

> <Gold.Chemscore.Fitness>
16.9808

> <Gold.Chemscore.DG>
-17.2342

> <Gold.Chemscore.ZeroCoef>
-5.4800

> <Gold.Chemscore.Hbond>
0.9621

> <Gold.Chemscore.Metal>
0.0000

> <Gold.Chemscore.Lipo>
99.8577

> <Gold.Chemscore.Internal_Hbond>
0.0000

> <Gold.Chemscore.DEClash>
0.1226

> <Gold.Chemscore.DEInternal>
0.1308

> <Gold.Chemscore.Rot>
1.2276

> <Gold.Chemscore.Internal.Correction>
   9.000000E+99

> <Gold.Chemscore.Hbonds>
donor molecule, donor type, donor heavy atom, donor atom, acceptor molecule, acceptor atom, score
      L1  H     3    23       P1 10175  0.93

> <Gold.Chemscore.Hbond.Weighted>
-3.2136

> <Gold.Chemscore.Metal.Weighted>
-0.0000

> <Gold.Chemscore.Lipo.Weighted>
-11.6834

> <Gold.Chemscore.Internal_Hbond.Weighted>
0.0000

> <Gold.Chemscore.DEClash.Weighted>
0.1226

> <Gold.Chemscore.DEInternal.Weighted>
0.1308

> <Gold.Chemscore.Rot.Weighted>
3.1427

> <Gold.Chemscore.Internal.Correction.Weighted>
   9.000000E+99

> <Gold.Protein.RotatedTorsions>
[ 6907 6896 6895 6894 ] final  119.73 input  -60.11 | X-H torsion
[ 7974 7965 7964 7962 ] final   78.47 input  175.53 | X-H torsion
[ 8008 7997 7996 7995 ] final   77.44 input   59.86 | X-H torsion
[ 10167 10162 10161 10158 ] final  -89.83 input  -65.29 | X-H torsion
[ 10718 10713 10712 10709 ] final  -79.85 input   66.30 | X-H torsion
[ 10763 10752 10751 10750 ] final   89.52 input  -60.55 | X-H torsion
[ 11005 11000 10999 10996 ] final  -83.68 input  -57.11 | X-H torsion

> <Gold.Protein.ActiveResidues>
 VAL166  LYS551  ARG553  GLY616  TRP617  ASP618  TYR619  PRO620  LYS621  CYS622 
 ASP623  PHE694  ASN695  SER759  ASP760  ASP761  ALA762  ILE779  LEU786  VAL792 
 PHE793  MET794  SER795  GLU796  ALA797  LYS798  CYS799  TRP800  GLU811  SER814 

> <Gold.Protein.RotatedAtoms>
  152.4451  133.7520  159.6699 H   0  0  0  0  0  0  0  0  0  0  0  0  # atno 6907 bound_to 6896
  150.8349  133.8020  159.3090 H   0  0  0  0  0  0  0  0  0  0  0  0  # atno 6908 bound_to 6896
  151.5663  135.1066  160.0036 H   0  0  0  0  0  0  0  0  0  0  0  0  # atno 6909 bound_to 6896
  145.6767  139.2512  143.1837 H   0  0  0  0  0  0  0  0  0  0  0  0  # atno 7974 bound_to 7965
  155.8416  140.3462  155.5635 H   0  0  0  0  0  0  0  0  0  0  0  0  # atno 8008 bound_to 7997
  155.8135  140.0902  157.1910 H   0  0  0  0  0  0  0  0  0  0  0  0  # atno 8009 bound_to 7997
  154.4005  140.1443  156.3402 H   0  0  0  0  0  0  0  0  0  0  0  0  # atno 8010 bound_to 7997
  140.3609  143.2842  151.9615 H   0  0  0  0  0  0  0  0  0  0  0  0  # atno 10167 bound_to 10162
  156.0083  130.4557  150.3711 H   0  0  0  0  0  0  0  0  0  0  0  0  # atno 10718 bound_to 10713
  153.1880  135.4467  155.0113 H   0  0  0  0  0  0  0  0  0  0  0  0  # atno 10763 bound_to 10752
  154.8072  135.3279  154.7402 H   0  0  0  0  0  0  0  0  0  0  0  0  # atno 10764 bound_to 10752
  153.7859  135.6974  153.4935 H   0  0  0  0  0  0  0  0  0  0  0  0  # atno 10765 bound_to 10752
  141.1656  133.7307  156.8756 H   0  0  0  0  0  0  0  0  0  0  0  0  # atno 11005 bound_to 11000
  146.0999  140.7556  142.9554 LP  0  0  0  0  0  0  0  0  0  0  0  0  # atno 17320 bound_to 7965
  144.7039  140.3771  143.7134 LP  0  0  0  0  0  0  0  0  0  0  0  0  # atno 17321 bound_to 7965
  139.4814  144.5993  151.7634 LP  0  0  0  0  0  0  0  0  0  0  0  0  # atno 17342 bound_to 10162
  140.5128  144.0999  150.6000 LP  0  0  0  0  0  0  0  0  0  0  0  0  # atno 17343 bound_to 10162
  157.1795  131.0389  151.2755 LP  0  0  0  0  0  0  0  0  0  0  0  0  # atno 17370 bound_to 10713
  157.4158  130.7410  149.6874 LP  0  0  0  0  0  0  0  0  0  0  0  0  # atno 17371 bound_to 10713
  140.1751  134.9073  157.2881 LP  0  0  0  0  0  0  0  0  0  0  0  0  # atno 17394 bound_to 11000
  140.2458  134.3741  155.7462 LP  0  0  0  0  0  0  0  0  0  0  0  0  # atno 17395 bound_to 11000

$$$$
