AV-unprocessed.smi:1451|AV-procd|sdf|5902|dock6
  -GOLD-   22720 5593D 1   1.00000     0.00000
 Structure written by MMmdl.
 47 48  0  0  0  0  0  0  0  0  2 V2000
  145.6435  131.8995  151.3715 C   0  0  0  0  0  0  0  0  0  0  0  0
  145.9041  133.4124  151.3602 C   0  0  1  0  0  0  0  0  0  0  0  0
  144.7472  134.1765  150.6951 C   0  0  0  0  0  0  0  0  0  0  0  0
  145.0214  135.6853  150.7227 C   0  0  0  0  0  0  0  0  0  0  0  0
  145.2941  136.1692  152.1557 C   0  0  0  0  0  0  0  0  0  0  0  0
  146.4196  135.4180  152.7695 N   0  3  1  0  0  0  0  0  0  0  0  0
  146.7938  135.9586  154.1011 C   0  0  0  0  0  0  0  0  0  0  0  0
  146.7359  137.4945  154.1491 C   0  0  0  0  0  0  0  0  0  0  0  0
  148.0669  138.0607  153.9731 N   0  0  0  0  0  0  0  0  0  0  0  0
  148.4450  139.2693  154.4140 C   0  0  0  0  0  0  0  0  0  0  0  0
  147.6984  140.0197  155.0431 O   0  0  0  0  0  0  0  0  0  0  0  0
  149.8932  139.6792  154.1113 C   0  0  0  0  0  0  0  0  0  0  0  0
  150.7087  139.8406  155.3266 N   0  0  0  0  0  0  0  0  0  0  0  0
  150.6675  141.0939  155.9688 C   0  0  0  0  0  0  0  0  0  0  0  0
  151.3822  141.3739  157.0755 C   0  0  0  0  0  0  0  0  0  0  0  0
  151.2764  142.7194  157.7764 C   0  0  0  0  0  0  0  0  0  0  0  0
  152.0247  142.7469  158.8795 F   0  0  0  0  0  0  0  0  0  0  0  0
  151.6982  143.6878  156.9645 F   0  0  0  0  0  0  0  0  0  0  0  0
  150.0152  142.9854  158.1192 F   0  0  0  0  0  0  0  0  0  0  0  0
  152.1905  140.2963  157.6115 C   0  0  0  0  0  0  0  0  0  0  0  0
  152.2356  139.0897  157.0138 C   0  0  0  0  0  0  0  0  0  0  0  0
  151.4707  138.8080  155.7973 C   0  0  0  0  0  0  0  0  0  0  0  0
  151.5120  137.7128  155.2354 O   0  0  0  0  0  0  0  0  0  0  0  0
  146.1534  133.9537  152.7826 C   0  0  0  0  0  0  0  0  0  0  0  0
  144.7459  131.6552  151.9405 H   0  0  0  0  0  0  0  0  0  0  0  0
  146.4786  131.3598  151.8190 H   0  0  0  0  0  0  0  0  0  0  0  0
  145.5100  131.5168  150.3592 H   0  0  0  0  0  0  0  0  0  0  0  0
  146.8068  133.5845  150.7717 H   0  0  0  0  0  0  0  0  0  0  0  0
  144.6139  133.8426  149.6656 H   0  0  0  0  0  0  0  0  0  0  0  0
  143.8121  133.9645  151.2154 H   0  0  0  0  0  0  0  0  0  0  0  0
  145.8793  135.9143  150.0887 H   0  0  0  0  0  0  0  0  0  0  0  0
  144.1729  136.2254  150.3016 H   0  0  0  0  0  0  0  0  0  0  0  0
  145.5281  137.2342  152.1321 H   0  0  0  0  0  0  0  0  0  0  0  0
  144.3996  136.0537  152.7702 H   0  0  0  0  0  0  0  0  0  0  0  0
  146.1029  135.5734  154.8527 H   0  0  0  0  0  0  0  0  0  0  0  0
  147.7849  135.5973  154.3803 H   0  0  0  0  0  0  0  0  0  0  0  0
  146.0743  137.8780  153.3721 H   0  0  0  0  0  0  0  0  0  0  0  0
  146.3348  137.8288  155.1069 H   0  0  0  0  0  0  0  0  0  0  0  0
  148.7459  137.5018  153.4771 H   0  0  0  0  0  0  0  0  0  0  0  0
  150.3273  138.9263  153.4520 H   0  0  0  0  0  0  0  0  0  0  0  0
  149.9020  140.6041  153.5312 H   0  0  0  0  0  0  0  0  0  0  0  0
  150.0180  141.8189  155.4998 H   0  0  0  0  0  0  0  0  0  0  0  0
  152.7752  140.4603  158.5045 H   0  0  0  0  0  0  0  0  0  0  0  0
  152.8518  138.3112  157.4393 H   0  0  0  0  0  0  0  0  0  0  0  0
  145.2929  133.7470  153.4215 H   0  0  0  0  0  0  0  0  0  0  0  0
  146.9992  133.4221  153.2165 H   0  0  0  0  0  0  0  0  0  0  0  0
  147.2166  135.5675  152.1671 H   0  0  0  0  0  0  0  0  0  0  0  0
  1  2  1  0  0  0  0
  1 25  1  0  0  0  0
  1 26  1  0  0  0  0
  1 27  1  0  0  0  0
  2 24  1  0  0  0  0
  2  3  1  0  0  0  0
  2 28  1  0  0  0  0
  3  4  1  0  0  0  0
  3 29  1  0  0  0  0
  3 30  1  0  0  0  0
  4  5  1  0  0  0  0
  4 31  1  0  0  0  0
  4 32  1  0  0  0  0
  5  6  1  0  0  0  0
  5 33  1  0  0  0  0
  5 34  1  0  0  0  0
  6  7  1  0  0  0  0
  6 24  1  0  0  0  0
  6 47  1  0  0  0  0
  7  8  1  0  0  0  0
  7 35  1  0  0  0  0
  7 36  1  0  0  0  0
  8  9  1  0  0  0  0
  8 37  1  0  0  0  0
  8 38  1  0  0  0  0
  9 10  1  0  0  0  0
  9 39  1  0  0  0  0
 10 11  2  0  0  0  0
 10 12  1  0  0  0  0
 12 13  1  0  0  0  0
 12 40  1  0  0  0  0
 12 41  1  0  0  0  0
 13 22  1  0  0  0  0
 13 14  1  0  0  0  0
 14 15  2  0  0  0  0
 14 42  1  0  0  0  0
 15 16  1  0  0  0  0
 15 20  1  0  0  0  0
 16 17  1  0  0  0  0
 16 18  1  0  0  0  0
 16 19  1  0  0  0  0
 20 21  2  0  0  0  0
 20 43  1  0  0  0  0
 21 22  1  0  0  0  0
 21 44  1  0  0  0  0
 22 23  2  0  0  0  0
 24 45  1  0  0  0  0
 24 46  1  0  0  0  0
M  CHG  1   6   1
M  END
> <s_m_source_file>
AV-unprocessed.smi

> <i_m_source_file_index>
1451

> <i_lp_mmshare_version>
43012

> <i_f3d_flags>
0

> <s_epik_input>
W0NIM11bQ0BASF0xW0NIMl1bQ0gyXVtDSDJdTihbQ0gyXTEpW0NIMl1bQ0gyXVtOSF1DKD1PKVtDSDJdbjJbY0hdYyhDKEYpKEYpRilbY0hdW2NIXWMyPU8=

> <s_epik_cmdline>
J2VwaWtfcHl0aG9uJywgJy1waCcsICc3LjAnLCAnLXRuJywgJzgnLCAnLW1hJywgJzIwMCcsICctbWV0YWxfYmluZGluZycsICctaW1hZScsICc8aW5maWxlLm1hZT4nLCAnLW9tYWUnLCAnPG91dGZpbGUubWFlPic=

> <r_lp_tautomer_probability>
1

> <r_epik_Ionization_Penalty>
0.00192452

> <r_epik_Ionization_Penalty_Charging>
0.00192444

> <r_epik_Ionization_Penalty_Neutral>
8.16761e-08

> <r_epik_State_Penalty>
0.00131115

> <r_epik_Charging_Adjusted_Penalty>
0.00323559

> <i_epik_Tot_Q>
1

> <i_epik_Tot_abs_Q>
1

> <r_epik_Metal_State_Penalty>
-0

> <b_epik_Metal_Only>
0

> <s_lp_Force_Field>
OPLS_2005

> <r_lp_Energy>
29.222

> <b_lp_Chiralities_Consistent>
1

> <s_lp_Variant>
AV-unprocessed.smi:1451-4

> <Gold.Version>
5.8.1

> <Gold.Id.Protein>
6NUR|6NUR_protein|mol2

> <Gold.PLP.Fitness>
44.8695

> <Gold.PLP.PLP>
-38.1384

> <Gold.PLP.part.hbond>
-2.0000

> <Gold.PLP.part.metal>
0.0000

> <Gold.PLP.part.buried>
-1.6310

> <Gold.PLP.part.nonpolar>
-34.4650

> <Gold.PLP.part.repulsive>
0.1096

> <Gold.PLP.ligand.clash>
0.0000

> <Gold.PLP.ligand.torsion>
0.9838

> <Gold.PLP.Chemscore.Hbond>
2.8800

> <Gold.PLP.Chemscore.CHOScore>
0.0000

> <Gold.PLP.Chemscore.Metal>
0.0000

> <Gold.Chemscore.Hbonds>
donor molecule, donor type, donor heavy atom, donor atom, acceptor molecule, acceptor atom, score
      L1  H     6    47       P1  7948  2.00
      L1  H     9    39       P1  7948  0.81

> <Gold.PLP.Chemscore.Internal.Correction>
0.0586

> <Gold.Rescore>
     Score         DG    S(hbond)    S(metal)    S(lipo)     H(rot)  DE(clash)    DE(int)     intcor
     16.95     -18.53       2.79        0.00      77.47       2.08       0.71       0.87       ----

> <Gold.Chemscore.Fitness>
16.9512

> <Gold.Chemscore.DG>
-18.5348

> <Gold.Chemscore.ZeroCoef>
-5.4800

> <Gold.Chemscore.Hbond>
2.7863

> <Gold.Chemscore.Metal>
0.0000

> <Gold.Chemscore.Lipo>
77.4652

> <Gold.Chemscore.Internal_Hbond>
0.0000

> <Gold.Chemscore.DEClash>
0.7094

> <Gold.Chemscore.DEInternal>
0.8742

> <Gold.Chemscore.Rot>
2.0762

> <Gold.Chemscore.Internal.Correction>
   9.000000E+99

> <Gold.Chemscore.Hbonds>
donor molecule, donor type, donor heavy atom, donor atom, acceptor molecule, acceptor atom, score
      L1  H     6    47       P1  7948  0.97
      L1  H     9    39       P1  7948  0.76

> <Gold.Chemscore.Hbond.Weighted>
-9.3064

> <Gold.Chemscore.Metal.Weighted>
-0.0000

> <Gold.Chemscore.Lipo.Weighted>
-9.0634

> <Gold.Chemscore.Internal_Hbond.Weighted>
0.0000

> <Gold.Chemscore.DEClash.Weighted>
0.7094

> <Gold.Chemscore.DEInternal.Weighted>
0.8742

> <Gold.Chemscore.Rot.Weighted>
5.3150

> <Gold.Chemscore.Internal.Correction.Weighted>
   9.000000E+99

> <Gold.Protein.RotatedTorsions>
[ 6907 6896 6895 6894 ] final   34.14 input  -60.11 | X-H torsion
[ 7974 7965 7964 7962 ] final -165.16 input  175.53 | X-H torsion
[ 8008 7997 7996 7995 ] final   69.25 input   59.86 | X-H torsion
[ 10167 10162 10161 10158 ] final   76.95 input  -65.29 | X-H torsion
[ 10718 10713 10712 10709 ] final  119.72 input   66.30 | X-H torsion
[ 10763 10752 10751 10750 ] final  167.44 input  -60.55 | X-H torsion
[ 11005 11000 10999 10996 ] final -164.58 input  -57.11 | X-H torsion

> <Gold.Protein.ActiveResidues>
 VAL166  LYS551  ARG553  GLY616  TRP617  ASP618  TYR619  PRO620  LYS621  CYS622 
 ASP623  PHE694  ASN695  SER759  ASP760  ASP761  ALA762  ILE779  LEU786  VAL792 
 PHE793  MET794  SER795  GLU796  ALA797  LYS798  CYS799  TRP800  GLU811  SER814 

> <Gold.Protein.RotatedAtoms>
  152.0983  134.9359  160.0570 H   0  0  0  0  0  0  0  0  0  0  0  0  # atno 6907 bound_to 6896
  152.0584  133.4046  159.4415 H   0  0  0  0  0  0  0  0  0  0  0  0  # atno 6908 bound_to 6896
  150.6838  134.3149  159.4805 H   0  0  0  0  0  0  0  0  0  0  0  0  # atno 6909 bound_to 6896
  144.7277  140.2854  143.6229 H   0  0  0  0  0  0  0  0  0  0  0  0  # atno 7974 bound_to 7965
  155.7207  140.3493  155.5015 H   0  0  0  0  0  0  0  0  0  0  0  0  # atno 8008 bound_to 7997
  155.9272  140.1077  157.1183 H   0  0  0  0  0  0  0  0  0  0  0  0  # atno 8009 bound_to 7997
  154.4079  140.1238  156.4742 H   0  0  0  0  0  0  0  0  0  0  0  0  # atno 8010 bound_to 7997
  139.9868  144.5786  150.7852 H   0  0  0  0  0  0  0  0  0  0  0  0  # atno 10167 bound_to 10162
  157.5942  131.1060  150.7935 H   0  0  0  0  0  0  0  0  0  0  0  0  # atno 10718 bound_to 10713
  154.3538  135.2753  155.2357 H   0  0  0  0  0  0  0  0  0  0  0  0  # atno 10763 bound_to 10752
  154.4575  135.5915  153.6236 H   0  0  0  0  0  0  0  0  0  0  0  0  # atno 10764 bound_to 10752
  152.9848  135.6057  154.3751 H   0  0  0  0  0  0  0  0  0  0  0  0  # atno 10765 bound_to 10752
  140.5853  134.5099  157.5185 H   0  0  0  0  0  0  0  0  0  0  0  0  # atno 11005 bound_to 11000
  145.7908  139.1926  143.2104 LP  0  0  0  0  0  0  0  0  0  0  0  0  # atno 17320 bound_to 7965
  146.0757  140.7819  142.9666 LP  0  0  0  0  0  0  0  0  0  0  0  0  # atno 17321 bound_to 7965
  140.7469  143.2898  151.3362 LP  0  0  0  0  0  0  0  0  0  0  0  0  # atno 17342 bound_to 10162
  139.6369  144.0613  152.2523 LP  0  0  0  0  0  0  0  0  0  0  0  0  # atno 17343 bound_to 10162
  156.8350  130.5028  149.5327 LP  0  0  0  0  0  0  0  0  0  0  0  0  # atno 17370 bound_to 10713
  156.1001  130.5963  150.9880 LP  0  0  0  0  0  0  0  0  0  0  0  0  # atno 17371 bound_to 10713
  139.9298  134.7985  156.0963 LP  0  0  0  0  0  0  0  0  0  0  0  0  # atno 17394 bound_to 11000
  141.0970  133.6692  156.2667 LP  0  0  0  0  0  0  0  0  0  0  0  0  # atno 17395 bound_to 11000

$$$$
