AV-unprocessed.smi:2746|AV-procd|sdf|10573|dock8
  -GOLD-   2272015 23D 1   1.00000     0.00000
 Structure written by MMmdl.
 39 40  0  0  0  0  0  0  0  0  2 V2000
  142.2143  135.4078  153.6924 C   0  0  0  0  0  0  0  0  0  0  0  0
  143.1649  136.3581  153.6675 C   0  0  0  0  0  0  0  0  0  0  0  0
  143.9550  136.8293  152.4529 C   0  0  2  0  0  0  0  0  0  0  0  0
  144.6854  135.6575  151.7843 C   0  0  0  0  0  0  0  0  0  0  0  0
  144.9205  137.8777  152.7818 N   0  0  0  0  0  0  0  0  0  0  0  0
  146.0287  137.7226  153.5255 C   0  0  0  0  0  0  0  0  0  0  0  0
  146.3451  136.6680  154.0764 O   0  0  0  0  0  0  0  0  0  0  0  0
  146.8623  138.9568  153.7041 C   0  0  0  0  0  0  0  0  0  0  0  0
  148.1910  138.9098  154.1886 C   0  0  0  0  0  0  0  0  0  0  0  0
  148.9136  140.1133  154.3669 C   0  0  0  0  0  0  0  0  0  0  0  0
  150.2310  140.1213  154.8447 N   0  0  0  0  0  0  0  0  0  0  0  0
  150.8500  138.8019  154.8548 C   0  0  0  0  0  0  0  0  0  0  0  0
  152.3272  138.9174  155.2696 C   0  0  0  0  0  0  0  0  0  0  0  0
  152.4174  139.5693  156.5333 O   0  0  0  0  0  0  0  0  0  0  0  0
  151.8794  140.8881  156.4949 C   0  0  0  0  0  0  0  0  0  0  0  0
  150.3906  140.8253  156.1116 C   0  0  0  0  0  0  0  0  0  0  0  0
  148.2852  141.3378  154.0567 C   0  0  0  0  0  0  0  0  0  0  0  0
  146.9569  141.3313  153.5879 C   0  0  0  0  0  0  0  0  0  0  0  0
  146.3035  140.1595  153.4358 N   0  3  0  0  0  0  0  0  0  0  0  0
  141.9134  134.8691  152.8061 H   0  0  0  0  0  0  0  0  0  0  0  0
  141.7183  135.1548  154.6179 H   0  0  0  0  0  0  0  0  0  0  0  0
  143.4114  136.8530  154.5959 H   0  0  0  0  0  0  0  0  0  0  0  0
  143.2255  137.2117  151.7370 H   0  0  0  0  0  0  0  0  0  0  0  0
  143.9857  134.8736  151.4920 H   0  0  0  0  0  0  0  0  0  0  0  0
  145.4217  135.2126  152.4547 H   0  0  0  0  0  0  0  0  0  0  0  0
  145.2078  135.9828  150.8841 H   0  0  0  0  0  0  0  0  0  0  0  0
  144.7355  138.7929  152.3976 H   0  0  0  0  0  0  0  0  0  0  0  0
  148.6533  137.9632  154.4291 H   0  0  0  0  0  0  0  0  0  0  0  0
  150.3219  138.1499  155.5520 H   0  0  0  0  0  0  0  0  0  0  0  0
  150.7734  138.3486  153.8656 H   0  0  0  0  0  0  0  0  0  0  0  0
  152.7749  137.9266  155.3471 H   0  0  0  0  0  0  0  0  0  0  0  0
  152.8996  139.4692  154.5223 H   0  0  0  0  0  0  0  0  0  0  0  0
  151.9962  141.3485  157.4761 H   0  0  0  0  0  0  0  0  0  0  0  0
  152.4391  141.5003  155.7860 H   0  0  0  0  0  0  0  0  0  0  0  0
  149.9828  141.8336  156.0288 H   0  0  0  0  0  0  0  0  0  0  0  0
  149.8320  140.3136  156.8964 H   0  0  0  0  0  0  0  0  0  0  0  0
  148.8117  142.2729  154.1828 H   0  0  0  0  0  0  0  0  0  0  0  0
  146.3996  142.2216  153.3357 H   0  0  0  0  0  0  0  0  0  0  0  0
  145.3392  140.1782  153.1017 H   0  0  0  0  0  0  0  0  0  0  0  0
  1  2  2  0  0  0  0
  1 20  1  0  0  0  0
  1 21  1  0  0  0  0
  2  3  1  0  0  0  0
  2 22  1  0  0  0  0
  3  4  1  0  0  0  0
  3  5  1  0  0  0  0
  3 23  1  0  0  0  0
  4 24  1  0  0  0  0
  4 25  1  0  0  0  0
  4 26  1  0  0  0  0
  5  6  1  0  0  0  0
  5 27  1  0  0  0  0
  6  7  2  0  0  0  0
  6  8  1  0  0  0  0
  8 19  1  0  0  0  0
  8  9  2  0  0  0  0
  9 10  1  0  0  0  0
  9 28  1  0  0  0  0
 10 11  1  0  0  0  0
 10 17  2  0  0  0  0
 11 16  1  0  0  0  0
 11 12  1  0  0  0  0
 12 13  1  0  0  0  0
 12 29  1  0  0  0  0
 12 30  1  0  0  0  0
 13 14  1  0  0  0  0
 13 31  1  0  0  0  0
 13 32  1  0  0  0  0
 14 15  1  0  0  0  0
 15 16  1  0  0  0  0
 15 33  1  0  0  0  0
 15 34  1  0  0  0  0
 16 35  1  0  0  0  0
 16 36  1  0  0  0  0
 17 18  1  0  0  0  0
 17 37  1  0  0  0  0
 18 19  2  0  0  0  0
 18 38  1  0  0  0  0
 19 39  1  0  0  0  0
M  CHG  1  19   1
M  END
> <s_m_source_file>
AV-unprocessed.smi

> <i_m_source_file_index>
2746

> <i_lp_mmshare_version>
43012

> <i_f3d_flags>
0

> <s_epik_input>
W0NIMl09W0NIXVtDQEhdKFtDSDNdKVtOSF1DKD1PKWMxW2NIXWMoW2NIXVtjSF1uMSlOMltDSDJdW0NIMl1PW0NIMl1bQ0gyXTI=

> <s_epik_cmdline>
J2VwaWtfcHl0aG9uJywgJy1waCcsICc3LjAnLCAnLXRuJywgJzgnLCAnLW1hJywgJzIwMCcsICctbWV0YWxfYmluZGluZycsICctaW1hZScsICc8aW5maWxlLm1hZT4nLCAnLW9tYWUnLCAnPG91dGZpbGUubWFlPic=

> <r_lp_tautomer_probability>
1

> <r_epik_Ionization_Penalty>
0.451073

> <r_epik_Ionization_Penalty_Charging>
0.450607

> <r_epik_Ionization_Penalty_Neutral>
0.000466544

> <r_epik_State_Penalty>
0.453375

> <r_epik_Charging_Adjusted_Penalty>
0.903982

> <i_epik_Tot_Q>
1

> <i_epik_Tot_abs_Q>
1

> <r_epik_Metal_State_Penalty>
1.0249

> <b_epik_Metal_Only>
0

> <s_lp_Force_Field>
OPLS_2005

> <r_lp_Energy>
26.9967

> <b_lp_Chiralities_Consistent>
1

> <s_lp_Variant>
AV-unprocessed.smi:2746-3

> <Gold.Version>
5.8.1

> <Gold.Id.Protein>
6NUR|6NUR_protein|mol2

> <Gold.PLP.Fitness>
46.9387

> <Gold.PLP.PLP>
-34.4596

> <Gold.PLP.part.hbond>
-4.6489

> <Gold.PLP.part.metal>
0.0000

> <Gold.PLP.part.buried>
-4.9140

> <Gold.PLP.part.nonpolar>
-25.4300

> <Gold.PLP.part.repulsive>
0.1762

> <Gold.PLP.ligand.clash>
0.3450

> <Gold.PLP.ligand.torsion>
0.3188

> <Gold.PLP.Chemscore.Hbond>
4.4420

> <Gold.PLP.Chemscore.CHOScore>
0.0000

> <Gold.PLP.Chemscore.Metal>
0.0000

> <Gold.Chemscore.Hbonds>
donor molecule, donor type, donor heavy atom, donor atom, acceptor molecule, acceptor atom, score
      L1  H     5    27       P1 10175  0.96
      L1  H    19    39       P1 10175  2.00
      P1  H  7989  7998       L1    11  0.57
      P1  H  7997  8008       L1    14  0.68

> <Gold.PLP.Chemscore.Internal.Correction>
0.1357

> <Gold.Rescore>
     Score         DG    S(hbond)    S(metal)    S(lipo)     H(rot)  DE(clash)    DE(int)     intcor
     16.21     -17.87       1.99        0.00      77.59       1.30       0.02       1.64       ----

> <Gold.Chemscore.Fitness>
16.2052

> <Gold.Chemscore.DG>
-17.8694

> <Gold.Chemscore.ZeroCoef>
-5.4800

> <Gold.Chemscore.Hbond>
1.9887

> <Gold.Chemscore.Metal>
0.0000

> <Gold.Chemscore.Lipo>
77.5934

> <Gold.Chemscore.Internal_Hbond>
0.0000

> <Gold.Chemscore.DEClash>
0.0209

> <Gold.Chemscore.DEInternal>
1.6433

> <Gold.Chemscore.Rot>
1.3013

> <Gold.Chemscore.Internal.Correction>
   9.000000E+99

> <Gold.Chemscore.Hbonds>
donor molecule, donor type, donor heavy atom, donor atom, acceptor molecule, acceptor atom, score
      L1  H     5    27       P1 10175  0.91
      L1  H    19    39       P1 10175  1.00
      P1  H  7989  7998       L1    11  0.03
      P1  H  7997  8008       L1    14  0.02

> <Gold.Chemscore.Hbond.Weighted>
-6.6422

> <Gold.Chemscore.Metal.Weighted>
-0.0000

> <Gold.Chemscore.Lipo.Weighted>
-9.0784

> <Gold.Chemscore.Internal_Hbond.Weighted>
0.0000

> <Gold.Chemscore.DEClash.Weighted>
0.0209

> <Gold.Chemscore.DEInternal.Weighted>
1.6433

> <Gold.Chemscore.Rot.Weighted>
3.3313

> <Gold.Chemscore.Internal.Correction.Weighted>
   9.000000E+99

> <Gold.Protein.RotatedTorsions>
[ 6907 6896 6895 6894 ] final  -76.90 input  -60.11 | X-H torsion
[ 7974 7965 7964 7962 ] final -119.50 input  175.53 | X-H torsion
[ 8008 7997 7996 7995 ] final  -45.91 input   59.86 | X-H torsion
[ 10167 10162 10161 10158 ] final  -59.44 input  -65.29 | X-H torsion
[ 10718 10713 10712 10709 ] final  108.36 input   66.30 | X-H torsion
[ 10763 10752 10751 10750 ] final  100.51 input  -60.55 | X-H torsion
[ 11005 11000 10999 10996 ] final    4.69 input  -57.11 | X-H torsion

> <Gold.Protein.ActiveResidues>
 VAL166  LYS551  ARG553  GLY616  TRP617  ASP618  TYR619  PRO620  LYS621  CYS622 
 ASP623  PHE694  ASN695  SER759  ASP760  ASP761  ALA762  ILE779  LEU786  VAL792 
 PHE793  MET794  SER795  GLU796  ALA797  LYS798  CYS799  TRP800  GLU811  SER814 

> <Gold.Protein.RotatedAtoms>
  150.7014  134.4503  159.5332 H   0  0  0  0  0  0  0  0  0  0  0  0  # atno 6907 bound_to 6896
  152.2197  134.8422  160.0496 H   0  0  0  0  0  0  0  0  0  0  0  0  # atno 6908 bound_to 6896
  151.9277  133.3567  159.3956 H   0  0  0  0  0  0  0  0  0  0  0  0  # atno 6909 bound_to 6896
  145.0618  140.8295  143.4148 H   0  0  0  0  0  0  0  0  0  0  0  0  # atno 7974 bound_to 7965
  154.4004  140.1385  156.3924 H   0  0  0  0  0  0  0  0  0  0  0  0  # atno 8008 bound_to 7997
  155.7902  140.3479  155.5324 H   0  0  0  0  0  0  0  0  0  0  0  0  # atno 8009 bound_to 7997
  155.8587  140.0953  157.1618 H   0  0  0  0  0  0  0  0  0  0  0  0  # atno 8010 bound_to 7997
  140.6135  143.2394  151.5654 H   0  0  0  0  0  0  0  0  0  0  0  0  # atno 10167 bound_to 10162
  157.6589  131.0892  150.6294 H   0  0  0  0  0  0  0  0  0  0  0  0  # atno 10718 bound_to 10713
  153.3149  135.4076  155.1367 H   0  0  0  0  0  0  0  0  0  0  0  0  # atno 10763 bound_to 10752
  154.8585  135.3573  154.5674 H   0  0  0  0  0  0  0  0  0  0  0  0  # atno 10764 bound_to 10752
  153.6104  135.7068  153.5408 H   0  0  0  0  0  0  0  0  0  0  0  0  # atno 10765 bound_to 10752
  140.5791  134.0030  155.8040 H   0  0  0  0  0  0  0  0  0  0  0  0  # atno 11005 bound_to 11000
  145.1399  139.2578  143.5495 LP  0  0  0  0  0  0  0  0  0  0  0  0  # atno 17320 bound_to 7965
  146.3525  140.1074  142.8605 LP  0  0  0  0  0  0  0  0  0  0  0  0  # atno 17321 bound_to 7965
  139.5380  144.2728  152.1291 LP  0  0  0  0  0  0  0  0  0  0  0  0  # atno 17342 bound_to 10162
  140.1932  144.4731  150.6468 LP  0  0  0  0  0  0  0  0  0  0  0  0  # atno 17343 bound_to 10162
  156.6598  130.4509  149.5691 LP  0  0  0  0  0  0  0  0  0  0  0  0  # atno 17370 bound_to 10713
  156.2075  130.6658  151.1234 LP  0  0  0  0  0  0  0  0  0  0  0  0  # atno 17371 bound_to 10713
  141.1008  133.9772  157.3083 LP  0  0  0  0  0  0  0  0  0  0  0  0  # atno 17394 bound_to 11000
  139.9326  135.0199  156.8449 LP  0  0  0  0  0  0  0  0  0  0  0  0  # atno 17395 bound_to 11000

$$$$
