AV-unprocessed.smi:1579|AV-procd|sdf|6357|dock3
  -GOLD-   22720 6583D 1   1.00000     0.00000
 Structure written by MMmdl.
 47 48  0  0  0  0  0  0  0  0  2 V2000
  147.2400  138.6980  155.1402 C   0  0  0  0  0  0  0  0  0  0  0  0
  148.5821  138.0255  155.2497 C   0  0  0  0  0  0  0  0  0  0  0  0
  148.5794  136.7370  155.3555 N   0  0  0  0  0  0  0  0  0  0  0  0
  149.7556  136.0220  155.4580 N   0  0  0  0  0  0  0  0  0  0  0  0
  149.5637  134.5707  155.5633 C   0  0  0  0  0  0  0  0  0  0  0  0
  149.0114  133.9604  154.2561 C   0  0  1  0  0  0  0  0  0  0  0  0
  149.4061  132.6034  154.1997 O   0  0  0  0  0  0  0  0  0  0  0  0
  147.4696  133.9948  154.2251 C   0  0  0  0  0  0  0  0  0  0  0  0
  146.9311  134.3924  152.8986 N   0  3  2  0  0  0  0  0  0  0  0  0
  145.6684  135.1738  152.9858 C   0  0  0  0  0  0  0  0  0  0  0  0
  145.2255  135.6711  151.5982 C   0  0  0  0  0  0  0  0  0  0  0  0
  145.0782  134.5205  150.5860 C   0  0  2  0  0  0  0  0  0  0  0  0
  143.8234  133.6652  150.8346 C   0  0  0  0  0  0  0  0  0  0  0  0
  146.3729  133.6880  150.5678 C   0  0  0  0  0  0  0  0  0  0  0  0
  146.7946  133.2349  151.9776 C   0  0  0  0  0  0  0  0  0  0  0  0
  151.0028  136.5739  155.4654 C   0  0  0  0  0  0  0  0  0  0  0  0
  152.0254  135.8946  155.5717 O   0  0  0  0  0  0  0  0  0  0  0  0
  150.9994  138.0334  155.3448 C   0  0  0  0  0  0  0  0  0  0  0  0
  152.2856  138.6524  155.3444 C   0  0  0  0  0  0  0  0  0  0  0  0
  153.3207  139.1703  155.3534 N   0  0  0  0  0  0  0  0  0  0  0  0
  149.8505  138.7476  155.2421 C   0  0  0  0  0  0  0  0  0  0  0  0
  149.7922  140.2638  155.1161 C   0  0  0  0  0  0  0  0  0  0  0  0
  147.1773  139.2930  154.2289 H   0  0  0  0  0  0  0  0  0  0  0  0
  147.0689  139.3596  155.9897 H   0  0  0  0  0  0  0  0  0  0  0  0
  146.4231  137.9752  155.1169 H   0  0  0  0  0  0  0  0  0  0  0  0
  150.4887  134.0717  155.8607 H   0  0  0  0  0  0  0  0  0  0  0  0
  148.8704  134.3765  156.3840 H   0  0  0  0  0  0  0  0  0  0  0  0
  149.4200  134.4868  153.3945 H   0  0  0  0  0  0  0  0  0  0  0  0
  150.1679  132.5348  153.6437 H   0  0  0  0  0  0  0  0  0  0  0  0
  147.0972  133.0057  154.4972 H   0  0  0  0  0  0  0  0  0  0  0  0
  147.0855  134.6802  154.9824 H   0  0  0  0  0  0  0  0  0  0  0  0
  144.8876  134.5605  153.4376 H   0  0  0  0  0  0  0  0  0  0  0  0
  145.7990  136.0358  153.6385 H   0  0  0  0  0  0  0  0  0  0  0  0
  144.2898  136.2255  151.6794 H   0  0  0  0  0  0  0  0  0  0  0  0
  145.9650  136.3816  151.2257 H   0  0  0  0  0  0  0  0  0  0  0  0
  144.9571  134.9645  149.5969 H   0  0  0  0  0  0  0  0  0  0  0  0
  143.8452  133.1720  151.8061 H   0  0  0  0  0  0  0  0  0  0  0  0
  143.7234  132.8897  150.0749 H   0  0  0  0  0  0  0  0  0  0  0  0
  142.9212  134.2763  150.7965 H   0  0  0  0  0  0  0  0  0  0  0  0
  146.2572  132.8224  149.9147 H   0  0  0  0  0  0  0  0  0  0  0  0
  147.1758  134.2867  150.1350 H   0  0  0  0  0  0  0  0  0  0  0  0
  147.7474  132.7085  151.9076 H   0  0  0  0  0  0  0  0  0  0  0  0
  146.0735  132.5248  152.3850 H   0  0  0  0  0  0  0  0  0  0  0  0
  150.7794  140.7212  155.1719 H   0  0  0  0  0  0  0  0  0  0  0  0
  149.1888  140.6934  155.9161 H   0  0  0  0  0  0  0  0  0  0  0  0
  149.3511  140.5500  154.1609 H   0  0  0  0  0  0  0  0  0  0  0  0
  147.6267  134.9975  152.4853 H   0  0  0  0  0  0  0  0  0  0  0  0
  1  2  1  0  0  0  0
  1 23  1  0  0  0  0
  1 24  1  0  0  0  0
  1 25  1  0  0  0  0
  2 21  1  0  0  0  0
  2  3  2  0  0  0  0
  3  4  1  0  0  0  0
  4  5  1  0  0  0  0
  4 16  1  0  0  0  0
  5  6  1  0  0  0  0
  5 26  1  0  0  0  0
  5 27  1  0  0  0  0
  6  7  1  0  0  0  0
  6  8  1  0  0  0  0
  6 28  1  0  0  0  0
  7 29  1  0  0  0  0
  8  9  1  0  0  0  0
  8 30  1  0  0  0  0
  8 31  1  0  0  0  0
  9 15  1  0  0  0  0
  9 10  1  0  0  0  0
  9 47  1  0  0  0  0
 10 11  1  0  0  0  0
 10 32  1  0  0  0  0
 10 33  1  0  0  0  0
 11 12  1  0  0  0  0
 11 34  1  0  0  0  0
 11 35  1  0  0  0  0
 12 13  1  0  0  0  0
 12 14  1  0  0  0  0
 12 36  1  0  0  0  0
 13 37  1  0  0  0  0
 13 38  1  0  0  0  0
 13 39  1  0  0  0  0
 14 15  1  0  0  0  0
 14 40  1  0  0  0  0
 14 41  1  0  0  0  0
 15 42  1  0  0  0  0
 15 43  1  0  0  0  0
 16 17  2  0  0  0  0
 16 18  1  0  0  0  0
 18 19  1  0  0  0  0
 18 21  2  0  0  0  0
 19 20  3  0  0  0  0
 21 22  1  0  0  0  0
 22 44  1  0  0  0  0
 22 45  1  0  0  0  0
 22 46  1  0  0  0  0
M  CHG  1   9   1
M  END
> <s_m_source_file>
AV-unprocessed.smi

> <i_m_source_file_index>
1579

> <i_lp_mmshare_version>
43012

> <i_f3d_flags>
0

> <s_epik_input>
TiNDYyhjMVtDSDNdKWMoPU8pbihuYzFbQ0gzXSlbQ0gyXVtDQEhdKFtPSF0pW0NIMl1OMltDSDJdW0NIMl1bQ0hdKFtDSDNdKVtDSDJdW0NIMl0y

> <s_epik_cmdline>
J2VwaWtfcHl0aG9uJywgJy1waCcsICc3LjAnLCAnLXRuJywgJzgnLCAnLW1hJywgJzIwMCcsICctbWV0YWxfYmluZGluZycsICctaW1hZScsICc8aW5maWxlLm1hZT4nLCAnLW9tYWUnLCAnPG91dGZpbGUubWFlPic=

> <r_epik_Ionization_Penalty>
0.00136816

> <r_epik_Ionization_Penalty_Charging>
0.00136813

> <r_epik_Ionization_Penalty_Neutral>
3.19884e-08

> <r_epik_State_Penalty>
0.000910892

> <r_epik_Charging_Adjusted_Penalty>
0.00227902

> <i_epik_Tot_Q>
1

> <i_epik_Tot_abs_Q>
1

> <r_epik_Metal_State_Penalty>
-0

> <b_epik_Metal_Only>
0

> <s_lp_Force_Field>
OPLS_2005

> <r_lp_Energy>
39.3397

> <b_lp_Chiralities_Consistent>
1

> <s_lp_Variant>
AV-unprocessed.smi:1579-4

> <Gold.Version>
5.8.1

> <Gold.Id.Protein>
6NUR|6NUR_protein|mol2

> <Gold.PLP.Fitness>
46.5978

> <Gold.PLP.PLP>
-37.2844

> <Gold.PLP.part.hbond>
-3.7977

> <Gold.PLP.part.metal>
0.0000

> <Gold.PLP.part.buried>
-4.4905

> <Gold.PLP.part.nonpolar>
-29.6800

> <Gold.PLP.part.repulsive>
0.2079

> <Gold.PLP.ligand.clash>
0.0000

> <Gold.PLP.ligand.torsion>
1.3562

> <Gold.PLP.Chemscore.Hbond>
4.0000

> <Gold.PLP.Chemscore.CHOScore>
0.0000

> <Gold.PLP.Chemscore.Metal>
0.0000

> <Gold.Chemscore.Hbonds>
donor molecule, donor type, donor heavy atom, donor atom, acceptor molecule, acceptor atom, score
      L1  H     9    47       P1  7948  2.00
      P1  H  7997  8010       L1    20  1.00
      P1  H 10752 10764       L1    17  0.57

> <Gold.PLP.Chemscore.Internal.Correction>
0.0258

> <Gold.Rescore>
     Score         DG    S(hbond)    S(metal)    S(lipo)     H(rot)  DE(clash)    DE(int)     intcor
     16.85     -18.40       2.95        0.00      73.77       2.17       0.08       1.46       ----

> <Gold.Chemscore.Fitness>
16.8535

> <Gold.Chemscore.DG>
-18.3953

> <Gold.Chemscore.ZeroCoef>
-5.4800

> <Gold.Chemscore.Hbond>
2.9472

> <Gold.Chemscore.Metal>
0.0000

> <Gold.Chemscore.Lipo>
73.7677

> <Gold.Chemscore.Internal_Hbond>
0.0000

> <Gold.Chemscore.DEClash>
0.0787

> <Gold.Chemscore.DEInternal>
1.4631

> <Gold.Chemscore.Rot>
2.1715

> <Gold.Chemscore.Internal.Correction>
   9.000000E+99

> <Gold.Chemscore.Hbonds>
donor molecule, donor type, donor heavy atom, donor atom, acceptor molecule, acceptor atom, score
      L1  H     9    47       P1  7948  0.98
      P1  H  7997  8010       L1    20  0.97
      P1  H 10752 10764       L1    17  0.56

> <Gold.Chemscore.Hbond.Weighted>
-9.8436

> <Gold.Chemscore.Metal.Weighted>
-0.0000

> <Gold.Chemscore.Lipo.Weighted>
-8.6308

> <Gold.Chemscore.Internal_Hbond.Weighted>
0.0000

> <Gold.Chemscore.DEClash.Weighted>
0.0787

> <Gold.Chemscore.DEInternal.Weighted>
1.4631

> <Gold.Chemscore.Rot.Weighted>
5.5591

> <Gold.Chemscore.Internal.Correction.Weighted>
   9.000000E+99

> <Gold.Protein.RotatedTorsions>
[ 6907 6896 6895 6894 ] final -172.88 input  -60.11 | X-H torsion
[ 7974 7965 7964 7962 ] final -108.07 input  175.53 | X-H torsion
[ 8008 7997 7996 7995 ] final   85.92 input   59.86 | X-H torsion
[ 10167 10162 10161 10158 ] final -171.51 input  -65.29 | X-H torsion
[ 10718 10713 10712 10709 ] final   20.87 input   66.30 | X-H torsion
[ 10763 10752 10751 10750 ] final  -65.19 input  -60.55 | X-H torsion
[ 11005 11000 10999 10996 ] final -133.90 input  -57.11 | X-H torsion

> <Gold.Protein.ActiveResidues>
 VAL166  LYS551  ARG553  GLY616  TRP617  ASP618  TYR619  PRO620  LYS621  CYS622 
 ASP623  PHE694  ASN695  SER759  ASP760  ASP761  ALA762  ILE779  LEU786  VAL792 
 PHE793  MET794  SER795  GLU796  ALA797  LYS798  CYS799  TRP800  GLU811  SER814 

> <Gold.Protein.RotatedAtoms>
  151.5472  133.3423  159.2946 H   0  0  0  0  0  0  0  0  0  0  0  0  # atno 6907 bound_to 6896
  150.8500  134.7825  159.7012 H   0  0  0  0  0  0  0  0  0  0  0  0  # atno 6908 bound_to 6896
  152.4549  134.5322  159.9866 H   0  0  0  0  0  0  0  0  0  0  0  0  # atno 6909 bound_to 6896
  145.1974  140.9041  143.3389 H   0  0  0  0  0  0  0  0  0  0  0  0  # atno 7974 bound_to 7965
  155.9561  140.3397  155.6450 H   0  0  0  0  0  0  0  0  0  0  0  0  # atno 8008 bound_to 7997
  155.6857  140.0743  157.2486 H   0  0  0  0  0  0  0  0  0  0  0  0  # atno 8009 bound_to 7997
  154.4132  140.1666  156.2019 H   0  0  0  0  0  0  0  0  0  0  0  0  # atno 8010 bound_to 7997
  139.5798  144.1449  152.1500 H   0  0  0  0  0  0  0  0  0  0  0  0  # atno 10167 bound_to 10162
  157.1305  130.6589  149.5950 H   0  0  0  0  0  0  0  0  0  0  0  0  # atno 10718 bound_to 10713
  154.3413  135.6156  153.5598 H   0  0  0  0  0  0  0  0  0  0  0  0  # atno 10763 bound_to 10752
  152.9804  135.5770  154.4849 H   0  0  0  0  0  0  0  0  0  0  0  0  # atno 10764 bound_to 10752
  154.4554  135.2854  155.1728 H   0  0  0  0  0  0  0  0  0  0  0  0  # atno 10765 bound_to 10752
  140.9039  134.1655  157.4440 H   0  0  0  0  0  0  0  0  0  0  0  0  # atno 11005 bound_to 11000
  144.9981  139.3624  143.6181 LP  0  0  0  0  0  0  0  0  0  0  0  0  # atno 17320 bound_to 7965
  146.3424  139.9193  142.8769 LP  0  0  0  0  0  0  0  0  0  0  0  0  # atno 17321 bound_to 7965
  140.0999  144.5548  150.6996 LP  0  0  0  0  0  0  0  0  0  0  0  0  # atno 17342 bound_to 10162
  140.7078  143.2481  151.4675 LP  0  0  0  0  0  0  0  0  0  0  0  0  # atno 17343 bound_to 10162
  155.9809  130.4813  150.6798 LP  0  0  0  0  0  0  0  0  0  0  0  0  # atno 17370 bound_to 10713
  157.4397  131.0859  151.0956 LP  0  0  0  0  0  0  0  0  0  0  0  0  # atno 17371 bound_to 10713
  139.8746  134.9909  156.5524 LP  0  0  0  0  0  0  0  0  0  0  0  0  # atno 17394 bound_to 11000
  140.8195  133.8365  155.8883 LP  0  0  0  0  0  0  0  0  0  0  0  0  # atno 17395 bound_to 11000

$$$$
