AV-unprocessed.smi:2108|AV-procd|sdf|8604|dock5
  -GOLD-   2272011343D 1   1.00000     0.00000
 Structure written by MMmdl.
 35 36  0  0  0  0  0  0  0  0  1 V2000
  151.9745  139.8830  154.8659 O   0  0  0  0  0  0  0  0  0  0  0  0
  150.7961  140.1653  155.6992 S   0  0  0  0  0  0  0  0  0  0  0  0
  150.4816  139.3474  156.8808 O   0  0  0  0  0  0  0  0  0  0  0  0
  150.8509  141.8195  156.1885 N   0  0  0  0  0  0  0  0  0  0  0  0
  150.8616  142.1540  157.6129 C   0  0  0  0  0  0  0  0  0  0  0  0
  152.2419  141.8720  158.2198 C   0  0  0  0  0  0  0  0  0  0  0  0
  152.4110  142.5287  159.5771 C   0  0  0  0  0  0  0  0  0  0  0  0
  153.0410  141.8411  160.6362 C   0  0  0  0  0  0  0  0  0  0  0  0
  153.1585  142.4889  161.8811 C   0  0  0  0  0  0  0  0  0  0  0  0
  152.6430  143.7923  162.0184 C   0  0  0  0  0  0  0  0  0  0  0  0
  152.0300  144.3921  160.9003 C   0  0  0  0  0  0  0  0  0  0  0  0
  151.9117  143.7794  159.7023 N   0  0  0  0  0  0  0  0  0  0  0  0
  149.4020  140.2140  154.6722 N   0  0  0  0  0  0  0  0  0  0  0  0
  148.5341  141.3983  154.7676 C   0  0  0  0  0  0  0  0  0  0  0  0
  147.5257  141.4342  153.6077 C   0  0  0  0  0  0  0  0  0  0  0  0
  146.7953  140.2180  153.5560 O   0  0  0  0  0  0  0  0  0  0  0  0
  147.6480  139.1094  153.3120 C   0  0  0  0  0  0  0  0  0  0  0  0
  148.6594  138.9592  154.4595 C   0  0  0  0  0  0  0  0  0  0  0  0
  150.2639  142.4274  155.6179 H   0  0  0  0  0  0  0  0  0  0  0  0
  150.6005  143.2057  157.7356 H   0  0  0  0  0  0  0  0  0  0  0  0
  150.0986  141.5678  158.1261 H   0  0  0  0  0  0  0  0  0  0  0  0
  152.3930  140.7962  158.3203 H   0  0  0  0  0  0  0  0  0  0  0  0
  153.0262  142.2316  157.5518 H   0  0  0  0  0  0  0  0  0  0  0  0
  153.4217  140.8392  160.5009 H   0  0  0  0  0  0  0  0  0  0  0  0
  153.6334  141.9943  162.7155 H   0  0  0  0  0  0  0  0  0  0  0  0
  152.7147  144.3197  162.9583 H   0  0  0  0  0  0  0  0  0  0  0  0
  151.6222  145.3895  160.9706 H   0  0  0  0  0  0  0  0  0  0  0  0
  148.0097  141.3756  155.7236 H   0  0  0  0  0  0  0  0  0  0  0  0
  149.1407  142.3038  154.7548 H   0  0  0  0  0  0  0  0  0  0  0  0
  146.8278  142.2601  153.7457 H   0  0  0  0  0  0  0  0  0  0  0  0
  148.0350  141.6064  152.6581 H   0  0  0  0  0  0  0  0  0  0  0  0
  147.0402  138.2082  153.2295 H   0  0  0  0  0  0  0  0  0  0  0  0
  148.1621  139.2331  152.3573 H   0  0  0  0  0  0  0  0  0  0  0  0
  149.3498  138.1461  154.2374 H   0  0  0  0  0  0  0  0  0  0  0  0
  148.1420  138.6955  155.3827 H   0  0  0  0  0  0  0  0  0  0  0  0
  1  2  2  0  0  0  0
  2  3  2  0  0  0  0
  2  4  1  0  0  0  0
  2 13  1  0  0  0  0
  4  5  1  0  0  0  0
  4 19  1  0  0  0  0
  5  6  1  0  0  0  0
  5 20  1  0  0  0  0
  5 21  1  0  0  0  0
  6  7  1  0  0  0  0
  6 22  1  0  0  0  0
  6 23  1  0  0  0  0
  7 12  1  0  0  0  0
  7  8  2  0  0  0  0
  8  9  1  0  0  0  0
  8 24  1  0  0  0  0
  9 10  2  0  0  0  0
  9 25  1  0  0  0  0
 10 11  1  0  0  0  0
 10 26  1  0  0  0  0
 11 12  2  0  0  0  0
 11 27  1  0  0  0  0
 13 18  1  0  0  0  0
 13 14  1  0  0  0  0
 14 15  1  0  0  0  0
 14 28  1  0  0  0  0
 14 29  1  0  0  0  0
 15 16  1  0  0  0  0
 15 30  1  0  0  0  0
 15 31  1  0  0  0  0
 16 17  1  0  0  0  0
 17 18  1  0  0  0  0
 17 32  1  0  0  0  0
 17 33  1  0  0  0  0
 18 34  1  0  0  0  0
 18 35  1  0  0  0  0
M  END
> <s_m_source_file>
AV-unprocessed.smi

> <i_m_source_file_index>
2108

> <i_lp_mmshare_version>
43012

> <i_f3d_flags>
0

> <s_epik_input>
W0NIMl0xW0NIMl1PW0NIMl1bQ0gyXU4xUyg9TykoPU8pW05IXVtDSDJdW0NIMl1jMltjSF1bY0hdW2NIXVtjSF1uMg==

> <s_epik_cmdline>
J2VwaWtfcHl0aG9uJywgJy1waCcsICc3LjAnLCAnLXRuJywgJzgnLCAnLW1hJywgJzIwMCcsICctbWV0YWxfYmluZGluZycsICctaW1hZScsICc8aW5maWxlLm1hZT4nLCAnLW9tYWUnLCAnPG91dGZpbGUubWFlPic=

> <r_epik_Ionization_Penalty>
0.085378

> <r_epik_Ionization_Penalty_Charging>
0

> <r_epik_Ionization_Penalty_Neutral>
0.085378

> <r_epik_State_Penalty>
0.0441186

> <r_epik_Charging_Adjusted_Penalty>
0.0441186

> <i_epik_Tot_Q>
0

> <i_epik_Tot_abs_Q>
0

> <r_epik_Metal_State_Penalty>
0.24397

> <b_epik_Metal_Only>
0

> <s_lp_Force_Field>
OPLS_2005

> <r_lp_Energy>
7.91242

> <b_lp_Chiralities_Consistent>
1

> <s_lp_Variant>
AV-unprocessed.smi:2108-1

> <Gold.Version>
5.8.1

> <Gold.Id.Protein>
6NUR|6NUR_protein|mol2

> <Gold.PLP.Fitness>
39.0089

> <Gold.PLP.PLP>
-37.8614

> <Gold.PLP.part.hbond>
-1.0000

> <Gold.PLP.part.metal>
0.0000

> <Gold.PLP.part.buried>
-6.3637

> <Gold.PLP.part.nonpolar>
-30.5766

> <Gold.PLP.part.repulsive>
0.3346

> <Gold.PLP.ligand.clash>
0.0000

> <Gold.PLP.ligand.torsion>
1.1968

> <Gold.PLP.Chemscore.Hbond>
0.8960

> <Gold.PLP.Chemscore.CHOScore>
0.0000

> <Gold.PLP.Chemscore.Metal>
0.0000

> <Gold.Chemscore.Hbonds>
donor molecule, donor type, donor heavy atom, donor atom, acceptor molecule, acceptor atom, score
      P1  H  7989  7998       L1     1  0.88

> <Gold.PLP.Chemscore.Internal.Correction>
0.8530

> <Gold.Rescore>
     Score         DG    S(hbond)    S(metal)    S(lipo)     H(rot)  DE(clash)    DE(int)     intcor
     15.50     -17.85       1.72        0.00      96.76       1.84       1.27       1.08       ----

> <Gold.Chemscore.Fitness>
15.4966

> <Gold.Chemscore.DG>
-17.8494

> <Gold.Chemscore.ZeroCoef>
-5.4800

> <Gold.Chemscore.Hbond>
1.7229

> <Gold.Chemscore.Metal>
0.0000

> <Gold.Chemscore.Lipo>
96.7586

> <Gold.Chemscore.Internal_Hbond>
0.0000

> <Gold.Chemscore.DEClash>
1.2732

> <Gold.Chemscore.DEInternal>
1.0795

> <Gold.Chemscore.Rot>
1.8382

> <Gold.Chemscore.Internal.Correction>
   9.000000E+99

> <Gold.Chemscore.Hbonds>
donor molecule, donor type, donor heavy atom, donor atom, acceptor molecule, acceptor atom, score
      P1  H  7989  7998       L1     1  0.30

> <Gold.Chemscore.Hbond.Weighted>
-5.7543

> <Gold.Chemscore.Metal.Weighted>
-0.0000

> <Gold.Chemscore.Lipo.Weighted>
-11.3208

> <Gold.Chemscore.Internal_Hbond.Weighted>
0.0000

> <Gold.Chemscore.DEClash.Weighted>
1.2732

> <Gold.Chemscore.DEInternal.Weighted>
1.0795

> <Gold.Chemscore.Rot.Weighted>
4.7057

> <Gold.Chemscore.Internal.Correction.Weighted>
   9.000000E+99

> <Gold.Protein.RotatedTorsions>
[ 6907 6896 6895 6894 ] final    0.86 input  -60.11 | X-H torsion
[ 7974 7965 7964 7962 ] final   40.30 input  175.53 | X-H torsion
[ 8008 7997 7996 7995 ] final -102.66 input   59.86 | X-H torsion
[ 10167 10162 10161 10158 ] final   70.59 input  -65.29 | X-H torsion
[ 10718 10713 10712 10709 ] final -140.11 input   66.30 | X-H torsion
[ 10763 10752 10751 10750 ] final   87.06 input  -60.55 | X-H torsion
[ 11005 11000 10999 10996 ] final    4.19 input  -57.11 | X-H torsion

> <Gold.Protein.ActiveResidues>
 VAL166  LYS551  ARG553  GLY616  TRP617  ASP618  TYR619  PRO620  LYS621  CYS622 
 ASP623  PHE694  ASN695  SER759  ASP760  ASP761  ALA762  ILE779  LEU786  VAL792 
 PHE793  MET794  SER795  GLU796  ALA797  LYS798  CYS799  TRP800  GLU811  SER814 

> <Gold.Protein.RotatedAtoms>
  151.5833  135.1057  160.0022 H   0  0  0  0  0  0  0  0  0  0  0  0  # atno 6907 bound_to 6896
  152.4343  133.7328  159.6608 H   0  0  0  0  0  0  0  0  0  0  0  0  # atno 6908 bound_to 6896
  150.8239  133.8135  159.3150 H   0  0  0  0  0  0  0  0  0  0  0  0  # atno 6909 bound_to 6896
  146.0915  139.5549  142.9472 H   0  0  0  0  0  0  0  0  0  0  0  0  # atno 7974 bound_to 7965
  154.8598  140.0427  157.1658 H   0  0  0  0  0  0  0  0  0  0  0  0  # atno 8008 bound_to 7997
  154.8852  140.2978  155.5381 H   0  0  0  0  0  0  0  0  0  0  0  0  # atno 8009 bound_to 7997
  156.2998  140.2404  156.3860 H   0  0  0  0  0  0  0  0  0  0  0  0  # atno 8010 bound_to 7997
  140.0553  144.5278  150.7333 H   0  0  0  0  0  0  0  0  0  0  0  0  # atno 10167 bound_to 10162
  156.3186  130.7521  151.1614 H   0  0  0  0  0  0  0  0  0  0  0  0  # atno 10718 bound_to 10713
  153.1631  135.4557  154.9799 H   0  0  0  0  0  0  0  0  0  0  0  0  # atno 10763 bound_to 10752
  154.7912  135.3221  154.7775 H   0  0  0  0  0  0  0  0  0  0  0  0  # atno 10764 bound_to 10752
  153.8262  135.6942  153.4875 H   0  0  0  0  0  0  0  0  0  0  0  0  # atno 10765 bound_to 10752
  140.5847  133.9980  155.8063 H   0  0  0  0  0  0  0  0  0  0  0  0  # atno 11005 bound_to 11000
  145.6029  141.0352  143.2008 LP  0  0  0  0  0  0  0  0  0  0  0  0  # atno 17320 bound_to 7965
  144.7364  139.7574  143.7328 LP  0  0  0  0  0  0  0  0  0  0  0  0  # atno 17321 bound_to 7965
  140.7197  143.2577  151.4318 LP  0  0  0  0  0  0  0  0  0  0  0  0  # atno 17342 bound_to 10162
  139.5927  144.1464  152.2107 LP  0  0  0  0  0  0  0  0  0  0  0  0  # atno 17343 bound_to 10162
  157.7407  131.0514  150.5149 LP  0  0  0  0  0  0  0  0  0  0  0  0  # atno 17370 bound_to 10713
  156.5298  130.4182  149.6207 LP  0  0  0  0  0  0  0  0  0  0  0  0  # atno 17371 bound_to 10713
  141.0973  133.9823  157.3138 LP  0  0  0  0  0  0  0  0  0  0  0  0  # atno 17394 bound_to 11000
  139.9301  135.0200  156.8370 LP  0  0  0  0  0  0  0  0  0  0  0  0  # atno 17395 bound_to 11000

$$$$
