AV-unprocessed.smi:1671|AV-procd|sdf|6699|dock1
  -GOLD-   22720 7433D 1   1.00000     0.00000
 Structure written by MMmdl.
 44 45  0  0  0  0  0  0  0  0  1 V2000
  152.5295  132.8023  155.6844 C   0  0  0  0  0  0  0  0  0  0  0  0
  151.0598  133.7003  156.2521 S   0  0  0  0  0  0  0  0  0  0  0  0
  150.6439  134.6602  154.7654 C   0  0  2  0  0  0  0  0  0  0  0  0
  150.6735  133.7802  153.5025 C   0  0  0  0  0  0  0  0  0  0  0  0
  151.5608  135.8831  154.6350 C   0  0  0  0  0  0  0  0  0  0  0  0
  152.5803  135.9821  155.3192 O   0  0  0  0  0  0  0  0  0  0  0  0
  151.1789  136.8182  153.7527 N   0  0  0  0  0  0  0  0  0  0  0  0
  151.8960  138.0620  153.5039 C   0  0  0  0  0  0  0  0  0  0  0  0
  151.9775  138.9458  154.7355 C   0  0  0  0  0  0  0  0  0  0  0  0
  150.8645  139.6848  155.1841 C   0  0  0  0  0  0  0  0  0  0  0  0
  150.9983  140.4955  156.3274 C   0  0  0  0  0  0  0  0  0  0  0  0
  152.2442  140.5463  156.9985 C   0  0  0  0  0  0  0  0  0  0  0  0
  152.4059  141.3486  158.1507 N   0  0  0  0  0  0  0  0  0  0  0  0
  152.8244  140.6945  159.3897 C   0  0  0  0  0  0  0  0  0  0  0  0
  153.2422  141.7413  160.4352 C   0  0  0  0  0  0  0  0  0  0  0  0
  152.1832  142.6719  160.6313 O   0  0  0  0  0  0  0  0  0  0  0  0
  151.8689  143.3846  159.4384 C   0  0  2  0  0  0  0  0  0  0  0  0
  150.7919  144.4232  159.7689 C   0  0  0  0  0  0  0  0  0  0  0  0
  151.4009  142.3890  158.3591 C   0  0  0  0  0  0  0  0  0  0  0  0
  153.3148  139.8420  156.5531 N   0  0  0  0  0  0  0  0  0  0  0  0
  153.1825  139.0688  155.4550 C   0  0  0  0  0  0  0  0  0  0  0  0
  152.8693  132.1166  156.4605 H   0  0  0  0  0  0  0  0  0  0  0  0
  153.3429  133.4915  155.4595 H   0  0  0  0  0  0  0  0  0  0  0  0
  152.3028  132.2231  154.7892 H   0  0  0  0  0  0  0  0  0  0  0  0
  149.6267  135.0336  154.8930 H   0  0  0  0  0  0  0  0  0  0  0  0
  150.4933  134.3701  152.6030 H   0  0  0  0  0  0  0  0  0  0  0  0
  149.9038  133.0098  153.5387 H   0  0  0  0  0  0  0  0  0  0  0  0
  151.6359  133.2801  153.3864 H   0  0  0  0  0  0  0  0  0  0  0  0
  150.3253  136.6673  153.2349 H   0  0  0  0  0  0  0  0  0  0  0  0
  152.8997  137.8273  153.1467 H   0  0  0  0  0  0  0  0  0  0  0  0
  151.3981  138.6255  152.7131 H   0  0  0  0  0  0  0  0  0  0  0  0
  149.9219  139.6392  154.6586 H   0  0  0  0  0  0  0  0  0  0  0  0
  150.1522  141.0768  156.6606 H   0  0  0  0  0  0  0  0  0  0  0  0
  152.0011  140.0908  159.7742 H   0  0  0  0  0  0  0  0  0  0  0  0
  153.6630  140.0229  159.2019 H   0  0  0  0  0  0  0  0  0  0  0  0
  153.4673  141.2543  161.3841 H   0  0  0  0  0  0  0  0  0  0  0  0
  154.1482  142.2632  160.1227 H   0  0  0  0  0  0  0  0  0  0  0  0
  152.7606  143.9099  159.0906 H   0  0  0  0  0  0  0  0  0  0  0  0
  150.5224  145.0043  158.8865 H   0  0  0  0  0  0  0  0  0  0  0  0
  151.1432  145.1198  160.5304 H   0  0  0  0  0  0  0  0  0  0  0  0
  149.8862  143.9469  160.1456 H   0  0  0  0  0  0  0  0  0  0  0  0
  151.1912  142.9388  157.4430 H   0  0  0  0  0  0  0  0  0  0  0  0
  150.4667  141.9155  158.6645 H   0  0  0  0  0  0  0  0  0  0  0  0
  154.0667  138.5310  155.1461 H   0  0  0  0  0  0  0  0  0  0  0  0
  1  2  1  0  0  0  0
  1 22  1  0  0  0  0
  1 23  1  0  0  0  0
  1 24  1  0  0  0  0
  2  3  1  0  0  0  0
  3  4  1  0  0  0  0
  3  5  1  0  0  0  0
  3 25  1  0  0  0  0
  4 26  1  0  0  0  0
  4 27  1  0  0  0  0
  4 28  1  0  0  0  0
  5  6  2  0  0  0  0
  5  7  1  0  0  0  0
  7  8  1  0  0  0  0
  7 29  1  0  0  0  0
  8  9  1  0  0  0  0
  8 30  1  0  0  0  0
  8 31  1  0  0  0  0
  9 21  1  0  0  0  0
  9 10  2  0  0  0  0
 10 11  1  0  0  0  0
 10 32  1  0  0  0  0
 11 12  2  0  0  0  0
 11 33  1  0  0  0  0
 12 13  1  0  0  0  0
 12 20  1  0  0  0  0
 13 19  1  0  0  0  0
 13 14  1  0  0  0  0
 14 15  1  0  0  0  0
 14 34  1  0  0  0  0
 14 35  1  0  0  0  0
 15 16  1  0  0  0  0
 15 36  1  0  0  0  0
 15 37  1  0  0  0  0
 16 17  1  0  0  0  0
 17 18  1  0  0  0  0
 17 19  1  0  0  0  0
 17 38  1  0  0  0  0
 18 39  1  0  0  0  0
 18 40  1  0  0  0  0
 18 41  1  0  0  0  0
 19 42  1  0  0  0  0
 19 43  1  0  0  0  0
 20 21  2  0  0  0  0
 21 44  1  0  0  0  0
M  END
> <s_m_source_file>
AV-unprocessed.smi

> <i_m_source_file_index>
1671

> <i_lp_mmshare_version>
43012

> <i_f3d_flags>
0

> <s_epik_input>
W0NIM11TW0NASF0oW0NIM10pQyg9TylbTkhdW0NIMl1jMVtjSF1bY0hdYyhuW2NIXTEpTjJbQ0gyXVtDSDJdT1tDQEBIXShbQ0gzXSlbQ0gyXTI=

> <s_epik_cmdline>
J2VwaWtfcHl0aG9uJywgJy1waCcsICc3LjAnLCAnLXRuJywgJzgnLCAnLW1hJywgJzIwMCcsICctbWV0YWxfYmluZGluZycsICctaW1hZScsICc8aW5maWxlLm1hZT4nLCAnLW9tYWUnLCAnPG91dGZpbGUubWFlPic=

> <r_lp_tautomer_probability>
1

> <r_epik_Ionization_Penalty>
0.00480033

> <r_epik_Ionization_Penalty_Charging>
0

> <r_epik_Ionization_Penalty_Neutral>
0.00480033

> <r_epik_State_Penalty>
0.00347981

> <r_epik_Charging_Adjusted_Penalty>
0.00347981

> <i_epik_Tot_Q>
0

> <i_epik_Tot_abs_Q>
0

> <r_epik_Metal_State_Penalty>
-0

> <b_epik_Metal_Only>
0

> <s_lp_Force_Field>
OPLS_2005

> <r_lp_Energy>
17.324

> <b_lp_Chiralities_Consistent>
1

> <s_lp_Variant>
AV-unprocessed.smi:1671-3

> <Gold.Version>
5.8.1

> <Gold.Id.Protein>
6NUR|6NUR_protein|mol2

> <Gold.PLP.Fitness>
46.2251

> <Gold.PLP.PLP>
-40.3559

> <Gold.PLP.part.hbond>
-3.8953

> <Gold.PLP.part.metal>
0.0000

> <Gold.PLP.part.buried>
-1.6065

> <Gold.PLP.part.nonpolar>
-35.3916

> <Gold.PLP.part.repulsive>
0.1398

> <Gold.PLP.ligand.clash>
0.0000

> <Gold.PLP.ligand.torsion>
0.7927

> <Gold.PLP.Chemscore.Hbond>
2.3214

> <Gold.PLP.Chemscore.CHOScore>
0.0000

> <Gold.PLP.Chemscore.Metal>
0.0000

> <Gold.Chemscore.Hbonds>
donor molecule, donor type, donor heavy atom, donor atom, acceptor molecule, acceptor atom, score
      L1  H     7    29       P1  7948  0.30
      P1  H  7997  8010       L1    20  0.08
      P1  H 10752 10764       L1     6  0.02

> <Gold.PLP.Chemscore.Internal.Correction>
0.4905

> <Gold.Rescore>
     Score         DG    S(hbond)    S(metal)    S(lipo)     H(rot)  DE(clash)    DE(int)     intcor
     16.06     -18.01       1.46        0.00     101.04       1.63       0.25       1.70       ----

> <Gold.Chemscore.Fitness>
16.0615

> <Gold.Chemscore.DG>
-18.0118

> <Gold.Chemscore.ZeroCoef>
-5.4800

> <Gold.Chemscore.Hbond>
1.4600

> <Gold.Chemscore.Metal>
0.0000

> <Gold.Chemscore.Lipo>
101.0353

> <Gold.Chemscore.Internal_Hbond>
0.0000

> <Gold.Chemscore.DEClash>
0.2548

> <Gold.Chemscore.DEInternal>
1.6954

> <Gold.Chemscore.Rot>
1.6272

> <Gold.Chemscore.Internal.Correction>
   9.000000E+99

> <Gold.Chemscore.Hbonds>
donor molecule, donor type, donor heavy atom, donor atom, acceptor molecule, acceptor atom, score
      P1  H  7997  8010       L1    20  0.08
      P1  H 10752 10764       L1     6  0.02

> <Gold.Chemscore.Hbond.Weighted>
-4.8764

> <Gold.Chemscore.Metal.Weighted>
-0.0000

> <Gold.Chemscore.Lipo.Weighted>
-11.8211

> <Gold.Chemscore.Internal_Hbond.Weighted>
0.0000

> <Gold.Chemscore.DEClash.Weighted>
0.2548

> <Gold.Chemscore.DEInternal.Weighted>
1.6954

> <Gold.Chemscore.Rot.Weighted>
4.1657

> <Gold.Chemscore.Internal.Correction.Weighted>
   9.000000E+99

> <Gold.Protein.RotatedTorsions>
[ 6907 6896 6895 6894 ] final  -68.38 input  -60.11 | X-H torsion
[ 7974 7965 7964 7962 ] final    2.47 input  175.53 | X-H torsion
[ 8008 7997 7996 7995 ] final   49.17 input   59.86 | X-H torsion
[ 10167 10162 10161 10158 ] final -141.89 input  -65.29 | X-H torsion
[ 10718 10713 10712 10709 ] final  -84.40 input   66.30 | X-H torsion
[ 10763 10752 10751 10750 ] final    5.66 input  -60.55 | X-H torsion
[ 11005 11000 10999 10996 ] final  113.49 input  -57.11 | X-H torsion

> <Gold.Protein.ActiveResidues>
 VAL166  LYS551  ARG553  GLY616  TRP617  ASP618  TYR619  PRO620  LYS621  CYS622 
 ASP623  PHE694  ASN695  SER759  ASP760  ASP761  ALA762  ILE779  LEU786  VAL792 
 PHE793  MET794  SER795  GLU796  ALA797  LYS798  CYS799  TRP800  GLU811  SER814 

> <Gold.Protein.RotatedAtoms>
  150.7359  134.5747  159.5907 H   0  0  0  0  0  0  0  0  0  0  0  0  # atno 6907 bound_to 6896
  152.3177  134.7416  160.0330 H   0  0  0  0  0  0  0  0  0  0  0  0  # atno 6908 bound_to 6896
  151.7943  133.3327  159.3545 H   0  0  0  0  0  0  0  0  0  0  0  0  # atno 6909 bound_to 6896
  146.2444  140.0831  142.8356 H   0  0  0  0  0  0  0  0  0  0  0  0  # atno 7974 bound_to 7965
  155.3977  140.3436  155.4255 H   0  0  0  0  0  0  0  0  0  0  0  0  # atno 8008 bound_to 7997
  156.1521  140.1574  156.8785 H   0  0  0  0  0  0  0  0  0  0  0  0  # atno 8009 bound_to 7997
  154.5062  140.0802  156.7879 H   0  0  0  0  0  0  0  0  0  0  0  0  # atno 8010 bound_to 7997
  139.8141  143.7663  152.2664 H   0  0  0  0  0  0  0  0  0  0  0  0  # atno 10167 bound_to 10162
  156.0007  130.4696  150.4404 H   0  0  0  0  0  0  0  0  0  0  0  0  # atno 10718 bound_to 10713
  153.2568  135.6919  153.7621 H   0  0  0  0  0  0  0  0  0  0  0  0  # atno 10763 bound_to 10752
  153.6695  135.3347  155.3150 H   0  0  0  0  0  0  0  0  0  0  0  0  # atno 10764 bound_to 10752
  154.8415  135.4496  154.1544 H   0  0  0  0  0  0  0  0  0  0  0  0  # atno 10765 bound_to 10752
  139.8954  134.9551  156.6747 H   0  0  0  0  0  0  0  0  0  0  0  0  # atno 11005 bound_to 11000
  145.0716  140.9159  143.4879 LP  0  0  0  0  0  0  0  0  0  0  0  0  # atno 17320 bound_to 7965
  145.0966  139.2852  143.5708 LP  0  0  0  0  0  0  0  0  0  0  0  0  # atno 17321 bound_to 7965
  139.7821  144.7441  151.0073 LP  0  0  0  0  0  0  0  0  0  0  0  0  # atno 17342 bound_to 10162
  140.7816  143.4531  151.0384 LP  0  0  0  0  0  0  0  0  0  0  0  0  # atno 17343 bound_to 10162
  157.2445  131.0533  151.2416 LP  0  0  0  0  0  0  0  0  0  0  0  0  # atno 17370 bound_to 10713
  157.3588  130.7120  149.6488 LP  0  0  0  0  0  0  0  0  0  0  0  0  # atno 17371 bound_to 10713
  140.7346  133.9030  155.8235 LP  0  0  0  0  0  0  0  0  0  0  0  0  # atno 17394 bound_to 11000
  141.0126  134.0999  157.4205 LP  0  0  0  0  0  0  0  0  0  0  0  0  # atno 17395 bound_to 11000

$$$$
