AV-unprocessed.smi:78|AV-procd|sdf|775|dock6
  -GOLD-   2262017133D 1   1.00000     0.00000
 Structure written by MMmdl.
 56 59  0  0  0  0  0  0  0  0  1 V2000
  152.0400  144.5350  157.0816 C   0  0  0  0  0  0  0  0  0  0  0  0
  151.5791  143.6901  158.2786 C   0  0  0  0  0  0  0  0  0  0  0  0
  150.6583  144.5174  159.1912 C   0  0  0  0  0  0  0  0  0  0  0  0
  152.7981  143.1088  159.0327 C   0  0  0  0  0  0  0  0  0  0  0  0
  152.5511  141.8531  159.9161 C   0  0  2  0  0  0  0  0  0  0  0  0
  151.9677  142.2947  161.2755 C   0  0  0  0  0  0  0  0  0  0  0  0
  150.8203  142.7332  161.3270 O   0  0  0  0  0  0  0  0  0  0  0  0
  152.7202  142.1910  162.3849 N   0  0  0  0  0  0  0  0  0  0  0  0
  154.0775  141.6543  162.4604 C   0  0  0  0  0  0  0  0  0  0  0  0
  154.7561  141.5046  161.0893 C   0  0  0  0  0  0  0  0  0  0  0  0
  153.7854  141.0718  160.0902 N   0  0  0  0  0  0  0  0  0  0  0  0
  154.1445  140.1570  159.1540 C   0  0  0  0  0  0  0  0  0  0  0  0
  155.4221  139.6975  159.1639 N   0  0  0  0  0  0  0  0  0  0  0  0
  155.8182  138.7820  158.2760 C   0  0  0  0  0  0  0  0  0  0  0  0
  155.1075  138.1922  157.3137 N   0  0  0  0  0  0  0  0  0  0  0  0
  153.8199  138.6413  157.3013 C   0  0  0  0  0  0  0  0  0  0  0  0
  153.2630  139.6239  158.1685 C   0  0  0  0  0  0  0  0  0  0  0  0
  151.9245  139.8221  157.8523 N   0  0  0  0  0  0  0  0  0  0  0  0
  151.7081  139.0173  156.8490 C   0  0  0  0  0  0  0  0  0  0  0  0
  152.7824  138.2394  156.4766 N   0  0  0  0  0  0  0  0  0  0  0  0
  152.8400  137.2767  155.4088 C   0  0  0  0  0  0  0  0  0  0  0  0
  153.6611  137.5342  154.1362 C   0  0  0  0  0  0  0  0  0  0  0  0
  152.3687  137.9132  153.3791 C   0  0  0  0  0  0  0  0  0  0  0  0
  152.0195  139.4145  153.3741 C   0  0  0  0  0  0  0  0  0  0  0  0
  152.9337  140.1591  152.5949 O   0  0  0  0  0  0  0  0  0  0  0  0
  152.2248  137.4106  151.9294 C   0  0  0  0  0  0  0  0  0  0  0  0
  152.5213  136.0347  151.7989 O   0  0  0  0  0  0  0  0  0  0  0  0
  151.6366  137.1020  154.4711 C   0  0  0  0  0  0  0  0  0  0  0  0
  152.6325  145.3917  157.4040 H   0  0  0  0  0  0  0  0  0  0  0  0
  151.1882  144.9133  156.5159 H   0  0  0  0  0  0  0  0  0  0  0  0
  152.6503  143.9461  156.3962 H   0  0  0  0  0  0  0  0  0  0  0  0
  150.9945  142.8727  157.8624 H   0  0  0  0  0  0  0  0  0  0  0  0
  151.1982  145.3452  159.6522 H   0  0  0  0  0  0  0  0  0  0  0  0
  150.2291  143.9139  159.9895 H   0  0  0  0  0  0  0  0  0  0  0  0
  149.8254  144.9380  158.6273 H   0  0  0  0  0  0  0  0  0  0  0  0
  153.5798  142.8776  158.3078 H   0  0  0  0  0  0  0  0  0  0  0  0
  153.2110  143.9070  159.6520 H   0  0  0  0  0  0  0  0  0  0  0  0
  151.7751  141.2390  159.4600 H   0  0  0  0  0  0  0  0  0  0  0  0
  152.3071  142.4940  163.2549 H   0  0  0  0  0  0  0  0  0  0  0  0
  154.6828  142.2768  163.1198 H   0  0  0  0  0  0  0  0  0  0  0  0
  154.0065  140.6748  162.9344 H   0  0  0  0  0  0  0  0  0  0  0  0
  155.1811  142.4579  160.7741 H   0  0  0  0  0  0  0  0  0  0  0  0
  155.5843  140.8015  161.1843 H   0  0  0  0  0  0  0  0  0  0  0  0
  156.8508  138.4746  158.3510 H   0  0  0  0  0  0  0  0  0  0  0  0
  150.7435  138.9667  156.3669 H   0  0  0  0  0  0  0  0  0  0  0  0
  153.1200  136.3318  155.8763 H   0  0  0  0  0  0  0  0  0  0  0  0
  154.3995  138.3325  154.1963 H   0  0  0  0  0  0  0  0  0  0  0  0
  154.1274  136.6202  153.7650 H   0  0  0  0  0  0  0  0  0  0  0  0
  151.0136  139.5817  152.9878 H   0  0  0  0  0  0  0  0  0  0  0  0
  152.0275  139.8298  154.3817 H   0  0  0  0  0  0  0  0  0  0  0  0
  153.4870  139.5557  152.1226 H   0  0  0  0  0  0  0  0  0  0  0  0
  151.2101  137.5690  151.5626 H   0  0  0  0  0  0  0  0  0  0  0  0
  152.8903  137.9541  151.2582 H   0  0  0  0  0  0  0  0  0  0  0  0
  153.4006  135.8864  152.1118 H   0  0  0  0  0  0  0  0  0  0  0  0
  151.4726  136.0554  154.2103 H   0  0  0  0  0  0  0  0  0  0  0  0
  150.7090  137.5580  154.8183 H   0  0  0  0  0  0  0  0  0  0  0  0
  1  2  1  0  0  0  0
  1 29  1  0  0  0  0
  1 30  1  0  0  0  0
  1 31  1  0  0  0  0
  2  3  1  0  0  0  0
  2  4  1  0  0  0  0
  2 32  1  0  0  0  0
  3 33  1  0  0  0  0
  3 34  1  0  0  0  0
  3 35  1  0  0  0  0
  4  5  1  0  0  0  0
  4 36  1  0  0  0  0
  4 37  1  0  0  0  0
  5 11  1  0  0  0  0
  5  6  1  0  0  0  0
  5 38  1  0  0  0  0
  6  7  2  0  0  0  0
  6  8  1  0  0  0  0
  8  9  1  0  0  0  0
  8 39  1  0  0  0  0
  9 10  1  0  0  0  0
  9 40  1  0  0  0  0
  9 41  1  0  0  0  0
 10 11  1  0  0  0  0
 10 42  1  0  0  0  0
 10 43  1  0  0  0  0
 11 12  1  0  0  0  0
 12 17  1  0  0  0  0
 12 13  2  0  0  0  0
 13 14  1  0  0  0  0
 14 15  2  0  0  0  0
 14 44  1  0  0  0  0
 15 16  1  0  0  0  0
 16 20  1  0  0  0  0
 16 17  2  0  0  0  0
 17 18  1  0  0  0  0
 18 19  2  0  0  0  0
 19 20  1  0  0  0  0
 19 45  1  0  0  0  0
 20 21  1  0  0  0  0
 21 28  1  0  0  0  0
 21 22  1  0  0  0  0
 21 46  1  0  0  0  0
 22 23  1  0  0  0  0
 22 47  1  0  0  0  0
 22 48  1  0  0  0  0
 23 24  1  0  0  0  0
 23 26  1  0  0  0  0
 23 28  1  0  0  0  0
 24 25  1  0  0  0  0
 24 49  1  0  0  0  0
 24 50  1  0  0  0  0
 25 51  1  0  0  0  0
 26 27  1  0  0  0  0
 26 52  1  0  0  0  0
 26 53  1  0  0  0  0
 27 54  1  0  0  0  0
 28 55  1  0  0  0  0
 28 56  1  0  0  0  0
M  END
> <s_m_source_file>
AV-unprocessed.smi

> <i_m_source_file_index>
78

> <i_lp_mmshare_version>
43012

> <i_f3d_flags>
0

> <s_epik_input>
W0NIM11bQ0hdKFtDSDNdKVtDSDJdW0NAQEhdMUMoPU8pW05IXVtDSDJdW0NIMl1OMWMobltjSF1uMiljKGMyMyluW2NIXW4zW0NIXShbQ0gyXTQpW0NIMl1DNChbQ0gyXVtPSF0pW0NIMl1bT0hd

> <s_epik_cmdline>
J2VwaWtfcHl0aG9uJywgJy1waCcsICc3LjAnLCAnLXRuJywgJzgnLCAnLW1hJywgJzIwMCcsICctbWV0YWxfYmluZGluZycsICctaW1hZScsICc8aW5maWxlLm1hZT4nLCAnLW9tYWUnLCAnPG91dGZpbGUubWFlPic=

> <r_lp_tautomer_probability>
1

> <r_epik_Ionization_Penalty>
0.000550083

> <r_epik_Ionization_Penalty_Charging>
0

> <r_epik_Ionization_Penalty_Neutral>
0.000550083

> <r_epik_State_Penalty>
0.000250415

> <r_epik_Charging_Adjusted_Penalty>
0.000250415

> <i_epik_Tot_Q>
0

> <i_epik_Tot_abs_Q>
0

> <r_epik_Metal_State_Penalty>
-0

> <b_epik_Metal_Only>
0

> <s_lp_Force_Field>
OPLS_2005

> <r_lp_Energy>
48.6174

> <b_lp_Chiralities_Consistent>
1

> <s_lp_Variant>
AV-unprocessed.smi:78-1

> <Gold.Version>
5.8.1

> <Gold.Id.Protein>
6NUR|6NUR_protein|mol2

> <Gold.PLP.Fitness>
61.5529

> <Gold.PLP.PLP>
-50.4080

> <Gold.PLP.part.hbond>
-4.9256

> <Gold.PLP.part.metal>
0.0000

> <Gold.PLP.part.buried>
-5.8293

> <Gold.PLP.part.nonpolar>
-39.1073

> <Gold.PLP.part.repulsive>
0.1630

> <Gold.PLP.ligand.clash>
0.0000

> <Gold.PLP.ligand.torsion>
0.7330

> <Gold.PLP.Chemscore.Hbond>
3.9760

> <Gold.PLP.Chemscore.CHOScore>
0.0000

> <Gold.PLP.Chemscore.Metal>
0.0000

> <Gold.Chemscore.Hbonds>
donor molecule, donor type, donor heavy atom, donor atom, acceptor molecule, acceptor atom, score
      P1  H  6933  6945       L1     7  0.16

> <Gold.PLP.Chemscore.Internal.Correction>
0.6830

> <Gold.Rescore>
     Score         DG    S(hbond)    S(metal)    S(lipo)     H(rot)  DE(clash)    DE(int)     intcor
     15.24     -17.91       2.61        0.00     105.76       3.39       0.27       2.40       ----

> <Gold.Chemscore.Fitness>
15.2404

> <Gold.Chemscore.DG>
-17.9053

> <Gold.Chemscore.ZeroCoef>
-5.4800

> <Gold.Chemscore.Hbond>
2.6104

> <Gold.Chemscore.Metal>
0.0000

> <Gold.Chemscore.Lipo>
105.7640

> <Gold.Chemscore.Internal_Hbond>
0.0000

> <Gold.Chemscore.DEClash>
0.2656

> <Gold.Chemscore.DEInternal>
2.3993

> <Gold.Chemscore.Rot>
3.3859

> <Gold.Chemscore.Internal.Correction>
   9.000000E+99

> <Gold.Chemscore.Hbonds>
donor molecule, donor type, donor heavy atom, donor atom, acceptor molecule, acceptor atom, score
      P1  H  6933  6945       L1     7  0.09

> <Gold.Chemscore.Hbond.Weighted>
-8.7189

> <Gold.Chemscore.Metal.Weighted>
-0.0000

> <Gold.Chemscore.Lipo.Weighted>
-12.3744

> <Gold.Chemscore.Internal_Hbond.Weighted>
0.0000

> <Gold.Chemscore.DEClash.Weighted>
0.2656

> <Gold.Chemscore.DEInternal.Weighted>
2.3993

> <Gold.Chemscore.Rot.Weighted>
8.6679

> <Gold.Chemscore.Internal.Correction.Weighted>
   9.000000E+99

> <Gold.Protein.RotatedTorsions>
[ 6907 6896 6895 6894 ] final  137.55 input  -60.11 | X-H torsion
[ 7974 7965 7964 7962 ] final   71.08 input  175.53 | X-H torsion
[ 8008 7997 7996 7995 ] final   14.93 input   59.86 | X-H torsion
[ 10167 10162 10161 10158 ] final  168.63 input  -65.29 | X-H torsion
[ 10718 10713 10712 10709 ] final  138.25 input   66.30 | X-H torsion
[ 10763 10752 10751 10750 ] final  -53.11 input  -60.55 | X-H torsion
[ 11005 11000 10999 10996 ] final   39.59 input  -57.11 | X-H torsion

> <Gold.Protein.ActiveResidues>
 VAL166  LYS551  ARG553  GLY616  TRP617  ASP618  TYR619  PRO620  LYS621  CYS622 
 ASP623  PHE694  ASN695  SER759  ASP760  ASP761  ALA762  ILE779  LEU786  VAL792 
 PHE793  MET794  SER795  GLU796  ALA797  LYS798  CYS799  TRP800  GLU811  SER814 

> <Gold.Protein.RotatedAtoms>
  152.2768  133.5433  159.5472 H   0  0  0  0  0  0  0  0  0  0  0  0  # atno 6907 bound_to 6896
  150.7180  134.0620  159.3843 H   0  0  0  0  0  0  0  0  0  0  0  0  # atno 6908 bound_to 6896
  151.8532  135.0550  160.0512 H   0  0  0  0  0  0  0  0  0  0  0  0  # atno 6909 bound_to 6896
  145.7702  139.2840  143.1325 H   0  0  0  0  0  0  0  0  0  0  0  0  # atno 7974 bound_to 7965
  154.8555  140.2936  155.5572 H   0  0  0  0  0  0  0  0  0  0  0  0  # atno 8008 bound_to 7997
  156.3018  140.2488  156.3453 H   0  0  0  0  0  0  0  0  0  0  0  0  # atno 8009 bound_to 7997
  154.8975  140.0392  157.1863 H   0  0  0  0  0  0  0  0  0  0  0  0  # atno 8010 bound_to 7997
  139.4972  144.3794  151.9639 H   0  0  0  0  0  0  0  0  0  0  0  0  # atno 10167 bound_to 10162
  157.4273  131.1045  151.0288 H   0  0  0  0  0  0  0  0  0  0  0  0  # atno 10718 bound_to 10713
  154.1536  135.6486  153.4969 H   0  0  0  0  0  0  0  0  0  0  0  0  # atno 10763 bound_to 10752
  153.0130  135.5344  154.6783 H   0  0  0  0  0  0  0  0  0  0  0  0  # atno 10764 bound_to 10752
  154.6077  135.2950  155.0438 H   0  0  0  0  0  0  0  0  0  0  0  0  # atno 10765 bound_to 10752
  140.2013  134.3866  155.8094 H   0  0  0  0  0  0  0  0  0  0  0  0  # atno 11005 bound_to 11000
  146.0177  140.8377  142.9939 LP  0  0  0  0  0  0  0  0  0  0  0  0  # atno 17320 bound_to 7965
  144.6814  140.2583  143.7322 LP  0  0  0  0  0  0  0  0  0  0  0  0  # atno 17321 bound_to 7965
  140.3230  144.3405  150.6005 LP  0  0  0  0  0  0  0  0  0  0  0  0  # atno 17342 bound_to 10162
  140.5707  143.2181  151.7604 LP  0  0  0  0  0  0  0  0  0  0  0  0  # atno 17343 bound_to 10162
  157.1197  130.6056  149.5502 LP  0  0  0  0  0  0  0  0  0  0  0  0  # atno 17370 bound_to 10713
  155.9901  130.4951  150.7242 LP  0  0  0  0  0  0  0  0  0  0  0  0  # atno 17371 bound_to 10713
  141.2227  133.7095  156.8263 LP  0  0  0  0  0  0  0  0  0  0  0  0  # atno 17394 bound_to 11000
  140.2051  134.8869  157.3212 LP  0  0  0  0  0  0  0  0  0  0  0  0  # atno 17395 bound_to 11000

$$$$
