AV-unprocessed.smi:103|AV-procd|sdf|989|dock4
  -GOLD-   2262017563D 1   1.00000     0.00000
 Structure written by MMmdl.
 53 55  0  0  0  0  0  0  0  0  1 V2000
  143.1722  132.8233  160.9752 C   0  0  0  0  0  0  0  0  0  0  0  0
  144.3989  133.0089  160.0926 C   0  0  0  0  0  0  0  0  0  0  0  0
  145.2840  132.1549  160.0352 O   0  0  0  0  0  0  0  0  0  0  0  0
  144.3775  134.1763  159.4238 O   0  0  0  0  0  0  0  0  0  0  0  0
  145.4774  134.5585  158.6100 C   0  0  0  0  0  0  0  0  0  0  0  0
  145.4010  136.0590  158.2505 C   0  0  2  0  0  0  0  0  0  0  0  0
  146.4788  136.4068  157.3899 O   0  0  0  0  0  0  0  0  0  0  0  0
  147.6151  136.6652  158.1532 C   0  0  1  0  0  0  0  0  0  0  0  0
  148.3818  137.7676  157.4954 N   0  0  0  0  0  0  0  0  0  0  0  0
  149.5729  137.7251  156.7976 C   0  0  0  0  0  0  0  0  0  0  0  0
  150.5882  136.2795  156.5075 S   0  0  0  0  0  0  0  0  0  0  0  0
  149.6826  135.4408  155.1438 C   0  0  0  0  0  0  0  0  0  0  0  0
  151.8882  136.7561  156.0115 O   0  0  0  0  0  0  0  0  0  0  0  0
  150.5101  135.4479  157.7189 O   0  0  0  0  0  0  0  0  0  0  0  0
  150.0354  138.8644  156.3586 N   0  0  0  0  0  0  0  0  0  0  0  0
  149.0563  139.7702  156.7412 C   0  0  0  0  0  0  0  0  0  0  0  0
  148.8914  141.1691  156.5818 C   0  0  0  0  0  0  0  0  0  0  0  0
  149.7820  141.9423  155.9452 N   0  0  0  0  0  0  0  0  0  0  0  0
  147.7828  141.7524  157.0942 N   0  0  0  0  0  0  0  0  0  0  0  0
  146.8791  141.0020  157.7328 C   0  0  0  0  0  0  0  0  0  0  0  0
  146.8975  139.6862  157.9623 N   0  0  0  0  0  0  0  0  0  0  0  0
  148.0157  139.0980  157.4441 C   0  0  0  0  0  0  0  0  0  0  0  0
  147.1548  137.0709  159.5610 C   0  0  2  0  0  0  0  0  0  0  0  0
  147.6672  136.1255  160.4953 O   0  0  0  0  0  0  0  0  0  0  0  0
  147.5069  136.3140  161.8162 C   0  0  0  0  0  0  0  0  0  0  0  0
  147.4224  134.9999  162.5803 C   0  0  0  0  0  0  0  0  0  0  0  0
  147.4294  137.3992  162.3920 O   0  0  0  0  0  0  0  0  0  0  0  0
  145.6337  137.0051  159.4355 C   0  0  2  0  0  0  0  0  0  0  0  0
  144.9938  136.6080  160.6443 O   0  0  0  0  0  0  0  0  0  0  0  0
  144.7554  137.5071  161.6136 C   0  0  0  0  0  0  0  0  0  0  0  0
  144.0661  136.8869  162.8213 C   0  0  0  0  0  0  0  0  0  0  0  0
  145.0364  138.7048  161.5767 O   0  0  0  0  0  0  0  0  0  0  0  0
  143.1177  133.6182  161.7189 H   0  0  0  0  0  0  0  0  0  0  0  0
  143.2156  131.8661  161.4951 H   0  0  0  0  0  0  0  0  0  0  0  0
  142.2641  132.8483  160.3725 H   0  0  0  0  0  0  0  0  0  0  0  0
  146.3784  134.3732  159.1944 H   0  0  0  0  0  0  0  0  0  0  0  0
  145.5568  133.9303  157.7220 H   0  0  0  0  0  0  0  0  0  0  0  0
  144.4463  136.2748  157.7697 H   0  0  0  0  0  0  0  0  0  0  0  0
  148.2698  135.7975  158.1555 H   0  0  0  0  0  0  0  0  0  0  0  0
  150.1937  134.5136  154.8871 H   0  0  0  0  0  0  0  0  0  0  0  0
  149.6501  136.0886  154.2695 H   0  0  0  0  0  0  0  0  0  0  0  0
  148.6661  135.2174  155.4667 H   0  0  0  0  0  0  0  0  0  0  0  0
  150.6162  141.5295  155.5534 H   0  0  0  0  0  0  0  0  0  0  0  0
  149.6147  142.9337  155.8526 H   0  0  0  0  0  0  0  0  0  0  0  0
  146.0189  141.5311  158.1159 H   0  0  0  0  0  0  0  0  0  0  0  0
  147.4893  138.0849  159.7861 H   0  0  0  0  0  0  0  0  0  0  0  0
  148.3484  134.4365  162.4658 H   0  0  0  0  0  0  0  0  0  0  0  0
  146.5982  134.3950  162.2020 H   0  0  0  0  0  0  0  0  0  0  0  0
  147.2579  135.1832  163.6423 H   0  0  0  0  0  0  0  0  0  0  0  0
  145.2900  138.0005  159.1514 H   0  0  0  0  0  0  0  0  0  0  0  0
  144.6610  136.0625  163.2146 H   0  0  0  0  0  0  0  0  0  0  0  0
  143.0845  136.5039  162.5413 H   0  0  0  0  0  0  0  0  0  0  0  0
  143.9365  137.6272  163.6109 H   0  0  0  0  0  0  0  0  0  0  0  0
  1  2  1  0  0  0  0
  1 33  1  0  0  0  0
  1 34  1  0  0  0  0
  1 35  1  0  0  0  0
  2  3  2  0  0  0  0
  2  4  1  0  0  0  0
  4  5  1  0  0  0  0
  5  6  1  0  0  0  0
  5 36  1  0  0  0  0
  5 37  1  0  0  0  0
  6 28  1  0  0  0  0
  6  7  1  0  0  0  0
  6 38  1  0  0  0  0
  7  8  1  0  0  0  0
  8  9  1  0  0  0  0
  8 23  1  0  0  0  0
  8 39  1  0  0  0  0
  9 22  1  0  0  0  0
  9 10  1  0  0  0  0
 10 11  1  0  0  0  0
 10 15  2  0  0  0  0
 11 12  1  0  0  0  0
 11 13  2  0  0  0  0
 11 14  2  0  0  0  0
 12 40  1  0  0  0  0
 12 41  1  0  0  0  0
 12 42  1  0  0  0  0
 15 16  1  0  0  0  0
 16 22  2  0  0  0  0
 16 17  1  0  0  0  0
 17 18  1  0  0  0  0
 17 19  2  0  0  0  0
 18 43  1  0  0  0  0
 18 44  1  0  0  0  0
 19 20  1  0  0  0  0
 20 21  2  0  0  0  0
 20 45  1  0  0  0  0
 21 22  1  0  0  0  0
 23 24  1  0  0  0  0
 23 28  1  0  0  0  0
 23 46  1  0  0  0  0
 24 25  1  0  0  0  0
 25 26  1  0  0  0  0
 25 27  2  0  0  0  0
 26 47  1  0  0  0  0
 26 48  1  0  0  0  0
 26 49  1  0  0  0  0
 28 29  1  0  0  0  0
 28 50  1  0  0  0  0
 29 30  1  0  0  0  0
 30 31  1  0  0  0  0
 30 32  2  0  0  0  0
 31 51  1  0  0  0  0
 31 52  1  0  0  0  0
 31 53  1  0  0  0  0
M  END
> <s_m_source_file>
AV-unprocessed.smi

> <i_m_source_file_index>
103

> <i_lp_mmshare_version>
43012

> <i_f3d_flags>
0

> <s_epik_input>
W0NIM11DKD1PKU9bQ0gyXVtDQEBIXTFPW0NASF0oW0NAQEhdKE9DKD1PKVtDSDNdKVtDQEhdMU9DKD1PKVtDSDNdKW4oYyhuMilTKD1PKSg9TylbQ0gzXSljKGMyMyluW2NIXW5jM1tOSDJd

> <s_epik_cmdline>
J2VwaWtfcHl0aG9uJywgJy1waCcsICc3LjAnLCAnLXRuJywgJzgnLCAnLW1hJywgJzIwMCcsICctbWV0YWxfYmluZGluZycsICctaW1hZScsICc8aW5maWxlLm1hZT4nLCAnLW9tYWUnLCAnPG91dGZpbGUubWFlPic=

> <r_lp_tautomer_probability>
1

> <r_epik_Ionization_Penalty>
1.51338e-05

> <r_epik_Ionization_Penalty_Charging>
0

> <r_epik_Ionization_Penalty_Neutral>
1.51338e-05

> <r_epik_State_Penalty>
-0

> <r_epik_Charging_Adjusted_Penalty>
0

> <i_epik_Tot_Q>
0

> <i_epik_Tot_abs_Q>
0

> <r_epik_Metal_State_Penalty>
-0

> <b_epik_Metal_Only>
0

> <s_epik_Chemistry_Notes>
This compound has an ester and may undergo hydrolysis at high or low pH. This compound contains an acetal/aminal-like group ( X-CH(R)-Y where X, Y are N, S, or O) that may be acid/base labile, releasing an aldehyde.

> <s_lp_Force_Field>
OPLS_2005

> <r_lp_Energy>
21.2574

> <b_lp_Chiralities_Consistent>
1

> <s_lp_Variant>
AV-unprocessed.smi:103-13

> <Gold.Version>
5.8.1

> <Gold.Id.Protein>
6NUR|6NUR_protein|mol2

> <Gold.PLP.Fitness>
38.0079

> <Gold.PLP.PLP>
-28.8703

> <Gold.PLP.part.hbond>
-6.6818

> <Gold.PLP.part.metal>
0.0000

> <Gold.PLP.part.buried>
-5.9161

> <Gold.PLP.part.nonpolar>
-16.0583

> <Gold.PLP.part.repulsive>
0.2594

> <Gold.PLP.ligand.clash>
0.0000

> <Gold.PLP.ligand.torsion>
2.0411

> <Gold.PLP.Chemscore.Hbond>
3.6058

> <Gold.PLP.Chemscore.CHOScore>
0.0000

> <Gold.PLP.Chemscore.Metal>
0.0000

> <Gold.Chemscore.Hbonds>
donor molecule, donor type, donor heavy atom, donor atom, acceptor molecule, acceptor atom, score
      L1  H    18    44       P1  8028  1.00
      P1  H  6896  6908       L1    14  0.51
      P1  H  6931  6943       L1    27  0.74
      P1  H  6934  6947       L1    27  0.32
      P1  H 10752 10763       L1    13  1.00

> <Gold.PLP.Chemscore.Internal.Correction>
2.4025

> <Gold.Rescore>
     Score         DG    S(hbond)    S(metal)    S(lipo)     H(rot)  DE(clash)    DE(int)     intcor
      6.16     -10.28       3.72        0.00      27.59       4.25       0.33       3.78       ----

> <Gold.Chemscore.Fitness>
6.1634

> <Gold.Chemscore.DG>
-10.2785

> <Gold.Chemscore.ZeroCoef>
-5.4800

> <Gold.Chemscore.Hbond>
3.7244

> <Gold.Chemscore.Metal>
0.0000

> <Gold.Chemscore.Lipo>
27.5877

> <Gold.Chemscore.Internal_Hbond>
0.0000

> <Gold.Chemscore.DEClash>
0.3350

> <Gold.Chemscore.DEInternal>
3.7802

> <Gold.Chemscore.Rot>
4.2456

> <Gold.Chemscore.Internal.Correction>
   9.000000E+99

> <Gold.Chemscore.Hbonds>
donor molecule, donor type, donor heavy atom, donor atom, acceptor molecule, acceptor atom, score
      L1  H    18    44       P1  8028  0.99
      P1  H  6896  6908       L1    14  0.48
      P1  H  6931  6943       L1    27  0.33
      P1  H  6934  6947       L1    27  0.27
      P1  H 10752 10763       L1    13  0.92

> <Gold.Chemscore.Hbond.Weighted>
-12.4394

> <Gold.Chemscore.Metal.Weighted>
-0.0000

> <Gold.Chemscore.Lipo.Weighted>
-3.2278

> <Gold.Chemscore.Internal_Hbond.Weighted>
0.0000

> <Gold.Chemscore.DEClash.Weighted>
0.3350

> <Gold.Chemscore.DEInternal.Weighted>
3.7802

> <Gold.Chemscore.Rot.Weighted>
10.8687

> <Gold.Chemscore.Internal.Correction.Weighted>
   9.000000E+99

> <Gold.Protein.RotatedTorsions>
[ 6907 6896 6895 6894 ] final -176.26 input  -60.11 | X-H torsion
[ 7974 7965 7964 7962 ] final  -56.48 input  175.53 | X-H torsion
[ 8008 7997 7996 7995 ] final -103.18 input   59.86 | X-H torsion
[ 10167 10162 10161 10158 ] final  105.62 input  -65.29 | X-H torsion
[ 10718 10713 10712 10709 ] final    0.45 input   66.30 | X-H torsion
[ 10763 10752 10751 10750 ] final   82.68 input  -60.55 | X-H torsion
[ 11005 11000 10999 10996 ] final  -93.29 input  -57.11 | X-H torsion

> <Gold.Protein.ActiveResidues>
 VAL166  LYS551  ARG553  GLY616  TRP617  ASP618  TYR619  PRO620  LYS621  CYS622 
 ASP623  PHE694  ASN695  SER759  ASP760  ASP761  ALA762  ILE779  LEU786  VAL792 
 PHE793  MET794  SER795  GLU796  ALA797  LYS798  CYS799  TRP800  GLU811  SER814 

> <Gold.Protein.RotatedAtoms>
  151.6019  133.3355  159.3049 H   0  0  0  0  0  0  0  0  0  0  0  0  # atno 6907 bound_to 6896
  150.8203  134.7410  159.6777 H   0  0  0  0  0  0  0  0  0  0  0  0  # atno 6908 bound_to 6896
  152.4297  134.5807  159.9998 H   0  0  0  0  0  0  0  0  0  0  0  0  # atno 6909 bound_to 6896
  145.8622  140.8277  142.9931 H   0  0  0  0  0  0  0  0  0  0  0  0  # atno 7974 bound_to 7965
  154.8673  140.0424  157.1702 H   0  0  0  0  0  0  0  0  0  0  0  0  # atno 8008 bound_to 7997
  154.8776  140.2968  155.5423 H   0  0  0  0  0  0  0  0  0  0  0  0  # atno 8009 bound_to 7997
  156.2999  140.2417  156.3774 H   0  0  0  0  0  0  0  0  0  0  0  0  # atno 8010 bound_to 7997
  139.7077  144.7083  151.1078 H   0  0  0  0  0  0  0  0  0  0  0  0  # atno 10167 bound_to 10162
  156.8335  130.5497  149.5684 H   0  0  0  0  0  0  0  0  0  0  0  0  # atno 10718 bound_to 10713
  153.1224  135.4719  154.9217 H   0  0  0  0  0  0  0  0  0  0  0  0  # atno 10763 bound_to 10752
  154.7588  135.3126  154.8421 H   0  0  0  0  0  0  0  0  0  0  0  0  # atno 10764 bound_to 10752
  153.8982  135.6878  153.4810 H   0  0  0  0  0  0  0  0  0  0  0  0  # atno 10765 bound_to 10752
  141.1501  133.7877  157.0138 H   0  0  0  0  0  0  0  0  0  0  0  0  # atno 11005 bound_to 11000
  144.6726  140.1113  143.7455 LP  0  0  0  0  0  0  0  0  0  0  0  0  # atno 17320 bound_to 7965
  145.9235  139.2560  143.1367 LP  0  0  0  0  0  0  0  0  0  0  0  0  # atno 17321 bound_to 7965
  140.7726  143.5335  150.9395 LP  0  0  0  0  0  0  0  0  0  0  0  0  # atno 17342 bound_to 10162
  139.9019  143.6825  152.3130 LP  0  0  0  0  0  0  0  0  0  0  0  0  # atno 17343 bound_to 10162
  156.0920  130.5903  150.9750 LP  0  0  0  0  0  0  0  0  0  0  0  0  # atno 17370 bound_to 10713
  157.6394  131.0912  150.8283 LP  0  0  0  0  0  0  0  0  0  0  0  0  # atno 17371 bound_to 10713
  140.0860  134.9620  157.1700 LP  0  0  0  0  0  0  0  0  0  0  0  0  # atno 17394 bound_to 11000
  140.3511  134.2598  155.7198 LP  0  0  0  0  0  0  0  0  0  0  0  0  # atno 17395 bound_to 11000

$$$$
