AV-unprocessed.smi:3089|AV-procd|sdf|11771|dock4
  -GOLD-   2272017153D 1   1.00000     0.00000
 Structure written by MMmdl.
 25 25  0  0  0  0  0  0  0  0  2 V2000
  149.2653  132.5099  153.6947 C   0  0  0  0  0  0  0  0  0  0  0  0
  148.0804  132.2244  152.9140 N   0  0  0  0  0  0  0  0  0  0  0  0
  147.3963  133.0535  152.0524 C   0  0  0  0  0  0  0  0  0  0  0  0
  146.3410  132.3458  151.5441 C   0  0  0  0  0  0  0  0  0  0  0  0
  145.2911  132.7993  150.5513 C   0  0  2  0  0  0  0  0  0  0  0  0
  145.5315  132.1276  149.1883 C   0  0  0  0  0  0  0  0  0  0  0  0
  145.3570  134.1931  150.3124 O   0  0  0  0  0  0  0  0  0  0  0  0
  143.8674  132.4878  151.0634 C   0  0  0  0  0  0  0  0  0  0  0  0
  142.8438  132.6772  150.0184 N   0  3  0  0  0  0  0  0  0  0  0  0
  146.4722  131.0740  152.1769 C   0  0  0  0  0  0  0  0  0  0  0  0
  147.5138  131.0039  152.9889 N   0  0  0  0  0  0  0  0  0  0  0  0
  149.5929  133.5346  153.5176 H   0  0  0  0  0  0  0  0  0  0  0  0
  150.0679  131.8279  153.4120 H   0  0  0  0  0  0  0  0  0  0  0  0
  149.0473  132.3866  154.7558 H   0  0  0  0  0  0  0  0  0  0  0  0
  147.7135  134.0701  151.8718 H   0  0  0  0  0  0  0  0  0  0  0  0
  145.4647  131.0415  149.2622 H   0  0  0  0  0  0  0  0  0  0  0  0
  146.5204  132.3689  148.7960 H   0  0  0  0  0  0  0  0  0  0  0  0
  144.7972  132.4488  148.4484 H   0  0  0  0  0  0  0  0  0  0  0  0
  145.9354  134.3495  149.5812 H   0  0  0  0  0  0  0  0  0  0  0  0
  143.8044  131.4639  151.4343 H   0  0  0  0  0  0  0  0  0  0  0  0
  143.6164  133.1398  151.9010 H   0  0  0  0  0  0  0  0  0  0  0  0
  143.2818  132.6853  149.1086 H   0  0  0  0  0  0  0  0  0  0  0  0
  142.3678  133.5546  150.1740 H   0  0  0  0  0  0  0  0  0  0  0  0
  145.8456  130.2011  152.0668 H   0  0  0  0  0  0  0  0  0  0  0  0
  142.1745  131.9222  150.0658 H   0  0  0  0  0  0  0  0  0  0  0  0
  1  2  1  0  0  0  0
  1 12  1  0  0  0  0
  1 13  1  0  0  0  0
  1 14  1  0  0  0  0
  2 11  1  0  0  0  0
  2  3  1  0  0  0  0
  3  4  2  0  0  0  0
  3 15  1  0  0  0  0
  4  5  1  0  0  0  0
  4 10  1  0  0  0  0
  5  6  1  0  0  0  0
  5  7  1  0  0  0  0
  5  8  1  0  0  0  0
  6 16  1  0  0  0  0
  6 17  1  0  0  0  0
  6 18  1  0  0  0  0
  7 19  1  0  0  0  0
  8  9  1  0  0  0  0
  8 20  1  0  0  0  0
  8 21  1  0  0  0  0
  9 22  1  0  0  0  0
  9 23  1  0  0  0  0
  9 25  1  0  0  0  0
 10 11  2  0  0  0  0
 10 24  1  0  0  0  0
M  CHG  1   9   1
M  END
> <s_m_source_file>
AV-unprocessed.smi

> <i_m_source_file_index>
3089

> <i_lp_mmshare_version>
43012

> <i_f3d_flags>
0

> <s_epik_input>
W0NIM11uMVtjSF1jKFtjSF1uMSlbQ0BAXShbQ0gzXSkoW09IXSlbQ0gyXVtOSDJd

> <s_epik_cmdline>
J2VwaWtfcHl0aG9uJywgJy1waCcsICc3LjAnLCAnLXRuJywgJzgnLCAnLW1hJywgJzIwMCcsICctbWV0YWxfYmluZGluZycsICctaW1hZScsICc8aW5maWxlLm1hZT4nLCAnLW9tYWUnLCAnPG91dGZpbGUubWFlPic=

> <r_lp_tautomer_probability>
1

> <r_epik_Ionization_Penalty>
0.0140512

> <r_epik_Ionization_Penalty_Charging>
0.0140431

> <r_epik_Ionization_Penalty_Neutral>
8.10489e-06

> <r_epik_State_Penalty>
0.0109628

> <r_epik_Charging_Adjusted_Penalty>
0.0250059

> <i_epik_Tot_Q>
1

> <i_epik_Tot_abs_Q>
1

> <r_epik_Metal_State_Penalty>
0.0109638

> <b_epik_Metal_Only>
0

> <s_lp_Force_Field>
OPLS_2005

> <r_lp_Energy>
3.27267

> <b_lp_Chiralities_Consistent>
1

> <s_lp_Variant>
AV-unprocessed.smi:3089-2

> <Gold.Version>
5.8.1

> <Gold.Id.Protein>
6NUR|6NUR_protein|mol2

> <Gold.PLP.Fitness>
40.8962

> <Gold.PLP.PLP>
-26.6887

> <Gold.PLP.part.hbond>
-3.0000

> <Gold.PLP.part.metal>
0.0000

> <Gold.PLP.part.buried>
-3.5529

> <Gold.PLP.part.nonpolar>
-19.5560

> <Gold.PLP.part.repulsive>
0.1937

> <Gold.PLP.ligand.clash>
0.0000

> <Gold.PLP.ligand.torsion>
0.4045

> <Gold.PLP.Chemscore.Hbond>
4.0000

> <Gold.PLP.Chemscore.CHOScore>
1.0000

> <Gold.PLP.Chemscore.Metal>
0.0000

> <Gold.Chemscore.Hbonds>
donor molecule, donor type, donor heavy atom, donor atom, acceptor molecule, acceptor atom, score
      L1  H     7    19       P1  7921  0.98
      L1  H     9    23       P1 10186  1.54
      L1  H     9    25       P1 10952  0.76
      L1  C     3    15       P1  7948  0.78

> <Gold.PLP.Chemscore.Internal.Correction>
0.0165

> <Gold.Rescore>
     Score         DG    S(hbond)    S(metal)    S(lipo)     H(rot)  DE(clash)    DE(int)     intcor
     17.20     -17.26       2.96        0.00      57.37       1.89       0.01       0.04       ----

> <Gold.Chemscore.Fitness>
17.2020

> <Gold.Chemscore.DG>
-17.2573

> <Gold.Chemscore.ZeroCoef>
-5.4800

> <Gold.Chemscore.Hbond>
2.9639

> <Gold.Chemscore.Metal>
0.0000

> <Gold.Chemscore.Lipo>
57.3664

> <Gold.Chemscore.Internal_Hbond>
0.0000

> <Gold.Chemscore.DEClash>
0.0106

> <Gold.Chemscore.DEInternal>
0.0447

> <Gold.Chemscore.Rot>
1.8883

> <Gold.Chemscore.Internal.Correction>
   9.000000E+99

> <Gold.Chemscore.Hbonds>
donor molecule, donor type, donor heavy atom, donor atom, acceptor molecule, acceptor atom, score
      L1  H     7    19       P1  7921  0.45
      L1  H     9    23       P1 10186  0.78
      L1  H     9    25       P1 10952  0.66

> <Gold.Chemscore.Hbond.Weighted>
-9.8995

> <Gold.Chemscore.Metal.Weighted>
-0.0000

> <Gold.Chemscore.Lipo.Weighted>
-6.7119

> <Gold.Chemscore.Internal_Hbond.Weighted>
0.0000

> <Gold.Chemscore.DEClash.Weighted>
0.0106

> <Gold.Chemscore.DEInternal.Weighted>
0.0447

> <Gold.Chemscore.Rot.Weighted>
4.8341

> <Gold.Chemscore.Internal.Correction.Weighted>
   9.000000E+99

> <Gold.Protein.RotatedTorsions>
[ 6907 6896 6895 6894 ] final  -56.92 input  -60.11 | X-H torsion
[ 7974 7965 7964 7962 ] final  166.89 input  175.53 | X-H torsion
[ 8008 7997 7996 7995 ] final  126.54 input   59.86 | X-H torsion
[ 10167 10162 10161 10158 ] final -156.12 input  -65.29 | X-H torsion
[ 10718 10713 10712 10709 ] final   94.90 input   66.30 | X-H torsion
[ 10763 10752 10751 10750 ] final  -51.58 input  -60.55 | X-H torsion
[ 11005 11000 10999 10996 ] final  -29.90 input  -57.11 | X-H torsion

> <Gold.Protein.ActiveResidues>
 VAL166  LYS551  ARG553  GLY616  TRP617  ASP618  TYR619  PRO620  LYS621  CYS622 
 ASP623  PHE694  ASN695  SER759  ASP760  ASP761  ALA762  ILE779  LEU786  VAL792 
 PHE793  MET794  SER795  GLU796  ALA797  LYS798  CYS799  TRP800  GLU811  SER814 

> <Gold.Protein.RotatedAtoms>
  150.8128  134.7293  159.6702 H   0  0  0  0  0  0  0  0  0  0  0  0  # atno 6907 bound_to 6896
  152.4248  134.5886  159.9977 H   0  0  0  0  0  0  0  0  0  0  0  0  # atno 6908 bound_to 6896
  151.6091  133.3311  159.3099 H   0  0  0  0  0  0  0  0  0  0  0  0  # atno 6909 bound_to 6896
  144.7445  139.8681  143.6386 H   0  0  0  0  0  0  0  0  0  0  0  0  # atno 7974 bound_to 7965
  156.2866  140.2690  156.2127 H   0  0  0  0  0  0  0  0  0  0  0  0  # atno 8008 bound_to 7997
  155.0248  140.0386  157.2469 H   0  0  0  0  0  0  0  0  0  0  0  0  # atno 8009 bound_to 7997
  154.7405  140.2724  155.6382 H   0  0  0  0  0  0  0  0  0  0  0  0  # atno 8010 bound_to 7997
  139.6876  143.9476  152.2369 H   0  0  0  0  0  0  0  0  0  0  0  0  # atno 10167 bound_to 10162
  157.6944  131.0528  150.4257 H   0  0  0  0  0  0  0  0  0  0  0  0  # atno 10718 bound_to 10713
  154.1288  135.6523  153.4918 H   0  0  0  0  0  0  0  0  0  0  0  0  # atno 10763 bound_to 10752
  153.0201  135.5288  154.7022 H   0  0  0  0  0  0  0  0  0  0  0  0  # atno 10764 bound_to 10752
  154.6251  135.2969  155.0252 H   0  0  0  0  0  0  0  0  0  0  0  0  # atno 10765 bound_to 10752
  140.9337  133.7322  156.0973 H   0  0  0  0  0  0  0  0  0  0  0  0  # atno 11005 bound_to 11000
  146.1300  139.4334  143.0174 LP  0  0  0  0  0  0  0  0  0  0  0  0  # atno 17320 bound_to 7965
  145.7177  141.0085  143.1419 LP  0  0  0  0  0  0  0  0  0  0  0  0  # atno 17321 bound_to 7965
  139.9283  144.6757  150.8390 LP  0  0  0  0  0  0  0  0  0  0  0  0  # atno 17342 bound_to 10162
  140.7672  143.3327  151.2376 LP  0  0  0  0  0  0  0  0  0  0  0  0  # atno 17343 bound_to 10162
  156.4628  130.4035  149.6566 LP  0  0  0  0  0  0  0  0  0  0  0  0  # atno 17370 bound_to 10713
  156.3675  130.7513  151.2492 LP  0  0  0  0  0  0  0  0  0  0  0  0  # atno 17371 bound_to 10713
  140.7828  134.3705  157.5483 LP  0  0  0  0  0  0  0  0  0  0  0  0  # atno 17394 bound_to 11000
  139.8802  134.9092  156.2986 LP  0  0  0  0  0  0  0  0  0  0  0  0  # atno 17395 bound_to 11000

$$$$
