AV-unprocessed.smi:228|AV-procd|sdf|1745|dock7
  -GOLD-   2262020263D 1   1.00000     0.00000
 Structure written by MMmdl.
 59 62  0  0  0  0  0  0  0  0  1 V2000
  148.4357  137.1642  156.6538 C   0  0  0  0  0  0  0  0  0  0  0  0
  148.6338  137.8527  155.3817 N   0  0  0  0  0  0  0  0  0  0  0  0
  150.0050  138.1221  154.9545 C   0  0  0  0  0  0  0  0  0  0  0  0
  150.5027  139.5141  155.4069 C   0  0  2  0  0  0  0  0  0  0  0  0
  151.7205  139.7590  154.7317 O   0  0  0  0  0  0  0  0  0  0  0  0
  150.7746  139.5760  156.9273 C   0  0  0  0  0  0  0  0  0  0  0  0
  151.5414  140.7368  157.3840 N   0  0  0  0  0  0  0  0  0  0  0  0
  151.9427  140.6349  158.7854 C   0  0  0  0  0  0  0  0  0  0  0  0
  152.7165  141.8797  159.2549 C   0  0  0  0  0  0  0  0  0  0  0  0
  151.9309  143.0462  159.0336 O   0  0  0  0  0  0  0  0  0  0  0  0
  151.5625  143.2068  157.6679 C   0  0  0  0  0  0  0  0  0  0  0  0
  150.7804  141.9683  157.1983 C   0  0  0  0  0  0  0  0  0  0  0  0
  147.6740  137.7450  154.4252 C   0  0  0  0  0  0  0  0  0  0  0  0
  147.3272  138.8477  153.7090 N   0  0  0  0  0  0  0  0  0  0  0  0
  146.3722  138.7794  152.7778 C   0  0  0  0  0  0  0  0  0  0  0  0
  145.6514  137.7234  152.3996 N   0  0  0  0  0  0  0  0  0  0  0  0
  146.0076  136.6047  153.0931 C   0  0  0  0  0  0  0  0  0  0  0  0
  146.9957  136.5291  154.1168 C   0  0  0  0  0  0  0  0  0  0  0  0
  147.0737  135.2266  154.5945 N   0  0  0  0  0  0  0  0  0  0  0  0
  146.1691  134.5787  153.9139 C   0  0  0  0  0  0  0  0  0  0  0  0
  145.5035  135.3205  152.9628 N   0  0  0  0  0  0  0  0  0  0  0  0
  144.4388  134.8761  152.1023 C   0  0  0  0  0  0  0  0  0  0  0  0
  144.1508  133.3830  151.8926 C   0  0  0  0  0  0  0  0  0  0  0  0
  144.8604  133.4288  150.5222 C   0  0  0  0  0  0  0  0  0  0  0  0
  146.3421  132.9989  150.5745 C   0  0  0  0  0  0  0  0  0  0  0  0
  146.4931  131.6084  150.7733 O   0  0  0  0  0  0  0  0  0  0  0  0
  144.1428  132.6449  149.4087 C   0  0  0  0  0  0  0  0  0  0  0  0
  142.7541  132.5371  149.6452 O   0  0  0  0  0  0  0  0  0  0  0  0
  144.5856  134.9473  150.5775 C   0  0  0  0  0  0  0  0  0  0  0  0
  147.4424  137.3679  157.0556 H   0  0  0  0  0  0  0  0  0  0  0  0
  149.1672  137.4961  157.3909 H   0  0  0  0  0  0  0  0  0  0  0  0
  148.5479  136.0865  156.5300 H   0  0  0  0  0  0  0  0  0  0  0  0
  150.6208  137.3433  155.4048 H   0  0  0  0  0  0  0  0  0  0  0  0
  150.1382  137.9799  153.8815 H   0  0  0  0  0  0  0  0  0  0  0  0
  149.7812  140.2841  155.1295 H   0  0  0  0  0  0  0  0  0  0  0  0
  152.3410  140.1085  155.3535 H   0  0  0  0  0  0  0  0  0  0  0  0
  149.8085  139.6193  157.4313 H   0  0  0  0  0  0  0  0  0  0  0  0
  151.2379  138.6497  157.2716 H   0  0  0  0  0  0  0  0  0  0  0  0
  151.0616  140.4980  159.4139 H   0  0  0  0  0  0  0  0  0  0  0  0
  152.5735  139.7590  158.9338 H   0  0  0  0  0  0  0  0  0  0  0  0
  152.9496  141.8030  160.3169 H   0  0  0  0  0  0  0  0  0  0  0  0
  153.6658  141.9668  158.7242 H   0  0  0  0  0  0  0  0  0  0  0  0
  150.9505  144.1030  157.5665 H   0  0  0  0  0  0  0  0  0  0  0  0
  152.4546  143.3560  157.0578 H   0  0  0  0  0  0  0  0  0  0  0  0
  150.5181  142.0874  156.1465 H   0  0  0  0  0  0  0  0  0  0  0  0
  149.8399  141.9081  157.7486 H   0  0  0  0  0  0  0  0  0  0  0  0
  146.1533  139.7031  152.2627 H   0  0  0  0  0  0  0  0  0  0  0  0
  145.9717  133.5320  154.0912 H   0  0  0  0  0  0  0  0  0  0  0  0
  143.5479  135.4079  152.4385 H   0  0  0  0  0  0  0  0  0  0  0  0
  144.6090  132.7047  152.6116 H   0  0  0  0  0  0  0  0  0  0  0  0
  143.0806  133.1843  151.8135 H   0  0  0  0  0  0  0  0  0  0  0  0
  146.8573  133.2506  149.6477 H   0  0  0  0  0  0  0  0  0  0  0  0
  146.8756  133.5245  151.3668 H   0  0  0  0  0  0  0  0  0  0  0  0
  147.4117  131.3941  150.7171 H   0  0  0  0  0  0  0  0  0  0  0  0
  144.3003  133.1073  148.4340 H   0  0  0  0  0  0  0  0  0  0  0  0
  144.5374  131.6311  149.3329 H   0  0  0  0  0  0  0  0  0  0  0  0
  142.3600  133.3865  149.5182 H   0  0  0  0  0  0  0  0  0  0  0  0
  143.6507  135.2248  150.0875 H   0  0  0  0  0  0  0  0  0  0  0  0
  145.4063  135.5651  150.2138 H   0  0  0  0  0  0  0  0  0  0  0  0
  1  2  1  0  0  0  0
  1 30  1  0  0  0  0
  1 31  1  0  0  0  0
  1 32  1  0  0  0  0
  2  3  1  0  0  0  0
  2 13  1  0  0  0  0
  3  4  1  0  0  0  0
  3 33  1  0  0  0  0
  3 34  1  0  0  0  0
  4  5  1  0  0  0  0
  4  6  1  0  0  0  0
  4 35  1  0  0  0  0
  5 36  1  0  0  0  0
  6  7  1  0  0  0  0
  6 37  1  0  0  0  0
  6 38  1  0  0  0  0
  7 12  1  0  0  0  0
  7  8  1  0  0  0  0
  8  9  1  0  0  0  0
  8 39  1  0  0  0  0
  8 40  1  0  0  0  0
  9 10  1  0  0  0  0
  9 41  1  0  0  0  0
  9 42  1  0  0  0  0
 10 11  1  0  0  0  0
 11 12  1  0  0  0  0
 11 43  1  0  0  0  0
 11 44  1  0  0  0  0
 12 45  1  0  0  0  0
 12 46  1  0  0  0  0
 13 18  1  0  0  0  0
 13 14  2  0  0  0  0
 14 15  1  0  0  0  0
 15 16  2  0  0  0  0
 15 47  1  0  0  0  0
 16 17  1  0  0  0  0
 17 21  1  0  0  0  0
 17 18  2  0  0  0  0
 18 19  1  0  0  0  0
 19 20  2  0  0  0  0
 20 21  1  0  0  0  0
 20 48  1  0  0  0  0
 21 22  1  0  0  0  0
 22 29  1  0  0  0  0
 22 23  1  0  0  0  0
 22 49  1  0  0  0  0
 23 24  1  0  0  0  0
 23 50  1  0  0  0  0
 23 51  1  0  0  0  0
 24 25  1  0  0  0  0
 24 27  1  0  0  0  0
 24 29  1  0  0  0  0
 25 26  1  0  0  0  0
 25 52  1  0  0  0  0
 25 53  1  0  0  0  0
 26 54  1  0  0  0  0
 27 28  1  0  0  0  0
 27 55  1  0  0  0  0
 27 56  1  0  0  0  0
 28 57  1  0  0  0  0
 29 58  1  0  0  0  0
 29 59  1  0  0  0  0
M  END
> <s_m_source_file>
AV-unprocessed.smi

> <i_m_source_file_index>
228

> <i_lp_mmshare_version>
43012

> <i_f3d_flags>
0

> <s_epik_input>
W0NIMl0xW0NIMl1PW0NIMl1bQ0gyXU4xW0NIMl1bQ0BASF0oW09IXSlbQ0gyXU4oW0NIM10pYyhuW2NIXW4yKWMoYzIzKW5bY0hdbjNbQ0hdKFtDSDJdNClbQ0gyXUM0KFtDSDJdW09IXSlbQ0gyXVtPSF0=

> <s_epik_cmdline>
J2VwaWtfcHl0aG9uJywgJy1waCcsICc3LjAnLCAnLXRuJywgJzgnLCAnLW1hJywgJzIwMCcsICctbWV0YWxfYmluZGluZycsICctaW1hZScsICc8aW5maWxlLm1hZT4nLCAnLW9tYWUnLCAnPG91dGZpbGUubWFlPic=

> <r_lp_tautomer_probability>
1

> <r_epik_Ionization_Penalty>
0.423559

> <r_epik_Ionization_Penalty_Charging>
0

> <r_epik_Ionization_Penalty_Neutral>
0.423559

> <r_epik_State_Penalty>
0.438466

> <r_epik_Charging_Adjusted_Penalty>
0.438466

> <i_epik_Tot_Q>
0

> <i_epik_Tot_abs_Q>
0

> <r_epik_Metal_State_Penalty>
0.436601

> <b_epik_Metal_Only>
0

> <s_lp_Force_Field>
OPLS_2005

> <r_lp_Energy>
66.0814

> <b_lp_Chiralities_Consistent>
1

> <s_lp_Variant>
AV-unprocessed.smi:228-3

> <Gold.Version>
5.8.1

> <Gold.Id.Protein>
6NUR|6NUR_protein|mol2

> <Gold.PLP.Fitness>
48.9752

> <Gold.PLP.PLP>
-40.5840

> <Gold.PLP.part.hbond>
-3.9514

> <Gold.PLP.part.metal>
0.0000

> <Gold.PLP.part.buried>
-6.8866

> <Gold.PLP.part.nonpolar>
-31.4135

> <Gold.PLP.part.repulsive>
0.5554

> <Gold.PLP.ligand.clash>
0.0000

> <Gold.PLP.ligand.torsion>
1.9937

> <Gold.PLP.Chemscore.Hbond>
3.0000

> <Gold.PLP.Chemscore.CHOScore>
0.6821

> <Gold.PLP.Chemscore.Metal>
0.0000

> <Gold.Chemscore.Hbonds>
donor molecule, donor type, donor heavy atom, donor atom, acceptor molecule, acceptor atom, score
      L1  H    26    54       P1 10747  1.00
      L1  H    28    57       P1 10186  1.00
      P1  H  7989  7998       L1     5  1.00
      L1  C    15    47       P1 10175  0.59

> <Gold.PLP.Chemscore.Internal.Correction>
1.3322

> <Gold.Rescore>
     Score         DG    S(hbond)    S(metal)    S(lipo)     H(rot)  DE(clash)    DE(int)     intcor
     11.73     -14.01       2.87        0.00      92.88       4.66       0.28       2.00       ----

> <Gold.Chemscore.Fitness>
11.7272

> <Gold.Chemscore.DG>
-14.0060

> <Gold.Chemscore.ZeroCoef>
-5.4800

> <Gold.Chemscore.Hbond>
2.8708

> <Gold.Chemscore.Metal>
0.0000

> <Gold.Chemscore.Lipo>
92.8827

> <Gold.Chemscore.Internal_Hbond>
0.0000

> <Gold.Chemscore.DEClash>
0.2791

> <Gold.Chemscore.DEInternal>
1.9998

> <Gold.Chemscore.Rot>
4.6600

> <Gold.Chemscore.Internal.Correction>
   9.000000E+99

> <Gold.Chemscore.Hbonds>
donor molecule, donor type, donor heavy atom, donor atom, acceptor molecule, acceptor atom, score
      L1  H    26    54       P1 10747  1.00
      L1  H    28    57       P1 10186  0.95
      P1  H  7989  7998       L1     5  0.45

> <Gold.Chemscore.Hbond.Weighted>
-9.5884

> <Gold.Chemscore.Metal.Weighted>
-0.0000

> <Gold.Chemscore.Lipo.Weighted>
-10.8673

> <Gold.Chemscore.Internal_Hbond.Weighted>
0.0000

> <Gold.Chemscore.DEClash.Weighted>
0.2791

> <Gold.Chemscore.DEInternal.Weighted>
1.9998

> <Gold.Chemscore.Rot.Weighted>
11.9297

> <Gold.Chemscore.Internal.Correction.Weighted>
   9.000000E+99

> <Gold.Protein.RotatedTorsions>
[ 6907 6896 6895 6894 ] final  -20.91 input  -60.11 | X-H torsion
[ 7974 7965 7964 7962 ] final -105.52 input  175.53 | X-H torsion
[ 8008 7997 7996 7995 ] final   27.77 input   59.86 | X-H torsion
[ 10167 10162 10161 10158 ] final -121.53 input  -65.29 | X-H torsion
[ 10718 10713 10712 10709 ] final  -11.13 input   66.30 | X-H torsion
[ 10763 10752 10751 10750 ] final   81.52 input  -60.55 | X-H torsion
[ 11005 11000 10999 10996 ] final   83.01 input  -57.11 | X-H torsion

> <Gold.Protein.ActiveResidues>
 VAL166  LYS551  ARG553  GLY616  TRP617  ASP618  TYR619  PRO620  LYS621  CYS622 
 ASP623  PHE694  ASN695  SER759  ASP760  ASP761  ALA762  ILE779  LEU786  VAL792 
 PHE793  MET794  SER795  GLU796  ALA797  LYS798  CYS799  TRP800  GLU811  SER814 

> <Gold.Protein.RotatedAtoms>
  151.2412  135.0589  159.9025 H   0  0  0  0  0  0  0  0  0  0  0  0  # atno 6907 bound_to 6896
  152.5393  134.0432  159.8087 H   0  0  0  0  0  0  0  0  0  0  0  0  # atno 6908 bound_to 6896
  151.0626  133.5482  159.2664 H   0  0  0  0  0  0  0  0  0  0  0  0  # atno 6909 bound_to 6896
  145.2294  140.9165  143.3213 H   0  0  0  0  0  0  0  0  0  0  0  0  # atno 7974 bound_to 7965
  155.0482  140.3177  155.4701 H   0  0  0  0  0  0  0  0  0  0  0  0  # atno 8008 bound_to 7997
  156.2840  140.2151  156.5551 H   0  0  0  0  0  0  0  0  0  0  0  0  # atno 8009 bound_to 7997
  154.7233  140.0487  157.0647 H   0  0  0  0  0  0  0  0  0  0  0  0  # atno 8010 bound_to 7997
  140.0240  143.5315  152.2207 H   0  0  0  0  0  0  0  0  0  0  0  0  # atno 10167 bound_to 10162
  156.6634  130.4988  149.6023 H   0  0  0  0  0  0  0  0  0  0  0  0  # atno 10718 bound_to 10713
  153.1124  135.4762  154.9057 H   0  0  0  0  0  0  0  0  0  0  0  0  # atno 10763 bound_to 10752
  154.7494  135.3102  154.8588 H   0  0  0  0  0  0  0  0  0  0  0  0  # atno 10764 bound_to 10752
  153.9173  135.6858  153.4802 H   0  0  0  0  0  0  0  0  0  0  0  0  # atno 10765 bound_to 10752
  139.9045  134.8113  156.2252 H   0  0  0  0  0  0  0  0  0  0  0  0  # atno 11005 bound_to 11000
  144.9690  139.3899  143.6318 LP  0  0  0  0  0  0  0  0  0  0  0  0  # atno 17320 bound_to 7965
  146.3356  139.8779  142.8829 LP  0  0  0  0  0  0  0  0  0  0  0  0  # atno 17321 bound_to 7965
  139.6120  144.7611  151.2930 LP  0  0  0  0  0  0  0  0  0  0  0  0  # atno 17342 bound_to 10162
  140.7330  143.6807  150.8004 LP  0  0  0  0  0  0  0  0  0  0  0  0  # atno 17343 bound_to 10162
  156.1993  130.6610  151.1150 LP  0  0  0  0  0  0  0  0  0  0  0  0  # atno 17370 bound_to 10713
  157.7102  131.0738  150.6528 LP  0  0  0  0  0  0  0  0  0  0  0  0  # atno 17371 bound_to 10713
  141.0380  133.6953  156.1548 LP  0  0  0  0  0  0  0  0  0  0  0  0  # atno 17394 bound_to 11000
  140.6997  134.4577  157.5586 LP  0  0  0  0  0  0  0  0  0  0  0  0  # atno 17395 bound_to 11000

$$$$
