AV-unprocessed.smi:3143|AV-procd|sdf|11974|dock1
  -GOLD-   2272017373D 1   1.00000     0.00000
 Structure written by MMmdl.
 38 39  0  0  0  0  0  0  0  0  2 V2000
  150.9586  140.3140  156.4793 C   0  0  0  0  0  0  0  0  0  0  0  0
  150.3409  141.6652  156.0857 C   0  0  2  0  0  0  0  0  0  0  0  0
  151.1435  142.7637  156.6720 N   0  3  0  0  0  0  0  0  0  0  0  0
  151.1632  142.8035  158.1496 C   0  0  0  0  0  0  0  0  0  0  0  0
  152.4442  143.4768  158.6639 C   0  0  0  0  0  0  0  0  0  0  0  0
  152.6832  143.1896  160.0657 N   0  0  0  0  0  0  0  0  0  0  0  0
  153.0013  141.9826  160.6523 C   0  0  0  0  0  0  0  0  0  0  0  0
  153.1177  142.2017  161.9951 C   0  0  0  0  0  0  0  0  0  0  0  0
  152.8417  143.5905  162.1365 C   0  0  0  0  0  0  0  0  0  0  0  0
  152.5785  144.1781  160.9801 N   0  0  0  0  0  0  0  0  0  0  0  0
  148.8716  141.7276  156.5498 C   0  0  0  0  0  0  0  0  0  0  0  0
  148.6219  141.5851  157.7478 O   0  0  0  0  0  0  0  0  0  0  0  0
  147.8961  141.9218  155.6362 N   0  0  0  0  0  0  0  0  0  0  0  0
  146.4781  142.0007  155.9847 C   0  0  0  0  0  0  0  0  0  0  0  0
  145.7656  142.4877  154.7232 C   0  0  0  0  0  0  0  0  0  0  0  0
  146.6758  142.0404  153.5887 C   0  0  0  0  0  0  0  0  0  0  0  0
  148.0787  142.0905  154.1941 C   0  0  0  0  0  0  0  0  0  0  0  0
  150.4027  139.4789  156.0514 H   0  0  0  0  0  0  0  0  0  0  0  0
  150.9740  140.1803  157.5619 H   0  0  0  0  0  0  0  0  0  0  0  0
  151.9858  140.2357  156.1225 H   0  0  0  0  0  0  0  0  0  0  0  0
  150.4049  141.7648  155.0021 H   0  0  0  0  0  0  0  0  0  0  0  0
  152.0911  142.6829  156.3303 H   0  0  0  0  0  0  0  0  0  0  0  0
  150.2884  143.3495  158.5052 H   0  0  0  0  0  0  0  0  0  0  0  0
  151.0909  141.7888  158.5429 H   0  0  0  0  0  0  0  0  0  0  0  0
  153.3099  143.1414  158.0910 H   0  0  0  0  0  0  0  0  0  0  0  0
  152.3797  144.5585  158.5385 H   0  0  0  0  0  0  0  0  0  0  0  0
  153.1182  141.0780  160.0735 H   0  0  0  0  0  0  0  0  0  0  0  0
  153.3601  141.4794  162.7606 H   0  0  0  0  0  0  0  0  0  0  0  0
  152.8235  144.1842  163.0386 H   0  0  0  0  0  0  0  0  0  0  0  0
  146.1252  141.0067  156.2631 H   0  0  0  0  0  0  0  0  0  0  0  0
  146.2966  142.6725  156.8251 H   0  0  0  0  0  0  0  0  0  0  0  0
  144.7513  142.0976  154.6324 H   0  0  0  0  0  0  0  0  0  0  0  0
  145.7053  143.5768  154.7347 H   0  0  0  0  0  0  0  0  0  0  0  0
  146.4335  141.0139  153.3101 H   0  0  0  0  0  0  0  0  0  0  0  0
  146.5774  142.6602  152.6970 H   0  0  0  0  0  0  0  0  0  0  0  0
  148.5366  143.0625  154.0048 H   0  0  0  0  0  0  0  0  0  0  0  0
  148.7170  141.3202  153.7603 H   0  0  0  0  0  0  0  0  0  0  0  0
  150.7575  143.6391  156.3490 H   0  0  0  0  0  0  0  0  0  0  0  0
  1  2  1  0  0  0  0
  1 18  1  0  0  0  0
  1 19  1  0  0  0  0
  1 20  1  0  0  0  0
  2  3  1  0  0  0  0
  2 11  1  0  0  0  0
  2 21  1  0  0  0  0
  3  4  1  0  0  0  0
  3 22  1  0  0  0  0
  3 38  1  0  0  0  0
  4  5  1  0  0  0  0
  4 23  1  0  0  0  0
  4 24  1  0  0  0  0
  5  6  1  0  0  0  0
  5 25  1  0  0  0  0
  5 26  1  0  0  0  0
  6 10  1  0  0  0  0
  6  7  1  0  0  0  0
  7  8  2  0  0  0  0
  7 27  1  0  0  0  0
  8  9  1  0  0  0  0
  8 28  1  0  0  0  0
  9 10  2  0  0  0  0
  9 29  1  0  0  0  0
 11 12  2  0  0  0  0
 11 13  1  0  0  0  0
 13 17  1  0  0  0  0
 13 14  1  0  0  0  0
 14 15  1  0  0  0  0
 14 30  1  0  0  0  0
 14 31  1  0  0  0  0
 15 16  1  0  0  0  0
 15 32  1  0  0  0  0
 15 33  1  0  0  0  0
 16 17  1  0  0  0  0
 16 34  1  0  0  0  0
 16 35  1  0  0  0  0
 17 36  1  0  0  0  0
 17 37  1  0  0  0  0
M  CHG  1   3   1
M  END
> <s_m_source_file>
AV-unprocessed.smi

> <i_m_source_file_index>
3143

> <i_lp_mmshare_version>
43012

> <i_f3d_flags>
0

> <s_epik_input>
W0NIMl0xW0NIMl1bQ0gyXVtDSDJdTjFDKD1PKVtDQEhdKFtDSDNdKVtOSF1bQ0gyXVtDSDJdbjJbY0hdW2NIXVtjSF1uMg==

> <s_epik_cmdline>
J2VwaWtfcHl0aG9uJywgJy1waCcsICc3LjAnLCAnLXRuJywgJzgnLCAnLW1hJywgJzIwMCcsICctbWV0YWxfYmluZGluZycsICctaW1hZScsICc8aW5maWxlLm1hZT4nLCAnLW9tYWUnLCAnPG91dGZpbGUubWFlPic=

> <r_lp_tautomer_probability>
1

> <r_epik_Ionization_Penalty>
0.203171

> <r_epik_Ionization_Penalty_Charging>
0.203168

> <r_epik_Ionization_Penalty_Neutral>
2.46932e-06

> <r_epik_State_Penalty>
0.193072

> <r_epik_Charging_Adjusted_Penalty>
0.39624

> <i_epik_Tot_Q>
1

> <i_epik_Tot_abs_Q>
1

> <r_epik_Metal_State_Penalty>
0.193323

> <b_epik_Metal_Only>
0

> <s_lp_Force_Field>
OPLS_2005

> <r_lp_Energy>
30.2015

> <b_lp_Chiralities_Consistent>
1

> <s_lp_Variant>
AV-unprocessed.smi:3143-1

> <Gold.Version>
5.8.1

> <Gold.Id.Protein>
6NUR|6NUR_protein|mol2

> <Gold.PLP.Fitness>
45.5141

> <Gold.PLP.PLP>
-40.0388

> <Gold.PLP.part.hbond>
-1.0000

> <Gold.PLP.part.metal>
0.0000

> <Gold.PLP.part.buried>
-4.2977

> <Gold.PLP.part.nonpolar>
-35.2812

> <Gold.PLP.part.repulsive>
0.2569

> <Gold.PLP.ligand.clash>
0.0000

> <Gold.PLP.ligand.torsion>
0.2941

> <Gold.PLP.Chemscore.Hbond>
2.0000

> <Gold.PLP.Chemscore.CHOScore>
0.0000

> <Gold.PLP.Chemscore.Metal>
0.0000

> <Gold.Chemscore.Hbonds>
donor molecule, donor type, donor heavy atom, donor atom, acceptor molecule, acceptor atom, score
      L1  H     3    38       P1  8028  0.81

> <Gold.PLP.Chemscore.Internal.Correction>
0.0636

> <Gold.Rescore>
     Score         DG    S(hbond)    S(metal)    S(lipo)     H(rot)  DE(clash)    DE(int)     intcor
     14.04     -14.95       1.00        0.00      92.70       1.84       0.08       0.83       ----

> <Gold.Chemscore.Fitness>
14.0360

> <Gold.Chemscore.DG>
-14.9528

> <Gold.Chemscore.ZeroCoef>
-5.4800

> <Gold.Chemscore.Hbond>
0.9997

> <Gold.Chemscore.Metal>
0.0000

> <Gold.Chemscore.Lipo>
92.6960

> <Gold.Chemscore.Internal_Hbond>
0.0000

> <Gold.Chemscore.DEClash>
0.0847

> <Gold.Chemscore.DEInternal>
0.8321

> <Gold.Chemscore.Rot>
1.8405

> <Gold.Chemscore.Internal.Correction>
   9.000000E+99

> <Gold.Chemscore.Hbonds>
donor molecule, donor type, donor heavy atom, donor atom, acceptor molecule, acceptor atom, score
      L1  H     3    38       P1  8028  0.40

> <Gold.Chemscore.Hbond.Weighted>
-3.3391

> <Gold.Chemscore.Metal.Weighted>
-0.0000

> <Gold.Chemscore.Lipo.Weighted>
-10.8454

> <Gold.Chemscore.Internal_Hbond.Weighted>
0.0000

> <Gold.Chemscore.DEClash.Weighted>
0.0847

> <Gold.Chemscore.DEInternal.Weighted>
0.8321

> <Gold.Chemscore.Rot.Weighted>
4.7117

> <Gold.Chemscore.Internal.Correction.Weighted>
   9.000000E+99

> <Gold.Protein.RotatedTorsions>
[ 6907 6896 6895 6894 ] final  -75.66 input  -60.11 | X-H torsion
[ 7974 7965 7964 7962 ] final   95.47 input  175.53 | X-H torsion
[ 8008 7997 7996 7995 ] final  -77.32 input   59.86 | X-H torsion
[ 10167 10162 10161 10158 ] final   16.04 input  -65.29 | X-H torsion
[ 10718 10713 10712 10709 ] final   50.87 input   66.30 | X-H torsion
[ 10763 10752 10751 10750 ] final   51.52 input  -60.55 | X-H torsion
[ 11005 11000 10999 10996 ] final  -16.07 input  -57.11 | X-H torsion

> <Gold.Protein.ActiveResidues>
 VAL166  LYS551  ARG553  GLY616  TRP617  ASP618  TYR619  PRO620  LYS621  CYS622 
 ASP623  PHE694  ASN695  SER759  ASP760  ASP761  ALA762  ILE779  LEU786  VAL792 
 PHE793  MET794  SER795  GLU796  ALA797  LYS798  CYS799  TRP800  GLU811  SER814 

> <Gold.Protein.RotatedAtoms>
  150.7052  134.4688  159.5415 H   0  0  0  0  0  0  0  0  0  0  0  0  # atno 6907 bound_to 6896
  152.2348  134.8284  160.0478 H   0  0  0  0  0  0  0  0  0  0  0  0  # atno 6908 bound_to 6896
  151.9086  133.3520  159.3892 H   0  0  0  0  0  0  0  0  0  0  0  0  # atno 6909 bound_to 6896
  145.4517  139.2293  143.3036 H   0  0  0  0  0  0  0  0  0  0  0  0  # atno 7974 bound_to 7965
  154.5585  140.0712  156.8782 H   0  0  0  0  0  0  0  0  0  0  0  0  # atno 8008 bound_to 7997
  155.2856  140.3374  155.4237 H   0  0  0  0  0  0  0  0  0  0  0  0  # atno 8009 bound_to 7997
  156.2022  140.1726  156.7860 H   0  0  0  0  0  0  0  0  0  0  0  0  # atno 8010 bound_to 7997
  140.5825  143.8953  150.6802 H   0  0  0  0  0  0  0  0  0  0  0  0  # atno 10167 bound_to 10162
  157.4926  130.8386  149.8221 H   0  0  0  0  0  0  0  0  0  0  0  0  # atno 10718 bound_to 10713
  152.9785  135.5843  154.4429 H   0  0  0  0  0  0  0  0  0  0  0  0  # atno 10763 bound_to 10752
  154.4028  135.2769  155.2088 H   0  0  0  0  0  0  0  0  0  0  0  0  # atno 10764 bound_to 10752
  154.3911  135.6125  153.5898 H   0  0  0  0  0  0  0  0  0  0  0  0  # atno 10765 bound_to 10752
  140.8031  133.8198  155.9489 H   0  0  0  0  0  0  0  0  0  0  0  0  # atno 11005 bound_to 11000
  146.2500  140.5277  142.8897 LP  0  0  0  0  0  0  0  0  0  0  0  0  # atno 17320 bound_to 7965
  144.8057  140.6295  143.6448 LP  0  0  0  0  0  0  0  0  0  0  0  0  # atno 17321 bound_to 7965
  140.2456  143.3631  152.1449 LP  0  0  0  0  0  0  0  0  0  0  0  0  # atno 17342 bound_to 10162
  139.5178  144.6997  151.5529 LP  0  0  0  0  0  0  0  0  0  0  0  0  # atno 17343 bound_to 10162
  156.0182  130.3805  150.2043 LP  0  0  0  0  0  0  0  0  0  0  0  0  # atno 17370 bound_to 10713
  157.0232  130.9985  151.3333 LP  0  0  0  0  0  0  0  0  0  0  0  0  # atno 17371 bound_to 10713
  140.9274  134.2065  157.4886 LP  0  0  0  0  0  0  0  0  0  0  0  0  # atno 17394 bound_to 11000
  139.8720  134.9818  156.5132 LP  0  0  0  0  0  0  0  0  0  0  0  0  # atno 17395 bound_to 11000

$$$$
