AV-unprocessed.smi:3173|AV-procd|sdf|12120|dock9
  -GOLD-   2272017563D 1   1.00000     0.00000
 Structure written by MMmdl.
 36 37  0  0  0  0  0  0  0  0  2 V2000
  140.6451  135.7042  154.4977 O   0  0  0  0  0  0  0  0  0  0  0  0
  141.2980  136.5097  153.8335 C   0  0  0  0  0  0  0  0  0  0  0  0
  140.8055  137.9499  153.6529 C   0  0  0  0  0  0  0  0  0  0  0  0
  139.3758  138.0457  153.0804 C   0  0  1  0  0  0  0  0  0  0  0  0
  138.4083  137.1510  153.8116 C   0  0  0  0  0  0  0  0  0  0  0  0
  137.3130  137.7936  154.2114 C   0  0  0  0  0  0  0  0  0  0  0  0
  137.3274  139.2476  153.8300 C   0  0  0  0  0  0  0  0  0  0  0  0
  138.7248  139.4500  153.2033 C   0  0  0  0  0  0  0  0  0  0  0  0
  142.4601  136.1987  153.2388 N   0  0  0  0  0  0  0  0  0  0  0  0
  143.0936  134.8858  153.2790 C   0  0  0  0  0  0  0  0  0  0  0  0
  142.4744  133.9238  152.2509 C   0  0  0  0  0  0  0  0  0  0  0  0
  143.5234  133.2723  151.3710 C   0  0  0  0  0  0  0  0  0  0  0  0
  144.6481  132.6112  151.9108 C   0  0  0  0  0  0  0  0  0  0  0  0
  145.5838  132.0184  151.0375 C   0  0  0  0  0  0  0  0  0  0  0  0
  145.3756  132.0987  149.6451 C   0  0  0  0  0  0  0  0  0  0  0  0
  144.2341  132.7695  149.1604 C   0  0  0  0  0  0  0  0  0  0  0  0
  143.3601  133.3240  150.0290 N   0  3  0  0  0  0  0  0  0  0  0  0
  140.8447  138.4401  154.6262 H   0  0  0  0  0  0  0  0  0  0  0  0
  141.4963  138.4934  153.0060 H   0  0  0  0  0  0  0  0  0  0  0  0
  139.3718  137.7275  152.0366 H   0  0  0  0  0  0  0  0  0  0  0  0
  138.6012  136.0993  153.9659 H   0  0  0  0  0  0  0  0  0  0  0  0
  136.4846  137.3442  154.7390 H   0  0  0  0  0  0  0  0  0  0  0  0
  136.5302  139.4502  153.1140 H   0  0  0  0  0  0  0  0  0  0  0  0
  137.1799  139.8790  154.7067 H   0  0  0  0  0  0  0  0  0  0  0  0
  139.3178  140.0965  153.8515 H   0  0  0  0  0  0  0  0  0  0  0  0
  138.6606  139.9444  152.2334 H   0  0  0  0  0  0  0  0  0  0  0  0
  142.9319  136.9208  152.7132 H   0  0  0  0  0  0  0  0  0  0  0  0
  144.1671  134.9870  153.1088 H   0  0  0  0  0  0  0  0  0  0  0  0
  142.9757  134.4837  154.2856 H   0  0  0  0  0  0  0  0  0  0  0  0
  141.9059  133.1452  152.7615 H   0  0  0  0  0  0  0  0  0  0  0  0
  141.7646  134.4545  151.6148 H   0  0  0  0  0  0  0  0  0  0  0  0
  144.7921  132.5563  152.9802 H   0  0  0  0  0  0  0  0  0  0  0  0
  146.4506  131.5079  151.4312 H   0  0  0  0  0  0  0  0  0  0  0  0
  146.0806  131.6512  148.9595 H   0  0  0  0  0  0  0  0  0  0  0  0
  143.9956  132.8779  148.1125 H   0  0  0  0  0  0  0  0  0  0  0  0
  142.5408  133.8037  149.6554 H   0  0  0  0  0  0  0  0  0  0  0  0
  1  2  2  0  0  0  0
  2  3  1  0  0  0  0
  2  9  1  0  0  0  0
  3  4  1  0  0  0  0
  3 18  1  0  0  0  0
  3 19  1  0  0  0  0
  4  8  1  0  0  0  0
  4  5  1  0  0  0  0
  4 20  1  0  0  0  0
  5  6  2  0  0  0  0
  5 21  1  0  0  0  0
  6  7  1  0  0  0  0
  6 22  1  0  0  0  0
  7  8  1  0  0  0  0
  7 23  1  0  0  0  0
  7 24  1  0  0  0  0
  8 25  1  0  0  0  0
  8 26  1  0  0  0  0
  9 10  1  0  0  0  0
  9 27  1  0  0  0  0
 10 11  1  0  0  0  0
 10 28  1  0  0  0  0
 10 29  1  0  0  0  0
 11 12  1  0  0  0  0
 11 30  1  0  0  0  0
 11 31  1  0  0  0  0
 12 17  1  0  0  0  0
 12 13  2  0  0  0  0
 13 14  1  0  0  0  0
 13 32  1  0  0  0  0
 14 15  2  0  0  0  0
 14 33  1  0  0  0  0
 15 16  1  0  0  0  0
 15 34  1  0  0  0  0
 16 17  2  0  0  0  0
 16 35  1  0  0  0  0
 17 36  1  0  0  0  0
M  CHG  1  17   1
M  END
> <s_m_source_file>
AV-unprocessed.smi

> <i_m_source_file_index>
3173

> <i_lp_mmshare_version>
43012

> <i_f3d_flags>
0

> <s_epik_input>
W0NIMl0xW0NIMl1bQ0hdPVtDSF1bQ0BIXTFbQ0gyXUMoPU8pW05IXVtDSDJdW0NIMl1jMltjSF1bY0hdW2NIXVtjSF1uMg==

> <s_epik_cmdline>
J2VwaWtfcHl0aG9uJywgJy1waCcsICc3LjAnLCAnLXRuJywgJzgnLCAnLW1hJywgJzIwMCcsICctbWV0YWxfYmluZGluZycsICctaW1hZScsICc8aW5maWxlLm1hZT4nLCAnLW9tYWUnLCAnPG91dGZpbGUubWFlPic=

> <r_epik_Ionization_Penalty>
1.86798

> <r_epik_Ionization_Penalty_Charging>
1.86798

> <r_epik_Ionization_Penalty_Neutral>
1.53848e-08

> <r_epik_State_Penalty>
1.98677

> <r_epik_Charging_Adjusted_Penalty>
3.85475

> <i_epik_Tot_Q>
1

> <i_epik_Tot_abs_Q>
1

> <r_epik_Metal_State_Penalty>
2.01174

> <b_epik_Metal_Only>
0

> <s_lp_Force_Field>
OPLS_2005

> <r_lp_Energy>
20.3145

> <b_lp_Chiralities_Consistent>
1

> <s_lp_Variant>
AV-unprocessed.smi:3173-4

> <Gold.Version>
5.8.1

> <Gold.Id.Protein>
6NUR|6NUR_protein|mol2

> <Gold.PLP.Fitness>
44.9529

> <Gold.PLP.PLP>
-37.7814

> <Gold.PLP.part.hbond>
-2.0000

> <Gold.PLP.part.metal>
0.0000

> <Gold.PLP.part.buried>
-4.9116

> <Gold.PLP.part.nonpolar>
-31.0520

> <Gold.PLP.part.repulsive>
0.1271

> <Gold.PLP.ligand.clash>
0.0000

> <Gold.PLP.ligand.torsion>
0.6818

> <Gold.PLP.Chemscore.Hbond>
2.8320

> <Gold.PLP.Chemscore.CHOScore>
0.0000

> <Gold.PLP.Chemscore.Metal>
0.0000

> <Gold.Chemscore.Hbonds>
donor molecule, donor type, donor heavy atom, donor atom, acceptor molecule, acceptor atom, score
      L1  H    17    36       P1 10186  2.00
      P1  H 11000 11005       L1     1  0.93

> <Gold.PLP.Chemscore.Internal.Correction>
0.0391

> <Gold.Rescore>
     Score         DG    S(hbond)    S(metal)    S(lipo)     H(rot)  DE(clash)    DE(int)     intcor
     17.50     -19.53       1.82        0.00     103.26       1.61       0.05       1.98       ----

> <Gold.Chemscore.Fitness>
17.5010

> <Gold.Chemscore.DG>
-19.5285

> <Gold.Chemscore.ZeroCoef>
-5.4800

> <Gold.Chemscore.Hbond>
1.8244

> <Gold.Chemscore.Metal>
0.0000

> <Gold.Chemscore.Lipo>
103.2646

> <Gold.Chemscore.Internal_Hbond>
0.0000

> <Gold.Chemscore.DEClash>
0.0497

> <Gold.Chemscore.DEInternal>
1.9779

> <Gold.Chemscore.Rot>
1.6122

> <Gold.Chemscore.Internal.Correction>
   9.000000E+99

> <Gold.Chemscore.Hbonds>
donor molecule, donor type, donor heavy atom, donor atom, acceptor molecule, acceptor atom, score
      L1  H    17    36       P1 10186  0.99
      P1  H 11000 11005       L1     1  0.91

> <Gold.Chemscore.Hbond.Weighted>
-6.0936

> <Gold.Chemscore.Metal.Weighted>
-0.0000

> <Gold.Chemscore.Lipo.Weighted>
-12.0820

> <Gold.Chemscore.Internal_Hbond.Weighted>
0.0000

> <Gold.Chemscore.DEClash.Weighted>
0.0497

> <Gold.Chemscore.DEInternal.Weighted>
1.9779

> <Gold.Chemscore.Rot.Weighted>
4.1271

> <Gold.Chemscore.Internal.Correction.Weighted>
   9.000000E+99

> <Gold.Protein.RotatedTorsions>
[ 6907 6896 6895 6894 ] final   31.90 input  -60.11 | X-H torsion
[ 7974 7965 7964 7962 ] final  -57.08 input  175.53 | X-H torsion
[ 8008 7997 7996 7995 ] final -178.95 input   59.86 | X-H torsion
[ 10167 10162 10161 10158 ] final   32.45 input  -65.29 | X-H torsion
[ 10718 10713 10712 10709 ] final    8.46 input   66.30 | X-H torsion
[ 10763 10752 10751 10750 ] final   -9.23 input  -60.55 | X-H torsion
[ 11005 11000 10999 10996 ] final   41.87 input  -57.11 | X-H torsion

> <Gold.Protein.ActiveResidues>
 VAL166  LYS551  ARG553  GLY616  TRP617  ASP618  TYR619  PRO620  LYS621  CYS622 
 ASP623  PHE694  ASN695  SER759  ASP760  ASP761  ALA762  ILE779  LEU786  VAL792 
 PHE793  MET794  SER795  GLU796  ALA797  LYS798  CYS799  TRP800  GLU811  SER814 

> <Gold.Protein.RotatedAtoms>
  152.0668  134.9559  160.0574 H   0  0  0  0  0  0  0  0  0  0  0  0  # atno 6907 bound_to 6896
  152.0901  133.4191  159.4548 H   0  0  0  0  0  0  0  0  0  0  0  0  # atno 6908 bound_to 6896
  150.6837  134.2802  159.4667 H   0  0  0  0  0  0  0  0  0  0  0  0  # atno 6909 bound_to 6896
  145.8552  140.8324  142.9965 H   0  0  0  0  0  0  0  0  0  0  0  0  # atno 7974 bound_to 7965
  156.0248  140.1269  157.0320 H   0  0  0  0  0  0  0  0  0  0  0  0  # atno 8008 bound_to 7997
  154.4326  140.1061  156.6085 H   0  0  0  0  0  0  0  0  0  0  0  0  # atno 8009 bound_to 7997
  155.5893  140.3469  155.4564 H   0  0  0  0  0  0  0  0  0  0  0  0  # atno 8010 bound_to 7997
  140.4497  144.1066  150.6189 H   0  0  0  0  0  0  0  0  0  0  0  0  # atno 10167 bound_to 10162
  156.9519  130.5900  149.5657 H   0  0  0  0  0  0  0  0  0  0  0  0  # atno 10718 bound_to 10713
  153.4518  135.7015  153.6104 H   0  0  0  0  0  0  0  0  0  0  0  0  # atno 10763 bound_to 10752
  153.4436  135.3774  155.2242 H   0  0  0  0  0  0  0  0  0  0  0  0  # atno 10764 bound_to 10752
  154.8728  135.3980  154.3931 H   0  0  0  0  0  0  0  0  0  0  0  0  # atno 10765 bound_to 10752
  140.1793  134.4124  155.8210 H   0  0  0  0  0  0  0  0  0  0  0  0  # atno 11005 bound_to 11000
  144.6728  140.1012  143.7460 LP  0  0  0  0  0  0  0  0  0  0  0  0  # atno 17320 bound_to 7965
  145.9312  139.2607  143.1324 LP  0  0  0  0  0  0  0  0  0  0  0  0  # atno 17321 bound_to 7965
  140.4222  143.2606  151.9701 LP  0  0  0  0  0  0  0  0  0  0  0  0  # atno 17342 bound_to 10162
  139.4795  144.5821  151.7915 LP  0  0  0  0  0  0  0  0  0  0  0  0  # atno 17343 bound_to 10162
  156.0359  130.5446  150.8652 LP  0  0  0  0  0  0  0  0  0  0  0  0  # atno 17370 bound_to 10713
  157.5716  131.0946  150.9409 LP  0  0  0  0  0  0  0  0  0  0  0  0  # atno 17371 bound_to 10713
  141.2222  133.6993  156.7902 LP  0  0  0  0  0  0  0  0  0  0  0  0  # atno 17394 bound_to 11000
  140.2286  134.8703  157.3453 LP  0  0  0  0  0  0  0  0  0  0  0  0  # atno 17395 bound_to 11000

$$$$
