AV-unprocessed.smi:1931|AV-procd|sdf|7812|dock1
  -GOLD-   22720 9553D 1   1.00000     0.00000
 Structure written by MMmdl.
 48 49  0  0  0  0  0  0  0  0  1 V2000
  144.2934  133.2405  151.3575 C   0  0  0  0  0  0  0  0  0  0  0  0
  145.0245  134.3278  150.8185 O   0  0  0  0  0  0  0  0  0  0  0  0
  145.6416  135.1190  151.8204 C   0  0  0  0  0  0  0  0  0  0  0  0
  144.8811  136.4422  151.9518 C   0  0  0  0  0  0  0  0  0  0  0  0
  145.5605  137.2817  152.8706 O   0  0  0  0  0  0  0  0  0  0  0  0
  146.5447  138.0890  152.2458 C   0  0  0  0  0  0  0  0  0  0  0  0
  147.1670  139.0014  153.2999 C   0  0  0  0  0  0  0  0  0  0  0  0
  146.4788  139.8774  153.8221 O   0  0  0  0  0  0  0  0  0  0  0  0
  148.4574  138.7537  153.5917 N   0  0  0  0  0  0  0  0  0  0  0  0
  149.3200  139.4259  154.5009 C   0  0  0  0  0  0  0  0  0  0  0  0
  150.6487  139.0334  154.7927 C   0  0  0  0  0  0  0  0  0  0  0  0
  151.3896  139.7799  155.7290 C   0  0  0  0  0  0  0  0  0  0  0  0
  150.7786  140.8918  156.3519 C   0  0  0  0  0  0  0  0  0  0  0  0
  151.4623  141.6770  157.2896 N   0  0  0  0  0  0  0  0  0  0  0  0
  150.7045  142.8278  157.7642 C   0  0  0  0  0  0  0  0  0  0  0  0
  151.5737  143.7122  158.6802 C   0  0  2  0  0  0  0  0  0  0  0  0
  152.6241  144.5406  157.9191 C   0  0  0  0  0  0  0  0  0  0  0  0
  152.1603  142.9184  159.7158 O   0  0  0  0  0  0  0  0  0  0  0  0
  152.9219  141.8000  159.2578 C   0  0  1  0  0  0  0  0  0  0  0  0
  153.4550  141.0540  160.4852 C   0  0  0  0  0  0  0  0  0  0  0  0
  152.0342  140.8998  158.3790 C   0  0  0  0  0  0  0  0  0  0  0  0
  149.5098  141.2670  156.0829 N   0  0  0  0  0  0  0  0  0  0  0  0
  148.8053  140.5472  155.1844 C   0  0  0  0  0  0  0  0  0  0  0  0
  143.8393  132.6685  150.5487 H   0  0  0  0  0  0  0  0  0  0  0  0
  143.4946  133.5885  152.0136 H   0  0  0  0  0  0  0  0  0  0  0  0
  144.9426  132.5690  151.9210 H   0  0  0  0  0  0  0  0  0  0  0  0
  145.6662  134.5938  152.7766 H   0  0  0  0  0  0  0  0  0  0  0  0
  146.6738  135.3221  151.5304 H   0  0  0  0  0  0  0  0  0  0  0  0
  144.8419  136.9389  150.9813 H   0  0  0  0  0  0  0  0  0  0  0  0
  143.8530  136.2595  152.2681 H   0  0  0  0  0  0  0  0  0  0  0  0
  147.3204  137.4703  151.7915 H   0  0  0  0  0  0  0  0  0  0  0  0
  146.0956  138.6927  151.4554 H   0  0  0  0  0  0  0  0  0  0  0  0
  148.8633  137.9554  153.1252 H   0  0  0  0  0  0  0  0  0  0  0  0
  151.1133  138.1757  154.3335 H   0  0  0  0  0  0  0  0  0  0  0  0
  152.4065  139.4986  155.9603 H   0  0  0  0  0  0  0  0  0  0  0  0
  150.3321  143.4065  156.9180 H   0  0  0  0  0  0  0  0  0  0  0  0
  149.8334  142.4816  158.3219 H   0  0  0  0  0  0  0  0  0  0  0  0
  150.9135  144.4224  159.1785 H   0  0  0  0  0  0  0  0  0  0  0  0
  152.1423  145.2273  157.2229 H   0  0  0  0  0  0  0  0  0  0  0  0
  153.3027  143.9166  157.3380 H   0  0  0  0  0  0  0  0  0  0  0  0
  153.2233  145.1360  158.6082 H   0  0  0  0  0  0  0  0  0  0  0  0
  153.7758  142.1501  158.6773 H   0  0  0  0  0  0  0  0  0  0  0  0
  154.0478  140.1878  160.1907 H   0  0  0  0  0  0  0  0  0  0  0  0
  152.6399  140.7022  161.1183 H   0  0  0  0  0  0  0  0  0  0  0  0
  154.0910  141.7021  161.0888 H   0  0  0  0  0  0  0  0  0  0  0  0
  151.2324  140.4648  158.9776 H   0  0  0  0  0  0  0  0  0  0  0  0
  152.6201  140.0732  157.9745 H   0  0  0  0  0  0  0  0  0  0  0  0
  147.7936  140.8807  155.0042 H   0  0  0  0  0  0  0  0  0  0  0  0
  1  2  1  0  0  0  0
  1 24  1  0  0  0  0
  1 25  1  0  0  0  0
  1 26  1  0  0  0  0
  2  3  1  0  0  0  0
  3  4  1  0  0  0  0
  3 27  1  0  0  0  0
  3 28  1  0  0  0  0
  4  5  1  0  0  0  0
  4 29  1  0  0  0  0
  4 30  1  0  0  0  0
  5  6  1  0  0  0  0
  6  7  1  0  0  0  0
  6 31  1  0  0  0  0
  6 32  1  0  0  0  0
  7  8  2  0  0  0  0
  7  9  1  0  0  0  0
  9 10  1  0  0  0  0
  9 33  1  0  0  0  0
 10 23  1  0  0  0  0
 10 11  2  0  0  0  0
 11 12  1  0  0  0  0
 11 34  1  0  0  0  0
 12 13  2  0  0  0  0
 12 35  1  0  0  0  0
 13 14  1  0  0  0  0
 13 22  1  0  0  0  0
 14 21  1  0  0  0  0
 14 15  1  0  0  0  0
 15 16  1  0  0  0  0
 15 36  1  0  0  0  0
 15 37  1  0  0  0  0
 16 17  1  0  0  0  0
 16 18  1  0  0  0  0
 16 38  1  0  0  0  0
 17 39  1  0  0  0  0
 17 40  1  0  0  0  0
 17 41  1  0  0  0  0
 18 19  1  0  0  0  0
 19 20  1  0  0  0  0
 19 21  1  0  0  0  0
 19 42  1  0  0  0  0
 20 43  1  0  0  0  0
 20 44  1  0  0  0  0
 20 45  1  0  0  0  0
 21 46  1  0  0  0  0
 21 47  1  0  0  0  0
 22 23  2  0  0  0  0
 23 48  1  0  0  0  0
M  END
> <s_m_source_file>
AV-unprocessed.smi

> <i_m_source_file_index>
1931

> <i_lp_mmshare_version>
43012

> <i_f3d_flags>
0

> <s_epik_input>
W0NIM11PW0NIMl1bQ0gyXU9bQ0gyXUMoPU8pW05IXWMxW2NIXVtjSF1jKG5bY0hdMSlOMltDSDJdW0NAQEhdKFtDSDNdKU9bQ0BASF0oW0NIM10pW0NIMl0y

> <s_epik_cmdline>
J2VwaWtfcHl0aG9uJywgJy1waCcsICc3LjAnLCAnLXRuJywgJzgnLCAnLW1hJywgJzIwMCcsICctbWV0YWxfYmluZGluZycsICctaW1hZScsICc8aW5maWxlLm1hZT4nLCAnLW9tYWUnLCAnPG91dGZpbGUubWFlPic=

> <r_lp_tautomer_probability>
1

> <r_epik_Ionization_Penalty>
0.000582342

> <r_epik_Ionization_Penalty_Charging>
0

> <r_epik_Ionization_Penalty_Neutral>
0.000582342

> <r_epik_State_Penalty>
0.00036524

> <r_epik_Charging_Adjusted_Penalty>
0.00036524

> <i_epik_Tot_Q>
0

> <i_epik_Tot_abs_Q>
0

> <r_epik_Metal_State_Penalty>
-0

> <b_epik_Metal_Only>
0

> <s_lp_Force_Field>
OPLS_2005

> <r_lp_Energy>
28.1169

> <b_lp_Chiralities_Consistent>
1

> <s_lp_Variant>
AV-unprocessed.smi:1931-2

> <Gold.Version>
5.8.1

> <Gold.Id.Protein>
6NUR|6NUR_protein|mol2

> <Gold.PLP.Fitness>
45.7497

> <Gold.PLP.PLP>
-44.0979

> <Gold.PLP.part.hbond>
-2.0000

> <Gold.PLP.part.metal>
0.0000

> <Gold.PLP.part.buried>
-2.5554

> <Gold.PLP.part.nonpolar>
-40.7012

> <Gold.PLP.part.repulsive>
1.3993

> <Gold.PLP.ligand.clash>
0.0000

> <Gold.PLP.ligand.torsion>
0.6222

> <Gold.PLP.Chemscore.Hbond>
0.8613

> <Gold.PLP.Chemscore.CHOScore>
0.0000

> <Gold.PLP.Chemscore.Metal>
0.0000

> <Gold.Chemscore.Hbonds>
donor molecule, donor type, donor heavy atom, donor atom, acceptor molecule, acceptor atom, score
      L1  H     9    33       P1  7948  0.78

> <Gold.PLP.Chemscore.Internal.Correction>
0.3125

> <Gold.Rescore>
     Score         DG    S(hbond)    S(metal)    S(lipo)     H(rot)  DE(clash)    DE(int)     intcor
     14.59     -16.89       0.97        0.00     112.03       1.93       0.35       1.95       ----

> <Gold.Chemscore.Fitness>
14.5945

> <Gold.Chemscore.DG>
-16.8875

> <Gold.Chemscore.ZeroCoef>
-5.4800

> <Gold.Chemscore.Hbond>
0.9742

> <Gold.Chemscore.Metal>
0.0000

> <Gold.Chemscore.Lipo>
112.0257

> <Gold.Chemscore.Internal_Hbond>
0.0000

> <Gold.Chemscore.DEClash>
0.3470

> <Gold.Chemscore.DEInternal>
1.9460

> <Gold.Chemscore.Rot>
1.9349

> <Gold.Chemscore.Internal.Correction>
   9.000000E+99

> <Gold.Chemscore.Hbonds>
donor molecule, donor type, donor heavy atom, donor atom, acceptor molecule, acceptor atom, score
      L1  H     9    33       P1  7948  0.78

> <Gold.Chemscore.Hbond.Weighted>
-3.2539

> <Gold.Chemscore.Metal.Weighted>
-0.0000

> <Gold.Chemscore.Lipo.Weighted>
-13.1070

> <Gold.Chemscore.Internal_Hbond.Weighted>
0.0000

> <Gold.Chemscore.DEClash.Weighted>
0.3470

> <Gold.Chemscore.DEInternal.Weighted>
1.9460

> <Gold.Chemscore.Rot.Weighted>
4.9534

> <Gold.Chemscore.Internal.Correction.Weighted>
   9.000000E+99

> <Gold.Protein.RotatedTorsions>
[ 6907 6896 6895 6894 ] final  -45.62 input  -60.11 | X-H torsion
[ 7974 7965 7964 7962 ] final   52.03 input  175.53 | X-H torsion
[ 8008 7997 7996 7995 ] final   40.38 input   59.86 | X-H torsion
[ 10167 10162 10161 10158 ] final -123.20 input  -65.29 | X-H torsion
[ 10718 10713 10712 10709 ] final -158.71 input   66.30 | X-H torsion
[ 10763 10752 10751 10750 ] final   16.11 input  -60.55 | X-H torsion
[ 11005 11000 10999 10996 ] final    3.79 input  -57.11 | X-H torsion

> <Gold.Protein.ActiveResidues>
 VAL166  LYS551  ARG553  GLY616  TRP617  ASP618  TYR619  PRO620  LYS621  CYS622 
 ASP623  PHE694  ASN695  SER759  ASP760  ASP761  ALA762  ILE779  LEU786  VAL792 
 PHE793  MET794  SER795  GLU796  ALA797  LYS798  CYS799  TRP800  GLU811  SER814 

> <Gold.Protein.RotatedAtoms>
  150.9199  134.8617  159.7481 H   0  0  0  0  0  0  0  0  0  0  0  0  # atno 6907 bound_to 6896
  152.4987  134.4233  159.9498 H   0  0  0  0  0  0  0  0  0  0  0  0  # atno 6908 bound_to 6896
  151.4268  133.3642  159.2798 H   0  0  0  0  0  0  0  0  0  0  0  0  # atno 6909 bound_to 6896
  145.9854  139.4285  143.0106 H   0  0  0  0  0  0  0  0  0  0  0  0  # atno 7974 bound_to 7965
  155.2521  140.3353  155.4281 H   0  0  0  0  0  0  0  0  0  0  0  0  # atno 8008 bound_to 7997
  156.2211  140.1809  156.7518 H   0  0  0  0  0  0  0  0  0  0  0  0  # atno 8009 bound_to 7997
  154.5827  140.0651  156.9111 H   0  0  0  0  0  0  0  0  0  0  0  0  # atno 8010 bound_to 7997
  140.0060  143.5491  152.2283 H   0  0  0  0  0  0  0  0  0  0  0  0  # atno 10167 bound_to 10162
  156.5579  130.8634  151.2800 H   0  0  0  0  0  0  0  0  0  0  0  0  # atno 10718 bound_to 10713
  153.1461  135.6769  153.8952 H   0  0  0  0  0  0  0  0  0  0  0  0  # atno 10763 bound_to 10752
  153.8393  135.3107  155.3426 H   0  0  0  0  0  0  0  0  0  0  0  0  # atno 10764 bound_to 10752
  154.7826  135.4880  153.9962 H   0  0  0  0  0  0  0  0  0  0  0  0  # atno 10765 bound_to 10752
  140.5892  133.9940  155.8081 H   0  0  0  0  0  0  0  0  0  0  0  0  # atno 11005 bound_to 11000
  145.7708  140.9897  143.1150 LP  0  0  0  0  0  0  0  0  0  0  0  0  # atno 17320 bound_to 7965
  144.6873  139.9444  143.7476 LP  0  0  0  0  0  0  0  0  0  0  0  0  # atno 17321 bound_to 7965
  139.6238  144.7634  151.2683 LP  0  0  0  0  0  0  0  0  0  0  0  0  # atno 17342 bound_to 10162
  140.7400  143.6601  150.8172 LP  0  0  0  0  0  0  0  0  0  0  0  0  # atno 17343 bound_to 10162
  157.7374  130.9796  150.2194 LP  0  0  0  0  0  0  0  0  0  0  0  0  # atno 17370 bound_to 10713
  156.2825  130.3735  149.7921 LP  0  0  0  0  0  0  0  0  0  0  0  0  # atno 17371 bound_to 10713
  141.0946  133.9864  157.3182 LP  0  0  0  0  0  0  0  0  0  0  0  0  # atno 17394 bound_to 11000
  139.9282  135.0201  156.8307 LP  0  0  0  0  0  0  0  0  0  0  0  0  # atno 17395 bound_to 11000

$$$$
