AV-unprocessed.smi:102|AV-procd|sdf|974|dock4
  -GOLD-   2262017533D 1   1.00000     0.00000
 Structure written by MMmdl.
 43 44  0  0  0  0  0  0  0  0  2 V2000
  147.5707  141.2660  154.6899 C   0  0  0  0  0  0  0  0  0  0  0  0
  149.0937  141.3033  154.6574 C   0  0  0  0  0  0  0  0  0  0  0  0
  149.7277  140.7979  153.7310 O   0  0  0  0  0  0  0  0  0  0  0  0
  149.6165  141.9269  155.7228 O   0  0  0  0  0  0  0  0  0  0  0  0
  150.8911  141.5400  156.2124 C   0  0  0  0  0  0  0  0  0  0  0  0
  150.8301  141.2491  157.7201 C   0  0  1  0  0  0  0  0  0  0  0  0
  150.0912  140.0482  157.9385 O   0  0  0  0  0  0  0  0  0  0  0  0
  150.8668  139.1460  158.6620 C   0  0  1  0  0  0  0  0  0  0  0  0
  150.5497  137.7481  158.1725 N   0  0  0  0  0  0  0  0  0  0  0  0
  150.7365  137.4194  156.8396 C   0  0  0  0  0  0  0  0  0  0  0  0
  150.3904  136.2096  156.3557 C   0  0  0  0  0  0  0  0  0  0  0  0
  150.5860  135.9277  155.0559 F   0  0  0  0  0  0  0  0  0  0  0  0
  149.7851  135.2229  157.2462 C   0  0  0  0  0  0  0  0  0  0  0  0
  149.4992  134.1094  156.8088 O   0  0  0  0  0  0  0  0  0  0  0  0
  149.5551  135.5913  158.5392 N   0  5  0  0  0  0  0  0  0  0  0  0
  149.8883  136.8219  159.0288 C   0  0  0  0  0  0  0  0  0  0  0  0
  149.6446  137.1618  160.1862 O   0  0  0  0  0  0  0  0  0  0  0  0
  152.3327  139.5462  158.4834 C   0  0  2  0  0  0  0  0  0  0  0  0
  153.1230  139.1025  159.5793 O   0  0  0  0  0  0  0  0  0  0  0  0
  154.4607  139.0578  159.4680 C   0  0  0  0  0  0  0  0  0  0  0  0
  155.1521  138.9500  160.8202 C   0  0  0  0  0  0  0  0  0  0  0  0
  155.1029  139.1040  158.4185 O   0  0  0  0  0  0  0  0  0  0  0  0
  152.2083  141.0611  158.3816 C   0  0  2  0  0  0  0  0  0  0  0  0
  152.2045  141.6520  159.6789 O   0  0  0  0  0  0  0  0  0  0  0  0
  152.2347  142.9886  159.8177 C   0  0  0  0  0  0  0  0  0  0  0  0
  152.3040  143.4177  161.2769 C   0  0  0  0  0  0  0  0  0  0  0  0
  152.2053  143.8139  158.9046 O   0  0  0  0  0  0  0  0  0  0  0  0
  147.1778  141.9535  155.4394 H   0  0  0  0  0  0  0  0  0  0  0  0
  147.2247  140.2607  154.9291 H   0  0  0  0  0  0  0  0  0  0  0  0
  147.1651  141.5497  153.7187 H   0  0  0  0  0  0  0  0  0  0  0  0
  151.2209  140.6479  155.6784 H   0  0  0  0  0  0  0  0  0  0  0  0
  151.6227  142.3251  156.0161 H   0  0  0  0  0  0  0  0  0  0  0  0
  150.2869  142.0668  158.1950 H   0  0  0  0  0  0  0  0  0  0  0  0
  150.5835  139.2144  159.7123 H   0  0  0  0  0  0  0  0  0  0  0  0
  151.1496  138.1407  156.1539 H   0  0  0  0  0  0  0  0  0  0  0  0
  152.7132  139.1557  157.5418 H   0  0  0  0  0  0  0  0  0  0  0  0
  154.6660  138.1939  161.4371 H   0  0  0  0  0  0  0  0  0  0  0  0
  155.1075  139.9055  161.3426 H   0  0  0  0  0  0  0  0  0  0  0  0
  156.1989  138.6722  160.6945 H   0  0  0  0  0  0  0  0  0  0  0  0
  153.0203  141.4719  157.7794 H   0  0  0  0  0  0  0  0  0  0  0  0
  153.1092  142.8907  161.7894 H   0  0  0  0  0  0  0  0  0  0  0  0
  151.3646  143.1915  161.7815 H   0  0  0  0  0  0  0  0  0  0  0  0
  152.4890  144.4893  161.3537 H   0  0  0  0  0  0  0  0  0  0  0  0
  1  2  1  0  0  0  0
  1 28  1  0  0  0  0
  1 29  1  0  0  0  0
  1 30  1  0  0  0  0
  2  3  2  0  0  0  0
  2  4  1  0  0  0  0
  4  5  1  0  0  0  0
  5  6  1  0  0  0  0
  5 31  1  0  0  0  0
  5 32  1  0  0  0  0
  6 23  1  0  0  0  0
  6  7  1  0  0  0  0
  6 33  1  0  0  0  0
  7  8  1  0  0  0  0
  8  9  1  0  0  0  0
  8 18  1  0  0  0  0
  8 34  1  0  0  0  0
  9 16  1  0  0  0  0
  9 10  1  0  0  0  0
 10 11  2  0  0  0  0
 10 35  1  0  0  0  0
 11 12  1  0  0  0  0
 11 13  1  0  0  0  0
 13 14  2  0  0  0  0
 13 15  1  0  0  0  0
 15 16  1  0  0  0  0
 16 17  2  0  0  0  0
 18 19  1  0  0  0  0
 18 23  1  0  0  0  0
 18 36  1  0  0  0  0
 19 20  1  0  0  0  0
 20 21  1  0  0  0  0
 20 22  2  0  0  0  0
 21 37  1  0  0  0  0
 21 38  1  0  0  0  0
 21 39  1  0  0  0  0
 23 24  1  0  0  0  0
 23 40  1  0  0  0  0
 24 25  1  0  0  0  0
 25 26  1  0  0  0  0
 25 27  2  0  0  0  0
 26 41  1  0  0  0  0
 26 42  1  0  0  0  0
 26 43  1  0  0  0  0
M  CHG  1  15  -1
M  END
> <s_m_source_file>
AV-unprocessed.smi

> <i_m_source_file_index>
102

> <i_lp_mmshare_version>
43012

> <i_f3d_flags>
0

> <s_epik_input>
W0NIM11DKD1PKU9bQ0gyXVtDQEBIXTFPW0NASF0oW0NAQEhdKE9DKD1PKVtDSDNdKVtDQEhdMU9DKD1PKVtDSDNdKW4yW2NIXWMoRiljKD1PKVtuSF1jMj1P

> <s_epik_cmdline>
J2VwaWtfcHl0aG9uJywgJy1waCcsICc3LjAnLCAnLXRuJywgJzgnLCAnLW1hJywgJzIwMCcsICctbWV0YWxfYmluZGluZycsICctaW1hZScsICc8aW5maWxlLm1hZT4nLCAnLW9tYWUnLCAnPG91dGZpbGUubWFlPic=

> <r_epik_Ionization_Penalty>
1.40304

> <r_epik_Ionization_Penalty_Charging>
1.43915e-08

> <r_epik_Ionization_Penalty_Neutral>
1.40304

> <r_epik_State_Penalty>
1.48536

> <r_epik_Charging_Adjusted_Penalty>
1.48536

> <i_epik_Tot_Q>
-1

> <i_epik_Tot_abs_Q>
1

> <r_epik_Metal_State_Penalty>
0.00663881

> <b_epik_Metal_Only>
0

> <s_epik_Chemistry_Notes>
This compound has an ester and may undergo hydrolysis at high or low pH. This compound contains an acetal/aminal-like group ( X-CH(R)-Y where X, Y are N, S, or O) that may be acid/base labile, releasing an aldehyde.

> <s_lp_Force_Field>
OPLS_2005

> <r_lp_Energy>
27.5776

> <b_lp_Chiralities_Consistent>
1

> <s_lp_Variant>
AV-unprocessed.smi:102-30

> <Gold.Version>
5.8.1

> <Gold.Id.Protein>
6NUR|6NUR_protein|mol2

> <Gold.PLP.Fitness>
46.6495

> <Gold.PLP.PLP>
-34.9268

> <Gold.PLP.part.hbond>
-4.7291

> <Gold.PLP.part.metal>
0.0000

> <Gold.PLP.part.buried>
-7.8923

> <Gold.PLP.part.nonpolar>
-26.9192

> <Gold.PLP.part.repulsive>
5.0962

> <Gold.PLP.ligand.clash>
0.0000

> <Gold.PLP.ligand.torsion>
1.3056

> <Gold.PLP.Chemscore.Hbond>
4.6996

> <Gold.PLP.Chemscore.CHOScore>
0.0000

> <Gold.PLP.Chemscore.Metal>
0.0000

> <Gold.Chemscore.Hbonds>
donor molecule, donor type, donor heavy atom, donor atom, acceptor molecule, acceptor atom, score
      P1  H  6896  6909       L1    15  2.00
      P1  H  6931  6943       L1    17  0.30
      P1  H  7989  7998       L1     3  0.45
      P1  H  7997  8010       L1    22  0.71
      P1  H  8011  8017       L1     3  0.73

> <Gold.PLP.Chemscore.Internal.Correction>
0.2350

> <Gold.Rescore>
     Score         DG    S(hbond)    S(metal)    S(lipo)     H(rot)  DE(clash)    DE(int)     intcor
      6.10      -8.99       2.20        0.00      54.59       4.00       1.54       1.35       ----

> <Gold.Chemscore.Fitness>
6.1019

> <Gold.Chemscore.DG>
-8.9902

> <Gold.Chemscore.ZeroCoef>
-5.4800

> <Gold.Chemscore.Hbond>
2.2009

> <Gold.Chemscore.Metal>
0.0000

> <Gold.Chemscore.Lipo>
54.5874

> <Gold.Chemscore.Internal_Hbond>
0.0000

> <Gold.Chemscore.DEClash>
1.5411

> <Gold.Chemscore.DEInternal>
1.3473

> <Gold.Chemscore.Rot>
3.9951

> <Gold.Chemscore.Internal.Correction>
   9.000000E+99

> <Gold.Chemscore.Hbonds>
donor molecule, donor type, donor heavy atom, donor atom, acceptor molecule, acceptor atom, score
      P1  H  6896  6909       L1    15  0.14
      P1  H  6931  6943       L1    17  0.30
      P1  H  7989  7998       L1     3  0.44
      P1  H  7997  8010       L1    22  0.71
      P1  H  8011  8017       L1     3  0.24

> <Gold.Chemscore.Hbond.Weighted>
-7.3509

> <Gold.Chemscore.Metal.Weighted>
-0.0000

> <Gold.Chemscore.Lipo.Weighted>
-6.3867

> <Gold.Chemscore.Internal_Hbond.Weighted>
0.0000

> <Gold.Chemscore.DEClash.Weighted>
1.5411

> <Gold.Chemscore.DEInternal.Weighted>
1.3473

> <Gold.Chemscore.Rot.Weighted>
10.2274

> <Gold.Chemscore.Internal.Correction.Weighted>
   9.000000E+99

> <Gold.Protein.RotatedTorsions>
[ 6907 6896 6895 6894 ] final   42.66 input  -60.11 | X-H torsion
[ 7974 7965 7964 7962 ] final  136.81 input  175.53 | X-H torsion
[ 8008 7997 7996 7995 ] final  -14.45 input   59.86 | X-H torsion
[ 10167 10162 10161 10158 ] final  135.04 input  -65.29 | X-H torsion
[ 10718 10713 10712 10709 ] final   -3.12 input   66.30 | X-H torsion
[ 10763 10752 10751 10750 ] final  -29.70 input  -60.55 | X-H torsion
[ 11005 11000 10999 10996 ] final -167.49 input  -57.11 | X-H torsion

> <Gold.Protein.ActiveResidues>
 VAL166  LYS551  ARG553  GLY616  TRP617  ASP618  TYR619  PRO620  LYS621  CYS622 
 ASP623  PHE694  ASN695  SER759  ASP760  ASP761  ALA762  ILE779  LEU786  VAL792 
 PHE793  MET794  SER795  GLU796  ALA797  LYS798  CYS799  TRP800  GLU811  SER814 

> <Gold.Protein.RotatedAtoms>
  152.2106  134.8504  160.0497 H   0  0  0  0  0  0  0  0  0  0  0  0  # atno 6907 bound_to 6896
  151.9324  133.3610  159.3944 H   0  0  0  0  0  0  0  0  0  0  0  0  # atno 6908 bound_to 6896
  150.6975  134.4448  159.5353 H   0  0  0  0  0  0  0  0  0  0  0  0  # atno 6909 bound_to 6896
  144.9529  139.4798  143.5517 H   0  0  0  0  0  0  0  0  0  0  0  0  # atno 7974 bound_to 7965
  154.5209  140.2223  155.8977 H   0  0  0  0  0  0  0  0  0  0  0  0  # atno 8008 bound_to 7997
  156.1661  140.3132  155.8856 H   0  0  0  0  0  0  0  0  0  0  0  0  # atno 8009 bound_to 7997
  155.3653  140.0463  157.3036 H   0  0  0  0  0  0  0  0  0  0  0  0  # atno 8010 bound_to 7997
  139.5232  144.6537  151.5227 H   0  0  0  0  0  0  0  0  0  0  0  0  # atno 10167 bound_to 10162
  156.7807  130.5330  149.5751 H   0  0  0  0  0  0  0  0  0  0  0  0  # atno 10718 bound_to 10713
  153.7689  135.6914  153.4910 H   0  0  0  0  0  0  0  0  0  0  0  0  # atno 10763 bound_to 10752
  153.1888  135.4479  155.0121 H   0  0  0  0  0  0  0  0  0  0  0  0  # atno 10764 bound_to 10752
  154.8125  135.3384  154.7200 H   0  0  0  0  0  0  0  0  0  0  0  0  # atno 10765 bound_to 10752
  140.5526  134.5412  157.5126 H   0  0  0  0  0  0  0  0  0  0  0  0  # atno 11005 bound_to 11000
  146.3327  139.8627  142.8853 LP  0  0  0  0  0  0  0  0  0  0  0  0  # atno 17320 bound_to 7965
  145.2816  141.0140  143.3714 LP  0  0  0  0  0  0  0  0  0  0  0  0  # atno 17321 bound_to 7965
  140.6353  143.8996  150.6641 LP  0  0  0  0  0  0  0  0  0  0  0  0  # atno 17342 bound_to 10162
  140.2314  143.3733  152.1563 LP  0  0  0  0  0  0  0  0  0  0  0  0  # atno 17343 bound_to 10162
  156.1220  130.6116  151.0207 LP  0  0  0  0  0  0  0  0  0  0  0  0  # atno 17370 bound_to 10713
  157.6647  131.0874  150.7755 LP  0  0  0  0  0  0  0  0  0  0  0  0  # atno 17371 bound_to 10713
  139.9447  134.7723  156.0591 LP  0  0  0  0  0  0  0  0  0  0  0  0  # atno 17394 bound_to 11000
  141.1162  133.6627  156.3100 LP  0  0  0  0  0  0  0  0  0  0  0  0  # atno 17395 bound_to 11000

$$$$
