AV-unprocessed.smi:641|AV-procd|sdf|3151|dock2
  -GOLD-   22720 0 73D 1   1.00000     0.00000
 Structure written by MMmdl.
 39 40  0  0  0  0  0  0  0  0  1 V2000
  144.9474  131.2997  150.9196 C   0  0  0  0  0  0  0  0  0  0  0  0
  144.6772  132.7353  151.2437 C   0  0  0  0  0  0  0  0  0  0  0  0
  143.4501  133.3287  151.4135 C   0  0  0  0  0  0  0  0  0  0  0  0
  143.5909  135.0270  151.7819 S   0  0  0  0  0  0  0  0  0  0  0  0
  145.3375  134.8623  151.6912 C   0  0  0  0  0  0  0  0  0  0  0  0
  146.2084  135.9627  151.9059 N   0  0  0  0  0  0  0  0  0  0  0  0
  145.8987  137.1904  152.3586 C   0  0  0  0  0  0  0  0  0  0  0  0
  144.7703  137.5677  152.6756 O   0  0  0  0  0  0  0  0  0  0  0  0
  146.9873  137.9709  152.4289 N   0  0  0  0  0  0  0  0  0  0  0  0
  147.0017  139.3654  152.8621 C   0  0  0  0  0  0  0  0  0  0  0  0
  147.9851  139.6117  154.0250 C   0  0  0  0  0  0  0  0  0  0  0  0
  148.4348  141.0803  154.1472 C   0  0  0  0  0  0  0  0  0  0  0  0
  149.4779  141.2557  155.2652 C   0  0  0  0  0  0  0  0  0  0  0  0
  150.6463  140.4085  155.0139 N   0  0  0  0  0  0  0  0  0  0  0  0
  151.6465  140.6100  156.0568 C   0  0  0  0  0  0  0  0  0  0  0  0
  151.1225  140.3335  157.4050 C   0  0  0  0  0  0  0  0  0  0  0  0
  150.7113  140.1162  158.4644 N   0  0  0  0  0  0  0  0  0  0  0  0
  150.2438  139.0021  155.0154 C   0  0  0  0  0  0  0  0  0  0  0  0
  149.2387  138.7327  153.8825 C   0  0  0  0  0  0  0  0  0  0  0  0
  145.7465  133.6208  151.4057 N   0  0  0  0  0  0  0  0  0  0  0  0
  144.0275  130.7631  150.6857 H   0  0  0  0  0  0  0  0  0  0  0  0
  145.4225  130.7909  151.7585 H   0  0  0  0  0  0  0  0  0  0  0  0
  145.6096  131.2079  150.0583 H   0  0  0  0  0  0  0  0  0  0  0  0
  142.4744  132.8709  151.3443 H   0  0  0  0  0  0  0  0  0  0  0  0
  147.1785  135.7972  151.6827 H   0  0  0  0  0  0  0  0  0  0  0  0
  147.8735  137.5744  152.1523 H   0  0  0  0  0  0  0  0  0  0  0  0
  147.2967  139.9674  152.0023 H   0  0  0  0  0  0  0  0  0  0  0  0
  145.9998  139.7023  153.1341 H   0  0  0  0  0  0  0  0  0  0  0  0
  147.4850  139.3331  154.9541 H   0  0  0  0  0  0  0  0  0  0  0  0
  148.8523  141.4232  153.1993 H   0  0  0  0  0  0  0  0  0  0  0  0
  147.5802  141.7230  154.3582 H   0  0  0  0  0  0  0  0  0  0  0  0
  149.7814  142.3020  155.3073 H   0  0  0  0  0  0  0  0  0  0  0  0
  149.0397  141.0115  156.2341 H   0  0  0  0  0  0  0  0  0  0  0  0
  152.5233  139.9841  155.8857 H   0  0  0  0  0  0  0  0  0  0  0  0
  151.9792  141.6486  156.0559 H   0  0  0  0  0  0  0  0  0  0  0  0
  151.1235  138.3734  154.8741 H   0  0  0  0  0  0  0  0  0  0  0  0
  149.8109  138.7351  155.9808 H   0  0  0  0  0  0  0  0  0  0  0  0
  148.9577  137.6792  153.8882 H   0  0  0  0  0  0  0  0  0  0  0  0
  149.7173  138.9188  152.9196 H   0  0  0  0  0  0  0  0  0  0  0  0
  1  2  1  0  0  0  0
  1 21  1  0  0  0  0
  1 22  1  0  0  0  0
  1 23  1  0  0  0  0
  2 20  1  0  0  0  0
  2  3  2  0  0  0  0
  3  4  1  0  0  0  0
  3 24  1  0  0  0  0
  4  5  1  0  0  0  0
  5  6  1  0  0  0  0
  5 20  2  0  0  0  0
  6  7  1  0  0  0  0
  6 25  1  0  0  0  0
  7  8  2  0  0  0  0
  7  9  1  0  0  0  0
  9 10  1  0  0  0  0
  9 26  1  0  0  0  0
 10 11  1  0  0  0  0
 10 27  1  0  0  0  0
 10 28  1  0  0  0  0
 11 19  1  0  0  0  0
 11 12  1  0  0  0  0
 11 29  1  0  0  0  0
 12 13  1  0  0  0  0
 12 30  1  0  0  0  0
 12 31  1  0  0  0  0
 13 14  1  0  0  0  0
 13 32  1  0  0  0  0
 13 33  1  0  0  0  0
 14 15  1  0  0  0  0
 14 18  1  0  0  0  0
 15 16  1  0  0  0  0
 15 34  1  0  0  0  0
 15 35  1  0  0  0  0
 16 17  3  0  0  0  0
 18 19  1  0  0  0  0
 18 36  1  0  0  0  0
 18 37  1  0  0  0  0
 19 38  1  0  0  0  0
 19 39  1  0  0  0  0
M  END
> <s_m_source_file>
AV-unprocessed.smi

> <i_m_source_file_index>
641

> <i_lp_mmshare_version>
43012

> <i_f3d_flags>
0

> <s_epik_input>
W0NIM11jMVtjSF1zYyhuMSlbTkhdQyg9TylbTkhdW0NIMl1bQ0hdMltDSDJdW0NIMl1OKFtDSDJdQyNOKVtDSDJdW0NIMl0y

> <s_epik_cmdline>
J2VwaWtfcHl0aG9uJywgJy1waCcsICc3LjAnLCAnLXRuJywgJzgnLCAnLW1hJywgJzIwMCcsICctbWV0YWxfYmluZGluZycsICctaW1hZScsICc8aW5maWxlLm1hZT4nLCAnLW9tYWUnLCAnPG91dGZpbGUubWFlPic=

> <r_lp_tautomer_probability>
0.999

> <r_epik_Ionization_Penalty>
0.00182121

> <r_epik_Ionization_Penalty_Charging>
0

> <r_epik_Ionization_Penalty_Neutral>
0.00182121

> <r_epik_State_Penalty>
0.000177984

> <r_epik_Charging_Adjusted_Penalty>
0.000177984

> <i_epik_Tot_Q>
0

> <i_epik_Tot_abs_Q>
0

> <r_epik_Metal_State_Penalty>
-0

> <b_epik_Metal_Only>
0

> <s_lp_Force_Field>
OPLS_2005

> <r_lp_Energy>
13.7532

> <b_lp_Chiralities_Consistent>
1

> <s_lp_Variant>
AV-unprocessed.smi:641-1

> <Gold.Version>
5.8.1

> <Gold.Id.Protein>
6NUR|6NUR_protein|mol2

> <Gold.PLP.Fitness>
43.1894

> <Gold.PLP.PLP>
-33.7042

> <Gold.PLP.part.hbond>
-3.0000

> <Gold.PLP.part.metal>
0.0000

> <Gold.PLP.part.buried>
-2.5138

> <Gold.PLP.part.nonpolar>
-28.9912

> <Gold.PLP.part.repulsive>
1.1138

> <Gold.PLP.ligand.clash>
0.0000

> <Gold.PLP.ligand.torsion>
0.2826

> <Gold.PLP.Chemscore.Hbond>
3.0000

> <Gold.PLP.Chemscore.CHOScore>
0.3460

> <Gold.PLP.Chemscore.Metal>
0.0000

> <Gold.Chemscore.Hbonds>
donor molecule, donor type, donor heavy atom, donor atom, acceptor molecule, acceptor atom, score
      L1  H     6    25       P1  7948  1.00
      L1  H     9    26       P1  7948  1.00
      P1  H  7989  7998       L1    14  1.00
      L1  C     3    24       P1 10186  0.21

> <Gold.PLP.Chemscore.Internal.Correction>
0.0123

> <Gold.Rescore>
     Score         DG    S(hbond)    S(metal)    S(lipo)     H(rot)  DE(clash)    DE(int)     intcor
     16.08     -17.81       2.26        0.00      76.22       1.62       0.31       1.42       ----

> <Gold.Chemscore.Fitness>
16.0772

> <Gold.Chemscore.DG>
-17.8083

> <Gold.Chemscore.ZeroCoef>
-5.4800

> <Gold.Chemscore.Hbond>
2.2643

> <Gold.Chemscore.Metal>
0.0000

> <Gold.Chemscore.Lipo>
76.2228

> <Gold.Chemscore.Internal_Hbond>
0.0000

> <Gold.Chemscore.DEClash>
0.3099

> <Gold.Chemscore.DEInternal>
1.4212

> <Gold.Chemscore.Rot>
1.6221

> <Gold.Chemscore.Internal.Correction>
   9.000000E+99

> <Gold.Chemscore.Hbonds>
donor molecule, donor type, donor heavy atom, donor atom, acceptor molecule, acceptor atom, score
      L1  H     6    25       P1  7948  0.96
      L1  H     9    26       P1  7948  0.98
      P1  H  7989  7998       L1    14  0.22

> <Gold.Chemscore.Hbond.Weighted>
-7.5627

> <Gold.Chemscore.Metal.Weighted>
-0.0000

> <Gold.Chemscore.Lipo.Weighted>
-8.9181

> <Gold.Chemscore.Internal_Hbond.Weighted>
0.0000

> <Gold.Chemscore.DEClash.Weighted>
0.3099

> <Gold.Chemscore.DEInternal.Weighted>
1.4212

> <Gold.Chemscore.Rot.Weighted>
4.1525

> <Gold.Chemscore.Internal.Correction.Weighted>
   9.000000E+99

> <Gold.Protein.RotatedTorsions>
[ 6907 6896 6895 6894 ] final   68.33 input  -60.11 | X-H torsion
[ 7974 7965 7964 7962 ] final -126.16 input  175.53 | X-H torsion
[ 8008 7997 7996 7995 ] final   86.53 input   59.86 | X-H torsion
[ 10167 10162 10161 10158 ] final   64.25 input  -65.29 | X-H torsion
[ 10718 10713 10712 10709 ] final  176.10 input   66.30 | X-H torsion
[ 10763 10752 10751 10750 ] final  -61.77 input  -60.55 | X-H torsion
[ 11005 11000 10999 10996 ] final   86.35 input  -57.11 | X-H torsion

> <Gold.Protein.ActiveResidues>
 VAL166  LYS551  ARG553  GLY616  TRP617  ASP618  TYR619  PRO620  LYS621  CYS622 
 ASP623  PHE694  ASN695  SER759  ASP760  ASP761  ALA762  ILE779  LEU786  VAL792 
 PHE793  MET794  SER795  GLU796  ALA797  LYS798  CYS799  TRP800  GLU811  SER814 

> <Gold.Protein.RotatedAtoms>
  152.4613  134.5178  159.9773 H   0  0  0  0  0  0  0  0  0  0  0  0  # atno 6907 bound_to 6896
  151.5226  133.3458  159.2912 H   0  0  0  0  0  0  0  0  0  0  0  0  # atno 6908 bound_to 6896
  150.8577  134.7950  159.7121 H   0  0  0  0  0  0  0  0  0  0  0  0  # atno 6909 bound_to 6896
  144.9901  140.7724  143.4559 H   0  0  0  0  0  0  0  0  0  0  0  0  # atno 7974 bound_to 7965
  155.9639  140.3391  155.6515 H   0  0  0  0  0  0  0  0  0  0  0  0  # atno 8008 bound_to 7997
  155.6763  140.0732  157.2520 H   0  0  0  0  0  0  0  0  0  0  0  0  # atno 8009 bound_to 7997
  154.4150  140.1682  156.1921 H   0  0  0  0  0  0  0  0  0  0  0  0  # atno 8010 bound_to 7997
  140.1242  144.4703  150.6902 H   0  0  0  0  0  0  0  0  0  0  0  0  # atno 10167 bound_to 10162
  156.9251  130.9953  151.2997 H   0  0  0  0  0  0  0  0  0  0  0  0  # atno 10718 bound_to 10713
  154.2896  135.6256  153.5380 H   0  0  0  0  0  0  0  0  0  0  0  0  # atno 10763 bound_to 10752
  152.9854  135.5652  154.5404 H   0  0  0  0  0  0  0  0  0  0  0  0  # atno 10764 bound_to 10752
  154.5012  135.2872  155.1395 H   0  0  0  0  0  0  0  0  0  0  0  0  # atno 10765 bound_to 10752
  139.8947  134.8349  156.2708 H   0  0  0  0  0  0  0  0  0  0  0  0  # atno 11005 bound_to 11000
  145.2298  139.2120  143.5049 LP  0  0  0  0  0  0  0  0  0  0  0  0  # atno 17320 bound_to 7965
  146.3429  140.2172  142.8591 LP  0  0  0  0  0  0  0  0  0  0  0  0  # atno 17321 bound_to 7965
  140.6854  143.2347  151.5273 LP  0  0  0  0  0  0  0  0  0  0  0  0  # atno 17342 bound_to 10162
  139.5553  144.2292  152.1601 LP  0  0  0  0  0  0  0  0  0  0  0  0  # atno 17343 bound_to 10162
  157.5883  130.8425  149.8621 LP  0  0  0  0  0  0  0  0  0  0  0  0  # atno 17370 bound_to 10713
  156.0473  130.3725  150.1287 LP  0  0  0  0  0  0  0  0  0  0  0  0  # atno 17371 bound_to 10713
  141.0102  133.7100  156.1099 LP  0  0  0  0  0  0  0  0  0  0  0  0  # atno 17394 bound_to 11000
  140.7378  134.4184  157.5558 LP  0  0  0  0  0  0  0  0  0  0  0  0  # atno 17395 bound_to 11000

$$$$
