AV-unprocessed.smi:102|AV-procd|sdf|971|dock6
  -GOLD-   2262017523D 1   1.00000     0.00000
 Structure written by MMmdl.
 43 44  0  0  0  0  0  0  0  0  2 V2000
  144.6798  135.4984  151.2856 C   0  0  0  0  0  0  0  0  0  0  0  0
  145.4986  134.5011  152.0949 C   0  0  0  0  0  0  0  0  0  0  0  0
  145.9060  133.4504  151.5989 O   0  0  0  0  0  0  0  0  0  0  0  0
  145.6995  134.9078  153.3571 O   0  0  0  0  0  0  0  0  0  0  0  0
  146.4977  134.1217  154.2265 C   0  0  0  0  0  0  0  0  0  0  0  0
  146.9262  134.9672  155.4335 C   0  0  2  0  0  0  0  0  0  0  0  0
  147.6346  136.1272  155.0271 O   0  0  0  0  0  0  0  0  0  0  0  0
  148.3273  136.6157  156.1306 C   0  0  2  0  0  0  0  0  0  0  0  0
  149.5870  137.2862  155.6272 N   0  0  0  0  0  0  0  0  0  0  0  0
  149.8558  138.6011  155.9705 C   0  0  0  0  0  0  0  0  0  0  0  0
  151.0042  139.2044  155.6038 C   0  0  0  0  0  0  0  0  0  0  0  0
  151.2302  140.4827  155.9526 F   0  0  0  0  0  0  0  0  0  0  0  0
  152.0030  138.4541  154.8465 C   0  0  0  0  0  0  0  0  0  0  0  0
  153.0354  139.0170  154.4850 O   0  0  0  0  0  0  0  0  0  0  0  0
  151.7437  137.1419  154.5786 N   0  5  0  0  0  0  0  0  0  0  0  0
  150.5889  136.5226  154.9638 C   0  0  0  0  0  0  0  0  0  0  0  0
  150.3753  135.3282  154.7571 O   0  0  0  0  0  0  0  0  0  0  0  0
  148.6078  135.4352  157.0829 C   0  0  1  0  0  0  0  0  0  0  0  0
  148.0302  135.6633  158.3617 O   0  0  0  0  0  0  0  0  0  0  0  0
  148.7622  136.2238  159.3403 C   0  0  0  0  0  0  0  0  0  0  0  0
  147.9541  136.4539  160.6102 C   0  0  0  0  0  0  0  0  0  0  0  0
  149.9505  136.5376  159.2684 O   0  0  0  0  0  0  0  0  0  0  0  0
  147.8950  134.2729  156.3982 C   0  0  2  0  0  0  0  0  0  0  0  0
  148.8309  133.4611  155.6958 O   0  0  0  0  0  0  0  0  0  0  0  0
  149.8581  132.8879  156.3463 C   0  0  0  0  0  0  0  0  0  0  0  0
  150.7193  132.0317  155.4276 C   0  0  0  0  0  0  0  0  0  0  0  0
  150.1200  133.0138  157.5426 O   0  0  0  0  0  0  0  0  0  0  0  0
  145.0762  136.5063  151.4109 H   0  0  0  0  0  0  0  0  0  0  0  0
  143.6407  135.4900  151.6152 H   0  0  0  0  0  0  0  0  0  0  0  0
  144.7083  135.2462  150.2253 H   0  0  0  0  0  0  0  0  0  0  0  0
  145.9093  133.2679  154.5651 H   0  0  0  0  0  0  0  0  0  0  0  0
  147.3713  133.7324  153.7015 H   0  0  0  0  0  0  0  0  0  0  0  0
  146.0461  135.2822  155.9974 H   0  0  0  0  0  0  0  0  0  0  0  0
  147.7219  137.3749  156.6263 H   0  0  0  0  0  0  0  0  0  0  0  0
  149.1442  139.1629  156.5556 H   0  0  0  0  0  0  0  0  0  0  0  0
  149.6748  135.2378  157.1869 H   0  0  0  0  0  0  0  0  0  0  0  0
  147.5404  135.5125  160.9719 H   0  0  0  0  0  0  0  0  0  0  0  0
  147.1324  137.1431  160.4154 H   0  0  0  0  0  0  0  0  0  0  0  0
  148.5834  136.8785  161.3927 H   0  0  0  0  0  0  0  0  0  0  0  0
  147.3408  133.6564  157.1082 H   0  0  0  0  0  0  0  0  0  0  0  0
  150.1282  131.2202  155.0027 H   0  0  0  0  0  0  0  0  0  0  0  0
  151.5557  131.5997  155.9775 H   0  0  0  0  0  0  0  0  0  0  0  0
  151.1170  132.6357  154.6118 H   0  0  0  0  0  0  0  0  0  0  0  0
  1  2  1  0  0  0  0
  1 28  1  0  0  0  0
  1 29  1  0  0  0  0
  1 30  1  0  0  0  0
  2  3  2  0  0  0  0
  2  4  1  0  0  0  0
  4  5  1  0  0  0  0
  5  6  1  0  0  0  0
  5 31  1  0  0  0  0
  5 32  1  0  0  0  0
  6 23  1  0  0  0  0
  6  7  1  0  0  0  0
  6 33  1  0  0  0  0
  7  8  1  0  0  0  0
  8  9  1  0  0  0  0
  8 18  1  0  0  0  0
  8 34  1  0  0  0  0
  9 16  1  0  0  0  0
  9 10  1  0  0  0  0
 10 11  2  0  0  0  0
 10 35  1  0  0  0  0
 11 12  1  0  0  0  0
 11 13  1  0  0  0  0
 13 14  2  0  0  0  0
 13 15  1  0  0  0  0
 15 16  1  0  0  0  0
 16 17  2  0  0  0  0
 18 19  1  0  0  0  0
 18 23  1  0  0  0  0
 18 36  1  0  0  0  0
 19 20  1  0  0  0  0
 20 21  1  0  0  0  0
 20 22  2  0  0  0  0
 21 37  1  0  0  0  0
 21 38  1  0  0  0  0
 21 39  1  0  0  0  0
 23 24  1  0  0  0  0
 23 40  1  0  0  0  0
 24 25  1  0  0  0  0
 25 26  1  0  0  0  0
 25 27  2  0  0  0  0
 26 41  1  0  0  0  0
 26 42  1  0  0  0  0
 26 43  1  0  0  0  0
M  CHG  1  15  -1
M  END
> <s_m_source_file>
AV-unprocessed.smi

> <i_m_source_file_index>
102

> <i_lp_mmshare_version>
43012

> <i_f3d_flags>
0

> <s_epik_input>
W0NIM11DKD1PKU9bQ0gyXVtDQEBIXTFPW0NASF0oW0NAQEhdKE9DKD1PKVtDSDNdKVtDQEhdMU9DKD1PKVtDSDNdKW4yW2NIXWMoRiljKD1PKVtuSF1jMj1P

> <s_epik_cmdline>
J2VwaWtfcHl0aG9uJywgJy1waCcsICc3LjAnLCAnLXRuJywgJzgnLCAnLW1hJywgJzIwMCcsICctbWV0YWxfYmluZGluZycsICctaW1hZScsICc8aW5maWxlLm1hZT4nLCAnLW9tYWUnLCAnPG91dGZpbGUubWFlPic=

> <r_epik_Ionization_Penalty>
1.40304

> <r_epik_Ionization_Penalty_Charging>
1.43915e-08

> <r_epik_Ionization_Penalty_Neutral>
1.40304

> <r_epik_State_Penalty>
1.48536

> <r_epik_Charging_Adjusted_Penalty>
1.48536

> <i_epik_Tot_Q>
-1

> <i_epik_Tot_abs_Q>
1

> <r_epik_Metal_State_Penalty>
0.00663881

> <b_epik_Metal_Only>
0

> <s_epik_Chemistry_Notes>
This compound has an ester and may undergo hydrolysis at high or low pH. This compound contains an acetal/aminal-like group ( X-CH(R)-Y where X, Y are N, S, or O) that may be acid/base labile, releasing an aldehyde.

> <s_lp_Force_Field>
OPLS_2005

> <r_lp_Energy>
22.9576

> <b_lp_Chiralities_Consistent>
1

> <s_lp_Variant>
AV-unprocessed.smi:102-27

> <Gold.Version>
5.8.1

> <Gold.Id.Protein>
6NUR|6NUR_protein|mol2

> <Gold.PLP.Fitness>
43.6248

> <Gold.PLP.PLP>
-30.4760

> <Gold.PLP.part.hbond>
-4.3677

> <Gold.PLP.part.metal>
0.0000

> <Gold.PLP.part.buried>
-7.3373

> <Gold.PLP.part.nonpolar>
-21.4651

> <Gold.PLP.part.repulsive>
0.6584

> <Gold.PLP.ligand.clash>
0.0000

> <Gold.PLP.ligand.torsion>
0.5308

> <Gold.PLP.Chemscore.Hbond>
4.6720

> <Gold.PLP.Chemscore.CHOScore>
0.0000

> <Gold.PLP.Chemscore.Metal>
0.0000

> <Gold.Chemscore.Hbonds>
donor molecule, donor type, donor heavy atom, donor atom, acceptor molecule, acceptor atom, score
      P1  H  6896  6907       L1    27  1.00
      P1  H  6896  6908       L1    22  1.00
      P1  H  7997  8009       L1    14  0.29
      P1  H 10752 10764       L1    15  2.00

> <Gold.PLP.Chemscore.Internal.Correction>
0.1944

> <Gold.Rescore>
     Score         DG    S(hbond)    S(metal)    S(lipo)     H(rot)  DE(clash)    DE(int)     intcor
      5.44      -9.33       3.01        0.00      34.22       4.00       0.01       3.87       ----

> <Gold.Chemscore.Fitness>
5.4427

> <Gold.Chemscore.DG>
-9.3251

> <Gold.Chemscore.ZeroCoef>
-5.4800

> <Gold.Chemscore.Hbond>
3.0146

> <Gold.Chemscore.Metal>
0.0000

> <Gold.Chemscore.Lipo>
34.2199

> <Gold.Chemscore.Internal_Hbond>
0.0000

> <Gold.Chemscore.DEClash>
0.0145

> <Gold.Chemscore.DEInternal>
3.8679

> <Gold.Chemscore.Rot>
3.9951

> <Gold.Chemscore.Internal.Correction>
   9.000000E+99

> <Gold.Chemscore.Hbonds>
donor molecule, donor type, donor heavy atom, donor atom, acceptor molecule, acceptor atom, score
      P1  H  6896  6907       L1    27  0.94
      P1  H  6896  6908       L1    22  0.78
      P1  H  7997  8009       L1    14  0.29
      P1  H 10752 10764       L1    15  0.38

> <Gold.Chemscore.Hbond.Weighted>
-10.0688

> <Gold.Chemscore.Metal.Weighted>
-0.0000

> <Gold.Chemscore.Lipo.Weighted>
-4.0037

> <Gold.Chemscore.Internal_Hbond.Weighted>
0.0000

> <Gold.Chemscore.DEClash.Weighted>
0.0145

> <Gold.Chemscore.DEInternal.Weighted>
3.8679

> <Gold.Chemscore.Rot.Weighted>
10.2274

> <Gold.Chemscore.Internal.Correction.Weighted>
   9.000000E+99

> <Gold.Protein.RotatedTorsions>
[ 6907 6896 6895 6894 ] final -149.01 input  -60.11 | X-H torsion
[ 7974 7965 7964 7962 ] final   28.10 input  175.53 | X-H torsion
[ 8008 7997 7996 7995 ] final -136.42 input   59.86 | X-H torsion
[ 10167 10162 10161 10158 ] final   62.79 input  -65.29 | X-H torsion
[ 10718 10713 10712 10709 ] final   -8.28 input   66.30 | X-H torsion
[ 10763 10752 10751 10750 ] final  -77.55 input  -60.55 | X-H torsion
[ 11005 11000 10999 10996 ] final   32.01 input  -57.11 | X-H torsion

> <Gold.Protein.ActiveResidues>
 VAL166  LYS551  ARG553  GLY616  TRP617  ASP618  TYR619  PRO620  LYS621  CYS622 
 ASP623  PHE694  ASN695  SER759  ASP760  ASP761  ALA762  ILE779  LEU786  VAL792 
 PHE793  MET794  SER795  GLU796  ALA797  LYS798  CYS799  TRP800  GLU811  SER814 

> <Gold.Protein.RotatedAtoms>
  151.1780  133.4742  159.2593 H   0  0  0  0  0  0  0  0  0  0  0  0  # atno 6907 bound_to 6896
  151.1288  135.0119  159.8583 H   0  0  0  0  0  0  0  0  0  0  0  0  # atno 6908 bound_to 6896
  152.5459  134.1685  159.8640 H   0  0  0  0  0  0  0  0  0  0  0  0  # atno 6909 bound_to 6896
  146.1747  139.7101  142.8942 H   0  0  0  0  0  0  0  0  0  0  0  0  # atno 7974 bound_to 7965
  155.3949  140.0502  157.3039 H   0  0  0  0  0  0  0  0  0  0  0  0  # atno 8008 bound_to 7997
  154.5018  140.2159  155.9291 H   0  0  0  0  0  0  0  0  0  0  0  0  # atno 8009 bound_to 7997
  156.1477  140.3142  155.8602 H   0  0  0  0  0  0  0  0  0  0  0  0  # atno 8010 bound_to 7997
  140.1401  144.4561  150.6816 H   0  0  0  0  0  0  0  0  0  0  0  0  # atno 10167 bound_to 10162
  156.7050  130.5104  149.5907 H   0  0  0  0  0  0  0  0  0  0  0  0  # atno 10718 bound_to 10713
  154.5144  135.5760  153.6630 H   0  0  0  0  0  0  0  0  0  0  0  0  # atno 10763 bound_to 10752
  152.9904  135.6166  154.2837 H   0  0  0  0  0  0  0  0  0  0  0  0  # atno 10764 bound_to 10752
  154.2753  135.2852  155.2700 H   0  0  0  0  0  0  0  0  0  0  0  0  # atno 10765 bound_to 10752
  140.2779  134.3006  155.7809 H   0  0  0  0  0  0  0  0  0  0  0  0  # atno 11005 bound_to 11000
  145.4243  141.0409  143.2946 LP  0  0  0  0  0  0  0  0  0  0  0  0  # atno 17320 bound_to 7965
  144.8218  139.5778  143.6983 LP  0  0  0  0  0  0  0  0  0  0  0  0  # atno 17321 bound_to 7965
  140.6765  143.2307  151.5493 LP  0  0  0  0  0  0  0  0  0  0  0  0  # atno 17342 bound_to 10162
  139.5476  144.2480  152.1471 LP  0  0  0  0  0  0  0  0  0  0  0  0  # atno 17343 bound_to 10162
  156.1702  130.6432  151.0827 LP  0  0  0  0  0  0  0  0  0  0  0  0  # atno 17370 bound_to 10713
  157.6958  131.0794  150.6972 LP  0  0  0  0  0  0  0  0  0  0  0  0  # atno 17371 bound_to 10713
  141.2167  133.7507  156.9435 LP  0  0  0  0  0  0  0  0  0  0  0  0  # atno 17394 bound_to 11000
  140.1311  134.9355  157.2338 LP  0  0  0  0  0  0  0  0  0  0  0  0  # atno 17395 bound_to 11000

$$$$
