AV-unprocessed.smi:1648|AV-procd|sdf|6634|dock2
  -GOLD-   22720 7333D 1   1.00000     0.00000
 Structure written by MMmdl.
 41 41  0  0  0  0  0  0  0  0  1 V2000
  145.9101  144.3572  158.9645 C   0  0  0  0  0  0  0  0  0  0  0  0
  147.1803  143.6618  159.4579 C   0  0  0  0  0  0  0  0  0  0  0  0
  147.1184  142.9111  160.4285 O   0  0  0  0  0  0  0  0  0  0  0  0
  148.3410  143.8753  158.8140 N   0  0  0  0  0  0  0  0  0  0  0  0
  149.6524  143.3052  159.1328 C   0  0  1  0  0  0  0  0  0  0  0  0
  149.8916  142.1190  158.1810 C   0  0  0  0  0  0  0  0  0  0  0  0
  150.4841  141.1133  158.5753 O   0  0  0  0  0  0  0  0  0  0  0  0
  149.4214  142.2555  156.9308 N   0  0  0  0  0  0  0  0  0  0  0  0
  149.5526  141.2720  155.8569 C   0  0  1  0  0  0  0  0  0  0  0  0
  148.8937  141.8319  154.5893 C   0  0  0  0  0  0  0  0  0  0  0  0
  151.0353  140.9178  155.6107 C   0  0  0  0  0  0  0  0  0  0  0  0
  151.2314  139.5217  155.2624 N   0  0  0  0  0  0  0  0  0  0  0  0
  150.6101  138.8174  154.2390 C   0  0  0  0  0  0  0  0  0  0  0  0
  151.0964  137.5308  154.2954 C   0  0  0  0  0  0  0  0  0  0  0  0
  152.0257  137.4256  155.3276 N   0  0  0  0  0  0  0  0  0  0  0  0
  152.0580  138.6448  155.8488 C   0  0  0  0  0  0  0  0  0  0  0  0
  150.7429  144.3939  158.9081 C   0  0  0  0  0  0  0  0  0  0  0  0
  152.1249  143.7984  158.5661 C   0  0  0  0  0  0  0  0  0  0  0  0
  150.8832  145.3243  160.1289 C   0  0  0  0  0  0  0  0  0  0  0  0
  146.0596  145.4319  158.8664 H   0  0  0  0  0  0  0  0  0  0  0  0
  145.0894  144.1976  159.6644 H   0  0  0  0  0  0  0  0  0  0  0  0
  145.6098  143.9576  157.9956 H   0  0  0  0  0  0  0  0  0  0  0  0
  148.3055  144.4654  157.9953 H   0  0  0  0  0  0  0  0  0  0  0  0
  149.6900  142.9734  160.1720 H   0  0  0  0  0  0  0  0  0  0  0  0
  148.9449  143.1153  156.7001 H   0  0  0  0  0  0  0  0  0  0  0  0
  149.0127  140.3610  156.1213 H   0  0  0  0  0  0  0  0  0  0  0  0
  148.9469  141.1144  153.7701 H   0  0  0  0  0  0  0  0  0  0  0  0
  149.3806  142.7503  154.2595 H   0  0  0  0  0  0  0  0  0  0  0  0
  147.8402  142.0558  154.7611 H   0  0  0  0  0  0  0  0  0  0  0  0
  151.4336  141.5206  154.7935 H   0  0  0  0  0  0  0  0  0  0  0  0
  151.6362  141.1510  156.4912 H   0  0  0  0  0  0  0  0  0  0  0  0
  149.8849  139.2741  153.5820 H   0  0  0  0  0  0  0  0  0  0  0  0
  150.8537  136.6806  153.6754 H   0  0  0  0  0  0  0  0  0  0  0  0
  152.6949  138.9032  156.6817 H   0  0  0  0  0  0  0  0  0  0  0  0
  150.4432  145.0202  158.0657 H   0  0  0  0  0  0  0  0  0  0  0  0
  152.4662  143.1197  159.3482 H   0  0  0  0  0  0  0  0  0  0  0  0
  152.8744  144.5833  158.4609 H   0  0  0  0  0  0  0  0  0  0  0  0
  152.1151  143.2465  157.6260 H   0  0  0  0  0  0  0  0  0  0  0  0
  151.1534  144.7630  161.0238 H   0  0  0  0  0  0  0  0  0  0  0  0
  149.9593  145.8629  160.3401 H   0  0  0  0  0  0  0  0  0  0  0  0
  151.6561  146.0754  159.9635 H   0  0  0  0  0  0  0  0  0  0  0  0
  1  2  1  0  0  0  0
  1 20  1  0  0  0  0
  1 21  1  0  0  0  0
  1 22  1  0  0  0  0
  2  3  2  0  0  0  0
  2  4  1  0  0  0  0
  4  5  1  0  0  0  0
  4 23  1  0  0  0  0
  5  6  1  0  0  0  0
  5 17  1  0  0  0  0
  5 24  1  0  0  0  0
  6  7  2  0  0  0  0
  6  8  1  0  0  0  0
  8  9  1  0  0  0  0
  8 25  1  0  0  0  0
  9 10  1  0  0  0  0
  9 11  1  0  0  0  0
  9 26  1  0  0  0  0
 10 27  1  0  0  0  0
 10 28  1  0  0  0  0
 10 29  1  0  0  0  0
 11 12  1  0  0  0  0
 11 30  1  0  0  0  0
 11 31  1  0  0  0  0
 12 16  1  0  0  0  0
 12 13  1  0  0  0  0
 13 14  2  0  0  0  0
 13 32  1  0  0  0  0
 14 15  1  0  0  0  0
 14 33  1  0  0  0  0
 15 16  2  0  0  0  0
 16 34  1  0  0  0  0
 17 18  1  0  0  0  0
 17 19  1  0  0  0  0
 17 35  1  0  0  0  0
 18 36  1  0  0  0  0
 18 37  1  0  0  0  0
 18 38  1  0  0  0  0
 19 39  1  0  0  0  0
 19 40  1  0  0  0  0
 19 41  1  0  0  0  0
M  END
> <s_m_source_file>
AV-unprocessed.smi

> <i_m_source_file_index>
1648

> <i_lp_mmshare_version>
43012

> <i_f3d_flags>
0

> <s_epik_input>
W0NIM11DKD1PKVtOSF1bQ0BASF0oW0NIXShbQ0gzXSlbQ0gzXSlDKD1PKVtOSF1bQ0BIXShbQ0gzXSlbQ0gyXW4xW2NIXVtjSF1uW2NIXTE=

> <s_epik_cmdline>
J2VwaWtfcHl0aG9uJywgJy1waCcsICc3LjAnLCAnLXRuJywgJzgnLCAnLW1hJywgJzIwMCcsICctbWV0YWxfYmluZGluZycsICctaW1hZScsICc8aW5maWxlLm1hZT4nLCAnLW9tYWUnLCAnPG91dGZpbGUubWFlPic=

> <r_lp_tautomer_probability>
1

> <r_epik_Ionization_Penalty>
0.628885

> <r_epik_Ionization_Penalty_Charging>
0.628884

> <r_epik_Ionization_Penalty_Neutral>
4.35155e-07

> <r_epik_State_Penalty>
0.64556

> <r_epik_Charging_Adjusted_Penalty>
1.27444

> <i_epik_Tot_Q>
0

> <i_epik_Tot_abs_Q>
0

> <r_epik_Metal_State_Penalty>
0.30874

> <b_epik_Metal_Only>
0

> <s_lp_Force_Field>
OPLS_2005

> <r_lp_Energy>
9.11872

> <b_lp_Chiralities_Consistent>
1

> <s_lp_Variant>
AV-unprocessed.smi:1648-8

> <Gold.Version>
5.8.1

> <Gold.Id.Protein>
6NUR|6NUR_protein|mol2

> <Gold.PLP.Fitness>
47.9244

> <Gold.PLP.PLP>
-33.4783

> <Gold.PLP.part.hbond>
-5.1219

> <Gold.PLP.part.metal>
0.0000

> <Gold.PLP.part.buried>
2.5348

> <Gold.PLP.part.nonpolar>
-31.0773

> <Gold.PLP.part.repulsive>
0.1890

> <Gold.PLP.ligand.clash>
0.0000

> <Gold.PLP.ligand.torsion>
1.9986

> <Gold.PLP.Chemscore.Hbond>
4.1798

> <Gold.PLP.Chemscore.CHOScore>
1.9221

> <Gold.PLP.Chemscore.Metal>
0.0000

> <Gold.Chemscore.Hbonds>
donor molecule, donor type, donor heavy atom, donor atom, acceptor molecule, acceptor atom, score
      L1  H     4    23       P1  8029  0.95
      L1  H     8    25       P1  8028  0.99
      P1  H  6933  6944       L1     3  0.96
      P1  H  6934  6946       L1     3  0.70
      P1  H 10752 10765       L1    15  0.55
      L1  C    13    32       P1  7957  0.95
      L1  C    14    33       P1  7948  0.14
      L1  C    14    33       P1  7949  0.85

> <Gold.PLP.Chemscore.Internal.Correction>
0.1376

> <Gold.Rescore>
     Score         DG    S(hbond)    S(metal)    S(lipo)     H(rot)  DE(clash)    DE(int)     intcor
     14.19     -18.06       3.04        0.00      75.75       2.52       0.48       3.38       ----

> <Gold.Chemscore.Fitness>
14.1939

> <Gold.Chemscore.DG>
-18.0579

> <Gold.Chemscore.ZeroCoef>
-5.4800

> <Gold.Chemscore.Hbond>
3.0449

> <Gold.Chemscore.Metal>
0.0000

> <Gold.Chemscore.Lipo>
75.7544

> <Gold.Chemscore.Internal_Hbond>
0.0000

> <Gold.Chemscore.DEClash>
0.4794

> <Gold.Chemscore.DEInternal>
3.3846

> <Gold.Chemscore.Rot>
2.5216

> <Gold.Chemscore.Internal.Correction>
   9.000000E+99

> <Gold.Chemscore.Hbonds>
donor molecule, donor type, donor heavy atom, donor atom, acceptor molecule, acceptor atom, score
      L1  H     4    23       P1  8029  0.20
      L1  H     8    25       P1  8028  0.88
      P1  H  6933  6944       L1     3  0.92
      P1  H  6934  6946       L1     3  0.66
      P1  H 10752 10765       L1    15  0.13

> <Gold.Chemscore.Hbond.Weighted>
-10.1699

> <Gold.Chemscore.Metal.Weighted>
-0.0000

> <Gold.Chemscore.Lipo.Weighted>
-8.8633

> <Gold.Chemscore.Internal_Hbond.Weighted>
0.0000

> <Gold.Chemscore.DEClash.Weighted>
0.4794

> <Gold.Chemscore.DEInternal.Weighted>
3.3846

> <Gold.Chemscore.Rot.Weighted>
6.4553

> <Gold.Chemscore.Internal.Correction.Weighted>
   9.000000E+99

> <Gold.Protein.RotatedTorsions>
[ 6907 6896 6895 6894 ] final  -81.84 input  -60.11 | X-H torsion
[ 7974 7965 7964 7962 ] final   38.60 input  175.53 | X-H torsion
[ 8008 7997 7996 7995 ] final   62.34 input   59.86 | X-H torsion
[ 10167 10162 10161 10158 ] final   95.01 input  -65.29 | X-H torsion
[ 10718 10713 10712 10709 ] final   14.80 input   66.30 | X-H torsion
[ 10763 10752 10751 10750 ] final -171.54 input  -60.55 | X-H torsion
[ 11005 11000 10999 10996 ] final  -12.03 input  -57.11 | X-H torsion

> <Gold.Protein.ActiveResidues>
 VAL166  LYS551  ARG553  GLY616  TRP617  ASP618  TYR619  PRO620  LYS621  CYS622 
 ASP623  PHE694  ASN695  SER759  ASP760  ASP761  ALA762  ILE779  LEU786  VAL792 
 PHE793  MET794  SER795  GLU796  ALA797  LYS798  CYS799  TRP800  GLU811  SER814 

> <Gold.Protein.RotatedAtoms>
  150.6906  134.3756  159.5010 H   0  0  0  0  0  0  0  0  0  0  0  0  # atno 6907 bound_to 6896
  152.1565  134.8943  160.0553 H   0  0  0  0  0  0  0  0  0  0  0  0  # atno 6908 bound_to 6896
  152.0021  133.3794  159.4223 H   0  0  0  0  0  0  0  0  0  0  0  0  # atno 6909 bound_to 6896
  146.1049  139.5752  142.9390 H   0  0  0  0  0  0  0  0  0  0  0  0  # atno 7974 bound_to 7965
  155.6128  140.3495  155.4628 H   0  0  0  0  0  0  0  0  0  0  0  0  # atno 8008 bound_to 7997
  156.0140  140.1239  157.0449 H   0  0  0  0  0  0  0  0  0  0  0  0  # atno 8009 bound_to 7997
  154.4291  140.1076  156.5856 H   0  0  0  0  0  0  0  0  0  0  0  0  # atno 8010 bound_to 7997
  139.8029  144.6806  150.9741 H   0  0  0  0  0  0  0  0  0  0  0  0  # atno 10167 bound_to 10162
  157.0443  130.6244  149.5756 H   0  0  0  0  0  0  0  0  0  0  0  0  # atno 10718 bound_to 10713
  154.6293  135.2884  155.0235 H   0  0  0  0  0  0  0  0  0  0  0  0  # atno 10763 bound_to 10752
  154.1401  135.6520  153.4944 H   0  0  0  0  0  0  0  0  0  0  0  0  # atno 10764 bound_to 10752
  153.0272  135.5331  154.7114 H   0  0  0  0  0  0  0  0  0  0  0  0  # atno 10765 bound_to 10752
  140.7615  133.8511  155.9128 H   0  0  0  0  0  0  0  0  0  0  0  0  # atno 11005 bound_to 11000
  145.5780  141.0386  143.2137 LP  0  0  0  0  0  0  0  0  0  0  0  0  # atno 17320 bound_to 7965
  144.7463  139.7312  143.7291 LP  0  0  0  0  0  0  0  0  0  0  0  0  # atno 17321 bound_to 7965
  140.7820  143.4263  151.0763 LP  0  0  0  0  0  0  0  0  0  0  0  0  # atno 17342 bound_to 10162
  139.7934  143.8186  152.3154 LP  0  0  0  0  0  0  0  0  0  0  0  0  # atno 17343 bound_to 10162
  156.0028  130.5110  150.7723 LP  0  0  0  0  0  0  0  0  0  0  0  0  # atno 17370 bound_to 10713
  157.5080  131.0923  151.0233 LP  0  0  0  0  0  0  0  0  0  0  0  0  # atno 17371 bound_to 10713
  140.9659  134.1595  157.4616 LP  0  0  0  0  0  0  0  0  0  0  0  0  # atno 17394 bound_to 11000
  139.8770  134.9961  156.5779 LP  0  0  0  0  0  0  0  0  0  0  0  0  # atno 17395 bound_to 11000

$$$$
