AV-unprocessed.smi:955|AV-procd|sdf|4260|dock1
  -GOLD-   22720 2173D 1   1.00000     0.00000
 Structure written by MMmdl.
 29 29  0  0  0  0  0  0  0  0  1 V2000
  153.1345  138.7534  154.6664 C   0  0  0  0  0  0  0  0  0  0  0  0
  152.0361  138.1527  155.5592 C   0  0  1  0  0  0  0  0  0  0  0  0
  151.2604  139.2547  156.1236 N   0  0  0  0  0  0  0  0  0  0  0  0
  151.6919  140.1041  157.0705 C   0  0  0  0  0  0  0  0  0  0  0  0
  152.8363  140.0781  157.5256 O   0  0  0  0  0  0  0  0  0  0  0  0
  150.6636  141.1257  157.5803 C   0  0  2  0  0  0  0  0  0  0  0  0
  149.7130  141.6247  156.4725 C   0  0  0  0  0  0  0  0  0  0  0  0
  151.3454  142.2207  158.2620 N   0  0  0  0  0  0  0  0  0  0  0  0
  151.2933  143.5675  157.9640 C   0  0  0  0  0  0  0  0  0  0  0  0
  152.0424  144.2252  158.8969 C   0  0  0  0  0  0  0  0  0  0  0  0
  152.5102  143.1857  159.7474 C   0  0  0  0  0  0  0  0  0  0  0  0
  152.0866  141.9905  159.3712 N   0  0  0  0  0  0  0  0  0  0  0  0
  151.1365  137.2712  154.6771 C   0  0  0  0  0  0  0  0  0  0  0  0
  150.4061  137.8938  153.7492 N   0  0  0  0  0  0  0  0  0  0  0  0
  151.0876  136.0520  154.8373 O   0  0  0  0  0  0  0  0  0  0  0  0
  153.7504  137.9731  154.2171 H   0  0  0  0  0  0  0  0  0  0  0  0
  153.7989  139.3950  155.2462 H   0  0  0  0  0  0  0  0  0  0  0  0
  152.7183  139.3564  153.8576 H   0  0  0  0  0  0  0  0  0  0  0  0
  152.4910  137.5597  156.3552 H   0  0  0  0  0  0  0  0  0  0  0  0
  150.3054  139.3433  155.8087 H   0  0  0  0  0  0  0  0  0  0  0  0
  150.0480  140.6189  158.3253 H   0  0  0  0  0  0  0  0  0  0  0  0
  149.1713  140.7949  156.0177 H   0  0  0  0  0  0  0  0  0  0  0  0
  150.2459  142.1461  155.6762 H   0  0  0  0  0  0  0  0  0  0  0  0
  148.9719  142.3137  156.8788 H   0  0  0  0  0  0  0  0  0  0  0  0
  150.7305  143.9428  157.1222 H   0  0  0  0  0  0  0  0  0  0  0  0
  152.2228  145.2875  158.9656 H   0  0  0  0  0  0  0  0  0  0  0  0
  153.1363  143.2641  160.6237 H   0  0  0  0  0  0  0  0  0  0  0  0
  149.7905  137.3623  153.1509 H   0  0  0  0  0  0  0  0  0  0  0  0
  150.4646  138.8975  153.6569 H   0  0  0  0  0  0  0  0  0  0  0  0
  1  2  1  0  0  0  0
  1 16  1  0  0  0  0
  1 17  1  0  0  0  0
  1 18  1  0  0  0  0
  2  3  1  0  0  0  0
  2 13  1  0  0  0  0
  2 19  1  0  0  0  0
  3  4  1  0  0  0  0
  3 20  1  0  0  0  0
  4  5  2  0  0  0  0
  4  6  1  0  0  0  0
  6  7  1  0  0  0  0
  6  8  1  0  0  0  0
  6 21  1  0  0  0  0
  7 22  1  0  0  0  0
  7 23  1  0  0  0  0
  7 24  1  0  0  0  0
  8 12  1  0  0  0  0
  8  9  1  0  0  0  0
  9 10  2  0  0  0  0
  9 25  1  0  0  0  0
 10 11  1  0  0  0  0
 10 26  1  0  0  0  0
 11 12  2  0  0  0  0
 11 27  1  0  0  0  0
 13 14  1  0  0  0  0
 13 15  2  0  0  0  0
 14 28  1  0  0  0  0
 14 29  1  0  0  0  0
M  END
> <s_m_source_file>
AV-unprocessed.smi

> <i_m_source_file_index>
955

> <i_lp_mmshare_version>
43012

> <i_f3d_flags>
0

> <s_epik_input>
W05IMl1DKD1PKVtDQEhdKFtDSDNdKVtOSF1DKD1PKVtDQEhdKFtDSDNdKW4xW2NIXVtjSF1bY0hdbjE=

> <s_epik_cmdline>
J2VwaWtfcHl0aG9uJywgJy1waCcsICc3LjAnLCAnLXRuJywgJzgnLCAnLW1hJywgJzIwMCcsICctbWV0YWxfYmluZGluZycsICctaW1hZScsICc8aW5maWxlLm1hZT4nLCAnLW9tYWUnLCAnPG91dGZpbGUubWFlPic=

> <r_lp_tautomer_probability>
1

> <r_epik_Ionization_Penalty>
2.8146e-05

> <r_epik_Ionization_Penalty_Charging>
0

> <r_epik_Ionization_Penalty_Neutral>
2.8146e-05

> <r_epik_State_Penalty>
-0

> <r_epik_Charging_Adjusted_Penalty>
0

> <i_epik_Tot_Q>
0

> <i_epik_Tot_abs_Q>
0

> <r_epik_Metal_State_Penalty>
-0

> <b_epik_Metal_Only>
0

> <s_lp_Force_Field>
OPLS_2005

> <r_lp_Energy>
4.43248

> <b_lp_Chiralities_Consistent>
1

> <s_lp_Variant>
AV-unprocessed.smi:955-2

> <Gold.Version>
5.8.1

> <Gold.Id.Protein>
6NUR|6NUR_protein|mol2

> <Gold.PLP.Fitness>
41.4707

> <Gold.PLP.PLP>
-31.0626

> <Gold.PLP.part.hbond>
-3.9354

> <Gold.PLP.part.metal>
0.0000

> <Gold.PLP.part.buried>
-2.9536

> <Gold.PLP.part.nonpolar>
-25.1461

> <Gold.PLP.part.repulsive>
0.3257

> <Gold.PLP.ligand.clash>
0.0000

> <Gold.PLP.ligand.torsion>
0.8512

> <Gold.PLP.Chemscore.Hbond>
3.0000

> <Gold.PLP.Chemscore.CHOScore>
1.0000

> <Gold.PLP.Chemscore.Metal>
0.0000

> <Gold.Chemscore.Hbonds>
donor molecule, donor type, donor heavy atom, donor atom, acceptor molecule, acceptor atom, score
      L1  H    14    28       P1  7948  1.00
      P1  H  7997  8008       L1     5  1.00
      P1  H 10752 10764       L1    15  1.00
      L1  C     9    25       P1  8028  1.00

> <Gold.PLP.Chemscore.Internal.Correction>
0.1105

> <Gold.Rescore>
     Score         DG    S(hbond)    S(metal)    S(lipo)     H(rot)  DE(clash)    DE(int)     intcor
     13.21     -15.88       2.76        0.00      60.47       2.30       0.13       2.55       ----

> <Gold.Chemscore.Fitness>
13.2053

> <Gold.Chemscore.DG>
-15.8842

> <Gold.Chemscore.ZeroCoef>
-5.4800

> <Gold.Chemscore.Hbond>
2.7576

> <Gold.Chemscore.Metal>
0.0000

> <Gold.Chemscore.Lipo>
60.4679

> <Gold.Chemscore.Internal_Hbond>
0.0000

> <Gold.Chemscore.DEClash>
0.1288

> <Gold.Chemscore.DEInternal>
2.5501

> <Gold.Chemscore.Rot>
2.2972

> <Gold.Chemscore.Internal.Correction>
   9.000000E+99

> <Gold.Chemscore.Hbonds>
donor molecule, donor type, donor heavy atom, donor atom, acceptor molecule, acceptor atom, score
      L1  H    14    28       P1  7948  0.50
      P1  H  7997  8008       L1     5  0.96
      P1  H 10752 10764       L1    15  0.39

> <Gold.Chemscore.Hbond.Weighted>
-9.2104

> <Gold.Chemscore.Metal.Weighted>
-0.0000

> <Gold.Chemscore.Lipo.Weighted>
-7.0747

> <Gold.Chemscore.Internal_Hbond.Weighted>
0.0000

> <Gold.Chemscore.DEClash.Weighted>
0.1288

> <Gold.Chemscore.DEInternal.Weighted>
2.5501

> <Gold.Chemscore.Rot.Weighted>
5.8809

> <Gold.Chemscore.Internal.Correction.Weighted>
   9.000000E+99

> <Gold.Protein.RotatedTorsions>
[ 6907 6896 6895 6894 ] final   70.86 input  -60.11 | X-H torsion
[ 7974 7965 7964 7962 ] final  176.51 input  175.53 | X-H torsion
[ 8008 7997 7996 7995 ] final  -61.43 input   59.86 | X-H torsion
[ 10167 10162 10161 10158 ] final  170.54 input  -65.29 | X-H torsion
[ 10718 10713 10712 10709 ] final -157.24 input   66.30 | X-H torsion
[ 10763 10752 10751 10750 ] final  -48.79 input  -60.55 | X-H torsion
[ 11005 11000 10999 10996 ] final   25.39 input  -57.11 | X-H torsion

> <Gold.Protein.ActiveResidues>
 VAL166  LYS551  ARG553  GLY616  TRP617  ASP618  TYR619  PRO620  LYS621  CYS622 
 ASP623  PHE694  ASN695  SER759  ASP760  ASP761  ALA762  ILE779  LEU786  VAL792 
 PHE793  MET794  SER795  GLU796  ALA797  LYS798  CYS799  TRP800  GLU811  SER814 

> <Gold.Protein.RotatedAtoms>
  152.4775  134.4805  159.9663 H   0  0  0  0  0  0  0  0  0  0  0  0  # atno 6907 bound_to 6896
  151.4818  133.3538  159.2847 H   0  0  0  0  0  0  0  0  0  0  0  0  # atno 6908 bound_to 6896
  150.8824  134.8243  159.7296 H   0  0  0  0  0  0  0  0  0  0  0  0  # atno 6909 bound_to 6896
  144.7183  140.0107  143.6440 H   0  0  0  0  0  0  0  0  0  0  0  0  # atno 7974 bound_to 7965
  154.4447  140.1018  156.6430 H   0  0  0  0  0  0  0  0  0  0  0  0  # atno 8008 bound_to 7997
  155.5481  140.3485  155.4443 H   0  0  0  0  0  0  0  0  0  0  0  0  # atno 8009 bound_to 7997
  156.0549  140.1312  156.9997 H   0  0  0  0  0  0  0  0  0  0  0  0  # atno 8010 bound_to 7997
  139.5021  144.3585  151.9849 H   0  0  0  0  0  0  0  0  0  0  0  0  # atno 10167 bound_to 10162
  156.5376  130.8549  151.2738 H   0  0  0  0  0  0  0  0  0  0  0  0  # atno 10718 bound_to 10713
  154.0835  135.6587  153.4841 H   0  0  0  0  0  0  0  0  0  0  0  0  # atno 10763 bound_to 10752
  153.0347  135.5185  154.7450 H   0  0  0  0  0  0  0  0  0  0  0  0  # atno 10764 bound_to 10752
  154.6552  135.3007  154.9904 H   0  0  0  0  0  0  0  0  0  0  0  0  # atno 10765 bound_to 10752
  140.3484  134.2256  155.7682 H   0  0  0  0  0  0  0  0  0  0  0  0  # atno 11005 bound_to 11000
  146.0260  139.3293  143.0784 LP  0  0  0  0  0  0  0  0  0  0  0  0  # atno 17320 bound_to 7965
  145.8510  140.9528  143.0749 LP  0  0  0  0  0  0  0  0  0  0  0  0  # atno 17321 bound_to 7965
  140.3021  144.3634  150.6057 LP  0  0  0  0  0  0  0  0  0  0  0  0  # atno 17342 bound_to 10162
  140.5865  143.2170  151.7333 LP  0  0  0  0  0  0  0  0  0  0  0  0  # atno 17343 bound_to 10162
  157.7411  130.9863  150.2422 LP  0  0  0  0  0  0  0  0  0  0  0  0  # atno 17370 bound_to 10713
  156.3001  130.3757  149.7758 LP  0  0  0  0  0  0  0  0  0  0  0  0  # atno 17371 bound_to 10713
  141.2019  133.7951  157.0417 LP  0  0  0  0  0  0  0  0  0  0  0  0  # atno 17394 bound_to 11000
  140.0723  134.9695  157.1488 LP  0  0  0  0  0  0  0  0  0  0  0  0  # atno 17395 bound_to 11000

$$$$
