AV-unprocessed.smi:1003|AV-procd|sdf|4360|dock1
  -GOLD-   22720 2263D 1   1.00000     0.00000
 Structure written by MMmdl.
 43 44  0  0  0  0  0  0  0  0  1 V2000
  153.0273  135.8137  164.4172 C   0  0  0  0  0  0  0  0  0  0  0  0
  153.8287  135.5098  163.1464 C   0  0  0  0  0  0  0  0  0  0  0  0
  153.6831  136.5867  162.1118 C   0  0  0  0  0  0  0  0  0  0  0  0
  153.2080  136.2544  160.8395 N   0  0  0  0  0  0  0  0  0  0  0  0
  153.1277  137.3099  160.0271 C   0  0  0  0  0  0  0  0  0  0  0  0
  152.6804  137.2256  158.6070 C   0  0  0  0  0  0  0  0  0  0  0  0
  151.2531  137.7606  158.4101 C   0  0  0  0  0  0  0  0  0  0  0  0
  151.1537  139.1695  158.7718 N   0  0  0  0  0  0  0  0  0  0  0  0
  152.0322  140.1196  158.4159 C   0  0  0  0  0  0  0  0  0  0  0  0
  153.0304  139.8918  157.7313 O   0  0  0  0  0  0  0  0  0  0  0  0
  151.7412  141.5427  158.9114 C   0  0  0  0  0  0  0  0  0  0  0  0
  151.5773  142.5190  157.7266 C   0  0  0  0  0  0  0  0  0  0  0  0
  151.3018  143.9507  158.2149 C   0  0  0  0  0  0  0  0  0  0  0  0
  152.4045  144.4350  159.1697 C   0  0  0  0  0  0  0  0  0  0  0  0
  152.5816  143.4666  160.3498 C   0  0  0  0  0  0  0  0  0  0  0  0
  152.8558  142.0354  159.8594 C   0  0  0  0  0  0  0  0  0  0  0  0
  153.6720  138.8027  160.7783 S   0  0  0  0  0  0  0  0  0  0  0  0
  153.9866  137.9213  162.2510 C   0  0  0  0  0  0  0  0  0  0  0  0
  154.5229  138.6186  163.4569 C   0  0  0  0  0  0  0  0  0  0  0  0
  153.1481  135.0183  165.1527 H   0  0  0  0  0  0  0  0  0  0  0  0
  151.9633  135.9060  164.1975 H   0  0  0  0  0  0  0  0  0  0  0  0
  153.3573  136.7456  164.8773 H   0  0  0  0  0  0  0  0  0  0  0  0
  154.8797  135.3855  163.4090 H   0  0  0  0  0  0  0  0  0  0  0  0
  153.5101  134.5489  162.7415 H   0  0  0  0  0  0  0  0  0  0  0  0
  153.3806  137.7847  157.9848 H   0  0  0  0  0  0  0  0  0  0  0  0
  152.7445  136.1844  158.2890 H   0  0  0  0  0  0  0  0  0  0  0  0
  150.9282  137.6154  157.3783 H   0  0  0  0  0  0  0  0  0  0  0  0
  150.5573  137.2009  159.0360 H   0  0  0  0  0  0  0  0  0  0  0  0
  150.3604  139.4423  159.3340 H   0  0  0  0  0  0  0  0  0  0  0  0
  150.8030  141.5269  159.4697 H   0  0  0  0  0  0  0  0  0  0  0  0
  152.4783  142.5187  157.1106 H   0  0  0  0  0  0  0  0  0  0  0  0
  150.7624  142.1917  157.0795 H   0  0  0  0  0  0  0  0  0  0  0  0
  151.2260  144.6259  157.3623 H   0  0  0  0  0  0  0  0  0  0  0  0
  150.3374  143.9849  158.7231 H   0  0  0  0  0  0  0  0  0  0  0  0
  153.3457  144.5232  158.6253 H   0  0  0  0  0  0  0  0  0  0  0  0
  152.1659  145.4329  159.5386 H   0  0  0  0  0  0  0  0  0  0  0  0
  153.3989  143.8041  160.9877 H   0  0  0  0  0  0  0  0  0  0  0  0
  151.6830  143.4754  160.9680 H   0  0  0  0  0  0  0  0  0  0  0  0
  152.9421  141.3674  160.7173 H   0  0  0  0  0  0  0  0  0  0  0  0
  153.8216  142.0097  159.3518 H   0  0  0  0  0  0  0  0  0  0  0  0
  155.3413  138.0521  163.9017 H   0  0  0  0  0  0  0  0  0  0  0  0
  153.7447  138.7379  164.2109 H   0  0  0  0  0  0  0  0  0  0  0  0
  154.9018  139.6092  163.2043 H   0  0  0  0  0  0  0  0  0  0  0  0
  1  2  1  0  0  0  0
  1 20  1  0  0  0  0
  1 21  1  0  0  0  0
  1 22  1  0  0  0  0
  2  3  1  0  0  0  0
  2 23  1  0  0  0  0
  2 24  1  0  0  0  0
  3 18  2  0  0  0  0
  3  4  1  0  0  0  0
  4  5  2  0  0  0  0
  5  6  1  0  0  0  0
  5 17  1  0  0  0  0
  6  7  1  0  0  0  0
  6 25  1  0  0  0  0
  6 26  1  0  0  0  0
  7  8  1  0  0  0  0
  7 27  1  0  0  0  0
  7 28  1  0  0  0  0
  8  9  1  0  0  0  0
  8 29  1  0  0  0  0
  9 10  2  0  0  0  0
  9 11  1  0  0  0  0
 11 16  1  0  0  0  0
 11 12  1  0  0  0  0
 11 30  1  0  0  0  0
 12 13  1  0  0  0  0
 12 31  1  0  0  0  0
 12 32  1  0  0  0  0
 13 14  1  0  0  0  0
 13 33  1  0  0  0  0
 13 34  1  0  0  0  0
 14 15  1  0  0  0  0
 14 35  1  0  0  0  0
 14 36  1  0  0  0  0
 15 16  1  0  0  0  0
 15 37  1  0  0  0  0
 15 38  1  0  0  0  0
 16 39  1  0  0  0  0
 16 40  1  0  0  0  0
 17 18  1  0  0  0  0
 18 19  1  0  0  0  0
 19 41  1  0  0  0  0
 19 42  1  0  0  0  0
 19 43  1  0  0  0  0
M  END
> <s_m_source_file>
AV-unprocessed.smi

> <i_m_source_file_index>
1003

> <i_lp_mmshare_version>
43012

> <i_f3d_flags>
0

> <s_epik_input>
W0NIM11bQ0gyXWMxbmMoc2MxW0NIM10pW0NIMl1bQ0gyXVtOSF1DKD1PKVtDSF0yW0NIMl1bQ0gyXVtDSDJdW0NIMl1bQ0gyXTI=

> <s_epik_cmdline>
J2VwaWtfcHl0aG9uJywgJy1waCcsICc3LjAnLCAnLXRuJywgJzgnLCAnLW1hJywgJzIwMCcsICctbWV0YWxfYmluZGluZycsICctaW1hZScsICc8aW5maWxlLm1hZT4nLCAnLW9tYWUnLCAnPG91dGZpbGUubWFlPic=

> <r_epik_Ionization_Penalty>
0.00242092

> <r_epik_Ionization_Penalty_Charging>
0

> <r_epik_Ionization_Penalty_Neutral>
0.00242092

> <r_epik_State_Penalty>
0.00167523

> <r_epik_Charging_Adjusted_Penalty>
0.00167523

> <i_epik_Tot_Q>
0

> <i_epik_Tot_abs_Q>
0

> <r_epik_Metal_State_Penalty>
-0

> <b_epik_Metal_Only>
0

> <s_lp_Force_Field>
OPLS_2005

> <r_lp_Energy>
0.647585

> <b_lp_Chiralities_Consistent>
1

> <s_lp_Variant>
AV-unprocessed.smi:1003-1

> <Gold.Version>
5.8.1

> <Gold.Id.Protein>
6NUR|6NUR_protein|mol2

> <Gold.PLP.Fitness>
45.6303

> <Gold.PLP.PLP>
-40.4561

> <Gold.PLP.part.hbond>
-1.9184

> <Gold.PLP.part.metal>
0.0000

> <Gold.PLP.part.buried>
-4.4868

> <Gold.PLP.part.nonpolar>
-34.8311

> <Gold.PLP.part.repulsive>
0.1530

> <Gold.PLP.ligand.clash>
0.0000

> <Gold.PLP.ligand.torsion>
0.3269

> <Gold.PLP.Chemscore.Hbond>
1.9263

> <Gold.PLP.Chemscore.CHOScore>
0.0000

> <Gold.PLP.Chemscore.Metal>
0.0000

> <Gold.Chemscore.Hbonds>
donor molecule, donor type, donor heavy atom, donor atom, acceptor molecule, acceptor atom, score
      P1  H  6896  6907       L1     4  1.00
      P1  H  7997  8009       L1    10  1.00

> <Gold.PLP.Chemscore.Internal.Correction>
0.0493

> <Gold.Rescore>
     Score         DG    S(hbond)    S(metal)    S(lipo)     H(rot)  DE(clash)    DE(int)     intcor
     20.58     -22.40       1.95        0.00     119.67       1.40       0.00       1.82       ----

> <Gold.Chemscore.Fitness>
20.5846

> <Gold.Chemscore.DG>
-22.4019

> <Gold.Chemscore.ZeroCoef>
-5.4800

> <Gold.Chemscore.Hbond>
1.9466

> <Gold.Chemscore.Metal>
0.0000

> <Gold.Chemscore.Lipo>
119.6682

> <Gold.Chemscore.Internal_Hbond>
0.0000

> <Gold.Chemscore.DEClash>
0.0004

> <Gold.Chemscore.DEInternal>
1.8169

> <Gold.Chemscore.Rot>
1.3988

> <Gold.Chemscore.Internal.Correction>
   9.000000E+99

> <Gold.Chemscore.Hbonds>
donor molecule, donor type, donor heavy atom, donor atom, acceptor molecule, acceptor atom, score
      P1  H  6896  6907       L1     4  0.60
      P1  H  7997  8009       L1    10  0.99

> <Gold.Chemscore.Hbond.Weighted>
-6.5018

> <Gold.Chemscore.Metal.Weighted>
-0.0000

> <Gold.Chemscore.Lipo.Weighted>
-14.0012

> <Gold.Chemscore.Internal_Hbond.Weighted>
0.0000

> <Gold.Chemscore.DEClash.Weighted>
0.0004

> <Gold.Chemscore.DEInternal.Weighted>
1.8169

> <Gold.Chemscore.Rot.Weighted>
3.5810

> <Gold.Chemscore.Internal.Correction.Weighted>
   9.000000E+99

> <Gold.Protein.RotatedTorsions>
[ 6907 6896 6895 6894 ] final   41.10 input  -60.11 | X-H torsion
[ 7974 7965 7964 7962 ] final  121.89 input  175.53 | X-H torsion
[ 8008 7997 7996 7995 ] final  170.04 input   59.86 | X-H torsion
[ 10167 10162 10161 10158 ] final -107.75 input  -65.29 | X-H torsion
[ 10718 10713 10712 10709 ] final  150.99 input   66.30 | X-H torsion
[ 10763 10752 10751 10750 ] final   22.52 input  -60.55 | X-H torsion
[ 11005 11000 10999 10996 ] final  131.02 input  -57.11 | X-H torsion

> <Gold.Protein.ActiveResidues>
 VAL166  LYS551  ARG553  GLY616  TRP617  ASP618  TYR619  PRO620  LYS621  CYS622 
 ASP623  PHE694  ASN695  SER759  ASP760  ASP761  ALA762  ILE779  LEU786  VAL792 
 PHE793  MET794  SER795  GLU796  ALA797  LYS798  CYS799  TRP800  GLU811  SER814 

> <Gold.Protein.RotatedAtoms>
  152.1910  134.8672  160.0517 H   0  0  0  0  0  0  0  0  0  0  0  0  # atno 6907 bound_to 6896
  151.9561  133.3676  159.4026 H   0  0  0  0  0  0  0  0  0  0  0  0  # atno 6908 bound_to 6896
  150.6935  134.4213  159.5250 H   0  0  0  0  0  0  0  0  0  0  0  0  # atno 6909 bound_to 6896
  145.1140  139.3433  143.4748 H   0  0  0  0  0  0  0  0  0  0  0  0  # atno 7974 bound_to 7965
  156.1402  140.1548  156.8932 H   0  0  0  0  0  0  0  0  0  0  0  0  # atno 8008 bound_to 7997
  154.4981  140.0832  156.7778 H   0  0  0  0  0  0  0  0  0  0  0  0  # atno 8009 bound_to 7997
  155.4093  140.3418  155.4264 H   0  0  0  0  0  0  0  0  0  0  0  0  # atno 8010 bound_to 7997
  140.1736  143.4023  152.1336 H   0  0  0  0  0  0  0  0  0  0  0  0  # atno 10167 bound_to 10162
  157.2764  131.0827  151.1563 H   0  0  0  0  0  0  0  0  0  0  0  0  # atno 10718 bound_to 10713
  153.0909  135.6646  153.9856 H   0  0  0  0  0  0  0  0  0  0  0  0  # atno 10763 bound_to 10752
  153.9453  135.2989  155.3442 H   0  0  0  0  0  0  0  0  0  0  0  0  # atno 10764 bound_to 10752
  154.7323  135.5117  153.9058 H   0  0  0  0  0  0  0  0  0  0  0  0  # atno 10765 bound_to 10752
  139.9706  134.9578  156.9378 H   0  0  0  0  0  0  0  0  0  0  0  0  # atno 11005 bound_to 11000
  146.3525  140.1072  142.8605 LP  0  0  0  0  0  0  0  0  0  0  0  0  # atno 17320 bound_to 7965
  145.0814  140.9224  143.4823 LP  0  0  0  0  0  0  0  0  0  0  0  0  # atno 17321 bound_to 7965
  139.5327  144.7176  151.5000 LP  0  0  0  0  0  0  0  0  0  0  0  0  # atno 17342 bound_to 10162
  140.6566  143.8586  150.6842 LP  0  0  0  0  0  0  0  0  0  0  0  0  # atno 17343 bound_to 10162
  157.3015  130.6845  149.6166 LP  0  0  0  0  0  0  0  0  0  0  0  0  # atno 17370 bound_to 10713
  155.9664  130.4390  150.5243 LP  0  0  0  0  0  0  0  0  0  0  0  0  # atno 17371 bound_to 10713
  140.5302  134.0821  155.7314 LP  0  0  0  0  0  0  0  0  0  0  0  0  # atno 17394 bound_to 11000
  141.1385  133.9179  157.2379 LP  0  0  0  0  0  0  0  0  0  0  0  0  # atno 17395 bound_to 11000

$$$$
