AV-unprocessed.smi:287|AV-procd|sdf|2194|dock7
  -GOLD-   2262021593D 1   1.00000     0.00000
 Structure written by MMmdl.
 55 58  0  0  0  0  0  0  0  0  1 V2000
  154.4173  140.1948  160.2210 C   0  0  0  0  0  0  0  0  0  0  0  0
  153.4659  141.0684  159.4775 C   0  0  0  0  0  0  0  0  0  0  0  0
  152.4849  140.8300  158.5597 C   0  0  0  0  0  0  0  0  0  0  0  0
  151.9092  142.0889  158.2141 C   0  0  0  0  0  0  0  0  0  0  0  0
  150.7747  142.3074  157.2226 C   0  0  2  0  0  0  0  0  0  0  0  0
  150.9890  141.4231  155.9832 C   0  0  0  0  0  0  0  0  0  0  0  0
  150.7187  143.6329  156.7312 O   0  0  0  0  0  0  0  0  0  0  0  0
  149.3909  142.0209  157.8482 C   0  0  0  0  0  0  0  0  0  0  0  0
  148.9674  140.6369  157.6751 N   0  0  0  0  0  0  0  0  0  0  0  0
  147.9454  140.3179  156.8538 C   0  0  0  0  0  0  0  0  0  0  0  0
  146.8775  141.1502  156.9016 N   0  0  0  0  0  0  0  0  0  0  0  0
  145.8105  140.9213  156.1306 C   0  0  0  0  0  0  0  0  0  0  0  0
  145.6092  139.9334  155.2565 N   0  0  0  0  0  0  0  0  0  0  0  0
  146.6807  139.0911  155.2036 C   0  0  0  0  0  0  0  0  0  0  0  0
  147.8832  139.2091  155.9581 C   0  0  0  0  0  0  0  0  0  0  0  0
  148.7397  138.1668  155.6163 N   0  0  0  0  0  0  0  0  0  0  0  0
  148.0801  137.4818  154.7220 C   0  0  0  0  0  0  0  0  0  0  0  0
  146.8294  137.9707  154.4184 N   0  0  0  0  0  0  0  0  0  0  0  0
  145.8255  137.4427  153.4456 C   0  0  2  0  0  0  0  0  0  0  0  0
  145.8206  136.0577  153.5356 O   0  0  0  0  0  0  0  0  0  0  0  0
  145.2988  135.5503  152.3195 C   0  0  2  0  0  0  0  0  0  0  0  0
  145.6763  134.0672  152.1807 C   0  0  0  0  0  0  0  0  0  0  0  0
  147.0495  133.8801  152.4492 O   0  0  0  0  0  0  0  0  0  0  0  0
  145.9030  136.4728  151.2476 C   0  0  1  0  0  0  0  0  0  0  0  0
  144.9772  136.6665  150.1969 O   0  0  0  0  0  0  0  0  0  0  0  0
  146.1610  137.7908  151.9814 C   0  0  2  0  0  0  0  0  0  0  0  0
  147.4962  138.2222  151.7841 O   0  0  0  0  0  0  0  0  0  0  0  0
  152.6086  143.0100  158.9567 C   0  0  0  0  0  0  0  0  0  0  0  0
  152.5517  144.4962  159.0888 C   0  0  0  0  0  0  0  0  0  0  0  0
  153.5514  142.3989  159.7271 O   0  0  0  0  0  0  0  0  0  0  0  0
  144.8627  137.8404  153.7721 H   0  0  0  0  0  0  0  0  0  0  0  0
  144.2131  135.6647  152.3627 H   0  0  0  0  0  0  0  0  0  0  0  0
  146.8312  136.0538  150.8552 H   0  0  0  0  0  0  0  0  0  0  0  0
  145.4869  138.5872  151.6627 H   0  0  0  0  0  0  0  0  0  0  0  0
  154.1118  139.1499  160.1632 H   0  0  0  0  0  0  0  0  0  0  0  0
  154.4608  140.4754  161.2735 H   0  0  0  0  0  0  0  0  0  0  0  0
  155.4216  140.2772  159.8053 H   0  0  0  0  0  0  0  0  0  0  0  0
  152.2057  139.8583  158.1802 H   0  0  0  0  0  0  0  0  0  0  0  0
  151.0070  140.3657  156.2497 H   0  0  0  0  0  0  0  0  0  0  0  0
  151.9353  141.6526  155.4913 H   0  0  0  0  0  0  0  0  0  0  0  0
  150.1930  141.5611  155.2505 H   0  0  0  0  0  0  0  0  0  0  0  0
  149.8358  143.8094  156.4444 H   0  0  0  0  0  0  0  0  0  0  0  0
  149.3774  142.2924  158.9047 H   0  0  0  0  0  0  0  0  0  0  0  0
  148.6537  142.6502  157.3483 H   0  0  0  0  0  0  0  0  0  0  0  0
  149.5157  139.9482  158.1702 H   0  0  0  0  0  0  0  0  0  0  0  0
  145.0022  141.6307  156.2294 H   0  0  0  0  0  0  0  0  0  0  0  0
  148.4929  136.5995  154.2545 H   0  0  0  0  0  0  0  0  0  0  0  0
  145.0811  133.4462  152.8508 H   0  0  0  0  0  0  0  0  0  0  0  0
  145.4790  133.7246  151.1644 H   0  0  0  0  0  0  0  0  0  0  0  0
  147.5327  134.5888  152.0518 H   0  0  0  0  0  0  0  0  0  0  0  0
  144.1856  137.0344  150.5601 H   0  0  0  0  0  0  0  0  0  0  0  0
  148.0483  137.4578  151.7151 H   0  0  0  0  0  0  0  0  0  0  0  0
  152.6326  144.9744  158.1125 H   0  0  0  0  0  0  0  0  0  0  0  0
  153.3654  144.8687  159.7116 H   0  0  0  0  0  0  0  0  0  0  0  0
  151.6110  144.8069  159.5434 H   0  0  0  0  0  0  0  0  0  0  0  0
  1  2  1  0  0  0  0
  1 35  1  0  0  0  0
  1 36  1  0  0  0  0
  1 37  1  0  0  0  0
  2 30  1  0  0  0  0
  2  3  2  0  0  0  0
  3  4  1  0  0  0  0
  3 38  1  0  0  0  0
  4  5  1  0  0  0  0
  4 28  2  0  0  0  0
  5  6  1  0  0  0  0
  5  7  1  0  0  0  0
  5  8  1  0  0  0  0
  6 39  1  0  0  0  0
  6 40  1  0  0  0  0
  6 41  1  0  0  0  0
  7 42  1  0  0  0  0
  8  9  1  0  0  0  0
  8 43  1  0  0  0  0
  8 44  1  0  0  0  0
  9 10  1  0  0  0  0
  9 45  1  0  0  0  0
 10 15  1  0  0  0  0
 10 11  2  0  0  0  0
 11 12  1  0  0  0  0
 12 13  2  0  0  0  0
 12 46  1  0  0  0  0
 13 14  1  0  0  0  0
 14 18  1  0  0  0  0
 14 15  2  0  0  0  0
 15 16  1  0  0  0  0
 16 17  2  0  0  0  0
 17 18  1  0  0  0  0
 17 47  1  0  0  0  0
 18 19  1  0  0  0  0
 19 31  1  0  0  0  0
 19 26  1  0  0  0  0
 19 20  1  0  0  0  0
 20 21  1  0  0  0  0
 21 32  1  0  0  0  0
 21 22  1  0  0  0  0
 21 24  1  0  0  0  0
 22 23  1  0  0  0  0
 22 48  1  0  0  0  0
 22 49  1  0  0  0  0
 23 50  1  0  0  0  0
 24 33  1  0  0  0  0
 24 25  1  0  0  0  0
 24 26  1  0  0  0  0
 25 51  1  0  0  0  0
 26 34  1  0  0  0  0
 26 27  1  0  0  0  0
 27 52  1  0  0  0  0
 28 29  1  0  0  0  0
 28 30  1  0  0  0  0
 29 53  1  0  0  0  0
 29 54  1  0  0  0  0
 29 55  1  0  0  0  0
M  END
> <s_m_source_file>
AV-unprocessed.smi

> <i_m_source_file_index>
287

> <i_lp_mmshare_version>
43012

> <i_f3d_flags>
0

> <s_epik_input>
W0NIM11jMVtjSF1jKGMobzEpW0NIM10pW0NAQF0oW0NIM10pKFtPSF0pW0NIMl1bTkhdYyhuW2NIXW4yKWMoYzIzKW5bY0hdbjNbQ0BASF00T1tDQEhdKFtDSDJdW09IXSlbQ0BASF0oW09IXSlbQ0BIXTRbT0hd

> <s_epik_cmdline>
J2VwaWtfcHl0aG9uJywgJy1waCcsICc3LjAnLCAnLXRuJywgJzgnLCAnLW1hJywgJzIwMCcsICctbWV0YWxfYmluZGluZycsICctaW1hZScsICc8aW5maWxlLm1hZT4nLCAnLW9tYWUnLCAnPG91dGZpbGUubWFlPic=

> <r_lp_tautomer_probability>
1

> <r_epik_Ionization_Penalty>
0.000992612

> <r_epik_Ionization_Penalty_Charging>
0

> <r_epik_Ionization_Penalty_Neutral>
0.000992612

> <r_epik_State_Penalty>
-0

> <r_epik_Charging_Adjusted_Penalty>
0

> <i_epik_Tot_Q>
0

> <i_epik_Tot_abs_Q>
0

> <r_epik_Metal_State_Penalty>
-0

> <b_epik_Metal_Only>
0

> <s_epik_Chemistry_Notes>
This compound contains an acetal/aminal-like group ( X-CH(R)-Y where X, Y are N, S, or O) that may be acid/base labile, releasing an aldehyde.

> <s_lp_Force_Field>
OPLS_2005

> <r_lp_Energy>
43.2107

> <b_lp_Chiralities_Consistent>
1

> <s_lp_Variant>
AV-unprocessed.smi:287-18

> <Gold.Version>
5.8.1

> <Gold.Id.Protein>
6NUR|6NUR_protein|mol2

> <Gold.PLP.Fitness>
50.1125

> <Gold.PLP.PLP>
-41.2739

> <Gold.PLP.part.hbond>
-4.3402

> <Gold.PLP.part.metal>
0.0000

> <Gold.PLP.part.buried>
-4.3508

> <Gold.PLP.part.nonpolar>
-33.5854

> <Gold.PLP.part.repulsive>
0.4569

> <Gold.PLP.ligand.clash>
0.0000

> <Gold.PLP.ligand.torsion>
2.3611

> <Gold.PLP.Chemscore.Hbond>
3.4998

> <Gold.PLP.Chemscore.CHOScore>
0.9900

> <Gold.PLP.Chemscore.Metal>
0.0000

> <Gold.Chemscore.Hbonds>
donor molecule, donor type, donor heavy atom, donor atom, acceptor molecule, acceptor atom, score
      L1  H     7    42       P1  8028  0.94
      L1  H    23    50       P1  7948  0.75
      L1  H    25    51       P1 10171  0.19
      L1  H    27    52       P1  7948  0.91
      L1  C    17    47       P1  7948  0.96

> <Gold.PLP.Chemscore.Internal.Correction>
0.0914

> <Gold.Rescore>
     Score         DG    S(hbond)    S(metal)    S(lipo)     H(rot)  DE(clash)    DE(int)     intcor
     11.59     -15.55       3.34        0.00     105.91       5.27       1.26       2.71       ----

> <Gold.Chemscore.Fitness>
11.5916

> <Gold.Chemscore.DG>
-15.5548

> <Gold.Chemscore.ZeroCoef>
-5.4800

> <Gold.Chemscore.Hbond>
3.3435

> <Gold.Chemscore.Metal>
0.0000

> <Gold.Chemscore.Lipo>
105.9113

> <Gold.Chemscore.Internal_Hbond>
0.0000

> <Gold.Chemscore.DEClash>
1.2564

> <Gold.Chemscore.DEInternal>
2.7068

> <Gold.Chemscore.Rot>
5.2672

> <Gold.Chemscore.Internal.Correction>
   9.000000E+99

> <Gold.Chemscore.Hbonds>
donor molecule, donor type, donor heavy atom, donor atom, acceptor molecule, acceptor atom, score
      L1  H     7    42       P1  8028  0.84
      L1  H    23    50       P1  7948  0.49
      L1  H    25    51       P1 10171  0.19
      L1  H    27    52       P1  7948  0.87

> <Gold.Chemscore.Hbond.Weighted>
-11.1671

> <Gold.Chemscore.Metal.Weighted>
-0.0000

> <Gold.Chemscore.Lipo.Weighted>
-12.3916

> <Gold.Chemscore.Internal_Hbond.Weighted>
0.0000

> <Gold.Chemscore.DEClash.Weighted>
1.2564

> <Gold.Chemscore.DEInternal.Weighted>
2.7068

> <Gold.Chemscore.Rot.Weighted>
13.4839

> <Gold.Chemscore.Internal.Correction.Weighted>
   9.000000E+99

> <Gold.Protein.RotatedTorsions>
[ 6907 6896 6895 6894 ] final  -51.95 input  -60.11 | X-H torsion
[ 7974 7965 7964 7962 ] final    6.87 input  175.53 | X-H torsion
[ 8008 7997 7996 7995 ] final  -48.78 input   59.86 | X-H torsion
[ 10167 10162 10161 10158 ] final  133.22 input  -65.29 | X-H torsion
[ 10718 10713 10712 10709 ] final   69.91 input   66.30 | X-H torsion
[ 10763 10752 10751 10750 ] final   23.35 input  -60.55 | X-H torsion
[ 11005 11000 10999 10996 ] final  112.13 input  -57.11 | X-H torsion

> <Gold.Protein.ActiveResidues>
 VAL166  LYS551  ARG553  GLY616  TRP617  ASP618  TYR619  PRO620  LYS621  CYS622 
 ASP623  PHE694  ASN695  SER759  ASP760  ASP761  ALA762  ILE779  LEU786  VAL792 
 PHE793  MET794  SER795  GLU796  ALA797  LYS798  CYS799  TRP800  GLU811  SER814 

> <Gold.Protein.RotatedAtoms>
  150.8563  134.7903  159.7047 H   0  0  0  0  0  0  0  0  0  0  0  0  # atno 6907 bound_to 6896
  152.4614  134.5173  159.9782 H   0  0  0  0  0  0  0  0  0  0  0  0  # atno 6908 bound_to 6896
  151.5285  133.3415  159.2949 H   0  0  0  0  0  0  0  0  0  0  0  0  # atno 6909 bound_to 6896
  146.2431  140.0169  142.8401 H   0  0  0  0  0  0  0  0  0  0  0  0  # atno 7974 bound_to 7965
  154.4034  140.1313  156.4395 H   0  0  0  0  0  0  0  0  0  0  0  0  # atno 8008 bound_to 7997
  155.7473  140.3488  155.5113 H   0  0  0  0  0  0  0  0  0  0  0  0  # atno 8009 bound_to 7997
  155.8983  140.1015  157.1359 H   0  0  0  0  0  0  0  0  0  0  0  0  # atno 8010 bound_to 7997
  139.5306  144.6626  151.4965 H   0  0  0  0  0  0  0  0  0  0  0  0  # atno 10167 bound_to 10162
  157.6372  130.9450  150.0578 H   0  0  0  0  0  0  0  0  0  0  0  0  # atno 10718 bound_to 10713
  153.0845  135.6629  153.9976 H   0  0  0  0  0  0  0  0  0  0  0  0  # atno 10763 bound_to 10752
  153.9589  135.2976  155.3436 H   0  0  0  0  0  0  0  0  0  0  0  0  # atno 10764 bound_to 10752
  154.7251  135.5147  153.8945 H   0  0  0  0  0  0  0  0  0  0  0  0  # atno 10765 bound_to 10752
  139.8920  134.9523  156.6539 H   0  0  0  0  0  0  0  0  0  0  0  0  # atno 11005 bound_to 11000
  145.1277  140.9499  143.4563 LP  0  0  0  0  0  0  0  0  0  0  0  0  # atno 17320 bound_to 7965
  145.0419  139.3253  143.5972 LP  0  0  0  0  0  0  0  0  0  0  0  0  # atno 17321 bound_to 7965
  140.6481  143.8753  150.6758 LP  0  0  0  0  0  0  0  0  0  0  0  0  # atno 17342 bound_to 10162
  140.2109  143.3884  152.1719 LP  0  0  0  0  0  0  0  0  0  0  0  0  # atno 17343 bound_to 10162
  156.1620  130.3644  149.9285 LP  0  0  0  0  0  0  0  0  0  0  0  0  # atno 17370 bound_to 10713
  156.7281  130.9033  151.3623 LP  0  0  0  0  0  0  0  0  0  0  0  0  # atno 17371 bound_to 10713
  140.7499  133.8906  155.8339 LP  0  0  0  0  0  0  0  0  0  0  0  0  # atno 17394 bound_to 11000
  141.0009  134.1152  157.4318 LP  0  0  0  0  0  0  0  0  0  0  0  0  # atno 17395 bound_to 11000

$$$$
