AV-unprocessed.smi:620|AV-procd|sdf|3088|dock5
  -GOLD-   22720 0 13D 1   1.00000     0.00000
 Structure written by MMmdl.
 32 34  0  0  0  0  0  0  0  0  2 V2000
  150.6442  136.0251  154.6234 C   0  0  0  0  0  0  0  0  0  0  0  0
  150.7266  137.5022  154.8036 C   0  0  0  0  0  0  0  0  0  0  0  0
  150.3941  138.3705  153.8474 N   0  0  0  0  0  0  0  0  0  0  0  0
  150.5597  139.6843  154.2573 N   0  0  0  0  0  0  0  0  0  0  0  0
  151.0140  139.8034  155.5188 C   0  0  0  0  0  0  0  0  0  0  0  0
  151.2679  140.9589  156.1739 N   0  5  0  0  0  0  0  0  0  0  0  0
  151.4434  141.0836  157.5146 C   0  0  0  0  0  0  0  0  0  0  0  0
  151.5844  140.1773  158.3378 O   0  0  0  0  0  0  0  0  0  0  0  0
  151.4539  142.3620  157.9222 N   0  0  0  0  0  0  0  0  0  0  0  0
  151.6156  142.8531  159.2888 C   0  0  0  0  0  0  0  0  0  0  0  0
  151.2586  144.3239  159.4030 C   0  0  0  0  0  0  0  0  0  0  0  0
  152.2046  145.4043  158.9348 C   0  0  0  0  0  0  0  0  0  0  0  0
  151.9434  145.2137  160.4122 C   0  0  0  0  0  0  0  0  0  0  0  0
  153.0176  142.6035  159.8143 C   0  0  0  0  0  0  0  0  0  0  0  0
  153.4393  141.2321  160.2839 C   0  0  0  0  0  0  0  0  0  0  0  0
  153.2776  142.3571  161.2817 C   0  0  0  0  0  0  0  0  0  0  0  0
  151.2721  138.2418  156.2974 S   0  0  0  0  0  0  0  0  0  0  0  0
  150.2759  135.7788  153.6269 H   0  0  0  0  0  0  0  0  0  0  0  0
  149.9666  135.5971  155.3621 H   0  0  0  0  0  0  0  0  0  0  0  0
  151.6305  135.5790  154.7513 H   0  0  0  0  0  0  0  0  0  0  0  0
  151.3357  143.0646  157.2072 H   0  0  0  0  0  0  0  0  0  0  0  0
  150.9346  142.3153  159.9507 H   0  0  0  0  0  0  0  0  0  0  0  0
  150.2010  144.5251  159.2408 H   0  0  0  0  0  0  0  0  0  0  0  0
  153.1800  145.1026  158.5585 H   0  0  0  0  0  0  0  0  0  0  0  0
  151.7696  146.2783  158.4548 H   0  0  0  0  0  0  0  0  0  0  0  0
  151.3334  145.9595  160.9178 H   0  0  0  0  0  0  0  0  0  0  0  0
  152.7400  144.7778  161.0122 H   0  0  0  0  0  0  0  0  0  0  0  0
  153.7823  143.1771  159.2933 H   0  0  0  0  0  0  0  0  0  0  0  0
  152.6873  140.4452  160.2863 H   0  0  0  0  0  0  0  0  0  0  0  0
  154.4507  140.9099  160.0453 H   0  0  0  0  0  0  0  0  0  0  0  0
  154.1817  142.7849  161.7095 H   0  0  0  0  0  0  0  0  0  0  0  0
  152.4220  142.3091  161.9521 H   0  0  0  0  0  0  0  0  0  0  0  0
  1  2  1  0  0  0  0
  1 18  1  0  0  0  0
  1 19  1  0  0  0  0
  1 20  1  0  0  0  0
  2 17  1  0  0  0  0
  2  3  2  0  0  0  0
  3  4  1  0  0  0  0
  4  5  2  0  0  0  0
  5  6  1  0  0  0  0
  5 17  1  0  0  0  0
  6  7  1  0  0  0  0
  7  8  2  0  0  0  0
  7  9  1  0  0  0  0
  9 10  1  0  0  0  0
  9 21  1  0  0  0  0
 10 11  1  0  0  0  0
 10 14  1  0  0  0  0
 10 22  1  0  0  0  0
 11 13  1  0  0  0  0
 11 12  1  0  0  0  0
 11 23  1  0  0  0  0
 12 13  1  0  0  0  0
 12 24  1  0  0  0  0
 12 25  1  0  0  0  0
 13 26  1  0  0  0  0
 13 27  1  0  0  0  0
 14 16  1  0  0  0  0
 14 15  1  0  0  0  0
 14 28  1  0  0  0  0
 15 16  1  0  0  0  0
 15 29  1  0  0  0  0
 15 30  1  0  0  0  0
 16 31  1  0  0  0  0
 16 32  1  0  0  0  0
M  CHG  1   6  -1
M  END
> <s_m_source_file>
AV-unprocessed.smi

> <i_m_source_file_index>
620

> <i_lp_mmshare_version>
43012

> <i_f3d_flags>
0

> <s_epik_input>
W0NIM11jMW5uYyhzMSlbTkhdQyg9TylbTkhdW0NIXShbQ0hdMltDSDJdW0NIMl0yKVtDSF0zW0NIMl1bQ0gyXTM=

> <s_epik_cmdline>
J2VwaWtfcHl0aG9uJywgJy1waCcsICc3LjAnLCAnLXRuJywgJzgnLCAnLW1hJywgJzIwMCcsICctbWV0YWxfYmluZGluZycsICctaW1hZScsICc8aW5maWxlLm1hZT4nLCAnLW9tYWUnLCAnPG91dGZpbGUubWFlPic=

> <r_lp_tautomer_probability>
1

> <r_epik_Ionization_Penalty>
4.60723

> <r_epik_Ionization_Penalty_Charging>
4.45392

> <r_epik_Ionization_Penalty_Neutral>
0.153307

> <r_epik_State_Penalty>
4.4536

> <r_epik_Charging_Adjusted_Penalty>
8.90752

> <i_epik_Tot_Q>
-1

> <i_epik_Tot_abs_Q>
1

> <r_epik_Metal_State_Penalty>
0.796734

> <b_epik_Metal_Only>
1

> <s_lp_Force_Field>
OPLS_2005

> <r_lp_Energy>
26.5225

> <b_lp_Chiralities_Consistent>
1

> <s_lp_Variant>
AV-unprocessed.smi:620-2

> <Gold.Version>
5.8.1

> <Gold.Id.Protein>
6NUR|6NUR_protein|mol2

> <Gold.PLP.Fitness>
40.2925

> <Gold.PLP.PLP>
-37.6885

> <Gold.PLP.part.hbond>
-1.0000

> <Gold.PLP.part.metal>
0.0000

> <Gold.PLP.part.buried>
-5.0403

> <Gold.PLP.part.nonpolar>
-31.0102

> <Gold.PLP.part.repulsive>
0.4822

> <Gold.PLP.ligand.clash>
0.0000

> <Gold.PLP.ligand.torsion>
1.2718

> <Gold.PLP.Chemscore.Hbond>
1.0000

> <Gold.PLP.Chemscore.CHOScore>
0.0000

> <Gold.PLP.Chemscore.Metal>
0.0000

> <Gold.Chemscore.Hbonds>
donor molecule, donor type, donor heavy atom, donor atom, acceptor molecule, acceptor atom, score
      P1  H  7989  7998       L1     4  0.95

> <Gold.PLP.Chemscore.Internal.Correction>
2.1475

> <Gold.Rescore>
     Score         DG    S(hbond)    S(metal)    S(lipo)     H(rot)  DE(clash)    DE(int)     intcor
     11.92     -16.05       0.87        0.00      96.49       1.41       0.32       3.81       ----

> <Gold.Chemscore.Fitness>
11.9242

> <Gold.Chemscore.DG>
-16.0543

> <Gold.Chemscore.ZeroCoef>
-5.4800

> <Gold.Chemscore.Hbond>
0.8686

> <Gold.Chemscore.Metal>
0.0000

> <Gold.Chemscore.Lipo>
96.4940

> <Gold.Chemscore.Internal_Hbond>
0.0000

> <Gold.Chemscore.DEClash>
0.3160

> <Gold.Chemscore.DEInternal>
3.8141

> <Gold.Chemscore.Rot>
1.4127

> <Gold.Chemscore.Internal.Correction>
   9.000000E+99

> <Gold.Chemscore.Hbonds>
donor molecule, donor type, donor heavy atom, donor atom, acceptor molecule, acceptor atom, score
      P1  H  7989  7998       L1     4  0.21

> <Gold.Chemscore.Hbond.Weighted>
-2.9010

> <Gold.Chemscore.Metal.Weighted>
-0.0000

> <Gold.Chemscore.Lipo.Weighted>
-11.2898

> <Gold.Chemscore.Internal_Hbond.Weighted>
0.0000

> <Gold.Chemscore.DEClash.Weighted>
0.3160

> <Gold.Chemscore.DEInternal.Weighted>
3.8141

> <Gold.Chemscore.Rot.Weighted>
3.6165

> <Gold.Chemscore.Internal.Correction.Weighted>
   9.000000E+99

> <Gold.Protein.RotatedTorsions>
[ 6907 6896 6895 6894 ] final  111.74 input  -60.11 | X-H torsion
[ 7974 7965 7964 7962 ] final  105.16 input  175.53 | X-H torsion
[ 8008 7997 7996 7995 ] final   30.43 input   59.86 | X-H torsion
[ 10167 10162 10161 10158 ] final  169.49 input  -65.29 | X-H torsion
[ 10718 10713 10712 10709 ] final  -14.27 input   66.30 | X-H torsion
[ 10763 10752 10751 10750 ] final  137.11 input  -60.55 | X-H torsion
[ 11005 11000 10999 10996 ] final  -17.07 input  -57.11 | X-H torsion

> <Gold.Protein.ActiveResidues>
 VAL166  LYS551  ARG553  GLY616  TRP617  ASP618  TYR619  PRO620  LYS621  CYS622 
 ASP623  PHE694  ASN695  SER759  ASP760  ASP761  ALA762  ILE779  LEU786  VAL792 
 PHE793  MET794  SER795  GLU796  ALA797  LYS798  CYS799  TRP800  GLU811  SER814 

> <Gold.Protein.RotatedAtoms>
  152.4953  133.8614  159.7251 H   0  0  0  0  0  0  0  0  0  0  0  0  # atno 6907 bound_to 6896
  150.9125  133.6971  159.2858 H   0  0  0  0  0  0  0  0  0  0  0  0  # atno 6908 bound_to 6896
  151.4376  135.1021  159.9713 H   0  0  0  0  0  0  0  0  0  0  0  0  # atno 6909 bound_to 6896
  145.3234  139.2506  143.3700 H   0  0  0  0  0  0  0  0  0  0  0  0  # atno 7974 bound_to 7965
  155.0903  140.3219  155.4575 H   0  0  0  0  0  0  0  0  0  0  0  0  # atno 8008 bound_to 7997
  156.2744  140.2079  156.5977 H   0  0  0  0  0  0  0  0  0  0  0  0  # atno 8009 bound_to 7997
  154.6908  140.0516  157.0349 H   0  0  0  0  0  0  0  0  0  0  0  0  # atno 8010 bound_to 7997
  139.4993  144.3701  151.9734 H   0  0  0  0  0  0  0  0  0  0  0  0  # atno 10167 bound_to 10162
  156.6183  130.4868  149.6174 H   0  0  0  0  0  0  0  0  0  0  0  0  # atno 10718 bound_to 10713
  153.8677  135.3059  155.3440 H   0  0  0  0  0  0  0  0  0  0  0  0  # atno 10763 bound_to 10752
  154.7820  135.4830  153.9868 H   0  0  0  0  0  0  0  0  0  0  0  0  # atno 10764 bound_to 10752
  153.1425  135.6827  153.9101 H   0  0  0  0  0  0  0  0  0  0  0  0  # atno 10765 bound_to 10752
  140.8131  133.8125  155.9583 H   0  0  0  0  0  0  0  0  0  0  0  0  # atno 11005 bound_to 11000
  146.3074  140.3796  142.8682 LP  0  0  0  0  0  0  0  0  0  0  0  0  # atno 17320 bound_to 7965
  144.8921  140.7537  143.5920 LP  0  0  0  0  0  0  0  0  0  0  0  0  # atno 17321 bound_to 7965
  140.3137  144.3508  150.6027 LP  0  0  0  0  0  0  0  0  0  0  0  0  # atno 17342 bound_to 10162
  140.5778  143.2175  151.7483 LP  0  0  0  0  0  0  0  0  0  0  0  0  # atno 17343 bound_to 10162
  156.2333  130.6807  151.1484 LP  0  0  0  0  0  0  0  0  0  0  0  0  # atno 17370 bound_to 10713
  157.7235  131.0666  150.6035 LP  0  0  0  0  0  0  0  0  0  0  0  0  # atno 17371 bound_to 10713
  140.9177  134.2181  157.4946 LP  0  0  0  0  0  0  0  0  0  0  0  0  # atno 17394 bound_to 11000
  139.8713  134.9778  156.4974 LP  0  0  0  0  0  0  0  0  0  0  0  0  # atno 17395 bound_to 11000

$$$$
