AV-unprocessed.smi:638|AV-procd|sdf|3143|dock10
  -GOLD-   22720 0 73D 1   1.00000     0.00000
 Structure written by MMmdl.
 41 42  0  0  0  0  0  0  0  0  3 V2000
  152.0753  135.7702  156.3469 N   0  0  0  0  0  0  0  0  0  0  0  0
  151.5205  136.7577  156.5838 C   0  0  0  0  0  0  0  0  0  0  0  0
  150.8129  138.0174  156.8875 C   0  0  0  0  0  0  0  0  0  0  0  0
  149.5329  137.7295  157.5451 N   0  0  0  0  0  0  0  0  0  0  0  0
  149.3199  136.8949  158.5757 C   0  0  0  0  0  0  0  0  0  0  0  0
  150.2147  136.2501  159.1227 O   0  0  0  0  0  0  0  0  0  0  0  0
  147.8719  136.8024  159.0753 C   0  0  0  0  0  0  0  0  0  0  0  0
  147.7094  135.8565  160.1917 N   0  0  0  0  0  0  0  0  0  0  0  0
  147.8654  134.4870  159.8997 C   0  0  0  0  0  0  0  0  0  0  0  0
  147.7271  133.5342  160.8423 C   0  0  0  0  0  0  0  0  0  0  0  0
  147.8818  132.1319  160.5233 N   0  3  0  0  0  0  0  0  0  0  0  0
  147.7727  131.3079  161.4255 O   0  0  0  0  0  0  0  0  0  0  0  0
  148.1173  131.8076  159.3631 O   0  5  0  0  0  0  0  0  0  0  0  0
  147.4112  133.9615  162.1916 C   0  0  0  0  0  0  0  0  0  0  0  0
  147.2571  135.2696  162.4763 C   0  0  0  0  0  0  0  0  0  0  0  0
  147.4021  136.3042  161.4474 C   0  0  0  0  0  0  0  0  0  0  0  0
  147.2565  137.5007  161.6985 O   0  0  0  0  0  0  0  0  0  0  0  0
  151.7299  138.8935  157.7858 C   0  0  0  0  0  0  0  0  0  0  0  0
  151.0840  140.1717  158.3605 C   0  0  0  0  0  0  0  0  0  0  0  0
  151.1471  141.4147  157.4564 C   0  0  0  0  0  0  0  0  0  0  0  0
  150.9008  141.1931  155.9541 C   0  0  0  0  0  0  0  0  0  0  0  0
  149.8786  140.1014  155.6007 C   0  0  0  0  0  0  0  0  0  0  0  0
  150.5088  138.6967  155.5342 C   0  0  0  0  0  0  0  0  0  0  0  0
  148.7294  138.2145  157.1731 H   0  0  0  0  0  0  0  0  0  0  0  0
  147.5517  137.8025  159.3703 H   0  0  0  0  0  0  0  0  0  0  0  0
  147.2146  136.5264  158.2484 H   0  0  0  0  0  0  0  0  0  0  0  0
  148.0920  134.2723  158.8652 H   0  0  0  0  0  0  0  0  0  0  0  0
  147.2945  133.2363  162.9833 H   0  0  0  0  0  0  0  0  0  0  0  0
  147.0209  135.5658  163.4879 H   0  0  0  0  0  0  0  0  0  0  0  0
  152.0579  138.2857  158.6297 H   0  0  0  0  0  0  0  0  0  0  0  0
  152.6465  139.1493  157.2528 H   0  0  0  0  0  0  0  0  0  0  0  0
  150.0501  139.9864  158.6489 H   0  0  0  0  0  0  0  0  0  0  0  0
  151.5883  140.4221  159.2944 H   0  0  0  0  0  0  0  0  0  0  0  0
  150.4237  142.1394  157.8318 H   0  0  0  0  0  0  0  0  0  0  0  0
  152.1210  141.8916  157.5726 H   0  0  0  0  0  0  0  0  0  0  0  0
  150.5698  142.1402  155.5266 H   0  0  0  0  0  0  0  0  0  0  0  0
  151.8479  140.9748  155.4591 H   0  0  0  0  0  0  0  0  0  0  0  0
  149.0200  140.1302  156.2722 H   0  0  0  0  0  0  0  0  0  0  0  0
  149.4839  140.3272  154.6096 H   0  0  0  0  0  0  0  0  0  0  0  0
  151.4211  138.7435  154.9376 H   0  0  0  0  0  0  0  0  0  0  0  0
  149.8369  138.0488  154.9690 H   0  0  0  0  0  0  0  0  0  0  0  0
  1  2  3  0  0  0  0
  2  3  1  0  0  0  0
  3 23  1  0  0  0  0
  3  4  1  0  0  0  0
  3 18  1  0  0  0  0
  4  5  1  0  0  0  0
  4 24  1  0  0  0  0
  5  6  2  0  0  0  0
  5  7  1  0  0  0  0
  7  8  1  0  0  0  0
  7 25  1  0  0  0  0
  7 26  1  0  0  0  0
  8 16  1  0  0  0  0
  8  9  1  0  0  0  0
  9 10  2  0  0  0  0
  9 27  1  0  0  0  0
 10 11  1  0  0  0  0
 10 14  1  0  0  0  0
 11 12  2  0  0  0  0
 11 13  1  0  0  0  0
 14 15  2  0  0  0  0
 14 28  1  0  0  0  0
 15 16  1  0  0  0  0
 15 29  1  0  0  0  0
 16 17  2  0  0  0  0
 18 19  1  0  0  0  0
 18 30  1  0  0  0  0
 18 31  1  0  0  0  0
 19 20  1  0  0  0  0
 19 32  1  0  0  0  0
 19 33  1  0  0  0  0
 20 21  1  0  0  0  0
 20 34  1  0  0  0  0
 20 35  1  0  0  0  0
 21 22  1  0  0  0  0
 21 36  1  0  0  0  0
 21 37  1  0  0  0  0
 22 23  1  0  0  0  0
 22 38  1  0  0  0  0
 22 39  1  0  0  0  0
 23 40  1  0  0  0  0
 23 41  1  0  0  0  0
M  CHG  1  11   1
M  CHG  1  13  -1
M  END
> <s_m_source_file>
AV-unprocessed.smi

> <i_m_source_file_index>
638

> <i_lp_mmshare_version>
43012

> <i_f3d_flags>
0

> <s_epik_input>
W0NIMl0xW0NIMl1bQ0gyXVtDSDJdW0NIMl1bQ0gyXUMxKEMjTilbTkhdQyg9TylbQ0gyXW4yW2NIXWMoW04rXSg9TylbTy1dKVtjSF1bY0hdYzI9Tw==

> <s_epik_cmdline>
J2VwaWtfcHl0aG9uJywgJy1waCcsICc3LjAnLCAnLXRuJywgJzgnLCAnLW1hJywgJzIwMCcsICctbWV0YWxfYmluZGluZycsICctaW1hZScsICc8aW5maWxlLm1hZT4nLCAnLW9tYWUnLCAnPG91dGZpbGUubWFlPic=

> <r_lp_tautomer_probability>
1

> <r_epik_Ionization_Penalty>
4.51205e-07

> <r_epik_Ionization_Penalty_Charging>
6.24361e-11

> <r_epik_Ionization_Penalty_Neutral>
4.51142e-07

> <r_epik_State_Penalty>
-0

> <r_epik_Charging_Adjusted_Penalty>
6.24361e-11

> <i_epik_Tot_Q>
0

> <i_epik_Tot_abs_Q>
2

> <r_epik_Metal_State_Penalty>
-0

> <b_epik_Metal_Only>
0

> <s_lp_Force_Field>
OPLS_2005

> <r_lp_Energy>
29.2466

> <b_lp_Chiralities_Consistent>
1

> <s_lp_Variant>
AV-unprocessed.smi:638-1

> <Gold.Version>
5.8.1

> <Gold.Id.Protein>
6NUR|6NUR_protein|mol2

> <Gold.PLP.Fitness>
46.2137

> <Gold.PLP.PLP>
-36.0940

> <Gold.PLP.part.hbond>
-3.9810

> <Gold.PLP.part.metal>
0.0000

> <Gold.PLP.part.buried>
-4.4318

> <Gold.PLP.part.nonpolar>
-27.2001

> <Gold.PLP.part.repulsive>
0.0448

> <Gold.PLP.ligand.clash>
0.0000

> <Gold.PLP.ligand.torsion>
0.3214

> <Gold.PLP.Chemscore.Hbond>
3.5840

> <Gold.PLP.Chemscore.CHOScore>
0.0000

> <Gold.PLP.Chemscore.Metal>
0.0000

> <Gold.Chemscore.Hbonds>
donor molecule, donor type, donor heavy atom, donor atom, acceptor molecule, acceptor atom, score
      P1  H  6896  6908       L1     6  1.00
      P1  H  6931  6943       L1    17  0.72
      P1  H  6934  6947       L1    17  0.82
      P1  H 10752 10764       L1     1  1.00

> <Gold.PLP.Chemscore.Internal.Correction>
0.0105

> <Gold.Rescore>
     Score         DG    S(hbond)    S(metal)    S(lipo)     H(rot)  DE(clash)    DE(int)     intcor
     19.61     -21.11       3.62        0.00      65.80       1.63       0.00       1.50       ----

> <Gold.Chemscore.Fitness>
19.6108

> <Gold.Chemscore.DG>
-21.1139

> <Gold.Chemscore.ZeroCoef>
-5.4800

> <Gold.Chemscore.Hbond>
3.6241

> <Gold.Chemscore.Metal>
0.0000

> <Gold.Chemscore.Lipo>
65.8019

> <Gold.Chemscore.Internal_Hbond>
0.0000

> <Gold.Chemscore.DEClash>
0.0000

> <Gold.Chemscore.DEInternal>
1.5031

> <Gold.Chemscore.Rot>
1.6287

> <Gold.Chemscore.Internal.Correction>
   9.000000E+99

> <Gold.Chemscore.Hbonds>
donor molecule, donor type, donor heavy atom, donor atom, acceptor molecule, acceptor atom, score
      P1  H  6896  6908       L1     6  0.99
      P1  H  6931  6943       L1    17  0.47
      P1  H  6934  6947       L1    17  0.80
      P1  H 10752 10764       L1     1  1.00

> <Gold.Chemscore.Hbond.Weighted>
-12.1045

> <Gold.Chemscore.Metal.Weighted>
-0.0000

> <Gold.Chemscore.Lipo.Weighted>
-7.6988

> <Gold.Chemscore.Internal_Hbond.Weighted>
0.0000

> <Gold.Chemscore.DEClash.Weighted>
0.0000

> <Gold.Chemscore.DEInternal.Weighted>
1.5031

> <Gold.Chemscore.Rot.Weighted>
4.1694

> <Gold.Chemscore.Internal.Correction.Weighted>
   9.000000E+99

> <Gold.Protein.RotatedTorsions>
[ 6907 6896 6895 6894 ] final -157.14 input  -60.11 | X-H torsion
[ 7974 7965 7964 7962 ] final   50.23 input  175.53 | X-H torsion
[ 8008 7997 7996 7995 ] final  -66.92 input   59.86 | X-H torsion
[ 10167 10162 10161 10158 ] final  -71.75 input  -65.29 | X-H torsion
[ 10718 10713 10712 10709 ] final  169.94 input   66.30 | X-H torsion
[ 10763 10752 10751 10750 ] final  -24.52 input  -60.55 | X-H torsion
[ 11005 11000 10999 10996 ] final  -99.64 input  -57.11 | X-H torsion

> <Gold.Protein.ActiveResidues>
 VAL166  LYS551  ARG553  GLY616  TRP617  ASP618  TYR619  PRO620  LYS621  CYS622 
 ASP623  PHE694  ASN695  SER759  ASP760  ASP761  ALA762  ILE779  LEU786  VAL792 
 PHE793  MET794  SER795  GLU796  ALA797  LYS798  CYS799  TRP800  GLU811  SER814 

> <Gold.Protein.RotatedAtoms>
  151.2982  133.4134  159.2637 H   0  0  0  0  0  0  0  0  0  0  0  0  # atno 6907 bound_to 6896
  151.0218  134.9475  159.8074 H   0  0  0  0  0  0  0  0  0  0  0  0  # atno 6908 bound_to 6896
  152.5326  134.2945  159.9108 H   0  0  0  0  0  0  0  0  0  0  0  0  # atno 6909 bound_to 6896
  146.0032  139.4462  143.0002 H   0  0  0  0  0  0  0  0  0  0  0  0  # atno 7974 bound_to 7965
  154.4766  140.0903  156.7276 H   0  0  0  0  0  0  0  0  0  0  0  0  # atno 8008 bound_to 7997
  155.4581  140.3460  155.4291 H   0  0  0  0  0  0  0  0  0  0  0  0  # atno 8009 bound_to 7997
  156.1125  140.1452  156.9307 H   0  0  0  0  0  0  0  0  0  0  0  0  # atno 8010 bound_to 7997
  140.5248  143.2327  151.7367 H   0  0  0  0  0  0  0  0  0  0  0  0  # atno 10167 bound_to 10162
  157.0154  131.0216  151.2791 H   0  0  0  0  0  0  0  0  0  0  0  0  # atno 10718 bound_to 10713
  153.6852  135.6964  153.5106 H   0  0  0  0  0  0  0  0  0  0  0  0  # atno 10763 bound_to 10752
  153.2455  135.4292  155.0742 H   0  0  0  0  0  0  0  0  0  0  0  0  # atno 10764 bound_to 10752
  154.8389  135.3518  154.6394 H   0  0  0  0  0  0  0  0  0  0  0  0  # atno 10765 bound_to 10752
  141.1301  133.8337  157.0998 H   0  0  0  0  0  0  0  0  0  0  0  0  # atno 11005 bound_to 11000
  145.7456  140.9992  143.1278 LP  0  0  0  0  0  0  0  0  0  0  0  0  # atno 17320 bound_to 7965
  144.6926  139.9152  143.7465 LP  0  0  0  0  0  0  0  0  0  0  0  0  # atno 17321 bound_to 7965
  139.4935  144.4202  151.9986 LP  0  0  0  0  0  0  0  0  0  0  0  0  # atno 17342 bound_to 10162
  140.3300  144.3327  150.5989 LP  0  0  0  0  0  0  0  0  0  0  0  0  # atno 17343 bound_to 10162
  157.5289  130.8046  149.7894 LP  0  0  0  0  0  0  0  0  0  0  0  0  # atno 17370 bound_to 10713
  156.0121  130.3829  150.2230 LP  0  0  0  0  0  0  0  0  0  0  0  0  # atno 17371 bound_to 10713
  140.0340  134.9887  157.0836 LP  0  0  0  0  0  0  0  0  0  0  0  0  # atno 17394 bound_to 11000
  140.4239  134.1851  155.7165 LP  0  0  0  0  0  0  0  0  0  0  0  0  # atno 17395 bound_to 11000

$$$$
