AV-unprocessed.smi:148|AV-procd|sdf|1229|dock5
  -GOLD-   2262018433D 1   1.00000     0.00000
 Structure written by MMmdl.
 63 67  0  0  0  0  0  0  0  0  1 V2000
  151.5711  136.4741  154.1343 O   0  0  0  0  0  0  0  0  0  0  0  0
  151.4337  137.8539  154.4039 C   0  0  0  0  0  0  0  0  0  0  0  0
  150.5415  138.0998  155.6457 C   0  0  1  0  0  0  0  0  0  0  0  0
  151.2261  137.6453  156.9613 C   0  0  0  0  0  0  0  0  0  0  0  0
  150.2932  137.1316  157.9491 N   0  0  0  0  0  0  0  0  0  0  0  0
  150.3535  137.3165  159.3123 C   0  0  0  0  0  0  0  0  0  0  0  0
  149.4000  136.7421  159.9947 N   0  0  0  0  0  0  0  0  0  0  0  0
  148.6266  136.1138  159.0273 C   0  0  0  0  0  0  0  0  0  0  0  0
  147.4584  135.3093  159.0670 C   0  0  0  0  0  0  0  0  0  0  0  0
  146.8507  134.9839  160.2313 N   0  0  0  0  0  0  0  0  0  0  0  0
  147.7139  134.0940  161.0096 C   0  0  0  0  0  0  0  0  0  0  0  0
  146.9943  133.5471  162.2492 C   0  0  0  0  0  0  0  0  0  0  0  0
  146.4544  134.6998  163.1013 C   0  0  0  0  0  0  0  0  0  0  0  0
  145.5324  135.5815  162.2509 C   0  0  0  0  0  0  0  0  0  0  0  0
  146.2498  136.1070  160.9777 C   0  0  2  0  0  0  0  0  0  0  0  0
  145.3429  137.0350  160.0963 C   0  0  2  0  0  0  0  0  0  0  0  0
  144.7394  138.2129  160.8965 C   0  0  0  0  0  0  0  0  0  0  0  0
  143.2224  138.1873  160.6665 C   0  0  0  0  0  0  0  0  0  0  0  0
  142.9093  136.7670  160.2040 C   0  0  0  0  0  0  0  0  0  0  0  0
  144.1334  136.3927  159.3716 C   0  0  2  0  0  0  0  0  0  0  0  0
  144.2128  135.0032  159.1280 O   0  0  0  0  0  0  0  0  0  0  0  0
  146.9568  134.8547  157.8877 N   0  0  0  0  0  0  0  0  0  0  0  0
  147.5695  135.1618  156.7404 C   0  0  0  0  0  0  0  0  0  0  0  0
  148.6720  135.8909  156.5516 N   0  0  0  0  0  0  0  0  0  0  0  0
  149.1715  136.3501  157.7350 C   0  0  0  0  0  0  0  0  0  0  0  0
  150.0215  139.5652  155.6907 C   0  0  1  0  0  0  0  0  0  0  0  0
  149.2128  140.0443  154.4983 C   0  0  0  0  0  0  0  0  0  0  0  0
  148.6126  141.3332  155.0475 C   0  0  0  0  0  0  0  0  0  0  0  0
  148.3411  141.0626  156.4188 O   0  0  0  0  0  0  0  0  0  0  0  0
  149.0999  139.9376  156.8582 C   0  0  0  0  0  0  0  0  0  0  0  0
  151.2043  136.2961  153.2818 H   0  0  0  0  0  0  0  0  0  0  0  0
  152.4393  138.2465  154.5520 H   0  0  0  0  0  0  0  0  0  0  0  0
  151.0252  138.3545  153.5257 H   0  0  0  0  0  0  0  0  0  0  0  0
  149.6626  137.4641  155.5273 H   0  0  0  0  0  0  0  0  0  0  0  0
  151.9707  136.8743  156.7668 H   0  0  0  0  0  0  0  0  0  0  0  0
  151.7556  138.4748  157.4283 H   0  0  0  0  0  0  0  0  0  0  0  0
  151.1333  137.8944  159.7868 H   0  0  0  0  0  0  0  0  0  0  0  0
  148.0446  133.2614  160.3867 H   0  0  0  0  0  0  0  0  0  0  0  0
  148.6102  134.6348  161.3180 H   0  0  0  0  0  0  0  0  0  0  0  0
  146.1735  132.8972  161.9431 H   0  0  0  0  0  0  0  0  0  0  0  0
  147.6768  132.9331  162.8371 H   0  0  0  0  0  0  0  0  0  0  0  0
  145.9125  134.3094  163.9634 H   0  0  0  0  0  0  0  0  0  0  0  0
  147.2810  135.2945  163.4916 H   0  0  0  0  0  0  0  0  0  0  0  0
  144.6553  134.9943  161.9826 H   0  0  0  0  0  0  0  0  0  0  0  0
  145.1680  136.4040  162.8642 H   0  0  0  0  0  0  0  0  0  0  0  0
  147.0858  136.7188  161.3203 H   0  0  0  0  0  0  0  0  0  0  0  0
  145.9642  137.4919  159.3263 H   0  0  0  0  0  0  0  0  0  0  0  0
  144.9568  138.1315  161.9607 H   0  0  0  0  0  0  0  0  0  0  0  0
  145.1603  139.1658  160.5740 H   0  0  0  0  0  0  0  0  0  0  0  0
  142.6602  138.4693  161.5571 H   0  0  0  0  0  0  0  0  0  0  0  0
  142.9618  138.8918  159.8754 H   0  0  0  0  0  0  0  0  0  0  0  0
  142.8145  136.1094  161.0687 H   0  0  0  0  0  0  0  0  0  0  0  0
  141.9806  136.7065  159.6358 H   0  0  0  0  0  0  0  0  0  0  0  0
  144.0324  136.8746  158.3979 H   0  0  0  0  0  0  0  0  0  0  0  0
  144.2350  134.5520  159.9585 H   0  0  0  0  0  0  0  0  0  0  0  0
  147.1132  134.7639  155.8459 H   0  0  0  0  0  0  0  0  0  0  0  0
  150.8892  140.2245  155.7474 H   0  0  0  0  0  0  0  0  0  0  0  0
  149.8171  140.2043  153.6051 H   0  0  0  0  0  0  0  0  0  0  0  0
  148.4061  139.3561  154.2497 H   0  0  0  0  0  0  0  0  0  0  0  0
  149.3369  142.1466  154.9877 H   0  0  0  0  0  0  0  0  0  0  0  0
  147.7127  141.6396  154.5141 H   0  0  0  0  0  0  0  0  0  0  0  0
  148.4022  139.1374  157.1013 H   0  0  0  0  0  0  0  0  0  0  0  0
  149.6618  140.1763  157.7616 H   0  0  0  0  0  0  0  0  0  0  0  0
  1  2  1  0  0  0  0
  1 31  1  0  0  0  0
  2  3  1  0  0  0  0
  2 32  1  0  0  0  0
  2 33  1  0  0  0  0
  3  4  1  0  0  0  0
  3 26  1  0  0  0  0
  3 34  1  0  0  0  0
  4  5  1  0  0  0  0
  4 35  1  0  0  0  0
  4 36  1  0  0  0  0
  5 25  1  0  0  0  0
  5  6  1  0  0  0  0
  6  7  2  0  0  0  0
  6 37  1  0  0  0  0
  7  8  1  0  0  0  0
  8 25  2  0  0  0  0
  8  9  1  0  0  0  0
  9 10  1  0  0  0  0
  9 22  2  0  0  0  0
 10 15  1  0  0  0  0
 10 11  1  0  0  0  0
 11 12  1  0  0  0  0
 11 38  1  0  0  0  0
 11 39  1  0  0  0  0
 12 13  1  0  0  0  0
 12 40  1  0  0  0  0
 12 41  1  0  0  0  0
 13 14  1  0  0  0  0
 13 42  1  0  0  0  0
 13 43  1  0  0  0  0
 14 15  1  0  0  0  0
 14 44  1  0  0  0  0
 14 45  1  0  0  0  0
 15 16  1  0  0  0  0
 15 46  1  0  0  0  0
 16 20  1  0  0  0  0
 16 17  1  0  0  0  0
 16 47  1  0  0  0  0
 17 18  1  0  0  0  0
 17 48  1  0  0  0  0
 17 49  1  0  0  0  0
 18 19  1  0  0  0  0
 18 50  1  0  0  0  0
 18 51  1  0  0  0  0
 19 20  1  0  0  0  0
 19 52  1  0  0  0  0
 19 53  1  0  0  0  0
 20 21  1  0  0  0  0
 20 54  1  0  0  0  0
 21 55  1  0  0  0  0
 22 23  1  0  0  0  0
 23 24  2  0  0  0  0
 23 56  1  0  0  0  0
 24 25  1  0  0  0  0
 26 30  1  0  0  0  0
 26 27  1  0  0  0  0
 26 57  1  0  0  0  0
 27 28  1  0  0  0  0
 27 58  1  0  0  0  0
 27 59  1  0  0  0  0
 28 29  1  0  0  0  0
 28 60  1  0  0  0  0
 28 61  1  0  0  0  0
 29 30  1  0  0  0  0
 30 62  1  0  0  0  0
 30 63  1  0  0  0  0
M  END
> <s_m_source_file>
AV-unprocessed.smi

> <i_m_source_file_index>
148

> <i_lp_mmshare_version>
43012

> <i_f3d_flags>
0

> <s_epik_input>
W0NIMl0xT1tDSDJdW0NIMl1bQ0BIXTFbQ0BIXShbQ0gyXVtPSF0pW0NIMl1uKFtjSF1uMiljKGMyMyluW2NIXW5jM040W0NIMl1bQ0gyXVtDSDJdW0NIMl1bQ0BIXTRbQ0BASF01W0NIMl1bQ0gyXVtDSDJdW0NASF01W09IXQ==

> <s_epik_cmdline>
J2VwaWtfcHl0aG9uJywgJy1waCcsICc3LjAnLCAnLXRuJywgJzgnLCAnLW1hJywgJzIwMCcsICctbWV0YWxfYmluZGluZycsICctaW1hZScsICc8aW5maWxlLm1hZT4nLCAnLW9tYWUnLCAnPG91dGZpbGUubWFlPic=

> <r_lp_tautomer_probability>
1

> <r_epik_Ionization_Penalty>
0.00556303

> <r_epik_Ionization_Penalty_Charging>
0

> <r_epik_Ionization_Penalty_Neutral>
0.00556303

> <r_epik_State_Penalty>
0.00401767

> <r_epik_Charging_Adjusted_Penalty>
0.00401767

> <i_epik_Tot_Q>
0

> <i_epik_Tot_abs_Q>
0

> <r_epik_Metal_State_Penalty>
-0

> <b_epik_Metal_Only>
0

> <s_lp_Force_Field>
OPLS_2005

> <r_lp_Energy>
73.9782

> <b_lp_Chiralities_Consistent>
1

> <s_lp_Variant>
AV-unprocessed.smi:148-28

> <Gold.Version>
5.8.1

> <Gold.Id.Protein>
6NUR|6NUR_protein|mol2

> <Gold.PLP.Fitness>
37.9552

> <Gold.PLP.PLP>
-33.3041

> <Gold.PLP.part.hbond>
-2.7681

> <Gold.PLP.part.metal>
0.0000

> <Gold.PLP.part.buried>
-5.6780

> <Gold.PLP.part.nonpolar>
-25.2014

> <Gold.PLP.part.repulsive>
0.1093

> <Gold.PLP.ligand.clash>
0.0000

> <Gold.PLP.ligand.torsion>
0.9187

> <Gold.PLP.Chemscore.Hbond>
2.0000

> <Gold.PLP.Chemscore.CHOScore>
0.0000

> <Gold.PLP.Chemscore.Metal>
0.0000

> <Gold.Chemscore.Hbonds>
donor molecule, donor type, donor heavy atom, donor atom, acceptor molecule, acceptor atom, score
      L1  H     1    31       P1  7949  1.00
      P1  H 10752 10764       L1     1  1.00

> <Gold.PLP.Chemscore.Internal.Correction>
0.4885

> <Gold.Rescore>
     Score         DG    S(hbond)    S(metal)    S(lipo)     H(rot)  DE(clash)    DE(int)     intcor
     10.77     -12.59       1.71        0.00      84.61       3.32       0.00       1.83       ----

> <Gold.Chemscore.Fitness>
10.7690

> <Gold.Chemscore.DG>
-12.5949

> <Gold.Chemscore.ZeroCoef>
-5.4800

> <Gold.Chemscore.Hbond>
1.7114

> <Gold.Chemscore.Metal>
0.0000

> <Gold.Chemscore.Lipo>
84.6055

> <Gold.Chemscore.Internal_Hbond>
0.0000

> <Gold.Chemscore.DEClash>
0.0009

> <Gold.Chemscore.DEInternal>
1.8250

> <Gold.Chemscore.Rot>
3.3203

> <Gold.Chemscore.Internal.Correction>
   9.000000E+99

> <Gold.Chemscore.Hbonds>
donor molecule, donor type, donor heavy atom, donor atom, acceptor molecule, acceptor atom, score
      L1  H     1    31       P1  7949  0.50
      P1  H  6931  6943       L1     7  0.01
      P1  H 10752 10764       L1     1  0.59

> <Gold.Chemscore.Hbond.Weighted>
-5.7160

> <Gold.Chemscore.Metal.Weighted>
-0.0000

> <Gold.Chemscore.Lipo.Weighted>
-9.8988

> <Gold.Chemscore.Internal_Hbond.Weighted>
0.0000

> <Gold.Chemscore.DEClash.Weighted>
0.0009

> <Gold.Chemscore.DEInternal.Weighted>
1.8250

> <Gold.Chemscore.Rot.Weighted>
8.5000

> <Gold.Chemscore.Internal.Correction.Weighted>
   9.000000E+99

> <Gold.Protein.RotatedTorsions>
[ 6907 6896 6895 6894 ] final -140.91 input  -60.11 | X-H torsion
[ 7974 7965 7964 7962 ] final -126.66 input  175.53 | X-H torsion
[ 8008 7997 7996 7995 ] final   -6.25 input   59.86 | X-H torsion
[ 10167 10162 10161 10158 ] final -101.09 input  -65.29 | X-H torsion
[ 10718 10713 10712 10709 ] final    8.00 input   66.30 | X-H torsion
[ 10763 10752 10751 10750 ] final  -80.70 input  -60.55 | X-H torsion
[ 11005 11000 10999 10996 ] final -136.15 input  -57.11 | X-H torsion

> <Gold.Protein.ActiveResidues>
 VAL166  LYS551  ARG553  GLY616  TRP617  ASP618  TYR619  PRO620  LYS621  CYS622 
 ASP623  PHE694  ASN695  SER759  ASP760  ASP761  ALA762  ILE779  LEU786  VAL792 
 PHE793  MET794  SER795  GLU796  ALA797  LYS798  CYS799  TRP800  GLU811  SER814 

> <Gold.Protein.RotatedAtoms>
  151.0669  133.5498  159.2629 H   0  0  0  0  0  0  0  0  0  0  0  0  # atno 6907 bound_to 6896
  151.2452  135.0602  159.9050 H   0  0  0  0  0  0  0  0  0  0  0  0  # atno 6908 bound_to 6896
  152.5406  134.0437  159.8133 H   0  0  0  0  0  0  0  0  0  0  0  0  # atno 6909 bound_to 6896
  144.9850  140.7677  143.4589 H   0  0  0  0  0  0  0  0  0  0  0  0  # atno 7974 bound_to 7965
  154.5957  140.2438  155.7860 H   0  0  0  0  0  0  0  0  0  0  0  0  # atno 8008 bound_to 7997
  156.2277  140.2977  156.0062 H   0  0  0  0  0  0  0  0  0  0  0  0  # atno 8009 bound_to 7997
  155.2297  140.0403  157.2951 H   0  0  0  0  0  0  0  0  0  0  0  0  # atno 8010 bound_to 7997
  140.2450  143.3512  152.0767 H   0  0  0  0  0  0  0  0  0  0  0  0  # atno 10167 bound_to 10162
  156.9451  130.5876  149.5654 H   0  0  0  0  0  0  0  0  0  0  0  0  # atno 10718 bound_to 10713
  154.5544  135.5652  153.6951 H   0  0  0  0  0  0  0  0  0  0  0  0  # atno 10763 bound_to 10752
  152.9999  135.6259  154.2330 H   0  0  0  0  0  0  0  0  0  0  0  0  # atno 10764 bound_to 10752
  154.2265  135.2867  155.2885 H   0  0  0  0  0  0  0  0  0  0  0  0  # atno 10765 bound_to 10752
  140.8832  134.1906  157.4577 H   0  0  0  0  0  0  0  0  0  0  0  0  # atno 11005 bound_to 11000
  145.2367  139.2091  143.5014 LP  0  0  0  0  0  0  0  0  0  0  0  0  # atno 17320 bound_to 7965
  146.3417  140.2254  142.8592 LP  0  0  0  0  0  0  0  0  0  0  0  0  # atno 17321 bound_to 7965
  139.5065  144.6814  151.5998 LP  0  0  0  0  0  0  0  0  0  0  0  0  # atno 17342 bound_to 10162
  140.6085  143.9481  150.6436 LP  0  0  0  0  0  0  0  0  0  0  0  0  # atno 17343 bound_to 10162
  156.0387  130.5472  150.8718 LP  0  0  0  0  0  0  0  0  0  0  0  0  # atno 17370 bound_to 10713
  157.5759  131.0946  150.9346 LP  0  0  0  0  0  0  0  0  0  0  0  0  # atno 17371 bound_to 10713
  139.8721  134.9826  156.5164 LP  0  0  0  0  0  0  0  0  0  0  0  0  # atno 17394 bound_to 11000
  140.8436  133.8186  155.9099 LP  0  0  0  0  0  0  0  0  0  0  0  0  # atno 17395 bound_to 11000

$$$$
