AV-unprocessed.smi:1101|AV-procd|sdf|4766|dock9
  -GOLD-   22720 3303D 1   1.00000     0.00000
 Structure written by MMmdl.
 41 42  0  0  0  0  0  0  0  0  1 V2000
  151.3324  144.5440  157.6478 C   0  0  0  0  0  0  0  0  0  0  0  0
  151.4571  144.6872  159.1696 C   0  0  0  0  0  0  0  0  0  0  0  0
  151.9481  143.4025  159.8552 C   0  0  1  0  0  0  0  0  0  0  0  0
  153.3415  142.9729  159.3508 C   0  0  0  0  0  0  0  0  0  0  0  0
  153.7468  141.7644  160.0835 N   0  0  0  0  0  0  0  0  0  0  0  0
  153.8334  140.5048  159.5880 C   0  0  0  0  0  0  0  0  0  0  0  0
  153.3015  140.1572  158.5326 O   0  0  0  0  0  0  0  0  0  0  0  0
  154.5239  139.6447  160.3558 N   0  0  0  0  0  0  0  0  0  0  0  0
  154.7515  138.2371  160.0505 C   0  0  0  0  0  0  0  0  0  0  0  0
  154.0653  137.3172  161.0733 C   0  0  0  0  0  0  0  0  0  0  0  0
  154.7300  137.3979  162.4186 C   0  0  0  0  0  0  0  0  0  0  0  0
  154.4559  136.6177  163.5782 C   0  0  0  0  0  0  0  0  0  0  0  0
  155.2248  136.9368  164.6067 N   0  0  0  0  0  0  0  0  0  0  0  0
  156.0132  137.9279  164.1419 N   0  0  0  0  0  0  0  0  0  0  0  0
  156.9962  138.5281  165.0182 C   0  0  0  0  0  0  0  0  0  0  0  0
  155.7362  138.2282  162.8255 C   0  0  0  0  0  0  0  0  0  0  0  0
  153.8384  142.0538  161.5167 C   0  0  0  0  0  0  0  0  0  0  0  0
  152.4506  142.5007  162.0081 C   0  0  0  0  0  0  0  0  0  0  0  0
  152.0235  143.6378  161.2615 O   0  0  0  0  0  0  0  0  0  0  0  0
  151.0009  145.4792  157.1963 H   0  0  0  0  0  0  0  0  0  0  0  0
  150.6093  143.7728  157.3805 H   0  0  0  0  0  0  0  0  0  0  0  0
  152.2890  144.2778  157.1978 H   0  0  0  0  0  0  0  0  0  0  0  0
  152.1506  145.5003  159.3868 H   0  0  0  0  0  0  0  0  0  0  0  0
  150.4950  144.9844  159.5885 H   0  0  0  0  0  0  0  0  0  0  0  0
  151.2308  142.6023  159.6627 H   0  0  0  0  0  0  0  0  0  0  0  0
  153.3198  142.8458  158.2686 H   0  0  0  0  0  0  0  0  0  0  0  0
  154.0694  143.7641  159.5376 H   0  0  0  0  0  0  0  0  0  0  0  0
  154.9222  139.9945  161.2150 H   0  0  0  0  0  0  0  0  0  0  0  0
  154.3577  138.0416  159.0527 H   0  0  0  0  0  0  0  0  0  0  0  0
  155.8228  138.0324  160.0071 H   0  0  0  0  0  0  0  0  0  0  0  0
  153.0115  137.5854  161.1573 H   0  0  0  0  0  0  0  0  0  0  0  0
  154.0802  136.2919  160.7016 H   0  0  0  0  0  0  0  0  0  0  0  0
  153.7245  135.8324  163.7010 H   0  0  0  0  0  0  0  0  0  0  0  0
  157.6116  139.2353  164.4615 H   0  0  0  0  0  0  0  0  0  0  0  0
  157.6393  137.7544  165.4387 H   0  0  0  0  0  0  0  0  0  0  0  0
  156.4932  139.0565  165.8286 H   0  0  0  0  0  0  0  0  0  0  0  0
  156.2727  138.9985  162.2909 H   0  0  0  0  0  0  0  0  0  0  0  0
  154.1838  141.2004  162.1018 H   0  0  0  0  0  0  0  0  0  0  0  0
  154.5697  142.8464  161.6814 H   0  0  0  0  0  0  0  0  0  0  0  0
  151.7231  141.6936  161.9081 H   0  0  0  0  0  0  0  0  0  0  0  0
  152.4910  142.7666  163.0644 H   0  0  0  0  0  0  0  0  0  0  0  0
  1  2  1  0  0  0  0
  1 20  1  0  0  0  0
  1 21  1  0  0  0  0
  1 22  1  0  0  0  0
  2  3  1  0  0  0  0
  2 23  1  0  0  0  0
  2 24  1  0  0  0  0
  3 19  1  0  0  0  0
  3  4  1  0  0  0  0
  3 25  1  0  0  0  0
  4  5  1  0  0  0  0
  4 26  1  0  0  0  0
  4 27  1  0  0  0  0
  5  6  1  0  0  0  0
  5 17  1  0  0  0  0
  6  7  2  0  0  0  0
  6  8  1  0  0  0  0
  8  9  1  0  0  0  0
  8 28  1  0  0  0  0
  9 10  1  0  0  0  0
  9 29  1  0  0  0  0
  9 30  1  0  0  0  0
 10 11  1  0  0  0  0
 10 31  1  0  0  0  0
 10 32  1  0  0  0  0
 11 16  2  0  0  0  0
 11 12  1  0  0  0  0
 12 13  2  0  0  0  0
 12 33  1  0  0  0  0
 13 14  1  0  0  0  0
 14 15  1  0  0  0  0
 14 16  1  0  0  0  0
 15 34  1  0  0  0  0
 15 35  1  0  0  0  0
 15 36  1  0  0  0  0
 16 37  1  0  0  0  0
 17 18  1  0  0  0  0
 17 38  1  0  0  0  0
 17 39  1  0  0  0  0
 18 19  1  0  0  0  0
 18 40  1  0  0  0  0
 18 41  1  0  0  0  0
M  END
> <s_m_source_file>
AV-unprocessed.smi

> <i_m_source_file_index>
1101

> <i_lp_mmshare_version>
43012

> <i_f3d_flags>
0

> <s_epik_input>
W0NIM11bQ0gyXVtDQEBIXTFbQ0gyXU4oW0NIMl1bQ0gyXU8xKUMoPU8pW05IXVtDSDJdW0NIMl1jMltjSF1ubihbQ0gzXSlbY0hdMg==

> <s_epik_cmdline>
J2VwaWtfcHl0aG9uJywgJy1waCcsICc3LjAnLCAnLXRuJywgJzgnLCAnLW1hJywgJzIwMCcsICctbWV0YWxfYmluZGluZycsICctaW1hZScsICc8aW5maWxlLm1hZT4nLCAnLW9tYWUnLCAnPG91dGZpbGUubWFlPic=

> <r_lp_tautomer_probability>
1

> <r_epik_Ionization_Penalty>
0.000536373

> <r_epik_Ionization_Penalty_Charging>
0

> <r_epik_Ionization_Penalty_Neutral>
0.000536373

> <r_epik_State_Penalty>
-0

> <r_epik_Charging_Adjusted_Penalty>
0

> <i_epik_Tot_Q>
0

> <i_epik_Tot_abs_Q>
0

> <r_epik_Metal_State_Penalty>
-0

> <b_epik_Metal_Only>
0

> <s_lp_Force_Field>
OPLS_2005

> <r_lp_Energy>
24.031

> <b_lp_Chiralities_Consistent>
1

> <s_lp_Variant>
AV-unprocessed.smi:1101-2

> <Gold.Version>
5.8.1

> <Gold.Id.Protein>
6NUR|6NUR_protein|mol2

> <Gold.PLP.Fitness>
48.9788

> <Gold.PLP.PLP>
-46.5006

> <Gold.PLP.part.hbond>
-1.0000

> <Gold.PLP.part.metal>
0.0000

> <Gold.PLP.part.buried>
-5.5184

> <Gold.PLP.part.nonpolar>
-40.5690

> <Gold.PLP.part.repulsive>
1.0980

> <Gold.PLP.ligand.clash>
0.0000

> <Gold.PLP.ligand.torsion>
0.2730

> <Gold.PLP.Chemscore.Hbond>
0.9920

> <Gold.PLP.Chemscore.CHOScore>
0.0000

> <Gold.PLP.Chemscore.Metal>
0.0000

> <Gold.Chemscore.Hbonds>
donor molecule, donor type, donor heavy atom, donor atom, acceptor molecule, acceptor atom, score
      P1  H  7997  8010       L1     7  0.98

> <Gold.PLP.Chemscore.Internal.Correction>
0.0481

> <Gold.Rescore>
     Score         DG    S(hbond)    S(metal)    S(lipo)     H(rot)  DE(clash)    DE(int)     intcor
     15.57     -16.99       0.70        0.00     111.43       1.51       0.14       1.28       ----

> <Gold.Chemscore.Fitness>
15.5736

> <Gold.Chemscore.DG>
-16.9870

> <Gold.Chemscore.ZeroCoef>
-5.4800

> <Gold.Chemscore.Hbond>
0.6962

> <Gold.Chemscore.Metal>
0.0000

> <Gold.Chemscore.Lipo>
111.4330

> <Gold.Chemscore.Internal_Hbond>
0.0000

> <Gold.Chemscore.DEClash>
0.1375

> <Gold.Chemscore.DEInternal>
1.2760

> <Gold.Chemscore.Rot>
1.5062

> <Gold.Chemscore.Internal.Correction>
   9.000000E+99

> <Gold.Chemscore.Hbonds>
donor molecule, donor type, donor heavy atom, donor atom, acceptor molecule, acceptor atom, score
      P1  H  7997  8010       L1     7  0.64

> <Gold.Chemscore.Hbond.Weighted>
-2.3252

> <Gold.Chemscore.Metal.Weighted>
-0.0000

> <Gold.Chemscore.Lipo.Weighted>
-13.0377

> <Gold.Chemscore.Internal_Hbond.Weighted>
0.0000

> <Gold.Chemscore.DEClash.Weighted>
0.1375

> <Gold.Chemscore.DEInternal.Weighted>
1.2760

> <Gold.Chemscore.Rot.Weighted>
3.8558

> <Gold.Chemscore.Internal.Correction.Weighted>
   9.000000E+99

> <Gold.Protein.RotatedTorsions>
[ 6907 6896 6895 6894 ] final   94.81 input  -60.11 | X-H torsion
[ 7974 7965 7964 7962 ] final   86.23 input  175.53 | X-H torsion
[ 8008 7997 7996 7995 ] final   27.15 input   59.86 | X-H torsion
[ 10167 10162 10161 10158 ] final   68.44 input  -65.29 | X-H torsion
[ 10718 10713 10712 10709 ] final   11.08 input   66.30 | X-H torsion
[ 10763 10752 10751 10750 ] final  158.07 input  -60.55 | X-H torsion
[ 11005 11000 10999 10996 ] final  -10.74 input  -57.11 | X-H torsion

> <Gold.Protein.ActiveResidues>
 VAL166  LYS551  ARG553  GLY616  TRP617  ASP618  TYR619  PRO620  LYS621  CYS622 
 ASP623  PHE694  ASN695  SER759  ASP760  ASP761  ALA762  ILE779  LEU786  VAL792 
 PHE793  MET794  SER795  GLU796  ALA797  LYS798  CYS799  TRP800  GLU811  SER814 

> <Gold.Protein.RotatedAtoms>
  152.5447  134.1136  159.8368 H   0  0  0  0  0  0  0  0  0  0  0  0  # atno 6907 bound_to 6896
  151.1200  133.5103  159.2610 H   0  0  0  0  0  0  0  0  0  0  0  0  # atno 6908 bound_to 6896
  151.1789  135.0362  159.8838 H   0  0  0  0  0  0  0  0  0  0  0  0  # atno 6909 bound_to 6896
  145.5750  139.2318  143.2384 H   0  0  0  0  0  0  0  0  0  0  0  0  # atno 7974 bound_to 7965
  155.0384  140.3166  155.4733 H   0  0  0  0  0  0  0  0  0  0  0  0  # atno 8008 bound_to 7997
  156.2860  140.2167  156.5450 H   0  0  0  0  0  0  0  0  0  0  0  0  # atno 8009 bound_to 7997
  154.7310  140.0481  157.0714 H   0  0  0  0  0  0  0  0  0  0  0  0  # atno 8010 bound_to 7997
  140.0787  144.5090  150.7177 H   0  0  0  0  0  0  0  0  0  0  0  0  # atno 10167 bound_to 10162
  156.9903  130.6040  149.5685 H   0  0  0  0  0  0  0  0  0  0  0  0  # atno 10718 bound_to 10713
  154.2102  135.2786  155.2961 H   0  0  0  0  0  0  0  0  0  0  0  0  # atno 10763 bound_to 10752
  154.5784  135.5597  153.7165 H   0  0  0  0  0  0  0  0  0  0  0  0  # atno 10764 bound_to 10752
  153.0066  135.6339  154.2241 H   0  0  0  0  0  0  0  0  0  0  0  0  # atno 10765 bound_to 10752
  140.7479  133.8616  155.9020 H   0  0  0  0  0  0  0  0  0  0  0  0  # atno 11005 bound_to 11000
  146.1757  140.6577  142.9212 LP  0  0  0  0  0  0  0  0  0  0  0  0  # atno 17320 bound_to 7965
  144.7420  140.4967  143.6862 LP  0  0  0  0  0  0  0  0  0  0  0  0  # atno 17321 bound_to 7965
  140.7089  143.2489  151.4642 LP  0  0  0  0  0  0  0  0  0  0  0  0  # atno 17342 bound_to 10162
  139.5792  144.1747  152.1946 LP  0  0  0  0  0  0  0  0  0  0  0  0  # atno 17343 bound_to 10162
  156.0210  130.5304  150.8274 LP  0  0  0  0  0  0  0  0  0  0  0  0  # atno 17370 bound_to 10713
  157.5463  131.0942  150.9757 LP  0  0  0  0  0  0  0  0  0  0  0  0  # atno 17371 bound_to 10713
  140.9778  134.1446  157.4521 LP  0  0  0  0  0  0  0  0  0  0  0  0  # atno 17394 bound_to 11000
  139.8793  135.0000  156.5987 LP  0  0  0  0  0  0  0  0  0  0  0  0  # atno 17395 bound_to 11000

$$$$
