AV-unprocessed.smi:37|AV-procd|sdf|303|dock2
  -GOLD-   2262016113D 1   1.00000     0.00000
 Structure written by MMmdl.
 44 45  0  0  0  0  0  0  0  0  1 V2000
  144.7614  131.5938  150.8458 C   0  0  0  0  0  0  0  0  0  0  0  0
  145.8317  132.5393  151.4105 C   0  0  0  0  0  0  0  0  0  0  0  0
  146.6234  131.9423  152.5760 C   0  0  0  0  0  0  0  0  0  0  0  0
  146.4050  130.8110  153.0133 O   0  0  0  0  0  0  0  0  0  0  0  0
  147.5532  132.7917  153.0376 O   0  0  0  0  0  0  0  0  0  0  0  0
  148.4667  132.3586  154.0316 C   0  0  0  0  0  0  0  0  0  0  0  0
  148.7177  133.4999  155.0223 C   0  0  2  0  0  0  0  0  0  0  0  0
  149.5750  134.4817  154.4393 O   0  0  0  0  0  0  0  0  0  0  0  0
  150.5654  134.8639  155.3469 C   0  0  1  0  0  0  0  0  0  0  0  0
  150.7275  136.3661  155.3340 N   0  0  0  0  0  0  0  0  0  0  0  0
  149.8374  137.2013  154.6691 C   0  0  0  0  0  0  0  0  0  0  0  0
  149.9698  138.5487  154.6502 C   0  0  0  0  0  0  0  0  0  0  0  0
  149.0678  139.2946  153.9898 F   0  0  0  0  0  0  0  0  0  0  0  0
  151.0784  139.1990  155.3434 C   0  0  0  0  0  0  0  0  0  0  0  0
  151.2843  140.4105  155.3795 O   0  0  0  0  0  0  0  0  0  0  0  0
  151.9419  138.3196  156.0037 N   0  0  0  0  0  0  0  0  0  0  0  0
  151.8155  136.9299  156.0337 C   0  0  0  0  0  0  0  0  0  0  0  0
  152.6301  136.2476  156.6537 O   0  0  0  0  0  0  0  0  0  0  0  0
  150.1502  134.3193  156.7185 C   0  0  1  0  0  0  0  0  0  0  0  0
  148.8708  135.5366  157.6626 Br  0  0  0  0  0  0  0  0  0  0  0  0
  149.4439  133.0445  156.2901 C   0  0  1  0  0  0  0  0  0  0  0  0
  148.5388  132.5543  157.2706 O   0  0  0  0  0  0  0  0  0  0  0  0
  148.9901  132.1787  158.4808 C   0  0  0  0  0  0  0  0  0  0  0  0
  150.1693  132.0082  158.7904 O   0  0  0  0  0  0  0  0  0  0  0  0
  147.8635  131.9716  159.4900 C   0  0  0  0  0  0  0  0  0  0  0  0
  148.3962  131.6140  160.8841 C   0  0  0  0  0  0  0  0  0  0  0  0
  152.7206  138.7250  156.5024 H   0  0  0  0  0  0  0  0  0  0  0  0
  144.2241  132.0697  150.0256 H   0  0  0  0  0  0  0  0  0  0  0  0
  144.0282  131.3228  151.6063 H   0  0  0  0  0  0  0  0  0  0  0  0
  145.2053  130.6754  150.4599 H   0  0  0  0  0  0  0  0  0  0  0  0
  146.5324  132.8131  150.6212 H   0  0  0  0  0  0  0  0  0  0  0  0
  145.3622  133.4632  151.7491 H   0  0  0  0  0  0  0  0  0  0  0  0
  148.0362  131.5049  154.5571 H   0  0  0  0  0  0  0  0  0  0  0  0
  149.4031  132.0290  153.5793 H   0  0  0  0  0  0  0  0  0  0  0  0
  147.7789  133.9864  155.2931 H   0  0  0  0  0  0  0  0  0  0  0  0
  151.5116  134.4501  154.9917 H   0  0  0  0  0  0  0  0  0  0  0  0
  148.9904  136.7798  154.1480 H   0  0  0  0  0  0  0  0  0  0  0  0
  151.0140  134.1522  157.3624 H   0  0  0  0  0  0  0  0  0  0  0  0
  150.1835  132.2880  156.0208 H   0  0  0  0  0  0  0  0  0  0  0  0
  147.2634  132.8804  159.5405 H   0  0  0  0  0  0  0  0  0  0  0  0
  147.2074  131.1789  159.1296 H   0  0  0  0  0  0  0  0  0  0  0  0
  147.5724  131.4389  161.5761 H   0  0  0  0  0  0  0  0  0  0  0  0
  149.0082  132.4166  161.2972 H   0  0  0  0  0  0  0  0  0  0  0  0
  149.0031  130.7083  160.8563 H   0  0  0  0  0  0  0  0  0  0  0  0
  1  2  1  0  0  0  0
  1 28  1  0  0  0  0
  1 29  1  0  0  0  0
  1 30  1  0  0  0  0
  2  3  1  0  0  0  0
  2 31  1  0  0  0  0
  2 32  1  0  0  0  0
  3  4  2  0  0  0  0
  3  5  1  0  0  0  0
  5  6  1  0  0  0  0
  6  7  1  0  0  0  0
  6 33  1  0  0  0  0
  6 34  1  0  0  0  0
  7 21  1  0  0  0  0
  7  8  1  0  0  0  0
  7 35  1  0  0  0  0
  8  9  1  0  0  0  0
  9 10  1  0  0  0  0
  9 19  1  0  0  0  0
  9 36  1  0  0  0  0
 10 17  1  0  0  0  0
 10 11  1  0  0  0  0
 11 12  2  0  0  0  0
 11 37  1  0  0  0  0
 12 13  1  0  0  0  0
 12 14  1  0  0  0  0
 14 15  2  0  0  0  0
 14 16  1  0  0  0  0
 16 27  1  0  0  0  0
 16 17  1  0  0  0  0
 17 18  2  0  0  0  0
 19 20  1  0  0  0  0
 19 21  1  0  0  0  0
 19 38  1  0  0  0  0
 21 22  1  0  0  0  0
 21 39  1  0  0  0  0
 22 23  1  0  0  0  0
 23 24  2  0  0  0  0
 23 25  1  0  0  0  0
 25 26  1  0  0  0  0
 25 40  1  0  0  0  0
 25 41  1  0  0  0  0
 26 42  1  0  0  0  0
 26 43  1  0  0  0  0
 26 44  1  0  0  0  0
M  END
> <s_m_source_file>
AV-unprocessed.smi

> <i_m_source_file_index>
37

> <i_lp_mmshare_version>
43012

> <i_f3d_flags>
0

> <s_epik_input>
W0NIM11bQ0gyXUMoPU8pT1tDSDJdW0NAQEhdMU9bQ0BASF0objJbY0hdYyhGKWMoPU8pW25IXWMyPU8pW0NAQEhdKEJyKVtDQEhdMU9DKD1PKVtDSDJdW0NIM10=

> <s_epik_cmdline>
J2VwaWtfcHl0aG9uJywgJy1waCcsICc3LjAnLCAnLXRuJywgJzgnLCAnLW1hJywgJzIwMCcsICctbWV0YWxfYmluZGluZycsICctaW1hZScsICc8aW5maWxlLm1hZT4nLCAnLW9tYWUnLCAnPG91dGZpbGUubWFlPic=

> <r_lp_tautomer_probability>
0.999537

> <r_epik_Ionization_Penalty>
0.104106

> <r_epik_Ionization_Penalty_Charging>
0.104106

> <r_epik_Ionization_Penalty_Neutral>
3.94675e-16

> <r_epik_State_Penalty>
0.0940182

> <r_epik_Charging_Adjusted_Penalty>
0.198124

> <i_epik_Tot_Q>
0

> <i_epik_Tot_abs_Q>
0

> <r_epik_Metal_State_Penalty>
3.05314

> <b_epik_Metal_Only>
0

> <s_epik_Chemistry_Notes>
This compound has an ester and may undergo hydrolysis at high or low pH. This compound contains an acetal/aminal-like group ( X-CH(R)-Y where X, Y are N, S, or O) that may be acid/base labile, releasing an aldehyde.

> <s_lp_Force_Field>
OPLS_2005

> <r_lp_Energy>
25.209

> <b_lp_Chiralities_Consistent>
1

> <s_lp_Variant>
AV-unprocessed.smi:37-1

> <Gold.Version>
5.8.1

> <Gold.Id.Protein>
6NUR|6NUR_protein|mol2

> <Gold.PLP.Fitness>
41.3443

> <Gold.PLP.PLP>
-31.2407

> <Gold.PLP.part.hbond>
-3.0000

> <Gold.PLP.part.metal>
0.0000

> <Gold.PLP.part.buried>
-1.1565

> <Gold.PLP.part.nonpolar>
-28.6186

> <Gold.PLP.part.repulsive>
1.4249

> <Gold.PLP.ligand.clash>
0.0000

> <Gold.PLP.ligand.torsion>
0.7329

> <Gold.PLP.Chemscore.Hbond>
2.7986

> <Gold.PLP.Chemscore.CHOScore>
1.0000

> <Gold.PLP.Chemscore.Metal>
0.0000

> <Gold.Chemscore.Hbonds>
donor molecule, donor type, donor heavy atom, donor atom, acceptor molecule, acceptor atom, score
      P1  H  6896  6909       L1    24  0.90
      P1  H  7989  7998       L1    15  0.94
      P1  H 10752 10765       L1    18  1.00
      L1  C    11    37       P1  7948  0.88

> <Gold.PLP.Chemscore.Internal.Correction>
0.1737

> <Gold.Rescore>
     Score         DG    S(hbond)    S(metal)    S(lipo)     H(rot)  DE(clash)    DE(int)     intcor
      6.80     -10.67       2.03        0.00      59.35       3.33       1.63       2.24       ----

> <Gold.Chemscore.Fitness>
6.7982

> <Gold.Chemscore.DG>
-10.6698

> <Gold.Chemscore.ZeroCoef>
-5.4800

> <Gold.Chemscore.Hbond>
2.0275

> <Gold.Chemscore.Metal>
0.0000

> <Gold.Chemscore.Lipo>
59.3455

> <Gold.Chemscore.Internal_Hbond>
0.0000

> <Gold.Chemscore.DEClash>
1.6314

> <Gold.Chemscore.DEInternal>
2.2402

> <Gold.Chemscore.Rot>
3.3303

> <Gold.Chemscore.Internal.Correction>
   9.000000E+99

> <Gold.Chemscore.Hbonds>
donor molecule, donor type, donor heavy atom, donor atom, acceptor molecule, acceptor atom, score
      P1  H  6896  6909       L1    24  0.88
      P1  H  7989  7998       L1    15  0.40
      P1  H 10752 10765       L1    18  0.48

> <Gold.Chemscore.Hbond.Weighted>
-6.7720

> <Gold.Chemscore.Metal.Weighted>
-0.0000

> <Gold.Chemscore.Lipo.Weighted>
-6.9434

> <Gold.Chemscore.Internal_Hbond.Weighted>
0.0000

> <Gold.Chemscore.DEClash.Weighted>
1.6314

> <Gold.Chemscore.DEInternal.Weighted>
2.2402

> <Gold.Chemscore.Rot.Weighted>
8.5256

> <Gold.Chemscore.Internal.Correction.Weighted>
   9.000000E+99

> <Gold.Protein.RotatedTorsions>
[ 6907 6896 6895 6894 ] final  -39.51 input  -60.11 | X-H torsion
[ 7974 7965 7964 7962 ] final -138.43 input  175.53 | X-H torsion
[ 8008 7997 7996 7995 ] final   52.70 input   59.86 | X-H torsion
[ 10167 10162 10161 10158 ] final   -4.49 input  -65.29 | X-H torsion
[ 10718 10713 10712 10709 ] final   12.50 input   66.30 | X-H torsion
[ 10763 10752 10751 10750 ] final -115.66 input  -60.55 | X-H torsion
[ 11005 11000 10999 10996 ] final   40.71 input  -57.11 | X-H torsion

> <Gold.Protein.ActiveResidues>
 VAL166  LYS551  ARG553  GLY616  TRP617  ASP618  TYR619  PRO620  LYS621  CYS622 
 ASP623  PHE694  ASN695  SER759  ASP760  ASP761  ALA762  ILE779  LEU786  VAL792 
 PHE793  MET794  SER795  GLU796  ALA797  LYS798  CYS799  TRP800  GLU811  SER814 

> <Gold.Protein.RotatedAtoms>
  150.9895  134.9233  159.7890 H   0  0  0  0  0  0  0  0  0  0  0  0  # atno 6907 bound_to 6896
  152.5246  134.3301  159.9190 H   0  0  0  0  0  0  0  0  0  0  0  0  # atno 6908 bound_to 6896
  151.3307  133.3960  159.2697 H   0  0  0  0  0  0  0  0  0  0  0  0  # atno 6909 bound_to 6896
  144.8759  140.6436  143.5237 H   0  0  0  0  0  0  0  0  0  0  0  0  # atno 7974 bound_to 7965
  155.4561  140.3460  155.4307 H   0  0  0  0  0  0  0  0  0  0  0  0  # atno 8008 bound_to 7997
  156.1190  140.1482  156.9261 H   0  0  0  0  0  0  0  0  0  0  0  0  # atno 8009 bound_to 7997
  154.4810  140.0870  156.7355 H   0  0  0  0  0  0  0  0  0  0  0  0  # atno 8010 bound_to 7997
  140.6929  143.6418  150.8429 H   0  0  0  0  0  0  0  0  0  0  0  0  # atno 10167 bound_to 10162
  157.0111  130.6117  149.5708 H   0  0  0  0  0  0  0  0  0  0  0  0  # atno 10718 bound_to 10713
  154.8490  135.4374  154.1698 H   0  0  0  0  0  0  0  0  0  0  0  0  # atno 10763 bound_to 10752
  153.2814  135.6954  153.7388 H   0  0  0  0  0  0  0  0  0  0  0  0  # atno 10764 bound_to 10752
  153.6590  135.3438  155.3097 H   0  0  0  0  0  0  0  0  0  0  0  0  # atno 10765 bound_to 10752
  140.1904  134.3994  155.8150 H   0  0  0  0  0  0  0  0  0  0  0  0  # atno 11005 bound_to 11000
  145.4043  139.1592  143.4160 LP  0  0  0  0  0  0  0  0  0  0  0  0  # atno 17320 bound_to 7965
  146.2962  140.4142  142.8721 LP  0  0  0  0  0  0  0  0  0  0  0  0  # atno 17321 bound_to 7965
  140.0133  143.5619  152.2830 LP  0  0  0  0  0  0  0  0  0  0  0  0  # atno 17342 bound_to 10162
  139.6351  144.7649  151.2454 LP  0  0  0  0  0  0  0  0  0  0  0  0  # atno 17343 bound_to 10162
  156.0136  130.5229  150.8065 LP  0  0  0  0  0  0  0  0  0  0  0  0  # atno 17370 bound_to 10713
  157.5320  131.0937  150.9942 LP  0  0  0  0  0  0  0  0  0  0  0  0  # atno 17371 bound_to 10713
  141.2226  133.7043  156.8085 LP  0  0  0  0  0  0  0  0  0  0  0  0  # atno 17394 bound_to 11000
  140.2166  134.8788  157.3332 LP  0  0  0  0  0  0  0  0  0  0  0  0  # atno 17395 bound_to 11000

$$$$
