AV-unprocessed.smi:103|AV-procd|sdf|979|dock4
  -GOLD-   2262017543D 1   1.00000     0.00000
 Structure written by MMmdl.
 53 55  0  0  0  0  0  0  0  0  1 V2000
  155.7210  139.8283  161.3951 C   0  0  0  0  0  0  0  0  0  0  0  0
  155.0902  139.4263  160.0683 C   0  0  0  0  0  0  0  0  0  0  0  0
  155.7534  138.9081  159.1700 O   0  0  0  0  0  0  0  0  0  0  0  0
  153.7797  139.7036  160.0221 O   0  0  0  0  0  0  0  0  0  0  0  0
  152.9176  138.8966  159.2370 C   0  0  0  0  0  0  0  0  0  0  0  0
  151.5293  139.5452  159.1885 C   0  0  2  0  0  0  0  0  0  0  0  0
  150.5499  138.5355  159.4344 O   0  0  0  0  0  0  0  0  0  0  0  0
  149.6154  138.5333  158.4044 C   0  0  2  0  0  0  0  0  0  0  0  0
  149.1392  137.1338  158.1868 N   0  0  0  0  0  0  0  0  0  0  0  0
  148.2701  136.3670  158.9369 C   0  0  0  0  0  0  0  0  0  0  0  0
  147.4841  136.8414  160.4727 S   0  0  0  0  0  0  0  0  0  0  0  0
  146.6828  135.2682  160.9850 C   0  0  0  0  0  0  0  0  0  0  0  0
  148.5518  137.1749  161.4276 O   0  0  0  0  0  0  0  0  0  0  0  0
  146.4471  137.8297  160.1376 O   0  0  0  0  0  0  0  0  0  0  0  0
  148.0761  135.1403  158.5346 N   0  0  0  0  0  0  0  0  0  0  0  0
  148.8268  135.0689  157.3697 C   0  0  0  0  0  0  0  0  0  0  0  0
  149.0584  134.0546  156.4068 C   0  0  0  0  0  0  0  0  0  0  0  0
  148.5076  132.8350  156.4819 N   0  0  0  0  0  0  0  0  0  0  0  0
  149.8734  134.3294  155.3615 N   0  0  0  0  0  0  0  0  0  0  0  0
  150.4360  135.5385  155.2643 C   0  0  0  0  0  0  0  0  0  0  0  0
  150.3163  136.5844  156.0862 N   0  0  0  0  0  0  0  0  0  0  0  0
  149.4923  136.3070  157.1394 C   0  0  0  0  0  0  0  0  0  0  0  0
  150.3386  139.0713  157.1745 C   0  0  1  0  0  0  0  0  0  0  0  0
  149.4386  139.5925  156.2030 O   0  0  0  0  0  0  0  0  0  0  0  0
  149.8654  139.8694  154.9589 C   0  0  0  0  0  0  0  0  0  0  0  0
  148.8505  140.6819  154.1667 C   0  0  0  0  0  0  0  0  0  0  0  0
  150.9372  139.5205  154.4638 O   0  0  0  0  0  0  0  0  0  0  0  0
  151.2020  140.1470  157.8081 C   0  0  1  0  0  0  0  0  0  0  0  0
  150.4676  141.3576  157.9717 O   0  0  0  0  0  0  0  0  0  0  0  0
  151.0832  142.4690  158.4114 C   0  0  0  0  0  0  0  0  0  0  0  0
  150.1127  143.6218  158.6299 C   0  0  0  0  0  0  0  0  0  0  0  0
  152.2877  142.5902  158.6348 O   0  0  0  0  0  0  0  0  0  0  0  0
  155.6272  140.9035  161.5481 H   0  0  0  0  0  0  0  0  0  0  0  0
  156.7794  139.5675  161.4113 H   0  0  0  0  0  0  0  0  0  0  0  0
  155.2262  139.3158  162.2201 H   0  0  0  0  0  0  0  0  0  0  0  0
  153.3180  138.7746  158.2295 H   0  0  0  0  0  0  0  0  0  0  0  0
  152.8498  137.9050  159.6864 H   0  0  0  0  0  0  0  0  0  0  0  0
  151.4566  140.2950  159.9778 H   0  0  0  0  0  0  0  0  0  0  0  0
  148.7529  139.1242  158.7059 H   0  0  0  0  0  0  0  0  0  0  0  0
  146.1555  135.4199  161.9263 H   0  0  0  0  0  0  0  0  0  0  0  0
  147.4405  134.4956  161.1123 H   0  0  0  0  0  0  0  0  0  0  0  0
  145.9739  134.9570  160.2179 H   0  0  0  0  0  0  0  0  0  0  0  0
  147.8958  132.6063  157.2522 H   0  0  0  0  0  0  0  0  0  0  0  0
  148.7015  132.1490  155.7669 H   0  0  0  0  0  0  0  0  0  0  0  0
  151.0744  135.6893  154.4061 H   0  0  0  0  0  0  0  0  0  0  0  0
  150.9858  138.2936  156.7665 H   0  0  0  0  0  0  0  0  0  0  0  0
  147.9460  140.0963  154.0010 H   0  0  0  0  0  0  0  0  0  0  0  0
  149.2602  140.9669  153.1975 H   0  0  0  0  0  0  0  0  0  0  0  0
  148.5828  141.5887  154.7093 H   0  0  0  0  0  0  0  0  0  0  0  0
  152.0941  140.3238  157.2049 H   0  0  0  0  0  0  0  0  0  0  0  0
  149.4334  143.3938  159.4515 H   0  0  0  0  0  0  0  0  0  0  0  0
  149.5231  143.7971  157.7299 H   0  0  0  0  0  0  0  0  0  0  0  0
  150.6535  144.5371  158.8718 H   0  0  0  0  0  0  0  0  0  0  0  0
  1  2  1  0  0  0  0
  1 33  1  0  0  0  0
  1 34  1  0  0  0  0
  1 35  1  0  0  0  0
  2  3  2  0  0  0  0
  2  4  1  0  0  0  0
  4  5  1  0  0  0  0
  5  6  1  0  0  0  0
  5 36  1  0  0  0  0
  5 37  1  0  0  0  0
  6 28  1  0  0  0  0
  6  7  1  0  0  0  0
  6 38  1  0  0  0  0
  7  8  1  0  0  0  0
  8  9  1  0  0  0  0
  8 23  1  0  0  0  0
  8 39  1  0  0  0  0
  9 22  1  0  0  0  0
  9 10  1  0  0  0  0
 10 11  1  0  0  0  0
 10 15  2  0  0  0  0
 11 12  1  0  0  0  0
 11 13  2  0  0  0  0
 11 14  2  0  0  0  0
 12 40  1  0  0  0  0
 12 41  1  0  0  0  0
 12 42  1  0  0  0  0
 15 16  1  0  0  0  0
 16 22  2  0  0  0  0
 16 17  1  0  0  0  0
 17 18  1  0  0  0  0
 17 19  2  0  0  0  0
 18 43  1  0  0  0  0
 18 44  1  0  0  0  0
 19 20  1  0  0  0  0
 20 21  2  0  0  0  0
 20 45  1  0  0  0  0
 21 22  1  0  0  0  0
 23 24  1  0  0  0  0
 23 28  1  0  0  0  0
 23 46  1  0  0  0  0
 24 25  1  0  0  0  0
 25 26  1  0  0  0  0
 25 27  2  0  0  0  0
 26 47  1  0  0  0  0
 26 48  1  0  0  0  0
 26 49  1  0  0  0  0
 28 29  1  0  0  0  0
 28 50  1  0  0  0  0
 29 30  1  0  0  0  0
 30 31  1  0  0  0  0
 30 32  2  0  0  0  0
 31 51  1  0  0  0  0
 31 52  1  0  0  0  0
 31 53  1  0  0  0  0
M  END
> <s_m_source_file>
AV-unprocessed.smi

> <i_m_source_file_index>
103

> <i_lp_mmshare_version>
43012

> <i_f3d_flags>
0

> <s_epik_input>
W0NIM11DKD1PKU9bQ0gyXVtDQEBIXTFPW0NASF0oW0NAQEhdKE9DKD1PKVtDSDNdKVtDQEhdMU9DKD1PKVtDSDNdKW4oYyhuMilTKD1PKSg9TylbQ0gzXSljKGMyMyluW2NIXW5jM1tOSDJd

> <s_epik_cmdline>
J2VwaWtfcHl0aG9uJywgJy1waCcsICc3LjAnLCAnLXRuJywgJzgnLCAnLW1hJywgJzIwMCcsICctbWV0YWxfYmluZGluZycsICctaW1hZScsICc8aW5maWxlLm1hZT4nLCAnLW9tYWUnLCAnPG91dGZpbGUubWFlPic=

> <r_lp_tautomer_probability>
1

> <r_epik_Ionization_Penalty>
1.51338e-05

> <r_epik_Ionization_Penalty_Charging>
0

> <r_epik_Ionization_Penalty_Neutral>
1.51338e-05

> <r_epik_State_Penalty>
-0

> <r_epik_Charging_Adjusted_Penalty>
0

> <i_epik_Tot_Q>
0

> <i_epik_Tot_abs_Q>
0

> <r_epik_Metal_State_Penalty>
-0

> <b_epik_Metal_Only>
0

> <s_epik_Chemistry_Notes>
This compound has an ester and may undergo hydrolysis at high or low pH. This compound contains an acetal/aminal-like group ( X-CH(R)-Y where X, Y are N, S, or O) that may be acid/base labile, releasing an aldehyde.

> <s_lp_Force_Field>
OPLS_2005

> <r_lp_Energy>
16.6357

> <b_lp_Chiralities_Consistent>
1

> <s_lp_Variant>
AV-unprocessed.smi:103-3

> <Gold.Version>
5.8.1

> <Gold.Id.Protein>
6NUR|6NUR_protein|mol2

> <Gold.PLP.Fitness>
42.8154

> <Gold.PLP.PLP>
-32.7527

> <Gold.PLP.part.hbond>
-4.7068

> <Gold.PLP.part.metal>
0.0000

> <Gold.PLP.part.buried>
-6.5885

> <Gold.PLP.part.nonpolar>
-22.5461

> <Gold.PLP.part.repulsive>
0.3945

> <Gold.PLP.ligand.clash>
1.2788

> <Gold.PLP.ligand.torsion>
2.9492

> <Gold.PLP.Chemscore.Hbond>
4.0000

> <Gold.PLP.Chemscore.CHOScore>
1.0000

> <Gold.PLP.Chemscore.Metal>
0.0000

> <Gold.Chemscore.Hbonds>
donor molecule, donor type, donor heavy atom, donor atom, acceptor molecule, acceptor atom, score
      P1  H  6931  6943       L1    13  0.34
      P1  H  6934  6947       L1    14  0.75
      P1  H  7989  7998       L1    27  1.00
      P1  H  7997  8010       L1     3  0.62
      L1  C    20    45       P1  7949  0.03

> <Gold.PLP.Chemscore.Internal.Correction>
2.2400

> <Gold.Rescore>
     Score         DG    S(hbond)    S(metal)    S(lipo)     H(rot)  DE(clash)    DE(int)     intcor
      7.29     -11.80       3.71        0.00      41.01       4.25       0.05       4.46       ----

> <Gold.Chemscore.Fitness>
7.2887

> <Gold.Chemscore.DG>
-11.7990

> <Gold.Chemscore.ZeroCoef>
-5.4800

> <Gold.Chemscore.Hbond>
3.7094

> <Gold.Chemscore.Metal>
0.0000

> <Gold.Chemscore.Lipo>
41.0104

> <Gold.Chemscore.Internal_Hbond>
0.0000

> <Gold.Chemscore.DEClash>
0.0504

> <Gold.Chemscore.DEInternal>
4.4599

> <Gold.Chemscore.Rot>
4.2456

> <Gold.Chemscore.Internal.Correction>
   9.000000E+99

> <Gold.Chemscore.Hbonds>
donor molecule, donor type, donor heavy atom, donor atom, acceptor molecule, acceptor atom, score
      P1  H  6931  6943       L1    13  0.35
      P1  H  6934  6947       L1    14  0.09
      P1  H  7989  7998       L1    27  0.74
      P1  H  7997  8010       L1     3  0.34

> <Gold.Chemscore.Hbond.Weighted>
-12.3894

> <Gold.Chemscore.Metal.Weighted>
-0.0000

> <Gold.Chemscore.Lipo.Weighted>
-4.7982

> <Gold.Chemscore.Internal_Hbond.Weighted>
0.0000

> <Gold.Chemscore.DEClash.Weighted>
0.0504

> <Gold.Chemscore.DEInternal.Weighted>
4.4599

> <Gold.Chemscore.Rot.Weighted>
10.8687

> <Gold.Chemscore.Internal.Correction.Weighted>
   9.000000E+99

> <Gold.Protein.RotatedTorsions>
[ 6907 6896 6895 6894 ] final  -43.15 input  -60.11 | X-H torsion
[ 7974 7965 7964 7962 ] final -155.88 input  175.53 | X-H torsion
[ 8008 7997 7996 7995 ] final   -6.15 input   59.86 | X-H torsion
[ 10167 10162 10161 10158 ] final   38.33 input  -65.29 | X-H torsion
[ 10718 10713 10712 10709 ] final -112.16 input   66.30 | X-H torsion
[ 10763 10752 10751 10750 ] final  -90.56 input  -60.55 | X-H torsion
[ 11005 11000 10999 10996 ] final   61.69 input  -57.11 | X-H torsion

> <Gold.Protein.ActiveResidues>
 VAL166  LYS551  ARG553  GLY616  TRP617  ASP618  TYR619  PRO620  LYS621  CYS622 
 ASP623  PHE694  ASN695  SER759  ASP760  ASP761  ALA762  ILE779  LEU786  VAL792 
 PHE793  MET794  SER795  GLU796  ALA797  LYS798  CYS799  TRP800  GLU811  SER814 

> <Gold.Protein.RotatedAtoms>
  150.9471  134.8875  159.7648 H   0  0  0  0  0  0  0  0  0  0  0  0  # atno 6907 bound_to 6896
  152.5104  134.3859  159.9377 H   0  0  0  0  0  0  0  0  0  0  0  0  # atno 6908 bound_to 6896
  151.3877  133.3759  159.2752 H   0  0  0  0  0  0  0  0  0  0  0  0  # atno 6909 bound_to 6896
  144.7619  140.4187  143.5970 H   0  0  0  0  0  0  0  0  0  0  0  0  # atno 7974 bound_to 7965
  154.5966  140.2440  155.7848 H   0  0  0  0  0  0  0  0  0  0  0  0  # atno 8008 bound_to 7997
  156.2283  140.2975  156.0077 H   0  0  0  0  0  0  0  0  0  0  0  0  # atno 8009 bound_to 7997
  155.2282  140.0402  157.2949 H   0  0  0  0  0  0  0  0  0  0  0  0  # atno 8010 bound_to 7997
  140.3947  144.1805  150.6131 H   0  0  0  0  0  0  0  0  0  0  0  0  # atno 10167 bound_to 10162
  156.0689  130.5905  150.8471 H   0  0  0  0  0  0  0  0  0  0  0  0  # atno 10718 bound_to 10713
  154.6670  135.5300  153.8089 H   0  0  0  0  0  0  0  0  0  0  0  0  # atno 10763 bound_to 10752
  153.0477  135.6519  154.0784 H   0  0  0  0  0  0  0  0  0  0  0  0  # atno 10764 bound_to 10752
  154.0687  135.2956  155.3292 H   0  0  0  0  0  0  0  0  0  0  0  0  # atno 10765 bound_to 10752
  140.0144  134.6247  155.9732 H   0  0  0  0  0  0  0  0  0  0  0  0  # atno 11005 bound_to 11000
  145.6592  139.1578  143.2818 LP  0  0  0  0  0  0  0  0  0  0  0  0  # atno 17320 bound_to 7965
  146.1690  140.6674  142.9242 LP  0  0  0  0  0  0  0  0  0  0  0  0  # atno 17321 bound_to 7965
  140.4803  143.2381  151.8965 LP  0  0  0  0  0  0  0  0  0  0  0  0  # atno 17342 bound_to 10162
  139.4787  144.5276  151.8712 LP  0  0  0  0  0  0  0  0  0  0  0  0  # atno 17343 bound_to 10162
  157.5748  131.0946  150.9362 LP  0  0  0  0  0  0  0  0  0  0  0  0  # atno 17370 bound_to 10713
  156.9570  130.5441  149.5284 LP  0  0  0  0  0  0  0  0  0  0  0  0  # atno 17371 bound_to 10713
  141.1733  133.6538  156.4732 LP  0  0  0  0  0  0  0  0  0  0  0  0  # atno 17394 bound_to 11000
  140.4497  134.6940  157.5033 LP  0  0  0  0  0  0  0  0  0  0  0  0  # atno 17395 bound_to 11000

$$$$
