AV-unprocessed.smi:25|AV-procd|sdf|182|dock9
  -GOLD-   2262015443D 1   1.00000     0.00000
 Structure written by MMmdl.
 47 50  0  0  0  0  0  0  0  0  1 V2000
  154.3334  139.6723  159.7734 C   0  0  0  0  0  0  0  0  0  0  0  0
  153.0224  140.2717  160.3224 C   0  0  1  0  0  0  0  0  0  0  0  0
  153.2790  141.6218  161.0282 C   0  0  0  0  0  0  0  0  0  0  0  0
  152.4874  142.5929  160.2093 C   0  0  0  0  0  0  0  0  0  0  0  0
  152.4335  143.9832  160.4072 C   0  0  0  0  0  0  0  0  0  0  0  0
  151.6345  144.7522  159.5385 C   0  0  0  0  0  0  0  0  0  0  0  0
  150.9123  144.1252  158.5000 C   0  0  0  0  0  0  0  0  0  0  0  0
  150.9788  142.7267  158.3157 C   0  0  0  0  0  0  0  0  0  0  0  0
  151.7838  141.9543  159.1887 C   0  0  0  0  0  0  0  0  0  0  0  0
  152.0414  140.5499  159.2467 N   0  0  0  0  0  0  0  0  0  0  0  0
  151.4383  139.5258  158.5819 C   0  0  0  0  0  0  0  0  0  0  0  0
  150.7094  139.7434  157.6108 O   0  0  0  0  0  0  0  0  0  0  0  0
  151.6602  138.0591  158.9974 C   0  0  0  0  0  0  0  0  0  0  0  0
  150.7029  137.1140  158.3758 N   0  0  0  0  0  0  0  0  0  0  0  0
  150.9515  136.6558  157.0582 C   0  0  0  0  0  0  0  0  0  0  0  0
  151.9323  137.0405  156.4200 O   0  0  0  0  0  0  0  0  0  0  0  0
  149.9780  135.7082  156.5291 C   0  0  0  0  0  0  0  0  0  0  0  0
  150.1683  135.1674  155.3137 F   0  0  0  0  0  0  0  0  0  0  0  0
  148.8951  135.3495  157.2486 C   0  0  0  0  0  0  0  0  0  0  0  0
  148.6205  135.8633  158.5038 N   0  0  0  0  0  0  0  0  0  0  0  0
  147.4385  135.3826  159.3206 C   0  0  1  0  0  0  0  0  0  0  0  0
  147.8241  134.6557  160.6211 C   0  0  0  0  0  0  0  0  0  0  0  0
  147.5033  135.6935  161.6787 C   0  0  0  0  0  0  0  0  0  0  0  0
  146.3348  136.4329  161.0388 C   0  0  0  0  0  0  0  0  0  0  0  0
  146.6808  136.5049  159.6619 O   0  0  0  0  0  0  0  0  0  0  0  0
  149.5615  136.7212  159.1172 C   0  0  0  0  0  0  0  0  0  0  0  0
  149.3885  137.1280  160.2685 O   0  0  0  0  0  0  0  0  0  0  0  0
  155.0589  139.5281  160.5742 H   0  0  0  0  0  0  0  0  0  0  0  0
  154.7857  140.3304  159.0307 H   0  0  0  0  0  0  0  0  0  0  0  0
  154.1770  138.7015  159.3036 H   0  0  0  0  0  0  0  0  0  0  0  0
  152.5858  139.5795  161.0450 H   0  0  0  0  0  0  0  0  0  0  0  0
  152.9105  141.6145  162.0546 H   0  0  0  0  0  0  0  0  0  0  0  0
  154.3328  141.9033  161.0401 H   0  0  0  0  0  0  0  0  0  0  0  0
  152.9913  144.4511  161.2050 H   0  0  0  0  0  0  0  0  0  0  0  0
  151.5749  145.8228  159.6668 H   0  0  0  0  0  0  0  0  0  0  0  0
  150.3029  144.7227  157.8380 H   0  0  0  0  0  0  0  0  0  0  0  0
  150.4071  142.3142  157.5048 H   0  0  0  0  0  0  0  0  0  0  0  0
  152.6861  137.7818  158.7548 H   0  0  0  0  0  0  0  0  0  0  0  0
  151.5766  137.9855  160.0819 H   0  0  0  0  0  0  0  0  0  0  0  0
  148.2300  134.6241  156.8084 H   0  0  0  0  0  0  0  0  0  0  0  0
  146.8712  134.7136  158.6718 H   0  0  0  0  0  0  0  0  0  0  0  0
  147.1633  133.7955  160.7365 H   0  0  0  0  0  0  0  0  0  0  0  0
  148.8510  134.2905  160.6286 H   0  0  0  0  0  0  0  0  0  0  0  0
  147.2521  135.2553  162.6447 H   0  0  0  0  0  0  0  0  0  0  0  0
  148.3436  136.3734  161.8211 H   0  0  0  0  0  0  0  0  0  0  0  0
  145.4123  135.8602  161.1464 H   0  0  0  0  0  0  0  0  0  0  0  0
  146.1762  137.4233  161.4652 H   0  0  0  0  0  0  0  0  0  0  0  0
  1  2  1  0  0  0  0
  1 28  1  0  0  0  0
  1 29  1  0  0  0  0
  1 30  1  0  0  0  0
  2 10  1  0  0  0  0
  2  3  1  0  0  0  0
  2 31  1  0  0  0  0
  3  4  1  0  0  0  0
  3 32  1  0  0  0  0
  3 33  1  0  0  0  0
  4  9  2  0  0  0  0
  4  5  1  0  0  0  0
  5  6  2  0  0  0  0
  5 34  1  0  0  0  0
  6  7  1  0  0  0  0
  6 35  1  0  0  0  0
  7  8  2  0  0  0  0
  7 36  1  0  0  0  0
  8  9  1  0  0  0  0
  8 37  1  0  0  0  0
  9 10  1  0  0  0  0
 10 11  1  0  0  0  0
 11 12  2  0  0  0  0
 11 13  1  0  0  0  0
 13 14  1  0  0  0  0
 13 38  1  0  0  0  0
 13 39  1  0  0  0  0
 14 26  1  0  0  0  0
 14 15  1  0  0  0  0
 15 16  2  0  0  0  0
 15 17  1  0  0  0  0
 17 18  1  0  0  0  0
 17 19  2  0  0  0  0
 19 20  1  0  0  0  0
 19 40  1  0  0  0  0
 20 21  1  0  0  0  0
 20 26  1  0  0  0  0
 21 25  1  0  0  0  0
 21 22  1  0  0  0  0
 21 41  1  0  0  0  0
 22 23  1  0  0  0  0
 22 42  1  0  0  0  0
 22 43  1  0  0  0  0
 23 24  1  0  0  0  0
 23 44  1  0  0  0  0
 23 45  1  0  0  0  0
 24 25  1  0  0  0  0
 24 46  1  0  0  0  0
 24 47  1  0  0  0  0
 26 27  2  0  0  0  0
M  END
> <s_m_source_file>
AV-unprocessed.smi

> <i_m_source_file_index>
25

> <i_lp_mmshare_version>
43012

> <i_f3d_flags>
0

> <s_epik_input>
W2NIXTFbY0hdW2NIXVtjSF1jKGMxMilOKFtDQEhdKFtDSDNdKVtDSDJdMilDKD1PKVtDSDJdbjNjKD1PKWMoRilbY0hdbihjMz1PKVtDQEBIXTRbQ0gyXVtDSDJdW0NIMl1PNA==

> <s_epik_cmdline>
J2VwaWtfcHl0aG9uJywgJy1waCcsICc3LjAnLCAnLXRuJywgJzgnLCAnLW1hJywgJzIwMCcsICctbWV0YWxfYmluZGluZycsICctaW1hZScsICc8aW5maWxlLm1hZT4nLCAnLW9tYWUnLCAnPG91dGZpbGUubWFlPic=

> <r_lp_tautomer_probability>
1

> <r_epik_Ionization_Penalty>
1.67943e-06

> <r_epik_Ionization_Penalty_Charging>
3.79603e-09

> <r_epik_Ionization_Penalty_Neutral>
1.67563e-06

> <r_epik_State_Penalty>
-0

> <r_epik_Charging_Adjusted_Penalty>
3.79603e-09

> <i_epik_Tot_Q>
0

> <i_epik_Tot_abs_Q>
0

> <r_epik_Metal_State_Penalty>
-0

> <b_epik_Metal_Only>
0

> <s_epik_Chemistry_Notes>
This compound contains an acetal/aminal-like group ( X-CH(R)-Y where X, Y are N, S, or O) that may be acid/base labile, releasing an aldehyde.

> <s_lp_Force_Field>
OPLS_2005

> <r_lp_Energy>
55.1146

> <b_lp_Chiralities_Consistent>
1

> <s_lp_Variant>
AV-unprocessed.smi:25-4

> <Gold.Version>
5.8.1

> <Gold.Id.Protein>
6NUR|6NUR_protein|mol2

> <Gold.PLP.Fitness>
50.6969

> <Gold.PLP.PLP>
-47.8294

> <Gold.PLP.part.hbond>
-2.0000

> <Gold.PLP.part.metal>
0.0000

> <Gold.PLP.part.buried>
-5.3981

> <Gold.PLP.part.nonpolar>
-41.8912

> <Gold.PLP.part.repulsive>
0.0000

> <Gold.PLP.ligand.clash>
0.0000

> <Gold.PLP.ligand.torsion>
0.5690

> <Gold.PLP.Chemscore.Hbond>
1.2766

> <Gold.PLP.Chemscore.CHOScore>
0.0000

> <Gold.PLP.Chemscore.Metal>
0.0000

> <Gold.Chemscore.Hbonds>
donor molecule, donor type, donor heavy atom, donor atom, acceptor molecule, acceptor atom, score
      P1  H  6931  6943       L1    27  0.46
      P1  H 10752 10764       L1    16  0.06

> <Gold.PLP.Chemscore.Internal.Correction>
0.1758

> <Gold.Rescore>
     Score         DG    S(hbond)    S(metal)    S(lipo)     H(rot)  DE(clash)    DE(int)     intcor
     17.18     -18.96       1.31        0.00     111.77       1.55       0.08       1.70       ----

> <Gold.Chemscore.Fitness>
17.1820

> <Gold.Chemscore.DG>
-18.9628

> <Gold.Chemscore.ZeroCoef>
-5.4800

> <Gold.Chemscore.Hbond>
1.3087

> <Gold.Chemscore.Metal>
0.0000

> <Gold.Chemscore.Lipo>
111.7671

> <Gold.Chemscore.Internal_Hbond>
0.0000

> <Gold.Chemscore.DEClash>
0.0821

> <Gold.Chemscore.DEInternal>
1.6988

> <Gold.Chemscore.Rot>
1.5489

> <Gold.Chemscore.Internal.Correction>
   9.000000E+99

> <Gold.Chemscore.Hbonds>
donor molecule, donor type, donor heavy atom, donor atom, acceptor molecule, acceptor atom, score
      P1  H  6931  6943       L1    27  0.45
      P1  H 10752 10764       L1    16  0.11

> <Gold.Chemscore.Hbond.Weighted>
-4.3712

> <Gold.Chemscore.Metal.Weighted>
-0.0000

> <Gold.Chemscore.Lipo.Weighted>
-13.0767

> <Gold.Chemscore.Internal_Hbond.Weighted>
0.0000

> <Gold.Chemscore.DEClash.Weighted>
0.0821

> <Gold.Chemscore.DEInternal.Weighted>
1.6988

> <Gold.Chemscore.Rot.Weighted>
3.9651

> <Gold.Chemscore.Internal.Correction.Weighted>
   9.000000E+99

> <Gold.Protein.RotatedTorsions>
[ 6907 6896 6895 6894 ] final  -12.11 input  -60.11 | X-H torsion
[ 7974 7965 7964 7962 ] final   27.23 input  175.53 | X-H torsion
[ 8008 7997 7996 7995 ] final  -96.29 input   59.86 | X-H torsion
[ 10167 10162 10161 10158 ] final   77.16 input  -65.29 | X-H torsion
[ 10718 10713 10712 10709 ] final   71.84 input   66.30 | X-H torsion
[ 10763 10752 10751 10750 ] final  -25.98 input  -60.55 | X-H torsion
[ 11005 11000 10999 10996 ] final  102.74 input  -57.11 | X-H torsion

> <Gold.Protein.ActiveResidues>
 VAL166  LYS551  ARG553  GLY616  TRP617  ASP618  TYR619  PRO620  LYS621  CYS622 
 ASP623  PHE694  ASN695  SER759  ASP760  ASP761  ALA762  ILE779  LEU786  VAL792 
 PHE793  MET794  SER795  GLU796  ALA797  LYS798  CYS799  TRP800  GLU811  SER814 

> <Gold.Protein.RotatedAtoms>
  151.3757  135.0931  159.9479 H   0  0  0  0  0  0  0  0  0  0  0  0  # atno 6907 bound_to 6896
  152.5123  133.9121  159.7503 H   0  0  0  0  0  0  0  0  0  0  0  0  # atno 6908 bound_to 6896
  150.9544  133.6459  159.2795 H   0  0  0  0  0  0  0  0  0  0  0  0  # atno 6909 bound_to 6896
  146.1795  139.7219  142.8910 H   0  0  0  0  0  0  0  0  0  0  0  0  # atno 7974 bound_to 7965
  154.7725  140.0472  157.1063 H   0  0  0  0  0  0  0  0  0  0  0  0  # atno 8008 bound_to 7997
  154.9802  140.3100  155.4930 H   0  0  0  0  0  0  0  0  0  0  0  0  # atno 8009 bound_to 7997
  156.2923  140.2237  156.4901 H   0  0  0  0  0  0  0  0  0  0  0  0  # atno 8010 bound_to 7997
  139.9845  144.5802  150.7871 H   0  0  0  0  0  0  0  0  0  0  0  0  # atno 10167 bound_to 10162
  157.6472  130.9548  150.0845 H   0  0  0  0  0  0  0  0  0  0  0  0  # atno 10718 bound_to 10713
  153.7086  135.6952  153.5043 H   0  0  0  0  0  0  0  0  0  0  0  0  # atno 10763 bound_to 10752
  153.2289  135.4344  155.0572 H   0  0  0  0  0  0  0  0  0  0  0  0  # atno 10764 bound_to 10752
  154.8322  135.3479  154.6623 H   0  0  0  0  0  0  0  0  0  0  0  0  # atno 10765 bound_to 10752
  139.8779  134.9236  156.5104 H   0  0  0  0  0  0  0  0  0  0  0  0  # atno 11005 bound_to 11000
  145.4116  141.0397  143.3014 LP  0  0  0  0  0  0  0  0  0  0  0  0  # atno 17320 bound_to 7965
  144.8291  139.5658  143.6952 LP  0  0  0  0  0  0  0  0  0  0  0  0  # atno 17321 bound_to 7965
  140.7477  143.2910  151.3330 LP  0  0  0  0  0  0  0  0  0  0  0  0  # atno 17342 bound_to 10162
  139.6385  144.0584  152.2535 LP  0  0  0  0  0  0  0  0  0  0  0  0  # atno 17343 bound_to 10162
  156.1812  130.3650  149.9033 LP  0  0  0  0  0  0  0  0  0  0  0  0  # atno 17370 bound_to 10713
  156.6985  130.8923  151.3596 LP  0  0  0  0  0  0  0  0  0  0  0  0  # atno 17371 bound_to 10713
  140.8524  133.8121  155.9182 LP  0  0  0  0  0  0  0  0  0  0  0  0  # atno 17394 bound_to 11000
  140.9130  134.2236  157.4974 LP  0  0  0  0  0  0  0  0  0  0  0  0  # atno 17395 bound_to 11000

$$$$
