AV-unprocessed.smi:2525|AV-procd|sdf|9928|dock1
  -GOLD-   2272013563D 1   1.00000     0.00000
 Structure written by MMmdl.
 44 45  0  0  0  0  0  0  0  0  1 V2000
  147.7727  141.1527  153.4075 C   0  0  0  0  0  0  0  0  0  0  0  0
  149.1526  140.6870  153.9085 C   0  0  0  0  0  0  0  0  0  0  0  0
  149.1658  139.6873  155.1020 C   0  0  0  0  0  0  0  0  0  0  0  0
  148.4774  140.3252  156.3243 C   0  0  0  0  0  0  0  0  0  0  0  0
  148.5172  139.4702  157.6006 C   0  0  0  0  0  0  0  0  0  0  0  0
  148.7556  138.2147  154.8155 C   0  0  1  0  0  0  0  0  0  0  0  0
  147.8692  138.0173  153.6741 N   0  0  0  0  0  0  0  0  0  0  0  0
  146.5720  138.3554  153.6524 C   0  0  0  0  0  0  0  0  0  0  0  0
  145.9971  138.8801  154.6073 O   0  0  0  0  0  0  0  0  0  0  0  0
  145.8304  138.0681  152.3417 C   0  0  0  0  0  0  0  0  0  0  0  0
  145.6483  136.6462  152.1026 N   0  0  0  0  0  0  0  0  0  0  0  0
  145.1889  136.0170  150.9635 C   0  0  0  0  0  0  0  0  0  0  0  0
  145.2315  134.6925  151.2936 C   0  0  0  0  0  0  0  0  0  0  0  0
  145.7048  134.5722  152.5991 N   0  0  0  0  0  0  0  0  0  0  0  0
  145.9520  135.7522  153.0746 N   0  0  0  0  0  0  0  0  0  0  0  0
  150.2144  137.8798  154.4861 C   0  0  2  0  0  0  0  0  0  0  0  0
  150.7351  136.4853  154.8084 C   0  0  0  0  0  0  0  0  0  0  0  0
  150.5527  139.0598  155.4098 C   0  0  1  0  0  0  0  0  0  0  0  0
  151.6350  139.8715  154.9785 O   0  0  0  0  0  0  0  0  0  0  0  0
  152.8705  139.1806  154.9346 C   0  0  0  0  0  0  0  0  0  0  0  0
  147.8840  141.7643  152.5119 H   0  0  0  0  0  0  0  0  0  0  0  0
  147.2584  141.7662  154.1465 H   0  0  0  0  0  0  0  0  0  0  0  0
  147.1194  140.3221  153.1502 H   0  0  0  0  0  0  0  0  0  0  0  0
  149.6812  140.2576  153.0576 H   0  0  0  0  0  0  0  0  0  0  0  0
  149.7285  141.5769  154.1628 H   0  0  0  0  0  0  0  0  0  0  0  0
  148.8852  141.3145  156.5302 H   0  0  0  0  0  0  0  0  0  0  0  0
  147.4282  140.5097  156.0909 H   0  0  0  0  0  0  0  0  0  0  0  0
  147.9378  139.9413  158.3948 H   0  0  0  0  0  0  0  0  0  0  0  0
  149.5333  139.3429  157.9727 H   0  0  0  0  0  0  0  0  0  0  0  0
  148.0953  138.4798  157.4285 H   0  0  0  0  0  0  0  0  0  0  0  0
  148.4331  137.6906  155.7191 H   0  0  0  0  0  0  0  0  0  0  0  0
  148.2698  137.5983  152.8473 H   0  0  0  0  0  0  0  0  0  0  0  0
  144.8559  138.5584  152.3640 H   0  0  0  0  0  0  0  0  0  0  0  0
  146.3841  138.4900  151.5016 H   0  0  0  0  0  0  0  0  0  0  0  0
  144.8923  136.5392  150.0661 H   0  0  0  0  0  0  0  0  0  0  0  0
  144.9648  133.8254  150.7075 H   0  0  0  0  0  0  0  0  0  0  0  0
  150.4408  138.1454  153.4518 H   0  0  0  0  0  0  0  0  0  0  0  0
  150.5982  136.2423  155.8624 H   0  0  0  0  0  0  0  0  0  0  0  0
  151.7970  136.3928  154.5834 H   0  0  0  0  0  0  0  0  0  0  0  0
  150.2101  135.7281  154.2257 H   0  0  0  0  0  0  0  0  0  0  0  0
  150.6418  138.7608  156.4573 H   0  0  0  0  0  0  0  0  0  0  0  0
  153.6613  139.8697  154.6387 H   0  0  0  0  0  0  0  0  0  0  0  0
  152.8469  138.3693  154.2077 H   0  0  0  0  0  0  0  0  0  0  0  0
  153.1302  138.7709  155.9117 H   0  0  0  0  0  0  0  0  0  0  0  0
  1  2  1  0  0  0  0
  1 21  1  0  0  0  0
  1 22  1  0  0  0  0
  1 23  1  0  0  0  0
  2  3  1  0  0  0  0
  2 24  1  0  0  0  0
  2 25  1  0  0  0  0
  3 18  1  0  0  0  0
  3  4  1  0  0  0  0
  3  6  1  0  0  0  0
  4  5  1  0  0  0  0
  4 26  1  0  0  0  0
  4 27  1  0  0  0  0
  5 28  1  0  0  0  0
  5 29  1  0  0  0  0
  5 30  1  0  0  0  0
  6  7  1  0  0  0  0
  6 16  1  0  0  0  0
  6 31  1  0  0  0  0
  7  8  1  0  0  0  0
  7 32  1  0  0  0  0
  8  9  2  0  0  0  0
  8 10  1  0  0  0  0
 10 11  1  0  0  0  0
 10 33  1  0  0  0  0
 10 34  1  0  0  0  0
 11 15  1  0  0  0  0
 11 12  1  0  0  0  0
 12 13  2  0  0  0  0
 12 35  1  0  0  0  0
 13 14  1  0  0  0  0
 13 36  1  0  0  0  0
 14 15  2  0  0  0  0
 16 17  1  0  0  0  0
 16 18  1  0  0  0  0
 16 37  1  0  0  0  0
 17 38  1  0  0  0  0
 17 39  1  0  0  0  0
 17 40  1  0  0  0  0
 18 19  1  0  0  0  0
 18 41  1  0  0  0  0
 19 20  1  0  0  0  0
 20 42  1  0  0  0  0
 20 43  1  0  0  0  0
 20 44  1  0  0  0  0
M  END
> <s_m_source_file>
AV-unprocessed.smi

> <i_m_source_file_index>
2525

> <i_lp_mmshare_version>
43012

> <i_f3d_flags>
0

> <s_epik_input>
W0NIM11PW0NAQEhdMVtDQEhdKFtDSDNdKVtDQEBIXShDMShbQ0gyXVtDSDNdKVtDSDJdW0NIM10pW05IXUMoPU8pW0NIMl1uMltjSF1bY0hdbm4y

> <s_epik_cmdline>
J2VwaWtfcHl0aG9uJywgJy1waCcsICc3LjAnLCAnLXRuJywgJzgnLCAnLW1hJywgJzIwMCcsICctbWV0YWxfYmluZGluZycsICctaW1hZScsICc8aW5maWxlLm1hZT4nLCAnLW9tYWUnLCAnPG91dGZpbGUubWFlPic=

> <r_lp_tautomer_probability>
1

> <r_epik_Ionization_Penalty>
1.18045e-06

> <r_epik_Ionization_Penalty_Charging>
0

> <r_epik_Ionization_Penalty_Neutral>
1.18045e-06

> <r_epik_State_Penalty>
-0

> <r_epik_Charging_Adjusted_Penalty>
0

> <i_epik_Tot_Q>
0

> <i_epik_Tot_abs_Q>
0

> <r_epik_Metal_State_Penalty>
-0

> <b_epik_Metal_Only>
0

> <s_lp_Force_Field>
OPLS_2005

> <r_lp_Energy>
27.7257

> <b_lp_Chiralities_Consistent>
1

> <s_lp_Variant>
AV-unprocessed.smi:2525-3

> <Gold.Version>
5.8.1

> <Gold.Id.Protein>
6NUR|6NUR_protein|mol2

> <Gold.PLP.Fitness>
35.8395

> <Gold.PLP.PLP>
-27.1618

> <Gold.PLP.part.hbond>
-2.0000

> <Gold.PLP.part.metal>
0.0000

> <Gold.PLP.part.buried>
1.7872

> <Gold.PLP.part.nonpolar>
-26.9063

> <Gold.PLP.part.repulsive>
0.6575

> <Gold.PLP.ligand.clash>
0.0000

> <Gold.PLP.ligand.torsion>
0.4662

> <Gold.PLP.Chemscore.Hbond>
2.0000

> <Gold.PLP.Chemscore.CHOScore>
1.0000

> <Gold.PLP.Chemscore.Metal>
0.0000

> <Gold.Chemscore.Hbonds>
donor molecule, donor type, donor heavy atom, donor atom, acceptor molecule, acceptor atom, score
      L1  H     7    32       P1  7948  1.00
      P1  H  7989  7998       L1    19  1.00
      L1  C    12    35       P1 10171  1.00

> <Gold.PLP.Chemscore.Internal.Correction>
0.6101

> <Gold.Rescore>
     Score         DG    S(hbond)    S(metal)    S(lipo)     H(rot)  DE(clash)    DE(int)     intcor
     13.47     -15.29       1.83        0.00      75.11       1.98       1.25       0.58       ----

> <Gold.Chemscore.Fitness>
13.4721

> <Gold.Chemscore.DG>
-15.2933

> <Gold.Chemscore.ZeroCoef>
-5.4800

> <Gold.Chemscore.Hbond>
1.8259

> <Gold.Chemscore.Metal>
0.0000

> <Gold.Chemscore.Lipo>
75.1103

> <Gold.Chemscore.Internal_Hbond>
0.0000

> <Gold.Chemscore.DEClash>
1.2450

> <Gold.Chemscore.DEInternal>
0.5762

> <Gold.Chemscore.Rot>
1.9817

> <Gold.Chemscore.Internal.Correction>
   9.000000E+99

> <Gold.Chemscore.Hbonds>
donor molecule, donor type, donor heavy atom, donor atom, acceptor molecule, acceptor atom, score
      L1  H     7    32       P1  7948  0.99
      P1  H  7989  7998       L1    19  0.39

> <Gold.Chemscore.Hbond.Weighted>
-6.0985

> <Gold.Chemscore.Metal.Weighted>
-0.0000

> <Gold.Chemscore.Lipo.Weighted>
-8.7879

> <Gold.Chemscore.Internal_Hbond.Weighted>
0.0000

> <Gold.Chemscore.DEClash.Weighted>
1.2450

> <Gold.Chemscore.DEInternal.Weighted>
0.5762

> <Gold.Chemscore.Rot.Weighted>
5.0731

> <Gold.Chemscore.Internal.Correction.Weighted>
   9.000000E+99

> <Gold.Protein.RotatedTorsions>
[ 6907 6896 6895 6894 ] final  -62.09 input  -60.11 | X-H torsion
[ 7974 7965 7964 7962 ] final   35.79 input  175.53 | X-H torsion
[ 8008 7997 7996 7995 ] final -139.56 input   59.86 | X-H torsion
[ 10167 10162 10161 10158 ] final  -72.65 input  -65.29 | X-H torsion
[ 10718 10713 10712 10709 ] final  171.97 input   66.30 | X-H torsion
[ 10763 10752 10751 10750 ] final  -36.01 input  -60.55 | X-H torsion
[ 11005 11000 10999 10996 ] final  -60.86 input  -57.11 | X-H torsion

> <Gold.Protein.ActiveResidues>
 VAL166  LYS551  ARG553  GLY616  TRP617  ASP618  TYR619  PRO620  LYS621  CYS622 
 ASP623  PHE694  ASN695  SER759  ASP760  ASP761  ALA762  ILE779  LEU786  VAL792 
 PHE793  MET794  SER795  GLU796  ALA797  LYS798  CYS799  TRP800  GLU811  SER814 

> <Gold.Protein.RotatedAtoms>
  150.7739  134.6617  159.6342 H   0  0  0  0  0  0  0  0  0  0  0  0  # atno 6907 bound_to 6896
  152.3802  134.6598  160.0154 H   0  0  0  0  0  0  0  0  0  0  0  0  # atno 6908 bound_to 6896
  151.6931  133.3274  159.3284 H   0  0  0  0  0  0  0  0  0  0  0  0  # atno 6909 bound_to 6896
  146.1258  139.6099  142.9259 H   0  0  0  0  0  0  0  0  0  0  0  0  # atno 7974 bound_to 7965
  155.4469  140.0536  157.3005 H   0  0  0  0  0  0  0  0  0  0  0  0  # atno 8008 bound_to 7997
  154.4794  140.2075  155.9756 H   0  0  0  0  0  0  0  0  0  0  0  0  # atno 8009 bound_to 7997
  156.1182  140.3193  155.8175 H   0  0  0  0  0  0  0  0  0  0  0  0  # atno 8010 bound_to 7997
  140.5175  143.2336  151.7488 H   0  0  0  0  0  0  0  0  0  0  0  0  # atno 10167 bound_to 10162
  156.9858  131.0133  151.2870 H   0  0  0  0  0  0  0  0  0  0  0  0  # atno 10718 bound_to 10713
  153.8727  135.6829  153.4773 H   0  0  0  0  0  0  0  0  0  0  0  0  # atno 10763 bound_to 10752
  153.1278  135.4711  154.9298 H   0  0  0  0  0  0  0  0  0  0  0  0  # atno 10764 bound_to 10752
  154.7706  135.3237  154.8148 H   0  0  0  0  0  0  0  0  0  0  0  0  # atno 10765 bound_to 10752
  141.1303  133.6625  156.5288 H   0  0  0  0  0  0  0  0  0  0  0  0  # atno 11005 bound_to 11000
  145.5368  141.0423  143.2352 LP  0  0  0  0  0  0  0  0  0  0  0  0  # atno 17320 bound_to 7965
  144.7641  139.6887  143.7222 LP  0  0  0  0  0  0  0  0  0  0  0  0  # atno 17321 bound_to 7965
  139.4913  144.4303  151.9879 LP  0  0  0  0  0  0  0  0  0  0  0  0  # atno 17342 bound_to 10162
  140.3398  144.3217  150.5969 LP  0  0  0  0  0  0  0  0  0  0  0  0  # atno 17343 bound_to 10162
  157.5494  130.8172  149.8126 LP  0  0  0  0  0  0  0  0  0  0  0  0  # atno 17370 bound_to 10713
  156.0226  130.3790  150.1916 LP  0  0  0  0  0  0  0  0  0  0  0  0  # atno 17371 bound_to 10713
  140.4233  134.7168  157.4902 LP  0  0  0  0  0  0  0  0  0  0  0  0  # atno 17394 bound_to 11000
  140.0345  134.6358  155.9062 LP  0  0  0  0  0  0  0  0  0  0  0  0  # atno 17395 bound_to 11000

$$$$
