AV-unprocessed.smi:2061|AV-procd|sdf|8386|dock2
  -GOLD-   2272011 63D 1   1.00000     0.00000
 Structure written by MMmdl.
 45 46  0  0  0  0  0  0  0  0  3 V2000
  144.8043  132.4555  150.7028 C   0  0  0  0  0  0  0  0  0  0  0  0
  145.9852  132.7048  151.5775 C   0  0  0  0  0  0  0  0  0  0  0  0
  147.3103  132.3963  151.4556 C   0  0  0  0  0  0  0  0  0  0  0  0
  147.8791  132.9323  152.6430 C   0  0  0  0  0  0  0  0  0  0  0  0
  149.1732  132.8709  152.9932 N   0  5  0  0  0  0  0  0  0  0  0  0
  149.5823  133.3783  154.1777 C   0  0  0  0  0  0  0  0  0  0  0  0
  150.0499  132.7420  155.1254 O   0  0  0  0  0  0  0  0  0  0  0  0
  149.4361  134.7075  154.2748 N   0  0  0  0  0  0  0  0  0  0  0  0
  149.7893  135.5150  155.4381 C   0  0  0  0  0  0  0  0  0  0  0  0
  149.1156  136.9125  155.4302 C   0  0  2  0  0  0  0  0  0  0  0  0
  147.5772  136.7555  155.4942 C   0  0  0  0  0  0  0  0  0  0  0  0
  149.5899  137.7034  154.2459 N   0  3  1  0  0  0  0  0  0  0  0  0
  149.0041  139.0579  154.0542 C   0  0  0  0  0  0  0  0  0  0  0  0
  149.5964  140.0682  155.0571 C   0  0  2  0  0  0  0  0  0  0  0  0
  149.0389  141.4802  154.8478 C   0  0  0  0  0  0  0  0  0  0  0  0
  151.0062  140.1182  154.8674 O   0  0  0  0  0  0  0  0  0  0  0  0
  151.6423  138.8675  155.1089 C   0  0  2  0  0  0  0  0  0  0  0  0
  153.1512  139.0607  154.9231 C   0  0  0  0  0  0  0  0  0  0  0  0
  151.0716  137.8062  154.1408 C   0  0  0  0  0  0  0  0  0  0  0  0
  146.9764  133.5020  153.4241 N   0  0  0  0  0  0  0  0  0  0  0  0
  145.7599  133.3663  152.7446 O   0  0  0  0  0  0  0  0  0  0  0  0
  144.6870  131.3893  150.5086 H   0  0  0  0  0  0  0  0  0  0  0  0
  144.9211  132.9631  149.7453 H   0  0  0  0  0  0  0  0  0  0  0  0
  143.8866  132.8172  151.1673 H   0  0  0  0  0  0  0  0  0  0  0  0
  147.7965  131.8738  150.6454 H   0  0  0  0  0  0  0  0  0  0  0  0
  149.0529  135.1924  153.4763 H   0  0  0  0  0  0  0  0  0  0  0  0
  149.5438  134.9416  156.3308 H   0  0  0  0  0  0  0  0  0  0  0  0
  150.8735  135.6300  155.4473 H   0  0  0  0  0  0  0  0  0  0  0  0
  149.4075  137.4465  156.3335 H   0  0  0  0  0  0  0  0  0  0  0  0
  147.2708  136.1417  156.3412 H   0  0  0  0  0  0  0  0  0  0  0  0
  147.1856  136.2839  154.5926 H   0  0  0  0  0  0  0  0  0  0  0  0
  147.0724  137.7118  155.6285 H   0  0  0  0  0  0  0  0  0  0  0  0
  149.2472  139.3837  153.0419 H   0  0  0  0  0  0  0  0  0  0  0  0
  147.9156  139.0471  154.0858 H   0  0  0  0  0  0  0  0  0  0  0  0
  149.3801  139.7596  156.0810 H   0  0  0  0  0  0  0  0  0  0  0  0
  147.9586  141.5002  154.9927 H   0  0  0  0  0  0  0  0  0  0  0  0
  149.2491  141.8435  153.8415 H   0  0  0  0  0  0  0  0  0  0  0  0
  149.4814  142.1827  155.5544 H   0  0  0  0  0  0  0  0  0  0  0  0
  151.4668  138.5739  156.1443 H   0  0  0  0  0  0  0  0  0  0  0  0
  153.6906  138.1317  155.1088 H   0  0  0  0  0  0  0  0  0  0  0  0
  153.5360  139.8110  155.6141 H   0  0  0  0  0  0  0  0  0  0  0  0
  153.3864  139.3887  153.9102 H   0  0  0  0  0  0  0  0  0  0  0  0
  151.5584  136.8470  154.3069 H   0  0  0  0  0  0  0  0  0  0  0  0
  151.3164  138.0870  153.1154 H   0  0  0  0  0  0  0  0  0  0  0  0
  149.2840  137.1667  153.4468 H   0  0  0  0  0  0  0  0  0  0  0  0
  1  2  1  0  0  0  0
  1 22  1  0  0  0  0
  1 23  1  0  0  0  0
  1 24  1  0  0  0  0
  2 21  1  0  0  0  0
  2  3  2  0  0  0  0
  3  4  1  0  0  0  0
  3 25  1  0  0  0  0
  4  5  1  0  0  0  0
  4 20  2  0  0  0  0
  5  6  1  0  0  0  0
  6  7  2  0  0  0  0
  6  8  1  0  0  0  0
  8  9  1  0  0  0  0
  8 26  1  0  0  0  0
  9 10  1  0  0  0  0
  9 27  1  0  0  0  0
  9 28  1  0  0  0  0
 10 11  1  0  0  0  0
 10 12  1  0  0  0  0
 10 29  1  0  0  0  0
 11 30  1  0  0  0  0
 11 31  1  0  0  0  0
 11 32  1  0  0  0  0
 12 19  1  0  0  0  0
 12 13  1  0  0  0  0
 12 45  1  0  0  0  0
 13 14  1  0  0  0  0
 13 33  1  0  0  0  0
 13 34  1  0  0  0  0
 14 15  1  0  0  0  0
 14 16  1  0  0  0  0
 14 35  1  0  0  0  0
 15 36  1  0  0  0  0
 15 37  1  0  0  0  0
 15 38  1  0  0  0  0
 16 17  1  0  0  0  0
 17 18  1  0  0  0  0
 17 19  1  0  0  0  0
 17 39  1  0  0  0  0
 18 40  1  0  0  0  0
 18 41  1  0  0  0  0
 18 42  1  0  0  0  0
 19 43  1  0  0  0  0
 19 44  1  0  0  0  0
 20 21  1  0  0  0  0
M  CHG  1   5  -1
M  CHG  1  12   1
M  END
> <s_m_source_file>
AV-unprocessed.smi

> <i_m_source_file_index>
2061

> <i_lp_mmshare_version>
43012

> <i_f3d_flags>
0

> <s_epik_input>
W0NIM11jMVtjSF1jKG5vMSlbTkhdQyg9TylbTkhdW0NIMl1bQ0BIXShbQ0gzXSlOMltDSDJdW0NAQEhdKFtDSDNdKU9bQ0BASF0oW0NIM10pW0NIMl0y

> <s_epik_cmdline>
J2VwaWtfcHl0aG9uJywgJy1waCcsICc3LjAnLCAnLXRuJywgJzgnLCAnLW1hJywgJzIwMCcsICctbWV0YWxfYmluZGluZycsICctaW1hZScsICc8aW5maWxlLm1hZT4nLCAnLW9tYWUnLCAnPG91dGZpbGUubWFlPic=

> <r_epik_Ionization_Penalty>
6.73511

> <r_epik_Ionization_Penalty_Charging>
6.73502

> <r_epik_Ionization_Penalty_Neutral>
9.50841e-05

> <r_epik_State_Penalty>
6.93549

> <r_epik_Charging_Adjusted_Penalty>
13.6705

> <i_epik_Tot_Q>
0

> <i_epik_Tot_abs_Q>
2

> <r_epik_Metal_State_Penalty>
2.87211

> <b_epik_Metal_Only>
1

> <s_lp_Force_Field>
OPLS_2005

> <r_lp_Energy>
9.64983

> <b_lp_Chiralities_Consistent>
1

> <s_lp_Variant>
AV-unprocessed.smi:2061-27

> <Gold.Version>
5.8.1

> <Gold.Id.Protein>
6NUR|6NUR_protein|mol2

> <Gold.PLP.Fitness>
45.0999

> <Gold.PLP.PLP>
-34.5650

> <Gold.PLP.part.hbond>
-3.0000

> <Gold.PLP.part.metal>
0.0000

> <Gold.PLP.part.buried>
-2.6585

> <Gold.PLP.part.nonpolar>
-29.8392

> <Gold.PLP.part.repulsive>
0.5062

> <Gold.PLP.ligand.clash>
0.0000

> <Gold.PLP.ligand.torsion>
0.7652

> <Gold.PLP.Chemscore.Hbond>
4.0000

> <Gold.PLP.Chemscore.CHOScore>
0.0000

> <Gold.PLP.Chemscore.Metal>
0.0000

> <Gold.Chemscore.Hbonds>
donor molecule, donor type, donor heavy atom, donor atom, acceptor molecule, acceptor atom, score
      L1  H     8    26       P1  7948  1.00
      L1  H    12    45       P1  7948  2.00
      P1  H  7989  7998       L1    16  1.00

> <Gold.PLP.Chemscore.Internal.Correction>
0.0654

> <Gold.Rescore>
     Score         DG    S(hbond)    S(metal)    S(lipo)     H(rot)  DE(clash)    DE(int)     intcor
     17.44     -19.05       2.62        0.00      75.37       1.56       0.63       0.99       ----

> <Gold.Chemscore.Fitness>
17.4384

> <Gold.Chemscore.DG>
-19.0528

> <Gold.Chemscore.ZeroCoef>
-5.4800

> <Gold.Chemscore.Hbond>
2.6154

> <Gold.Chemscore.Metal>
0.0000

> <Gold.Chemscore.Lipo>
75.3691

> <Gold.Chemscore.Internal_Hbond>
0.0000

> <Gold.Chemscore.DEClash>
0.6254

> <Gold.Chemscore.DEInternal>
0.9891

> <Gold.Chemscore.Rot>
1.5550

> <Gold.Chemscore.Internal.Correction>
   9.000000E+99

> <Gold.Chemscore.Hbonds>
donor molecule, donor type, donor heavy atom, donor atom, acceptor molecule, acceptor atom, score
      L1  H     8    26       P1  7948  0.39
      L1  H    12    45       P1  7948  0.98
      P1  H  7989  7998       L1    16  0.77

> <Gold.Chemscore.Hbond.Weighted>
-8.7355

> <Gold.Chemscore.Metal.Weighted>
-0.0000

> <Gold.Chemscore.Lipo.Weighted>
-8.8182

> <Gold.Chemscore.Internal_Hbond.Weighted>
0.0000

> <Gold.Chemscore.DEClash.Weighted>
0.6254

> <Gold.Chemscore.DEInternal.Weighted>
0.9891

> <Gold.Chemscore.Rot.Weighted>
3.9809

> <Gold.Chemscore.Internal.Correction.Weighted>
   9.000000E+99

> <Gold.Protein.RotatedTorsions>
[ 6907 6896 6895 6894 ] final  -40.91 input  -60.11 | X-H torsion
[ 7974 7965 7964 7962 ] final   97.17 input  175.53 | X-H torsion
[ 8008 7997 7996 7995 ] final  113.90 input   59.86 | X-H torsion
[ 10167 10162 10161 10158 ] final  150.66 input  -65.29 | X-H torsion
[ 10718 10713 10712 10709 ] final  144.52 input   66.30 | X-H torsion
[ 10763 10752 10751 10750 ] final  174.60 input  -60.55 | X-H torsion
[ 11005 11000 10999 10996 ] final   31.44 input  -57.11 | X-H torsion

> <Gold.Protein.ActiveResidues>
 VAL166  LYS551  ARG553  GLY616  TRP617  ASP618  TYR619  PRO620  LYS621  CYS622 
 ASP623  PHE694  ASN695  SER759  ASP760  ASP761  ALA762  ILE779  LEU786  VAL792 
 PHE793  MET794  SER795  GLU796  ALA797  LYS798  CYS799  TRP800  GLU811  SER814 

> <Gold.Protein.RotatedAtoms>
  150.9729  134.9099  159.7798 H   0  0  0  0  0  0  0  0  0  0  0  0  # atno 6907 bound_to 6896
  152.5196  134.3516  159.9263 H   0  0  0  0  0  0  0  0  0  0  0  0  # atno 6908 bound_to 6896
  151.3524  133.3879  159.2716 H   0  0  0  0  0  0  0  0  0  0  0  0  # atno 6909 bound_to 6896
  145.4291  139.2312  143.3154 H   0  0  0  0  0  0  0  0  0  0  0  0  # atno 7974 bound_to 7965
  156.2287  140.2970  156.0133 H   0  0  0  0  0  0  0  0  0  0  0  0  # atno 8008 bound_to 7997
  155.2284  140.0418  157.2976 H   0  0  0  0  0  0  0  0  0  0  0  0  # atno 8009 bound_to 7997
  154.5959  140.2414  155.7865 H   0  0  0  0  0  0  0  0  0  0  0  0  # atno 8010 bound_to 7997
  139.4848  144.5504  151.7411 H   0  0  0  0  0  0  0  0  0  0  0  0  # atno 10167 bound_to 10162
  157.3562  131.0958  151.0956 H   0  0  0  0  0  0  0  0  0  0  0  0  # atno 10718 bound_to 10713
  154.4561  135.2766  155.1746 H   0  0  0  0  0  0  0  0  0  0  0  0  # atno 10763 bound_to 10752
  154.3553  135.6141  153.5667 H   0  0  0  0  0  0  0  0  0  0  0  0  # atno 10764 bound_to 10752
  152.9851  135.5821  154.4915 H   0  0  0  0  0  0  0  0  0  0  0  0  # atno 10765 bound_to 10752
  140.2838  134.2942  155.7793 H   0  0  0  0  0  0  0  0  0  0  0  0  # atno 11005 bound_to 11000
  146.2616  140.5026  142.8851 LP  0  0  0  0  0  0  0  0  0  0  0  0  # atno 17320 bound_to 7965
  144.8194  140.6524  143.6362 LP  0  0  0  0  0  0  0  0  0  0  0  0  # atno 17321 bound_to 7965
  140.5057  144.1102  150.5982 LP  0  0  0  0  0  0  0  0  0  0  0  0  # atno 17342 bound_to 10162
  140.4010  143.2704  151.9947 LP  0  0  0  0  0  0  0  0  0  0  0  0  # atno 17343 bound_to 10162
  157.2113  130.6439  149.5775 LP  0  0  0  0  0  0  0  0  0  0  0  0  # atno 17370 bound_to 10713
  155.9729  130.4659  150.6270 LP  0  0  0  0  0  0  0  0  0  0  0  0  # atno 17371 bound_to 10713
  141.2158  133.7542  156.9522 LP  0  0  0  0  0  0  0  0  0  0  0  0  # atno 17394 bound_to 11000
  140.1258  134.9388  157.2268 LP  0  0  0  0  0  0  0  0  0  0  0  0  # atno 17395 bound_to 11000

$$$$
