AV-unprocessed.smi:2780|AV-procd|sdf|10715|dock10
  -GOLD-   2272015153D 1   1.00000     0.00000
 Structure written by MMmdl.
 47 49  0  0  0  0  0  0  0  0  2 V2000
  147.6807  133.0784  152.7963 C   0  0  0  0  0  0  0  0  0  0  0  0
  146.3874  133.3556  152.0483 C   0  0  0  0  0  0  0  0  0  0  0  0
  146.2181  132.8689  150.8040 C   0  0  0  0  0  0  0  0  0  0  0  0
  144.9499  133.0165  149.9960 C   0  0  0  0  0  0  0  0  0  0  0  0
  143.7538  133.3180  150.9018 C   0  0  0  0  0  0  0  0  0  0  0  0
  144.0602  134.4715  151.8710 C   0  0  1  0  0  0  0  0  0  0  0  0
  142.7979  134.7984  152.6927 C   0  0  0  0  0  0  0  0  0  0  0  0
  145.2990  134.1753  152.7721 C   0  0  2  0  0  0  0  0  0  0  0  0
  145.8477  135.4957  153.3743 C   0  0  0  0  0  0  0  0  0  0  0  0
  146.3236  136.4416  152.3443 N   0  3  0  0  0  0  0  0  0  0  0  0
  146.2197  137.8612  152.7350 C   0  0  0  0  0  0  0  0  0  0  0  0
  147.1363  138.1896  153.9239 C   0  0  0  0  0  0  0  0  0  0  0  0
  147.6636  139.5432  153.8600 N   0  0  0  0  0  0  0  0  0  0  0  0
  146.9855  140.6945  153.7290 C   0  0  0  0  0  0  0  0  0  0  0  0
  147.7398  141.7905  153.6682 N   0  0  0  0  0  0  0  0  0  0  0  0
  149.0361  141.3243  153.7505 N   0  0  0  0  0  0  0  0  0  0  0  0
  148.9351  139.9954  153.8699 C   0  0  0  0  0  0  0  0  0  0  0  0
  150.1140  139.0788  153.9531 C   0  0  0  0  0  0  0  0  0  0  0  0
  150.2597  138.1141  155.1087 C   0  0  0  0  0  0  0  0  0  0  0  0
  151.2035  139.2807  154.9836 C   0  0  0  0  0  0  0  0  0  0  0  0
  147.4696  132.6492  153.7751 H   0  0  0  0  0  0  0  0  0  0  0  0
  148.2633  133.9903  152.9241 H   0  0  0  0  0  0  0  0  0  0  0  0
  148.3068  132.3677  152.2552 H   0  0  0  0  0  0  0  0  0  0  0  0
  147.0162  132.3185  150.3267 H   0  0  0  0  0  0  0  0  0  0  0  0
  145.0929  133.8099  149.2618 H   0  0  0  0  0  0  0  0  0  0  0  0
  144.7689  132.0948  149.4421 H   0  0  0  0  0  0  0  0  0  0  0  0
  142.8855  133.5556  150.2857 H   0  0  0  0  0  0  0  0  0  0  0  0
  143.4931  132.4240  151.4700 H   0  0  0  0  0  0  0  0  0  0  0  0
  144.2902  135.3442  151.2572 H   0  0  0  0  0  0  0  0  0  0  0  0
  142.5197  133.9643  153.3379 H   0  0  0  0  0  0  0  0  0  0  0  0
  141.9497  135.0025  152.0382 H   0  0  0  0  0  0  0  0  0  0  0  0
  142.9260  135.6758  153.3242 H   0  0  0  0  0  0  0  0  0  0  0  0
  144.9560  133.5417  153.5918 H   0  0  0  0  0  0  0  0  0  0  0  0
  145.0761  135.9698  153.9825 H   0  0  0  0  0  0  0  0  0  0  0  0
  146.6876  135.3073  154.0411 H   0  0  0  0  0  0  0  0  0  0  0  0
  147.2901  136.2314  152.1390 H   0  0  0  0  0  0  0  0  0  0  0  0
  146.4993  138.4790  151.8808 H   0  0  0  0  0  0  0  0  0  0  0  0
  145.1834  138.1030  152.9753 H   0  0  0  0  0  0  0  0  0  0  0  0
  146.6090  138.0416  154.8665 H   0  0  0  0  0  0  0  0  0  0  0  0
  147.9843  137.5039  153.9333 H   0  0  0  0  0  0  0  0  0  0  0  0
  145.9073  140.7330  153.6734 H   0  0  0  0  0  0  0  0  0  0  0  0
  150.4105  138.7403  152.9621 H   0  0  0  0  0  0  0  0  0  0  0  0
  149.5260  138.1615  155.9104 H   0  0  0  0  0  0  0  0  0  0  0  0
  150.6511  137.1229  154.8896 H   0  0  0  0  0  0  0  0  0  0  0  0
  152.2265  139.0693  154.6793 H   0  0  0  0  0  0  0  0  0  0  0  0
  151.0889  140.0953  155.6962 H   0  0  0  0  0  0  0  0  0  0  0  0
  145.7775  136.3007  151.5065 H   0  0  0  0  0  0  0  0  0  0  0  0
  1  2  1  0  0  0  0
  1 21  1  0  0  0  0
  1 22  1  0  0  0  0
  1 23  1  0  0  0  0
  2  8  1  0  0  0  0
  2  3  2  0  0  0  0
  3  4  1  0  0  0  0
  3 24  1  0  0  0  0
  4  5  1  0  0  0  0
  4 25  1  0  0  0  0
  4 26  1  0  0  0  0
  5  6  1  0  0  0  0
  5 27  1  0  0  0  0
  5 28  1  0  0  0  0
  6  7  1  0  0  0  0
  6  8  1  0  0  0  0
  6 29  1  0  0  0  0
  7 30  1  0  0  0  0
  7 31  1  0  0  0  0
  7 32  1  0  0  0  0
  8  9  1  0  0  0  0
  8 33  1  0  0  0  0
  9 10  1  0  0  0  0
  9 34  1  0  0  0  0
  9 35  1  0  0  0  0
 10 11  1  0  0  0  0
 10 36  1  0  0  0  0
 10 47  1  0  0  0  0
 11 12  1  0  0  0  0
 11 37  1  0  0  0  0
 11 38  1  0  0  0  0
 12 13  1  0  0  0  0
 12 39  1  0  0  0  0
 12 40  1  0  0  0  0
 13 17  1  0  0  0  0
 13 14  1  0  0  0  0
 14 15  2  0  0  0  0
 14 41  1  0  0  0  0
 15 16  1  0  0  0  0
 16 17  2  0  0  0  0
 17 18  1  0  0  0  0
 18 20  1  0  0  0  0
 18 19  1  0  0  0  0
 18 42  1  0  0  0  0
 19 20  1  0  0  0  0
 19 43  1  0  0  0  0
 19 44  1  0  0  0  0
 20 45  1  0  0  0  0
 20 46  1  0  0  0  0
M  CHG  1  10   1
M  END
> <s_m_source_file>
AV-unprocessed.smi

> <i_m_source_file_index>
2780

> <i_lp_mmshare_version>
43012

> <i_f3d_flags>
0

> <s_epik_input>
W0NIM11DMT1bQ0hdW0NIMl1bQ0gyXVtDQEBIXShbQ0gzXSlbQ0BIXTFbQ0gyXVtOSF1bQ0gyXVtDSDJdbjJbY0hdbm5jMltDSF0zW0NIMl1bQ0gyXTM=

> <s_epik_cmdline>
J2VwaWtfcHl0aG9uJywgJy1waCcsICc3LjAnLCAnLXRuJywgJzgnLCAnLW1hJywgJzIwMCcsICctbWV0YWxfYmluZGluZycsICctaW1hZScsICc8aW5maWxlLm1hZT4nLCAnLW9tYWUnLCAnPG91dGZpbGUubWFlPic=

> <r_lp_tautomer_probability>
1

> <r_epik_Ionization_Penalty>
0.00176214

> <r_epik_Ionization_Penalty_Charging>
0.00175191

> <r_epik_Ionization_Penalty_Neutral>
1.02377e-05

> <r_epik_State_Penalty>
-0

> <r_epik_Charging_Adjusted_Penalty>
0.00175191

> <i_epik_Tot_Q>
1

> <i_epik_Tot_abs_Q>
1

> <r_epik_Metal_State_Penalty>
-0

> <b_epik_Metal_Only>
0

> <s_lp_Force_Field>
OPLS_2005

> <r_lp_Energy>
22.3616

> <b_lp_Chiralities_Consistent>
1

> <s_lp_Variant>
AV-unprocessed.smi:2780-3

> <Gold.Version>
5.8.1

> <Gold.Id.Protein>
6NUR|6NUR_protein|mol2

> <Gold.PLP.Fitness>
44.2140

> <Gold.PLP.PLP>
-33.5373

> <Gold.PLP.part.hbond>
-2.4783

> <Gold.PLP.part.metal>
0.0000

> <Gold.PLP.part.buried>
-1.1027

> <Gold.PLP.part.nonpolar>
-30.7515

> <Gold.PLP.part.repulsive>
1.0042

> <Gold.PLP.ligand.clash>
0.0000

> <Gold.PLP.ligand.torsion>
0.5058

> <Gold.PLP.Chemscore.Hbond>
2.8089

> <Gold.PLP.Chemscore.CHOScore>
1.0000

> <Gold.PLP.Chemscore.Metal>
0.0000

> <Gold.Chemscore.Hbonds>
donor molecule, donor type, donor heavy atom, donor atom, acceptor molecule, acceptor atom, score
      L1  H    10    36       P1  7948  2.00
      P1  H  8011  8017       L1    16  0.71
      L1  C    14    41       P1 10175  0.99

> <Gold.PLP.Chemscore.Internal.Correction>
0.2616

> <Gold.Rescore>
     Score         DG    S(hbond)    S(metal)    S(lipo)     H(rot)  DE(clash)    DE(int)     intcor
     13.16     -13.75       1.19        0.00      79.94       1.98       0.06       0.53       ----

> <Gold.Chemscore.Fitness>
13.1620

> <Gold.Chemscore.DG>
-13.7505

> <Gold.Chemscore.ZeroCoef>
-5.4800

> <Gold.Chemscore.Hbond>
1.1936

> <Gold.Chemscore.Metal>
0.0000

> <Gold.Chemscore.Lipo>
79.9354

> <Gold.Chemscore.Internal_Hbond>
0.0000

> <Gold.Chemscore.DEClash>
0.0613

> <Gold.Chemscore.DEInternal>
0.5272

> <Gold.Chemscore.Rot>
1.9799

> <Gold.Chemscore.Internal.Correction>
   9.000000E+99

> <Gold.Chemscore.Hbonds>
donor molecule, donor type, donor heavy atom, donor atom, acceptor molecule, acceptor atom, score
      L1  H    10    36       P1  7948  1.00
      P1  H  8011  8017       L1    16  0.12

> <Gold.Chemscore.Hbond.Weighted>
-3.9866

> <Gold.Chemscore.Metal.Weighted>
-0.0000

> <Gold.Chemscore.Lipo.Weighted>
-9.3524

> <Gold.Chemscore.Internal_Hbond.Weighted>
0.0000

> <Gold.Chemscore.DEClash.Weighted>
0.0613

> <Gold.Chemscore.DEInternal.Weighted>
0.5272

> <Gold.Chemscore.Rot.Weighted>
5.0685

> <Gold.Chemscore.Internal.Correction.Weighted>
   9.000000E+99

> <Gold.Protein.RotatedTorsions>
[ 6907 6896 6895 6894 ] final  -98.10 input  -60.11 | X-H torsion
[ 7974 7965 7964 7962 ] final -124.37 input  175.53 | X-H torsion
[ 8008 7997 7996 7995 ] final -108.77 input   59.86 | X-H torsion
[ 10167 10162 10161 10158 ] final  -68.36 input  -65.29 | X-H torsion
[ 10718 10713 10712 10709 ] final -118.81 input   66.30 | X-H torsion
[ 10763 10752 10751 10750 ] final -143.76 input  -60.55 | X-H torsion
[ 11005 11000 10999 10996 ] final  140.13 input  -57.11 | X-H torsion

> <Gold.Protein.ActiveResidues>
 VAL166  LYS551  ARG553  GLY616  TRP617  ASP618  TYR619  PRO620  LYS621  CYS622 
 ASP623  PHE694  ASN695  SER759  ASP760  ASP761  ALA762  ILE779  LEU786  VAL792 
 PHE793  MET794  SER795  GLU796  ALA797  LYS798  CYS799  TRP800  GLU811  SER814 

> <Gold.Protein.RotatedAtoms>
  150.7036  134.1247  159.4047 H   0  0  0  0  0  0  0  0  0  0  0  0  # atno 6907 bound_to 6896
  151.9233  135.0286  160.0533 H   0  0  0  0  0  0  0  0  0  0  0  0  # atno 6908 bound_to 6896
  152.2238  133.4969  159.5214 H   0  0  0  0  0  0  0  0  0  0  0  0  # atno 6909 bound_to 6896
  145.0088  140.7887  143.4451 H   0  0  0  0  0  0  0  0  0  0  0  0  # atno 7974 bound_to 7965
  154.9493  140.0401  157.2136 H   0  0  0  0  0  0  0  0  0  0  0  0  # atno 8008 bound_to 7997
  154.7993  140.2849  155.5911 H   0  0  0  0  0  0  0  0  0  0  0  0  # atno 8009 bound_to 7997
  156.2959  140.2558  156.2858 H   0  0  0  0  0  0  0  0  0  0  0  0  # atno 8010 bound_to 7997
  140.5513  143.2312  151.6905 H   0  0  0  0  0  0  0  0  0  0  0  0  # atno 10167 bound_to 10162
  156.1134  130.6267  150.9338 H   0  0  0  0  0  0  0  0  0  0  0  0  # atno 10718 bound_to 10713
  154.8456  135.3459  154.6239 H   0  0  0  0  0  0  0  0  0  0  0  0  # atno 10763 bound_to 10752
  153.6848  135.6978  153.5112 H   0  0  0  0  0  0  0  0  0  0  0  0  # atno 10764 bound_to 10752
  153.2640  135.4314  155.0878 H   0  0  0  0  0  0  0  0  0  0  0  0  # atno 10765 bound_to 10752
  140.0305  134.9354  157.0653 H   0  0  0  0  0  0  0  0  0  0  0  0  # atno 11005 bound_to 11000
  145.2052  139.2232  143.5172 LP  0  0  0  0  0  0  0  0  0  0  0  0  # atno 17320 bound_to 7965
  146.3466  140.1878  142.8589 LP  0  0  0  0  0  0  0  0  0  0  0  0  # atno 17321 bound_to 7965
  139.5029  144.3812  152.0374 LP  0  0  0  0  0  0  0  0  0  0  0  0  # atno 17342 bound_to 10162
  140.2930  144.3733  150.6083 LP  0  0  0  0  0  0  0  0  0  0  0  0  # atno 17343 bound_to 10162
  157.6316  131.0920  150.8430 LP  0  0  0  0  0  0  0  0  0  0  0  0  # atno 17370 bound_to 10713
  156.8537  130.5089  149.5309 LP  0  0  0  0  0  0  0  0  0  0  0  0  # atno 17371 bound_to 10713
  140.4234  134.1857  155.7165 LP  0  0  0  0  0  0  0  0  0  0  0  0  # atno 17394 bound_to 11000
  141.1828  133.8377  157.1196 LP  0  0  0  0  0  0  0  0  0  0  0  0  # atno 17395 bound_to 11000

$$$$
