AV-unprocessed.smi:2624|AV-procd|sdf|10233|dock1
  -GOLD-   2272014243D 1   1.00000     0.00000
 Structure written by MMmdl.
 39 40  0  0  0  0  0  0  0  0  1 V2000
  150.0903  138.7987  154.5444 C   0  0  0  0  0  0  0  0  0  0  0  0
  150.3282  140.1859  154.7077 O   0  0  0  0  0  0  0  0  0  0  0  0
  149.1775  140.9691  154.4411 C   0  0  0  0  0  0  0  0  0  0  0  0
  148.6691  141.5683  155.7606 C   0  0  0  0  0  0  0  0  0  0  0  0
  149.5040  141.1549  156.8964 N   0  0  0  0  0  0  0  0  0  0  0  0
  150.3887  142.1175  157.4198 C   0  0  0  0  0  0  0  0  0  0  0  0
  151.1975  141.8555  158.4634 C   0  0  0  0  0  0  0  0  0  0  0  0
  152.1131  142.8976  158.9868 C   0  0  0  0  0  0  0  0  0  0  0  0
  152.5832  143.7613  158.2451 O   0  0  0  0  0  0  0  0  0  0  0  0
  152.4732  142.8670  160.4346 C   0  0  0  0  0  0  0  0  0  0  0  0
  153.1482  141.7255  160.9232 C   0  0  0  0  0  0  0  0  0  0  0  0
  153.5052  141.6247  162.2828 C   0  0  0  0  0  0  0  0  0  0  0  0
  154.2161  140.3864  162.7883 C   0  0  0  0  0  0  0  0  0  0  0  0
  153.1916  142.6748  163.1670 C   0  0  0  0  0  0  0  0  0  0  0  0
  152.5345  143.8234  162.6896 C   0  0  0  0  0  0  0  0  0  0  0  0
  152.1779  143.9303  161.3303 C   0  0  0  0  0  0  0  0  0  0  0  0
  151.5760  145.0847  160.9116 O   0  0  0  0  0  0  0  0  0  0  0  0
  151.1480  140.5249  159.0370 C   0  0  0  0  0  0  0  0  0  0  0  0
  150.3099  139.5966  158.5348 C   0  0  0  0  0  0  0  0  0  0  0  0
  150.2474  138.2818  159.0818 C   0  0  0  0  0  0  0  0  0  0  0  0
  150.1787  137.2221  159.5423 N   0  0  0  0  0  0  0  0  0  0  0  0
  149.4231  139.8854  157.3989 C   0  0  0  0  0  0  0  0  0  0  0  0
  148.6580  139.0451  156.9225 O   0  0  0  0  0  0  0  0  0  0  0  0
  151.0011  138.2422  154.7644 H   0  0  0  0  0  0  0  0  0  0  0  0
  149.7941  138.5674  153.5204 H   0  0  0  0  0  0  0  0  0  0  0  0
  149.3106  138.4494  155.2223 H   0  0  0  0  0  0  0  0  0  0  0  0
  149.4246  141.7622  153.7334 H   0  0  0  0  0  0  0  0  0  0  0  0
  148.4025  140.3496  153.9864 H   0  0  0  0  0  0  0  0  0  0  0  0
  148.6514  142.6563  155.6825 H   0  0  0  0  0  0  0  0  0  0  0  0
  147.6287  141.2811  155.9232 H   0  0  0  0  0  0  0  0  0  0  0  0
  150.3594  143.0755  156.9191 H   0  0  0  0  0  0  0  0  0  0  0  0
  153.3871  140.9105  160.2541 H   0  0  0  0  0  0  0  0  0  0  0  0
  154.7102  140.5766  163.7416 H   0  0  0  0  0  0  0  0  0  0  0  0
  154.9735  140.0607  162.0746 H   0  0  0  0  0  0  0  0  0  0  0  0
  153.5026  139.5741  162.9277 H   0  0  0  0  0  0  0  0  0  0  0  0
  153.4590  142.6066  164.2115 H   0  0  0  0  0  0  0  0  0  0  0  0
  152.3108  144.6300  163.3729 H   0  0  0  0  0  0  0  0  0  0  0  0
  150.6754  144.9606  160.6536 H   0  0  0  0  0  0  0  0  0  0  0  0
  151.7872  140.2624  159.8677 H   0  0  0  0  0  0  0  0  0  0  0  0
  1  2  1  0  0  0  0
  1 24  1  0  0  0  0
  1 25  1  0  0  0  0
  1 26  1  0  0  0  0
  2  3  1  0  0  0  0
  3  4  1  0  0  0  0
  3 27  1  0  0  0  0
  3 28  1  0  0  0  0
  4  5  1  0  0  0  0
  4 29  1  0  0  0  0
  4 30  1  0  0  0  0
  5 22  1  0  0  0  0
  5  6  1  0  0  0  0
  6  7  2  0  0  0  0
  6 31  1  0  0  0  0
  7  8  1  0  0  0  0
  7 18  1  0  0  0  0
  8  9  2  0  0  0  0
  8 10  1  0  0  0  0
 10 16  1  0  0  0  0
 10 11  2  0  0  0  0
 11 12  1  0  0  0  0
 11 32  1  0  0  0  0
 12 13  1  0  0  0  0
 12 14  2  0  0  0  0
 13 33  1  0  0  0  0
 13 34  1  0  0  0  0
 13 35  1  0  0  0  0
 14 15  1  0  0  0  0
 14 36  1  0  0  0  0
 15 16  2  0  0  0  0
 15 37  1  0  0  0  0
 16 17  1  0  0  0  0
 17 38  1  0  0  0  0
 18 19  2  0  0  0  0
 18 39  1  0  0  0  0
 19 20  1  0  0  0  0
 19 22  1  0  0  0  0
 20 21  3  0  0  0  0
 22 23  2  0  0  0  0
M  END
> <s_m_source_file>
AV-unprocessed.smi

> <i_m_source_file_index>
2624

> <i_lp_mmshare_version>
43012

> <i_f3d_flags>
0

> <s_epik_input>
W0NIM11PW0NIMl1bQ0gyXW4xW2NIXWMoW2NIXWMoQyNOKWMxPU8pQyg9TyljMltjSF1jKFtDSDNdKVtjSF1bY0hdYzJbT0hd

> <s_epik_cmdline>
J2VwaWtfcHl0aG9uJywgJy1waCcsICc3LjAnLCAnLXRuJywgJzgnLCAnLW1hJywgJzIwMCcsICctbWV0YWxfYmluZGluZycsICctaW1hZScsICc8aW5maWxlLm1hZT4nLCAnLW9tYWUnLCAnPG91dGZpbGUubWFlPic=

> <r_epik_Ionization_Penalty>
0.124493

> <r_epik_Ionization_Penalty_Charging>
5.62591e-11

> <r_epik_Ionization_Penalty_Neutral>
0.124493

> <r_epik_State_Penalty>
0.113971

> <r_epik_Charging_Adjusted_Penalty>
0.113971

> <i_epik_Tot_Q>
0

> <i_epik_Tot_abs_Q>
0

> <r_epik_Metal_State_Penalty>
0.113971

> <b_epik_Metal_Only>
0

> <s_lp_Force_Field>
OPLS_2005

> <r_lp_Energy>
23.5595

> <b_lp_Chiralities_Consistent>
1

> <s_lp_Variant>
AV-unprocessed.smi:2624-1

> <Gold.Version>
5.8.1

> <Gold.Id.Protein>
6NUR|6NUR_protein|mol2

> <Gold.PLP.Fitness>
57.0242

> <Gold.PLP.PLP>
-51.5897

> <Gold.PLP.part.hbond>
-3.0000

> <Gold.PLP.part.metal>
0.0000

> <Gold.PLP.part.buried>
-5.4887

> <Gold.PLP.part.nonpolar>
-42.7167

> <Gold.PLP.part.repulsive>
0.1217

> <Gold.PLP.ligand.clash>
0.0000

> <Gold.PLP.ligand.torsion>
2.4480

> <Gold.PLP.Chemscore.Hbond>
1.9425

> <Gold.PLP.Chemscore.CHOScore>
0.9131

> <Gold.PLP.Chemscore.Metal>
0.0000

> <Gold.Chemscore.Hbonds>
donor molecule, donor type, donor heavy atom, donor atom, acceptor molecule, acceptor atom, score
      P1  H  6896  6909       L1    21  0.11
      P1  H  7989  7998       L1     2  1.00
      L1  C     6    31       P1  8028  0.99

> <Gold.PLP.Chemscore.Internal.Correction>
1.7637

> <Gold.Rescore>
     Score         DG    S(hbond)    S(metal)    S(lipo)     H(rot)  DE(clash)    DE(int)     intcor
     13.33     -18.59       1.11        0.00     122.92       1.94       1.26       4.00       ----

> <Gold.Chemscore.Fitness>
13.3346

> <Gold.Chemscore.DG>
-18.5922

> <Gold.Chemscore.ZeroCoef>
-5.4800

> <Gold.Chemscore.Hbond>
1.1072

> <Gold.Chemscore.Metal>
0.0000

> <Gold.Chemscore.Lipo>
122.9247

> <Gold.Chemscore.Internal_Hbond>
0.0000

> <Gold.Chemscore.DEClash>
1.2582

> <Gold.Chemscore.DEInternal>
3.9993

> <Gold.Chemscore.Rot>
1.9407

> <Gold.Chemscore.Internal.Correction>
   9.000000E+99

> <Gold.Chemscore.Hbonds>
donor molecule, donor type, donor heavy atom, donor atom, acceptor molecule, acceptor atom, score
      P1  H  6896  6909       L1    21  0.14
      P1  H  7989  7998       L1     2  0.33

> <Gold.Chemscore.Hbond.Weighted>
-3.6982

> <Gold.Chemscore.Metal.Weighted>
-0.0000

> <Gold.Chemscore.Lipo.Weighted>
-14.3822

> <Gold.Chemscore.Internal_Hbond.Weighted>
0.0000

> <Gold.Chemscore.DEClash.Weighted>
1.2582

> <Gold.Chemscore.DEInternal.Weighted>
3.9993

> <Gold.Chemscore.Rot.Weighted>
4.9682

> <Gold.Chemscore.Internal.Correction.Weighted>
   9.000000E+99

> <Gold.Protein.RotatedTorsions>
[ 6907 6896 6895 6894 ] final  104.06 input  -60.11 | X-H torsion
[ 7974 7965 7964 7962 ] final  -66.36 input  175.53 | X-H torsion
[ 8008 7997 7996 7995 ] final  -23.78 input   59.86 | X-H torsion
[ 10167 10162 10161 10158 ] final  171.30 input  -65.29 | X-H torsion
[ 10718 10713 10712 10709 ] final   75.03 input   66.30 | X-H torsion
[ 10763 10752 10751 10750 ] final   83.02 input  -60.55 | X-H torsion
[ 11005 11000 10999 10996 ] final  -63.63 input  -57.11 | X-H torsion

> <Gold.Protein.ActiveResidues>
 VAL166  LYS551  ARG553  GLY616  TRP617  ASP618  TYR619  PRO620  LYS621  CYS622 
 ASP623  PHE694  ASN695  SER759  ASP760  ASP761  ALA762  ILE779  LEU786  VAL792 
 PHE793  MET794  SER795  GLU796  ALA797  LYS798  CYS799  TRP800  GLU811  SER814 

> <Gold.Protein.RotatedAtoms>
  152.5276  133.9733  159.7772 H   0  0  0  0  0  0  0  0  0  0  0  0  # atno 6907 bound_to 6896
  151.0001  133.6056  159.2703 H   0  0  0  0  0  0  0  0  0  0  0  0  # atno 6908 bound_to 6896
  151.3169  135.0815  159.9345 H   0  0  0  0  0  0  0  0  0  0  0  0  # atno 6909 bound_to 6896
  145.7427  140.8946  143.0521 H   0  0  0  0  0  0  0  0  0  0  0  0  # atno 7974 bound_to 7965
  154.4566  140.1971  156.0364 H   0  0  0  0  0  0  0  0  0  0  0  0  # atno 8008 bound_to 7997
  156.0757  140.3278  155.7603 H   0  0  0  0  0  0  0  0  0  0  0  0  # atno 8009 bound_to 7997
  155.5192  140.0568  157.2900 H   0  0  0  0  0  0  0  0  0  0  0  0  # atno 8010 bound_to 7997
  139.5043  144.3500  151.9932 H   0  0  0  0  0  0  0  0  0  0  0  0  # atno 10167 bound_to 10162
  157.6617  130.9706  150.1295 H   0  0  0  0  0  0  0  0  0  0  0  0  # atno 10718 bound_to 10713
  153.1254  135.4707  154.9263 H   0  0  0  0  0  0  0  0  0  0  0  0  # atno 10763 bound_to 10752
  154.7615  135.3133  154.8372 H   0  0  0  0  0  0  0  0  0  0  0  0  # atno 10764 bound_to 10752
  153.8926  135.6883  153.4813 H   0  0  0  0  0  0  0  0  0  0  0  0  # atno 10765 bound_to 10752
  141.1399  133.6654  156.5710 H   0  0  0  0  0  0  0  0  0  0  0  0  # atno 11005 bound_to 11000
  144.6867  139.9483  143.7477 LP  0  0  0  0  0  0  0  0  0  0  0  0  # atno 17320 bound_to 7965
  146.0432  139.3441  143.0684 LP  0  0  0  0  0  0  0  0  0  0  0  0  # atno 17321 bound_to 7965
  140.2937  144.3725  150.6081 LP  0  0  0  0  0  0  0  0  0  0  0  0  # atno 17342 bound_to 10162
  140.5927  143.2167  151.7223 LP  0  0  0  0  0  0  0  0  0  0  0  0  # atno 17343 bound_to 10162
  156.2145  130.3669  149.8630 LP  0  0  0  0  0  0  0  0  0  0  0  0  # atno 17370 bound_to 10713
  156.6499  130.8739  151.3529 LP  0  0  0  0  0  0  0  0  0  0  0  0  # atno 17371 bound_to 10713
  140.3913  134.7438  157.4723 LP  0  0  0  0  0  0  0  0  0  0  0  0  # atno 17394 bound_to 11000
  140.0564  134.6057  155.8800 LP  0  0  0  0  0  0  0  0  0  0  0  0  # atno 17395 bound_to 11000

$$$$
