AV-unprocessed.smi:1178|AV-procd|sdf|4956|dock6
  -GOLD-   22720 3543D 1   1.00000     0.00000
 Structure written by MMmdl.
 33 34  0  0  0  0  0  0  0  0  1 V2000
  145.6943  136.6468  151.7556 O   0  0  0  0  0  0  0  0  0  0  0  0
  146.2812  136.0744  152.6750 C   0  0  0  0  0  0  0  0  0  0  0  0
  146.3320  134.5413  152.7371 C   0  0  0  0  0  0  0  0  0  0  0  0
  145.6635  133.9058  151.5925 N   0  0  0  0  0  0  0  0  0  0  0  0
  146.3279  132.9537  150.8323 C   0  0  0  0  0  0  0  0  0  0  0  0
  145.7641  132.3131  149.7810 C   0  0  0  0  0  0  0  0  0  0  0  0
  144.3891  132.6044  149.3896 C   0  0  0  0  0  0  0  0  0  0  0  0
  143.7906  132.0763  148.4550 O   0  0  0  0  0  0  0  0  0  0  0  0
  143.7546  133.5677  150.1781 N   0  0  0  0  0  0  0  0  0  0  0  0
  144.3298  134.2318  151.2625 C   0  0  0  0  0  0  0  0  0  0  0  0
  143.6793  135.0643  151.8926 O   0  0  0  0  0  0  0  0  0  0  0  0
  146.8904  136.7279  153.6760 N   0  0  0  0  0  0  0  0  0  0  0  0
  146.9829  138.1782  153.8035 C   0  0  0  0  0  0  0  0  0  0  0  0
  148.4465  138.6658  153.8440 C   0  0  0  0  0  0  0  0  0  0  0  0
  148.7353  139.4378  155.0606 N   0  0  0  0  0  0  0  0  0  0  0  0
  149.2880  140.6724  155.0285 C   0  0  0  0  0  0  0  0  0  0  0  0
  149.6005  141.2770  154.0034 O   0  0  0  0  0  0  0  0  0  0  0  0
  149.5204  141.2997  156.4081 C   0  0  0  0  0  0  0  0  0  0  0  0
  148.9424  140.0681  157.5784 S   0  0  0  0  0  0  0  0  0  0  0  0
  148.4984  138.9718  156.2987 C   0  0  0  0  0  0  0  0  0  0  0  0
  148.0172  137.8673  156.5502 O   0  0  0  0  0  0  0  0  0  0  0  0
  142.8003  133.8014  149.9458 H   0  0  0  0  0  0  0  0  0  0  0  0
  147.3684  134.2036  152.8019 H   0  0  0  0  0  0  0  0  0  0  0  0
  145.8669  134.2245  153.6714 H   0  0  0  0  0  0  0  0  0  0  0  0
  147.3466  132.7012  151.0898 H   0  0  0  0  0  0  0  0  0  0  0  0
  146.3324  131.5791  149.2282 H   0  0  0  0  0  0  0  0  0  0  0  0
  147.3419  136.1783  154.3926 H   0  0  0  0  0  0  0  0  0  0  0  0
  146.4700  138.6375  152.9570 H   0  0  0  0  0  0  0  0  0  0  0  0
  146.4379  138.4968  154.6924 H   0  0  0  0  0  0  0  0  0  0  0  0
  149.1432  137.8339  153.7266 H   0  0  0  0  0  0  0  0  0  0  0  0
  148.6292  139.2999  152.9747 H   0  0  0  0  0  0  0  0  0  0  0  0
  150.5787  141.5096  156.5634 H   0  0  0  0  0  0  0  0  0  0  0  0
  148.9532  142.2248  156.5126 H   0  0  0  0  0  0  0  0  0  0  0  0
  1  2  2  0  0  0  0
  2  3  1  0  0  0  0
  2 12  1  0  0  0  0
  3  4  1  0  0  0  0
  3 23  1  0  0  0  0
  3 24  1  0  0  0  0
  4 10  1  0  0  0  0
  4  5  1  0  0  0  0
  5  6  2  0  0  0  0
  5 25  1  0  0  0  0
  6  7  1  0  0  0  0
  6 26  1  0  0  0  0
  7  8  2  0  0  0  0
  7  9  1  0  0  0  0
  9 22  1  0  0  0  0
  9 10  1  0  0  0  0
 10 11  2  0  0  0  0
 12 13  1  0  0  0  0
 12 27  1  0  0  0  0
 13 14  1  0  0  0  0
 13 28  1  0  0  0  0
 13 29  1  0  0  0  0
 14 15  1  0  0  0  0
 14 30  1  0  0  0  0
 14 31  1  0  0  0  0
 15 20  1  0  0  0  0
 15 16  1  0  0  0  0
 16 17  2  0  0  0  0
 16 18  1  0  0  0  0
 18 19  1  0  0  0  0
 18 32  1  0  0  0  0
 18 33  1  0  0  0  0
 19 20  1  0  0  0  0
 20 21  2  0  0  0  0
M  END
> <s_m_source_file>
AV-unprocessed.smi

> <i_m_source_file_index>
1178

> <i_lp_mmshare_version>
43012

> <i_f3d_flags>
0

> <s_epik_input>
Tz1jMVtuSF1jKD1PKVtjSF1bY0hdbjFbQ0gyXUMoPU8pW05IXVtDSDJdW0NIMl1OMkMoPU8pW0NIMl1TQzI9Tw==

> <s_epik_cmdline>
J2VwaWtfcHl0aG9uJywgJy1waCcsICc3LjAnLCAnLXRuJywgJzgnLCAnLW1hJywgJzIwMCcsICctbWV0YWxfYmluZGluZycsICctaW1hZScsICc8aW5maWxlLm1hZT4nLCAnLW9tYWUnLCAnPG91dGZpbGUubWFlPic=

> <r_lp_tautomer_probability>
0.999537

> <r_epik_Ionization_Penalty>
0.00339795

> <r_epik_Ionization_Penalty_Charging>
0.0033979

> <r_epik_Ionization_Penalty_Neutral>
5.48861e-08

> <r_epik_State_Penalty>
0.00240602

> <r_epik_Charging_Adjusted_Penalty>
0.00580392

> <i_epik_Tot_Q>
0

> <i_epik_Tot_abs_Q>
0

> <r_epik_Metal_State_Penalty>
0.366682

> <b_epik_Metal_Only>
0

> <s_lp_Force_Field>
OPLS_2005

> <r_lp_Energy>
11.0957

> <b_lp_Chiralities_Consistent>
1

> <s_lp_Variant>
AV-unprocessed.smi:1178-1

> <Gold.Version>
5.8.1

> <Gold.Id.Protein>
6NUR|6NUR_protein|mol2

> <Gold.PLP.Fitness>
36.3958

> <Gold.PLP.PLP>
-27.6466

> <Gold.PLP.part.hbond>
-5.0000

> <Gold.PLP.part.metal>
0.0000

> <Gold.PLP.part.buried>
-3.5966

> <Gold.PLP.part.nonpolar>
-19.9277

> <Gold.PLP.part.repulsive>
1.4180

> <Gold.PLP.ligand.clash>
0.0000

> <Gold.PLP.ligand.torsion>
0.4651

> <Gold.PLP.Chemscore.Hbond>
2.7298

> <Gold.PLP.Chemscore.CHOScore>
0.4908

> <Gold.PLP.Chemscore.Metal>
0.0000

> <Gold.Chemscore.Hbonds>
donor molecule, donor type, donor heavy atom, donor atom, acceptor molecule, acceptor atom, score
      L1  H     9    22       P1 10186  1.00
      P1  H  7989  7998       L1    17  0.27
      P1  H  8011  8017       L1    17  0.77
      P1  H 10785 10796       L1     8  0.57
      L1  C     5    25       P1 10747  0.86

> <Gold.PLP.Chemscore.Internal.Correction>
0.0177

> <Gold.Rescore>
     Score         DG    S(hbond)    S(metal)    S(lipo)     H(rot)  DE(clash)    DE(int)     intcor
      6.73     -11.38       2.75        0.00      36.96       2.97       0.80       3.85       ----

> <Gold.Chemscore.Fitness>
6.7311

> <Gold.Chemscore.DG>
-11.3830

> <Gold.Chemscore.ZeroCoef>
-5.4800

> <Gold.Chemscore.Hbond>
2.7468

> <Gold.Chemscore.Metal>
0.0000

> <Gold.Chemscore.Lipo>
36.9624

> <Gold.Chemscore.Internal_Hbond>
0.0000

> <Gold.Chemscore.DEClash>
0.7995

> <Gold.Chemscore.DEInternal>
3.8525

> <Gold.Chemscore.Rot>
2.9672

> <Gold.Chemscore.Internal.Correction>
   9.000000E+99

> <Gold.Chemscore.Hbonds>
donor molecule, donor type, donor heavy atom, donor atom, acceptor molecule, acceptor atom, score
      L1  H     9    22       P1 10186  0.99
      P1  H  7989  7998       L1    17  0.21
      P1  H  8011  8017       L1    17  0.71
      P1  H 10785 10796       L1     8  0.51

> <Gold.Chemscore.Hbond.Weighted>
-9.1744

> <Gold.Chemscore.Metal.Weighted>
-0.0000

> <Gold.Chemscore.Lipo.Weighted>
-4.3246

> <Gold.Chemscore.Internal_Hbond.Weighted>
0.0000

> <Gold.Chemscore.DEClash.Weighted>
0.7995

> <Gold.Chemscore.DEInternal.Weighted>
3.8525

> <Gold.Chemscore.Rot.Weighted>
7.5960

> <Gold.Chemscore.Internal.Correction.Weighted>
   9.000000E+99

> <Gold.Protein.RotatedTorsions>
[ 6907 6896 6895 6894 ] final   69.99 input  -60.11 | X-H torsion
[ 7974 7965 7964 7962 ] final  150.47 input  175.53 | X-H torsion
[ 8008 7997 7996 7995 ] final -179.74 input   59.86 | X-H torsion
[ 10167 10162 10161 10158 ] final  160.30 input  -65.29 | X-H torsion
[ 10718 10713 10712 10709 ] final -103.43 input   66.30 | X-H torsion
[ 10763 10752 10751 10750 ] final   45.03 input  -60.55 | X-H torsion
[ 11005 11000 10999 10996 ] final  -98.86 input  -57.11 | X-H torsion

> <Gold.Protein.ActiveResidues>
 VAL166  LYS551  ARG553  GLY616  TRP617  ASP618  TYR619  PRO620  LYS621  CYS622 
 ASP623  PHE694  ASN695  SER759  ASP760  ASP761  ALA762  ILE779  LEU786  VAL792 
 PHE793  MET794  SER795  GLU796  ALA797  LYS798  CYS799  TRP800  GLU811  SER814 

> <Gold.Protein.RotatedAtoms>
  152.4721  134.4934  159.9702 H   0  0  0  0  0  0  0  0  0  0  0  0  # atno 6907 bound_to 6896
  151.4958  133.3509  159.2869 H   0  0  0  0  0  0  0  0  0  0  0  0  # atno 6908 bound_to 6896
  150.8737  134.8144  159.7236 H   0  0  0  0  0  0  0  0  0  0  0  0  # atno 6909 bound_to 6896
  144.8362  139.6412  143.6037 H   0  0  0  0  0  0  0  0  0  0  0  0  # atno 7974 bound_to 7965
  156.0340  140.1288  157.0228 H   0  0  0  0  0  0  0  0  0  0  0  0  # atno 8008 bound_to 7997
  154.4362  140.1044  156.6211 H   0  0  0  0  0  0  0  0  0  0  0  0  # atno 8009 bound_to 7997
  155.5765  140.3467  155.4531 H   0  0  0  0  0  0  0  0  0  0  0  0  # atno 8010 bound_to 7997
  139.4839  144.4647  151.8657 H   0  0  0  0  0  0  0  0  0  0  0  0  # atno 10167 bound_to 10162
  156.0265  130.5467  150.7251 H   0  0  0  0  0  0  0  0  0  0  0  0  # atno 10718 bound_to 10713
  152.9831  135.6052  154.3371 H   0  0  0  0  0  0  0  0  0  0  0  0  # atno 10763 bound_to 10752
  154.3070  135.2772  155.2586 H   0  0  0  0  0  0  0  0  0  0  0  0  # atno 10764 bound_to 10752
  154.4812  135.5916  153.6447 H   0  0  0  0  0  0  0  0  0  0  0  0  # atno 10765 bound_to 10752
  141.1329  133.8278  157.0896 H   0  0  0  0  0  0  0  0  0  0  0  0  # atno 11005 bound_to 11000
  146.2660  139.6522  142.9329 LP  0  0  0  0  0  0  0  0  0  0  0  0  # atno 17320 bound_to 7965
  145.4790  141.0437  143.2656 LP  0  0  0  0  0  0  0  0  0  0  0  0  # atno 17321 bound_to 7965
  140.4112  144.2366  150.5889 LP  0  0  0  0  0  0  0  0  0  0  0  0  # atno 17342 bound_to 10162
  140.4964  143.2331  151.8743 LP  0  0  0  0  0  0  0  0  0  0  0  0  # atno 17343 bound_to 10162
  157.4857  131.0906  151.0485 LP  0  0  0  0  0  0  0  0  0  0  0  0  # atno 17370 bound_to 10713
  157.0905  130.5940  149.5439 LP  0  0  0  0  0  0  0  0  0  0  0  0  # atno 17371 bound_to 10713
  140.0400  134.9859  157.0944 LP  0  0  0  0  0  0  0  0  0  0  0  0  # atno 17394 bound_to 11000
  140.4149  134.1941  155.7163 LP  0  0  0  0  0  0  0  0  0  0  0  0  # atno 17395 bound_to 11000

$$$$
