AV-unprocessed.smi:3078|AV-procd|sdf|11732|dock8
  -GOLD-   2272017133D 1   1.00000     0.00000
 Structure written by MMmdl.
 23 23  0  0  0  0  0  0  0  0  2 V2000
  145.3805  136.5339  152.0856 C   0  0  0  0  0  0  0  0  0  0  0  0
  145.3573  135.2383  151.4407 N   0  0  0  0  0  0  0  0  0  0  0  0
  144.2984  134.5952  150.8375 C   0  0  0  0  0  0  0  0  0  0  0  0
  144.7572  133.3933  150.3719 C   0  0  0  0  0  0  0  0  0  0  0  0
  144.0192  132.3124  149.6263 C   0  0  1  0  0  0  0  0  0  0  0  0
  142.7723  131.9917  150.2980 N   0  0  0  0  0  0  0  0  0  0  0  0
  143.7084  132.7591  148.1864 C   0  0  0  0  0  0  0  0  0  0  0  0
  143.0613  134.0820  148.1514 N   0  3  0  0  0  0  0  0  0  0  0  0
  146.1324  133.4024  150.7436 C   0  0  0  0  0  0  0  0  0  0  0  0
  146.4869  134.5043  151.3836 N   0  0  0  0  0  0  0  0  0  0  0  0
  144.4143  137.0260  151.9724 H   0  0  0  0  0  0  0  0  0  0  0  0
  146.1512  137.1588  151.6331 H   0  0  0  0  0  0  0  0  0  0  0  0
  145.5951  136.4126  153.1477 H   0  0  0  0  0  0  0  0  0  0  0  0
  143.3157  135.0411  150.7881 H   0  0  0  0  0  0  0  0  0  0  0  0
  144.6215  131.4032  149.5969 H   0  0  0  0  0  0  0  0  0  0  0  0
  142.0615  132.6614  150.0385 H   0  0  0  0  0  0  0  0  0  0  0  0
  142.4413  131.0901  149.9836 H   0  0  0  0  0  0  0  0  0  0  0  0
  144.6134  132.7806  147.5772 H   0  0  0  0  0  0  0  0  0  0  0  0
  143.0273  132.0485  147.7165 H   0  0  0  0  0  0  0  0  0  0  0  0
  143.7678  134.8036  148.1404 H   0  0  0  0  0  0  0  0  0  0  0  0
  142.4822  134.1887  148.9721 H   0  0  0  0  0  0  0  0  0  0  0  0
  146.8802  132.6433  150.5675 H   0  0  0  0  0  0  0  0  0  0  0  0
  142.4888  134.1562  147.3228 H   0  0  0  0  0  0  0  0  0  0  0  0
  1  2  1  0  0  0  0
  1 11  1  0  0  0  0
  1 12  1  0  0  0  0
  1 13  1  0  0  0  0
  2 10  1  0  0  0  0
  2  3  1  0  0  0  0
  3  4  2  0  0  0  0
  3 14  1  0  0  0  0
  4  5  1  0  0  0  0
  4  9  1  0  0  0  0
  5  6  1  0  0  0  0
  5  7  1  0  0  0  0
  5 15  1  0  0  0  0
  6 16  1  0  0  0  0
  6 17  1  0  0  0  0
  7  8  1  0  0  0  0
  7 18  1  0  0  0  0
  7 19  1  0  0  0  0
  8 20  1  0  0  0  0
  8 21  1  0  0  0  0
  8 23  1  0  0  0  0
  9 10  2  0  0  0  0
  9 22  1  0  0  0  0
M  CHG  1   8   1
M  END
> <s_m_source_file>
AV-unprocessed.smi

> <i_m_source_file_index>
3078

> <i_lp_mmshare_version>
43012

> <i_f3d_flags>
0

> <s_epik_input>
W0NIM11uMVtjSF1jKFtjSF1uMSlbQ0BIXShbTkgyXSlbQ0gyXVtOSDJd

> <s_epik_cmdline>
J2VwaWtfcHl0aG9uJywgJy1waCcsICc3LjAnLCAnLXRuJywgJzgnLCAnLW1hJywgJzIwMCcsICctbWV0YWxfYmluZGluZycsICctaW1hZScsICc8aW5maWxlLm1hZT4nLCAnLW9tYWUnLCAnPG91dGZpbGUubWFlPic=

> <r_lp_tautomer_probability>
1

> <r_epik_Ionization_Penalty>
0.0498714

> <r_epik_Ionization_Penalty_Charging>
0.00651912

> <r_epik_Ionization_Penalty_Neutral>
0.0433523

> <r_epik_State_Penalty>
0.141593

> <r_epik_Charging_Adjusted_Penalty>
0.148112

> <i_epik_Tot_Q>
1

> <i_epik_Tot_abs_Q>
1

> <r_epik_Metal_State_Penalty>
0.141584

> <b_epik_Metal_Only>
0

> <s_lp_Force_Field>
OPLS_2005

> <r_lp_Energy>
-1.23381

> <b_lp_Chiralities_Consistent>
1

> <s_lp_Variant>
AV-unprocessed.smi:3078-2

> <Gold.Version>
5.8.1

> <Gold.Id.Protein>
6NUR|6NUR_protein|mol2

> <Gold.PLP.Fitness>
44.1727

> <Gold.PLP.PLP>
-25.6321

> <Gold.PLP.part.hbond>
-5.0000

> <Gold.PLP.part.metal>
0.0000

> <Gold.PLP.part.buried>
-3.5726

> <Gold.PLP.part.nonpolar>
-18.9313

> <Gold.PLP.part.repulsive>
1.6547

> <Gold.PLP.ligand.clash>
0.0000

> <Gold.PLP.ligand.torsion>
0.3001

> <Gold.PLP.Chemscore.Hbond>
6.0000

> <Gold.PLP.Chemscore.CHOScore>
0.3794

> <Gold.PLP.Chemscore.Metal>
0.0000

> <Gold.Chemscore.Hbonds>
donor molecule, donor type, donor heavy atom, donor atom, acceptor molecule, acceptor atom, score
      L1  H     6    16       P1 10186  0.83
      L1  H     6    17       P1 10952  0.72
      L1  H     8    20       P1  7921  0.05
      L1  H     8    21       P1 10186  1.82
      L1  H     8    23       P1 10195  0.73
      L1  C     3    14       P1 10186  0.50
      L1  C     9    22       P1 10747  0.42

> <Gold.PLP.Chemscore.Internal.Correction>
0.0025

> <Gold.Rescore>
     Score         DG    S(hbond)    S(metal)    S(lipo)     H(rot)  DE(clash)    DE(int)     intcor
     22.94     -24.11       4.80        0.00      53.07       1.41       0.42       0.75       ----

> <Gold.Chemscore.Fitness>
22.9378

> <Gold.Chemscore.DG>
-24.1072

> <Gold.Chemscore.ZeroCoef>
-5.4800

> <Gold.Chemscore.Hbond>
4.8003

> <Gold.Chemscore.Metal>
0.0000

> <Gold.Chemscore.Lipo>
53.0745

> <Gold.Chemscore.Internal_Hbond>
0.0000

> <Gold.Chemscore.DEClash>
0.4218

> <Gold.Chemscore.DEInternal>
0.7476

> <Gold.Chemscore.Rot>
1.4123

> <Gold.Chemscore.Internal.Correction>
   9.000000E+99

> <Gold.Chemscore.Hbonds>
donor molecule, donor type, donor heavy atom, donor atom, acceptor molecule, acceptor atom, score
      L1  H     6    16       P1 10186  0.82
      L1  H     6    17       P1 10952  0.65
      L1  H     8    20       P1  7921  0.08
      L1  H     8    21       P1 10186  0.88
      L1  H     8    23       P1 10195  0.34

> <Gold.Chemscore.Hbond.Weighted>
-16.0329

> <Gold.Chemscore.Metal.Weighted>
-0.0000

> <Gold.Chemscore.Lipo.Weighted>
-6.2097

> <Gold.Chemscore.Internal_Hbond.Weighted>
0.0000

> <Gold.Chemscore.DEClash.Weighted>
0.4218

> <Gold.Chemscore.DEInternal.Weighted>
0.7476

> <Gold.Chemscore.Rot.Weighted>
3.6154

> <Gold.Chemscore.Internal.Correction.Weighted>
   9.000000E+99

> <Gold.Protein.RotatedTorsions>
[ 6907 6896 6895 6894 ] final   -8.68 input  -60.11 | X-H torsion
[ 7974 7965 7964 7962 ] final   34.93 input  175.53 | X-H torsion
[ 8008 7997 7996 7995 ] final   88.25 input   59.86 | X-H torsion
[ 10167 10162 10161 10158 ] final  -54.16 input  -65.29 | X-H torsion
[ 10718 10713 10712 10709 ] final  -45.71 input   66.30 | X-H torsion
[ 10763 10752 10751 10750 ] final  144.84 input  -60.55 | X-H torsion
[ 11005 11000 10999 10996 ] final  -28.04 input  -57.11 | X-H torsion

> <Gold.Protein.ActiveResidues>
 VAL166  LYS551  ARG553  GLY616  TRP617  ASP618  TYR619  PRO620  LYS621  CYS622 
 ASP623  PHE694  ASN695  SER759  ASP760  ASP761  ALA762  ILE779  LEU786  VAL792 
 PHE793  MET794  SER795  GLU796  ALA797  LYS798  CYS799  TRP800  GLU811  SER814 

> <Gold.Protein.RotatedAtoms>
  151.4298  135.1008  159.9638 H   0  0  0  0  0  0  0  0  0  0  0  0  # atno 6907 bound_to 6896
  152.4960  133.8628  159.7269 H   0  0  0  0  0  0  0  0  0  0  0  0  # atno 6908 bound_to 6896
  150.9163  133.6877  159.2870 H   0  0  0  0  0  0  0  0  0  0  0  0  # atno 6909 bound_to 6896
  146.1319  139.6207  142.9221 H   0  0  0  0  0  0  0  0  0  0  0  0  # atno 7974 bound_to 7965
  155.9855  140.3373  155.6703 H   0  0  0  0  0  0  0  0  0  0  0  0  # atno 8008 bound_to 7997
  155.6492  140.0703  157.2611 H   0  0  0  0  0  0  0  0  0  0  0  0  # atno 8009 bound_to 7997
  154.4204  140.1729  156.1643 H   0  0  0  0  0  0  0  0  0  0  0  0  # atno 8010 bound_to 7997
  140.6446  143.2527  151.4896 H   0  0  0  0  0  0  0  0  0  0  0  0  # atno 10167 bound_to 10162
  156.2256  130.4169  149.8938 H   0  0  0  0  0  0  0  0  0  0  0  0  # atno 10718 bound_to 10713
  153.9955  135.2928  155.3408 H   0  0  0  0  0  0  0  0  0  0  0  0  # atno 10763 bound_to 10752
  154.7190  135.5117  153.8785 H   0  0  0  0  0  0  0  0  0  0  0  0  # atno 10764 bound_to 10752
  153.0790  135.6673  154.0202 H   0  0  0  0  0  0  0  0  0  0  0  0  # atno 10765 bound_to 10752
  140.9173  133.7422  156.0752 H   0  0  0  0  0  0  0  0  0  0  0  0  # atno 11005 bound_to 11000
  145.5242  141.0430  143.2418 LP  0  0  0  0  0  0  0  0  0  0  0  0  # atno 17320 bound_to 7965
  144.7699  139.6759  143.7199 LP  0  0  0  0  0  0  0  0  0  0  0  0  # atno 17321 bound_to 7965
  139.5656  144.2051  152.1759 LP  0  0  0  0  0  0  0  0  0  0  0  0  # atno 17342 bound_to 10162
  140.1332  144.5270  150.6790 LP  0  0  0  0  0  0  0  0  0  0  0  0  # atno 17343 bound_to 10162
  156.6570  130.8767  151.3541 LP  0  0  0  0  0  0  0  0  0  0  0  0  # atno 17370 bound_to 10713
  157.7109  130.9439  150.1085 LP  0  0  0  0  0  0  0  0  0  0  0  0  # atno 17371 bound_to 10713
  140.8034  134.3483  157.5433 LP  0  0  0  0  0  0  0  0  0  0  0  0  # atno 17394 bound_to 11000
  139.8768  134.9211  156.3267 LP  0  0  0  0  0  0  0  0  0  0  0  0  # atno 17395 bound_to 11000

$$$$
