AV-unprocessed.smi:1164|AV-procd|sdf|4926|dock4
  -GOLD-   22720 3503D 1   1.00000     0.00000
 Structure written by MMmdl.
 30 30  0  0  0  0  0  0  0  0  2 V2000
  150.7166  145.3303  159.3337 C   0  0  0  0  0  0  0  0  0  0  0  0
  151.6811  144.1450  159.1511 C   0  0  0  0  0  0  0  0  0  0  0  0
  152.9093  144.6193  158.3455 C   0  0  0  0  0  0  0  0  0  0  0  0
  152.1087  143.6274  160.5408 C   0  0  0  0  0  0  0  0  0  0  0  0
  150.9470  143.1078  158.4168 N   0  0  0  0  0  0  0  0  0  0  0  0
  151.3274  141.8473  158.1415 C   0  0  0  0  0  0  0  0  0  0  0  0
  152.4104  141.3707  158.4844 O   0  0  0  0  0  0  0  0  0  0  0  0
  150.3094  141.0152  157.3452 C   0  0  0  0  0  0  0  0  0  0  0  0
  150.7218  139.6242  157.1052 N   0  0  0  0  0  0  0  0  0  0  0  0
  150.6635  138.7781  158.2939 N   0  5  0  0  0  0  0  0  0  0  0  0
  151.0018  137.4655  158.1900 C   0  0  0  0  0  0  0  0  0  0  0  0
  150.9589  136.6888  159.1414 O   0  0  0  0  0  0  0  0  0  0  0  0
  151.4354  136.9710  156.8937 C   0  0  0  0  0  0  0  0  0  0  0  0
  151.5015  137.7804  155.8183 C   0  0  0  0  0  0  0  0  0  0  0  0
  151.1411  139.1916  155.8816 C   0  0  0  0  0  0  0  0  0  0  0  0
  151.2063  139.9385  154.9049 O   0  0  0  0  0  0  0  0  0  0  0  0
  151.1894  146.1467  159.8805 H   0  0  0  0  0  0  0  0  0  0  0  0
  149.8254  145.0371  159.8902 H   0  0  0  0  0  0  0  0  0  0  0  0
  150.3879  145.7278  158.3725 H   0  0  0  0  0  0  0  0  0  0  0  0
  152.6257  144.9419  157.3430 H   0  0  0  0  0  0  0  0  0  0  0  0
  153.6588  143.8351  158.2395 H   0  0  0  0  0  0  0  0  0  0  0  0
  153.3978  145.4623  158.8349 H   0  0  0  0  0  0  0  0  0  0  0  0
  152.5733  144.4194  161.1289 H   0  0  0  0  0  0  0  0  0  0  0  0
  152.8326  142.8154  160.4710 H   0  0  0  0  0  0  0  0  0  0  0  0
  151.2530  143.2578  161.1072 H   0  0  0  0  0  0  0  0  0  0  0  0
  150.0367  143.3814  158.0763 H   0  0  0  0  0  0  0  0  0  0  0  0
  149.3542  141.0261  157.8732 H   0  0  0  0  0  0  0  0  0  0  0  0
  150.1235  141.5234  156.3972 H   0  0  0  0  0  0  0  0  0  0  0  0
  151.7131  135.9323  156.7919 H   0  0  0  0  0  0  0  0  0  0  0  0
  151.8308  137.3709  154.8751 H   0  0  0  0  0  0  0  0  0  0  0  0
  1  2  1  0  0  0  0
  1 17  1  0  0  0  0
  1 18  1  0  0  0  0
  1 19  1  0  0  0  0
  2  3  1  0  0  0  0
  2  4  1  0  0  0  0
  2  5  1  0  0  0  0
  3 20  1  0  0  0  0
  3 21  1  0  0  0  0
  3 22  1  0  0  0  0
  4 23  1  0  0  0  0
  4 24  1  0  0  0  0
  4 25  1  0  0  0  0
  5  6  1  0  0  0  0
  5 26  1  0  0  0  0
  6  7  2  0  0  0  0
  6  8  1  0  0  0  0
  8 27  1  0  0  0  0
  8 28  1  0  0  0  0
  8  9  1  0  0  0  0
  9 10  1  0  0  0  0
  9 15  1  0  0  0  0
 10 11  1  0  0  0  0
 11 12  2  0  0  0  0
 11 13  1  0  0  0  0
 13 29  1  0  0  0  0
 13 14  2  0  0  0  0
 14 30  1  0  0  0  0
 14 15  1  0  0  0  0
 15 16  2  0  0  0  0
M  CHG  1  10  -1
M  END
> <s_m_source_file>
AV-unprocessed.smi

> <i_m_source_file_index>
1164

> <i_lp_mmshare_version>
43012

> <i_f3d_flags>
0

> <s_epik_input>
W0NIM11DKFtDSDNdKShbQ0gzXSlbTkhdQyg9TylbQ0gyXW4xW25IXWMoPU8pW2NIXVtjSF1jMT1P

> <s_epik_cmdline>
J2VwaWtfcHl0aG9uJywgJy1waCcsICc3LjAnLCAnLXRuJywgJzgnLCAnLW1hJywgJzIwMCcsICctbWV0YWxfYmluZGluZycsICctaW1hZScsICc8aW5maWxlLm1hZT4nLCAnLW9tYWUnLCAnPG91dGZpbGUubWFlPic=

> <r_lp_tautomer_probability>
1

> <r_epik_Ionization_Penalty>
0.098909

> <r_epik_Ionization_Penalty_Charging>
0.0989089

> <r_epik_Ionization_Penalty_Neutral>
2.46306e-08

> <r_epik_State_Penalty>
0.0348838

> <r_epik_Charging_Adjusted_Penalty>
0.133793

> <i_epik_Tot_Q>
-1

> <i_epik_Tot_abs_Q>
1

> <r_epik_Metal_State_Penalty>
0.0348839

> <b_epik_Metal_Only>
0

> <s_lp_Force_Field>
OPLS_2005

> <r_lp_Energy>
18.541

> <b_lp_Chiralities_Consistent>
1

> <s_lp_Variant>
AV-unprocessed.smi:1164-1

> <Gold.Version>
5.8.1

> <Gold.Id.Protein>
6NUR|6NUR_protein|mol2

> <Gold.PLP.Fitness>
34.3974

> <Gold.PLP.PLP>
-29.0880

> <Gold.PLP.part.hbond>
-2.0000

> <Gold.PLP.part.metal>
0.0000

> <Gold.PLP.part.buried>
-4.7227

> <Gold.PLP.part.nonpolar>
-21.8366

> <Gold.PLP.part.repulsive>
0.1178

> <Gold.PLP.ligand.clash>
0.0000

> <Gold.PLP.ligand.torsion>
0.2406

> <Gold.PLP.Chemscore.Hbond>
1.9280

> <Gold.PLP.Chemscore.CHOScore>
0.0000

> <Gold.PLP.Chemscore.Metal>
0.0000

> <Gold.Chemscore.Hbonds>
donor molecule, donor type, donor heavy atom, donor atom, acceptor molecule, acceptor atom, score
      P1  H  6896  6907       L1    12  1.00
      P1  H  7989  7998       L1    16  1.00

> <Gold.PLP.Chemscore.Internal.Correction>
0.0067

> <Gold.Rescore>
     Score         DG    S(hbond)    S(metal)    S(lipo)     H(rot)  DE(clash)    DE(int)     intcor
     15.10     -15.31       2.00        0.00      64.11       1.70       0.03       0.17       ----

> <Gold.Chemscore.Fitness>
15.1003

> <Gold.Chemscore.DG>
-15.3058

> <Gold.Chemscore.ZeroCoef>
-5.4800

> <Gold.Chemscore.Hbond>
1.9953

> <Gold.Chemscore.Metal>
0.0000

> <Gold.Chemscore.Lipo>
64.1084

> <Gold.Chemscore.Internal_Hbond>
0.0000

> <Gold.Chemscore.DEClash>
0.0338

> <Gold.Chemscore.DEInternal>
0.1718

> <Gold.Chemscore.Rot>
1.6950

> <Gold.Chemscore.Internal.Correction>
   9.000000E+99

> <Gold.Chemscore.Hbonds>
donor molecule, donor type, donor heavy atom, donor atom, acceptor molecule, acceptor atom, score
      P1  H  6896  6907       L1    12  0.99
      P1  H  7989  7998       L1    16  1.00

> <Gold.Chemscore.Hbond.Weighted>
-6.6644

> <Gold.Chemscore.Metal.Weighted>
-0.0000

> <Gold.Chemscore.Lipo.Weighted>
-7.5007

> <Gold.Chemscore.Internal_Hbond.Weighted>
0.0000

> <Gold.Chemscore.DEClash.Weighted>
0.0338

> <Gold.Chemscore.DEInternal.Weighted>
0.1718

> <Gold.Chemscore.Rot.Weighted>
4.3393

> <Gold.Chemscore.Internal.Correction.Weighted>
   9.000000E+99

> <Gold.Protein.RotatedTorsions>
[ 6907 6896 6895 6894 ] final  -14.99 input  -60.11 | X-H torsion
[ 7974 7965 7964 7962 ] final -140.25 input  175.53 | X-H torsion
[ 8008 7997 7996 7995 ] final   19.55 input   59.86 | X-H torsion
[ 10167 10162 10161 10158 ] final  -65.59 input  -65.29 | X-H torsion
[ 10718 10713 10712 10709 ] final  -72.45 input   66.30 | X-H torsion
[ 10763 10752 10751 10750 ] final   67.75 input  -60.55 | X-H torsion
[ 11005 11000 10999 10996 ] final -148.23 input  -57.11 | X-H torsion

> <Gold.Protein.ActiveResidues>
 VAL166  LYS551  ARG553  GLY616  TRP617  ASP618  TYR619  PRO620  LYS621  CYS622 
 ASP623  PHE694  ASN695  SER759  ASP760  ASP761  ALA762  ILE779  LEU786  VAL792 
 PHE793  MET794  SER795  GLU796  ALA797  LYS798  CYS799  TRP800  GLU811  SER814 

> <Gold.Protein.RotatedAtoms>
  151.3309  135.0841  159.9337 H   0  0  0  0  0  0  0  0  0  0  0  0  # atno 6907 bound_to 6896
  152.5235  133.9544  159.7697 H   0  0  0  0  0  0  0  0  0  0  0  0  # atno 6908 bound_to 6896
  150.9882  133.6123  159.2742 H   0  0  0  0  0  0  0  0  0  0  0  0  # atno 6909 bound_to 6896
  144.8612  140.6222  143.5327 H   0  0  0  0  0  0  0  0  0  0  0  0  # atno 7974 bound_to 7965
  154.9224  140.3029  155.5209 H   0  0  0  0  0  0  0  0  0  0  0  0  # atno 8008 bound_to 7997
  156.3009  140.2369  156.4212 H   0  0  0  0  0  0  0  0  0  0  0  0  # atno 8009 bound_to 7997
  154.8317  140.0418  157.1470 H   0  0  0  0  0  0  0  0  0  0  0  0  # atno 8010 bound_to 7997
  140.5719  143.2318  151.6521 H   0  0  0  0  0  0  0  0  0  0  0  0  # atno 10167 bound_to 10162
  156.0320  130.4372  150.2594 H   0  0  0  0  0  0  0  0  0  0  0  0  # atno 10718 bound_to 10713
  153.0201  135.5272  154.7028 H   0  0  0  0  0  0  0  0  0  0  0  0  # atno 10763 bound_to 10752
  154.6132  135.2880  155.0411 H   0  0  0  0  0  0  0  0  0  0  0  0  # atno 10764 bound_to 10752
  154.1425  135.6576  153.4998 H   0  0  0  0  0  0  0  0  0  0  0  0  # atno 10765 bound_to 10752
  140.7634  134.3272  157.5095 H   0  0  0  0  0  0  0  0  0  0  0  0  # atno 11005 bound_to 11000
  145.4309  139.1549  143.4023 LP  0  0  0  0  0  0  0  0  0  0  0  0  # atno 17320 bound_to 7965
  146.2862  140.4425  142.8757 LP  0  0  0  0  0  0  0  0  0  0  0  0  # atno 17321 bound_to 7965
  139.5122  144.3484  152.0675 LP  0  0  0  0  0  0  0  0  0  0  0  0  # atno 17342 bound_to 10162
  140.2623  144.4054  150.6181 LP  0  0  0  0  0  0  0  0  0  0  0  0  # atno 17343 bound_to 10162
  157.0696  131.0113  151.3194 LP  0  0  0  0  0  0  0  0  0  0  0  0  # atno 17370 bound_to 10713
  157.5009  130.7879  149.7604 LP  0  0  0  0  0  0  0  0  0  0  0  0  # atno 17371 bound_to 10713
  139.8767  134.9216  156.3279 LP  0  0  0  0  0  0  0  0  0  0  0  0  # atno 17394 bound_to 11000
  140.9642  133.7369  156.0443 LP  0  0  0  0  0  0  0  0  0  0  0  0  # atno 17395 bound_to 11000

$$$$
