AV-unprocessed.smi:1412|AV-procd|sdf|5747|dock6
  -GOLD-   22720 5383D 1   1.00000     0.00000
 Structure written by MMmdl.
 41 42  0  0  0  0  0  0  0  0  3 V2000
  149.9849  133.4565  155.4226 C   0  0  0  0  0  0  0  0  0  0  0  0
  148.9335  133.6734  154.3200 C   0  0  0  0  0  0  0  0  0  0  0  0
  147.8338  134.7390  154.6135 C   0  0  2  0  0  0  0  0  0  0  0  0
  148.4941  136.0049  155.2231 C   0  0  0  0  0  0  0  0  0  0  0  0
  146.8251  134.1989  155.6720 C   0  0  0  0  0  0  0  0  0  0  0  0
  147.4120  134.1308  157.0119 N   0  0  0  0  0  0  0  0  0  0  0  0
  147.0165  134.8131  158.0961 C   0  0  0  0  0  0  0  0  0  0  0  0
  145.9968  135.5042  158.0559 O   0  0  0  0  0  0  0  0  0  0  0  0
  147.8470  134.6770  159.1525 N   0  5  0  0  0  0  0  0  0  0  0  0
  147.6596  135.4291  160.2494 C   0  0  0  0  0  0  0  0  0  0  0  0
  147.4831  136.7587  160.1842 N   0  0  0  0  0  0  0  0  0  0  0  0
  147.3005  137.3462  161.4284 N   0  0  0  0  0  0  0  0  0  0  0  0
  147.3558  136.4415  162.4057 C   0  0  0  0  0  0  0  0  0  0  0  0
  147.6332  134.7897  161.8945 S   0  0  0  0  0  0  0  0  0  0  0  0
  147.0770  135.0893  153.3548 N   0  3  0  0  0  0  0  0  0  0  0  0
  146.4905  133.9645  152.5743 C   0  0  0  0  0  0  0  0  0  0  0  0
  145.9593  134.4784  151.2233 C   0  0  0  0  0  0  0  0  0  0  0  0
  145.0138  135.5202  151.4276 O   0  0  0  0  0  0  0  0  0  0  0  0
  145.5881  136.6285  152.1079 C   0  0  0  0  0  0  0  0  0  0  0  0
  146.0609  136.1687  153.4947 C   0  0  0  0  0  0  0  0  0  0  0  0
  150.6774  132.6656  155.1338 H   0  0  0  0  0  0  0  0  0  0  0  0
  149.5303  133.1567  156.3662 H   0  0  0  0  0  0  0  0  0  0  0  0
  150.5807  134.3514  155.6003 H   0  0  0  0  0  0  0  0  0  0  0  0
  149.4598  133.9372  153.4022 H   0  0  0  0  0  0  0  0  0  0  0  0
  148.4706  132.7048  154.1308 H   0  0  0  0  0  0  0  0  0  0  0  0
  148.8637  135.8216  156.2322 H   0  0  0  0  0  0  0  0  0  0  0  0
  147.7890  136.8338  155.2978 H   0  0  0  0  0  0  0  0  0  0  0  0
  149.3481  136.3434  154.6356 H   0  0  0  0  0  0  0  0  0  0  0  0
  145.9059  134.7851  155.6794 H   0  0  0  0  0  0  0  0  0  0  0  0
  146.5099  133.1877  155.4157 H   0  0  0  0  0  0  0  0  0  0  0  0
  148.2397  133.5608  157.1105 H   0  0  0  0  0  0  0  0  0  0  0  0
  147.2330  136.7485  163.4336 H   0  0  0  0  0  0  0  0  0  0  0  0
  147.2258  133.1929  152.3530 H   0  0  0  0  0  0  0  0  0  0  0  0
  145.6882  133.4942  153.1440 H   0  0  0  0  0  0  0  0  0  0  0  0
  146.7784  134.8381  150.5980 H   0  0  0  0  0  0  0  0  0  0  0  0
  145.4770  133.6674  150.6773 H   0  0  0  0  0  0  0  0  0  0  0  0
  146.4128  137.0488  151.5297 H   0  0  0  0  0  0  0  0  0  0  0  0
  144.8348  137.4101  152.2070 H   0  0  0  0  0  0  0  0  0  0  0  0
  145.2010  135.8069  154.0600 H   0  0  0  0  0  0  0  0  0  0  0  0
  146.4582  137.0231  154.0386 H   0  0  0  0  0  0  0  0  0  0  0  0
  147.7888  135.4739  152.7483 H   0  0  0  0  0  0  0  0  0  0  0  0
  1  2  1  0  0  0  0
  1 21  1  0  0  0  0
  1 22  1  0  0  0  0
  1 23  1  0  0  0  0
  2  3  1  0  0  0  0
  2 24  1  0  0  0  0
  2 25  1  0  0  0  0
  3  4  1  0  0  0  0
  3  5  1  0  0  0  0
  3 15  1  0  0  0  0
  4 26  1  0  0  0  0
  4 27  1  0  0  0  0
  4 28  1  0  0  0  0
  5  6  1  0  0  0  0
  5 29  1  0  0  0  0
  5 30  1  0  0  0  0
  6  7  1  0  0  0  0
  6 31  1  0  0  0  0
  7  8  2  0  0  0  0
  7  9  1  0  0  0  0
  9 10  1  0  0  0  0
 10 14  1  0  0  0  0
 10 11  2  0  0  0  0
 11 12  1  0  0  0  0
 12 13  2  0  0  0  0
 13 14  1  0  0  0  0
 13 32  1  0  0  0  0
 15 20  1  0  0  0  0
 15 16  1  0  0  0  0
 15 41  1  0  0  0  0
 16 17  1  0  0  0  0
 16 33  1  0  0  0  0
 16 34  1  0  0  0  0
 17 18  1  0  0  0  0
 17 35  1  0  0  0  0
 17 36  1  0  0  0  0
 18 19  1  0  0  0  0
 19 20  1  0  0  0  0
 19 37  1  0  0  0  0
 19 38  1  0  0  0  0
 20 39  1  0  0  0  0
 20 40  1  0  0  0  0
M  CHG  1   9  -1
M  CHG  1  15   1
M  END
> <s_m_source_file>
AV-unprocessed.smi

> <i_m_source_file_index>
1412

> <i_lp_mmshare_version>
43012

> <i_f3d_flags>
0

> <s_epik_input>
W0NIMl0xW0NIMl1PW0NIMl1bQ0gyXU4xW0NAQF0oW0NIM10pKFtDSDJdW0NIM10pW0NIMl1bTkhdQyg9TylbTkhdYzJubltjSF1zMg==

> <s_epik_cmdline>
J2VwaWtfcHl0aG9uJywgJy1waCcsICc3LjAnLCAnLXRuJywgJzgnLCAnLW1hJywgJzIwMCcsICctbWV0YWxfYmluZGluZycsICctaW1hZScsICc8aW5maWxlLm1hZT4nLCAnLW9tYWUnLCAnPG91dGZpbGUubWFlPic=

> <r_lp_tautomer_probability>
1

> <r_epik_Ionization_Penalty>
4.35651

> <r_epik_Ionization_Penalty_Charging>
4.3235

> <r_epik_Ionization_Penalty_Neutral>
0.0330098

> <r_epik_State_Penalty>
4.4846

> <r_epik_Charging_Adjusted_Penalty>
8.8081

> <i_epik_Tot_Q>
0

> <i_epik_Tot_abs_Q>
2

> <r_epik_Metal_State_Penalty>
1.11611

> <b_epik_Metal_Only>
1

> <s_lp_Force_Field>
OPLS_2005

> <r_lp_Energy>
23.2358

> <b_lp_Chiralities_Consistent>
1

> <s_lp_Variant>
AV-unprocessed.smi:1412-8

> <Gold.Version>
5.8.1

> <Gold.Id.Protein>
6NUR|6NUR_protein|mol2

> <Gold.PLP.Fitness>
35.9670

> <Gold.PLP.PLP>
-25.6773

> <Gold.PLP.part.hbond>
-3.0000

> <Gold.PLP.part.metal>
0.0000

> <Gold.PLP.part.buried>
-4.6861

> <Gold.PLP.part.nonpolar>
-17.7652

> <Gold.PLP.part.repulsive>
0.1947

> <Gold.PLP.ligand.clash>
0.0000

> <Gold.PLP.ligand.torsion>
0.7521

> <Gold.PLP.Chemscore.Hbond>
3.8240

> <Gold.PLP.Chemscore.CHOScore>
0.0000

> <Gold.PLP.Chemscore.Metal>
0.0000

> <Gold.Chemscore.Hbonds>
donor molecule, donor type, donor heavy atom, donor atom, acceptor molecule, acceptor atom, score
      L1  H    15    41       P1  7948  2.00
      P1  H  6931  6943       L1    12  0.64
      P1  H  6934  6947       L1    12  0.94

> <Gold.PLP.Chemscore.Internal.Correction>
0.3220

> <Gold.Rescore>
     Score         DG    S(hbond)    S(metal)    S(lipo)     H(rot)  DE(clash)    DE(int)     intcor
     11.10     -13.17       1.97        0.00      50.72       1.88       0.01       2.07       ----

> <Gold.Chemscore.Fitness>
11.0966

> <Gold.Chemscore.DG>
-13.1724

> <Gold.Chemscore.ZeroCoef>
-5.4800

> <Gold.Chemscore.Hbond>
1.9657

> <Gold.Chemscore.Metal>
0.0000

> <Gold.Chemscore.Lipo>
50.7214

> <Gold.Chemscore.Internal_Hbond>
0.0000

> <Gold.Chemscore.DEClash>
0.0106

> <Gold.Chemscore.DEInternal>
2.0652

> <Gold.Chemscore.Rot>
1.8779

> <Gold.Chemscore.Internal.Correction>
   9.000000E+99

> <Gold.Chemscore.Hbonds>
donor molecule, donor type, donor heavy atom, donor atom, acceptor molecule, acceptor atom, score
      L1  H    15    41       P1  7948  0.99
      P1  H  6931  6943       L1    12  0.05
      P1  H  6934  6947       L1    12  0.23

> <Gold.Chemscore.Hbond.Weighted>
-6.5654

> <Gold.Chemscore.Metal.Weighted>
-0.0000

> <Gold.Chemscore.Lipo.Weighted>
-5.9344

> <Gold.Chemscore.Internal_Hbond.Weighted>
0.0000

> <Gold.Chemscore.DEClash.Weighted>
0.0106

> <Gold.Chemscore.DEInternal.Weighted>
2.0652

> <Gold.Chemscore.Rot.Weighted>
4.8074

> <Gold.Chemscore.Internal.Correction.Weighted>
   9.000000E+99

> <Gold.Protein.RotatedTorsions>
[ 6907 6896 6895 6894 ] final  125.48 input  -60.11 | X-H torsion
[ 7974 7965 7964 7962 ] final  -49.22 input  175.53 | X-H torsion
[ 8008 7997 7996 7995 ] final  -55.50 input   59.86 | X-H torsion
[ 10167 10162 10161 10158 ] final -158.03 input  -65.29 | X-H torsion
[ 10718 10713 10712 10709 ] final  -55.86 input   66.30 | X-H torsion
[ 10763 10752 10751 10750 ] final   96.98 input  -60.55 | X-H torsion
[ 11005 11000 10999 10996 ] final  -38.38 input  -57.11 | X-H torsion

> <Gold.Protein.ActiveResidues>
 VAL166  LYS551  ARG553  GLY616  TRP617  ASP618  TYR619  PRO620  LYS621  CYS622 
 ASP623  PHE694  ASN695  SER759  ASP760  ASP761  ALA762  ILE779  LEU786  VAL792 
 PHE793  MET794  SER795  GLU796  ALA797  LYS798  CYS799  TRP800  GLU811  SER814 

> <Gold.Protein.RotatedAtoms>
  152.3988  133.6787  159.6298 H   0  0  0  0  0  0  0  0  0  0  0  0  # atno 6907 bound_to 6896
  150.7883  133.8827  159.3299 H   0  0  0  0  0  0  0  0  0  0  0  0  # atno 6908 bound_to 6896
  151.6597  135.0992  160.0228 H   0  0  0  0  0  0  0  0  0  0  0  0  # atno 6909 bound_to 6896
  145.9429  140.7646  142.9543 H   0  0  0  0  0  0  0  0  0  0  0  0  # atno 7974 bound_to 7965
  154.4197  140.1151  156.5487 H   0  0  0  0  0  0  0  0  0  0  0  0  # atno 8008 bound_to 7997
  155.6432  140.3496  155.4703 H   0  0  0  0  0  0  0  0  0  0  0  0  # atno 8009 bound_to 7997
  155.9853  140.1168  157.0678 H   0  0  0  0  0  0  0  0  0  0  0  0  # atno 8010 bound_to 7997
  139.6724  143.9722  152.2291 H   0  0  0  0  0  0  0  0  0  0  0  0  # atno 10167 bound_to 10162
  156.1335  130.4158  150.0227 H   0  0  0  0  0  0  0  0  0  0  0  0  # atno 10718 bound_to 10713
  153.2714  135.4199  155.0991 H   0  0  0  0  0  0  0  0  0  0  0  0  # atno 10763 bound_to 10752
  154.8457  135.3473  154.6239 H   0  0  0  0  0  0  0  0  0  0  0  0  # atno 10764 bound_to 10752
  153.6659  135.7046  153.5220 H   0  0  0  0  0  0  0  0  0  0  0  0  # atno 10765 bound_to 10752
  141.0023  133.6949  156.2046 H   0  0  0  0  0  0  0  0  0  0  0  0  # atno 11005 bound_to 11000
  144.6782  140.2309  143.7355 LP  0  0  0  0  0  0  0  0  0  0  0  0  # atno 17320 bound_to 7965
  145.8276  139.2071  143.1901 LP  0  0  0  0  0  0  0  0  0  0  0  0  # atno 17321 bound_to 7965
  139.9490  144.6633  150.8191 LP  0  0  0  0  0  0  0  0  0  0  0  0  # atno 17342 bound_to 10162
  140.7623  143.3195  151.2656 LP  0  0  0  0  0  0  0  0  0  0  0  0  # atno 17343 bound_to 10162
  156.8133  130.9332  151.3643 LP  0  0  0  0  0  0  0  0  0  0  0  0  # atno 17370 bound_to 10713
  157.6510  130.8884  149.9633 LP  0  0  0  0  0  0  0  0  0  0  0  0  # atno 17371 bound_to 10713
  140.6869  134.4708  157.5589 LP  0  0  0  0  0  0  0  0  0  0  0  0  # atno 17394 bound_to 11000
  139.9045  134.8480  156.1760 LP  0  0  0  0  0  0  0  0  0  0  0  0  # atno 17395 bound_to 11000

$$$$
