AV-unprocessed.smi:710|AV-procd|sdf|3462|dock2
  -GOLD-   22720 0453D 1   1.00000     0.00000
 Structure written by MMmdl.
 40 41  0  0  0  0  0  0  0  0  1 V2000
  151.7484  128.1810  154.6421 C   0  0  0  0  0  0  0  0  0  0  0  0
  151.2003  129.5365  154.2980 C   0  0  0  0  0  0  0  0  0  0  0  0
  151.7565  130.6151  154.8241 N   0  0  0  0  0  0  0  0  0  0  0  0
  151.0511  131.6471  154.3190 N   0  0  0  0  0  0  0  0  0  0  0  0
  151.4077  133.0023  154.6912 C   0  0  0  0  0  0  0  0  0  0  0  0
  150.0425  131.2191  153.4778 C   0  0  0  0  0  0  0  0  0  0  0  0
  149.1239  132.1753  152.7865 C   0  0  0  0  0  0  0  0  0  0  0  0
  150.1081  129.8512  153.4376 C   0  0  0  0  0  0  0  0  0  0  0  0
  149.2455  128.8832  152.6656 C   0  0  0  0  0  0  0  0  0  0  0  0
  147.7720  129.2682  152.8062 C   0  0  0  0  0  0  0  0  0  0  0  0
  147.1946  129.1274  153.8837 O   0  0  0  0  0  0  0  0  0  0  0  0
  147.1779  129.7558  151.7082 N   0  0  0  0  0  0  0  0  0  0  0  0
  145.7784  130.1497  151.6185 C   0  0  0  0  0  0  0  0  0  0  0  0
  145.5979  131.3928  150.7210 C   0  0  1  0  0  0  0  0  0  0  0  0
  146.2944  131.1561  149.5097 O   0  0  0  0  0  0  0  0  0  0  0  0
  144.1227  131.6372  150.3632 C   0  0  0  0  0  0  0  0  0  0  0  0
  144.0146  133.0322  149.7379 C   0  0  0  0  0  0  0  0  0  0  0  0
  145.2606  134.0854  150.5240 S   0  0  0  0  0  0  0  0  0  0  0  0
  146.0980  132.7060  151.3502 C   0  0  0  0  0  0  0  0  0  0  0  0
  151.8606  127.5676  153.7479 H   0  0  0  0  0  0  0  0  0  0  0  0
  151.0813  127.6541  155.3245 H   0  0  0  0  0  0  0  0  0  0  0  0
  152.7269  128.2489  155.1193 H   0  0  0  0  0  0  0  0  0  0  0  0
  151.5461  133.6054  153.7934 H   0  0  0  0  0  0  0  0  0  0  0  0
  152.3343  133.0128  155.2673 H   0  0  0  0  0  0  0  0  0  0  0  0
  150.6108  133.4374  155.2947 H   0  0  0  0  0  0  0  0  0  0  0  0
  148.2875  131.6550  152.3208 H   0  0  0  0  0  0  0  0  0  0  0  0
  149.6539  132.7207  152.0054 H   0  0  0  0  0  0  0  0  0  0  0  0
  148.7134  132.9008  153.4888 H   0  0  0  0  0  0  0  0  0  0  0  0
  149.5119  128.8740  151.6081 H   0  0  0  0  0  0  0  0  0  0  0  0
  149.3778  127.8591  153.0158 H   0  0  0  0  0  0  0  0  0  0  0  0
  147.7267  129.8279  150.8638 H   0  0  0  0  0  0  0  0  0  0  0  0
  145.1760  129.3167  151.2509 H   0  0  0  0  0  0  0  0  0  0  0  0
  145.4274  130.3703  152.6280 H   0  0  0  0  0  0  0  0  0  0  0  0
  147.2111  131.0410  149.7094 H   0  0  0  0  0  0  0  0  0  0  0  0
  143.7204  130.8658  149.7049 H   0  0  0  0  0  0  0  0  0  0  0  0
  143.5227  131.6176  151.2742 H   0  0  0  0  0  0  0  0  0  0  0  0
  144.2347  132.9840  148.6710 H   0  0  0  0  0  0  0  0  0  0  0  0
  143.0164  133.4556  149.8509 H   0  0  0  0  0  0  0  0  0  0  0  0
  145.8204  132.7427  152.4042 H   0  0  0  0  0  0  0  0  0  0  0  0
  147.1816  132.8171  151.2946 H   0  0  0  0  0  0  0  0  0  0  0  0
  1  2  1  0  0  0  0
  1 20  1  0  0  0  0
  1 21  1  0  0  0  0
  1 22  1  0  0  0  0
  2  8  1  0  0  0  0
  2  3  2  0  0  0  0
  3  4  1  0  0  0  0
  4  5  1  0  0  0  0
  4  6  1  0  0  0  0
  5 23  1  0  0  0  0
  5 24  1  0  0  0  0
  5 25  1  0  0  0  0
  6  7  1  0  0  0  0
  6  8  2  0  0  0  0
  7 26  1  0  0  0  0
  7 27  1  0  0  0  0
  7 28  1  0  0  0  0
  8  9  1  0  0  0  0
  9 10  1  0  0  0  0
  9 29  1  0  0  0  0
  9 30  1  0  0  0  0
 10 11  2  0  0  0  0
 10 12  1  0  0  0  0
 12 13  1  0  0  0  0
 12 31  1  0  0  0  0
 13 14  1  0  0  0  0
 13 32  1  0  0  0  0
 13 33  1  0  0  0  0
 14 19  1  0  0  0  0
 14 15  1  0  0  0  0
 14 16  1  0  0  0  0
 15 34  1  0  0  0  0
 16 17  1  0  0  0  0
 16 35  1  0  0  0  0
 16 36  1  0  0  0  0
 17 18  1  0  0  0  0
 17 37  1  0  0  0  0
 17 38  1  0  0  0  0
 18 19  1  0  0  0  0
 19 39  1  0  0  0  0
 19 40  1  0  0  0  0
M  END
> <s_m_source_file>
AV-unprocessed.smi

> <i_m_source_file_index>
710

> <i_lp_mmshare_version>
43012

> <i_f3d_flags>
0

> <s_epik_input>
W0NIM11jMW5uKFtDSDNdKWMoW0NIM10pYzFbQ0gyXUMoPU8pW05IXVtDSDJdW0NAQF0yKFtPSF0pW0NIMl1bQ0gyXVNbQ0gyXTI=

> <s_epik_cmdline>
J2VwaWtfcHl0aG9uJywgJy1waCcsICc3LjAnLCAnLXRuJywgJzgnLCAnLW1hJywgJzIwMCcsICctbWV0YWxfYmluZGluZycsICctaW1hZScsICc8aW5maWxlLm1hZT4nLCAnLW9tYWUnLCAnPG91dGZpbGUubWFlPic=

> <r_lp_tautomer_probability>
1

> <r_epik_Ionization_Penalty>
0.00343686

> <r_epik_Ionization_Penalty_Charging>
0

> <r_epik_Ionization_Penalty_Neutral>
0.00343686

> <r_epik_State_Penalty>
0.00243544

> <r_epik_Charging_Adjusted_Penalty>
0.00243544

> <i_epik_Tot_Q>
0

> <i_epik_Tot_abs_Q>
0

> <r_epik_Metal_State_Penalty>
-0

> <b_epik_Metal_Only>
0

> <s_lp_Force_Field>
OPLS_2005

> <r_lp_Energy>
10.7161

> <b_lp_Chiralities_Consistent>
1

> <s_lp_Variant>
AV-unprocessed.smi:710-1

> <Gold.Version>
5.8.1

> <Gold.Id.Protein>
6NUR|6NUR_protein|mol2

> <Gold.PLP.Fitness>
41.7908

> <Gold.PLP.PLP>
-36.8830

> <Gold.PLP.part.hbond>
-2.0000

> <Gold.PLP.part.metal>
0.0000

> <Gold.PLP.part.buried>
-7.2699

> <Gold.PLP.part.nonpolar>
-27.3947

> <Gold.PLP.part.repulsive>
0.1189

> <Gold.PLP.ligand.clash>
0.0000

> <Gold.PLP.ligand.torsion>
0.5527

> <Gold.PLP.Chemscore.Hbond>
2.0000

> <Gold.PLP.Chemscore.CHOScore>
0.0000

> <Gold.PLP.Chemscore.Metal>
0.0000

> <Gold.Chemscore.Hbonds>
donor molecule, donor type, donor heavy atom, donor atom, acceptor molecule, acceptor atom, score
      L1  H    12    31       P1 10747  0.75
      L1  H    15    34       P1 10747  1.00

> <Gold.PLP.Chemscore.Internal.Correction>
0.0133

> <Gold.Rescore>
     Score         DG    S(hbond)    S(metal)    S(lipo)     H(rot)  DE(clash)    DE(int)     intcor
     16.42     -16.88       1.98        0.00      86.40       2.07       0.11       0.35       ----

> <Gold.Chemscore.Fitness>
16.4249

> <Gold.Chemscore.DG>
-16.8769

> <Gold.Chemscore.ZeroCoef>
-5.4800

> <Gold.Chemscore.Hbond>
1.9760

> <Gold.Chemscore.Metal>
0.0000

> <Gold.Chemscore.Lipo>
86.4017

> <Gold.Chemscore.Internal_Hbond>
0.0000

> <Gold.Chemscore.DEClash>
0.1066

> <Gold.Chemscore.DEInternal>
0.3454

> <Gold.Chemscore.Rot>
2.0750

> <Gold.Chemscore.Internal.Correction>
   9.000000E+99

> <Gold.Chemscore.Hbonds>
donor molecule, donor type, donor heavy atom, donor atom, acceptor molecule, acceptor atom, score
      L1  H    12    31       P1 10747  0.75
      L1  H    15    34       P1 10747  1.00

> <Gold.Chemscore.Hbond.Weighted>
-6.5998

> <Gold.Chemscore.Metal.Weighted>
-0.0000

> <Gold.Chemscore.Lipo.Weighted>
-10.1090

> <Gold.Chemscore.Internal_Hbond.Weighted>
0.0000

> <Gold.Chemscore.DEClash.Weighted>
0.1066

> <Gold.Chemscore.DEInternal.Weighted>
0.3454

> <Gold.Chemscore.Rot.Weighted>
5.3120

> <Gold.Chemscore.Internal.Correction.Weighted>
   9.000000E+99

> <Gold.Protein.RotatedTorsions>
[ 6907 6896 6895 6894 ] final   20.95 input  -60.11 | X-H torsion
[ 7974 7965 7964 7962 ] final   69.53 input  175.53 | X-H torsion
[ 8008 7997 7996 7995 ] final   69.54 input   59.86 | X-H torsion
[ 10167 10162 10161 10158 ] final   41.78 input  -65.29 | X-H torsion
[ 10718 10713 10712 10709 ] final   16.49 input   66.30 | X-H torsion
[ 10763 10752 10751 10750 ] final  -76.21 input  -60.55 | X-H torsion
[ 11005 11000 10999 10996 ] final   31.13 input  -57.11 | X-H torsion

> <Gold.Protein.ActiveResidues>
 VAL166  LYS551  ARG553  GLY616  TRP617  ASP618  TYR619  PRO620  LYS621  CYS622 
 ASP623  PHE694  ASN695  SER759  ASP760  ASP761  ALA762  ILE779  LEU786  VAL792 
 PHE793  MET794  SER795  GLU796  ALA797  LYS798  CYS799  TRP800  GLU811  SER814 

> <Gold.Protein.RotatedAtoms>
  151.9042  135.0365  160.0508 H   0  0  0  0  0  0  0  0  0  0  0  0  # atno 6907 bound_to 6896
  152.2333  133.5071  159.5236 H   0  0  0  0  0  0  0  0  0  0  0  0  # atno 6908 bound_to 6896
  150.7032  134.1104  159.4040 H   0  0  0  0  0  0  0  0  0  0  0  0  # atno 6909 bound_to 6896
  145.7893  139.2926  143.1220 H   0  0  0  0  0  0  0  0  0  0  0  0  # atno 7974 bound_to 7965
  155.7251  140.3492  155.5034 H   0  0  0  0  0  0  0  0  0  0  0  0  # atno 8008 bound_to 7997
  155.9234  140.1071  157.1211 H   0  0  0  0  0  0  0  0  0  0  0  0  # atno 8009 bound_to 7997
  154.4073  140.1245  156.4695 H   0  0  0  0  0  0  0  0  0  0  0  0  # atno 8010 bound_to 7997
  140.3609  144.2230  150.6138 H   0  0  0  0  0  0  0  0  0  0  0  0  # atno 10167 bound_to 10162
  157.0686  130.6338  149.5801 H   0  0  0  0  0  0  0  0  0  0  0  0  # atno 10718 bound_to 10713
  154.4968  135.5805  153.6500 H   0  0  0  0  0  0  0  0  0  0  0  0  # atno 10763 bound_to 10752
  152.9871  135.6126  154.3054 H   0  0  0  0  0  0  0  0  0  0  0  0  # atno 10764 bound_to 10752
  154.2958  135.2847  155.2613 H   0  0  0  0  0  0  0  0  0  0  0  0  # atno 10765 bound_to 10752
  140.2871  134.2907  155.7785 H   0  0  0  0  0  0  0  0  0  0  0  0  # atno 11005 bound_to 11000
  145.9993  140.8534  143.0026 LP  0  0  0  0  0  0  0  0  0  0  0  0  # atno 17320 bound_to 7965
  144.6784  140.2329  143.7353 LP  0  0  0  0  0  0  0  0  0  0  0  0  # atno 17321 bound_to 7965
  140.5128  143.2286  151.8509 LP  0  0  0  0  0  0  0  0  0  0  0  0  # atno 17342 bound_to 10162
  139.4814  144.4929  151.9161 LP  0  0  0  0  0  0  0  0  0  0  0  0  # atno 17343 bound_to 10162
  155.9957  130.5024  150.7469 LP  0  0  0  0  0  0  0  0  0  0  0  0  # atno 17370 bound_to 10713
  157.4897  131.0910  151.0441 LP  0  0  0  0  0  0  0  0  0  0  0  0  # atno 17371 bound_to 10713
  141.2153  133.7562  156.9568 LP  0  0  0  0  0  0  0  0  0  0  0  0  # atno 17394 bound_to 11000
  140.1230  134.9405  157.2230 LP  0  0  0  0  0  0  0  0  0  0  0  0  # atno 17395 bound_to 11000

$$$$
