AV-unprocessed.smi:1047|AV-procd|sdf|4596|dock5
  -GOLD-   22720 3 83D 1   1.00000     0.00000
 Structure written by MMmdl.
 57 59  0  0  0  0  0  0  0  0  3 V2000
  148.1006  130.6857  153.5087 C   0  0  0  0  0  0  0  0  0  0  0  0
  149.0694  131.8768  153.5027 C   0  0  0  0  0  0  0  0  0  0  0  0
  149.3315  132.4083  154.8636 N   0  3  1  0  0  0  0  0  0  0  0  0
  149.8499  131.3671  155.7821 C   0  0  0  0  0  0  0  0  0  0  0  0
  150.0626  131.9479  157.1890 C   0  0  0  0  0  0  0  0  0  0  0  0
  150.9426  133.0615  157.1118 O   0  0  0  0  0  0  0  0  0  0  0  0
  150.4101  134.1167  156.3173 C   0  0  1  0  0  0  0  0  0  0  0  0
  151.3938  135.2947  156.3709 C   0  0  0  0  0  0  0  0  0  0  0  0
  150.8169  136.4893  155.7636 N   0  0  0  0  0  0  0  0  0  0  0  0
  151.8118  137.5046  155.4249 C   0  0  0  0  0  0  0  0  0  0  0  0
  151.2410  138.9314  155.5133 C   0  0  2  0  0  0  0  0  0  0  0  0
  150.6939  139.3000  154.2626 O   0  0  0  0  0  0  0  0  0  0  0  0
  152.2493  139.9864  156.0149 C   0  0  0  0  0  0  0  0  0  0  0  0
  151.5931  141.1608  156.6038 N   0  0  0  0  0  0  0  0  0  0  0  0
  150.6114  141.9587  156.1021 C   0  0  0  0  0  0  0  0  0  0  0  0
  150.3430  142.9140  157.0347 N   0  3  0  0  0  0  0  0  0  0  0  0
  151.1675  142.7252  158.1463 C   0  0  0  0  0  0  0  0  0  0  0  0
  151.2667  143.4329  159.3384 C   0  0  0  0  0  0  0  0  0  0  0  0
  152.2196  142.9808  160.2792 C   0  0  0  0  0  0  0  0  0  0  0  0
  152.3562  143.7335  161.5918 C   0  0  0  0  0  0  0  0  0  0  0  0
  153.0337  141.8502  160.0089 C   0  0  0  0  0  0  0  0  0  0  0  0
  154.0548  141.3733  161.0277 C   0  0  0  0  0  0  0  0  0  0  0  0
  152.9171  141.1435  158.7905 C   0  0  0  0  0  0  0  0  0  0  0  0
  151.9739  141.6030  157.8748 C   0  0  0  0  0  0  0  0  0  0  0  0
  150.2207  133.5968  154.8783 C   0  0  0  0  0  0  0  0  0  0  0  0
  148.0101  130.2627  152.5080 H   0  0  0  0  0  0  0  0  0  0  0  0
  147.0991  130.9732  153.8275 H   0  0  0  0  0  0  0  0  0  0  0  0
  148.4530  129.8938  154.1705 H   0  0  0  0  0  0  0  0  0  0  0  0
  150.0109  131.5381  153.0678 H   0  0  0  0  0  0  0  0  0  0  0  0
  148.6981  132.6718  152.8543 H   0  0  0  0  0  0  0  0  0  0  0  0
  149.1500  130.5322  155.8328 H   0  0  0  0  0  0  0  0  0  0  0  0
  150.7916  130.9742  155.3947 H   0  0  0  0  0  0  0  0  0  0  0  0
  149.1138  132.2459  157.6382 H   0  0  0  0  0  0  0  0  0  0  0  0
  150.5024  131.1953  157.8438 H   0  0  0  0  0  0  0  0  0  0  0  0
  149.4443  134.4326  156.7173 H   0  0  0  0  0  0  0  0  0  0  0  0
  151.6793  135.4904  157.4055 H   0  0  0  0  0  0  0  0  0  0  0  0
  152.3083  135.0289  155.8393 H   0  0  0  0  0  0  0  0  0  0  0  0
  150.1294  136.8924  156.3930 H   0  0  0  0  0  0  0  0  0  0  0  0
  152.6750  137.4195  156.0867 H   0  0  0  0  0  0  0  0  0  0  0  0
  152.1818  137.3293  154.4141 H   0  0  0  0  0  0  0  0  0  0  0  0
  150.4031  138.8988  156.2104 H   0  0  0  0  0  0  0  0  0  0  0  0
  149.7550  139.2029  154.3067 H   0  0  0  0  0  0  0  0  0  0  0  0
  152.9257  139.5592  156.7563 H   0  0  0  0  0  0  0  0  0  0  0  0
  152.8741  140.3442  155.1956 H   0  0  0  0  0  0  0  0  0  0  0  0
  150.1301  141.8512  155.1405 H   0  0  0  0  0  0  0  0  0  0  0  0
  150.6431  144.2922  159.5376 H   0  0  0  0  0  0  0  0  0  0  0  0
  153.3735  144.1053  161.7166 H   0  0  0  0  0  0  0  0  0  0  0  0
  152.1193  143.0821  162.4333 H   0  0  0  0  0  0  0  0  0  0  0  0
  151.6822  144.5897  161.6331 H   0  0  0  0  0  0  0  0  0  0  0  0
  154.5736  140.4779  160.6841 H   0  0  0  0  0  0  0  0  0  0  0  0
  153.5706  141.1340  161.9746 H   0  0  0  0  0  0  0  0  0  0  0  0
  154.8041  142.1447  161.2062 H   0  0  0  0  0  0  0  0  0  0  0  0
  153.5363  140.2832  158.5832 H   0  0  0  0  0  0  0  0  0  0  0  0
  151.1866  133.3349  154.4432 H   0  0  0  0  0  0  0  0  0  0  0  0
  149.7982  134.3905  154.2631 H   0  0  0  0  0  0  0  0  0  0  0  0
  148.4401  132.7000  155.2388 H   0  0  0  0  0  0  0  0  0  0  0  0
  149.6486  143.6409  156.9177 H   0  0  0  0  0  0  0  0  0  0  0  0
  1  2  1  0  0  0  0
  1 26  1  0  0  0  0
  1 27  1  0  0  0  0
  1 28  1  0  0  0  0
  2  3  1  0  0  0  0
  2 29  1  0  0  0  0
  2 30  1  0  0  0  0
  3 25  1  0  0  0  0
  3  4  1  0  0  0  0
  3 56  1  0  0  0  0
  4  5  1  0  0  0  0
  4 31  1  0  0  0  0
  4 32  1  0  0  0  0
  5  6  1  0  0  0  0
  5 33  1  0  0  0  0
  5 34  1  0  0  0  0
  6  7  1  0  0  0  0
  7  8  1  0  0  0  0
  7 25  1  0  0  0  0
  7 35  1  0  0  0  0
  8  9  1  0  0  0  0
  8 36  1  0  0  0  0
  8 37  1  0  0  0  0
  9 10  1  0  0  0  0
  9 38  1  0  0  0  0
 10 11  1  0  0  0  0
 10 39  1  0  0  0  0
 10 40  1  0  0  0  0
 11 12  1  0  0  0  0
 11 13  1  0  0  0  0
 11 41  1  0  0  0  0
 12 42  1  0  0  0  0
 13 14  1  0  0  0  0
 13 43  1  0  0  0  0
 13 44  1  0  0  0  0
 14 24  1  0  0  0  0
 14 15  1  0  0  0  0
 15 16  2  0  0  0  0
 15 45  1  0  0  0  0
 16 17  1  0  0  0  0
 16 57  1  0  0  0  0
 17 24  2  0  0  0  0
 17 18  1  0  0  0  0
 18 19  2  0  0  0  0
 18 46  1  0  0  0  0
 19 20  1  0  0  0  0
 19 21  1  0  0  0  0
 20 47  1  0  0  0  0
 20 48  1  0  0  0  0
 20 49  1  0  0  0  0
 21 22  1  0  0  0  0
 21 23  2  0  0  0  0
 22 50  1  0  0  0  0
 22 51  1  0  0  0  0
 22 52  1  0  0  0  0
 23 24  1  0  0  0  0
 23 53  1  0  0  0  0
 25 54  1  0  0  0  0
 25 55  1  0  0  0  0
M  CHG  1   3   1
M  CHG  1  16   1
M  END
> <s_m_source_file>
AV-unprocessed.smi

> <i_m_source_file_index>
1047

> <i_lp_mmshare_version>
43012

> <i_f3d_flags>
0

> <s_epik_input>
W0NIM11bQ0gyXU4xW0NIMl1bQ0gyXU9bQ0BIXShbQ0gyXTEpW0NIMl1bTkhdW0NIMl1bQ0BIXShbT0hdKVtDSDJdbihbY0hdbjIpYyhjMjMpW2NIXWMoW0NIM10pYyhbY0hdMylbQ0gzXQ==

> <s_epik_cmdline>
J2VwaWtfcHl0aG9uJywgJy1waCcsICc3LjAnLCAnLXRuJywgJzgnLCAnLW1hJywgJzIwMCcsICctbWV0YWxfYmluZGluZycsICctaW1hZScsICc8aW5maWxlLm1hZT4nLCAnLW9tYWUnLCAnPG91dGZpbGUubWFlPic=

> <r_epik_Ionization_Penalty>
2.03028

> <r_epik_Ionization_Penalty_Charging>
1.21256

> <r_epik_Ionization_Penalty_Neutral>
0.817715

> <r_epik_State_Penalty>
2.54959

> <r_epik_Charging_Adjusted_Penalty>
3.76215

> <i_epik_Tot_Q>
2

> <i_epik_Tot_abs_Q>
2

> <r_epik_Metal_State_Penalty>
6.52811

> <b_epik_Metal_Only>
0

> <s_lp_Force_Field>
OPLS_2005

> <r_lp_Energy>
37.5009

> <b_lp_Chiralities_Consistent>
1

> <s_lp_Variant>
AV-unprocessed.smi:1047-37

> <Gold.Version>
5.8.1

> <Gold.Id.Protein>
6NUR|6NUR_protein|mol2

> <Gold.PLP.Fitness>
56.9313

> <Gold.PLP.PLP>
-46.9218

> <Gold.PLP.part.hbond>
-3.0000

> <Gold.PLP.part.metal>
0.0000

> <Gold.PLP.part.buried>
-5.4605

> <Gold.PLP.part.nonpolar>
-37.1302

> <Gold.PLP.part.repulsive>
0.0254

> <Gold.PLP.ligand.clash>
0.0000

> <Gold.PLP.ligand.torsion>
1.0176

> <Gold.PLP.Chemscore.Hbond>
3.9760

> <Gold.PLP.Chemscore.CHOScore>
0.0000

> <Gold.PLP.Chemscore.Metal>
0.0000

> <Gold.Chemscore.Hbonds>
donor molecule, donor type, donor heavy atom, donor atom, acceptor molecule, acceptor atom, score
      L1  H    16    57       P1  8028  1.73
      P1  H  6896  6909       L1     6  0.61
      P1  H  7989  7998       L1    12  1.00

> <Gold.PLP.Chemscore.Internal.Correction>
0.1166

> <Gold.Rescore>
     Score         DG    S(hbond)    S(metal)    S(lipo)     H(rot)  DE(clash)    DE(int)     intcor
     20.98     -22.19       2.55        0.00     129.40       2.71       0.05       1.15       ----

> <Gold.Chemscore.Fitness>
20.9847

> <Gold.Chemscore.DG>
-22.1870

> <Gold.Chemscore.ZeroCoef>
-5.4800

> <Gold.Chemscore.Hbond>
2.5455

> <Gold.Chemscore.Metal>
0.0000

> <Gold.Chemscore.Lipo>
129.3984

> <Gold.Chemscore.Internal_Hbond>
0.0000

> <Gold.Chemscore.DEClash>
0.0528

> <Gold.Chemscore.DEInternal>
1.1495

> <Gold.Chemscore.Rot>
2.7088

> <Gold.Chemscore.Internal.Correction>
   9.000000E+99

> <Gold.Chemscore.Hbonds>
donor molecule, donor type, donor heavy atom, donor atom, acceptor molecule, acceptor atom, score
      L1  H    16    57       P1  8028  0.82
      P1  H  6896  6909       L1     6  0.11
      P1  H  7989  7998       L1    12  0.80

> <Gold.Chemscore.Hbond.Weighted>
-8.5020

> <Gold.Chemscore.Metal.Weighted>
-0.0000

> <Gold.Chemscore.Lipo.Weighted>
-15.1396

> <Gold.Chemscore.Internal_Hbond.Weighted>
0.0000

> <Gold.Chemscore.DEClash.Weighted>
0.0528

> <Gold.Chemscore.DEInternal.Weighted>
1.1495

> <Gold.Chemscore.Rot.Weighted>
6.9346

> <Gold.Chemscore.Internal.Correction.Weighted>
   9.000000E+99

> <Gold.Protein.RotatedTorsions>
[ 6907 6896 6895 6894 ] final  -19.33 input  -60.11 | X-H torsion
[ 7974 7965 7964 7962 ] final  129.63 input  175.53 | X-H torsion
[ 8008 7997 7996 7995 ] final  -34.37 input   59.86 | X-H torsion
[ 10167 10162 10161 10158 ] final   -3.39 input  -65.29 | X-H torsion
[ 10718 10713 10712 10709 ] final  148.33 input   66.30 | X-H torsion
[ 10763 10752 10751 10750 ] final -102.67 input  -60.55 | X-H torsion
[ 11005 11000 10999 10996 ] final  154.20 input  -57.11 | X-H torsion

> <Gold.Protein.ActiveResidues>
 VAL166  LYS551  ARG553  GLY616  TRP617  ASP618  TYR619  PRO620  LYS621  CYS622 
 ASP623  PHE694  ASN695  SER759  ASP760  ASP761  ALA762  ILE779  LEU786  VAL792 
 PHE793  MET794  SER795  GLU796  ALA797  LYS798  CYS799  TRP800  GLU811  SER814 

> <Gold.Protein.RotatedAtoms>
  151.2647  135.0665  159.9111 H   0  0  0  0  0  0  0  0  0  0  0  0  # atno 6907 bound_to 6896
  152.5360  134.0193  159.7985 H   0  0  0  0  0  0  0  0  0  0  0  0  # atno 6908 bound_to 6896
  151.0422  133.5646  159.2681 H   0  0  0  0  0  0  0  0  0  0  0  0  # atno 6909 bound_to 6896
  145.0266  139.4083  143.5170 H   0  0  0  0  0  0  0  0  0  0  0  0  # atno 7974 bound_to 7965
  154.4123  140.1686  156.2038 H   0  0  0  0  0  0  0  0  0  0  0  0  # atno 8008 bound_to 7997
  155.9502  140.3401  155.6378 H   0  0  0  0  0  0  0  0  0  0  0  0  # atno 8009 bound_to 7997
  155.6880  140.0730  157.2450 H   0  0  0  0  0  0  0  0  0  0  0  0  # atno 8010 bound_to 7997
  140.6888  143.6545  150.8320 H   0  0  0  0  0  0  0  0  0  0  0  0  # atno 10167 bound_to 10162
  157.3099  131.0886  151.1324 H   0  0  0  0  0  0  0  0  0  0  0  0  # atno 10718 bound_to 10713
  154.7751  135.4852  153.9727 H   0  0  0  0  0  0  0  0  0  0  0  0  # atno 10763 bound_to 10752
  153.1418  135.6774  153.9023 H   0  0  0  0  0  0  0  0  0  0  0  0  # atno 10764 bound_to 10752
  153.8695  135.3145  155.3420 H   0  0  0  0  0  0  0  0  0  0  0  0  # atno 10765 bound_to 10752
  140.1467  134.8702  157.2402 H   0  0  0  0  0  0  0  0  0  0  0  0  # atno 11005 bound_to 11000
  146.3493  139.9794  142.8697 LP  0  0  0  0  0  0  0  0  0  0  0  0  # atno 17320 bound_to 7965
  145.1825  140.9774  143.4258 LP  0  0  0  0  0  0  0  0  0  0  0  0  # atno 17321 bound_to 7965
  140.0256  143.5497  152.2782 LP  0  0  0  0  0  0  0  0  0  0  0  0  # atno 17342 bound_to 10162
  139.6271  144.7639  151.2615 LP  0  0  0  0  0  0  0  0  0  0  0  0  # atno 17343 bound_to 10162
  157.2651  130.6677  149.5992 LP  0  0  0  0  0  0  0  0  0  0  0  0  # atno 17370 bound_to 10713
  155.9677  130.4496  150.5667 LP  0  0  0  0  0  0  0  0  0  0  0  0  # atno 17371 bound_to 10713
  140.2654  134.3522  155.7392 LP  0  0  0  0  0  0  0  0  0  0  0  0  # atno 17394 bound_to 11000
  141.2193  133.7393  156.9143 LP  0  0  0  0  0  0  0  0  0  0  0  0  # atno 17395 bound_to 11000

$$$$
