AV-unprocessed.smi:1751|AV-procd|sdf|7056|dock8
  -GOLD-   22720 8273D 1   1.00000     0.00000
 Structure written by MMmdl.
 35 36  0  0  0  0  0  0  0  0  1 V2000
  153.0686  139.4289  158.6953 C   0  0  0  0  0  0  0  0  0  0  0  0
  152.9192  139.6230  157.2931 O   0  0  0  0  0  0  0  0  0  0  0  0
  152.1497  138.7222  156.5855 C   0  0  0  0  0  0  0  0  0  0  0  0
  151.8925  138.9787  155.2243 C   0  0  0  0  0  0  0  0  0  0  0  0
  151.1056  138.0642  154.4992 C   0  0  0  0  0  0  0  0  0  0  0  0
  150.5909  136.9282  155.1552 C   0  0  0  0  0  0  0  0  0  0  0  0
  149.8118  136.0143  154.3961 N   0  0  0  0  0  0  0  0  0  0  0  0
  149.2266  134.8765  154.8072 C   0  0  0  0  0  0  0  0  0  0  0  0
  149.2633  134.4303  155.9538 O   0  0  0  0  0  0  0  0  0  0  0  0
  148.5623  134.2842  153.8055 N   0  0  0  0  0  0  0  0  0  0  0  0
  147.7792  133.0601  153.9299 C   0  0  0  0  0  0  0  0  0  0  0  0
  147.3872  132.4992  152.5528 C   0  0  2  0  0  0  0  0  0  0  0  0
  146.6291  133.4939  151.6760 C   0  0  0  0  0  0  0  0  0  0  0  0
  145.8749  132.5672  150.7508 C   0  0  0  0  0  0  0  0  0  0  0  0
  145.4869  131.4338  151.6958 C   0  0  0  0  0  0  0  0  0  0  0  0
  146.5031  131.3892  152.6947 O   0  0  0  0  0  0  0  0  0  0  0  0
  150.9173  136.7516  156.5219 C   0  0  0  0  0  0  0  0  0  0  0  0
  151.6735  137.6237  157.2222 N   0  0  0  0  0  0  0  0  0  0  0  0
  153.6986  140.2188  159.1038 H   0  0  0  0  0  0  0  0  0  0  0  0
  153.5493  138.4750  158.9171 H   0  0  0  0  0  0  0  0  0  0  0  0
  152.1072  139.4740  159.2091 H   0  0  0  0  0  0  0  0  0  0  0  0
  152.2912  139.8608  154.7456 H   0  0  0  0  0  0  0  0  0  0  0  0
  150.8968  138.2391  153.4538 H   0  0  0  0  0  0  0  0  0  0  0  0
  149.6208  136.2931  153.4447 H   0  0  0  0  0  0  0  0  0  0  0  0
  148.5778  134.7230  152.8965 H   0  0  0  0  0  0  0  0  0  0  0  0
  148.3706  132.3267  154.4787 H   0  0  0  0  0  0  0  0  0  0  0  0
  146.8870  133.2498  154.5292 H   0  0  0  0  0  0  0  0  0  0  0  0
  148.2708  132.1576  152.0113 H   0  0  0  0  0  0  0  0  0  0  0  0
  145.9265  134.0786  152.2717 H   0  0  0  0  0  0  0  0  0  0  0  0
  147.2882  134.1835  151.1477 H   0  0  0  0  0  0  0  0  0  0  0  0
  145.0156  133.0390  150.2738 H   0  0  0  0  0  0  0  0  0  0  0  0
  146.5400  132.1958  149.9700 H   0  0  0  0  0  0  0  0  0  0  0  0
  144.5355  131.6522  152.1824 H   0  0  0  0  0  0  0  0  0  0  0  0
  145.3922  130.4781  151.1800 H   0  0  0  0  0  0  0  0  0  0  0  0
  150.5922  135.8877  157.0801 H   0  0  0  0  0  0  0  0  0  0  0  0
  1  2  1  0  0  0  0
  1 19  1  0  0  0  0
  1 20  1  0  0  0  0
  1 21  1  0  0  0  0
  2  3  1  0  0  0  0
  3 18  1  0  0  0  0
  3  4  2  0  0  0  0
  4  5  1  0  0  0  0
  4 22  1  0  0  0  0
  5  6  2  0  0  0  0
  5 23  1  0  0  0  0
  6  7  1  0  0  0  0
  6 17  1  0  0  0  0
  7  8  1  0  0  0  0
  7 24  1  0  0  0  0
  8  9  2  0  0  0  0
  8 10  1  0  0  0  0
 10 11  1  0  0  0  0
 10 25  1  0  0  0  0
 11 12  1  0  0  0  0
 11 26  1  0  0  0  0
 11 27  1  0  0  0  0
 12 16  1  0  0  0  0
 12 13  1  0  0  0  0
 12 28  1  0  0  0  0
 13 14  1  0  0  0  0
 13 29  1  0  0  0  0
 13 30  1  0  0  0  0
 14 15  1  0  0  0  0
 14 31  1  0  0  0  0
 14 32  1  0  0  0  0
 15 16  1  0  0  0  0
 15 33  1  0  0  0  0
 15 34  1  0  0  0  0
 17 18  2  0  0  0  0
 17 35  1  0  0  0  0
M  END
> <s_m_source_file>
AV-unprocessed.smi

> <i_m_source_file_index>
1751

> <i_lp_mmshare_version>
43012

> <i_f3d_flags>
0

> <s_epik_input>
W0NIM11PYzFbY0hdW2NIXWMoW2NIXW4xKVtOSF1DKD1PKVtOSF1bQ0gyXVtDQEBIXTJbQ0gyXVtDSDJdW0NIMl1PMg==

> <s_epik_cmdline>
J2VwaWtfcHl0aG9uJywgJy1waCcsICc3LjAnLCAnLXRuJywgJzgnLCAnLW1hJywgJzIwMCcsICctbWV0YWxfYmluZGluZycsICctaW1hZScsICc8aW5maWxlLm1hZT4nLCAnLW9tYWUnLCAnPG91dGZpbGUubWFlPic=

> <r_lp_tautomer_probability>
1

> <r_epik_Ionization_Penalty>
9.01694e-05

> <r_epik_Ionization_Penalty_Charging>
0

> <r_epik_Ionization_Penalty_Neutral>
9.01694e-05

> <r_epik_State_Penalty>
-0

> <r_epik_Charging_Adjusted_Penalty>
0

> <i_epik_Tot_Q>
0

> <i_epik_Tot_abs_Q>
0

> <r_epik_Metal_State_Penalty>
-0

> <b_epik_Metal_Only>
0

> <s_lp_Force_Field>
OPLS_2005

> <r_lp_Energy>
19.4373

> <b_lp_Chiralities_Consistent>
1

> <s_lp_Variant>
AV-unprocessed.smi:1751-1

> <Gold.Version>
5.8.1

> <Gold.Id.Protein>
6NUR|6NUR_protein|mol2

> <Gold.PLP.Fitness>
36.1192

> <Gold.PLP.PLP>
-27.3613

> <Gold.PLP.part.hbond>
-3.4811

> <Gold.PLP.part.metal>
0.0000

> <Gold.PLP.part.buried>
-2.3747

> <Gold.PLP.part.nonpolar>
-21.7721

> <Gold.PLP.part.repulsive>
0.2220

> <Gold.PLP.ligand.clash>
0.0000

> <Gold.PLP.ligand.torsion>
0.1108

> <Gold.PLP.Chemscore.Hbond>
2.9920

> <Gold.PLP.Chemscore.CHOScore>
0.0000

> <Gold.PLP.Chemscore.Metal>
0.0000

> <Gold.Chemscore.Hbonds>
donor molecule, donor type, donor heavy atom, donor atom, acceptor molecule, acceptor atom, score
      L1  H     7    24       P1  7948  1.00
      L1  H    10    25       P1  7948  0.99
      P1  H  7997  8010       L1     2  1.00

> <Gold.PLP.Chemscore.Internal.Correction>
0.0035

> <Gold.Rescore>
     Score         DG    S(hbond)    S(metal)    S(lipo)     H(rot)  DE(clash)    DE(int)     intcor
     15.77     -17.37       2.56        0.00      61.30       1.50       0.01       1.59       ----

> <Gold.Chemscore.Fitness>
15.7729

> <Gold.Chemscore.DG>
-17.3652

> <Gold.Chemscore.ZeroCoef>
-5.4800

> <Gold.Chemscore.Hbond>
2.5585

> <Gold.Chemscore.Metal>
0.0000

> <Gold.Chemscore.Lipo>
61.3015

> <Gold.Chemscore.Internal_Hbond>
0.0000

> <Gold.Chemscore.DEClash>
0.0060

> <Gold.Chemscore.DEInternal>
1.5863

> <Gold.Chemscore.Rot>
1.4971

> <Gold.Chemscore.Internal.Correction>
   9.000000E+99

> <Gold.Chemscore.Hbonds>
donor molecule, donor type, donor heavy atom, donor atom, acceptor molecule, acceptor atom, score
      L1  H     7    24       P1  7948  0.39
      L1  H    10    25       P1  7948  0.24
      P1  H  7997  8010       L1     2  0.76

> <Gold.Chemscore.Hbond.Weighted>
-8.5455

> <Gold.Chemscore.Metal.Weighted>
-0.0000

> <Gold.Chemscore.Lipo.Weighted>
-7.1723

> <Gold.Chemscore.Internal_Hbond.Weighted>
0.0000

> <Gold.Chemscore.DEClash.Weighted>
0.0060

> <Gold.Chemscore.DEInternal.Weighted>
1.5863

> <Gold.Chemscore.Rot.Weighted>
3.8326

> <Gold.Chemscore.Internal.Correction.Weighted>
   9.000000E+99

> <Gold.Protein.RotatedTorsions>
[ 6907 6896 6895 6894 ] final  -40.15 input  -60.11 | X-H torsion
[ 7974 7965 7964 7962 ] final   60.01 input  175.53 | X-H torsion
[ 8008 7997 7996 7995 ] final   64.84 input   59.86 | X-H torsion
[ 10167 10162 10161 10158 ] final -102.36 input  -65.29 | X-H torsion
[ 10718 10713 10712 10709 ] final -119.37 input   66.30 | X-H torsion
[ 10763 10752 10751 10750 ] final  162.31 input  -60.55 | X-H torsion
[ 11005 11000 10999 10996 ] final  159.46 input  -57.11 | X-H torsion

> <Gold.Protein.ActiveResidues>
 VAL166  LYS551  ARG553  GLY616  TRP617  ASP618  TYR619  PRO620  LYS621  CYS622 
 ASP623  PHE694  ASN695  SER759  ASP760  ASP761  ALA762  ILE779  LEU786  VAL792 
 PHE793  MET794  SER795  GLU796  ALA797  LYS798  CYS799  TRP800  GLU811  SER814 

> <Gold.Protein.RotatedAtoms>
  150.9819  134.9172  159.7848 H   0  0  0  0  0  0  0  0  0  0  0  0  # atno 6907 bound_to 6896
  152.5224  134.3399  159.9223 H   0  0  0  0  0  0  0  0  0  0  0  0  # atno 6908 bound_to 6896
  151.3406  133.3923  159.2705 H   0  0  0  0  0  0  0  0  0  0  0  0  # atno 6909 bound_to 6896
  145.9008  139.3580  143.0593 H   0  0  0  0  0  0  0  0  0  0  0  0  # atno 7974 bound_to 7965
  155.6523  140.3497  155.4752 H   0  0  0  0  0  0  0  0  0  0  0  0  # atno 8008 bound_to 7997
  155.9837  140.1179  157.0726 H   0  0  0  0  0  0  0  0  0  0  0  0  # atno 8009 bound_to 7997
  154.4199  140.1133  156.5457 H   0  0  0  0  0  0  0  0  0  0  0  0  # atno 8010 bound_to 7997
  140.2315  143.3603  152.0883 H   0  0  0  0  0  0  0  0  0  0  0  0  # atno 10167 bound_to 10162
  156.1176  130.6298  150.9407 H   0  0  0  0  0  0  0  0  0  0  0  0  # atno 10718 bound_to 10713
  154.2765  135.2764  155.2716 H   0  0  0  0  0  0  0  0  0  0  0  0  # atno 10763 bound_to 10752
  154.5256  135.5744  153.6720 H   0  0  0  0  0  0  0  0  0  0  0  0  # atno 10764 bound_to 10752
  152.9936  135.6215  154.2922 H   0  0  0  0  0  0  0  0  0  0  0  0  # atno 10765 bound_to 10752
  140.1964  134.8370  157.2969 H   0  0  0  0  0  0  0  0  0  0  0  0  # atno 11005 bound_to 11000
  145.8793  140.9373  143.0610 LP  0  0  0  0  0  0  0  0  0  0  0  0  # atno 17320 bound_to 7965
  144.6736  140.0758  143.7471 LP  0  0  0  0  0  0  0  0  0  0  0  0  # atno 17321 bound_to 7965
  139.5108  144.6891  151.5808 LP  0  0  0  0  0  0  0  0  0  0  0  0  # atno 17342 bound_to 10162
  140.6182  143.9309  150.6505 LP  0  0  0  0  0  0  0  0  0  0  0  0  # atno 17343 bound_to 10162
  157.6359  131.0916  150.8349 LP  0  0  0  0  0  0  0  0  0  0  0  0  # atno 17370 bound_to 10713
  156.8450  130.5061  149.5317 LP  0  0  0  0  0  0  0  0  0  0  0  0  # atno 17371 bound_to 10713
  140.2103  134.4147  155.7616 LP  0  0  0  0  0  0  0  0  0  0  0  0  # atno 17394 bound_to 11000
  141.2227  133.7115  156.8327 LP  0  0  0  0  0  0  0  0  0  0  0  0  # atno 17395 bound_to 11000

$$$$
