AV-unprocessed.smi:862|AV-procd|sdf|3976|dock1
  -GOLD-   22720 1453D 1   1.00000     0.00000
 Structure written by MMmdl.
 44 46  0  0  0  0  0  0  0  0  2 V2000
  143.5716  134.4056  153.5795 N   0  0  0  0  0  0  0  0  0  0  0  0
  144.2563  134.6399  152.4557 C   0  0  0  0  0  0  0  0  0  0  0  0
  144.6911  133.7131  151.7746 O   0  0  0  0  0  0  0  0  0  0  0  0
  144.3844  135.9478  152.1179 N   0  0  0  0  0  0  0  0  0  0  0  0
  144.1237  137.0997  152.9971 C   0  0  0  0  0  0  0  0  0  0  0  0
  145.4718  137.6898  153.4505 C   0  0  0  0  0  0  0  0  0  0  0  0
  146.3418  138.0927  152.2410 C   0  0  0  0  0  0  0  0  0  0  0  0
  147.6773  138.5289  152.7066 N   0  3  0  0  0  0  0  0  0  0  0  0
  147.6932  139.5267  153.8009 C   0  0  2  0  0  0  0  0  0  0  0  0
  146.6370  140.6259  153.6529 C   0  0  0  0  0  0  0  0  0  0  0  0
  147.1659  141.8056  154.4792 C   0  0  0  0  0  0  0  0  0  0  0  0
  148.6763  141.5772  154.6495 C   0  0  0  0  0  0  0  0  0  0  0  0
  149.0053  140.3191  153.8320 C   0  0  1  0  0  0  0  0  0  0  0  0
  150.1265  139.5595  154.3636 N   0  0  0  0  0  0  0  0  0  0  0  0
  150.6914  138.3986  153.8466 C   0  0  0  0  0  0  0  0  0  0  0  0
  151.7283  138.0563  154.6842 C   0  0  0  0  0  0  0  0  0  0  0  0
  151.8231  138.9871  155.7151 N   0  0  0  0  0  0  0  0  0  0  0  0
  150.8425  139.8431  155.4610 C   0  0  0  0  0  0  0  0  0  0  0  0
  146.4491  136.9243  151.2345 C   0  0  0  0  0  0  0  0  0  0  0  0
  145.0586  136.3652  150.8827 C   0  0  0  0  0  0  0  0  0  0  0  0
  143.4276  133.4543  153.8864 H   0  0  0  0  0  0  0  0  0  0  0  0
  143.1924  135.1753  154.1112 H   0  0  0  0  0  0  0  0  0  0  0  0
  143.5543  137.8495  152.4457 H   0  0  0  0  0  0  0  0  0  0  0  0
  143.5157  136.8597  153.8693 H   0  0  0  0  0  0  0  0  0  0  0  0
  145.2993  138.5556  154.0910 H   0  0  0  0  0  0  0  0  0  0  0  0
  145.9990  136.9543  154.0603 H   0  0  0  0  0  0  0  0  0  0  0  0
  145.8445  138.9313  151.7505 H   0  0  0  0  0  0  0  0  0  0  0  0
  148.1412  137.7072  153.0667 H   0  0  0  0  0  0  0  0  0  0  0  0
  147.5518  139.0210  154.7577 H   0  0  0  0  0  0  0  0  0  0  0  0
  146.5554  140.9278  152.6075 H   0  0  0  0  0  0  0  0  0  0  0  0
  145.6494  140.3050  153.9852 H   0  0  0  0  0  0  0  0  0  0  0  0
  146.9525  142.7556  153.9877 H   0  0  0  0  0  0  0  0  0  0  0  0
  146.6834  141.8309  155.4570 H   0  0  0  0  0  0  0  0  0  0  0  0
  149.2597  142.4350  154.3130 H   0  0  0  0  0  0  0  0  0  0  0  0
  148.8986  141.4322  155.7076 H   0  0  0  0  0  0  0  0  0  0  0  0
  149.2521  140.6315  152.8152 H   0  0  0  0  0  0  0  0  0  0  0  0
  150.3195  137.9209  152.9519 H   0  0  0  0  0  0  0  0  0  0  0  0
  152.4078  137.2188  154.6246 H   0  0  0  0  0  0  0  0  0  0  0  0
  150.6440  140.7001  156.0879 H   0  0  0  0  0  0  0  0  0  0  0  0
  146.9480  137.2444  150.3210 H   0  0  0  0  0  0  0  0  0  0  0  0
  147.0616  136.1259  151.6564 H   0  0  0  0  0  0  0  0  0  0  0  0
  145.1535  135.5515  150.1620 H   0  0  0  0  0  0  0  0  0  0  0  0
  144.4605  137.1296  150.3846 H   0  0  0  0  0  0  0  0  0  0  0  0
  148.2106  138.8726  151.9207 H   0  0  0  0  0  0  0  0  0  0  0  0
  1  2  1  0  0  0  0
  1 21  1  0  0  0  0
  1 22  1  0  0  0  0
  2  3  2  0  0  0  0
  2  4  1  0  0  0  0
  4 20  1  0  0  0  0
  4  5  1  0  0  0  0
  5  6  1  0  0  0  0
  5 23  1  0  0  0  0
  5 24  1  0  0  0  0
  6  7  1  0  0  0  0
  6 25  1  0  0  0  0
  6 26  1  0  0  0  0
  7  8  1  0  0  0  0
  7 19  1  0  0  0  0
  7 27  1  0  0  0  0
  8  9  1  0  0  0  0
  8 28  1  0  0  0  0
  8 44  1  0  0  0  0
  9 13  1  0  0  0  0
  9 10  1  0  0  0  0
  9 29  1  0  0  0  0
 10 11  1  0  0  0  0
 10 30  1  0  0  0  0
 10 31  1  0  0  0  0
 11 12  1  0  0  0  0
 11 32  1  0  0  0  0
 11 33  1  0  0  0  0
 12 13  1  0  0  0  0
 12 34  1  0  0  0  0
 12 35  1  0  0  0  0
 13 14  1  0  0  0  0
 13 36  1  0  0  0  0
 14 18  1  0  0  0  0
 14 15  1  0  0  0  0
 15 16  2  0  0  0  0
 15 37  1  0  0  0  0
 16 17  1  0  0  0  0
 16 38  1  0  0  0  0
 17 18  2  0  0  0  0
 18 39  1  0  0  0  0
 19 20  1  0  0  0  0
 19 40  1  0  0  0  0
 19 41  1  0  0  0  0
 20 42  1  0  0  0  0
 20 43  1  0  0  0  0
M  CHG  1   8   1
M  END
> <s_m_source_file>
AV-unprocessed.smi

> <i_m_source_file_index>
862

> <i_lp_mmshare_version>
43012

> <i_f3d_flags>
0

> <s_epik_input>
W05IMl1DKD1PKU4xW0NIMl1bQ0gyXVtDSF0oW0NIMl1bQ0gyXTEpW05IXVtDQEBIXTJbQ0gyXVtDSDJdW0NIMl1bQ0BIXTJuM1tjSF1bY0hdbltjSF0z

> <s_epik_cmdline>
J2VwaWtfcHl0aG9uJywgJy1waCcsICc3LjAnLCAnLXRuJywgJzgnLCAnLW1hJywgJzIwMCcsICctbWV0YWxfYmluZGluZycsICctaW1hZScsICc8aW5maWxlLm1hZT4nLCAnLW9tYWUnLCAnPG91dGZpbGUubWFlPic=

> <r_lp_tautomer_probability>
1

> <r_epik_Ionization_Penalty>
0.0731506

> <r_epik_Ionization_Penalty_Charging>
0.0731

> <r_epik_Ionization_Penalty_Neutral>
5.05966e-05

> <r_epik_State_Penalty>
0.128895

> <r_epik_Charging_Adjusted_Penalty>
0.201995

> <i_epik_Tot_Q>
1

> <i_epik_Tot_abs_Q>
1

> <r_epik_Metal_State_Penalty>
0.113934

> <b_epik_Metal_Only>
0

> <s_lp_Force_Field>
OPLS_2005

> <r_lp_Energy>
56.1174

> <b_lp_Chiralities_Consistent>
1

> <s_lp_Variant>
AV-unprocessed.smi:862-1

> <Gold.Version>
5.8.1

> <Gold.Id.Protein>
6NUR|6NUR_protein|mol2

> <Gold.PLP.Fitness>
43.3473

> <Gold.PLP.PLP>
-31.9984

> <Gold.PLP.part.hbond>
-3.0000

> <Gold.PLP.part.metal>
0.0000

> <Gold.PLP.part.buried>
6.6104

> <Gold.PLP.part.nonpolar>
-36.3922

> <Gold.PLP.part.repulsive>
0.1618

> <Gold.PLP.ligand.clash>
0.0000

> <Gold.PLP.ligand.torsion>
0.2957

> <Gold.PLP.Chemscore.Hbond>
2.8659

> <Gold.PLP.Chemscore.CHOScore>
1.0965

> <Gold.PLP.Chemscore.Metal>
0.0000

> <Gold.Chemscore.Hbonds>
donor molecule, donor type, donor heavy atom, donor atom, acceptor molecule, acceptor atom, score
      L1  H     1    21       P1 10957  0.93
      L1  H     8    28       P1  7948  0.86
      L1  H     8    44       P1  7957  1.00
      L1  C    15    37       P1  7948  0.72
      L1  C    15    37       P1  7949  0.28
      L1  C    15    37       P1  7957  0.10

> <Gold.PLP.Chemscore.Internal.Correction>
0.0530

> <Gold.Rescore>
     Score         DG    S(hbond)    S(metal)    S(lipo)     H(rot)  DE(clash)    DE(int)     intcor
     14.80     -17.30       2.14        0.00      75.86       1.64       2.23       0.27       ----

> <Gold.Chemscore.Fitness>
14.7982

> <Gold.Chemscore.DG>
-17.2950

> <Gold.Chemscore.ZeroCoef>
-5.4800

> <Gold.Chemscore.Hbond>
2.1378

> <Gold.Chemscore.Metal>
0.0000

> <Gold.Chemscore.Lipo>
75.8643

> <Gold.Chemscore.Internal_Hbond>
0.0000

> <Gold.Chemscore.DEClash>
2.2289

> <Gold.Chemscore.DEInternal>
0.2679

> <Gold.Chemscore.Rot>
1.6411

> <Gold.Chemscore.Internal.Correction>
   9.000000E+99

> <Gold.Chemscore.Hbonds>
donor molecule, donor type, donor heavy atom, donor atom, acceptor molecule, acceptor atom, score
      L1  H     1    21       P1 10957  0.88
      L1  H     8    28       P1  7948  0.41
      L1  H     8    44       P1  7957  0.89

> <Gold.Chemscore.Hbond.Weighted>
-7.1403

> <Gold.Chemscore.Metal.Weighted>
-0.0000

> <Gold.Chemscore.Lipo.Weighted>
-8.8761

> <Gold.Chemscore.Internal_Hbond.Weighted>
0.0000

> <Gold.Chemscore.DEClash.Weighted>
2.2289

> <Gold.Chemscore.DEInternal.Weighted>
0.2679

> <Gold.Chemscore.Rot.Weighted>
4.2013

> <Gold.Chemscore.Internal.Correction.Weighted>
   9.000000E+99

> <Gold.Protein.RotatedTorsions>
[ 6907 6896 6895 6894 ] final  -45.67 input  -60.11 | X-H torsion
[ 7974 7965 7964 7962 ] final  100.49 input  175.53 | X-H torsion
[ 8008 7997 7996 7995 ] final   90.51 input   59.86 | X-H torsion
[ 10167 10162 10161 10158 ] final   75.20 input  -65.29 | X-H torsion
[ 10718 10713 10712 10709 ] final  104.95 input   66.30 | X-H torsion
[ 10763 10752 10751 10750 ] final  -40.92 input  -60.55 | X-H torsion
[ 11005 11000 10999 10996 ] final -112.26 input  -57.11 | X-H torsion

> <Gold.Protein.ActiveResidues>
 VAL166  LYS551  ARG553  GLY616  TRP617  ASP618  TYR619  PRO620  LYS621  CYS622 
 ASP623  PHE694  ASN695  SER759  ASP760  ASP761  ALA762  ILE779  LEU786  VAL792 
 PHE793  MET794  SER795  GLU796  ALA797  LYS798  CYS799  TRP800  GLU811  SER814 

> <Gold.Protein.RotatedAtoms>
  150.9194  134.8612  159.7478 H   0  0  0  0  0  0  0  0  0  0  0  0  # atno 6907 bound_to 6896
  152.4985  134.4240  159.9500 H   0  0  0  0  0  0  0  0  0  0  0  0  # atno 6908 bound_to 6896
  151.4275  133.3640  159.2799 H   0  0  0  0  0  0  0  0  0  0  0  0  # atno 6909 bound_to 6896
  145.3848  139.2373  143.3384 H   0  0  0  0  0  0  0  0  0  0  0  0  # atno 7974 bound_to 7965
  156.0128  140.3348  155.6958 H   0  0  0  0  0  0  0  0  0  0  0  0  # atno 8008 bound_to 7997
  155.6134  140.0667  157.2717 H   0  0  0  0  0  0  0  0  0  0  0  0  # atno 8009 bound_to 7997
  154.4287  140.1789  156.1283 H   0  0  0  0  0  0  0  0  0  0  0  0  # atno 8010 bound_to 7997
  140.0055  144.5654  150.7701 H   0  0  0  0  0  0  0  0  0  0  0  0  # atno 10167 bound_to 10162
  157.6722  131.0816  150.5784 H   0  0  0  0  0  0  0  0  0  0  0  0  # atno 10718 bound_to 10713
  153.9539  135.6747  153.4744 H   0  0  0  0  0  0  0  0  0  0  0  0  # atno 10763 bound_to 10752
  153.0871  135.4893  154.8614 H   0  0  0  0  0  0  0  0  0  0  0  0  # atno 10764 bound_to 10752
  154.7310  135.3138  154.8851 H   0  0  0  0  0  0  0  0  0  0  0  0  # atno 10765 bound_to 10752
  141.0685  133.9418  157.2531 H   0  0  0  0  0  0  0  0  0  0  0  0  # atno 11005 bound_to 11000
  146.2825  140.4521  142.8771 LP  0  0  0  0  0  0  0  0  0  0  0  0  # atno 17320 bound_to 7965
  144.8482  140.6961  143.6185 LP  0  0  0  0  0  0  0  0  0  0  0  0  # atno 17321 bound_to 7965
  140.7402  143.2801  151.3623 LP  0  0  0  0  0  0  0  0  0  0  0  0  # atno 17342 bound_to 10162
  139.6241  144.0848  152.2418 LP  0  0  0  0  0  0  0  0  0  0  0  0  # atno 17343 bound_to 10162
  156.6085  130.4373  149.5868 LP  0  0  0  0  0  0  0  0  0  0  0  0  # atno 17370 bound_to 10713
  156.2449  130.6873  151.1591 LP  0  0  0  0  0  0  0  0  0  0  0  0  # atno 17371 bound_to 10713
  139.9500  135.0177  156.8966 LP  0  0  0  0  0  0  0  0  0  0  0  0  # atno 17394 bound_to 11000
  140.5722  134.0432  155.7434 LP  0  0  0  0  0  0  0  0  0  0  0  0  # atno 17395 bound_to 11000

$$$$
