AV-unprocessed.smi:2923|AV-procd|sdf|11217|dock2
  -GOLD-   2272016103D 1   1.00000     0.00000
 Structure written by MMmdl.
 46 48  0  0  0  0  0  0  0  0  1 V2000
  145.1943  131.2160  150.6763 C   0  0  0  0  0  0  0  0  0  0  0  0
  144.2729  132.3419  150.6776 N   0  0  0  0  0  0  0  0  0  0  0  0
  143.6225  132.6438  149.4119 C   0  0  0  0  0  0  0  0  0  0  0  0
  144.7984  133.4789  151.3051 C   0  0  0  0  0  0  0  0  0  0  0  0
  145.4518  133.3927  152.5554 C   0  0  0  0  0  0  0  0  0  0  0  0
  145.9577  134.5699  153.1389 C   0  0  0  0  0  0  0  0  0  0  0  0
  145.8009  135.7962  152.4502 C   0  0  0  0  0  0  0  0  0  0  0  0
  146.2430  137.0530  152.9431 N   0  0  0  0  0  0  0  0  0  0  0  0
  146.8251  137.3327  154.1214 C   0  0  0  0  0  0  0  0  0  0  0  0
  147.1147  136.5088  154.9887 O   0  0  0  0  0  0  0  0  0  0  0  0
  147.0730  138.6437  154.2365 N   0  0  0  0  0  0  0  0  0  0  0  0
  147.7220  139.2728  155.3917 C   0  0  1  0  0  0  0  0  0  0  0  0
  149.2179  138.9565  155.4663 C   0  0  1  0  0  0  0  0  0  0  0  0
  150.1216  137.9388  154.8696 C   0  0  0  0  0  0  0  0  0  0  0  0
  151.3023  138.8941  154.5452 C   0  0  0  0  0  0  0  0  0  0  0  0
  150.7997  140.2380  154.7606 O   0  0  0  0  0  0  0  0  0  0  0  0
  149.4111  140.1240  154.5201 C   0  0  2  0  0  0  0  0  0  0  0  0
  148.1786  140.7730  155.1887 C   0  0  0  0  0  0  0  0  0  0  0  0
  147.3184  141.6499  154.2721 C   0  0  0  0  0  0  0  0  0  0  0  0
  148.4286  141.6121  156.4552 C   0  0  0  0  0  0  0  0  0  0  0  0
  145.1231  135.7724  151.2139 C   0  0  0  0  0  0  0  0  0  0  0  0
  144.6367  134.6477  150.6482 N   0  0  0  0  0  0  0  0  0  0  0  0
  145.6163  131.0585  151.6697 H   0  0  0  0  0  0  0  0  0  0  0  0
  146.0135  131.3799  149.9755 H   0  0  0  0  0  0  0  0  0  0  0  0
  144.6731  130.3040  150.3843 H   0  0  0  0  0  0  0  0  0  0  0  0
  142.9558  133.5013  149.5121 H   0  0  0  0  0  0  0  0  0  0  0  0
  143.0272  131.7918  149.0829 H   0  0  0  0  0  0  0  0  0  0  0  0
  144.3574  132.8668  148.6377 H   0  0  0  0  0  0  0  0  0  0  0  0
  145.5609  132.4455  153.0633 H   0  0  0  0  0  0  0  0  0  0  0  0
  146.4383  134.5098  154.1029 H   0  0  0  0  0  0  0  0  0  0  0  0
  146.1482  137.8260  152.3008 H   0  0  0  0  0  0  0  0  0  0  0  0
  146.8059  139.2503  153.4752 H   0  0  0  0  0  0  0  0  0  0  0  0
  147.2054  139.1004  156.3374 H   0  0  0  0  0  0  0  0  0  0  0  0
  149.5625  139.1722  156.4805 H   0  0  0  0  0  0  0  0  0  0  0  0
  150.3986  137.1517  155.5713 H   0  0  0  0  0  0  0  0  0  0  0  0
  149.7004  137.4871  153.9706 H   0  0  0  0  0  0  0  0  0  0  0  0
  152.1606  138.7165  155.1939 H   0  0  0  0  0  0  0  0  0  0  0  0
  151.6278  138.7713  153.5115 H   0  0  0  0  0  0  0  0  0  0  0  0
  149.2268  139.8825  153.4681 H   0  0  0  0  0  0  0  0  0  0  0  0
  147.7739  142.6270  154.1082 H   0  0  0  0  0  0  0  0  0  0  0  0
  146.3272  141.8149  154.6956 H   0  0  0  0  0  0  0  0  0  0  0  0
  147.1787  141.2010  153.2887 H   0  0  0  0  0  0  0  0  0  0  0  0
  149.0177  142.5012  156.2278 H   0  0  0  0  0  0  0  0  0  0  0  0
  148.9630  141.0743  157.2364 H   0  0  0  0  0  0  0  0  0  0  0  0
  147.4909  141.9482  156.8988 H   0  0  0  0  0  0  0  0  0  0  0  0
  144.9677  136.6845  150.6565 H   0  0  0  0  0  0  0  0  0  0  0  0
  1  2  1  0  0  0  0
  1 23  1  0  0  0  0
  1 24  1  0  0  0  0
  1 25  1  0  0  0  0
  2  3  1  0  0  0  0
  2  4  1  0  0  0  0
  3 26  1  0  0  0  0
  3 27  1  0  0  0  0
  3 28  1  0  0  0  0
  4 22  1  0  0  0  0
  4  5  2  0  0  0  0
  5  6  1  0  0  0  0
  5 29  1  0  0  0  0
  6  7  2  0  0  0  0
  6 30  1  0  0  0  0
  7  8  1  0  0  0  0
  7 21  1  0  0  0  0
  8  9  1  0  0  0  0
  8 31  1  0  0  0  0
  9 10  2  0  0  0  0
  9 11  1  0  0  0  0
 11 12  1  0  0  0  0
 11 32  1  0  0  0  0
 12 18  1  0  0  0  0
 12 13  1  0  0  0  0
 12 33  1  0  0  0  0
 13 17  1  0  0  0  0
 13 14  1  0  0  0  0
 13 34  1  0  0  0  0
 14 15  1  0  0  0  0
 14 35  1  0  0  0  0
 14 36  1  0  0  0  0
 15 16  1  0  0  0  0
 15 37  1  0  0  0  0
 15 38  1  0  0  0  0
 16 17  1  0  0  0  0
 17 18  1  0  0  0  0
 17 39  1  0  0  0  0
 18 19  1  0  0  0  0
 18 20  1  0  0  0  0
 19 40  1  0  0  0  0
 19 41  1  0  0  0  0
 19 42  1  0  0  0  0
 20 43  1  0  0  0  0
 20 44  1  0  0  0  0
 20 45  1  0  0  0  0
 21 22  2  0  0  0  0
 21 46  1  0  0  0  0
M  END
> <s_m_source_file>
AV-unprocessed.smi

> <i_m_source_file_index>
2923

> <i_lp_mmshare_version>
43012

> <i_f3d_flags>
0

> <s_epik_input>
W0NIM11OKFtDSDNdKWMxW2NIXVtjSF1jKFtjSF1uMSlbTkhdQyg9TylbTkhdW0NASF0yQyhbQ0gzXSkoW0NIM10pW0NAQEhdKFtDQEhdMjMpT1tDSDJdW0NIMl0z

> <s_epik_cmdline>
J2VwaWtfcHl0aG9uJywgJy1waCcsICc3LjAnLCAnLXRuJywgJzgnLCAnLW1hJywgJzIwMCcsICctbWV0YWxfYmluZGluZycsICctaW1hZScsICc8aW5maWxlLm1hZT4nLCAnLW9tYWUnLCAnPG91dGZpbGUubWFlPic=

> <r_lp_tautomer_probability>
1

> <r_epik_Ionization_Penalty>
0.628785

> <r_epik_Ionization_Penalty_Charging>
0

> <r_epik_Ionization_Penalty_Neutral>
0.628785

> <r_epik_State_Penalty>
0.644286

> <r_epik_Charging_Adjusted_Penalty>
0.644286

> <i_epik_Tot_Q>
0

> <i_epik_Tot_abs_Q>
0

> <r_epik_Metal_State_Penalty>
0.308404

> <b_epik_Metal_Only>
0

> <s_lp_Force_Field>
OPLS_2005

> <r_lp_Energy>
70.0187

> <b_lp_Chiralities_Consistent>
1

> <s_lp_Variant>
AV-unprocessed.smi:2923-16

> <Gold.Version>
5.8.1

> <Gold.Id.Protein>
6NUR|6NUR_protein|mol2

> <Gold.PLP.Fitness>
37.4485

> <Gold.PLP.PLP>
-31.5750

> <Gold.PLP.part.hbond>
-2.0000

> <Gold.PLP.part.metal>
0.0000

> <Gold.PLP.part.buried>
-4.3351

> <Gold.PLP.part.nonpolar>
-26.0150

> <Gold.PLP.part.repulsive>
0.5378

> <Gold.PLP.ligand.clash>
0.0000

> <Gold.PLP.ligand.torsion>
0.2994

> <Gold.PLP.Chemscore.Hbond>
1.0000

> <Gold.PLP.Chemscore.CHOScore>
1.0000

> <Gold.PLP.Chemscore.Metal>
0.0000

> <Gold.Chemscore.Hbonds>
donor molecule, donor type, donor heavy atom, donor atom, acceptor molecule, acceptor atom, score
      P1  H  7989  7998       L1    16  0.70
      L1  C    21    46       P1 10171  1.00

> <Gold.PLP.Chemscore.Internal.Correction>
0.4723

> <Gold.Rescore>
     Score         DG    S(hbond)    S(metal)    S(lipo)     H(rot)  DE(clash)    DE(int)     intcor
     12.47     -14.01       0.64        0.00      80.77       1.19       0.07       1.47       ----

> <Gold.Chemscore.Fitness>
12.4733

> <Gold.Chemscore.DG>
-14.0079

> <Gold.Chemscore.ZeroCoef>
-5.4800

> <Gold.Chemscore.Hbond>
0.6389

> <Gold.Chemscore.Metal>
0.0000

> <Gold.Chemscore.Lipo>
80.7679

> <Gold.Chemscore.Internal_Hbond>
0.0000

> <Gold.Chemscore.DEClash>
0.0653

> <Gold.Chemscore.DEInternal>
1.4694

> <Gold.Chemscore.Rot>
1.1937

> <Gold.Chemscore.Internal.Correction>
   9.000000E+99

> <Gold.Chemscore.Hbonds>
donor molecule, donor type, donor heavy atom, donor atom, acceptor molecule, acceptor atom, score
      P1  H  7989  7998       L1    16  0.06

> <Gold.Chemscore.Hbond.Weighted>
-2.1339

> <Gold.Chemscore.Metal.Weighted>
-0.0000

> <Gold.Chemscore.Lipo.Weighted>
-9.4498

> <Gold.Chemscore.Internal_Hbond.Weighted>
0.0000

> <Gold.Chemscore.DEClash.Weighted>
0.0653

> <Gold.Chemscore.DEInternal.Weighted>
1.4694

> <Gold.Chemscore.Rot.Weighted>
3.0559

> <Gold.Chemscore.Internal.Correction.Weighted>
   9.000000E+99

> <Gold.Protein.RotatedTorsions>
[ 6907 6896 6895 6894 ] final    7.81 input  -60.11 | X-H torsion
[ 7974 7965 7964 7962 ] final -157.42 input  175.53 | X-H torsion
[ 8008 7997 7996 7995 ] final  152.55 input   59.86 | X-H torsion
[ 10167 10162 10161 10158 ] final -108.42 input  -65.29 | X-H torsion
[ 10718 10713 10712 10709 ] final   63.50 input   66.30 | X-H torsion
[ 10763 10752 10751 10750 ] final   21.65 input  -60.55 | X-H torsion
[ 11005 11000 10999 10996 ] final  -74.58 input  -57.11 | X-H torsion

> <Gold.Protein.ActiveResidues>
 VAL166  LYS551  ARG553  GLY616  TRP617  ASP618  TYR619  PRO620  LYS621  CYS622 
 ASP623  PHE694  ASN695  SER759  ASP760  ASP761  ALA762  ILE779  LEU786  VAL792 
 PHE793  MET794  SER795  GLU796  ALA797  LYS798  CYS799  TRP800  GLU811  SER814 

> <Gold.Protein.RotatedAtoms>
  151.6959  135.0938  160.0241 H   0  0  0  0  0  0  0  0  0  0  0  0  # atno 6907 bound_to 6896
  152.3750  133.6465  159.6125 H   0  0  0  0  0  0  0  0  0  0  0  0  # atno 6908 bound_to 6896
  150.7702  133.9124  159.3415 H   0  0  0  0  0  0  0  0  0  0  0  0  # atno 6909 bound_to 6896
  144.7549  140.3972  143.6020 H   0  0  0  0  0  0  0  0  0  0  0  0  # atno 7974 bound_to 7965
  156.2624  140.2017  156.6351 H   0  0  0  0  0  0  0  0  0  0  0  0  # atno 8008 bound_to 7997
  154.6653  140.0556  157.0131 H   0  0  0  0  0  0  0  0  0  0  0  0  # atno 8009 bound_to 7997
  155.1216  140.3225  155.4498 H   0  0  0  0  0  0  0  0  0  0  0  0  # atno 8010 bound_to 7997
  140.1663  143.4079  152.1388 H   0  0  0  0  0  0  0  0  0  0  0  0  # atno 10167 bound_to 10162
  157.5976  130.9109  149.9725 H   0  0  0  0  0  0  0  0  0  0  0  0  # atno 10718 bound_to 10713
  153.0978  135.6664  153.9730 H   0  0  0  0  0  0  0  0  0  0  0  0  # atno 10763 bound_to 10752
  153.9309  135.3004  155.3447 H   0  0  0  0  0  0  0  0  0  0  0  0  # atno 10764 bound_to 10752
  154.7397  135.5085  153.9177 H   0  0  0  0  0  0  0  0  0  0  0  0  # atno 10765 bound_to 10752
  141.1636  133.6916  156.7387 H   0  0  0  0  0  0  0  0  0  0  0  0  # atno 11005 bound_to 11000
  145.6813  139.1619  143.2699 LP  0  0  0  0  0  0  0  0  0  0  0  0  # atno 17320 bound_to 7965
  146.1547  140.6875  142.9305 LP  0  0  0  0  0  0  0  0  0  0  0  0  # atno 17321 bound_to 7965
  139.5358  144.7208  151.4899 LP  0  0  0  0  0  0  0  0  0  0  0  0  # atno 17342 bound_to 10162
  140.6611  143.8497  150.6888 LP  0  0  0  0  0  0  0  0  0  0  0  0  # atno 17343 bound_to 10162
  156.1041  130.3654  150.0164 LP  0  0  0  0  0  0  0  0  0  0  0  0  # atno 17370 bound_to 10713
  156.8274  130.9380  151.3638 LP  0  0  0  0  0  0  0  0  0  0  0  0  # atno 17371 bound_to 10713
  140.2691  134.8406  157.3830 LP  0  0  0  0  0  0  0  0  0  0  0  0  # atno 17394 bound_to 11000
  140.1538  134.4815  155.7942 LP  0  0  0  0  0  0  0  0  0  0  0  0  # atno 17395 bound_to 11000

$$$$
