AV-unprocessed.smi:180|AV-procd|sdf|1452|dock7
  -GOLD-   2262019253D 1   1.00000     0.00000
 Structure written by MMmdl.
 54 57  0  0  0  0  0  0  0  0  1 V2000
  151.6191  144.8879  158.5330 C   0  0  0  0  0  0  0  0  0  0  0  0
  150.7961  143.6351  158.8136 C   0  0  0  0  0  0  0  0  0  0  0  0
  151.0351  142.9505  159.8077 O   0  0  0  0  0  0  0  0  0  0  0  0
  149.8333  143.3440  157.9262 N   0  0  0  0  0  0  0  0  0  0  0  0
  148.9460  142.1885  158.0030 C   0  0  0  0  0  0  0  0  0  0  0  0
  149.2848  141.1386  156.9312 C   0  0  1  0  0  0  0  0  0  0  0  0
  148.0876  140.2145  156.6392 C   0  0  0  0  0  0  0  0  0  0  0  0
  148.4207  139.2962  155.5580 N   0  0  0  0  0  0  0  0  0  0  0  0
  147.4883  138.3481  155.3311 C   0  0  0  0  0  0  0  0  0  0  0  0
  147.1616  137.5440  156.3718 N   0  0  0  0  0  0  0  0  0  0  0  0
  146.2455  136.5842  156.2114 C   0  0  0  0  0  0  0  0  0  0  0  0
  145.5501  136.2675  155.1168 N   0  0  0  0  0  0  0  0  0  0  0  0
  145.8769  137.0776  154.0690 C   0  0  0  0  0  0  0  0  0  0  0  0
  146.8317  138.1326  154.0864 C   0  0  0  0  0  0  0  0  0  0  0  0
  146.9036  138.7281  152.8327 N   0  0  0  0  0  0  0  0  0  0  0  0
  146.0370  138.0654  152.1165 C   0  0  0  0  0  0  0  0  0  0  0  0
  145.3638  137.0662  152.7836 N   0  0  0  0  0  0  0  0  0  0  0  0
  144.3502  136.1802  152.2325 C   0  0  0  0  0  0  0  0  0  0  0  0
  144.8786  135.1782  151.1740 C   0  0  0  0  0  0  0  0  0  0  0  0
  145.0628  135.9417  149.9955 O   0  0  0  0  0  0  0  0  0  0  0  0
  146.2341  134.5485  151.5617 C   0  0  0  0  0  0  0  0  0  0  0  0
  146.6896  133.4908  150.5403 C   0  0  0  0  0  0  0  0  0  0  0  0
  145.6841  132.4953  150.3883 O   0  0  0  0  0  0  0  0  0  0  0  0
  144.4615  133.0160  149.8799 C   0  0  0  0  0  0  0  0  0  0  0  0
  143.8770  134.0443  150.8652 C   0  0  0  0  0  0  0  0  0  0  0  0
  148.8687  139.9797  154.3526 C   0  0  0  0  0  0  0  0  0  0  0  0
  150.0368  140.9194  154.6927 C   0  0  0  0  0  0  0  0  0  0  0  0
  149.6406  141.8164  155.7263 O   0  0  0  0  0  0  0  0  0  0  0  0
  150.9874  145.6908  158.1517 H   0  0  0  0  0  0  0  0  0  0  0  0
  152.3909  144.6742  157.7932 H   0  0  0  0  0  0  0  0  0  0  0  0
  152.1050  145.2413  159.4431 H   0  0  0  0  0  0  0  0  0  0  0  0
  149.7130  143.9596  157.1350 H   0  0  0  0  0  0  0  0  0  0  0  0
  149.0043  141.7461  158.9990 H   0  0  0  0  0  0  0  0  0  0  0  0
  147.9191  142.5329  157.8786 H   0  0  0  0  0  0  0  0  0  0  0  0
  150.1288  140.5343  157.2701 H   0  0  0  0  0  0  0  0  0  0  0  0
  147.8235  139.6483  157.5336 H   0  0  0  0  0  0  0  0  0  0  0  0
  147.2172  140.8120  156.3661 H   0  0  0  0  0  0  0  0  0  0  0  0
  146.0394  135.9849  157.0858 H   0  0  0  0  0  0  0  0  0  0  0  0
  145.8572  138.2937  151.0760 H   0  0  0  0  0  0  0  0  0  0  0  0
  143.8920  135.6403  153.0626 H   0  0  0  0  0  0  0  0  0  0  0  0
  143.5596  136.7977  151.8027 H   0  0  0  0  0  0  0  0  0  0  0  0
  144.5298  136.7197  150.0563 H   0  0  0  0  0  0  0  0  0  0  0  0
  146.9978  135.3194  151.6724 H   0  0  0  0  0  0  0  0  0  0  0  0
  146.1503  134.0576  152.5310 H   0  0  0  0  0  0  0  0  0  0  0  0
  146.9172  133.9451  149.5748 H   0  0  0  0  0  0  0  0  0  0  0  0
  147.6059  133.0120  150.8855 H   0  0  0  0  0  0  0  0  0  0  0  0
  144.6219  133.4578  148.8954 H   0  0  0  0  0  0  0  0  0  0  0  0
  143.7608  132.1921  149.7436 H   0  0  0  0  0  0  0  0  0  0  0  0
  143.6212  133.5152  151.7829 H   0  0  0  0  0  0  0  0  0  0  0  0
  142.9436  134.4518  150.4752 H   0  0  0  0  0  0  0  0  0  0  0  0
  149.1805  139.2500  153.6040 H   0  0  0  0  0  0  0  0  0  0  0  0
  148.0456  140.5529  153.9240 H   0  0  0  0  0  0  0  0  0  0  0  0
  150.9150  140.3522  155.0053 H   0  0  0  0  0  0  0  0  0  0  0  0
  150.3248  141.4951  153.8131 H   0  0  0  0  0  0  0  0  0  0  0  0
  1  2  1  0  0  0  0
  1 29  1  0  0  0  0
  1 30  1  0  0  0  0
  1 31  1  0  0  0  0
  2  3  2  0  0  0  0
  2  4  1  0  0  0  0
  4  5  1  0  0  0  0
  4 32  1  0  0  0  0
  5  6  1  0  0  0  0
  5 33  1  0  0  0  0
  5 34  1  0  0  0  0
  6 28  1  0  0  0  0
  6  7  1  0  0  0  0
  6 35  1  0  0  0  0
  7  8  1  0  0  0  0
  7 36  1  0  0  0  0
  7 37  1  0  0  0  0
  8  9  1  0  0  0  0
  8 26  1  0  0  0  0
  9 14  1  0  0  0  0
  9 10  2  0  0  0  0
 10 11  1  0  0  0  0
 11 12  2  0  0  0  0
 11 38  1  0  0  0  0
 12 13  1  0  0  0  0
 13 17  1  0  0  0  0
 13 14  2  0  0  0  0
 14 15  1  0  0  0  0
 15 16  2  0  0  0  0
 16 17  1  0  0  0  0
 16 39  1  0  0  0  0
 17 18  1  0  0  0  0
 18 19  1  0  0  0  0
 18 40  1  0  0  0  0
 18 41  1  0  0  0  0
 19 25  1  0  0  0  0
 19 20  1  0  0  0  0
 19 21  1  0  0  0  0
 20 42  1  0  0  0  0
 21 22  1  0  0  0  0
 21 43  1  0  0  0  0
 21 44  1  0  0  0  0
 22 23  1  0  0  0  0
 22 45  1  0  0  0  0
 22 46  1  0  0  0  0
 23 24  1  0  0  0  0
 24 25  1  0  0  0  0
 24 47  1  0  0  0  0
 24 48  1  0  0  0  0
 25 49  1  0  0  0  0
 25 50  1  0  0  0  0
 26 27  1  0  0  0  0
 26 51  1  0  0  0  0
 26 52  1  0  0  0  0
 27 28  1  0  0  0  0
 27 53  1  0  0  0  0
 27 54  1  0  0  0  0
M  END
> <s_m_source_file>
AV-unprocessed.smi

> <i_m_source_file_index>
180

> <i_lp_mmshare_version>
43012

> <i_f3d_flags>
0

> <s_epik_input>
W0NIM11DKD1PKVtOSF1bQ0gyXVtDQEBIXTFbQ0gyXU4oW0NIMl1bQ0gyXU8xKWMobltjSF1uMiljKGMyMyluW2NIXW4zW0NIMl1DNChbT0hdKVtDSDJdW0NIMl1PW0NIMl1bQ0gyXTQ=

> <s_epik_cmdline>
J2VwaWtfcHl0aG9uJywgJy1waCcsICc3LjAnLCAnLXRuJywgJzgnLCAnLW1hJywgJzIwMCcsICctbWV0YWxfYmluZGluZycsICctaW1hZScsICc8aW5maWxlLm1hZT4nLCAnLW9tYWUnLCAnPG91dGZpbGUubWFlPic=

> <r_lp_tautomer_probability>
1

> <r_epik_Ionization_Penalty>
7.38871e-05

> <r_epik_Ionization_Penalty_Charging>
0

> <r_epik_Ionization_Penalty_Neutral>
7.38871e-05

> <r_epik_State_Penalty>
-0

> <r_epik_Charging_Adjusted_Penalty>
0

> <i_epik_Tot_Q>
0

> <i_epik_Tot_abs_Q>
0

> <r_epik_Metal_State_Penalty>
-0

> <b_epik_Metal_Only>
0

> <s_lp_Force_Field>
OPLS_2005

> <r_lp_Energy>
30.2573

> <b_lp_Chiralities_Consistent>
1

> <s_lp_Variant>
AV-unprocessed.smi:180-2

> <Gold.Version>
5.8.1

> <Gold.Id.Protein>
6NUR|6NUR_protein|mol2

> <Gold.PLP.Fitness>
44.6457

> <Gold.PLP.PLP>
-37.1420

> <Gold.PLP.part.hbond>
-4.0000

> <Gold.PLP.part.metal>
0.0000

> <Gold.PLP.part.buried>
-4.1719

> <Gold.PLP.part.nonpolar>
-30.1130

> <Gold.PLP.part.repulsive>
0.5924

> <Gold.PLP.ligand.clash>
0.0000

> <Gold.PLP.ligand.torsion>
0.6169

> <Gold.PLP.Chemscore.Hbond>
1.9920

> <Gold.PLP.Chemscore.CHOScore>
0.8560

> <Gold.PLP.Chemscore.Metal>
0.0000

> <Gold.Chemscore.Hbonds>
donor molecule, donor type, donor heavy atom, donor atom, acceptor molecule, acceptor atom, score
      L1  H     4    32       P1  8028  1.00
      L1  H    20    42       P1 10171  1.00
      L1  C    16    39       P1 10171  1.00

> <Gold.PLP.Chemscore.Internal.Correction>
0.1937

> <Gold.Rescore>
     Score         DG    S(hbond)    S(metal)    S(lipo)     H(rot)  DE(clash)    DE(int)     intcor
      9.40     -13.05       1.92        0.00      75.23       2.99       1.43       2.21       ----

> <Gold.Chemscore.Fitness>
9.4002

> <Gold.Chemscore.DG>
-13.0468

> <Gold.Chemscore.ZeroCoef>
-5.4800

> <Gold.Chemscore.Hbond>
1.9208

> <Gold.Chemscore.Metal>
0.0000

> <Gold.Chemscore.Lipo>
75.2293

> <Gold.Chemscore.Internal_Hbond>
0.0000

> <Gold.Chemscore.DEClash>
1.4322

> <Gold.Chemscore.DEInternal>
2.2144

> <Gold.Chemscore.Rot>
2.9885

> <Gold.Chemscore.Internal.Correction>
   9.000000E+99

> <Gold.Chemscore.Hbonds>
donor molecule, donor type, donor heavy atom, donor atom, acceptor molecule, acceptor atom, score
      L1  H     4    32       P1  8028  0.74
      L1  H    20    42       P1 10171  0.98

> <Gold.Chemscore.Hbond.Weighted>
-6.4155

> <Gold.Chemscore.Metal.Weighted>
-0.0000

> <Gold.Chemscore.Lipo.Weighted>
-8.8018

> <Gold.Chemscore.Internal_Hbond.Weighted>
0.0000

> <Gold.Chemscore.DEClash.Weighted>
1.4322

> <Gold.Chemscore.DEInternal.Weighted>
2.2144

> <Gold.Chemscore.Rot.Weighted>
7.6506

> <Gold.Chemscore.Internal.Correction.Weighted>
   9.000000E+99

> <Gold.Protein.RotatedTorsions>
[ 6907 6896 6895 6894 ] final  -16.02 input  -60.11 | X-H torsion
[ 7974 7965 7964 7962 ] final   59.32 input  175.53 | X-H torsion
[ 8008 7997 7996 7995 ] final -161.24 input   59.86 | X-H torsion
[ 10167 10162 10161 10158 ] final  -12.10 input  -65.29 | X-H torsion
[ 10718 10713 10712 10709 ] final  -38.01 input   66.30 | X-H torsion
[ 10763 10752 10751 10750 ] final   97.91 input  -60.55 | X-H torsion
[ 11005 11000 10999 10996 ] final  -38.15 input  -57.11 | X-H torsion

> <Gold.Protein.ActiveResidues>
 VAL166  LYS551  ARG553  GLY616  TRP617  ASP618  TYR619  PRO620  LYS621  CYS622 
 ASP623  PHE694  ASN695  SER759  ASP760  ASP761  ALA762  ILE779  LEU786  VAL792 
 PHE793  MET794  SER795  GLU796  ALA797  LYS798  CYS799  TRP800  GLU811  SER814 

> <Gold.Protein.RotatedAtoms>
  151.3149  135.0804  159.9285 H   0  0  0  0  0  0  0  0  0  0  0  0  # atno 6907 bound_to 6896
  152.5269  133.9698  159.7767 H   0  0  0  0  0  0  0  0  0  0  0  0  # atno 6908 bound_to 6896
  151.0008  133.6006  159.2725 H   0  0  0  0  0  0  0  0  0  0  0  0  # atno 6909 bound_to 6896
  145.9084  139.3635  143.0550 H   0  0  0  0  0  0  0  0  0  0  0  0  # atno 7974 bound_to 7965
  155.7893  140.0876  157.2017 H   0  0  0  0  0  0  0  0  0  0  0  0  # atno 8008 bound_to 7997
  154.3986  140.1493  156.3202 H   0  0  0  0  0  0  0  0  0  0  0  0  # atno 8009 bound_to 7997
  155.8575  140.3432  155.5736 H   0  0  0  0  0  0  0  0  0  0  0  0  # atno 8010 bound_to 7997
  140.7153  143.5569  150.9239 H   0  0  0  0  0  0  0  0  0  0  0  0  # atno 10167 bound_to 10162
  156.3086  130.4249  149.8072 H   0  0  0  0  0  0  0  0  0  0  0  0  # atno 10718 bound_to 10713
  153.2827  135.4166  155.1093 H   0  0  0  0  0  0  0  0  0  0  0  0  # atno 10763 bound_to 10752
  154.8494  135.3499  154.6090 H   0  0  0  0  0  0  0  0  0  0  0  0  # atno 10764 bound_to 10752
  153.6511  135.7052  153.5266 H   0  0  0  0  0  0  0  0  0  0  0  0  # atno 10765 bound_to 10752
  141.0006  133.6957  156.2015 H   0  0  0  0  0  0  0  0  0  0  0  0  # atno 11005 bound_to 11000
  145.8702  140.9424  143.0654 LP  0  0  0  0  0  0  0  0  0  0  0  0  # atno 17320 bound_to 7965
  144.6741  140.0645  143.7475 LP  0  0  0  0  0  0  0  0  0  0  0  0  # atno 17321 bound_to 7965
  139.9294  143.6512  152.3080 LP  0  0  0  0  0  0  0  0  0  0  0  0  # atno 17342 bound_to 10162
  139.6957  144.7641  151.1361 LP  0  0  0  0  0  0  0  0  0  0  0  0  # atno 17343 bound_to 10162
  156.5423  130.8305  151.3273 LP  0  0  0  0  0  0  0  0  0  0  0  0  # atno 17370 bound_to 10713
  157.7386  130.9816  150.2260 LP  0  0  0  0  0  0  0  0  0  0  0  0  # atno 17371 bound_to 10713
  140.6896  134.4680  157.5589 LP  0  0  0  0  0  0  0  0  0  0  0  0  # atno 17394 bound_to 11000
  139.9037  134.8498  156.1793 LP  0  0  0  0  0  0  0  0  0  0  0  0  # atno 17395 bound_to 11000

$$$$
