AV-unprocessed.smi:155|AV-procd|sdf|1282|dock4
  -GOLD-   2262018553D 1   1.00000     0.00000
 Structure written by MMmdl.
 64 67  0  0  0  0  0  0  0  0  3 V2000
  143.8049  132.7365  149.0731 C   0  0  0  0  0  0  0  0  0  0  0  0
  145.1451  133.0167  149.6404 N   0  3  0  0  0  0  0  0  0  0  0  0
  146.0302  131.8345  149.5365 C   0  0  0  0  0  0  0  0  0  0  0  0
  145.0990  133.5614  151.0225 C   0  0  0  0  0  0  0  0  0  0  0  0
  146.4733  134.0698  151.5096 C   0  0  0  0  0  0  0  0  0  0  0  0
  146.3804  135.3204  152.3101 N   0  3  1  0  0  0  0  0  0  0  0  0
  145.5333  136.3683  151.6678 C   0  0  0  0  0  0  0  0  0  0  0  0
  145.1450  137.5346  152.6002 C   0  0  0  0  0  0  0  0  0  0  0  0
  146.3403  138.2199  153.2823 C   0  0  0  0  0  0  0  0  0  0  0  0
  147.1867  137.2974  154.0413 N   0  0  0  0  0  0  0  0  0  0  0  0
  148.2874  137.8658  154.5923 C   0  0  0  0  0  0  0  0  0  0  0  0
  149.2725  137.0333  155.0167 N   0  0  0  0  0  0  0  0  0  0  0  0
  150.3824  137.5295  155.5717 C   0  0  0  0  0  0  0  0  0  0  0  0
  150.7073  138.8048  155.7907 N   0  0  0  0  0  0  0  0  0  0  0  0
  149.7257  139.6464  155.3583 C   0  0  0  0  0  0  0  0  0  0  0  0
  148.4934  139.2675  154.7530 C   0  0  0  0  0  0  0  0  0  0  0  0
  147.7584  140.4052  154.4357 N   0  0  0  0  0  0  0  0  0  0  0  0
  148.5075  141.3957  154.8376 C   0  0  0  0  0  0  0  0  0  0  0  0
  149.7080  141.0285  155.4003 N   0  0  0  0  0  0  0  0  0  0  0  0
  150.7327  141.9147  155.9226 C   0  0  0  0  0  0  0  0  0  0  0  0
  150.8934  141.7844  157.4520 C   0  0  1  0  0  0  0  0  0  0  0  0
  151.2773  140.4688  157.8012 O   0  0  0  0  0  0  0  0  0  0  0  0
  151.8950  142.7800  158.0726 C   0  0  2  0  0  0  0  0  0  0  0  0
  151.9401  142.7485  159.6017 C   0  0  0  0  0  0  0  0  0  0  0  0
  152.4851  144.1222  159.9187 C   0  0  0  0  0  0  0  0  0  0  0  0
  151.7857  144.9812  158.8699 C   0  0  0  0  0  0  0  0  0  0  0  0
  151.5718  144.1313  157.7459 O   0  0  0  0  0  0  0  0  0  0  0  0
  146.6101  136.1258  154.7071 C   0  0  0  0  0  0  0  0  0  0  0  0
  146.0337  135.0639  153.7365 C   0  0  0  0  0  0  0  0  0  0  0  0
  143.2790  131.9853  149.6640 H   0  0  0  0  0  0  0  0  0  0  0  0
  143.8921  132.3620  148.0524 H   0  0  0  0  0  0  0  0  0  0  0  0
  143.1872  133.6327  149.0327 H   0  0  0  0  0  0  0  0  0  0  0  0
  145.6621  131.0152  150.1561 H   0  0  0  0  0  0  0  0  0  0  0  0
  147.0441  132.0779  149.8566 H   0  0  0  0  0  0  0  0  0  0  0  0
  146.0881  131.4833  148.5055 H   0  0  0  0  0  0  0  0  0  0  0  0
  144.3493  134.3523  151.0800 H   0  0  0  0  0  0  0  0  0  0  0  0
  144.7637  132.7677  151.6907 H   0  0  0  0  0  0  0  0  0  0  0  0
  146.9834  133.2988  152.0888 H   0  0  0  0  0  0  0  0  0  0  0  0
  147.0998  134.2711  150.6417 H   0  0  0  0  0  0  0  0  0  0  0  0
  146.0661  136.7717  150.8067 H   0  0  0  0  0  0  0  0  0  0  0  0
  144.6189  135.9109  151.2870 H   0  0  0  0  0  0  0  0  0  0  0  0
  144.6046  138.2806  152.0168 H   0  0  0  0  0  0  0  0  0  0  0  0
  144.4307  137.2007  153.3535 H   0  0  0  0  0  0  0  0  0  0  0  0
  146.9382  138.7153  152.5162 H   0  0  0  0  0  0  0  0  0  0  0  0
  145.9808  139.0031  153.9512 H   0  0  0  0  0  0  0  0  0  0  0  0
  151.1162  136.8007  155.8838 H   0  0  0  0  0  0  0  0  0  0  0  0
  148.2068  142.4279  154.7278 H   0  0  0  0  0  0  0  0  0  0  0  0
  151.6725  141.6908  155.4163 H   0  0  0  0  0  0  0  0  0  0  0  0
  150.4677  142.9361  155.6486 H   0  0  0  0  0  0  0  0  0  0  0  0
  149.9236  141.9458  157.9246 H   0  0  0  0  0  0  0  0  0  0  0  0
  152.2150  140.3972  157.7097 H   0  0  0  0  0  0  0  0  0  0  0  0
  152.9035  142.5783  157.7061 H   0  0  0  0  0  0  0  0  0  0  0  0
  150.9405  142.6414  160.0243 H   0  0  0  0  0  0  0  0  0  0  0  0
  152.5619  141.9418  159.9911 H   0  0  0  0  0  0  0  0  0  0  0  0
  152.2797  144.4427  160.9404 H   0  0  0  0  0  0  0  0  0  0  0  0
  153.5649  144.1414  159.7633 H   0  0  0  0  0  0  0  0  0  0  0  0
  150.8150  145.3165  159.2372 H   0  0  0  0  0  0  0  0  0  0  0  0
  152.3682  145.8620  158.5988 H   0  0  0  0  0  0  0  0  0  0  0  0
  147.3831  135.6395  155.3037 H   0  0  0  0  0  0  0  0  0  0  0  0
  145.8407  136.4497  155.4092 H   0  0  0  0  0  0  0  0  0  0  0  0
  144.9506  134.9858  153.8428 H   0  0  0  0  0  0  0  0  0  0  0  0
  146.4204  134.0947  154.0528 H   0  0  0  0  0  0  0  0  0  0  0  0
  145.5667  133.7281  149.0600 H   0  0  0  0  0  0  0  0  0  0  0  0
  147.3170  135.6981  152.3424 H   0  0  0  0  0  0  0  0  0  0  0  0
  1  2  1  0  0  0  0
  1 30  1  0  0  0  0
  1 31  1  0  0  0  0
  1 32  1  0  0  0  0
  2  3  1  0  0  0  0
  2  4  1  0  0  0  0
  2 63  1  0  0  0  0
  3 33  1  0  0  0  0
  3 34  1  0  0  0  0
  3 35  1  0  0  0  0
  4  5  1  0  0  0  0
  4 36  1  0  0  0  0
  4 37  1  0  0  0  0
  5  6  1  0  0  0  0
  5 38  1  0  0  0  0
  5 39  1  0  0  0  0
  6 29  1  0  0  0  0
  6  7  1  0  0  0  0
  6 64  1  0  0  0  0
  7  8  1  0  0  0  0
  7 40  1  0  0  0  0
  7 41  1  0  0  0  0
  8  9  1  0  0  0  0
  8 42  1  0  0  0  0
  8 43  1  0  0  0  0
  9 10  1  0  0  0  0
  9 44  1  0  0  0  0
  9 45  1  0  0  0  0
 10 11  1  0  0  0  0
 10 28  1  0  0  0  0
 11 16  1  0  0  0  0
 11 12  2  0  0  0  0
 12 13  1  0  0  0  0
 13 14  2  0  0  0  0
 13 46  1  0  0  0  0
 14 15  1  0  0  0  0
 15 19  1  0  0  0  0
 15 16  2  0  0  0  0
 16 17  1  0  0  0  0
 17 18  2  0  0  0  0
 18 19  1  0  0  0  0
 18 47  1  0  0  0  0
 19 20  1  0  0  0  0
 20 21  1  0  0  0  0
 20 48  1  0  0  0  0
 20 49  1  0  0  0  0
 21 22  1  0  0  0  0
 21 23  1  0  0  0  0
 21 50  1  0  0  0  0
 22 51  1  0  0  0  0
 23 27  1  0  0  0  0
 23 24  1  0  0  0  0
 23 52  1  0  0  0  0
 24 25  1  0  0  0  0
 24 53  1  0  0  0  0
 24 54  1  0  0  0  0
 25 26  1  0  0  0  0
 25 55  1  0  0  0  0
 25 56  1  0  0  0  0
 26 27  1  0  0  0  0
 26 57  1  0  0  0  0
 26 58  1  0  0  0  0
 28 29  1  0  0  0  0
 28 59  1  0  0  0  0
 28 60  1  0  0  0  0
 29 61  1  0  0  0  0
 29 62  1  0  0  0  0
M  CHG  1   2   1
M  CHG  1   6   1
M  END
> <s_m_source_file>
AV-unprocessed.smi

> <i_m_source_file_index>
155

> <i_lp_mmshare_version>
43012

> <i_f3d_flags>
0

> <s_epik_input>
W0NIM11OKFtDSDNdKVtDSDJdW0NIMl1OMVtDSDJdW0NIMl1bQ0gyXU4oW0NIMl1bQ0gyXTEpYyhuW2NIXW4yKWMoYzIzKW5bY0hdbjNbQ0gyXVtDQEhdKFtPSF0pW0NAQEhdNFtDSDJdW0NIMl1bQ0gyXU80

> <s_epik_cmdline>
J2VwaWtfcHl0aG9uJywgJy1waCcsICc3LjAnLCAnLXRuJywgJzgnLCAnLW1hJywgJzIwMCcsICctbWV0YWxfYmluZGluZycsICctaW1hZScsICc8aW5maWxlLm1hZT4nLCAnLW9tYWUnLCAnPG91dGZpbGUubWFlPic=

> <r_lp_tautomer_probability>
1

> <r_epik_Ionization_Penalty>
3.0333

> <r_epik_Ionization_Penalty_Charging>
3.03317

> <r_epik_Ionization_Penalty_Neutral>
0.000131872

> <r_epik_State_Penalty>
1.99939

> <r_epik_Charging_Adjusted_Penalty>
5.03256

> <i_epik_Tot_Q>
2

> <i_epik_Tot_abs_Q>
2

> <r_epik_Metal_State_Penalty>
2.00021

> <b_epik_Metal_Only>
0

> <s_lp_Force_Field>
OPLS_2005

> <r_lp_Energy>
68.073

> <b_lp_Chiralities_Consistent>
1

> <s_lp_Variant>
AV-unprocessed.smi:155-16

> <Gold.Version>
5.8.1

> <Gold.Id.Protein>
6NUR|6NUR_protein|mol2

> <Gold.PLP.Fitness>
56.4873

> <Gold.PLP.PLP>
-45.9469

> <Gold.PLP.part.hbond>
-2.0000

> <Gold.PLP.part.metal>
0.0000

> <Gold.PLP.part.buried>
-5.7326

> <Gold.PLP.part.nonpolar>
-39.5216

> <Gold.PLP.part.repulsive>
0.5526

> <Gold.PLP.ligand.clash>
0.0000

> <Gold.PLP.ligand.torsion>
0.9357

> <Gold.PLP.Chemscore.Hbond>
3.0000

> <Gold.PLP.Chemscore.CHOScore>
0.9864

> <Gold.PLP.Chemscore.Metal>
0.0000

> <Gold.Chemscore.Hbonds>
donor molecule, donor type, donor heavy atom, donor atom, acceptor molecule, acceptor atom, score
      L1  H     2    63       P1  7921  1.00
      L1  H     6    64       P1  7948  2.00
      L1  C    18    47       P1  8028  0.97

> <Gold.PLP.Chemscore.Internal.Correction>
0.4523

> <Gold.Rescore>
     Score         DG    S(hbond)    S(metal)    S(lipo)     H(rot)  DE(clash)    DE(int)     intcor
     15.30     -18.63       1.90        0.00     118.34       2.75       0.92       2.41       ----

> <Gold.Chemscore.Fitness>
15.2991

> <Gold.Chemscore.DG>
-18.6293

> <Gold.Chemscore.ZeroCoef>
-5.4800

> <Gold.Chemscore.Hbond>
1.8987

> <Gold.Chemscore.Metal>
0.0000

> <Gold.Chemscore.Lipo>
118.3410

> <Gold.Chemscore.Internal_Hbond>
0.0000

> <Gold.Chemscore.DEClash>
0.9209

> <Gold.Chemscore.DEInternal>
2.4092

> <Gold.Chemscore.Rot>
2.7493

> <Gold.Chemscore.Internal.Correction>
   9.000000E+99

> <Gold.Chemscore.Hbonds>
donor molecule, donor type, donor heavy atom, donor atom, acceptor molecule, acceptor atom, score
      L1  H     2    63       P1  7921  0.40
      L1  H     6    64       P1  7948  1.00

> <Gold.Chemscore.Hbond.Weighted>
-6.3416

> <Gold.Chemscore.Metal.Weighted>
-0.0000

> <Gold.Chemscore.Lipo.Weighted>
-13.8459

> <Gold.Chemscore.Internal_Hbond.Weighted>
0.0000

> <Gold.Chemscore.DEClash.Weighted>
0.9209

> <Gold.Chemscore.DEInternal.Weighted>
2.4092

> <Gold.Chemscore.Rot.Weighted>
7.0383

> <Gold.Chemscore.Internal.Correction.Weighted>
   9.000000E+99

> <Gold.Protein.RotatedTorsions>
[ 6907 6896 6895 6894 ] final   82.29 input  -60.11 | X-H torsion
[ 7974 7965 7964 7962 ] final   48.60 input  175.53 | X-H torsion
[ 8008 7997 7996 7995 ] final -136.54 input   59.86 | X-H torsion
[ 10167 10162 10161 10158 ] final  -68.26 input  -65.29 | X-H torsion
[ 10718 10713 10712 10709 ] final  -53.58 input   66.30 | X-H torsion
[ 10763 10752 10751 10750 ] final  -19.42 input  -60.55 | X-H torsion
[ 11005 11000 10999 10996 ] final  -38.87 input  -57.11 | X-H torsion

> <Gold.Protein.ActiveResidues>
 VAL166  LYS551  ARG553  GLY616  TRP617  ASP618  TYR619  PRO620  LYS621  CYS622 
 ASP623  PHE694  ASN695  SER759  ASP760  ASP761  ALA762  ILE779  LEU786  VAL792 
 PHE793  MET794  SER795  GLU796  ALA797  LYS798  CYS799  TRP800  GLU811  SER814 

> <Gold.Protein.RotatedAtoms>
  152.5294  134.3073  159.9100 H   0  0  0  0  0  0  0  0  0  0  0  0  # atno 6907 bound_to 6896
  151.3023  133.4110  159.2648 H   0  0  0  0  0  0  0  0  0  0  0  0  # atno 6908 bound_to 6896
  151.0108  134.9412  159.8063 H   0  0  0  0  0  0  0  0  0  0  0  0  # atno 6909 bound_to 6896
  146.0188  139.4628  142.9910 H   0  0  0  0  0  0  0  0  0  0  0  0  # atno 7974 bound_to 7965
  155.3970  140.0503  157.3038 H   0  0  0  0  0  0  0  0  0  0  0  0  # atno 8008 bound_to 7997
  154.5009  140.2156  155.9310 H   0  0  0  0  0  0  0  0  0  0  0  0  # atno 8009 bound_to 7997
  156.1466  140.3144  155.8585 H   0  0  0  0  0  0  0  0  0  0  0  0  # atno 8010 bound_to 7997
  140.5520  143.2312  151.6892 H   0  0  0  0  0  0  0  0  0  0  0  0  # atno 10167 bound_to 10162
  156.1523  130.4151  149.9925 H   0  0  0  0  0  0  0  0  0  0  0  0  # atno 10718 bound_to 10713
  153.6045  135.6998  153.5371 H   0  0  0  0  0  0  0  0  0  0  0  0  # atno 10763 bound_to 10752
  153.3068  135.4112  155.1301 H   0  0  0  0  0  0  0  0  0  0  0  0  # atno 10764 bound_to 10752
  154.8576  135.3662  154.5582 H   0  0  0  0  0  0  0  0  0  0  0  0  # atno 10765 bound_to 10752
  141.0059  133.6932  156.2110 H   0  0  0  0  0  0  0  0  0  0  0  0  # atno 11005 bound_to 11000
  145.7225  141.0070  143.1395 LP  0  0  0  0  0  0  0  0  0  0  0  0  # atno 17320 bound_to 7965
  144.6982  139.8888  143.7452 LP  0  0  0  0  0  0  0  0  0  0  0  0  # atno 17321 bound_to 7965
  139.5031  144.3802  152.0384 LP  0  0  0  0  0  0  0  0  0  0  0  0  # atno 17342 bound_to 10162
  140.2920  144.3743  150.6086 LP  0  0  0  0  0  0  0  0  0  0  0  0  # atno 17343 bound_to 10162
  156.7779  130.9210  151.3645 LP  0  0  0  0  0  0  0  0  0  0  0  0  # atno 17370 bound_to 10713
  157.6667  130.9014  149.9947 LP  0  0  0  0  0  0  0  0  0  0  0  0  # atno 17371 bound_to 10713
  140.6813  134.4764  157.5589 LP  0  0  0  0  0  0  0  0  0  0  0  0  # atno 17394 bound_to 11000
  139.9063  134.8441  156.1693 LP  0  0  0  0  0  0  0  0  0  0  0  0  # atno 17395 bound_to 11000

$$$$
