AV-unprocessed.smi:2804|AV-procd|sdf|10810|dock2
  -GOLD-   2272015243D 1   1.00000     0.00000
 Structure written by MMmdl.
 35 36  0  0  0  0  0  0  0  0  1 V2000
  151.9892  145.3950  159.2106 C   0  0  0  0  0  0  0  0  0  0  0  0
  152.5978  144.2397  158.4091 C   0  0  0  0  0  0  0  0  0  0  0  0
  151.9243  142.8925  158.7133 C   0  0  0  0  0  0  0  0  0  0  0  0
  152.6671  142.1469  159.7263 N   0  0  0  0  0  0  0  0  0  0  0  0
  153.2381  140.9290  159.5729 C   0  0  0  0  0  0  0  0  0  0  0  0
  153.2325  140.2523  158.5448 O   0  0  0  0  0  0  0  0  0  0  0  0
  153.8064  140.5803  160.7513 N   0  0  0  0  0  0  0  0  0  0  0  0
  154.5156  139.3320  161.0399 C   0  0  0  0  0  0  0  0  0  0  0  0
  153.6329  138.2222  161.6736 C   0  0  1  0  0  0  0  0  0  0  0  0
  153.0655  137.3521  160.7087 O   0  0  0  0  0  0  0  0  0  0  0  0
  154.3817  137.3850  162.7296 C   0  0  0  0  0  0  0  0  0  0  0  0
  153.5171  136.6551  163.4351 F   0  0  0  0  0  0  0  0  0  0  0  0
  155.2781  136.5826  162.1551 F   0  0  0  0  0  0  0  0  0  0  0  0
  155.0145  138.1987  163.5751 F   0  0  0  0  0  0  0  0  0  0  0  0
  153.5808  141.5981  161.6894 C   0  0  0  0  0  0  0  0  0  0  0  0
  153.9468  141.7062  163.0423 C   0  0  0  0  0  0  0  0  0  0  0  0
  153.5493  142.8781  163.7275 C   0  0  0  0  0  0  0  0  0  0  0  0
  152.8095  143.8920  163.0650 C   0  0  0  0  0  0  0  0  0  0  0  0
  152.4517  143.7555  161.7030 C   0  0  0  0  0  0  0  0  0  0  0  0
  152.8620  142.5829  161.0450 C   0  0  0  0  0  0  0  0  0  0  0  0
  152.4886  146.3353  158.9764 H   0  0  0  0  0  0  0  0  0  0  0  0
  152.0869  145.2248  160.2831 H   0  0  0  0  0  0  0  0  0  0  0  0
  150.9294  145.5157  158.9848 H   0  0  0  0  0  0  0  0  0  0  0  0
  152.5144  144.4603  157.3441 H   0  0  0  0  0  0  0  0  0  0  0  0
  153.6643  144.1751  158.6284 H   0  0  0  0  0  0  0  0  0  0  0  0
  150.9006  143.0551  159.0545 H   0  0  0  0  0  0  0  0  0  0  0  0
  151.8470  142.2943  157.8048 H   0  0  0  0  0  0  0  0  0  0  0  0
  154.9868  138.9685  160.1257 H   0  0  0  0  0  0  0  0  0  0  0  0
  155.3472  139.5550  161.7088 H   0  0  0  0  0  0  0  0  0  0  0  0
  152.7931  138.7087  162.1716 H   0  0  0  0  0  0  0  0  0  0  0  0
  153.6994  137.2117  160.0222 H   0  0  0  0  0  0  0  0  0  0  0  0
  154.5058  140.9295  163.5427 H   0  0  0  0  0  0  0  0  0  0  0  0
  153.8107  143.0021  164.7682 H   0  0  0  0  0  0  0  0  0  0  0  0
  152.5145  144.7782  163.6076 H   0  0  0  0  0  0  0  0  0  0  0  0
  151.8853  144.5219  161.1954 H   0  0  0  0  0  0  0  0  0  0  0  0
  1  2  1  0  0  0  0
  1 21  1  0  0  0  0
  1 22  1  0  0  0  0
  1 23  1  0  0  0  0
  2  3  1  0  0  0  0
  2 24  1  0  0  0  0
  2 25  1  0  0  0  0
  3  4  1  0  0  0  0
  3 26  1  0  0  0  0
  3 27  1  0  0  0  0
  4 20  1  0  0  0  0
  4  5  1  0  0  0  0
  5  6  2  0  0  0  0
  5  7  1  0  0  0  0
  7  8  1  0  0  0  0
  7 15  1  0  0  0  0
  8  9  1  0  0  0  0
  8 28  1  0  0  0  0
  8 29  1  0  0  0  0
  9 10  1  0  0  0  0
  9 11  1  0  0  0  0
  9 30  1  0  0  0  0
 10 31  1  0  0  0  0
 11 12  1  0  0  0  0
 11 13  1  0  0  0  0
 11 14  1  0  0  0  0
 15 20  2  0  0  0  0
 15 16  1  0  0  0  0
 16 17  2  0  0  0  0
 16 32  1  0  0  0  0
 17 18  1  0  0  0  0
 17 33  1  0  0  0  0
 18 19  2  0  0  0  0
 18 34  1  0  0  0  0
 19 20  1  0  0  0  0
 19 35  1  0  0  0  0
M  END
> <s_m_source_file>
AV-unprocessed.smi

> <i_m_source_file_index>
2804

> <i_lp_mmshare_version>
43012

> <i_f3d_flags>
0

> <s_epik_input>
W2NIXTFbY0hdW2NIXVtjSF1jKGMxMiluKFtDSDJdW0NIMl1bQ0gzXSljKD1PKW4yW0NIMl1bQ0BIXShbT0hdKUMoRikoRilG

> <s_epik_cmdline>
J2VwaWtfcHl0aG9uJywgJy1waCcsICc3LjAnLCAnLXRuJywgJzgnLCAnLW1hJywgJzIwMCcsICctbWV0YWxfYmluZGluZycsICctaW1hZScsICc8aW5maWxlLm1hZT4nLCAnLW9tYWUnLCAnPG91dGZpbGUubWFlPic=

> <r_epik_Ionization_Penalty>
0.0117937

> <r_epik_Ionization_Penalty_Charging>
3.30828e-09

> <r_epik_Ionization_Penalty_Neutral>
0.0117937

> <r_epik_State_Penalty>
0.00909547

> <r_epik_Charging_Adjusted_Penalty>
0.00909547

> <i_epik_Tot_Q>
0

> <i_epik_Tot_abs_Q>
0

> <r_epik_Metal_State_Penalty>
0.00909547

> <b_epik_Metal_Only>
0

> <s_lp_Force_Field>
OPLS_2005

> <r_lp_Energy>
49.0105

> <b_lp_Chiralities_Consistent>
1

> <s_lp_Variant>
AV-unprocessed.smi:2804-2

> <Gold.Version>
5.8.1

> <Gold.Id.Protein>
6NUR|6NUR_protein|mol2

> <Gold.PLP.Fitness>
53.3764

> <Gold.PLP.PLP>
-52.7483

> <Gold.PLP.part.hbond>
-1.0000

> <Gold.PLP.part.metal>
0.0000

> <Gold.PLP.part.buried>
-2.8134

> <Gold.PLP.part.nonpolar>
-48.7626

> <Gold.PLP.part.repulsive>
0.0000

> <Gold.PLP.ligand.clash>
0.0000

> <Gold.PLP.ligand.torsion>
1.1938

> <Gold.PLP.Chemscore.Hbond>
0.9600

> <Gold.PLP.Chemscore.CHOScore>
0.0000

> <Gold.PLP.Chemscore.Metal>
0.0000

> <Gold.Chemscore.Hbonds>
donor molecule, donor type, donor heavy atom, donor atom, acceptor molecule, acceptor atom, score
      P1  H  7997  8010       L1     6  0.90

> <Gold.PLP.Chemscore.Internal.Correction>
0.1357

> <Gold.Rescore>
     Score         DG    S(hbond)    S(metal)    S(lipo)     H(rot)  DE(clash)    DE(int)     intcor
     16.25     -17.48       0.97        0.00     125.50       2.32       0.20       1.03       ----

> <Gold.Chemscore.Fitness>
16.2531

> <Gold.Chemscore.DG>
-17.4835

> <Gold.Chemscore.ZeroCoef>
-5.4800

> <Gold.Chemscore.Hbond>
0.9721

> <Gold.Chemscore.Metal>
0.0000

> <Gold.Chemscore.Lipo>
125.4996

> <Gold.Chemscore.Internal_Hbond>
0.0000

> <Gold.Chemscore.DEClash>
0.2029

> <Gold.Chemscore.DEInternal>
1.0276

> <Gold.Chemscore.Rot>
2.3152

> <Gold.Chemscore.Internal.Correction>
   9.000000E+99

> <Gold.Chemscore.Hbonds>
donor molecule, donor type, donor heavy atom, donor atom, acceptor molecule, acceptor atom, score
      P1  H  7997  8010       L1     6  0.82

> <Gold.Chemscore.Hbond.Weighted>
-3.2469

> <Gold.Chemscore.Metal.Weighted>
-0.0000

> <Gold.Chemscore.Lipo.Weighted>
-14.6835

> <Gold.Chemscore.Internal_Hbond.Weighted>
0.0000

> <Gold.Chemscore.DEClash.Weighted>
0.2029

> <Gold.Chemscore.DEInternal.Weighted>
1.0276

> <Gold.Chemscore.Rot.Weighted>
5.9268

> <Gold.Chemscore.Internal.Correction.Weighted>
   9.000000E+99

> <Gold.Protein.RotatedTorsions>
[ 6907 6896 6895 6894 ] final   36.98 input  -60.11 | X-H torsion
[ 7974 7965 7964 7962 ] final  129.30 input  175.53 | X-H torsion
[ 8008 7997 7996 7995 ] final   32.53 input   59.86 | X-H torsion
[ 10167 10162 10161 10158 ] final  108.98 input  -65.29 | X-H torsion
[ 10718 10713 10712 10709 ] final -135.83 input   66.30 | X-H torsion
[ 10763 10752 10751 10750 ] final  107.50 input  -60.55 | X-H torsion
[ 11005 11000 10999 10996 ] final    5.70 input  -57.11 | X-H torsion

> <Gold.Protein.ActiveResidues>
 VAL166  LYS551  ARG553  GLY616  TRP617  ASP618  TYR619  PRO620  LYS621  CYS622 
 ASP623  PHE694  ASN695  SER759  ASP760  ASP761  ALA762  ILE779  LEU786  VAL792 
 PHE793  MET794  SER795  GLU796  ALA797  LYS798  CYS799  TRP800  GLU811  SER814 

> <Gold.Protein.RotatedAtoms>
  152.1370  134.9091  160.0555 H   0  0  0  0  0  0  0  0  0  0  0  0  # atno 6907 bound_to 6896
  152.0174  133.3880  159.4252 H   0  0  0  0  0  0  0  0  0  0  0  0  # atno 6908 bound_to 6896
  150.6861  134.3586  159.4984 H   0  0  0  0  0  0  0  0  0  0  0  0  # atno 6909 bound_to 6896
  145.0302  139.4053  143.5153 H   0  0  0  0  0  0  0  0  0  0  0  0  # atno 7974 bound_to 7965
  155.1240  140.3251  155.4490 H   0  0  0  0  0  0  0  0  0  0  0  0  # atno 8008 bound_to 7997
  156.2654  140.2022  156.6310 H   0  0  0  0  0  0  0  0  0  0  0  0  # atno 8009 bound_to 7997
  154.6662  140.0541  157.0103 H   0  0  0  0  0  0  0  0  0  0  0  0  # atno 8010 bound_to 7997
  139.6802  144.7119  151.1528 H   0  0  0  0  0  0  0  0  0  0  0  0  # atno 10167 bound_to 10162
  156.2704  130.7262  151.1227 H   0  0  0  0  0  0  0  0  0  0  0  0  # atno 10718 bound_to 10713
  153.4076  135.3842  155.2029 H   0  0  0  0  0  0  0  0  0  0  0  0  # atno 10763 bound_to 10752
  154.8735  135.3786  154.4540 H   0  0  0  0  0  0  0  0  0  0  0  0  # atno 10764 bound_to 10752
  153.5045  135.7088  153.5876 H   0  0  0  0  0  0  0  0  0  0  0  0  # atno 10765 bound_to 10752
  140.5678  134.0131  155.7996 H   0  0  0  0  0  0  0  0  0  0  0  0  # atno 11005 bound_to 11000
  146.3497  139.9847  142.8692 LP  0  0  0  0  0  0  0  0  0  0  0  0  # atno 17320 bound_to 7965
  145.1781  140.9753  143.4282 LP  0  0  0  0  0  0  0  0  0  0  0  0  # atno 17321 bound_to 7965
  140.7650  143.5710  150.8996 LP  0  0  0  0  0  0  0  0  0  0  0  0  # atno 17342 bound_to 10162
  139.9381  143.6414  152.3060 LP  0  0  0  0  0  0  0  0  0  0  0  0  # atno 17343 bound_to 10162
  157.7282  131.0633  150.5831 LP  0  0  0  0  0  0  0  0  0  0  0  0  # atno 17370 bound_to 10713
  156.5927  130.4333  149.5930 LP  0  0  0  0  0  0  0  0  0  0  0  0  # atno 17371 bound_to 10713
  141.1075  133.9670  157.2970 LP  0  0  0  0  0  0  0  0  0  0  0  0  # atno 17394 bound_to 11000
  139.9376  135.0195  156.8607 LP  0  0  0  0  0  0  0  0  0  0  0  0  # atno 17395 bound_to 11000

$$$$
