AV-unprocessed.smi:100|AV-procd|sdf|906|dock1
  -GOLD-   2262017403D 1   1.00000     0.00000
 Structure written by MMmdl.
 31 33  0  0  0  0  0  0  0  0  1 V2000
  153.7614  141.6400  160.6363 N   0  0  0  0  0  0  0  0  0  0  0  0
  152.7963  142.1307  159.8464 C   0  0  0  0  0  0  0  0  0  0  0  0
  152.2314  143.3145  160.1813 N   0  0  0  0  0  0  0  0  0  0  0  0
  151.2669  143.8249  159.4087 C   0  0  0  0  0  0  0  0  0  0  0  0
  150.7391  143.3219  158.2898 N   0  0  0  0  0  0  0  0  0  0  0  0
  151.3094  142.1285  157.9536 C   0  0  0  0  0  0  0  0  0  0  0  0
  152.3407  141.4690  158.6781 C   0  0  0  0  0  0  0  0  0  0  0  0
  152.6762  140.2793  158.0464 N   0  0  0  0  0  0  0  0  0  0  0  0
  151.8838  140.2410  157.0089 C   0  0  0  0  0  0  0  0  0  0  0  0
  151.0307  141.3147  156.8740 N   0  0  0  0  0  0  0  0  0  0  0  0
  150.0220  141.5430  155.7956 C   0  0  1  0  0  0  0  0  0  0  0  0
  150.2413  140.6067  154.7848 O   0  0  0  0  0  0  0  0  0  0  0  0
  148.9932  140.2082  154.2155 C   0  0  1  0  0  0  0  0  0  0  0  0
  148.8815  138.6701  154.1944 C   0  0  0  0  0  0  0  0  0  0  0  0
  150.0153  138.0444  153.6298 O   0  0  0  0  0  0  0  0  0  0  0  0
  147.9005  140.9546  154.9967 C   0  0  2  0  0  0  0  0  0  0  0  0
  147.6017  142.0631  154.3125 F   0  0  0  0  0  0  0  0  0  0  0  0
  148.6007  141.3034  156.3023 C   0  0  2  0  0  0  0  0  0  0  0  0
  148.0095  142.4378  156.9050 O   0  0  0  0  0  0  0  0  0  0  0  0
  154.1985  140.7589  160.4074 H   0  0  0  0  0  0  0  0  0  0  0  0
  154.0495  142.1518  161.4575 H   0  0  0  0  0  0  0  0  0  0  0  0
  150.8594  144.7714  159.7321 H   0  0  0  0  0  0  0  0  0  0  0  0
  151.9023  139.4215  156.3049 H   0  0  0  0  0  0  0  0  0  0  0  0
  150.1971  142.5532  155.4205 H   0  0  0  0  0  0  0  0  0  0  0  0
  148.9978  140.5483  153.1787 H   0  0  0  0  0  0  0  0  0  0  0  0
  148.7880  138.3008  155.2157 H   0  0  0  0  0  0  0  0  0  0  0  0
  147.9831  138.3566  153.6620 H   0  0  0  0  0  0  0  0  0  0  0  0
  149.7220  137.3665  153.0402 H   0  0  0  0  0  0  0  0  0  0  0  0
  146.9751  140.3929  155.1280 H   0  0  0  0  0  0  0  0  0  0  0  0
  148.5860  140.4522  156.9840 H   0  0  0  0  0  0  0  0  0  0  0  0
  148.4345  143.2109  156.5661 H   0  0  0  0  0  0  0  0  0  0  0  0
  1  2  1  0  0  0  0
  1 20  1  0  0  0  0
  1 21  1  0  0  0  0
  2  7  1  0  0  0  0
  2  3  2  0  0  0  0
  3  4  1  0  0  0  0
  4  5  2  0  0  0  0
  4 22  1  0  0  0  0
  5  6  1  0  0  0  0
  6 10  1  0  0  0  0
  6  7  2  0  0  0  0
  7  8  1  0  0  0  0
  8  9  2  0  0  0  0
  9 10  1  0  0  0  0
  9 23  1  0  0  0  0
 10 11  1  0  0  0  0
 11 18  1  0  0  0  0
 11 12  1  0  0  0  0
 11 24  1  0  0  0  0
 12 13  1  0  0  0  0
 13 14  1  0  0  0  0
 13 16  1  0  0  0  0
 13 25  1  0  0  0  0
 14 15  1  0  0  0  0
 14 26  1  0  0  0  0
 14 27  1  0  0  0  0
 15 28  1  0  0  0  0
 16 17  1  0  0  0  0
 16 18  1  0  0  0  0
 16 29  1  0  0  0  0
 18 19  1  0  0  0  0
 18 30  1  0  0  0  0
 19 31  1  0  0  0  0
M  END
> <s_m_source_file>
AV-unprocessed.smi

> <i_m_source_file_index>
100

> <i_lp_mmshare_version>
43012

> <i_f3d_flags>
0

> <s_epik_input>
bjFbY0hdbmMoW05IMl0pYyhjMTIpbltjSF1uMltDQEBIXTNPW0NAQEhdKFtDSDJdW09IXSlbQ0BIXShGKVtDQEhdM1tPSF0=

> <s_epik_cmdline>
J2VwaWtfcHl0aG9uJywgJy1waCcsICc3LjAnLCAnLXRuJywgJzgnLCAnLW1hJywgJzIwMCcsICctbWV0YWxfYmluZGluZycsICctaW1hZScsICc8aW5maWxlLm1hZT4nLCAnLW9tYWUnLCAnPG91dGZpbGUubWFlPic=

> <r_lp_tautomer_probability>
1

> <r_epik_Ionization_Penalty>
0.000750324

> <r_epik_Ionization_Penalty_Charging>
0

> <r_epik_Ionization_Penalty_Neutral>
0.000750324

> <r_epik_State_Penalty>
-0

> <r_epik_Charging_Adjusted_Penalty>
0

> <i_epik_Tot_Q>
0

> <i_epik_Tot_abs_Q>
0

> <r_epik_Metal_State_Penalty>
-0

> <b_epik_Metal_Only>
0

> <s_epik_Chemistry_Notes>
This compound contains an acetal/aminal-like group ( X-CH(R)-Y where X, Y are N, S, or O) that may be acid/base labile, releasing an aldehyde.

> <s_lp_Force_Field>
OPLS_2005

> <r_lp_Energy>
36.265

> <b_lp_Chiralities_Consistent>
1

> <s_lp_Variant>
AV-unprocessed.smi:100-10

> <Gold.Version>
5.8.1

> <Gold.Id.Protein>
6NUR|6NUR_protein|mol2

> <Gold.PLP.Fitness>
44.1599

> <Gold.PLP.PLP>
-33.1765

> <Gold.PLP.part.hbond>
-5.4813

> <Gold.PLP.part.metal>
0.0000

> <Gold.PLP.part.buried>
-4.1754

> <Gold.PLP.part.nonpolar>
-24.7656

> <Gold.PLP.part.repulsive>
0.2674

> <Gold.PLP.ligand.clash>
0.0000

> <Gold.PLP.ligand.torsion>
0.3225

> <Gold.PLP.Chemscore.Hbond>
3.8720

> <Gold.PLP.Chemscore.CHOScore>
0.0000

> <Gold.PLP.Chemscore.Metal>
0.0000

> <Gold.Chemscore.Hbonds>
donor molecule, donor type, donor heavy atom, donor atom, acceptor molecule, acceptor atom, score
      L1  H    15    28       P1  7948  1.00
      L1  H    19    31       P1  8028  1.00
      P1  H  7989  7998       L1    12  0.91
      P1  H  7997  8008       L1     8  0.42

> <Gold.PLP.Chemscore.Internal.Correction>
0.0124

> <Gold.Rescore>
     Score         DG    S(hbond)    S(metal)    S(lipo)     H(rot)  DE(clash)    DE(int)     intcor
     10.04     -10.44       2.93        0.00      28.49       3.19       0.15       0.25       ----

> <Gold.Chemscore.Fitness>
10.0388

> <Gold.Chemscore.DG>
-10.4406

> <Gold.Chemscore.ZeroCoef>
-5.4800

> <Gold.Chemscore.Hbond>
2.9322

> <Gold.Chemscore.Metal>
0.0000

> <Gold.Chemscore.Lipo>
28.4937

> <Gold.Chemscore.Internal_Hbond>
0.0000

> <Gold.Chemscore.DEClash>
0.1483

> <Gold.Chemscore.DEInternal>
0.2535

> <Gold.Chemscore.Rot>
3.1901

> <Gold.Chemscore.Internal.Correction>
   9.000000E+99

> <Gold.Chemscore.Hbonds>
donor molecule, donor type, donor heavy atom, donor atom, acceptor molecule, acceptor atom, score
      L1  H    15    28       P1  7948  0.55
      L1  H    19    31       P1  8028  0.60
      P1  H  7989  7998       L1    12  0.76
      P1  H  7997  8008       L1     8  0.03

> <Gold.Chemscore.Hbond.Weighted>
-9.7935

> <Gold.Chemscore.Metal.Weighted>
-0.0000

> <Gold.Chemscore.Lipo.Weighted>
-3.3338

> <Gold.Chemscore.Internal_Hbond.Weighted>
0.0000

> <Gold.Chemscore.DEClash.Weighted>
0.1483

> <Gold.Chemscore.DEInternal.Weighted>
0.2535

> <Gold.Chemscore.Rot.Weighted>
8.1667

> <Gold.Chemscore.Internal.Correction.Weighted>
   9.000000E+99

> <Gold.Protein.RotatedTorsions>
[ 6907 6896 6895 6894 ] final   94.50 input  -60.11 | X-H torsion
[ 7974 7965 7964 7962 ] final  -30.95 input  175.53 | X-H torsion
[ 8008 7997 7996 7995 ] final  -71.57 input   59.86 | X-H torsion
[ 10167 10162 10161 10158 ] final  131.47 input  -65.29 | X-H torsion
[ 10718 10713 10712 10709 ] final   15.59 input   66.30 | X-H torsion
[ 10763 10752 10751 10750 ] final -121.58 input  -60.55 | X-H torsion
[ 11005 11000 10999 10996 ] final  107.35 input  -57.11 | X-H torsion

> <Gold.Protein.ActiveResidues>
 VAL166  LYS551  ARG553  GLY616  TRP617  ASP618  TYR619  PRO620  LYS621  CYS622 
 ASP623  PHE694  ASN695  SER759  ASP760  ASP761  ALA762  ILE779  LEU786  VAL792 
 PHE793  MET794  SER795  GLU796  ALA797  LYS798  CYS799  TRP800  GLU811  SER814 

> <Gold.Protein.RotatedAtoms>
  152.5449  134.1185  159.8388 H   0  0  0  0  0  0  0  0  0  0  0  0  # atno 6907 bound_to 6896
  151.1243  133.5074  159.2608 H   0  0  0  0  0  0  0  0  0  0  0  0  # atno 6908 bound_to 6896
  151.1744  135.0342  159.8820 H   0  0  0  0  0  0  0  0  0  0  0  0  # atno 6909 bound_to 6896
  146.1105  140.5605  142.8780 H   0  0  0  0  0  0  0  0  0  0  0  0  # atno 7974 bound_to 7965
  154.5098  140.0813  156.7968 H   0  0  0  0  0  0  0  0  0  0  0  0  # atno 8008 bound_to 7997
  155.3810  140.3428  155.4228 H   0  0  0  0  0  0  0  0  0  0  0  0  # atno 8009 bound_to 7997
  156.1560  140.1573  156.8679 H   0  0  0  0  0  0  0  0  0  0  0  0  # atno 8010 bound_to 7997
  139.5382  144.6704  151.4713 H   0  0  0  0  0  0  0  0  0  0  0  0  # atno 10167 bound_to 10162
  157.0557  130.6288  149.5776 H   0  0  0  0  0  0  0  0  0  0  0  0  # atno 10718 bound_to 10713
  154.8671  135.4163  154.2643 H   0  0  0  0  0  0  0  0  0  0  0  0  # atno 10763 bound_to 10752
  153.3565  135.7001  153.6752 H   0  0  0  0  0  0  0  0  0  0  0  0  # atno 10764 bound_to 10752
  153.5671  135.3598  155.2795 H   0  0  0  0  0  0  0  0  0  0  0  0  # atno 10765 bound_to 10752
  139.8827  134.9398  156.5806 H   0  0  0  0  0  0  0  0  0  0  0  0  # atno 11005 bound_to 11000
  144.7507  140.5183  143.6804 LP  0  0  0  0  0  0  0  0  0  0  0  0  # atno 17320 bound_to 7965
  145.5674  139.1482  143.3307 LP  0  0  0  0  0  0  0  0  0  0  0  0  # atno 17321 bound_to 7965
  140.6600  143.8519  150.6877 LP  0  0  0  0  0  0  0  0  0  0  0  0  # atno 17342 bound_to 10162
  140.1910  143.4036  152.1863 LP  0  0  0  0  0  0  0  0  0  0  0  0  # atno 17343 bound_to 10162
  155.9994  130.5069  150.7604 LP  0  0  0  0  0  0  0  0  0  0  0  0  # atno 17370 bound_to 10713
  157.4994  131.0917  151.0332 LP  0  0  0  0  0  0  0  0  0  0  0  0  # atno 17371 bound_to 10713
  140.8030  133.8490  155.8743 LP  0  0  0  0  0  0  0  0  0  0  0  0  # atno 17394 bound_to 11000
  140.9575  134.1698  157.4680 LP  0  0  0  0  0  0  0  0  0  0  0  0  # atno 17395 bound_to 11000

$$$$
