AV-unprocessed.smi:1377|AV-procd|sdf|5594|dock9
  -GOLD-   22720 5203D 1   1.00000     0.00000
 Structure written by MMmdl.
 29 30  0  0  0  0  0  0  0  0  1 V2000
  150.3978  136.3614  154.9302 N   0  0  0  0  0  0  0  0  0  0  0  0
  151.5268  136.8256  155.4729 C   0  0  0  0  0  0  0  0  0  0  0  0
  152.0875  136.2568  156.4072 O   0  0  0  0  0  0  0  0  0  0  0  0
  152.1095  138.1118  154.8835 C   0  0  0  0  0  0  0  0  0  0  0  0
  151.1366  139.2440  155.0431 C   0  0  0  0  0  0  0  0  0  0  0  0
  149.8834  139.3420  154.4864 C   0  0  0  0  0  0  0  0  0  0  0  0
  149.0825  140.8246  154.9325 S   0  0  0  0  0  0  0  0  0  0  0  0
  150.5048  141.2680  155.8632 C   0  0  0  0  0  0  0  0  0  0  0  0
  150.5802  142.4866  156.5871 N   0  0  0  0  0  0  0  0  0  0  0  0
  151.3225  142.7659  157.6747 C   0  0  0  0  0  0  0  0  0  0  0  0
  152.0898  141.9705  158.2186 O   0  0  0  0  0  0  0  0  0  0  0  0
  151.1639  144.1879  158.2308 C   0  0  0  0  0  0  0  0  0  0  0  0
  152.4880  144.9453  158.4338 C   0  0  0  0  0  0  0  0  0  0  0  0
  151.9666  145.4138  159.7954 C   0  0  0  0  0  0  0  0  0  0  0  0
  150.9575  144.2627  159.7545 C   0  0  0  0  0  0  0  0  0  0  0  0
  151.4809  140.3543  155.8213 N   0  0  0  0  0  0  0  0  0  0  0  0
  149.9816  135.5147  155.2906 H   0  0  0  0  0  0  0  0  0  0  0  0
  149.9647  136.8554  154.1637 H   0  0  0  0  0  0  0  0  0  0  0  0
  153.0516  138.3349  155.3865 H   0  0  0  0  0  0  0  0  0  0  0  0
  152.3536  137.9611  153.8310 H   0  0  0  0  0  0  0  0  0  0  0  0
  149.3828  138.6302  153.8470 H   0  0  0  0  0  0  0  0  0  0  0  0
  150.0018  143.2362  156.2370 H   0  0  0  0  0  0  0  0  0  0  0  0
  150.4293  144.7886  157.6909 H   0  0  0  0  0  0  0  0  0  0  0  0
  153.3663  144.3025  158.5175 H   0  0  0  0  0  0  0  0  0  0  0  0
  152.6558  145.7542  157.7223 H   0  0  0  0  0  0  0  0  0  0  0  0
  152.6928  145.3525  160.6065 H   0  0  0  0  0  0  0  0  0  0  0  0
  151.4902  146.3942  159.7500 H   0  0  0  0  0  0  0  0  0  0  0  0
  149.9493  144.5470  160.0574 H   0  0  0  0  0  0  0  0  0  0  0  0
  151.3018  143.3829  160.3012 H   0  0  0  0  0  0  0  0  0  0  0  0
  1  2  1  0  0  0  0
  1 17  1  0  0  0  0
  1 18  1  0  0  0  0
  2  3  2  0  0  0  0
  2  4  1  0  0  0  0
  4  5  1  0  0  0  0
  4 19  1  0  0  0  0
  4 20  1  0  0  0  0
  5 16  1  0  0  0  0
  5  6  2  0  0  0  0
  6  7  1  0  0  0  0
  6 21  1  0  0  0  0
  7  8  1  0  0  0  0
  8  9  1  0  0  0  0
  8 16  2  0  0  0  0
  9 10  1  0  0  0  0
  9 22  1  0  0  0  0
 10 11  2  0  0  0  0
 10 12  1  0  0  0  0
 12 15  1  0  0  0  0
 12 13  1  0  0  0  0
 12 23  1  0  0  0  0
 13 14  1  0  0  0  0
 13 24  1  0  0  0  0
 13 25  1  0  0  0  0
 14 15  1  0  0  0  0
 14 26  1  0  0  0  0
 14 27  1  0  0  0  0
 15 28  1  0  0  0  0
 15 29  1  0  0  0  0
M  END
> <s_m_source_file>
AV-unprocessed.smi

> <i_m_source_file_index>
1377

> <i_lp_mmshare_version>
43012

> <i_f3d_flags>
0

> <s_epik_input>
W05IMl1DKD1PKVtDSDJdYzFbY0hdc2MobjEpW05IXUMoPU8pW0NIXTJbQ0gyXVtDSDJdW0NIMl0y

> <s_epik_cmdline>
J2VwaWtfcHl0aG9uJywgJy1waCcsICc3LjAnLCAnLXRuJywgJzgnLCAnLW1hJywgJzIwMCcsICctbWV0YWxfYmluZGluZycsICctaW1hZScsICc8aW5maWxlLm1hZT4nLCAnLW9tYWUnLCAnPG91dGZpbGUubWFlPic=

> <r_lp_tautomer_probability>
1

> <r_epik_Ionization_Penalty>
0.000217978

> <r_epik_Ionization_Penalty_Charging>
0

> <r_epik_Ionization_Penalty_Neutral>
0.000217978

> <r_epik_State_Penalty>
-0

> <r_epik_Charging_Adjusted_Penalty>
0

> <i_epik_Tot_Q>
0

> <i_epik_Tot_abs_Q>
0

> <r_epik_Metal_State_Penalty>
0.13268

> <b_epik_Metal_Only>
0

> <s_lp_Force_Field>
OPLS_2005

> <r_lp_Energy>
11.3529

> <b_lp_Chiralities_Consistent>
1

> <s_lp_Variant>
AV-unprocessed.smi:1377-1

> <Gold.Version>
5.8.1

> <Gold.Id.Protein>
6NUR|6NUR_protein|mol2

> <Gold.PLP.Fitness>
46.8473

> <Gold.PLP.PLP>
-38.6439

> <Gold.PLP.part.hbond>
-4.5333

> <Gold.PLP.part.metal>
0.0000

> <Gold.PLP.part.buried>
-1.7449

> <Gold.PLP.part.nonpolar>
-32.4305

> <Gold.PLP.part.repulsive>
0.1766

> <Gold.PLP.ligand.clash>
0.0000

> <Gold.PLP.ligand.torsion>
0.3560

> <Gold.PLP.Chemscore.Hbond>
2.3312

> <Gold.PLP.Chemscore.CHOScore>
0.5068

> <Gold.PLP.Chemscore.Metal>
0.0000

> <Gold.Chemscore.Hbonds>
donor molecule, donor type, donor heavy atom, donor atom, acceptor molecule, acceptor atom, score
      L1  H     9    22       P1  8028  1.00
      P1  H 10752 10764       L1     3  0.40

> <Gold.PLP.Chemscore.Internal.Correction>
0.4015

> <Gold.Rescore>
     Score         DG    S(hbond)    S(metal)    S(lipo)     H(rot)  DE(clash)    DE(int)     intcor
     14.20     -16.43       1.96        0.00      79.81       1.92       0.39       1.84       ----

> <Gold.Chemscore.Fitness>
14.2004

> <Gold.Chemscore.DG>
-16.4310

> <Gold.Chemscore.ZeroCoef>
-5.4800

> <Gold.Chemscore.Hbond>
1.9576

> <Gold.Chemscore.Metal>
0.0000

> <Gold.Chemscore.Lipo>
79.8104

> <Gold.Chemscore.Internal_Hbond>
0.0000

> <Gold.Chemscore.DEClash>
0.3884

> <Gold.Chemscore.DEInternal>
1.8421

> <Gold.Chemscore.Rot>
1.9239

> <Gold.Chemscore.Internal.Correction>
   9.000000E+99

> <Gold.Chemscore.Hbonds>
donor molecule, donor type, donor heavy atom, donor atom, acceptor molecule, acceptor atom, score
      L1  H     9    22       P1  8028  0.99
      P1  H 10752 10764       L1     3  0.01

> <Gold.Chemscore.Hbond.Weighted>
-6.5385

> <Gold.Chemscore.Metal.Weighted>
-0.0000

> <Gold.Chemscore.Lipo.Weighted>
-9.3378

> <Gold.Chemscore.Internal_Hbond.Weighted>
0.0000

> <Gold.Chemscore.DEClash.Weighted>
0.3884

> <Gold.Chemscore.DEInternal.Weighted>
1.8421

> <Gold.Chemscore.Rot.Weighted>
4.9253

> <Gold.Chemscore.Internal.Correction.Weighted>
   9.000000E+99

> <Gold.Protein.RotatedTorsions>
[ 6907 6896 6895 6894 ] final  121.86 input  -60.11 | X-H torsion
[ 7974 7965 7964 7962 ] final   69.39 input  175.53 | X-H torsion
[ 8008 7997 7996 7995 ] final -161.89 input   59.86 | X-H torsion
[ 10167 10162 10161 10158 ] final  134.14 input  -65.29 | X-H torsion
[ 10718 10713 10712 10709 ] final  -17.41 input   66.30 | X-H torsion
[ 10763 10752 10751 10750 ] final  -23.30 input  -60.55 | X-H torsion
[ 11005 11000 10999 10996 ] final  -37.82 input  -57.11 | X-H torsion

> <Gold.Protein.ActiveResidues>
 VAL166  LYS551  ARG553  GLY616  TRP617  ASP618  TYR619  PRO620  LYS621  CYS622 
 ASP623  PHE694  ASN695  SER759  ASP760  ASP761  ALA762  ILE779  LEU786  VAL792 
 PHE793  MET794  SER795  GLU796  ALA797  LYS798  CYS799  TRP800  GLU811  SER814 

> <Gold.Protein.RotatedAtoms>
  152.4288  133.7242  159.6550 H   0  0  0  0  0  0  0  0  0  0  0  0  # atno 6907 bound_to 6896
  150.8166  133.8315  159.3163 H   0  0  0  0  0  0  0  0  0  0  0  0  # atno 6908 bound_to 6896
  151.6010  135.1049  160.0112 H   0  0  0  0  0  0  0  0  0  0  0  0  # atno 6909 bound_to 6896
  145.7910  139.2934  143.1210 H   0  0  0  0  0  0  0  0  0  0  0  0  # atno 7974 bound_to 7965
  155.7988  140.0889  157.1968 H   0  0  0  0  0  0  0  0  0  0  0  0  # atno 8008 bound_to 7997
  154.3982  140.1476  156.3309 H   0  0  0  0  0  0  0  0  0  0  0  0  # atno 8009 bound_to 7997
  155.8483  140.3436  155.5679 H   0  0  0  0  0  0  0  0  0  0  0  0  # atno 8010 bound_to 7997
  139.5268  144.6582  151.5097 H   0  0  0  0  0  0  0  0  0  0  0  0  # atno 10167 bound_to 10162
  156.5739  130.4757  149.6350 H   0  0  0  0  0  0  0  0  0  0  0  0  # atno 10718 bound_to 10713
  153.6656  135.6974  153.5163 H   0  0  0  0  0  0  0  0  0  0  0  0  # atno 10763 bound_to 10752
  153.2597  135.4248  155.0881 H   0  0  0  0  0  0  0  0  0  0  0  0  # atno 10764 bound_to 10752
  154.8440  135.3552  154.6201 H   0  0  0  0  0  0  0  0  0  0  0  0  # atno 10765 bound_to 10752
  140.9981  133.6970  156.1971 H   0  0  0  0  0  0  0  0  0  0  0  0  # atno 11005 bound_to 11000
  145.9976  140.8548  143.0035 LP  0  0  0  0  0  0  0  0  0  0  0  0  # atno 17320 bound_to 7965
  144.6782  140.2306  143.7356 LP  0  0  0  0  0  0  0  0  0  0  0  0  # atno 17321 bound_to 7965
  140.6417  143.8875  150.6698 LP  0  0  0  0  0  0  0  0  0  0  0  0  # atno 17342 bound_to 10162
  140.2212  143.3807  152.1641 LP  0  0  0  0  0  0  0  0  0  0  0  0  # atno 17343 bound_to 10162
  156.2690  130.7006  151.1798 LP  0  0  0  0  0  0  0  0  0  0  0  0  # atno 17370 bound_to 10713
  157.7342  131.0584  150.5538 LP  0  0  0  0  0  0  0  0  0  0  0  0  # atno 17371 bound_to 10713
  140.6934  134.4642  157.5588 LP  0  0  0  0  0  0  0  0  0  0  0  0  # atno 17394 bound_to 11000
  139.9025  134.8524  156.1839 LP  0  0  0  0  0  0  0  0  0  0  0  0  # atno 17395 bound_to 11000

$$$$
