AV-unprocessed.smi:212|AV-procd|sdf|1621|dock1
  -GOLD-   2262019553D 1   1.00000     0.00000
 Structure written by MMmdl.
 65 68  0  0  0  0  0  0  0  0  2 V2000
  150.5676  134.9726  156.3510 C   0  0  0  0  0  0  0  0  0  0  0  0
  149.0652  135.0384  156.0132 C   0  0  2  0  0  0  0  0  0  0  0  0
  148.7609  134.5287  154.5897 C   0  0  0  0  0  0  0  0  0  0  0  0
  147.2991  134.5331  154.3266 N   0  3  2  0  0  0  0  0  0  0  0  0
  146.9374  133.9343  153.0142 C   0  0  0  0  0  0  0  0  0  0  0  0
  145.7500  132.9486  153.1176 C   0  0  0  0  0  0  0  0  0  0  0  0
  145.1179  132.7340  151.7319 C   0  0  0  0  0  0  0  0  0  0  0  0
  146.1649  131.5970  153.7283 C   0  0  0  0  0  0  0  0  0  0  0  0
  144.7449  133.5173  153.9339 O   0  0  0  0  0  0  0  0  0  0  0  0
  146.6898  135.8699  154.5493 C   0  0  0  0  0  0  0  0  0  0  0  0
  147.0273  136.4186  155.9511 C   0  0  0  0  0  0  0  0  0  0  0  0
  148.4581  136.3543  156.2415 N   0  0  0  0  0  0  0  0  0  0  0  0
  149.1723  137.4477  155.8816 C   0  0  0  0  0  0  0  0  0  0  0  0
  149.2020  137.8509  154.5851 N   0  0  0  0  0  0  0  0  0  0  0  0
  149.9190  138.9232  154.2357 C   0  0  0  0  0  0  0  0  0  0  0  0
  150.6663  139.7142  155.0081 N   0  0  0  0  0  0  0  0  0  0  0  0
  150.6441  139.3075  156.3093 C   0  0  0  0  0  0  0  0  0  0  0  0
  149.9219  138.1965  156.8268 C   0  0  0  0  0  0  0  0  0  0  0  0
  150.1234  138.0908  158.1959 N   0  0  0  0  0  0  0  0  0  0  0  0
  150.9213  139.0856  158.4736 C   0  0  0  0  0  0  0  0  0  0  0  0
  151.3010  139.8583  157.3973 N   0  0  0  0  0  0  0  0  0  0  0  0
  152.1835  141.0175  157.4278 C   0  0  0  0  0  0  0  0  0  0  0  0
  151.7069  142.1604  158.3638 C   0  0  1  0  0  0  0  0  0  0  0  0
  150.1792  142.3722  158.2344 C   0  0  0  0  0  0  0  0  0  0  0  0
  149.7873  142.5892  156.8950 O   0  0  0  0  0  0  0  0  0  0  0  0
  152.1620  141.9361  159.8329 C   0  0  2  0  0  0  0  0  0  0  0  0
  152.0777  143.1471  160.7464 C   0  0  0  0  0  0  0  0  0  0  0  0
  152.9915  142.7541  161.9025 C   0  0  0  0  0  0  0  0  0  0  0  0
  153.9836  141.9037  161.3387 O   0  0  0  0  0  0  0  0  0  0  0  0
  153.6511  141.6046  159.9876 C   0  0  0  0  0  0  0  0  0  0  0  0
  150.9385  133.9507  156.2682 H   0  0  0  0  0  0  0  0  0  0  0  0
  150.7565  135.3049  157.3723 H   0  0  0  0  0  0  0  0  0  0  0  0
  151.1648  135.5905  155.6794 H   0  0  0  0  0  0  0  0  0  0  0  0
  148.5667  134.3633  156.7103 H   0  0  0  0  0  0  0  0  0  0  0  0
  149.2703  135.1388  153.8422 H   0  0  0  0  0  0  0  0  0  0  0  0
  149.1409  133.5118  154.4818 H   0  0  0  0  0  0  0  0  0  0  0  0
  146.7219  134.7200  152.2877 H   0  0  0  0  0  0  0  0  0  0  0  0
  147.7944  133.3950  152.6066 H   0  0  0  0  0  0  0  0  0  0  0  0
  145.8315  132.2903  151.0367 H   0  0  0  0  0  0  0  0  0  0  0  0
  144.7789  133.6757  151.2978 H   0  0  0  0  0  0  0  0  0  0  0  0
  144.2556  132.0682  151.7848 H   0  0  0  0  0  0  0  0  0  0  0  0
  146.9501  131.1238  153.1375 H   0  0  0  0  0  0  0  0  0  0  0  0
  145.3229  130.9050  153.7680 H   0  0  0  0  0  0  0  0  0  0  0  0
  146.5400  131.7078  154.7462 H   0  0  0  0  0  0  0  0  0  0  0  0
  144.1430  132.8349  154.1918 H   0  0  0  0  0  0  0  0  0  0  0  0
  147.0393  136.5570  153.7782 H   0  0  0  0  0  0  0  0  0  0  0  0
  145.6073  135.8088  154.4373 H   0  0  0  0  0  0  0  0  0  0  0  0
  146.6641  137.4425  156.0531 H   0  0  0  0  0  0  0  0  0  0  0  0
  146.5049  135.8322  156.7077 H   0  0  0  0  0  0  0  0  0  0  0  0
  149.8924  139.1842  153.1880 H   0  0  0  0  0  0  0  0  0  0  0  0
  151.2615  139.2797  159.4802 H   0  0  0  0  0  0  0  0  0  0  0  0
  153.1859  140.6852  157.6982 H   0  0  0  0  0  0  0  0  0  0  0  0
  152.2678  141.3960  156.4082 H   0  0  0  0  0  0  0  0  0  0  0  0
  152.1914  143.0685  158.0012 H   0  0  0  0  0  0  0  0  0  0  0  0
  149.6440  141.4850  158.5736 H   0  0  0  0  0  0  0  0  0  0  0  0
  149.8440  143.2051  158.8533 H   0  0  0  0  0  0  0  0  0  0  0  0
  149.2580  143.3714  156.8590 H   0  0  0  0  0  0  0  0  0  0  0  0
  151.5715  141.1374  160.2838 H   0  0  0  0  0  0  0  0  0  0  0  0
  152.4740  144.0311  160.2444 H   0  0  0  0  0  0  0  0  0  0  0  0
  151.0628  143.3673  161.0783 H   0  0  0  0  0  0  0  0  0  0  0  0
  153.4380  143.6201  162.3920 H   0  0  0  0  0  0  0  0  0  0  0  0
  152.4365  142.1889  162.6524 H   0  0  0  0  0  0  0  0  0  0  0  0
  153.8900  140.5689  159.7513 H   0  0  0  0  0  0  0  0  0  0  0  0
  154.2557  142.2403  159.3390 H   0  0  0  0  0  0  0  0  0  0  0  0
  146.8970  133.9229  155.0237 H   0  0  0  0  0  0  0  0  0  0  0  0
  1  2  1  0  0  0  0
  1 31  1  0  0  0  0
  1 32  1  0  0  0  0
  1 33  1  0  0  0  0
  2 12  1  0  0  0  0
  2  3  1  0  0  0  0
  2 34  1  0  0  0  0
  3  4  1  0  0  0  0
  3 35  1  0  0  0  0
  3 36  1  0  0  0  0
  4  5  1  0  0  0  0
  4 10  1  0  0  0  0
  4 65  1  0  0  0  0
  5  6  1  0  0  0  0
  5 37  1  0  0  0  0
  5 38  1  0  0  0  0
  6  7  1  0  0  0  0
  6  8  1  0  0  0  0
  6  9  1  0  0  0  0
  7 39  1  0  0  0  0
  7 40  1  0  0  0  0
  7 41  1  0  0  0  0
  8 42  1  0  0  0  0
  8 43  1  0  0  0  0
  8 44  1  0  0  0  0
  9 45  1  0  0  0  0
 10 11  1  0  0  0  0
 10 46  1  0  0  0  0
 10 47  1  0  0  0  0
 11 12  1  0  0  0  0
 11 48  1  0  0  0  0
 11 49  1  0  0  0  0
 12 13  1  0  0  0  0
 13 18  1  0  0  0  0
 13 14  2  0  0  0  0
 14 15  1  0  0  0  0
 15 16  2  0  0  0  0
 15 50  1  0  0  0  0
 16 17  1  0  0  0  0
 17 21  1  0  0  0  0
 17 18  2  0  0  0  0
 18 19  1  0  0  0  0
 19 20  2  0  0  0  0
 20 21  1  0  0  0  0
 20 51  1  0  0  0  0
 21 22  1  0  0  0  0
 22 23  1  0  0  0  0
 22 52  1  0  0  0  0
 22 53  1  0  0  0  0
 23 24  1  0  0  0  0
 23 26  1  0  0  0  0
 23 54  1  0  0  0  0
 24 25  1  0  0  0  0
 24 55  1  0  0  0  0
 24 56  1  0  0  0  0
 25 57  1  0  0  0  0
 26 30  1  0  0  0  0
 26 27  1  0  0  0  0
 26 58  1  0  0  0  0
 27 28  1  0  0  0  0
 27 59  1  0  0  0  0
 27 60  1  0  0  0  0
 28 29  1  0  0  0  0
 28 61  1  0  0  0  0
 28 62  1  0  0  0  0
 29 30  1  0  0  0  0
 30 63  1  0  0  0  0
 30 64  1  0  0  0  0
M  CHG  1   4   1
M  END
> <s_m_source_file>
AV-unprocessed.smi

> <i_m_source_file_index>
212

> <i_lp_mmshare_version>
43012

> <i_f3d_flags>
0

> <s_epik_input>
W0NIM11bQ0BASF0xW0NIMl1OKFtDSDJdQyhbQ0gzXSkoW0NIM10pW09IXSlbQ0gyXVtDSDJdTjFjKG5bY0hdbjIpYyhjMjMpbltjSF1uM1tDSDJdW0NASF0oW0NIMl1bT0hdKVtDQEBIXTRbQ0gyXVtDSDJdT1tDSDJdNA==

> <s_epik_cmdline>
J2VwaWtfcHl0aG9uJywgJy1waCcsICc3LjAnLCAnLXRuJywgJzgnLCAnLW1hJywgJzIwMCcsICctbWV0YWxfYmluZGluZycsICctaW1hZScsICc8aW5maWxlLm1hZT4nLCAnLW9tYWUnLCAnPG91dGZpbGUubWFlPic=

> <r_lp_tautomer_probability>
1

> <r_epik_Ionization_Penalty>
0.00182193

> <r_epik_Ionization_Penalty_Charging>
0.00173996

> <r_epik_Ionization_Penalty_Neutral>
8.19718e-05

> <r_epik_State_Penalty>
-0

> <r_epik_Charging_Adjusted_Penalty>
0.00173996

> <i_epik_Tot_Q>
1

> <i_epik_Tot_abs_Q>
1

> <r_epik_Metal_State_Penalty>
-0

> <b_epik_Metal_Only>
0

> <s_lp_Force_Field>
OPLS_2005

> <r_lp_Energy>
60.0398

> <b_lp_Chiralities_Consistent>
1

> <s_lp_Variant>
AV-unprocessed.smi:212-5

> <Gold.Version>
5.8.1

> <Gold.Id.Protein>
6NUR|6NUR_protein|mol2

> <Gold.PLP.Fitness>
47.0745

> <Gold.PLP.PLP>
-37.2383

> <Gold.PLP.part.hbond>
-3.1264

> <Gold.PLP.part.metal>
0.0000

> <Gold.PLP.part.buried>
-5.8768

> <Gold.PLP.part.nonpolar>
-27.8588

> <Gold.PLP.part.repulsive>
0.5773

> <Gold.PLP.ligand.clash>
0.0000

> <Gold.PLP.ligand.torsion>
1.4366

> <Gold.PLP.Chemscore.Hbond>
2.8233

> <Gold.PLP.Chemscore.CHOScore>
1.0000

> <Gold.PLP.Chemscore.Metal>
0.0000

> <Gold.Chemscore.Hbonds>
donor molecule, donor type, donor heavy atom, donor atom, acceptor molecule, acceptor atom, score
      L1  H     9    45       P1 10957  1.00
      L1  H    25    57       P1  8028  0.78
      P1  H  7989  7998       L1    16  0.71
      L1  C    15    50       P1  7957  1.00

> <Gold.PLP.Chemscore.Internal.Correction>
1.2397

> <Gold.Rescore>
     Score         DG    S(hbond)    S(metal)    S(lipo)     H(rot)  DE(clash)    DE(int)     intcor
     13.12     -14.63       2.31        0.00      92.82       3.68       0.18       1.34       ----

> <Gold.Chemscore.Fitness>
13.1151

> <Gold.Chemscore.DG>
-14.6332

> <Gold.Chemscore.ZeroCoef>
-5.4800

> <Gold.Chemscore.Hbond>
2.3104

> <Gold.Chemscore.Metal>
0.0000

> <Gold.Chemscore.Lipo>
92.8227

> <Gold.Chemscore.Internal_Hbond>
0.0000

> <Gold.Chemscore.DEClash>
0.1823

> <Gold.Chemscore.DEInternal>
1.3358

> <Gold.Chemscore.Rot>
3.6812

> <Gold.Chemscore.Internal.Correction>
   9.000000E+99

> <Gold.Chemscore.Hbonds>
donor molecule, donor type, donor heavy atom, donor atom, acceptor molecule, acceptor atom, score
      L1  H     9    45       P1 10957  0.96
      L1  H    25    57       P1  8028  0.73
      P1  H  7989  7998       L1    16  0.16

> <Gold.Chemscore.Hbond.Weighted>
-7.7169

> <Gold.Chemscore.Metal.Weighted>
-0.0000

> <Gold.Chemscore.Lipo.Weighted>
-10.8603

> <Gold.Chemscore.Internal_Hbond.Weighted>
0.0000

> <Gold.Chemscore.DEClash.Weighted>
0.1823

> <Gold.Chemscore.DEInternal.Weighted>
1.3358

> <Gold.Chemscore.Rot.Weighted>
9.4239

> <Gold.Chemscore.Internal.Correction.Weighted>
   9.000000E+99

> <Gold.Protein.RotatedTorsions>
[ 6907 6896 6895 6894 ] final    3.57 input  -60.11 | X-H torsion
[ 7974 7965 7964 7962 ] final    1.15 input  175.53 | X-H torsion
[ 8008 7997 7996 7995 ] final  -53.61 input   59.86 | X-H torsion
[ 10167 10162 10161 10158 ] final  -79.70 input  -65.29 | X-H torsion
[ 10718 10713 10712 10709 ] final  -42.95 input   66.30 | X-H torsion
[ 10763 10752 10751 10750 ] final  -68.65 input  -60.55 | X-H torsion
[ 11005 11000 10999 10996 ] final   11.86 input  -57.11 | X-H torsion

> <Gold.Protein.ActiveResidues>
 VAL166  LYS551  ARG553  GLY616  TRP617  ASP618  TYR619  PRO620  LYS621  CYS622 
 ASP623  PHE694  ASN695  SER759  ASP760  ASP761  ALA762  ILE779  LEU786  VAL792 
 PHE793  MET794  SER795  GLU796  ALA797  LYS798  CYS799  TRP800  GLU811  SER814 

> <Gold.Protein.RotatedAtoms>
  151.6273  135.1026  160.0113 H   0  0  0  0  0  0  0  0  0  0  0  0  # atno 6907 bound_to 6896
  152.4126  133.6982  159.6419 H   0  0  0  0  0  0  0  0  0  0  0  0  # atno 6908 bound_to 6896
  150.8015  133.8515  159.3247 H   0  0  0  0  0  0  0  0  0  0  0  0  # atno 6909 bound_to 6896
  146.2439  140.1031  142.8347 H   0  0  0  0  0  0  0  0  0  0  0  0  # atno 7974 bound_to 7965
  154.4138  140.1196  156.5182 H   0  0  0  0  0  0  0  0  0  0  0  0  # atno 8008 bound_to 7997
  155.6729  140.3496  155.4806 H   0  0  0  0  0  0  0  0  0  0  0  0  # atno 8009 bound_to 7997
  155.9617  140.1124  157.0880 H   0  0  0  0  0  0  0  0  0  0  0  0  # atno 8010 bound_to 7997
  140.4569  143.2465  151.8406 H   0  0  0  0  0  0  0  0  0  0  0  0  # atno 10167 bound_to 10162
  156.2541  130.4191  149.8616 H   0  0  0  0  0  0  0  0  0  0  0  0  # atno 10718 bound_to 10713
  154.3921  135.6050  153.5849 H   0  0  0  0  0  0  0  0  0  0  0  0  # atno 10763 bound_to 10752
  152.9787  135.5886  154.4285 H   0  0  0  0  0  0  0  0  0  0  0  0  # atno 10764 bound_to 10752
  154.4071  135.2843  155.2038 H   0  0  0  0  0  0  0  0  0  0  0  0  # atno 10765 bound_to 10752
  140.4985  134.0769  155.7788 H   0  0  0  0  0  0  0  0  0  0  0  0  # atno 11005 bound_to 11000
  145.0551  140.9047  143.4972 LP  0  0  0  0  0  0  0  0  0  0  0  0  # atno 17320 bound_to 7965
  145.1136  139.2740  143.5625 LP  0  0  0  0  0  0  0  0  0  0  0  0  # atno 17321 bound_to 7965
  139.4802  144.5054  151.9005 LP  0  0  0  0  0  0  0  0  0  0  0  0  # atno 17342 bound_to 10162
  140.4140  144.2331  150.5888 LP  0  0  0  0  0  0  0  0  0  0  0  0  # atno 17343 bound_to 10162
  156.6154  130.8604  151.3463 LP  0  0  0  0  0  0  0  0  0  0  0  0  # atno 17370 bound_to 10713
  157.7226  130.9579  150.1500 LP  0  0  0  0  0  0  0  0  0  0  0  0  # atno 17371 bound_to 10713
  141.1448  133.9075  157.2242 LP  0  0  0  0  0  0  0  0  0  0  0  0  # atno 17394 bound_to 11000
  139.9727  135.0123  156.9553 LP  0  0  0  0  0  0  0  0  0  0  0  0  # atno 17395 bound_to 11000

$$$$
