AV-unprocessed.smi:2568|AV-procd|sdf|10090|dock8
  -GOLD-   2272014113D 1   1.00000     0.00000
 Structure written by MMmdl.
 24 25  0  0  0  0  0  0  0  0  1 V2000
  153.7818  137.5541  157.8435 C   0  0  0  0  0  0  0  0  0  0  0  0
  152.7976  138.6369  158.1304 C   0  0  0  0  0  0  0  0  0  0  0  0
  151.4941  138.3916  158.2726 N   0  0  0  0  0  0  0  0  0  0  0  0
  150.8457  139.5501  158.5164 N   0  0  0  0  0  0  0  0  0  0  0  0
  151.8440  140.4333  158.5211 C   0  0  0  0  0  0  0  0  0  0  0  0
  151.5752  141.8932  158.7196 C   0  0  2  0  0  0  0  0  0  0  0  0
  150.8329  142.5151  157.5203 C   0  0  0  0  0  0  0  0  0  0  0  0
  150.6800  143.9569  157.7112 N   0  0  0  0  0  0  0  0  0  0  0  0
  151.9722  144.5975  157.9530 C   0  0  0  0  0  0  0  0  0  0  0  0
  152.6922  143.9235  159.1352 C   0  0  0  0  0  0  0  0  0  0  0  0
  152.8406  142.5319  158.8750 O   0  0  0  0  0  0  0  0  0  0  0  0
  153.0901  139.9253  158.2667 N   0  0  0  0  0  0  0  0  0  0  0  0
  151.0252  137.4993  158.2084 H   0  0  0  0  0  0  0  0  0  0  0  0
  154.7967  137.9531  157.8362 H   0  0  0  0  0  0  0  0  0  0  0  0
  153.5752  137.1091  156.8701 H   0  0  0  0  0  0  0  0  0  0  0  0
  153.7185  136.7778  158.6063 H   0  0  0  0  0  0  0  0  0  0  0  0
  150.9909  142.0209  159.6334 H   0  0  0  0  0  0  0  0  0  0  0  0
  151.3895  142.3217  156.6024 H   0  0  0  0  0  0  0  0  0  0  0  0
  149.8553  142.0481  157.3991 H   0  0  0  0  0  0  0  0  0  0  0  0
  150.2467  144.3649  156.8891 H   0  0  0  0  0  0  0  0  0  0  0  0
  152.5935  144.5289  157.0591 H   0  0  0  0  0  0  0  0  0  0  0  0
  151.8311  145.6593  158.1559 H   0  0  0  0  0  0  0  0  0  0  0  0
  153.6804  144.3630  159.2720 H   0  0  0  0  0  0  0  0  0  0  0  0
  152.1439  144.0765  160.0663 H   0  0  0  0  0  0  0  0  0  0  0  0
  1 14  1  0  0  0  0
  1 15  1  0  0  0  0
  1 16  1  0  0  0  0
  1  2  1  0  0  0  0
  2 12  2  0  0  0  0
  2  3  1  0  0  0  0
  3  4  1  0  0  0  0
  3 13  1  0  0  0  0
  4  5  2  0  0  0  0
  5 12  1  0  0  0  0
  5  6  1  0  0  0  0
  6 11  1  0  0  0  0
  6  7  1  0  0  0  0
  6 17  1  0  0  0  0
  7  8  1  0  0  0  0
  7 18  1  0  0  0  0
  7 19  1  0  0  0  0
  8  9  1  0  0  0  0
  8 20  1  0  0  0  0
  9 10  1  0  0  0  0
  9 21  1  0  0  0  0
  9 22  1  0  0  0  0
 10 11  1  0  0  0  0
 10 23  1  0  0  0  0
 10 24  1  0  0  0  0
M  END
> <s_m_source_file>
AV-unprocessed.smi

> <i_m_source_file_index>
2568

> <i_lp_mmshare_version>
43012

> <i_f3d_flags>
0

> <s_epik_input>
W0NIM11jMW5bbkhdYyhuMSlbQ0BASF0yW0NIMl1bTkhdW0NIMl1bQ0gyXU8y

> <s_epik_cmdline>
J2VwaWtfcHl0aG9uJywgJy1waCcsICc3LjAnLCAnLXRuJywgJzgnLCAnLW1hJywgJzIwMCcsICctbWV0YWxfYmluZGluZycsICctaW1hZScsICc8aW5maWxlLm1hZT4nLCAnLW9tYWUnLCAnPG91dGZpbGUubWFlPic=

> <r_epik_Ionization_Penalty>
1.10101

> <r_epik_Ionization_Penalty_Charging>
0

> <r_epik_Ionization_Penalty_Neutral>
1.10101

> <r_epik_State_Penalty>
1.26524

> <r_epik_Charging_Adjusted_Penalty>
1.26524

> <i_epik_Tot_Q>
0

> <i_epik_Tot_abs_Q>
0

> <r_epik_Metal_State_Penalty>
1.56429

> <b_epik_Metal_Only>
0

> <s_lp_Force_Field>
OPLS_2005

> <r_lp_Energy>
12.1745

> <b_lp_Chiralities_Consistent>
1

> <s_lp_Variant>
AV-unprocessed.smi:2568-3

> <Gold.Version>
5.8.1

> <Gold.Id.Protein>
6NUR|6NUR_protein|mol2

> <Gold.PLP.Fitness>
26.1683

> <Gold.PLP.PLP>
-20.5626

> <Gold.PLP.part.hbond>
-2.0000

> <Gold.PLP.part.metal>
0.0000

> <Gold.PLP.part.buried>
-3.7098

> <Gold.PLP.part.nonpolar>
-14.9093

> <Gold.PLP.part.repulsive>
0.0729

> <Gold.PLP.ligand.clash>
0.0000

> <Gold.PLP.ligand.torsion>
0.2035

> <Gold.PLP.Chemscore.Hbond>
2.0000

> <Gold.PLP.Chemscore.CHOScore>
0.0000

> <Gold.PLP.Chemscore.Metal>
0.0000

> <Gold.Chemscore.Hbonds>
donor molecule, donor type, donor heavy atom, donor atom, acceptor molecule, acceptor atom, score
      L1  H     8    20       P1  8028  1.00
      P1  H  7997  8009       L1    12  1.00

> <Gold.PLP.Chemscore.Internal.Correction>
0.0126

> <Gold.Rescore>
     Score         DG    S(hbond)    S(metal)    S(lipo)     H(rot)  DE(clash)    DE(int)     intcor
     13.99     -14.61       1.84        0.00      47.27       1.00       0.33       0.28       ----

> <Gold.Chemscore.Fitness>
13.9919

> <Gold.Chemscore.DG>
-14.6094

> <Gold.Chemscore.ZeroCoef>
-5.4800

> <Gold.Chemscore.Hbond>
1.8439

> <Gold.Chemscore.Metal>
0.0000

> <Gold.Chemscore.Lipo>
47.2700

> <Gold.Chemscore.Internal_Hbond>
0.0000

> <Gold.Chemscore.DEClash>
0.3350

> <Gold.Chemscore.DEInternal>
0.2825

> <Gold.Chemscore.Rot>
1.0000

> <Gold.Chemscore.Internal.Correction>
   9.000000E+99

> <Gold.Chemscore.Hbonds>
donor molecule, donor type, donor heavy atom, donor atom, acceptor molecule, acceptor atom, score
      L1  H     8    20       P1  8028  0.90
      P1  H  7997  8009       L1    12  0.24

> <Gold.Chemscore.Hbond.Weighted>
-6.1588

> <Gold.Chemscore.Metal.Weighted>
-0.0000

> <Gold.Chemscore.Lipo.Weighted>
-5.5306

> <Gold.Chemscore.Internal_Hbond.Weighted>
0.0000

> <Gold.Chemscore.DEClash.Weighted>
0.3350

> <Gold.Chemscore.DEInternal.Weighted>
0.2825

> <Gold.Chemscore.Rot.Weighted>
2.5600

> <Gold.Chemscore.Internal.Correction.Weighted>
   9.000000E+99

> <Gold.Protein.RotatedTorsions>
[ 6907 6896 6895 6894 ] final -146.90 input  -60.11 | X-H torsion
[ 7974 7965 7964 7962 ] final  -68.47 input  175.53 | X-H torsion
[ 8008 7997 7996 7995 ] final  144.48 input   59.86 | X-H torsion
[ 10167 10162 10161 10158 ] final   -0.50 input  -65.29 | X-H torsion
[ 10718 10713 10712 10709 ] final -162.51 input   66.30 | X-H torsion
[ 10763 10752 10751 10750 ] final  -11.00 input  -60.55 | X-H torsion
[ 11005 11000 10999 10996 ] final  -99.41 input  -57.11 | X-H torsion

> <Gold.Protein.ActiveResidues>
 VAL166  LYS551  ARG553  GLY616  TRP617  ASP618  TYR619  PRO620  LYS621  CYS622 
 ASP623  PHE694  ASN695  SER759  ASP760  ASP761  ALA762  ILE779  LEU786  VAL792 
 PHE793  MET794  SER795  GLU796  ALA797  LYS798  CYS799  TRP800  GLU811  SER814 

> <Gold.Protein.RotatedAtoms>
  151.1482  133.4925  159.2595 H   0  0  0  0  0  0  0  0  0  0  0  0  # atno 6907 bound_to 6896
  151.1582  135.0260  159.8708 H   0  0  0  0  0  0  0  0  0  0  0  0  # atno 6908 bound_to 6896
  152.5463  134.1358  159.8511 H   0  0  0  0  0  0  0  0  0  0  0  0  # atno 6909 bound_to 6896
  145.7161  140.9058  143.0655 H   0  0  0  0  0  0  0  0  0  0  0  0  # atno 7974 bound_to 7965
  156.2907  140.2235  156.5059 H   0  0  0  0  0  0  0  0  0  0  0  0  # atno 8008 bound_to 7997
  154.7650  140.0470  157.1026 H   0  0  0  0  0  0  0  0  0  0  0  0  # atno 8009 bound_to 7997
  154.9944  140.3094  155.4896 H   0  0  0  0  0  0  0  0  0  0  0  0  # atno 8010 bound_to 7997
  140.6770  143.6887  150.8045 H   0  0  0  0  0  0  0  0  0  0  0  0  # atno 10167 bound_to 10162
  156.6115  130.8852  151.2937 H   0  0  0  0  0  0  0  0  0  0  0  0  # atno 10718 bound_to 10713
  153.4774  135.7017  153.5958 H   0  0  0  0  0  0  0  0  0  0  0  0  # atno 10763 bound_to 10752
  153.4186  135.3831  155.2096 H   0  0  0  0  0  0  0  0  0  0  0  0  # atno 10764 bound_to 10752
  154.8723  135.3922  154.4219 H   0  0  0  0  0  0  0  0  0  0  0  0  # atno 10765 bound_to 10752
  141.1310  133.8319  157.0967 H   0  0  0  0  0  0  0  0  0  0  0  0  # atno 11005 bound_to 11000
  144.6929  139.9140  143.7465 LP  0  0  0  0  0  0  0  0  0  0  0  0  # atno 17320 bound_to 7965
  146.0668  139.3659  143.0547 LP  0  0  0  0  0  0  0  0  0  0  0  0  # atno 17321 bound_to 7965
  140.0582  143.5181  152.2641 LP  0  0  0  0  0  0  0  0  0  0  0  0  # atno 17342 bound_to 10162
  139.6068  144.7598  151.3043 LP  0  0  0  0  0  0  0  0  0  0  0  0  # atno 17343 bound_to 10162
  157.7253  130.9614  150.1608 LP  0  0  0  0  0  0  0  0  0  0  0  0  # atno 17370 bound_to 10713
  156.2386  130.3689  149.8363 LP  0  0  0  0  0  0  0  0  0  0  0  0  # atno 17371 bound_to 10713
  140.0358  134.9879  157.0869 LP  0  0  0  0  0  0  0  0  0  0  0  0  # atno 17394 bound_to 11000
  140.4212  134.1878  155.7164 LP  0  0  0  0  0  0  0  0  0  0  0  0  # atno 17395 bound_to 11000

$$$$
