AV-unprocessed.smi:66|AV-procd|sdf|624|dock5
  -GOLD-   2262016513D 1   1.00000     0.00000
 Structure written by MMmdl.
 28 30  0  0  0  0  0  0  0  0  2 V2000
  152.1810  136.2026  157.1226 O   0  0  0  0  0  0  0  0  0  0  0  0
  153.3438  136.6539  157.0345 C   0  0  0  0  0  0  0  0  0  0  0  0
  154.3776  136.0696  157.4287 O   0  5  0  0  0  0  0  0  0  0  0  0
  153.4964  138.0416  156.3895 C   0  0  1  0  0  0  0  0  0  0  0  0
  152.9575  138.0629  154.9479 C   0  0  0  0  0  0  0  0  0  0  0  0
  151.5340  138.5982  155.1017 C   0  0  2  0  0  0  0  0  0  0  0  0
  151.0466  139.1931  153.9173 O   0  0  0  0  0  0  0  0  0  0  0  0
  151.6733  139.6033  156.2456 C   0  0  0  0  0  0  0  0  0  0  0  0
  152.7203  139.0576  157.1019 N   0  0  0  0  0  0  0  0  0  0  0  0
  153.2329  139.8117  158.1811 C   0  0  0  0  0  0  0  0  0  0  0  0
  154.3399  139.3532  158.8146 N   0  0  0  0  0  0  0  0  0  0  0  0
  154.8290  140.0597  159.8414 C   0  0  0  0  0  0  0  0  0  0  0  0
  154.3780  141.2065  160.3704 N   0  0  0  0  0  0  0  0  0  0  0  0
  153.2878  141.6825  159.7552 C   0  0  0  0  0  0  0  0  0  0  0  0
  152.6149  142.8510  160.0860 N   0  0  0  0  0  0  0  0  0  0  0  0
  151.6349  142.8677  159.1848 C   0  0  0  0  0  0  0  0  0  0  0  0
  151.6029  141.8413  158.3204 N   0  0  0  0  0  0  0  0  0  0  0  0
  152.6713  141.0218  158.6491 C   0  0  0  0  0  0  0  0  0  0  0  0
  150.9340  141.7236  157.5708 H   0  0  0  0  0  0  0  0  0  0  0  0
  154.5525  138.3126  156.3728 H   0  0  0  0  0  0  0  0  0  0  0  0
  153.5560  138.7550  154.3535 H   0  0  0  0  0  0  0  0  0  0  0  0
  152.9897  137.0927  154.4495 H   0  0  0  0  0  0  0  0  0  0  0  0
  150.8665  137.7886  155.3997 H   0  0  0  0  0  0  0  0  0  0  0  0
  150.5575  138.5429  153.4373 H   0  0  0  0  0  0  0  0  0  0  0  0
  151.9893  140.5779  155.8692 H   0  0  0  0  0  0  0  0  0  0  0  0
  150.7335  139.7293  156.7844 H   0  0  0  0  0  0  0  0  0  0  0  0
  155.7099  139.6468  160.3103 H   0  0  0  0  0  0  0  0  0  0  0  0
  150.9078  143.6656  159.1477 H   0  0  0  0  0  0  0  0  0  0  0  0
  1  2  2  0  0  0  0
  2  3  1  0  0  0  0
  2  4  1  0  0  0  0
  4  9  1  0  0  0  0
  4  5  1  0  0  0  0
  4 20  1  0  0  0  0
  5  6  1  0  0  0  0
  5 21  1  0  0  0  0
  5 22  1  0  0  0  0
  6  7  1  0  0  0  0
  6  8  1  0  0  0  0
  6 23  1  0  0  0  0
  7 24  1  0  0  0  0
  8  9  1  0  0  0  0
  8 25  1  0  0  0  0
  8 26  1  0  0  0  0
  9 10  1  0  0  0  0
 10 18  1  0  0  0  0
 10 11  2  0  0  0  0
 11 12  1  0  0  0  0
 12 13  2  0  0  0  0
 12 27  1  0  0  0  0
 13 14  1  0  0  0  0
 14 18  2  0  0  0  0
 14 15  1  0  0  0  0
 15 16  2  0  0  0  0
 16 17  1  0  0  0  0
 16 28  1  0  0  0  0
 17 19  1  0  0  0  0
 17 18  1  0  0  0  0
M  CHG  1   3  -1
M  END
> <s_m_source_file>
AV-unprocessed.smi

> <i_m_source_file_index>
66

> <i_lp_mmshare_version>
43012

> <i_f3d_flags>
0

> <s_epik_input>
Tz1DKFtPSF0pW0NAQEhdMVtDSDJdW0NAQEhdKFtPSF0pW0NIMl1OMWMobltjSF1uMiljKGMyMylbbkhdW2NIXW4z

> <s_epik_cmdline>
J2VwaWtfcHl0aG9uJywgJy1waCcsICc3LjAnLCAnLXRuJywgJzgnLCAnLW1hJywgJzIwMCcsICctbWV0YWxfYmluZGluZycsICctaW1hZScsICc8aW5maWxlLm1hZT4nLCAnLW9tYWUnLCAnPG91dGZpbGUubWFlPic=

> <r_lp_tautomer_probability>
0.0419193

> <r_epik_Ionization_Penalty>
0.0157405

> <r_epik_Ionization_Penalty_Charging>
0.000248217

> <r_epik_Ionization_Penalty_Neutral>
0.0154923

> <r_epik_State_Penalty>
1.99742

> <r_epik_Charging_Adjusted_Penalty>
1.99767

> <i_epik_Tot_Q>
-1

> <i_epik_Tot_abs_Q>
1

> <r_epik_Metal_State_Penalty>
2.31035

> <b_epik_Metal_Only>
0

> <s_lp_Force_Field>
OPLS_2005

> <r_lp_Energy>
19.7313

> <b_lp_Chiralities_Consistent>
1

> <s_lp_Variant>
AV-unprocessed.smi:66-8

> <Gold.Version>
5.8.1

> <Gold.Id.Protein>
6NUR|6NUR_protein|mol2

> <Gold.PLP.Fitness>
40.0576

> <Gold.PLP.PLP>
-28.1605

> <Gold.PLP.part.hbond>
-4.0000

> <Gold.PLP.part.metal>
0.0000

> <Gold.PLP.part.buried>
-3.9487

> <Gold.PLP.part.nonpolar>
-21.2490

> <Gold.PLP.part.repulsive>
0.0815

> <Gold.PLP.ligand.clash>
0.0000

> <Gold.PLP.ligand.torsion>
0.0989

> <Gold.PLP.Chemscore.Hbond>
3.9708

> <Gold.PLP.Chemscore.CHOScore>
0.0000

> <Gold.PLP.Chemscore.Metal>
0.0000

> <Gold.Chemscore.Hbonds>
donor molecule, donor type, donor heavy atom, donor atom, acceptor molecule, acceptor atom, score
      P1  H  7989  7998       L1     7  1.00

> <Gold.PLP.Chemscore.Internal.Correction>
0.1824

> <Gold.Rescore>
     Score         DG    S(hbond)    S(metal)    S(lipo)     H(rot)  DE(clash)    DE(int)     intcor
     10.51     -10.83       1.71        0.00      36.09       1.78       0.00       0.32       ----

> <Gold.Chemscore.Fitness>
10.5112

> <Gold.Chemscore.DG>
-10.8312

> <Gold.Chemscore.ZeroCoef>
-5.4800

> <Gold.Chemscore.Hbond>
1.7055

> <Gold.Chemscore.Metal>
0.0000

> <Gold.Chemscore.Lipo>
36.0889

> <Gold.Chemscore.Internal_Hbond>
0.0000

> <Gold.Chemscore.DEClash>
0.0000

> <Gold.Chemscore.DEInternal>
0.3200

> <Gold.Chemscore.Rot>
1.7842

> <Gold.Chemscore.Internal.Correction>
   9.000000E+99

> <Gold.Chemscore.Hbonds>
donor molecule, donor type, donor heavy atom, donor atom, acceptor molecule, acceptor atom, score
      P1  H  7989  7998       L1     7  0.94

> <Gold.Chemscore.Hbond.Weighted>
-5.6964

> <Gold.Chemscore.Metal.Weighted>
-0.0000

> <Gold.Chemscore.Lipo.Weighted>
-4.2224

> <Gold.Chemscore.Internal_Hbond.Weighted>
0.0000

> <Gold.Chemscore.DEClash.Weighted>
0.0000

> <Gold.Chemscore.DEInternal.Weighted>
0.3200

> <Gold.Chemscore.Rot.Weighted>
4.5676

> <Gold.Chemscore.Internal.Correction.Weighted>
   9.000000E+99

> <Gold.Protein.RotatedTorsions>
[ 6907 6896 6895 6894 ] final   36.84 input  -60.11 | X-H torsion
[ 7974 7965 7964 7962 ] final  -16.08 input  175.53 | X-H torsion
[ 8008 7997 7996 7995 ] final  122.22 input   59.86 | X-H torsion
[ 10167 10162 10161 10158 ] final -167.65 input  -65.29 | X-H torsion
[ 10718 10713 10712 10709 ] final  -43.65 input   66.30 | X-H torsion
[ 10763 10752 10751 10750 ] final -103.28 input  -60.55 | X-H torsion
[ 11005 11000 10999 10996 ] final  120.88 input  -57.11 | X-H torsion

> <Gold.Protein.ActiveResidues>
 VAL166  LYS551  ARG553  GLY616  TRP617  ASP618  TYR619  PRO620  LYS621  CYS622 
 ASP623  PHE694  ASN695  SER759  ASP760  ASP761  ALA762  ILE779  LEU786  VAL792 
 PHE793  MET794  SER795  GLU796  ALA797  LYS798  CYS799  TRP800  GLU811  SER814 

> <Gold.Protein.RotatedAtoms>
  152.1352  134.9105  160.0556 H   0  0  0  0  0  0  0  0  0  0  0  0  # atno 6907 bound_to 6896
  152.0194  133.3888  159.4260 H   0  0  0  0  0  0  0  0  0  0  0  0  # atno 6908 bound_to 6896
  150.6860  134.3564  159.4975 H   0  0  0  0  0  0  0  0  0  0  0  0  # atno 6909 bound_to 6896
  146.2003  140.3585  142.8425 H   0  0  0  0  0  0  0  0  0  0  0  0  # atno 7974 bound_to 7965
  156.2718  140.2791  156.1432 H   0  0  0  0  0  0  0  0  0  0  0  0  # atno 8008 bound_to 7997
  155.0931  140.0389  157.2692 H   0  0  0  0  0  0  0  0  0  0  0  0  # atno 8009 bound_to 7997
  154.6873  140.2621  155.6853 H   0  0  0  0  0  0  0  0  0  0  0  0  # atno 8010 bound_to 7997
  139.6035  144.0961  152.1768 H   0  0  0  0  0  0  0  0  0  0  0  0  # atno 10167 bound_to 10162
  156.2467  130.4184  149.8697 H   0  0  0  0  0  0  0  0  0  0  0  0  # atno 10718 bound_to 10713
  154.7796  135.4829  153.9815 H   0  0  0  0  0  0  0  0  0  0  0  0  # atno 10763 bound_to 10752
  153.1475  135.6785  153.8940 H   0  0  0  0  0  0  0  0  0  0  0  0  # atno 10764 bound_to 10752
  153.8595  135.3157  155.3415 H   0  0  0  0  0  0  0  0  0  0  0  0  # atno 10765 bound_to 10752
  139.9203  134.9636  156.7874 H   0  0  0  0  0  0  0  0  0  0  0  0  # atno 11005 bound_to 11000
  144.8670  140.7219  143.6071 LP  0  0  0  0  0  0  0  0  0  0  0  0  # atno 17320 bound_to 7965
  145.3505  139.1707  143.4437 LP  0  0  0  0  0  0  0  0  0  0  0  0  # atno 17321 bound_to 7965
  140.0563  144.5893  150.7297 LP  0  0  0  0  0  0  0  0  0  0  0  0  # atno 17342 bound_to 10162
  140.7268  143.2644  151.4093 LP  0  0  0  0  0  0  0  0  0  0  0  0  # atno 17343 bound_to 10162
  156.6259  130.8646  151.3485 LP  0  0  0  0  0  0  0  0  0  0  0  0  # atno 17370 bound_to 10713
  157.7198  130.9543  150.1394 LP  0  0  0  0  0  0  0  0  0  0  0  0  # atno 17371 bound_to 10713
  140.6494  133.9745  155.7747 LP  0  0  0  0  0  0  0  0  0  0  0  0  # atno 17394 bound_to 11000
  141.0718  134.0194  157.3515 LP  0  0  0  0  0  0  0  0  0  0  0  0  # atno 17395 bound_to 11000

$$$$
