AV-unprocessed.smi:759|AV-procd|sdf|3621|dock5
  -GOLD-   22720 1 13D 1   1.00000     0.00000
 Structure written by MMmdl.
 24 25  0  0  0  0  0  0  0  0  2 V2000
  151.1572  141.2519  157.5287 C   0  0  0  0  0  0  0  0  0  0  0  0
  150.8220  142.5241  157.3242 N   0  0  0  0  0  0  0  0  0  0  0  0
  150.0886  142.4456  156.1944 N   0  0  0  0  0  0  0  0  0  0  0  0
  150.0284  141.1737  155.7938 C   0  0  0  0  0  0  0  0  0  0  0  0
  149.2805  140.7554  154.5648 C   0  0  2  0  0  0  0  0  0  0  0  0
  147.8071  141.2040  154.6041 C   0  0  0  0  0  0  0  0  0  0  0  0
  147.0710  140.7476  153.3348 C   0  0  0  0  0  0  0  0  0  0  0  0
  147.2230  139.2318  153.1252 C   0  0  0  0  0  0  0  0  0  0  0  0
  148.6516  138.8501  153.0879 N   0  3  0  0  0  0  0  0  0  0  0  0
  149.3863  139.2370  154.3127 C   0  0  0  0  0  0  0  0  0  0  0  0
  150.6914  140.3567  156.6067 N   0  0  0  0  0  0  0  0  0  0  0  0
  151.7615  140.9564  158.3739 H   0  0  0  0  0  0  0  0  0  0  0  0
  149.7504  141.2583  153.7175 H   0  0  0  0  0  0  0  0  0  0  0  0
  147.3120  140.7845  155.4813 H   0  0  0  0  0  0  0  0  0  0  0  0
  147.7446  142.2886  154.7000 H   0  0  0  0  0  0  0  0  0  0  0  0
  146.0151  141.0115  153.4013 H   0  0  0  0  0  0  0  0  0  0  0  0
  147.4688  141.2792  152.4693 H   0  0  0  0  0  0  0  0  0  0  0  0
  146.7248  138.6848  153.9272 H   0  0  0  0  0  0  0  0  0  0  0  0
  146.7495  138.9294  152.1910 H   0  0  0  0  0  0  0  0  0  0  0  0
  148.7207  137.8496  152.9670 H   0  0  0  0  0  0  0  0  0  0  0  0
  150.4302  138.9416  154.2037 H   0  0  0  0  0  0  0  0  0  0  0  0
  148.9838  138.6773  155.1585 H   0  0  0  0  0  0  0  0  0  0  0  0
  149.0844  139.3042  152.2965 H   0  0  0  0  0  0  0  0  0  0  0  0
  149.6674  143.2515  155.7546 H   0  0  0  0  0  0  0  0  0  0  0  0
  1 11  1  0  0  0  0
  1 12  1  0  0  0  0
  1  2  2  0  0  0  0
  2  3  1  0  0  0  0
  3  4  1  0  0  0  0
  3 24  1  0  0  0  0
  4 11  2  0  0  0  0
  4  5  1  0  0  0  0
  5 10  1  0  0  0  0
  5  6  1  0  0  0  0
  5 13  1  0  0  0  0
  6  7  1  0  0  0  0
  6 14  1  0  0  0  0
  6 15  1  0  0  0  0
  7  8  1  0  0  0  0
  7 16  1  0  0  0  0
  7 17  1  0  0  0  0
  8  9  1  0  0  0  0
  8 18  1  0  0  0  0
  8 19  1  0  0  0  0
  9 10  1  0  0  0  0
  9 20  1  0  0  0  0
  9 23  1  0  0  0  0
 10 21  1  0  0  0  0
 10 22  1  0  0  0  0
M  CHG  1   9   1
M  END
> <s_m_source_file>
AV-unprocessed.smi

> <i_m_source_file_index>
759

> <i_lp_mmshare_version>
43012

> <i_f3d_flags>
0

> <s_epik_input>
W25IXTFbY0hdbm5jMVtDQEBIXTJbQ0gyXVtDSDJdW0NIMl1bTkhdW0NIMl0y

> <s_epik_cmdline>
J2VwaWtfcHl0aG9uJywgJy1waCcsICc3LjAnLCAnLXRuJywgJzgnLCAnLW1hJywgJzIwMCcsICctbWV0YWxfYmluZGluZycsICctaW1hZScsICc8aW5maWxlLm1hZT4nLCAnLW9tYWUnLCAnPG91dGZpbGUubWFlPic=

> <r_epik_Ionization_Penalty>
0.00885924

> <r_epik_Ionization_Penalty_Charging>
0.000426856

> <r_epik_Ionization_Penalty_Neutral>
0.00843239

> <r_epik_State_Penalty>
0.640618

> <r_epik_Charging_Adjusted_Penalty>
0.641045

> <i_epik_Tot_Q>
1

> <i_epik_Tot_abs_Q>
1

> <r_epik_Metal_State_Penalty>
0.906339

> <b_epik_Metal_Only>
0

> <s_lp_Force_Field>
OPLS_2005

> <r_lp_Energy>
13.0828

> <b_lp_Chiralities_Consistent>
1

> <s_lp_Variant>
AV-unprocessed.smi:759-3

> <Gold.Version>
5.8.1

> <Gold.Id.Protein>
6NUR|6NUR_protein|mol2

> <Gold.PLP.Fitness>
33.2104

> <Gold.PLP.PLP>
-21.7745

> <Gold.PLP.part.hbond>
-3.0000

> <Gold.PLP.part.metal>
0.0000

> <Gold.PLP.part.buried>
-4.1131

> <Gold.PLP.part.nonpolar>
-16.3181

> <Gold.PLP.part.repulsive>
0.3086

> <Gold.PLP.ligand.clash>
0.0000

> <Gold.PLP.ligand.torsion>
0.0194

> <Gold.PLP.Chemscore.Hbond>
3.8153

> <Gold.PLP.Chemscore.CHOScore>
0.0000

> <Gold.PLP.Chemscore.Metal>
0.0000

> <Gold.Chemscore.Hbonds>
donor molecule, donor type, donor heavy atom, donor atom, acceptor molecule, acceptor atom, score
      L1  H     3    24       P1  8028  1.00
      L1  H     9    20       P1  7948  2.00
      L1  H     9    23       P1  7957  0.78

> <Gold.PLP.Chemscore.Internal.Correction>
0.0290

> <Gold.Rescore>
     Score         DG    S(hbond)    S(metal)    S(lipo)     H(rot)  DE(clash)    DE(int)     intcor
     16.48     -16.50       2.89        0.00      33.49       1.00       0.00       0.02       ----

> <Gold.Chemscore.Fitness>
16.4841

> <Gold.Chemscore.DG>
-16.5018

> <Gold.Chemscore.ZeroCoef>
-5.4800

> <Gold.Chemscore.Hbond>
2.8934

> <Gold.Chemscore.Metal>
0.0000

> <Gold.Chemscore.Lipo>
33.4872

> <Gold.Chemscore.Internal_Hbond>
0.0000

> <Gold.Chemscore.DEClash>
0.0000

> <Gold.Chemscore.DEInternal>
0.0177

> <Gold.Chemscore.Rot>
1.0000

> <Gold.Chemscore.Internal.Correction>
   9.000000E+99

> <Gold.Chemscore.Hbonds>
donor molecule, donor type, donor heavy atom, donor atom, acceptor molecule, acceptor atom, score
      L1  H     3    24       P1  8028  0.99
      L1  H     9    20       P1  7948  0.94
      L1  H     9    23       P1  7957  0.77

> <Gold.Chemscore.Hbond.Weighted>
-9.6638

> <Gold.Chemscore.Metal.Weighted>
-0.0000

> <Gold.Chemscore.Lipo.Weighted>
-3.9180

> <Gold.Chemscore.Internal_Hbond.Weighted>
0.0000

> <Gold.Chemscore.DEClash.Weighted>
0.0000

> <Gold.Chemscore.DEInternal.Weighted>
0.0177

> <Gold.Chemscore.Rot.Weighted>
2.5600

> <Gold.Chemscore.Internal.Correction.Weighted>
   9.000000E+99

> <Gold.Protein.RotatedTorsions>
[ 6907 6896 6895 6894 ] final  168.96 input  -60.11 | X-H torsion
[ 7974 7965 7964 7962 ] final   74.53 input  175.53 | X-H torsion
[ 8008 7997 7996 7995 ] final -155.97 input   59.86 | X-H torsion
[ 10167 10162 10161 10158 ] final   51.99 input  -65.29 | X-H torsion
[ 10718 10713 10712 10709 ] final   23.36 input   66.30 | X-H torsion
[ 10763 10752 10751 10750 ] final  -29.63 input  -60.55 | X-H torsion
[ 11005 11000 10999 10996 ] final  -81.71 input  -57.11 | X-H torsion

> <Gold.Protein.ActiveResidues>
 VAL166  LYS551  ARG553  GLY616  TRP617  ASP618  TYR619  PRO620  LYS621  CYS622 
 ASP623  PHE694  ASN695  SER759  ASP760  ASP761  ALA762  ILE779  LEU786  VAL792 
 PHE793  MET794  SER795  GLU796  ALA797  LYS798  CYS799  TRP800  GLU811  SER814 

> <Gold.Protein.RotatedAtoms>
  151.8394  133.3421  159.3638 H   0  0  0  0  0  0  0  0  0  0  0  0  # atno 6907 bound_to 6896
  150.7239  134.5406  159.5754 H   0  0  0  0  0  0  0  0  0  0  0  0  # atno 6908 bound_to 6896
  152.2876  134.7759  160.0435 H   0  0  0  0  0  0  0  0  0  0  0  0  # atno 6909 bound_to 6896
  145.7271  139.2670  143.1562 H   0  0  0  0  0  0  0  0  0  0  0  0  # atno 7974 bound_to 7965
  155.7100  140.0777  157.2375 H   0  0  0  0  0  0  0  0  0  0  0  0  # atno 8008 bound_to 7997
  154.4060  140.1631  156.2340 H   0  0  0  0  0  0  0  0  0  0  0  0  # atno 8009 bound_to 7997
  155.9291  140.3392  155.6237 H   0  0  0  0  0  0  0  0  0  0  0  0  # atno 8010 bound_to 7997
  140.2561  144.3425  150.6332 H   0  0  0  0  0  0  0  0  0  0  0  0  # atno 10167 bound_to 10162
  157.1651  130.6734  149.6057 H   0  0  0  0  0  0  0  0  0  0  0  0  # atno 10718 bound_to 10713
  153.7678  135.6914  153.4912 H   0  0  0  0  0  0  0  0  0  0  0  0  # atno 10763 bound_to 10752
  153.1895  135.4476  155.0130 H   0  0  0  0  0  0  0  0  0  0  0  0  # atno 10764 bound_to 10752
  154.8129  135.3385  154.7189 H   0  0  0  0  0  0  0  0  0  0  0  0  # atno 10765 bound_to 10752
  141.1665  133.7209  156.8464 H   0  0  0  0  0  0  0  0  0  0  0  0  # atno 11005 bound_to 11000
  146.0572  140.8008  142.9752 LP  0  0  0  0  0  0  0  0  0  0  0  0  # atno 17320 bound_to 7965
  144.6902  140.3142  143.7243 LP  0  0  0  0  0  0  0  0  0  0  0  0  # atno 17321 bound_to 7965
  140.6002  143.2167  151.7086 LP  0  0  0  0  0  0  0  0  0  0  0  0  # atno 17342 bound_to 10162
  139.5031  144.3804  152.0382 LP  0  0  0  0  0  0  0  0  0  0  0  0  # atno 17343 bound_to 10162
  155.9747  130.4698  150.6409 LP  0  0  0  0  0  0  0  0  0  0  0  0  # atno 17370 bound_to 10713
  157.4096  131.0822  151.1233 LP  0  0  0  0  0  0  0  0  0  0  0  0  # atno 17371 bound_to 10713
  140.1947  134.8940  157.3101 LP  0  0  0  0  0  0  0  0  0  0  0  0  # atno 17394 bound_to 11000
  140.2252  134.3975  155.7547 LP  0  0  0  0  0  0  0  0  0  0  0  0  # atno 17395 bound_to 11000

$$$$
