AV-unprocessed.smi:3238|AV-procd|sdf|12376|dock1
  -GOLD-   2272018233D 1   1.00000     0.00000
 Structure written by MMmdl.
 37 39  0  0  0  0  0  0  0  0  1 V2000
  149.9188  134.6410  155.1319 C   0  0  0  0  0  0  0  0  0  0  0  0
  149.9498  135.9654  154.5304 N   0  0  0  0  0  0  0  0  0  0  0  0
  150.8366  136.9194  154.8494 C   0  0  0  0  0  0  0  0  0  0  0  0
  151.7234  136.7548  155.6891 O   0  0  0  0  0  0  0  0  0  0  0  0
  150.6907  138.2470  154.0934 C   0  0  0  0  0  0  0  0  0  0  0  0
  150.4342  139.4046  155.0086 C   0  0  0  0  0  0  0  0  0  0  0  0
  149.3936  139.4140  155.8340 N   0  0  0  0  0  0  0  0  0  0  0  0
  149.5205  140.6402  156.5019 O   0  0  0  0  0  0  0  0  0  0  0  0
  150.6302  141.2265  155.9917 C   0  0  0  0  0  0  0  0  0  0  0  0
  151.0644  142.5497  156.5316 C   0  0  0  0  0  0  0  0  0  0  0  0
  151.2891  142.5435  158.0574 C   0  0  1  0  0  0  0  0  0  0  0  0
  152.4821  141.6561  158.4810 C   0  0  0  0  0  0  0  0  0  0  0  0
  153.3591  142.6158  159.3057 C   0  0  2  0  0  0  0  0  0  0  0  0
  152.6543  142.9436  160.6348 C   0  0  0  0  0  0  0  0  0  0  0  0
  151.5013  143.8621  160.1879 C   0  0  0  0  0  0  0  0  0  0  0  0
  151.6817  143.9153  158.6587 C   0  0  1  0  0  0  0  0  0  0  0  0
  153.2023  143.9192  158.5337 C   0  0  0  0  0  0  0  0  0  0  0  0
  151.2507  140.4936  155.0706 N   0  0  0  0  0  0  0  0  0  0  0  0
  149.0884  134.0663  154.7223 H   0  0  0  0  0  0  0  0  0  0  0  0
  149.7868  134.7073  156.2126 H   0  0  0  0  0  0  0  0  0  0  0  0
  150.8431  134.0996  154.9264 H   0  0  0  0  0  0  0  0  0  0  0  0
  149.2543  136.1700  153.8276 H   0  0  0  0  0  0  0  0  0  0  0  0
  151.5982  138.4295  153.5163 H   0  0  0  0  0  0  0  0  0  0  0  0
  149.8704  138.1713  153.3782 H   0  0  0  0  0  0  0  0  0  0  0  0
  151.9904  142.8292  156.0277 H   0  0  0  0  0  0  0  0  0  0  0  0
  150.3260  143.3014  156.2514 H   0  0  0  0  0  0  0  0  0  0  0  0
  150.3766  142.1770  158.5305 H   0  0  0  0  0  0  0  0  0  0  0  0
  152.1670  140.7857  159.0577 H   0  0  0  0  0  0  0  0  0  0  0  0
  153.0350  141.2926  157.6135 H   0  0  0  0  0  0  0  0  0  0  0  0
  154.3868  142.2729  159.4275 H   0  0  0  0  0  0  0  0  0  0  0  0
  152.3003  142.0475  161.1460 H   0  0  0  0  0  0  0  0  0  0  0  0
  153.3258  143.4729  161.3120 H   0  0  0  0  0  0  0  0  0  0  0  0
  150.5234  143.4784  160.4810 H   0  0  0  0  0  0  0  0  0  0  0  0
  151.6127  144.8552  160.6252 H   0  0  0  0  0  0  0  0  0  0  0  0
  151.1813  144.7693  158.2027 H   0  0  0  0  0  0  0  0  0  0  0  0
  153.6752  144.7720  159.0241 H   0  0  0  0  0  0  0  0  0  0  0  0
  153.5582  143.8587  157.5041 H   0  0  0  0  0  0  0  0  0  0  0  0
  1  2  1  0  0  0  0
  1 19  1  0  0  0  0
  1 20  1  0  0  0  0
  1 21  1  0  0  0  0
  2  3  1  0  0  0  0
  2 22  1  0  0  0  0
  3  4  2  0  0  0  0
  3  5  1  0  0  0  0
  5  6  1  0  0  0  0
  5 23  1  0  0  0  0
  5 24  1  0  0  0  0
  6 18  1  0  0  0  0
  6  7  2  0  0  0  0
  7  8  1  0  0  0  0
  8  9  1  0  0  0  0
  9 10  1  0  0  0  0
  9 18  2  0  0  0  0
 10 11  1  0  0  0  0
 10 25  1  0  0  0  0
 10 26  1  0  0  0  0
 11 16  1  0  0  0  0
 11 12  1  0  0  0  0
 11 27  1  0  0  0  0
 12 13  1  0  0  0  0
 12 28  1  0  0  0  0
 12 29  1  0  0  0  0
 13 17  1  0  0  0  0
 13 14  1  0  0  0  0
 13 30  1  0  0  0  0
 14 15  1  0  0  0  0
 14 31  1  0  0  0  0
 14 32  1  0  0  0  0
 15 16  1  0  0  0  0
 15 33  1  0  0  0  0
 15 34  1  0  0  0  0
 16 17  1  0  0  0  0
 16 35  1  0  0  0  0
 17 36  1  0  0  0  0
 17 37  1  0  0  0  0
M  END
> <s_m_source_file>
AV-unprocessed.smi

> <i_m_source_file_index>
3238

> <i_lp_mmshare_version>
43012

> <i_f3d_flags>
0

> <s_epik_input>
W0NIM11bTkhdQyg9TylbQ0gyXWMxbm9jKG4xKVtDSDJdW0NASF0oW0NIMl1bQ0BIXTIzKVtDQEhdKFtDSDJdMylbQ0gyXVtDSDJdMg==

> <s_epik_cmdline>
J2VwaWtfcHl0aG9uJywgJy1waCcsICc3LjAnLCAnLXRuJywgJzgnLCAnLW1hJywgJzIwMCcsICctbWV0YWxfYmluZGluZycsICctaW1hZScsICc8aW5maWxlLm1hZT4nLCAnLW9tYWUnLCAnPG91dGZpbGUubWFlPic=

> <r_lp_tautomer_probability>
1

> <r_epik_Ionization_Penalty>
1.02915e-07

> <r_epik_Ionization_Penalty_Charging>
0

> <r_epik_Ionization_Penalty_Neutral>
1.02915e-07

> <r_epik_State_Penalty>
-0

> <r_epik_Charging_Adjusted_Penalty>
0

> <i_epik_Tot_Q>
0

> <i_epik_Tot_abs_Q>
0

> <r_epik_Metal_State_Penalty>
-0

> <b_epik_Metal_Only>
0

> <s_lp_Force_Field>
OPLS_2005

> <r_lp_Energy>
47.9986

> <b_lp_Chiralities_Consistent>
1

> <s_lp_Variant>
AV-unprocessed.smi:3238-2

> <Gold.Version>
5.8.1

> <Gold.Id.Protein>
6NUR|6NUR_protein|mol2

> <Gold.PLP.Fitness>
47.8771

> <Gold.PLP.PLP>
-39.0800

> <Gold.PLP.part.hbond>
-3.3950

> <Gold.PLP.part.metal>
0.0000

> <Gold.PLP.part.buried>
-4.0776

> <Gold.PLP.part.nonpolar>
-31.4966

> <Gold.PLP.part.repulsive>
0.1950

> <Gold.PLP.ligand.clash>
0.0000

> <Gold.PLP.ligand.torsion>
0.0249

> <Gold.PLP.Chemscore.Hbond>
2.9440

> <Gold.PLP.Chemscore.CHOScore>
0.0000

> <Gold.PLP.Chemscore.Metal>
0.0000

> <Gold.Chemscore.Hbonds>
donor molecule, donor type, donor heavy atom, donor atom, acceptor molecule, acceptor atom, score
      L1  H     2    22       P1  7948  0.83
      P1  H  7989  7998       L1    18  0.96
      P1  H 10752 10764       L1     4  1.00

> <Gold.PLP.Chemscore.Internal.Correction>
0.0150

> <Gold.Rescore>
     Score         DG    S(hbond)    S(metal)    S(lipo)     H(rot)  DE(clash)    DE(int)     intcor
     20.34     -20.42       2.47        0.00      97.82       1.85       0.04       0.04       ----

> <Gold.Chemscore.Fitness>
20.3445

> <Gold.Chemscore.DG>
-20.4245

> <Gold.Chemscore.ZeroCoef>
-5.4800

> <Gold.Chemscore.Hbond>
2.4653

> <Gold.Chemscore.Metal>
0.0000

> <Gold.Chemscore.Lipo>
97.8156

> <Gold.Chemscore.Internal_Hbond>
0.0000

> <Gold.Chemscore.DEClash>
0.0397

> <Gold.Chemscore.DEInternal>
0.0403

> <Gold.Chemscore.Rot>
1.8492

> <Gold.Chemscore.Internal.Correction>
   9.000000E+99

> <Gold.Chemscore.Hbonds>
donor molecule, donor type, donor heavy atom, donor atom, acceptor molecule, acceptor atom, score
      L1  H     2    22       P1  7948  0.71
      P1  H  7989  7998       L1    18  0.55
      P1  H 10752 10764       L1     4  0.74

> <Gold.Chemscore.Hbond.Weighted>
-8.2340

> <Gold.Chemscore.Metal.Weighted>
-0.0000

> <Gold.Chemscore.Lipo.Weighted>
-11.4444

> <Gold.Chemscore.Internal_Hbond.Weighted>
0.0000

> <Gold.Chemscore.DEClash.Weighted>
0.0397

> <Gold.Chemscore.DEInternal.Weighted>
0.0403

> <Gold.Chemscore.Rot.Weighted>
4.7340

> <Gold.Chemscore.Internal.Correction.Weighted>
   9.000000E+99

> <Gold.Protein.RotatedTorsions>
[ 6907 6896 6895 6894 ] final   46.18 input  -60.11 | X-H torsion
[ 7974 7965 7964 7962 ] final -116.04 input  175.53 | X-H torsion
[ 8008 7997 7996 7995 ] final    9.53 input   59.86 | X-H torsion
[ 10167 10162 10161 10158 ] final   24.35 input  -65.29 | X-H torsion
[ 10718 10713 10712 10709 ] final -131.95 input   66.30 | X-H torsion
[ 10763 10752 10751 10750 ] final  -31.57 input  -60.55 | X-H torsion
[ 11005 11000 10999 10996 ] final  -42.96 input  -57.11 | X-H torsion

> <Gold.Protein.ActiveResidues>
 VAL166  LYS551  ARG553  GLY616  TRP617  ASP618  TYR619  PRO620  LYS621  CYS622 
 ASP623  PHE694  ASN695  SER759  ASP760  ASP761  ALA762  ILE779  LEU786  VAL792 
 PHE793  MET794  SER795  GLU796  ALA797  LYS798  CYS799  TRP800  GLU811  SER814 

> <Gold.Protein.RotatedAtoms>
  152.2533  134.8110  160.0442 H   0  0  0  0  0  0  0  0  0  0  0  0  # atno 6907 bound_to 6896
  151.8782  133.3484  159.3765 H   0  0  0  0  0  0  0  0  0  0  0  0  # atno 6908 bound_to 6896
  150.7091  134.4972  159.5588 H   0  0  0  0  0  0  0  0  0  0  0  0  # atno 6909 bound_to 6896
  145.1014  140.8554  143.3924 H   0  0  0  0  0  0  0  0  0  0  0  0  # atno 7974 bound_to 7965
  154.7813  140.2819  155.6061 H   0  0  0  0  0  0  0  0  0  0  0  0  # atno 8008 bound_to 7997
  156.2950  140.2622  156.2567 H   0  0  0  0  0  0  0  0  0  0  0  0  # atno 8009 bound_to 7997
  154.9781  140.0375  157.2254 H   0  0  0  0  0  0  0  0  0  0  0  0  # atno 8010 bound_to 7997
  140.5195  144.0026  150.6410 H   0  0  0  0  0  0  0  0  0  0  0  0  # atno 10167 bound_to 10162
  156.2296  130.7029  151.0844 H   0  0  0  0  0  0  0  0  0  0  0  0  # atno 10718 bound_to 10713
  153.7995  135.6891  153.4858 H   0  0  0  0  0  0  0  0  0  0  0  0  # atno 10763 bound_to 10752
  153.1697  135.4547  154.9884 H   0  0  0  0  0  0  0  0  0  0  0  0  # atno 10764 bound_to 10752
  154.8012  135.3338  154.7485 H   0  0  0  0  0  0  0  0  0  0  0  0  # atno 10765 bound_to 10752
  141.0351  133.6803  156.2666 H   0  0  0  0  0  0  0  0  0  0  0  0  # atno 11005 bound_to 11000
  145.0952  139.2862  143.5715 LP  0  0  0  0  0  0  0  0  0  0  0  0  # atno 17320 bound_to 7965
  146.3529  140.0501  142.8636 LP  0  0  0  0  0  0  0  0  0  0  0  0  # atno 17321 bound_to 7965
  140.3371  143.3042  152.0627 LP  0  0  0  0  0  0  0  0  0  0  0  0  # atno 17342 bound_to 10162
  139.4919  144.6469  151.6760 LP  0  0  0  0  0  0  0  0  0  0  0  0  # atno 17343 bound_to 10162
  157.7127  131.0726  150.6443 LP  0  0  0  0  0  0  0  0  0  0  0  0  # atno 17370 bound_to 10713
  156.6509  130.4485  149.5719 LP  0  0  0  0  0  0  0  0  0  0  0  0  # atno 17371 bound_to 10713
  140.6337  134.5238  157.5562 LP  0  0  0  0  0  0  0  0  0  0  0  0  # atno 17394 bound_to 11000
  139.9235  134.8102  156.1139 LP  0  0  0  0  0  0  0  0  0  0  0  0  # atno 17395 bound_to 11000

$$$$
