AV-unprocessed.smi:1005|AV-procd|sdf|4369|dock2
  -GOLD-   22720 2273D 1   1.00000     0.00000
 Structure written by MMmdl.
 57 59  0  0  0  0  0  0  0  0  3 V2000
  152.8151  143.3642  161.2248 C   0  0  0  0  0  0  0  0  0  0  0  0
  152.2295  142.8676  159.9147 C   0  0  0  0  0  0  0  0  0  0  0  0
  152.7275  141.6724  159.3489 C   0  0  0  0  0  0  0  0  0  0  0  0
  152.2108  141.1772  158.1319 C   0  0  0  0  0  0  0  0  0  0  0  0
  152.5410  140.0427  157.4104 N   0  0  0  0  0  0  0  0  0  0  0  0
  151.7127  140.1328  156.3745 C   0  0  0  0  0  0  0  0  0  0  0  0
  150.8810  141.1917  156.3401 N   0  0  0  0  0  0  0  0  0  0  0  0
  149.8965  141.4944  155.3167 C   0  0  0  0  0  0  0  0  0  0  0  0
  149.3171  140.2243  154.6652 C   0  0  1  0  0  0  0  0  0  0  0  0
  150.2744  139.6702  153.7832 O   0  0  0  0  0  0  0  0  0  0  0  0
  148.9474  139.1601  155.7170 C   0  0  0  0  0  0  0  0  0  0  0  0
  147.5415  138.6924  155.5801 N   0  3  2  0  0  0  0  0  0  0  0  0
  146.7846  138.6166  156.8554 C   0  0  0  0  0  0  0  0  0  0  0  0
  147.1483  137.3498  157.6530 C   0  0  0  0  0  0  0  0  0  0  0  0
  146.9588  136.1976  156.8403 O   0  0  0  0  0  0  0  0  0  0  0  0
  147.7827  136.2025  155.6784 C   0  0  1  0  0  0  0  0  0  0  0  0
  147.5412  134.8829  154.9206 C   0  0  0  0  0  0  0  0  0  0  0  0
  148.7003  134.4702  154.0873 N   0  3  0  0  0  0  0  0  0  0  0  0
  148.4231  133.2935  153.2309 C   0  0  0  0  0  0  0  0  0  0  0  0
  149.9230  134.2727  154.8976 C   0  0  0  0  0  0  0  0  0  0  0  0
  147.4024  137.4269  154.8181 C   0  0  0  0  0  0  0  0  0  0  0  0
  151.1756  141.9174  157.4896 C   0  0  0  0  0  0  0  0  0  0  0  0
  150.6717  143.1078  158.0426 C   0  0  0  0  0  0  0  0  0  0  0  0
  151.1977  143.5874  159.2604 C   0  0  0  0  0  0  0  0  0  0  0  0
  150.6448  144.8722  159.8513 C   0  0  0  0  0  0  0  0  0  0  0  0
  153.5684  142.6768  161.6105 H   0  0  0  0  0  0  0  0  0  0  0  0
  152.0357  143.4624  161.9806 H   0  0  0  0  0  0  0  0  0  0  0  0
  153.2885  144.3365  161.0860 H   0  0  0  0  0  0  0  0  0  0  0  0
  153.5131  141.1236  159.8474 H   0  0  0  0  0  0  0  0  0  0  0  0
  151.7079  139.3837  155.5959 H   0  0  0  0  0  0  0  0  0  0  0  0
  149.1034  142.0975  155.7607 H   0  0  0  0  0  0  0  0  0  0  0  0
  150.3753  142.1192  154.5615 H   0  0  0  0  0  0  0  0  0  0  0  0
  148.4404  140.5050  154.0818 H   0  0  0  0  0  0  0  0  0  0  0  0
  149.8703  139.5498  152.9365 H   0  0  0  0  0  0  0  0  0  0  0  0
  149.6293  138.3157  155.6033 H   0  0  0  0  0  0  0  0  0  0  0  0
  149.1156  139.5465  156.7223 H   0  0  0  0  0  0  0  0  0  0  0  0
  146.9382  139.5082  157.4622 H   0  0  0  0  0  0  0  0  0  0  0  0
  145.7206  138.5930  156.6155 H   0  0  0  0  0  0  0  0  0  0  0  0
  148.1751  137.3875  158.0184 H   0  0  0  0  0  0  0  0  0  0  0  0
  146.5077  137.2668  158.5312 H   0  0  0  0  0  0  0  0  0  0  0  0
  148.8305  136.2797  155.9687 H   0  0  0  0  0  0  0  0  0  0  0  0
  147.3284  134.1035  155.6540 H   0  0  0  0  0  0  0  0  0  0  0  0
  146.6541  134.9599  154.2901 H   0  0  0  0  0  0  0  0  0  0  0  0
  148.1655  132.4220  153.8341 H   0  0  0  0  0  0  0  0  0  0  0  0
  149.2991  133.0415  152.6319 H   0  0  0  0  0  0  0  0  0  0  0  0
  147.6049  133.4841  152.5377 H   0  0  0  0  0  0  0  0  0  0  0  0
  149.7883  133.4652  155.6189 H   0  0  0  0  0  0  0  0  0  0  0  0
  150.1783  135.1812  155.4437 H   0  0  0  0  0  0  0  0  0  0  0  0
  150.7731  134.0238  154.2614 H   0  0  0  0  0  0  0  0  0  0  0  0
  146.3637  137.3377  154.4966 H   0  0  0  0  0  0  0  0  0  0  0  0
  147.9995  137.4646  153.9059 H   0  0  0  0  0  0  0  0  0  0  0  0
  149.8851  143.6463  157.5354 H   0  0  0  0  0  0  0  0  0  0  0  0
  149.8733  145.3043  159.2133 H   0  0  0  0  0  0  0  0  0  0  0  0
  151.4368  145.6126  159.9667 H   0  0  0  0  0  0  0  0  0  0  0  0
  150.2021  144.6823  160.8294 H   0  0  0  0  0  0  0  0  0  0  0  0
  148.9019  135.2437  153.4691 H   0  0  0  0  0  0  0  0  0  0  0  0
  147.0924  139.4024  155.0179 H   0  0  0  0  0  0  0  0  0  0  0  0
  1  2  1  0  0  0  0
  1 26  1  0  0  0  0
  1 27  1  0  0  0  0
  1 28  1  0  0  0  0
  2 24  1  0  0  0  0
  2  3  2  0  0  0  0
  3  4  1  0  0  0  0
  3 29  1  0  0  0  0
  4 22  2  0  0  0  0
  4  5  1  0  0  0  0
  5  6  2  0  0  0  0
  6  7  1  0  0  0  0
  6 30  1  0  0  0  0
  7  8  1  0  0  0  0
  7 22  1  0  0  0  0
  8  9  1  0  0  0  0
  8 31  1  0  0  0  0
  8 32  1  0  0  0  0
  9 10  1  0  0  0  0
  9 11  1  0  0  0  0
  9 33  1  0  0  0  0
 10 34  1  0  0  0  0
 11 12  1  0  0  0  0
 11 35  1  0  0  0  0
 11 36  1  0  0  0  0
 12 21  1  0  0  0  0
 12 13  1  0  0  0  0
 12 57  1  0  0  0  0
 13 14  1  0  0  0  0
 13 37  1  0  0  0  0
 13 38  1  0  0  0  0
 14 15  1  0  0  0  0
 14 39  1  0  0  0  0
 14 40  1  0  0  0  0
 15 16  1  0  0  0  0
 16 17  1  0  0  0  0
 16 21  1  0  0  0  0
 16 41  1  0  0  0  0
 17 18  1  0  0  0  0
 17 42  1  0  0  0  0
 17 43  1  0  0  0  0
 18 19  1  0  0  0  0
 18 20  1  0  0  0  0
 18 56  1  0  0  0  0
 19 44  1  0  0  0  0
 19 45  1  0  0  0  0
 19 46  1  0  0  0  0
 20 47  1  0  0  0  0
 20 48  1  0  0  0  0
 20 49  1  0  0  0  0
 21 50  1  0  0  0  0
 21 51  1  0  0  0  0
 22 23  1  0  0  0  0
 23 24  2  0  0  0  0
 23 52  1  0  0  0  0
 24 25  1  0  0  0  0
 25 53  1  0  0  0  0
 25 54  1  0  0  0  0
 25 55  1  0  0  0  0
M  CHG  1  12   1
M  CHG  1  18   1
M  END
> <s_m_source_file>
AV-unprocessed.smi

> <i_m_source_file_index>
1005

> <i_lp_mmshare_version>
43012

> <i_f3d_flags>
0

> <s_epik_input>
W0NIM11jKFtjSF0xKWMoW0NIM10pW2NIXWMoYzEyKW4oW2NIXW4yKVtDSDJdW0NASF0oW09IXSlbQ0gyXU4zW0NIMl1bQ0gyXU9bQ0BIXShbQ0gyXTMpW0NIMl1OKFtDSDNdKVtDSDNd

> <s_epik_cmdline>
J2VwaWtfcHl0aG9uJywgJy1waCcsICc3LjAnLCAnLXRuJywgJzgnLCAnLW1hJywgJzIwMCcsICctbWV0YWxfYmluZGluZycsICctaW1hZScsICc8aW5maWxlLm1hZT4nLCAnLW9tYWUnLCAnPG91dGZpbGUubWFlPic=

> <r_epik_Ionization_Penalty>
1.0968

> <r_epik_Ionization_Penalty_Charging>
1.0096

> <r_epik_Ionization_Penalty_Neutral>
0.0871956

> <r_epik_State_Penalty>
1.31185

> <r_epik_Charging_Adjusted_Penalty>
2.32145

> <i_epik_Tot_Q>
2

> <i_epik_Tot_abs_Q>
2

> <r_epik_Metal_State_Penalty>
1.22442

> <b_epik_Metal_Only>
0

> <s_lp_Force_Field>
OPLS_2005

> <r_lp_Energy>
34.9346

> <b_lp_Chiralities_Consistent>
1

> <s_lp_Variant>
AV-unprocessed.smi:1005-8

> <Gold.Version>
5.8.1

> <Gold.Id.Protein>
6NUR|6NUR_protein|mol2

> <Gold.PLP.Fitness>
53.1885

> <Gold.PLP.PLP>
-42.2986

> <Gold.PLP.part.hbond>
-4.0000

> <Gold.PLP.part.metal>
0.0000

> <Gold.PLP.part.buried>
-4.7583

> <Gold.PLP.part.nonpolar>
-33.5048

> <Gold.PLP.part.repulsive>
0.0000

> <Gold.PLP.ligand.clash>
0.0126

> <Gold.PLP.ligand.torsion>
2.1069

> <Gold.PLP.Chemscore.Hbond>
4.9440

> <Gold.PLP.Chemscore.CHOScore>
0.0000

> <Gold.PLP.Chemscore.Metal>
0.0000

> <Gold.Chemscore.Hbonds>
donor molecule, donor type, donor heavy atom, donor atom, acceptor molecule, acceptor atom, score
      L1  H    10    34       P1  7957  1.00
      L1  H    18    56       P1  7948  2.00
      P1  H  7989  7998       L1    10  0.94
      P1  H  7997  8008       L1     5  1.00

> <Gold.PLP.Chemscore.Internal.Correction>
0.2843

> <Gold.Rescore>
     Score         DG    S(hbond)    S(metal)    S(lipo)     H(rot)  DE(clash)    DE(int)     intcor
     18.98     -22.37       3.26        0.00     105.46       2.48       0.07       3.32       ----

> <Gold.Chemscore.Fitness>
18.9818

> <Gold.Chemscore.DG>
-22.3714

> <Gold.Chemscore.ZeroCoef>
-5.4800

> <Gold.Chemscore.Hbond>
3.2649

> <Gold.Chemscore.Metal>
0.0000

> <Gold.Chemscore.Lipo>
105.4605

> <Gold.Chemscore.Internal_Hbond>
0.0000

> <Gold.Chemscore.DEClash>
0.0718

> <Gold.Chemscore.DEInternal>
3.3177

> <Gold.Chemscore.Rot>
2.4814

> <Gold.Chemscore.Internal.Correction>
   9.000000E+99

> <Gold.Chemscore.Hbonds>
donor molecule, donor type, donor heavy atom, donor atom, acceptor molecule, acceptor atom, score
      L1  H    10    34       P1  7957  0.96
      L1  H    18    56       P1  7948  0.65
      P1  H  7989  7998       L1    10  0.32
      P1  H  7997  8008       L1     5  0.49

> <Gold.Chemscore.Hbond.Weighted>
-10.9048

> <Gold.Chemscore.Metal.Weighted>
-0.0000

> <Gold.Chemscore.Lipo.Weighted>
-12.3389

> <Gold.Chemscore.Internal_Hbond.Weighted>
0.0000

> <Gold.Chemscore.DEClash.Weighted>
0.0718

> <Gold.Chemscore.DEInternal.Weighted>
3.3177

> <Gold.Chemscore.Rot.Weighted>
6.3524

> <Gold.Chemscore.Internal.Correction.Weighted>
   9.000000E+99

> <Gold.Protein.RotatedTorsions>
[ 6907 6896 6895 6894 ] final -173.18 input  -60.11 | X-H torsion
[ 7974 7965 7964 7962 ] final  -51.95 input  175.53 | X-H torsion
[ 8008 7997 7996 7995 ] final  -62.30 input   59.86 | X-H torsion
[ 10167 10162 10161 10158 ] final  -78.14 input  -65.29 | X-H torsion
[ 10718 10713 10712 10709 ] final  163.07 input   66.30 | X-H torsion
[ 10763 10752 10751 10750 ] final -161.29 input  -60.55 | X-H torsion
[ 11005 11000 10999 10996 ] final   37.16 input  -57.11 | X-H torsion

> <Gold.Protein.ActiveResidues>
 VAL166  LYS551  ARG553  GLY616  TRP617  ASP618  TYR619  PRO620  LYS621  CYS622 
 ASP623  PHE694  ASN695  SER759  ASP760  ASP761  ALA762  ILE779  LEU786  VAL792 
 PHE793  MET794  SER795  GLU796  ALA797  LYS798  CYS799  TRP800  GLU811  SER814 

> <Gold.Protein.RotatedAtoms>
  151.5521  133.3416  159.2954 H   0  0  0  0  0  0  0  0  0  0  0  0  # atno 6907 bound_to 6896
  150.8473  134.7788  159.6991 H   0  0  0  0  0  0  0  0  0  0  0  0  # atno 6908 bound_to 6896
  152.4527  134.5366  159.9878 H   0  0  0  0  0  0  0  0  0  0  0  0  # atno 6909 bound_to 6896
  145.9133  140.7896  142.9684 H   0  0  0  0  0  0  0  0  0  0  0  0  # atno 7974 bound_to 7965
  154.4492  140.0999  156.6566 H   0  0  0  0  0  0  0  0  0  0  0  0  # atno 8008 bound_to 7997
  155.5340  140.3482  155.4414 H   0  0  0  0  0  0  0  0  0  0  0  0  # atno 8009 bound_to 7997
  156.0644  140.1334  156.9892 H   0  0  0  0  0  0  0  0  0  0  0  0  # atno 8010 bound_to 7997
  140.4708  143.2427  151.8208 H   0  0  0  0  0  0  0  0  0  0  0  0  # atno 10167 bound_to 10162
  157.1137  131.0474  151.2446 H   0  0  0  0  0  0  0  0  0  0  0  0  # atno 10718 bound_to 10713
  154.7316  135.3048  154.8882 H   0  0  0  0  0  0  0  0  0  0  0  0  # atno 10763 bound_to 10752
  153.9723  135.6740  153.4751 H   0  0  0  0  0  0  0  0  0  0  0  0  # atno 10764 bound_to 10752
  153.0924  135.4953  154.8635 H   0  0  0  0  0  0  0  0  0  0  0  0  # atno 10765 bound_to 10752
  140.2253  134.3591  155.7987 H   0  0  0  0  0  0  0  0  0  0  0  0  # atno 11005 bound_to 11000
  144.6745  140.1860  143.7401 LP  0  0  0  0  0  0  0  0  0  0  0  0  # atno 17320 bound_to 7965
  145.8644  139.2239  143.1698 LP  0  0  0  0  0  0  0  0  0  0  0  0  # atno 17321 bound_to 7965
  139.4818  144.4894  151.9205 LP  0  0  0  0  0  0  0  0  0  0  0  0  # atno 17342 bound_to 10162
  140.3979  144.2531  150.5895 LP  0  0  0  0  0  0  0  0  0  0  0  0  # atno 17343 bound_to 10162
  157.4537  130.7613  149.7174 LP  0  0  0  0  0  0  0  0  0  0  0  0  # atno 17370 bound_to 10713
  155.9844  130.3991  150.3311 LP  0  0  0  0  0  0  0  0  0  0  0  0  # atno 17371 bound_to 10713
  141.2221  133.7216  156.8644 LP  0  0  0  0  0  0  0  0  0  0  0  0  # atno 17394 bound_to 11000
  140.1806  134.9036  157.2944 LP  0  0  0  0  0  0  0  0  0  0  0  0  # atno 17395 bound_to 11000

$$$$
