AV-unprocessed.smi:1047|AV-procd|sdf|4599|dock9
  -GOLD-   22720 3 93D 1   1.00000     0.00000
 Structure written by MMmdl.
 57 59  0  0  0  0  0  0  0  0  3 V2000
  145.7811  132.1581  150.9226 C   0  0  0  0  0  0  0  0  0  0  0  0
  146.1856  133.1361  152.0348 C   0  0  0  0  0  0  0  0  0  0  0  0
  147.5143  132.8228  152.6180 N   0  3  2  0  0  0  0  0  0  0  0  0
  147.5935  131.4738  153.2304 C   0  0  0  0  0  0  0  0  0  0  0  0
  149.0030  131.2212  153.7905 C   0  0  0  0  0  0  0  0  0  0  0  0
  149.3380  132.2430  154.7210 O   0  0  0  0  0  0  0  0  0  0  0  0
  149.3688  133.5330  154.1186 C   0  0  2  0  0  0  0  0  0  0  0  0
  149.8141  134.5488  155.1812 C   0  0  0  0  0  0  0  0  0  0  0  0
  149.6677  135.9192  154.7013 N   0  0  0  0  0  0  0  0  0  0  0  0
  150.7574  136.7936  155.1259 C   0  0  0  0  0  0  0  0  0  0  0  0
  150.3237  138.2687  155.1619 C   0  0  2  0  0  0  0  0  0  0  0  0
  149.9088  138.6230  153.8584 O   0  0  0  0  0  0  0  0  0  0  0  0
  151.4588  139.2109  155.6152 C   0  0  0  0  0  0  0  0  0  0  0  0
  150.9886  140.5680  155.9324 N   0  0  0  0  0  0  0  0  0  0  0  0
  150.0759  141.3430  155.2859 C   0  0  0  0  0  0  0  0  0  0  0  0
  149.9723  142.5150  155.9716 N   0  3  0  0  0  0  0  0  0  0  0  0
  150.8309  142.4888  157.0725 C   0  0  0  0  0  0  0  0  0  0  0  0
  151.0747  143.4374  158.0587 C   0  0  0  0  0  0  0  0  0  0  0  0
  152.0228  143.1059  159.0527 C   0  0  0  0  0  0  0  0  0  0  0  0
  152.3117  144.1201  160.1466 C   0  0  0  0  0  0  0  0  0  0  0  0
  152.6931  141.8555  159.0334 C   0  0  0  0  0  0  0  0  0  0  0  0
  153.7147  141.5112  160.1041 C   0  0  0  0  0  0  0  0  0  0  0  0
  152.4296  140.9033  158.0227 C   0  0  0  0  0  0  0  0  0  0  0  0
  151.4896  141.2437  157.0523 C   0  0  0  0  0  0  0  0  0  0  0  0
  147.9589  133.8545  153.5854 C   0  0  0  0  0  0  0  0  0  0  0  0
  144.8503  132.4781  150.4533 H   0  0  0  0  0  0  0  0  0  0  0  0
  145.6181  131.1503  151.3038 H   0  0  0  0  0  0  0  0  0  0  0  0
  146.5423  132.1070  150.1438 H   0  0  0  0  0  0  0  0  0  0  0  0
  146.2155  134.1376  151.6036 H   0  0  0  0  0  0  0  0  0  0  0  0
  145.4284  133.1594  152.8195 H   0  0  0  0  0  0  0  0  0  0  0  0
  146.8551  131.3889  154.0294 H   0  0  0  0  0  0  0  0  0  0  0  0
  147.3591  130.7052  152.4948 H   0  0  0  0  0  0  0  0  0  0  0  0
  149.0380  130.2569  154.2975 H   0  0  0  0  0  0  0  0  0  0  0  0
  149.7413  131.1856  152.9878 H   0  0  0  0  0  0  0  0  0  0  0  0
  150.0786  133.5403  153.2886 H   0  0  0  0  0  0  0  0  0  0  0  0
  149.2069  134.4194  156.0782 H   0  0  0  0  0  0  0  0  0  0  0  0
  150.8463  134.3525  155.4742 H   0  0  0  0  0  0  0  0  0  0  0  0
  149.6075  135.9196  153.6878 H   0  0  0  0  0  0  0  0  0  0  0  0
  151.1230  136.4916  156.1084 H   0  0  0  0  0  0  0  0  0  0  0  0
  151.5956  136.6830  154.4361 H   0  0  0  0  0  0  0  0  0  0  0  0
  149.4632  138.3831  155.8227 H   0  0  0  0  0  0  0  0  0  0  0  0
  150.2599  137.9905  153.2504 H   0  0  0  0  0  0  0  0  0  0  0  0
  151.9299  138.8197  156.5178 H   0  0  0  0  0  0  0  0  0  0  0  0
  152.2474  139.2675  154.8650 H   0  0  0  0  0  0  0  0  0  0  0  0
  149.5300  141.0757  154.3926 H   0  0  0  0  0  0  0  0  0  0  0  0
  150.5618  144.3882  158.0661 H   0  0  0  0  0  0  0  0  0  0  0  0
  152.0696  143.7063  161.1257 H   0  0  0  0  0  0  0  0  0  0  0  0
  151.7232  145.0285  160.0143 H   0  0  0  0  0  0  0  0  0  0  0  0
  153.3648  144.4022  160.1400 H   0  0  0  0  0  0  0  0  0  0  0  0
  154.1367  140.5176  159.9495 H   0  0  0  0  0  0  0  0  0  0  0  0
  153.2535  141.5265  161.0918 H   0  0  0  0  0  0  0  0  0  0  0  0
  154.5368  142.2268  160.0938 H   0  0  0  0  0  0  0  0  0  0  0  0
  152.9446  139.9542  158.0082 H   0  0  0  0  0  0  0  0  0  0  0  0
  147.9656  134.8314  153.1001 H   0  0  0  0  0  0  0  0  0  0  0  0
  147.2463  133.9116  154.4103 H   0  0  0  0  0  0  0  0  0  0  0  0
  148.1781  132.8429  151.8570 H   0  0  0  0  0  0  0  0  0  0  0  0
  149.3581  143.2745  155.7065 H   0  0  0  0  0  0  0  0  0  0  0  0
  1  2  1  0  0  0  0
  1 26  1  0  0  0  0
  1 27  1  0  0  0  0
  1 28  1  0  0  0  0
  2  3  1  0  0  0  0
  2 29  1  0  0  0  0
  2 30  1  0  0  0  0
  3 25  1  0  0  0  0
  3  4  1  0  0  0  0
  3 56  1  0  0  0  0
  4  5  1  0  0  0  0
  4 31  1  0  0  0  0
  4 32  1  0  0  0  0
  5  6  1  0  0  0  0
  5 33  1  0  0  0  0
  5 34  1  0  0  0  0
  6  7  1  0  0  0  0
  7  8  1  0  0  0  0
  7 25  1  0  0  0  0
  7 35  1  0  0  0  0
  8  9  1  0  0  0  0
  8 36  1  0  0  0  0
  8 37  1  0  0  0  0
  9 10  1  0  0  0  0
  9 38  1  0  0  0  0
 10 11  1  0  0  0  0
 10 39  1  0  0  0  0
 10 40  1  0  0  0  0
 11 12  1  0  0  0  0
 11 13  1  0  0  0  0
 11 41  1  0  0  0  0
 12 42  1  0  0  0  0
 13 14  1  0  0  0  0
 13 43  1  0  0  0  0
 13 44  1  0  0  0  0
 14 24  1  0  0  0  0
 14 15  1  0  0  0  0
 15 16  2  0  0  0  0
 15 45  1  0  0  0  0
 16 17  1  0  0  0  0
 16 57  1  0  0  0  0
 17 24  2  0  0  0  0
 17 18  1  0  0  0  0
 18 19  2  0  0  0  0
 18 46  1  0  0  0  0
 19 20  1  0  0  0  0
 19 21  1  0  0  0  0
 20 47  1  0  0  0  0
 20 48  1  0  0  0  0
 20 49  1  0  0  0  0
 21 22  1  0  0  0  0
 21 23  2  0  0  0  0
 22 50  1  0  0  0  0
 22 51  1  0  0  0  0
 22 52  1  0  0  0  0
 23 24  1  0  0  0  0
 23 53  1  0  0  0  0
 25 54  1  0  0  0  0
 25 55  1  0  0  0  0
M  CHG  1   3   1
M  CHG  1  16   1
M  END
> <s_m_source_file>
AV-unprocessed.smi

> <i_m_source_file_index>
1047

> <i_lp_mmshare_version>
43012

> <i_f3d_flags>
0

> <s_epik_input>
W0NIM11bQ0gyXU4xW0NIMl1bQ0gyXU9bQ0BIXShbQ0gyXTEpW0NIMl1bTkhdW0NIMl1bQ0BIXShbT0hdKVtDSDJdbihbY0hdbjIpYyhjMjMpW2NIXWMoW0NIM10pYyhbY0hdMylbQ0gzXQ==

> <s_epik_cmdline>
J2VwaWtfcHl0aG9uJywgJy1waCcsICc3LjAnLCAnLXRuJywgJzgnLCAnLW1hJywgJzIwMCcsICctbWV0YWxfYmluZGluZycsICctaW1hZScsICc8aW5maWxlLm1hZT4nLCAnLW9tYWUnLCAnPG91dGZpbGUubWFlPic=

> <r_epik_Ionization_Penalty>
2.03028

> <r_epik_Ionization_Penalty_Charging>
1.21256

> <r_epik_Ionization_Penalty_Neutral>
0.817715

> <r_epik_State_Penalty>
2.54959

> <r_epik_Charging_Adjusted_Penalty>
3.76215

> <i_epik_Tot_Q>
2

> <i_epik_Tot_abs_Q>
2

> <r_epik_Metal_State_Penalty>
6.52811

> <b_epik_Metal_Only>
0

> <s_lp_Force_Field>
OPLS_2005

> <r_lp_Energy>
31.8247

> <b_lp_Chiralities_Consistent>
1

> <s_lp_Variant>
AV-unprocessed.smi:1047-40

> <Gold.Version>
5.8.1

> <Gold.Id.Protein>
6NUR|6NUR_protein|mol2

> <Gold.PLP.Fitness>
59.3704

> <Gold.PLP.PLP>
-51.8327

> <Gold.PLP.part.hbond>
-3.2482

> <Gold.PLP.part.metal>
0.0000

> <Gold.PLP.part.buried>
-5.3551

> <Gold.PLP.part.nonpolar>
-42.9654

> <Gold.PLP.part.repulsive>
0.1526

> <Gold.PLP.ligand.clash>
0.0000

> <Gold.PLP.ligand.torsion>
0.7877

> <Gold.PLP.Chemscore.Hbond>
3.0000

> <Gold.PLP.Chemscore.CHOScore>
0.0000

> <Gold.PLP.Chemscore.Metal>
0.0000

> <Gold.Chemscore.Hbonds>
donor molecule, donor type, donor heavy atom, donor atom, acceptor molecule, acceptor atom, score
      L1  H     9    38       P1  7948  1.00
      L1  H    16    57       P1  8028  1.95

> <Gold.PLP.Chemscore.Internal.Correction>
0.1130

> <Gold.Rescore>
     Score         DG    S(hbond)    S(metal)    S(lipo)     H(rot)  DE(clash)    DE(int)     intcor
     19.18     -20.08       1.95        0.00     128.41       2.71       0.22       0.68       ----

> <Gold.Chemscore.Fitness>
19.1778

> <Gold.Chemscore.DG>
-20.0759

> <Gold.Chemscore.ZeroCoef>
-5.4800

> <Gold.Chemscore.Hbond>
1.9481

> <Gold.Chemscore.Metal>
0.0000

> <Gold.Chemscore.Lipo>
128.4084

> <Gold.Chemscore.Internal_Hbond>
0.0000

> <Gold.Chemscore.DEClash>
0.2164

> <Gold.Chemscore.DEInternal>
0.6817

> <Gold.Chemscore.Rot>
2.7088

> <Gold.Chemscore.Internal.Correction>
   9.000000E+99

> <Gold.Chemscore.Hbonds>
donor molecule, donor type, donor heavy atom, donor atom, acceptor molecule, acceptor atom, score
      L1  H     9    38       P1  7948  0.30
      L1  H    16    57       P1  8028  0.90

> <Gold.Chemscore.Hbond.Weighted>
-6.5068

> <Gold.Chemscore.Metal.Weighted>
-0.0000

> <Gold.Chemscore.Lipo.Weighted>
-15.0238

> <Gold.Chemscore.Internal_Hbond.Weighted>
0.0000

> <Gold.Chemscore.DEClash.Weighted>
0.2164

> <Gold.Chemscore.DEInternal.Weighted>
0.6817

> <Gold.Chemscore.Rot.Weighted>
6.9346

> <Gold.Chemscore.Internal.Correction.Weighted>
   9.000000E+99

> <Gold.Protein.RotatedTorsions>
[ 6907 6896 6895 6894 ] final  -43.95 input  -60.11 | X-H torsion
[ 7974 7965 7964 7962 ] final -162.82 input  175.53 | X-H torsion
[ 8008 7997 7996 7995 ] final   82.69 input   59.86 | X-H torsion
[ 10167 10162 10161 10158 ] final -120.08 input  -65.29 | X-H torsion
[ 10718 10713 10712 10709 ] final  111.43 input   66.30 | X-H torsion
[ 10763 10752 10751 10750 ] final   41.01 input  -60.55 | X-H torsion
[ 11005 11000 10999 10996 ] final  -86.24 input  -57.11 | X-H torsion

> <Gold.Protein.ActiveResidues>
 VAL166  LYS551  ARG553  GLY616  TRP617  ASP618  TYR619  PRO620  LYS621  CYS622 
 ASP623  PHE694  ASN695  SER759  ASP760  ASP761  ALA762  ILE779  LEU786  VAL792 
 PHE793  MET794  SER795  GLU796  ALA797  LYS798  CYS799  TRP800  GLU811  SER814 

> <Gold.Protein.RotatedAtoms>
  150.9382  134.8793  159.7594 H   0  0  0  0  0  0  0  0  0  0  0  0  # atno 6907 bound_to 6896
  152.5068  134.3981  159.9417 H   0  0  0  0  0  0  0  0  0  0  0  0  # atno 6908 bound_to 6896
  151.4003  133.3720  159.2766 H   0  0  0  0  0  0  0  0  0  0  0  0  # atno 6909 bound_to 6896
  144.7345  140.3197  143.6173 H   0  0  0  0  0  0  0  0  0  0  0  0  # atno 7974 bound_to 7965
  155.9140  140.3425  155.6121 H   0  0  0  0  0  0  0  0  0  0  0  0  # atno 8008 bound_to 7997
  155.7353  140.0800  157.2289 H   0  0  0  0  0  0  0  0  0  0  0  0  # atno 8009 bound_to 7997
  154.4060  140.1580  156.2542 H   0  0  0  0  0  0  0  0  0  0  0  0  # atno 8010 bound_to 7997
  140.0397  143.5165  152.2136 H   0  0  0  0  0  0  0  0  0  0  0  0  # atno 10167 bound_to 10162
  157.6445  131.0950  150.6748 H   0  0  0  0  0  0  0  0  0  0  0  0  # atno 10718 bound_to 10713
  152.9920  135.6174  154.2718 H   0  0  0  0  0  0  0  0  0  0  0  0  # atno 10763 bound_to 10752
  154.2450  135.2787  155.2840 H   0  0  0  0  0  0  0  0  0  0  0  0  # atno 10764 bound_to 10752
  154.5337  135.5781  153.6838 H   0  0  0  0  0  0  0  0  0  0  0  0  # atno 10765 bound_to 10752
  141.1632  133.7443  156.9132 H   0  0  0  0  0  0  0  0  0  0  0  0  # atno 11005 bound_to 11000
  145.7581  139.1815  143.2283 LP  0  0  0  0  0  0  0  0  0  0  0  0  # atno 17320 bound_to 7965
  146.1008  140.7546  142.9550 LP  0  0  0  0  0  0  0  0  0  0  0  0  # atno 17321 bound_to 7965
  139.6022  144.7586  151.3146 LP  0  0  0  0  0  0  0  0  0  0  0  0  # atno 17342 bound_to 10162
  140.7265  143.6987  150.7862 LP  0  0  0  0  0  0  0  0  0  0  0  0  # atno 17343 bound_to 10162
  156.7067  130.4639  149.5558 LP  0  0  0  0  0  0  0  0  0  0  0  0  # atno 17370 bound_to 10713
  156.1758  130.6466  151.0892 LP  0  0  0  0  0  0  0  0  0  0  0  0  # atno 17371 bound_to 10713
  140.1503  134.9235  157.2583 LP  0  0  0  0  0  0  0  0  0  0  0  0  # atno 17394 bound_to 11000
  140.2731  134.3437  155.7367 LP  0  0  0  0  0  0  0  0  0  0  0  0  # atno 17395 bound_to 11000

$$$$
