AV-unprocessed.smi:1931|AV-procd|sdf|7812|dock3
  -GOLD-   22720 9553D 1   1.00000     0.00000
 Structure written by MMmdl.
 48 49  0  0  0  0  0  0  0  0  1 V2000
  155.6798  144.2036  168.8631 C   0  0  0  0  0  0  0  0  0  0  0  0
  156.7848  143.3170  168.8559 O   0  0  0  0  0  0  0  0  0  0  0  0
  156.5930  142.2009  169.7093 C   0  0  0  0  0  0  0  0  0  0  0  0
  155.2986  141.4844  169.3124 C   0  0  0  0  0  0  0  0  0  0  0  0
  155.6008  140.4529  168.3875 O   0  0  0  0  0  0  0  0  0  0  0  0
  156.3146  140.9265  167.2575 C   0  0  0  0  0  0  0  0  0  0  0  0
  155.3508  141.7022  166.3629 C   0  0  0  0  0  0  0  0  0  0  0  0
  154.6832  142.6163  166.8447 O   0  0  0  0  0  0  0  0  0  0  0  0
  155.3214  141.3185  165.0731 N   0  0  0  0  0  0  0  0  0  0  0  0
  154.5291  141.8180  164.0029 C   0  0  0  0  0  0  0  0  0  0  0  0
  153.8769  143.0747  163.9998 C   0  0  0  0  0  0  0  0  0  0  0  0
  153.1069  143.4399  162.8790 C   0  0  0  0  0  0  0  0  0  0  0  0
  153.0047  142.5356  161.7975 C   0  0  0  0  0  0  0  0  0  0  0  0
  152.2568  142.8401  160.6524 N   0  0  0  0  0  0  0  0  0  0  0  0
  152.6170  144.1070  160.0287 C   0  0  0  0  0  0  0  0  0  0  0  0
  151.6594  144.4331  158.8653 C   0  0  2  0  0  0  0  0  0  0  0  0
  150.2657  144.8954  159.3267 C   0  0  0  0  0  0  0  0  0  0  0  0
  151.5884  143.3251  157.9631 O   0  0  0  0  0  0  0  0  0  0  0  0
  151.2159  142.0836  158.5635 C   0  0  1  0  0  0  0  0  0  0  0  0
  151.2098  141.0104  157.4702 C   0  0  0  0  0  0  0  0  0  0  0  0
  152.2025  141.7447  159.6959 C   0  0  0  0  0  0  0  0  0  0  0  0
  153.6186  141.3331  161.7973 N   0  0  0  0  0  0  0  0  0  0  0  0
  154.3553  140.9894  162.8748 C   0  0  0  0  0  0  0  0  0  0  0  0
  155.8790  145.0415  168.1954 H   0  0  0  0  0  0  0  0  0  0  0  0
  155.5014  144.6039  169.8618 H   0  0  0  0  0  0  0  0  0  0  0  0
  154.7725  143.7065  168.5173 H   0  0  0  0  0  0  0  0  0  0  0  0
  157.4415  141.5167  169.6586 H   0  0  0  0  0  0  0  0  0  0  0  0
  156.5125  142.5488  170.7404 H   0  0  0  0  0  0  0  0  0  0  0  0
  154.8396  141.0421  170.1978 H   0  0  0  0  0  0  0  0  0  0  0  0
  154.5843  142.1949  168.8934 H   0  0  0  0  0  0  0  0  0  0  0  0
  157.1356  141.5770  167.5639 H   0  0  0  0  0  0  0  0  0  0  0  0
  156.7423  140.0913  166.7005 H   0  0  0  0  0  0  0  0  0  0  0  0
  155.9797  140.5962  164.8190 H   0  0  0  0  0  0  0  0  0  0  0  0
  153.9373  143.7604  164.8295 H   0  0  0  0  0  0  0  0  0  0  0  0
  152.6065  144.3969  162.8565 H   0  0  0  0  0  0  0  0  0  0  0  0
  152.6023  144.9074  160.7696 H   0  0  0  0  0  0  0  0  0  0  0  0
  153.6367  144.0446  159.6468 H   0  0  0  0  0  0  0  0  0  0  0  0
  152.0936  145.2581  158.3002 H   0  0  0  0  0  0  0  0  0  0  0  0
  150.3383  145.8133  159.9103 H   0  0  0  0  0  0  0  0  0  0  0  0
  149.7692  144.1544  159.9525 H   0  0  0  0  0  0  0  0  0  0  0  0
  149.6208  145.0984  158.4715 H   0  0  0  0  0  0  0  0  0  0  0  0
  150.2065  142.1598  158.9686 H   0  0  0  0  0  0  0  0  0  0  0  0
  150.9290  140.0385  157.8763 H   0  0  0  0  0  0  0  0  0  0  0  0
  152.1934  140.9095  157.0104 H   0  0  0  0  0  0  0  0  0  0  0  0
  150.4973  141.2602  156.6835 H   0  0  0  0  0  0  0  0  0  0  0  0
  153.1980  141.5684  159.2856 H   0  0  0  0  0  0  0  0  0  0  0  0
  151.8947  140.8283  160.2015 H   0  0  0  0  0  0  0  0  0  0  0  0
  154.8241  140.0169  162.8329 H   0  0  0  0  0  0  0  0  0  0  0  0
  1  2  1  0  0  0  0
  1 24  1  0  0  0  0
  1 25  1  0  0  0  0
  1 26  1  0  0  0  0
  2  3  1  0  0  0  0
  3  4  1  0  0  0  0
  3 27  1  0  0  0  0
  3 28  1  0  0  0  0
  4  5  1  0  0  0  0
  4 29  1  0  0  0  0
  4 30  1  0  0  0  0
  5  6  1  0  0  0  0
  6  7  1  0  0  0  0
  6 31  1  0  0  0  0
  6 32  1  0  0  0  0
  7  8  2  0  0  0  0
  7  9  1  0  0  0  0
  9 10  1  0  0  0  0
  9 33  1  0  0  0  0
 10 23  1  0  0  0  0
 10 11  2  0  0  0  0
 11 12  1  0  0  0  0
 11 34  1  0  0  0  0
 12 13  2  0  0  0  0
 12 35  1  0  0  0  0
 13 14  1  0  0  0  0
 13 22  1  0  0  0  0
 14 21  1  0  0  0  0
 14 15  1  0  0  0  0
 15 16  1  0  0  0  0
 15 36  1  0  0  0  0
 15 37  1  0  0  0  0
 16 17  1  0  0  0  0
 16 18  1  0  0  0  0
 16 38  1  0  0  0  0
 17 39  1  0  0  0  0
 17 40  1  0  0  0  0
 17 41  1  0  0  0  0
 18 19  1  0  0  0  0
 19 20  1  0  0  0  0
 19 21  1  0  0  0  0
 19 42  1  0  0  0  0
 20 43  1  0  0  0  0
 20 44  1  0  0  0  0
 20 45  1  0  0  0  0
 21 46  1  0  0  0  0
 21 47  1  0  0  0  0
 22 23  2  0  0  0  0
 23 48  1  0  0  0  0
M  END
> <s_m_source_file>
AV-unprocessed.smi

> <i_m_source_file_index>
1931

> <i_lp_mmshare_version>
43012

> <i_f3d_flags>
0

> <s_epik_input>
W0NIM11PW0NIMl1bQ0gyXU9bQ0gyXUMoPU8pW05IXWMxW2NIXVtjSF1jKG5bY0hdMSlOMltDSDJdW0NAQEhdKFtDSDNdKU9bQ0BASF0oW0NIM10pW0NIMl0y

> <s_epik_cmdline>
J2VwaWtfcHl0aG9uJywgJy1waCcsICc3LjAnLCAnLXRuJywgJzgnLCAnLW1hJywgJzIwMCcsICctbWV0YWxfYmluZGluZycsICctaW1hZScsICc8aW5maWxlLm1hZT4nLCAnLW9tYWUnLCAnPG91dGZpbGUubWFlPic=

> <r_lp_tautomer_probability>
1

> <r_epik_Ionization_Penalty>
0.000582342

> <r_epik_Ionization_Penalty_Charging>
0

> <r_epik_Ionization_Penalty_Neutral>
0.000582342

> <r_epik_State_Penalty>
0.00036524

> <r_epik_Charging_Adjusted_Penalty>
0.00036524

> <i_epik_Tot_Q>
0

> <i_epik_Tot_abs_Q>
0

> <r_epik_Metal_State_Penalty>
-0

> <b_epik_Metal_Only>
0

> <s_lp_Force_Field>
OPLS_2005

> <r_lp_Energy>
28.1169

> <b_lp_Chiralities_Consistent>
1

> <s_lp_Variant>
AV-unprocessed.smi:1931-2

> <Gold.Version>
5.8.1

> <Gold.Id.Protein>
6NUR|6NUR_protein|mol2

> <Gold.PLP.Fitness>
43.1576

> <Gold.PLP.PLP>
-43.8772

> <Gold.PLP.part.hbond>
-1.2198

> <Gold.PLP.part.metal>
0.0000

> <Gold.PLP.part.buried>
-6.1565

> <Gold.PLP.part.nonpolar>
-36.3287

> <Gold.PLP.part.repulsive>
0.3853

> <Gold.PLP.ligand.clash>
0.0000

> <Gold.PLP.ligand.torsion>
0.4612

> <Gold.PLP.Chemscore.Hbond>
0.0000

> <Gold.PLP.Chemscore.CHOScore>
0.0000

> <Gold.PLP.Chemscore.Metal>
0.0000

> <Gold.PLP.Chemscore.Internal.Correction>
0.2029

> <Gold.Rescore>
     Score         DG    S(hbond)    S(metal)    S(lipo)     H(rot)  DE(clash)    DE(int)     intcor
     10.39     -13.80       0.00        0.00     113.46       1.93       0.45       2.96       ----

> <Gold.Chemscore.Fitness>
10.3851

> <Gold.Chemscore.DG>
-13.8018

> <Gold.Chemscore.ZeroCoef>
-5.4800

> <Gold.Chemscore.Hbond>
0.0000

> <Gold.Chemscore.Metal>
0.0000

> <Gold.Chemscore.Lipo>
113.4629

> <Gold.Chemscore.Internal_Hbond>
0.0000

> <Gold.Chemscore.DEClash>
0.4539

> <Gold.Chemscore.DEInternal>
2.9628

> <Gold.Chemscore.Rot>
1.9349

> <Gold.Chemscore.Internal.Correction>
   9.000000E+99

> <Gold.Chemscore.Hbond.Weighted>
-0.0000

> <Gold.Chemscore.Metal.Weighted>
-0.0000

> <Gold.Chemscore.Lipo.Weighted>
-13.2752

> <Gold.Chemscore.Internal_Hbond.Weighted>
0.0000

> <Gold.Chemscore.DEClash.Weighted>
0.4539

> <Gold.Chemscore.DEInternal.Weighted>
2.9628

> <Gold.Chemscore.Rot.Weighted>
4.9534

> <Gold.Chemscore.Internal.Correction.Weighted>
   9.000000E+99

> <Gold.Protein.RotatedTorsions>
[ 6907 6896 6895 6894 ] final  139.41 input  -60.11 | X-H torsion
[ 7974 7965 7964 7962 ] final    9.86 input  175.53 | X-H torsion
[ 8008 7997 7996 7995 ] final  173.01 input   59.86 | X-H torsion
[ 10167 10162 10161 10158 ] final   12.70 input  -65.29 | X-H torsion
[ 10718 10713 10712 10709 ] final -153.35 input   66.30 | X-H torsion
[ 10763 10752 10751 10750 ] final -125.10 input  -60.55 | X-H torsion
[ 11005 11000 10999 10996 ] final -163.69 input  -57.11 | X-H torsion

> <Gold.Protein.ActiveResidues>
 VAL166  LYS551  ARG553  GLY616  TRP617  ASP618  TYR619  PRO620  LYS621  CYS622 
 ASP623  PHE694  ASN695  SER759  ASP760  ASP761  ALA762  ILE779  LEU786  VAL792 
 PHE793  MET794  SER795  GLU796  ALA797  LYS798  CYS799  TRP800  GLU811  SER814 

> <Gold.Protein.RotatedAtoms>
  152.2553  133.5250  159.5349 H   0  0  0  0  0  0  0  0  0  0  0  0  # atno 6907 bound_to 6896
  150.7107  134.0904  159.3939 H   0  0  0  0  0  0  0  0  0  0  0  0  # atno 6908 bound_to 6896
  151.8823  135.0449  160.0541 H   0  0  0  0  0  0  0  0  0  0  0  0  # atno 6909 bound_to 6896
  146.2397  139.9720  142.8446 H   0  0  0  0  0  0  0  0  0  0  0  0  # atno 7974 bound_to 7965
  156.1118  140.1471  156.9327 H   0  0  0  0  0  0  0  0  0  0  0  0  # atno 8008 bound_to 7997
  154.4772  140.0890  156.7335 H   0  0  0  0  0  0  0  0  0  0  0  0  # atno 8009 bound_to 7997
  155.4582  140.3437  155.4311 H   0  0  0  0  0  0  0  0  0  0  0  0  # atno 8010 bound_to 7997
  140.6051  143.8525  150.7005 H   0  0  0  0  0  0  0  0  0  0  0  0  # atno 10167 bound_to 10162
  156.4846  130.8319  151.2545 H   0  0  0  0  0  0  0  0  0  0  0  0  # atno 10718 bound_to 10713
  154.8732  135.4041  154.3214 H   0  0  0  0  0  0  0  0  0  0  0  0  # atno 10763 bound_to 10752
  153.4042  135.7019  153.6410 H   0  0  0  0  0  0  0  0  0  0  0  0  # atno 10764 bound_to 10752
  153.5140  135.3701  155.2571 H   0  0  0  0  0  0  0  0  0  0  0  0  # atno 10765 bound_to 10752
  140.5953  134.5003  157.5198 H   0  0  0  0  0  0  0  0  0  0  0  0  # atno 11005 bound_to 11000
  145.1672  140.9702  143.4343 LP  0  0  0  0  0  0  0  0  0  0  0  0  # atno 17320 bound_to 7965
  145.0062  139.3552  143.6143 LP  0  0  0  0  0  0  0  0  0  0  0  0  # atno 17321 bound_to 7965
  140.2080  143.3906  152.1740 LP  0  0  0  0  0  0  0  0  0  0  0  0  # atno 17342 bound_to 10162
  139.5319  144.7168  151.5027 LP  0  0  0  0  0  0  0  0  0  0  0  0  # atno 17343 bound_to 10162
  157.7480  131.0033  150.3034 LP  0  0  0  0  0  0  0  0  0  0  0  0  # atno 17370 bound_to 10713
  156.3487  130.3827  149.7347 LP  0  0  0  0  0  0  0  0  0  0  0  0  # atno 17371 bound_to 10713
  139.9256  134.8063  156.1079 LP  0  0  0  0  0  0  0  0  0  0  0  0  # atno 17394 bound_to 11000
  141.0908  133.6715  156.2536 LP  0  0  0  0  0  0  0  0  0  0  0  0  # atno 17395 bound_to 11000

$$$$
