AV-unprocessed.smi:1230|AV-procd|sdf|5155|dock4
  -GOLD-   22720 4223D 1   1.00000     0.00000
 Structure written by MMmdl.
 38 39  0  0  0  0  0  0  0  0  2 V2000
  153.1229  141.4376  160.1999 C   0  0  0  0  0  0  0  0  0  0  0  0
  152.1423  142.6145  160.0688 C   0  0  1  0  0  0  0  0  0  0  0  0
  152.8084  143.9290  160.5231 C   0  0  0  0  0  0  0  0  0  0  0  0
  151.8542  145.1258  160.3959 C   0  0  0  0  0  0  0  0  0  0  0  0
  151.3257  145.2574  158.9611 C   0  0  0  0  0  0  0  0  0  0  0  0
  150.6474  143.9580  158.5032 C   0  0  0  0  0  0  0  0  0  0  0  0
  151.5949  142.7457  158.6291 C   0  0  2  0  0  0  0  0  0  0  0  0
  150.8823  141.5529  158.3249 O   0  0  0  0  0  0  0  0  0  0  0  0
  150.1258  141.6085  157.1251 C   0  0  0  0  0  0  0  0  0  0  0  0
  151.0110  141.1203  155.9696 C   0  0  0  0  0  0  0  0  0  0  0  0
  151.2053  139.6655  156.0190 N   0  0  0  0  0  0  0  0  0  0  0  0
  151.7586  139.1234  157.1914 C   0  0  0  0  0  0  0  0  0  0  0  0
  151.9723  137.8008  157.3254 C   0  0  0  0  0  0  0  0  0  0  0  0
  152.5325  137.2252  158.5036 C   0  0  0  0  0  0  0  0  0  0  0  0
  152.9622  136.7394  159.4628 N   0  0  0  0  0  0  0  0  0  0  0  0
  151.6179  136.9185  156.2162 C   0  0  0  0  0  0  0  0  0  0  0  0
  151.7950  135.7048  156.3142 O   0  0  0  0  0  0  0  0  0  0  0  0
  151.0948  137.5004  155.0968 N   0  5  0  0  0  0  0  0  0  0  0  0
  150.8846  138.8483  154.9713 C   0  0  0  0  0  0  0  0  0  0  0  0
  150.4182  139.3488  153.9478 O   0  0  0  0  0  0  0  0  0  0  0  0
  153.9867  141.5669  159.5471 H   0  0  0  0  0  0  0  0  0  0  0  0
  152.6469  140.4924  159.9384 H   0  0  0  0  0  0  0  0  0  0  0  0
  153.4898  141.3452  161.2225 H   0  0  0  0  0  0  0  0  0  0  0  0
  151.3001  142.4198  160.7347 H   0  0  0  0  0  0  0  0  0  0  0  0
  153.1419  143.8393  161.5574 H   0  0  0  0  0  0  0  0  0  0  0  0
  153.7027  144.1144  159.9266 H   0  0  0  0  0  0  0  0  0  0  0  0
  151.0178  145.0036  161.0855 H   0  0  0  0  0  0  0  0  0  0  0  0
  152.3661  146.0427  160.6894 H   0  0  0  0  0  0  0  0  0  0  0  0
  150.6206  146.0867  158.8988 H   0  0  0  0  0  0  0  0  0  0  0  0
  152.1486  145.4984  158.2870 H   0  0  0  0  0  0  0  0  0  0  0  0
  149.7533  143.7859  159.1040 H   0  0  0  0  0  0  0  0  0  0  0  0
  150.3080  144.0758  157.4745 H   0  0  0  0  0  0  0  0  0  0  0  0
  152.4395  142.8669  157.9478 H   0  0  0  0  0  0  0  0  0  0  0  0
  149.2329  140.9882  157.2023 H   0  0  0  0  0  0  0  0  0  0  0  0
  149.8007  142.6332  156.9394 H   0  0  0  0  0  0  0  0  0  0  0  0
  150.5576  141.4052  155.0193 H   0  0  0  0  0  0  0  0  0  0  0  0
  151.9723  141.6362  155.9920 H   0  0  0  0  0  0  0  0  0  0  0  0
  151.9981  139.8410  157.9625 H   0  0  0  0  0  0  0  0  0  0  0  0
  1  2  1  0  0  0  0
  1 21  1  0  0  0  0
  1 22  1  0  0  0  0
  1 23  1  0  0  0  0
  2  7  1  0  0  0  0
  2  3  1  0  0  0  0
  2 24  1  0  0  0  0
  3  4  1  0  0  0  0
  3 25  1  0  0  0  0
  3 26  1  0  0  0  0
  4  5  1  0  0  0  0
  4 27  1  0  0  0  0
  4 28  1  0  0  0  0
  5  6  1  0  0  0  0
  5 29  1  0  0  0  0
  5 30  1  0  0  0  0
  6  7  1  0  0  0  0
  6 31  1  0  0  0  0
  6 32  1  0  0  0  0
  7  8  1  0  0  0  0
  7 33  1  0  0  0  0
  8  9  1  0  0  0  0
  9 10  1  0  0  0  0
  9 34  1  0  0  0  0
  9 35  1  0  0  0  0
 10 11  1  0  0  0  0
 10 36  1  0  0  0  0
 10 37  1  0  0  0  0
 11 19  1  0  0  0  0
 11 12  1  0  0  0  0
 12 13  2  0  0  0  0
 12 38  1  0  0  0  0
 13 14  1  0  0  0  0
 13 16  1  0  0  0  0
 14 15  3  0  0  0  0
 16 17  2  0  0  0  0
 16 18  1  0  0  0  0
 18 19  1  0  0  0  0
 19 20  2  0  0  0  0
M  CHG  1  18  -1
M  END
> <s_m_source_file>
AV-unprocessed.smi

> <i_m_source_file_index>
1230

> <i_lp_mmshare_version>
43012

> <i_f3d_flags>
0

> <s_epik_input>
W0NIM11bQ0BASF0xW0NIMl1bQ0gyXVtDSDJdW0NIMl1bQ0BIXTFPW0NIMl1bQ0gyXW4yW2NIXWMoQyNOKWMoPU8pW25IXWMyPU8=

> <s_epik_cmdline>
J2VwaWtfcHl0aG9uJywgJy1waCcsICc3LjAnLCAnLXRuJywgJzgnLCAnLW1hJywgJzIwMCcsICctbWV0YWxfYmluZGluZycsICctaW1hZScsICc8aW5maWxlLm1hZT4nLCAnLW9tYWUnLCAnPG91dGZpbGUubWFlPic=

> <r_epik_Ionization_Penalty>
0.400014

> <r_epik_Ionization_Penalty_Charging>
4.81474e-10

> <r_epik_Ionization_Penalty_Neutral>
0.400014

> <r_epik_State_Penalty>
0.399305

> <r_epik_Charging_Adjusted_Penalty>
0.399305

> <i_epik_Tot_Q>
-1

> <i_epik_Tot_abs_Q>
1

> <r_epik_Metal_State_Penalty>
0.00056968

> <b_epik_Metal_Only>
0

> <s_lp_Force_Field>
OPLS_2005

> <r_lp_Energy>
22.5171

> <b_lp_Chiralities_Consistent>
1

> <s_lp_Variant>
AV-unprocessed.smi:1230-4

> <Gold.Version>
5.8.1

> <Gold.Id.Protein>
6NUR|6NUR_protein|mol2

> <Gold.PLP.Fitness>
44.8386

> <Gold.PLP.PLP>
-36.4368

> <Gold.PLP.part.hbond>
-3.0000

> <Gold.PLP.part.metal>
0.0000

> <Gold.PLP.part.buried>
-5.9321

> <Gold.PLP.part.nonpolar>
-28.4478

> <Gold.PLP.part.repulsive>
1.2507

> <Gold.PLP.ligand.clash>
0.0000

> <Gold.PLP.ligand.torsion>
0.3032

> <Gold.PLP.Chemscore.Hbond>
3.0000

> <Gold.PLP.Chemscore.CHOScore>
0.0000

> <Gold.PLP.Chemscore.Metal>
0.0000

> <Gold.Chemscore.Hbonds>
donor molecule, donor type, donor heavy atom, donor atom, acceptor molecule, acceptor atom, score
      P1  H  6896  6907       L1    15  1.00
      P1  H  7989  7998       L1    20  1.00
      P1  H 10752 10764       L1    17  1.00

> <Gold.PLP.Chemscore.Internal.Correction>
0.0083

> <Gold.Rescore>
     Score         DG    S(hbond)    S(metal)    S(lipo)     H(rot)  DE(clash)    DE(int)     intcor
     18.23     -20.83       2.70        0.00      95.59       1.90       0.92       1.68       ----

> <Gold.Chemscore.Fitness>
18.2327

> <Gold.Chemscore.DG>
-20.8309

> <Gold.Chemscore.ZeroCoef>
-5.4800

> <Gold.Chemscore.Hbond>
2.7027

> <Gold.Chemscore.Metal>
0.0000

> <Gold.Chemscore.Lipo>
95.5885

> <Gold.Chemscore.Internal_Hbond>
0.0000

> <Gold.Chemscore.DEClash>
0.9152

> <Gold.Chemscore.DEInternal>
1.6830

> <Gold.Chemscore.Rot>
1.8984

> <Gold.Chemscore.Internal.Correction>
   9.000000E+99

> <Gold.Chemscore.Hbonds>
donor molecule, donor type, donor heavy atom, donor atom, acceptor molecule, acceptor atom, score
      P1  H  6896  6907       L1    15  0.83
      P1  H  7989  7998       L1    20  0.52
      P1  H 10752 10764       L1    17  0.42

> <Gold.Chemscore.Hbond.Weighted>
-9.0269

> <Gold.Chemscore.Metal.Weighted>
-0.0000

> <Gold.Chemscore.Lipo.Weighted>
-11.1839

> <Gold.Chemscore.Internal_Hbond.Weighted>
0.0000

> <Gold.Chemscore.DEClash.Weighted>
0.9152

> <Gold.Chemscore.DEInternal.Weighted>
1.6830

> <Gold.Chemscore.Rot.Weighted>
4.8598

> <Gold.Chemscore.Internal.Correction.Weighted>
   9.000000E+99

> <Gold.Protein.RotatedTorsions>
[ 6907 6896 6895 6894 ] final   24.68 input  -60.11 | X-H torsion
[ 7974 7965 7964 7962 ] final   -2.53 input  175.53 | X-H torsion
[ 8008 7997 7996 7995 ] final  -29.12 input   59.86 | X-H torsion
[ 10167 10162 10161 10158 ] final   23.11 input  -65.29 | X-H torsion
[ 10718 10713 10712 10709 ] final  131.11 input   66.30 | X-H torsion
[ 10763 10752 10751 10750 ] final   -8.96 input  -60.55 | X-H torsion
[ 11005 11000 10999 10996 ] final   -4.67 input  -57.11 | X-H torsion

> <Gold.Protein.ActiveResidues>
 VAL166  LYS551  ARG553  GLY616  TRP617  ASP618  TYR619  PRO620  LYS621  CYS622 
 ASP623  PHE694  ASN695  SER759  ASP760  ASP761  ALA762  ILE779  LEU786  VAL792 
 PHE793  MET794  SER795  GLU796  ALA797  LYS798  CYS799  TRP800  GLU811  SER814 

> <Gold.Protein.RotatedAtoms>
  151.9611  135.0123  160.0547 H   0  0  0  0  0  0  0  0  0  0  0  0  # atno 6907 bound_to 6896
  152.1868  133.4740  159.4995 H   0  0  0  0  0  0  0  0  0  0  0  0  # atno 6908 bound_to 6896
  150.6927  134.1681  159.4244 H   0  0  0  0  0  0  0  0  0  0  0  0  # atno 6909 bound_to 6896
  146.2403  140.1585  142.8333 H   0  0  0  0  0  0  0  0  0  0  0  0  # atno 7974 bound_to 7965
  154.4303  140.1827  156.1198 H   0  0  0  0  0  0  0  0  0  0  0  0  # atno 8008 bound_to 7997
  156.0152  140.3346  155.6956 H   0  0  0  0  0  0  0  0  0  0  0  0  # atno 8009 bound_to 7997
  155.6055  140.0644  157.2712 H   0  0  0  0  0  0  0  0  0  0  0  0  # atno 8010 bound_to 7997
  140.5295  143.9865  150.6458 H   0  0  0  0  0  0  0  0  0  0  0  0  # atno 10167 bound_to 10162
  157.4998  131.1094  150.9442 H   0  0  0  0  0  0  0  0  0  0  0  0  # atno 10718 bound_to 10713
  153.4479  135.7014  153.6127 H   0  0  0  0  0  0  0  0  0  0  0  0  # atno 10763 bound_to 10752
  153.4474  135.3766  155.2264 H   0  0  0  0  0  0  0  0  0  0  0  0  # atno 10764 bound_to 10752
  154.8728  135.3988  154.3887 H   0  0  0  0  0  0  0  0  0  0  0  0  # atno 10765 bound_to 10752
  140.6827  133.9139  155.8566 H   0  0  0  0  0  0  0  0  0  0  0  0  # atno 11005 bound_to 11000
  145.0109  140.8713  143.5225 LP  0  0  0  0  0  0  0  0  0  0  0  0  # atno 17320 bound_to 7965
  145.1619  139.2454  143.5387 LP  0  0  0  0  0  0  0  0  0  0  0  0  # atno 17321 bound_to 7965
  140.3236  143.3121  152.0758 LP  0  0  0  0  0  0  0  0  0  0  0  0  # atno 17342 bound_to 10162
  139.4949  144.6557  151.6578 LP  0  0  0  0  0  0  0  0  0  0  0  0  # atno 17343 bound_to 10162
  157.0117  130.5639  149.5321 LP  0  0  0  0  0  0  0  0  0  0  0  0  # atno 17370 bound_to 10713
  156.0222  130.5317  150.8308 LP  0  0  0  0  0  0  0  0  0  0  0  0  # atno 17371 bound_to 10713
  141.0304  134.0764  157.4020 LP  0  0  0  0  0  0  0  0  0  0  0  0  # atno 17394 bound_to 11000
  139.8947  135.0137  156.6962 LP  0  0  0  0  0  0  0  0  0  0  0  0  # atno 17395 bound_to 11000

$$$$
