AV-unprocessed.smi:2463|AV-procd|sdf|9719|dock2
  -GOLD-   2272013363D 1   1.00000     0.00000
 Structure written by MMmdl.
 47 48  0  0  0  0  0  0  0  0  1 V2000
  151.9601  141.3231  159.1505 C   0  0  0  0  0  0  0  0  0  0  0  0
  151.2952  140.4087  158.1159 C   0  0  0  0  0  0  0  0  0  0  0  0
  151.9759  140.4836  156.7408 C   0  0  0  0  0  0  0  0  0  0  0  0
  151.3130  139.6394  155.7659 N   0  0  0  0  0  0  0  0  0  0  0  0
  151.1110  138.2746  155.8174 C   0  0  0  0  0  0  0  0  0  0  0  0
  150.4441  137.9567  154.6681 C   0  0  0  0  0  0  0  0  0  0  0  0
  149.9850  136.6945  154.2141 N   0  0  0  0  0  0  0  0  0  0  0  0
  149.9466  135.5446  154.9066 C   0  0  0  0  0  0  0  0  0  0  0  0
  150.3368  135.4030  156.0655 O   0  0  0  0  0  0  0  0  0  0  0  0
  149.4214  134.5536  154.1734 N   0  0  0  0  0  0  0  0  0  0  0  0
  149.2120  133.1835  154.6374 C   0  0  2  0  0  0  0  0  0  0  0  0
  148.8498  132.2572  153.4933 C   0  0  0  0  0  0  0  0  0  0  0  0
  148.1122  131.1101  154.1945 C   0  0  0  0  0  0  0  0  0  0  0  0
  146.9615  130.5506  153.3437 C   0  0  0  0  0  0  0  0  0  0  0  0
  149.0723  129.9896  154.6289 C   0  0  0  0  0  0  0  0  0  0  0  0
  147.5618  131.6811  155.3809 O   0  0  0  0  0  0  0  0  0  0  0  0
  148.0077  133.0203  155.5906 C   0  0  0  0  0  0  0  0  0  0  0  0
  148.4079  133.1557  157.0684 C   0  0  0  0  0  0  0  0  0  0  0  0
  146.8096  133.9365  155.2644 C   0  0  0  0  0  0  0  0  0  0  0  0
  150.2768  139.1788  153.9665 C   0  0  0  0  0  0  0  0  0  0  0  0
  150.8044  140.1919  154.6365 N   0  0  0  0  0  0  0  0  0  0  0  0
  151.4568  141.2489  160.1147 H   0  0  0  0  0  0  0  0  0  0  0  0
  151.9227  142.3663  158.8358 H   0  0  0  0  0  0  0  0  0  0  0  0
  153.0060  141.0539  159.2991 H   0  0  0  0  0  0  0  0  0  0  0  0
  151.3154  139.3813  158.4806 H   0  0  0  0  0  0  0  0  0  0  0  0
  150.2437  140.6813  158.0189 H   0  0  0  0  0  0  0  0  0  0  0  0
  151.9694  141.5094  156.3703 H   0  0  0  0  0  0  0  0  0  0  0  0
  153.0213  140.1799  156.8130 H   0  0  0  0  0  0  0  0  0  0  0  0
  151.4533  137.6753  156.6481 H   0  0  0  0  0  0  0  0  0  0  0  0
  149.6386  136.6676  153.2664 H   0  0  0  0  0  0  0  0  0  0  0  0
  149.1292  134.7624  153.2301 H   0  0  0  0  0  0  0  0  0  0  0  0
  150.1193  132.7997  155.1082 H   0  0  0  0  0  0  0  0  0  0  0  0
  148.1813  132.7675  152.7978 H   0  0  0  0  0  0  0  0  0  0  0  0
  149.7193  131.9253  152.9247 H   0  0  0  0  0  0  0  0  0  0  0  0
  147.3322  130.1234  152.4115 H   0  0  0  0  0  0  0  0  0  0  0  0
  146.2418  131.3297  153.0906 H   0  0  0  0  0  0  0  0  0  0  0  0
  146.4216  129.7679  153.8773 H   0  0  0  0  0  0  0  0  0  0  0  0
  149.5413  129.5149  153.7665 H   0  0  0  0  0  0  0  0  0  0  0  0
  148.5450  129.2149  155.1867 H   0  0  0  0  0  0  0  0  0  0  0  0
  149.8669  130.3695  155.2716 H   0  0  0  0  0  0  0  0  0  0  0  0
  148.7485  134.1658  157.2959 H   0  0  0  0  0  0  0  0  0  0  0  0
  149.2131  132.4668  157.3252 H   0  0  0  0  0  0  0  0  0  0  0  0
  147.5664  132.9353  157.7256 H   0  0  0  0  0  0  0  0  0  0  0  0
  147.0455  134.9859  155.4438 H   0  0  0  0  0  0  0  0  0  0  0  0
  145.9492  133.6875  155.8862 H   0  0  0  0  0  0  0  0  0  0  0  0
  146.4978  133.8374  154.2246 H   0  0  0  0  0  0  0  0  0  0  0  0
  149.8002  139.3610  153.0145 H   0  0  0  0  0  0  0  0  0  0  0  0
  1  2  1  0  0  0  0
  1 22  1  0  0  0  0
  1 23  1  0  0  0  0
  1 24  1  0  0  0  0
  2  3  1  0  0  0  0
  2 25  1  0  0  0  0
  2 26  1  0  0  0  0
  3  4  1  0  0  0  0
  3 27  1  0  0  0  0
  3 28  1  0  0  0  0
  4 21  1  0  0  0  0
  4  5  1  0  0  0  0
  5  6  2  0  0  0  0
  5 29  1  0  0  0  0
  6  7  1  0  0  0  0
  6 20  1  0  0  0  0
  7  8  1  0  0  0  0
  7 30  1  0  0  0  0
  8  9  2  0  0  0  0
  8 10  1  0  0  0  0
 10 11  1  0  0  0  0
 10 31  1  0  0  0  0
 11 17  1  0  0  0  0
 11 12  1  0  0  0  0
 11 32  1  0  0  0  0
 12 13  1  0  0  0  0
 12 33  1  0  0  0  0
 12 34  1  0  0  0  0
 13 14  1  0  0  0  0
 13 15  1  0  0  0  0
 13 16  1  0  0  0  0
 14 35  1  0  0  0  0
 14 36  1  0  0  0  0
 14 37  1  0  0  0  0
 15 38  1  0  0  0  0
 15 39  1  0  0  0  0
 15 40  1  0  0  0  0
 16 17  1  0  0  0  0
 17 18  1  0  0  0  0
 17 19  1  0  0  0  0
 18 41  1  0  0  0  0
 18 42  1  0  0  0  0
 18 43  1  0  0  0  0
 19 44  1  0  0  0  0
 19 45  1  0  0  0  0
 19 46  1  0  0  0  0
 20 21  2  0  0  0  0
 20 47  1  0  0  0  0
M  END
> <s_m_source_file>
AV-unprocessed.smi

> <i_m_source_file_index>
2463

> <i_lp_mmshare_version>
43012

> <i_f3d_flags>
0

> <s_epik_input>
W0NIM11bQ0gyXVtDSDJdbjFbY0hdYyhbY0hdbjEpW05IXUMoPU8pW05IXVtDQEBIXShDKE8yKShbQ0gzXSlbQ0gzXSlbQ0gyXUMyKFtDSDNdKVtDSDNd

> <s_epik_cmdline>
J2VwaWtfcHl0aG9uJywgJy1waCcsICc3LjAnLCAnLXRuJywgJzgnLCAnLW1hJywgJzIwMCcsICctbWV0YWxfYmluZGluZycsICctaW1hZScsICc8aW5maWxlLm1hZT4nLCAnLW9tYWUnLCAnPG91dGZpbGUubWFlPic=

> <r_lp_tautomer_probability>
1

> <r_epik_Ionization_Penalty>
3.69628e-05

> <r_epik_Ionization_Penalty_Charging>
0

> <r_epik_Ionization_Penalty_Neutral>
3.69628e-05

> <r_epik_State_Penalty>
-0

> <r_epik_Charging_Adjusted_Penalty>
0

> <i_epik_Tot_Q>
0

> <i_epik_Tot_abs_Q>
0

> <r_epik_Metal_State_Penalty>
-0

> <b_epik_Metal_Only>
0

> <s_lp_Force_Field>
OPLS_2005

> <r_lp_Energy>
21.6414

> <b_lp_Chiralities_Consistent>
1

> <s_lp_Variant>
AV-unprocessed.smi:2463-1

> <Gold.Version>
5.8.1

> <Gold.Id.Protein>
6NUR|6NUR_protein|mol2

> <Gold.PLP.Fitness>
39.4853

> <Gold.PLP.PLP>
-29.6131

> <Gold.PLP.part.hbond>
-4.0000

> <Gold.PLP.part.metal>
0.0000

> <Gold.PLP.part.buried>
-1.8097

> <Gold.PLP.part.nonpolar>
-23.4191

> <Gold.PLP.part.repulsive>
0.1910

> <Gold.PLP.ligand.clash>
0.0000

> <Gold.PLP.ligand.torsion>
0.1744

> <Gold.PLP.Chemscore.Hbond>
2.3972

> <Gold.PLP.Chemscore.CHOScore>
1.0000

> <Gold.PLP.Chemscore.Metal>
0.0000

> <Gold.Chemscore.Hbonds>
donor molecule, donor type, donor heavy atom, donor atom, acceptor molecule, acceptor atom, score
      L1  H     7    30       P1  7948  1.00
      L1  H    10    31       P1  7948  0.58
      P1  H  7989  7998       L1    21  1.00
      L1  C    20    47       P1  7957  0.87

> <Gold.PLP.Chemscore.Internal.Correction>
0.0294

> <Gold.Rescore>
     Score         DG    S(hbond)    S(metal)    S(lipo)     H(rot)  DE(clash)    DE(int)     intcor
     14.01     -15.90       1.56        0.00      72.65       1.29       0.34       1.54       ----

> <Gold.Chemscore.Fitness>
14.0108

> <Gold.Chemscore.DG>
-15.8954

> <Gold.Chemscore.ZeroCoef>
-5.4800

> <Gold.Chemscore.Hbond>
1.5592

> <Gold.Chemscore.Metal>
0.0000

> <Gold.Chemscore.Lipo>
72.6460

> <Gold.Chemscore.Internal_Hbond>
0.0000

> <Gold.Chemscore.DEClash>
0.3430

> <Gold.Chemscore.DEInternal>
1.5416

> <Gold.Chemscore.Rot>
1.2859

> <Gold.Chemscore.Internal.Correction>
   9.000000E+99

> <Gold.Chemscore.Hbonds>
donor molecule, donor type, donor heavy atom, donor atom, acceptor molecule, acceptor atom, score
      L1  H     7    30       P1  7948  0.49
      L1  H    10    31       P1  7948  0.05
      P1  H  7989  7998       L1    21  0.25

> <Gold.Chemscore.Hbond.Weighted>
-5.2077

> <Gold.Chemscore.Metal.Weighted>
-0.0000

> <Gold.Chemscore.Lipo.Weighted>
-8.4996

> <Gold.Chemscore.Internal_Hbond.Weighted>
0.0000

> <Gold.Chemscore.DEClash.Weighted>
0.3430

> <Gold.Chemscore.DEInternal.Weighted>
1.5416

> <Gold.Chemscore.Rot.Weighted>
3.2919

> <Gold.Chemscore.Internal.Correction.Weighted>
   9.000000E+99

> <Gold.Protein.RotatedTorsions>
[ 6907 6896 6895 6894 ] final  -27.26 input  -60.11 | X-H torsion
[ 7974 7965 7964 7962 ] final  -40.85 input  175.53 | X-H torsion
[ 8008 7997 7996 7995 ] final -134.41 input   59.86 | X-H torsion
[ 10167 10162 10161 10158 ] final  -35.45 input  -65.29 | X-H torsion
[ 10718 10713 10712 10709 ] final  114.38 input   66.30 | X-H torsion
[ 10763 10752 10751 10750 ] final -126.78 input  -60.55 | X-H torsion
[ 11005 11000 10999 10996 ] final   77.08 input  -57.11 | X-H torsion

> <Gold.Protein.ActiveResidues>
 VAL166  LYS551  ARG553  GLY616  TRP617  ASP618  TYR619  PRO620  LYS621  CYS622 
 ASP623  PHE694  ASN695  SER759  ASP760  ASP761  ALA762  ILE779  LEU786  VAL792 
 PHE793  MET794  SER795  GLU796  ALA797  LYS798  CYS799  TRP800  GLU811  SER814 

> <Gold.Protein.RotatedAtoms>
  151.1494  135.0220  159.8661 H   0  0  0  0  0  0  0  0  0  0  0  0  # atno 6907 bound_to 6896
  152.5453  134.1406  159.8487 H   0  0  0  0  0  0  0  0  0  0  0  0  # atno 6908 bound_to 6896
  151.1489  133.4875  159.2628 H   0  0  0  0  0  0  0  0  0  0  0  0  # atno 6909 bound_to 6896
  146.0266  140.6784  142.9153 H   0  0  0  0  0  0  0  0  0  0  0  0  # atno 7974 bound_to 7965
  155.3616  140.0483  157.3046 H   0  0  0  0  0  0  0  0  0  0  0  0  # atno 8008 bound_to 7997
  154.5175  140.2213  155.9002 H   0  0  0  0  0  0  0  0  0  0  0  0  # atno 8009 bound_to 7997
  156.1653  140.3108  155.8883 H   0  0  0  0  0  0  0  0  0  0  0  0  # atno 8010 bound_to 7997
  140.7164  143.3476  151.2223 H   0  0  0  0  0  0  0  0  0  0  0  0  # atno 10167 bound_to 10162
  157.6284  131.0997  150.7177 H   0  0  0  0  0  0  0  0  0  0  0  0  # atno 10718 bound_to 10713
  154.8748  135.3984  154.3486 H   0  0  0  0  0  0  0  0  0  0  0  0  # atno 10763 bound_to 10752
  153.4275  135.7024  153.6258 H   0  0  0  0  0  0  0  0  0  0  0  0  # atno 10764 bound_to 10752
  153.4894  135.3751  155.2453 H   0  0  0  0  0  0  0  0  0  0  0  0  # atno 10765 bound_to 10752
  139.9270  134.7653  156.1476 H   0  0  0  0  0  0  0  0  0  0  0  0  # atno 11005 bound_to 11000
  144.7012  140.3661  143.7154 LP  0  0  0  0  0  0  0  0  0  0  0  0  # atno 17320 bound_to 7965
  145.7108  139.1684  143.2540 LP  0  0  0  0  0  0  0  0  0  0  0  0  # atno 17321 bound_to 7965
  139.6999  143.9550  152.2900 LP  0  0  0  0  0  0  0  0  0  0  0  0  # atno 17342 bound_to 10162
  139.9239  144.6782  150.8432 LP  0  0  0  0  0  0  0  0  0  0  0  0  # atno 17343 bound_to 10162
  156.7521  130.4772  149.5454 LP  0  0  0  0  0  0  0  0  0  0  0  0  # atno 17370 bound_to 10713
  156.1472  130.6285  151.0547 LP  0  0  0  0  0  0  0  0  0  0  0  0  # atno 17371 bound_to 10713
  141.0834  133.6744  156.2385 LP  0  0  0  0  0  0  0  0  0  0  0  0  # atno 17394 bound_to 11000
  140.6308  134.5266  157.5559 LP  0  0  0  0  0  0  0  0  0  0  0  0  # atno 17395 bound_to 11000

$$$$
