AV-unprocessed.smi:1056|AV-procd|sdf|4646|dock2
  -GOLD-   22720 3153D 1   1.00000     0.00000
 Structure written by MMmdl.
 45 47  0  0  0  0  0  0  0  0  4 V2000
  152.6761  142.9929  160.7988 C   0  0  0  0  0  0  0  0  0  0  0  0
  152.2667  142.2784  159.5220 C   0  0  0  0  0  0  0  0  0  0  0  0
  151.2983  142.8852  158.6909 C   0  0  0  0  0  0  0  0  0  0  0  0
  150.9466  142.2091  157.5287 C   0  0  0  0  0  0  0  0  0  0  0  0
  150.0413  142.5410  156.5192 N   0  3  0  0  0  0  0  0  0  0  0  0
  150.0366  141.5619  155.5738 C   0  0  0  0  0  0  0  0  0  0  0  0
  150.9219  140.6051  155.9664 N   0  0  0  0  0  0  0  0  0  0  0  0
  151.2953  139.3468  155.2983 C   0  0  0  0  0  0  0  0  0  0  0  0
  150.0995  138.4155  155.0008 C   0  0  2  0  0  0  0  0  0  0  0  0
  150.5614  137.3053  154.2546 O   0  0  0  0  0  0  0  0  0  0  0  0
  148.9626  139.1092  154.2179 C   0  0  0  0  0  0  0  0  0  0  0  0
  147.9084  138.1674  153.7600 N   0  3  2  0  0  0  0  0  0  0  0  0
  146.8865  138.8276  152.9066 C   0  0  0  0  0  0  0  0  0  0  0  0
  146.0091  137.7728  152.2056 C   0  0  0  0  0  0  0  0  0  0  0  0
  145.5588  136.7621  153.1694 N   0  5  0  0  0  0  0  0  0  0  0  0
  146.1583  136.4495  154.3603 C   0  0  0  0  0  0  0  0  0  0  0  0
  145.8555  135.5040  155.0847 O   0  0  0  0  0  0  0  0  0  0  0  0
  147.2809  137.3927  154.8698 C   0  0  0  0  0  0  0  0  0  0  0  0
  151.5194  140.9699  157.1799 C   0  0  0  0  0  0  0  0  0  0  0  0
  152.4751  140.3587  157.9893 C   0  0  0  0  0  0  0  0  0  0  0  0
  152.8472  141.0310  159.1754 C   0  0  0  0  0  0  0  0  0  0  0  0
  153.8894  140.3889  160.0753 C   0  0  0  0  0  0  0  0  0  0  0  0
  152.1759  143.9570  160.8946 H   0  0  0  0  0  0  0  0  0  0  0  0
  153.7510  143.1745  160.8097 H   0  0  0  0  0  0  0  0  0  0  0  0
  152.4166  142.3938  161.6720 H   0  0  0  0  0  0  0  0  0  0  0  0
  150.8530  143.8355  158.9476 H   0  0  0  0  0  0  0  0  0  0  0  0
  149.4363  141.5443  154.6753 H   0  0  0  0  0  0  0  0  0  0  0  0
  151.7927  139.6163  154.3656 H   0  0  0  0  0  0  0  0  0  0  0  0
  152.0463  138.8300  155.8951 H   0  0  0  0  0  0  0  0  0  0  0  0
  149.7341  138.0442  155.9571 H   0  0  0  0  0  0  0  0  0  0  0  0
  149.8760  137.0243  153.6674 H   0  0  0  0  0  0  0  0  0  0  0  0
  148.4990  139.8850  154.8285 H   0  0  0  0  0  0  0  0  0  0  0  0
  149.3940  139.6179  153.3546 H   0  0  0  0  0  0  0  0  0  0  0  0
  146.2736  139.4913  153.5192 H   0  0  0  0  0  0  0  0  0  0  0  0
  147.3635  139.4482  152.1471 H   0  0  0  0  0  0  0  0  0  0  0  0
  145.1733  138.2684  151.7127 H   0  0  0  0  0  0  0  0  0  0  0  0
  146.5932  137.3114  151.4090 H   0  0  0  0  0  0  0  0  0  0  0  0
  148.0274  136.7895  155.3850 H   0  0  0  0  0  0  0  0  0  0  0  0
  146.8521  138.0753  155.6049 H   0  0  0  0  0  0  0  0  0  0  0  0
  152.9211  139.4103  157.7301 H   0  0  0  0  0  0  0  0  0  0  0  0
  154.2097  139.4212  159.6880 H   0  0  0  0  0  0  0  0  0  0  0  0
  153.4879  140.2298  161.0765 H   0  0  0  0  0  0  0  0  0  0  0  0
  154.7714  141.0253  160.1522 H   0  0  0  0  0  0  0  0  0  0  0  0
  148.3586  137.4937  153.1573 H   0  0  0  0  0  0  0  0  0  0  0  0
  149.4702  143.3755  156.4737 H   0  0  0  0  0  0  0  0  0  0  0  0
  1  2  1  0  0  0  0
  1 23  1  0  0  0  0
  1 24  1  0  0  0  0
  1 25  1  0  0  0  0
  2 21  1  0  0  0  0
  2  3  2  0  0  0  0
  3  4  1  0  0  0  0
  3 26  1  0  0  0  0
  4 19  2  0  0  0  0
  4  5  1  0  0  0  0
  5  6  2  0  0  0  0
  5 45  1  0  0  0  0
  6  7  1  0  0  0  0
  6 27  1  0  0  0  0
  7  8  1  0  0  0  0
  7 19  1  0  0  0  0
  8  9  1  0  0  0  0
  8 28  1  0  0  0  0
  8 29  1  0  0  0  0
  9 10  1  0  0  0  0
  9 11  1  0  0  0  0
  9 30  1  0  0  0  0
 10 31  1  0  0  0  0
 11 12  1  0  0  0  0
 11 32  1  0  0  0  0
 11 33  1  0  0  0  0
 12 18  1  0  0  0  0
 12 13  1  0  0  0  0
 12 44  1  0  0  0  0
 13 14  1  0  0  0  0
 13 34  1  0  0  0  0
 13 35  1  0  0  0  0
 14 15  1  0  0  0  0
 14 36  1  0  0  0  0
 14 37  1  0  0  0  0
 15 16  1  0  0  0  0
 16 17  2  0  0  0  0
 16 18  1  0  0  0  0
 18 38  1  0  0  0  0
 18 39  1  0  0  0  0
 19 20  1  0  0  0  0
 20 21  2  0  0  0  0
 20 40  1  0  0  0  0
 21 22  1  0  0  0  0
 22 41  1  0  0  0  0
 22 42  1  0  0  0  0
 22 43  1  0  0  0  0
M  CHG  1   5   1
M  CHG  1  12   1
M  CHG  1  15  -1
M  END
> <s_m_source_file>
AV-unprocessed.smi

> <i_m_source_file_index>
1056

> <i_lp_mmshare_version>
43012

> <i_f3d_flags>
0

> <s_epik_input>
W0NIM11jKFtjSF0xKWMoW0NIM10pW2NIXWMoYzEyKW4oW2NIXW4yKVtDSDJdW0NASF0oW09IXSlbQ0gyXU4zW0NIMl1bQ0gyXVtOSF1DKD1PKVtDSDJdMw==

> <s_epik_cmdline>
J2VwaWtfcHl0aG9uJywgJy1waCcsICc3LjAnLCAnLXRuJywgJzgnLCAnLW1hJywgJzIwMCcsICctbWV0YWxfYmluZGluZycsICctaW1hZScsICc8aW5maWxlLm1hZT4nLCAnLW9tYWUnLCAnPG91dGZpbGUubWFlPic=

> <r_epik_Ionization_Penalty>
6.22415

> <r_epik_Ionization_Penalty_Charging>
6.22415

> <r_epik_Ionization_Penalty_Neutral>
4.02797e-07

> <r_epik_State_Penalty>
6.37716

> <r_epik_Charging_Adjusted_Penalty>
12.6013

> <i_epik_Tot_Q>
1

> <i_epik_Tot_abs_Q>
3

> <r_epik_Metal_State_Penalty>
2.53509

> <b_epik_Metal_Only>
1

> <s_lp_Force_Field>
OPLS_2005

> <r_lp_Energy>
27.0798

> <b_lp_Chiralities_Consistent>
1

> <s_lp_Variant>
AV-unprocessed.smi:1056-17

> <Gold.Version>
5.8.1

> <Gold.Id.Protein>
6NUR|6NUR_protein|mol2

> <Gold.PLP.Fitness>
56.5488

> <Gold.PLP.PLP>
-42.1273

> <Gold.PLP.part.hbond>
-4.0000

> <Gold.PLP.part.metal>
0.0000

> <Gold.PLP.part.buried>
-1.7738

> <Gold.PLP.part.nonpolar>
-36.4452

> <Gold.PLP.part.repulsive>
0.3131

> <Gold.PLP.ligand.clash>
0.0000

> <Gold.PLP.ligand.torsion>
0.0880

> <Gold.PLP.Chemscore.Hbond>
4.8450

> <Gold.PLP.Chemscore.CHOScore>
0.0000

> <Gold.PLP.Chemscore.Metal>
0.0000

> <Gold.Chemscore.Hbonds>
donor molecule, donor type, donor heavy atom, donor atom, acceptor molecule, acceptor atom, score
      L1  H     5    45       P1  8028  2.00
      L1  H    10    31       P1  7948  0.73
      L1  H    12    44       P1  7948  2.00

> <Gold.PLP.Chemscore.Internal.Correction>
0.0626

> <Gold.Rescore>
     Score         DG    S(hbond)    S(metal)    S(lipo)     H(rot)  DE(clash)    DE(int)     intcor
     18.48     -19.95       2.54        0.00     103.16       2.37       0.35       1.12       ----

> <Gold.Chemscore.Fitness>
18.4795

> <Gold.Chemscore.DG>
-19.9487

> <Gold.Chemscore.ZeroCoef>
-5.4800

> <Gold.Chemscore.Hbond>
2.5368

> <Gold.Chemscore.Metal>
0.0000

> <Gold.Chemscore.Lipo>
103.1556

> <Gold.Chemscore.Internal_Hbond>
0.0000

> <Gold.Chemscore.DEClash>
0.3451

> <Gold.Chemscore.DEInternal>
1.1241

> <Gold.Chemscore.Rot>
2.3724

> <Gold.Chemscore.Internal.Correction>
   9.000000E+99

> <Gold.Chemscore.Hbonds>
donor molecule, donor type, donor heavy atom, donor atom, acceptor molecule, acceptor atom, score
      L1  H     5    45       P1  8028  0.96
      L1  H    10    31       P1  7948  0.36
      L1  H    12    44       P1  7948  1.00

> <Gold.Chemscore.Hbond.Weighted>
-8.4729

> <Gold.Chemscore.Metal.Weighted>
-0.0000

> <Gold.Chemscore.Lipo.Weighted>
-12.0692

> <Gold.Chemscore.Internal_Hbond.Weighted>
0.0000

> <Gold.Chemscore.DEClash.Weighted>
0.3451

> <Gold.Chemscore.DEInternal.Weighted>
1.1241

> <Gold.Chemscore.Rot.Weighted>
6.0734

> <Gold.Chemscore.Internal.Correction.Weighted>
   9.000000E+99

> <Gold.Protein.RotatedTorsions>
[ 6907 6896 6895 6894 ] final -145.42 input  -60.11 | X-H torsion
[ 7974 7965 7964 7962 ] final  148.11 input  175.53 | X-H torsion
[ 8008 7997 7996 7995 ] final  120.48 input   59.86 | X-H torsion
[ 10167 10162 10161 10158 ] final   83.22 input  -65.29 | X-H torsion
[ 10718 10713 10712 10709 ] final  -38.60 input   66.30 | X-H torsion
[ 10763 10752 10751 10750 ] final  -73.12 input  -60.55 | X-H torsion
[ 11005 11000 10999 10996 ] final -158.38 input  -57.11 | X-H torsion

> <Gold.Protein.ActiveResidues>
 VAL166  LYS551  ARG553  GLY616  TRP617  ASP618  TYR619  PRO620  LYS621  CYS622 
 ASP623  PHE694  ASN695  SER759  ASP760  ASP761  ALA762  ILE779  LEU786  VAL792 
 PHE793  MET794  SER795  GLU796  ALA797  LYS798  CYS799  TRP800  GLU811  SER814 

> <Gold.Protein.RotatedAtoms>
  151.1276  133.5060  159.2599 H   0  0  0  0  0  0  0  0  0  0  0  0  # atno 6907 bound_to 6896
  151.1793  135.0353  159.8795 H   0  0  0  0  0  0  0  0  0  0  0  0  # atno 6908 bound_to 6896
  152.5458  134.1130  159.8420 H   0  0  0  0  0  0  0  0  0  0  0  0  # atno 6909 bound_to 6896
  144.8539  139.6112  143.5961 H   0  0  0  0  0  0  0  0  0  0  0  0  # atno 7974 bound_to 7965
  156.2644  140.2830  156.1156 H   0  0  0  0  0  0  0  0  0  0  0  0  # atno 8008 bound_to 7997
  155.1210  140.0392  157.2767 H   0  0  0  0  0  0  0  0  0  0  0  0  # atno 8009 bound_to 7997
  154.6670  140.2579  155.7053 H   0  0  0  0  0  0  0  0  0  0  0  0  # atno 8010 bound_to 7997
  139.9206  144.6215  150.8444 H   0  0  0  0  0  0  0  0  0  0  0  0  # atno 10167 bound_to 10162
  156.3019  130.4241  149.8134 H   0  0  0  0  0  0  0  0  0  0  0  0  # atno 10718 bound_to 10713
  154.4551  135.5908  153.6217 H   0  0  0  0  0  0  0  0  0  0  0  0  # atno 10763 bound_to 10752
  152.9817  135.6030  154.3556 H   0  0  0  0  0  0  0  0  0  0  0  0  # atno 10764 bound_to 10752
  154.3422  135.2841  155.2395 H   0  0  0  0  0  0  0  0  0  0  0  0  # atno 10765 bound_to 10752
  140.6542  134.4418  157.5235 H   0  0  0  0  0  0  0  0  0  0  0  0  # atno 11005 bound_to 11000
  146.2807  139.6871  142.9231 LP  0  0  0  0  0  0  0  0  0  0  0  0  # atno 17320 bound_to 7965
  145.4444  141.0424  143.2839 LP  0  0  0  0  0  0  0  0  0  0  0  0  # atno 17321 bound_to 7965
  140.7663  143.3299  151.2432 LP  0  0  0  0  0  0  0  0  0  0  0  0  # atno 17342 bound_to 10162
  139.6865  143.9765  152.2836 LP  0  0  0  0  0  0  0  0  0  0  0  0  # atno 17343 bound_to 10162
  156.5509  130.8341  151.3299 LP  0  0  0  0  0  0  0  0  0  0  0  0  # atno 17370 bound_to 10713
  157.7370  130.9788  150.2168 LP  0  0  0  0  0  0  0  0  0  0  0  0  # atno 17371 bound_to 10713
  139.9035  134.8502  156.1799 LP  0  0  0  0  0  0  0  0  0  0  0  0  # atno 17394 bound_to 11000
  141.0514  133.6887  156.1778 LP  0  0  0  0  0  0  0  0  0  0  0  0  # atno 17395 bound_to 11000

$$$$
