AV-unprocessed.smi:1958|AV-procd|sdf|7907|dock10
  -GOLD-   2272010 63D 1   1.00000     0.00000
 Structure written by MMmdl.
 47 48  0  0  0  0  0  0  0  0  1 V2000
  150.0181  133.2923  156.3613 C   0  0  0  0  0  0  0  0  0  0  0  0
  149.9619  133.1745  157.7717 O   0  0  0  0  0  0  0  0  0  0  0  0
  149.5630  131.8806  158.1944 C   0  0  0  0  0  0  0  0  0  0  0  0
  148.0837  131.9125  158.6121 C   0  0  0  0  0  0  0  0  0  0  0  0
  147.8706  132.7444  159.8019 N   0  0  0  0  0  0  0  0  0  0  0  0
  147.9839  134.1043  159.5657 N   0  0  0  0  0  0  0  0  0  0  0  0
  147.8377  134.9479  160.5360 C   0  0  0  0  0  0  0  0  0  0  0  0
  147.9596  136.4169  160.3243 C   0  0  0  0  0  0  0  0  0  0  0  0
  147.6149  137.2278  161.1855 O   0  0  0  0  0  0  0  0  0  0  0  0
  148.4634  136.7841  159.1316 N   0  0  0  0  0  0  0  0  0  0  0  0
  148.6807  138.1556  158.6773 C   0  0  0  0  0  0  0  0  0  0  0  0
  148.4833  138.3240  157.1440 C   0  0  1  0  0  0  0  0  0  0  0  0
  147.5817  139.5575  156.8828 C   0  0  0  0  0  0  0  0  0  0  0  0
  149.7597  138.3803  156.3923 N   0  0  0  0  0  0  0  0  0  0  0  0
  150.5982  139.5179  156.7894 C   0  0  0  0  0  0  0  0  0  0  0  0
  151.9129  139.6005  155.9944 C   0  0  0  0  0  0  0  0  0  0  0  0
  151.6283  139.6658  154.6040 O   0  0  0  0  0  0  0  0  0  0  0  0
  150.8854  138.5393  154.1597 C   0  0  0  0  0  0  0  0  0  0  0  0
  149.5621  138.4509  154.9394 C   0  0  0  0  0  0  0  0  0  0  0  0
  147.5456  134.4882  161.8834 C   0  0  0  0  0  0  0  0  0  0  0  0
  147.4369  133.1587  162.0984 C   0  0  0  0  0  0  0  0  0  0  0  0
  147.6061  132.1833  161.0202 C   0  0  0  0  0  0  0  0  0  0  0  0
  147.5228  130.9677  161.1933 O   0  0  0  0  0  0  0  0  0  0  0  0
  150.3266  134.3021  156.0907 H   0  0  0  0  0  0  0  0  0  0  0  0
  149.0429  133.1056  155.9101 H   0  0  0  0  0  0  0  0  0  0  0  0
  150.7406  132.5942  155.9363 H   0  0  0  0  0  0  0  0  0  0  0  0
  149.6942  131.1744  157.3734 H   0  0  0  0  0  0  0  0  0  0  0  0
  150.1893  131.5369  159.0191 H   0  0  0  0  0  0  0  0  0  0  0  0
  147.4768  132.2757  157.7805 H   0  0  0  0  0  0  0  0  0  0  0  0
  147.7332  130.8966  158.8012 H   0  0  0  0  0  0  0  0  0  0  0  0
  148.7178  136.0493  158.4869 H   0  0  0  0  0  0  0  0  0  0  0  0
  148.0485  138.8632  159.2164 H   0  0  0  0  0  0  0  0  0  0  0  0
  149.7052  138.3762  158.9707 H   0  0  0  0  0  0  0  0  0  0  0  0
  147.9303  137.4490  156.7983 H   0  0  0  0  0  0  0  0  0  0  0  0
  146.6569  139.5253  157.4568 H   0  0  0  0  0  0  0  0  0  0  0  0
  147.2628  139.6278  155.8440 H   0  0  0  0  0  0  0  0  0  0  0  0
  148.0965  140.4831  157.1427 H   0  0  0  0  0  0  0  0  0  0  0  0
  150.0420  140.4486  156.6658 H   0  0  0  0  0  0  0  0  0  0  0  0
  150.8691  139.4479  157.8412 H   0  0  0  0  0  0  0  0  0  0  0  0
  152.4749  140.4885  156.2840 H   0  0  0  0  0  0  0  0  0  0  0  0
  152.5472  138.7380  156.2049 H   0  0  0  0  0  0  0  0  0  0  0  0
  150.6894  138.6410  153.0923 H   0  0  0  0  0  0  0  0  0  0  0  0
  151.4732  137.6295  154.2921 H   0  0  0  0  0  0  0  0  0  0  0  0
  149.0437  137.5656  154.5766 H   0  0  0  0  0  0  0  0  0  0  0  0
  148.9374  139.3106  154.6918 H   0  0  0  0  0  0  0  0  0  0  0  0
  147.4170  135.1854  162.6984 H   0  0  0  0  0  0  0  0  0  0  0  0
  147.2198  132.8032  163.0950 H   0  0  0  0  0  0  0  0  0  0  0  0
  1  2  1  0  0  0  0
  1 24  1  0  0  0  0
  1 25  1  0  0  0  0
  1 26  1  0  0  0  0
  2  3  1  0  0  0  0
  3  4  1  0  0  0  0
  3 27  1  0  0  0  0
  3 28  1  0  0  0  0
  4  5  1  0  0  0  0
  4 29  1  0  0  0  0
  4 30  1  0  0  0  0
  5 22  1  0  0  0  0
  5  6  1  0  0  0  0
  6  7  2  0  0  0  0
  7  8  1  0  0  0  0
  7 20  1  0  0  0  0
  8  9  2  0  0  0  0
  8 10  1  0  0  0  0
 10 11  1  0  0  0  0
 10 31  1  0  0  0  0
 11 12  1  0  0  0  0
 11 32  1  0  0  0  0
 11 33  1  0  0  0  0
 12 13  1  0  0  0  0
 12 14  1  0  0  0  0
 12 34  1  0  0  0  0
 13 35  1  0  0  0  0
 13 36  1  0  0  0  0
 13 37  1  0  0  0  0
 14 19  1  0  0  0  0
 14 15  1  0  0  0  0
 15 16  1  0  0  0  0
 15 38  1  0  0  0  0
 15 39  1  0  0  0  0
 16 17  1  0  0  0  0
 16 40  1  0  0  0  0
 16 41  1  0  0  0  0
 17 18  1  0  0  0  0
 18 19  1  0  0  0  0
 18 42  1  0  0  0  0
 18 43  1  0  0  0  0
 19 44  1  0  0  0  0
 19 45  1  0  0  0  0
 20 21  2  0  0  0  0
 20 46  1  0  0  0  0
 21 22  1  0  0  0  0
 21 47  1  0  0  0  0
 22 23  2  0  0  0  0
M  END
> <s_m_source_file>
AV-unprocessed.smi

> <i_m_source_file_index>
1958

> <i_lp_mmshare_version>
43012

> <i_f3d_flags>
0

> <s_epik_input>
W0NIM11PW0NIMl1bQ0gyXW4xbmMoW2NIXVtjSF1jMT1PKUMoPU8pW05IXVtDSDJdW0NASF0oW0NIM10pTjJbQ0gyXVtDSDJdT1tDSDJdW0NIMl0y

> <s_epik_cmdline>
J2VwaWtfcHl0aG9uJywgJy1waCcsICc3LjAnLCAnLXRuJywgJzgnLCAnLW1hJywgJzIwMCcsICctbWV0YWxfYmluZGluZycsICctaW1hZScsICc8aW5maWxlLm1hZT4nLCAnLW9tYWUnLCAnPG91dGZpbGUubWFlPic=

> <r_lp_tautomer_probability>
1

> <r_epik_Ionization_Penalty>
0.206669

> <r_epik_Ionization_Penalty_Charging>
5.75808e-09

> <r_epik_Ionization_Penalty_Neutral>
0.206669

> <r_epik_State_Penalty>
0.196651

> <r_epik_Charging_Adjusted_Penalty>
0.196651

> <i_epik_Tot_Q>
0

> <i_epik_Tot_abs_Q>
0

> <r_epik_Metal_State_Penalty>
0.198415

> <b_epik_Metal_Only>
0

> <s_lp_Force_Field>
OPLS_2005

> <r_lp_Energy>
50.1951

> <b_lp_Chiralities_Consistent>
1

> <s_lp_Variant>
AV-unprocessed.smi:1958-2

> <Gold.Version>
5.8.1

> <Gold.Id.Protein>
6NUR|6NUR_protein|mol2

> <Gold.PLP.Fitness>
38.0357

> <Gold.PLP.PLP>
-29.2531

> <Gold.PLP.part.hbond>
-4.0000

> <Gold.PLP.part.metal>
0.0000

> <Gold.PLP.part.buried>
-4.1209

> <Gold.PLP.part.nonpolar>
-21.8039

> <Gold.PLP.part.repulsive>
0.2342

> <Gold.PLP.ligand.clash>
0.0000

> <Gold.PLP.ligand.torsion>
1.3351

> <Gold.PLP.Chemscore.Hbond>
3.8000

> <Gold.PLP.Chemscore.CHOScore>
0.0000

> <Gold.PLP.Chemscore.Metal>
0.0000

> <Gold.Chemscore.Hbonds>
donor molecule, donor type, donor heavy atom, donor atom, acceptor molecule, acceptor atom, score
      P1  H  6896  6907       L1     2  0.80
      P1  H  6931  6943       L1     9  0.91
      P1  H  6934  6947       L1     9  0.90
      P1  H  7989  7998       L1    17  1.00

> <Gold.PLP.Chemscore.Internal.Correction>
0.0527

> <Gold.Rescore>
     Score         DG    S(hbond)    S(metal)    S(lipo)     H(rot)  DE(clash)    DE(int)     intcor
     16.73     -19.33       3.64        0.00      59.24       2.04       0.00       2.60       ----

> <Gold.Chemscore.Fitness>
16.7332

> <Gold.Chemscore.DG>
-19.3328

> <Gold.Chemscore.ZeroCoef>
-5.4800

> <Gold.Chemscore.Hbond>
3.6371

> <Gold.Chemscore.Metal>
0.0000

> <Gold.Chemscore.Lipo>
59.2365

> <Gold.Chemscore.Internal_Hbond>
0.0000

> <Gold.Chemscore.DEClash>
0.0038

> <Gold.Chemscore.DEInternal>
2.5958

> <Gold.Chemscore.Rot>
2.0413

> <Gold.Chemscore.Internal.Correction>
   9.000000E+99

> <Gold.Chemscore.Hbonds>
donor molecule, donor type, donor heavy atom, donor atom, acceptor molecule, acceptor atom, score
      P1  H  6896  6907       L1     2  0.12
      P1  H  6931  6943       L1     9  0.80
      P1  H  6934  6947       L1     9  0.88
      P1  H  7989  7998       L1    17  0.81

> <Gold.Chemscore.Hbond.Weighted>
-12.1478

> <Gold.Chemscore.Metal.Weighted>
-0.0000

> <Gold.Chemscore.Lipo.Weighted>
-6.9307

> <Gold.Chemscore.Internal_Hbond.Weighted>
0.0000

> <Gold.Chemscore.DEClash.Weighted>
0.0038

> <Gold.Chemscore.DEInternal.Weighted>
2.5958

> <Gold.Chemscore.Rot.Weighted>
5.2257

> <Gold.Chemscore.Internal.Correction.Weighted>
   9.000000E+99

> <Gold.Protein.RotatedTorsions>
[ 6907 6896 6895 6894 ] final -140.42 input  -60.11 | X-H torsion
[ 7974 7965 7964 7962 ] final -137.77 input  175.53 | X-H torsion
[ 8008 7997 7996 7995 ] final  168.23 input   59.86 | X-H torsion
[ 10167 10162 10161 10158 ] final   14.41 input  -65.29 | X-H torsion
[ 10718 10713 10712 10709 ] final -145.59 input   66.30 | X-H torsion
[ 10763 10752 10751 10750 ] final  114.26 input  -60.55 | X-H torsion
[ 11005 11000 10999 10996 ] final   -0.40 input  -57.11 | X-H torsion

> <Gold.Protein.ActiveResidues>
 VAL166  LYS551  ARG553  GLY616  TRP617  ASP618  TYR619  PRO620  LYS621  CYS622 
 ASP623  PHE694  ASN695  SER759  ASP760  ASP761  ALA762  ILE779  LEU786  VAL792 
 PHE793  MET794  SER795  GLU796  ALA797  LYS798  CYS799  TRP800  GLU811  SER814 

> <Gold.Protein.RotatedAtoms>
  151.0605  133.5548  159.2634 H   0  0  0  0  0  0  0  0  0  0  0  0  # atno 6907 bound_to 6896
  151.2525  135.0626  159.9077 H   0  0  0  0  0  0  0  0  0  0  0  0  # atno 6908 bound_to 6896
  152.5397  134.0363  159.8101 H   0  0  0  0  0  0  0  0  0  0  0  0  # atno 6909 bound_to 6896
  144.8814  140.6512  143.5204 H   0  0  0  0  0  0  0  0  0  0  0  0  # atno 7974 bound_to 7965
  156.1565  140.1596  156.8684 H   0  0  0  0  0  0  0  0  0  0  0  0  # atno 8008 bound_to 7997
  154.5119  140.0799  156.8043 H   0  0  0  0  0  0  0  0  0  0  0  0  # atno 8009 bound_to 7997
  155.3793  140.3404  155.4248 H   0  0  0  0  0  0  0  0  0  0  0  0  # atno 8010 bound_to 7997
  140.5937  143.8744  150.6898 H   0  0  0  0  0  0  0  0  0  0  0  0  # atno 10167 bound_to 10162
  156.3844  130.7853  151.2049 H   0  0  0  0  0  0  0  0  0  0  0  0  # atno 10718 bound_to 10713
  153.5046  135.3631  155.2557 H   0  0  0  0  0  0  0  0  0  0  0  0  # atno 10763 bound_to 10752
  154.8746  135.4008  154.3438 H   0  0  0  0  0  0  0  0  0  0  0  0  # atno 10764 bound_to 10752
  153.4081  135.7077  153.6445 H   0  0  0  0  0  0  0  0  0  0  0  0  # atno 10765 bound_to 10752
  140.6359  133.9533  155.8299 H   0  0  0  0  0  0  0  0  0  0  0  0  # atno 11005 bound_to 11000
  145.3948  139.1609  143.4209 LP  0  0  0  0  0  0  0  0  0  0  0  0  # atno 17320 bound_to 7965
  146.2997  140.4040  142.8709 LP  0  0  0  0  0  0  0  0  0  0  0  0  # atno 17321 bound_to 7965
  140.2273  143.3763  152.1594 LP  0  0  0  0  0  0  0  0  0  0  0  0  # atno 17342 bound_to 10162
  139.5244  144.7083  151.5284 LP  0  0  0  0  0  0  0  0  0  0  0  0  # atno 17343 bound_to 10162
  157.7495  131.0334  150.4272 LP  0  0  0  0  0  0  0  0  0  0  0  0  # atno 17370 bound_to 10713
  156.4522  130.4014  149.6629 LP  0  0  0  0  0  0  0  0  0  0  0  0  # atno 17371 bound_to 10713
  141.0642  134.0301  157.3617 LP  0  0  0  0  0  0  0  0  0  0  0  0  # atno 17394 bound_to 11000
  139.9098  135.0188  156.7645 LP  0  0  0  0  0  0  0  0  0  0  0  0  # atno 17395 bound_to 11000

$$$$
