AV-unprocessed.smi:1717|AV-procd|sdf|6918|dock3
  -GOLD-   22720 8123D 1   1.00000     0.00000
 Structure written by MMmdl.
 41 42  0  0  0  0  0  0  0  0  2 V2000
  149.9818  142.7276  158.1509 C   0  0  0  0  0  0  0  0  0  0  0  0
  149.0074  142.5977  157.0780 N   0  0  0  0  0  0  0  0  0  0  0  0
  148.0133  141.6989  157.0684 C   0  0  0  0  0  0  0  0  0  0  0  0
  147.8318  140.8839  157.9737 O   0  0  0  0  0  0  0  0  0  0  0  0
  147.0987  141.7140  155.8393 C   0  0  0  0  0  0  0  0  0  0  0  0
  147.1688  140.4588  155.0477 N   0  3  2  0  0  0  0  0  0  0  0  0
  146.8551  140.6748  153.6123 C   0  0  0  0  0  0  0  0  0  0  0  0
  147.0828  139.3914  152.7959 C   0  0  0  0  0  0  0  0  0  0  0  0
  146.2580  138.2219  153.3564 C   0  0  1  0  0  0  0  0  0  0  0  0
  146.5589  137.0022  152.6127 N   0  0  0  0  0  0  0  0  0  0  0  0
  145.6454  136.1423  152.1394 C   0  0  0  0  0  0  0  0  0  0  0  0
  144.4330  136.2841  152.2975 O   0  0  0  0  0  0  0  0  0  0  0  0
  146.2261  135.1252  151.4828 N   0  0  0  0  0  0  0  0  0  0  0  0
  145.5808  134.0392  150.8405 C   0  0  0  0  0  0  0  0  0  0  0  0
  144.2165  133.9026  150.4481 C   0  0  0  0  0  0  0  0  0  0  0  0
  143.9995  132.7304  149.8687 N   0  0  0  0  0  0  0  0  0  0  0  0
  145.2059  132.1202  149.8868 N   0  0  0  0  0  0  0  0  0  0  0  0
  146.1956  132.8813  150.4682 C   0  0  0  0  0  0  0  0  0  0  0  0
  146.5676  138.0447  154.8544 C   0  0  0  0  0  0  0  0  0  0  0  0
  146.3521  139.3577  155.6251 C   0  0  0  0  0  0  0  0  0  0  0  0
  145.3360  131.1956  149.5012 H   0  0  0  0  0  0  0  0  0  0  0  0
  150.6705  143.5430  157.9307 H   0  0  0  0  0  0  0  0  0  0  0  0
  150.5632  141.8111  158.2603 H   0  0  0  0  0  0  0  0  0  0  0  0
  149.4904  142.9439  159.1001 H   0  0  0  0  0  0  0  0  0  0  0  0
  149.0980  143.2284  156.2944 H   0  0  0  0  0  0  0  0  0  0  0  0
  146.0667  141.9167  156.1306 H   0  0  0  0  0  0  0  0  0  0  0  0
  147.4215  142.5549  155.2240 H   0  0  0  0  0  0  0  0  0  0  0  0
  145.8216  141.0100  153.5106 H   0  0  0  0  0  0  0  0  0  0  0  0
  147.4875  141.4680  153.2119 H   0  0  0  0  0  0  0  0  0  0  0  0
  146.8208  139.5681  151.7519 H   0  0  0  0  0  0  0  0  0  0  0  0
  148.1441  139.1382  152.8101 H   0  0  0  0  0  0  0  0  0  0  0  0
  145.1995  138.4619  153.2364 H   0  0  0  0  0  0  0  0  0  0  0  0
  147.5329  136.8035  152.4361 H   0  0  0  0  0  0  0  0  0  0  0  0
  147.2341  135.1302  151.4313 H   0  0  0  0  0  0  0  0  0  0  0  0
  143.3914  134.5907  150.5562 H   0  0  0  0  0  0  0  0  0  0  0  0
  147.2164  132.5411  150.5617 H   0  0  0  0  0  0  0  0  0  0  0  0
  145.9367  137.2640  155.2809 H   0  0  0  0  0  0  0  0  0  0  0  0
  147.5990  137.7136  154.9851 H   0  0  0  0  0  0  0  0  0  0  0  0
  146.6150  139.2039  156.6720 H   0  0  0  0  0  0  0  0  0  0  0  0
  145.2974  139.6358  155.6031 H   0  0  0  0  0  0  0  0  0  0  0  0
  148.1333  140.1601  155.0855 H   0  0  0  0  0  0  0  0  0  0  0  0
  1  2  1  0  0  0  0
  1 22  1  0  0  0  0
  1 23  1  0  0  0  0
  1 24  1  0  0  0  0
  2  3  1  0  0  0  0
  2 25  1  0  0  0  0
  3  4  2  0  0  0  0
  3  5  1  0  0  0  0
  5  6  1  0  0  0  0
  5 26  1  0  0  0  0
  5 27  1  0  0  0  0
  6 20  1  0  0  0  0
  6  7  1  0  0  0  0
  6 41  1  0  0  0  0
  7  8  1  0  0  0  0
  7 28  1  0  0  0  0
  7 29  1  0  0  0  0
  8  9  1  0  0  0  0
  8 30  1  0  0  0  0
  8 31  1  0  0  0  0
  9 10  1  0  0  0  0
  9 19  1  0  0  0  0
  9 32  1  0  0  0  0
 10 11  1  0  0  0  0
 10 33  1  0  0  0  0
 11 12  2  0  0  0  0
 11 13  1  0  0  0  0
 13 14  1  0  0  0  0
 13 34  1  0  0  0  0
 14 18  2  0  0  0  0
 14 15  1  0  0  0  0
 15 16  2  0  0  0  0
 15 35  1  0  0  0  0
 16 17  1  0  0  0  0
 17 21  1  0  0  0  0
 17 18  1  0  0  0  0
 18 36  1  0  0  0  0
 19 20  1  0  0  0  0
 19 37  1  0  0  0  0
 19 38  1  0  0  0  0
 20 39  1  0  0  0  0
 20 40  1  0  0  0  0
M  CHG  1   6   1
M  END
> <s_m_source_file>
AV-unprocessed.smi

> <i_m_source_file_index>
1717

> <i_lp_mmshare_version>
43012

> <i_f3d_flags>
0

> <s_epik_input>
W0NIM11bTkhdQyg9TylbQ0gyXU4xW0NIMl1bQ0gyXVtDSF0oW0NIMl1bQ0gyXTEpW05IXUMoPU8pW05IXWMyW2NIXW5bbkhdW2NIXTI=

> <s_epik_cmdline>
J2VwaWtfcHl0aG9uJywgJy1waCcsICc3LjAnLCAnLXRuJywgJzgnLCAnLW1hJywgJzIwMCcsICctbWV0YWxfYmluZGluZycsICctaW1hZScsICc8aW5maWxlLm1hZT4nLCAnLW9tYWUnLCAnPG91dGZpbGUubWFlPic=

> <r_lp_tautomer_probability>
0.5

> <r_epik_Ionization_Penalty>
0.838906

> <r_epik_Ionization_Penalty_Charging>
0.838844

> <r_epik_Ionization_Penalty_Neutral>
6.24243e-05

> <r_epik_State_Penalty>
0.8734

> <r_epik_Charging_Adjusted_Penalty>
1.71224

> <i_epik_Tot_Q>
1

> <i_epik_Tot_abs_Q>
1

> <r_epik_Metal_State_Penalty>
0.877921

> <b_epik_Metal_Only>
0

> <s_lp_Force_Field>
OPLS_2005

> <r_lp_Energy>
17.0094

> <b_lp_Chiralities_Consistent>
1

> <s_lp_Variant>
AV-unprocessed.smi:1717-2

> <Gold.Version>
5.8.1

> <Gold.Id.Protein>
6NUR|6NUR_protein|mol2

> <Gold.PLP.Fitness>
37.3329

> <Gold.PLP.PLP>
-23.8406

> <Gold.PLP.part.hbond>
-3.7257

> <Gold.PLP.part.metal>
0.0000

> <Gold.PLP.part.buried>
-5.4168

> <Gold.PLP.part.nonpolar>
-16.2830

> <Gold.PLP.part.repulsive>
0.6670

> <Gold.PLP.ligand.clash>
0.0000

> <Gold.PLP.ligand.torsion>
0.5049

> <Gold.PLP.Chemscore.Hbond>
2.9199

> <Gold.PLP.Chemscore.CHOScore>
1.9026

> <Gold.PLP.Chemscore.Metal>
0.0000

> <Gold.Chemscore.Hbonds>
donor molecule, donor type, donor heavy atom, donor atom, acceptor molecule, acceptor atom, score
      L1  H     2    25       P1  8028  0.98
      L1  H    10    33       P1  7948  1.00
      L1  H    13    34       P1  7948  0.92
      L1  C    15    35       P1 10186  0.85
      L1  C    18    36       P1 10747  1.00

> <Gold.PLP.Chemscore.Internal.Correction>
0.0348

> <Gold.Rescore>
     Score         DG    S(hbond)    S(metal)    S(lipo)     H(rot)  DE(clash)    DE(int)     intcor
     14.51     -16.13       2.79        0.00      50.99       1.81       0.20       1.42       ----

> <Gold.Chemscore.Fitness>
14.5123

> <Gold.Chemscore.DG>
-16.1286

> <Gold.Chemscore.ZeroCoef>
-5.4800

> <Gold.Chemscore.Hbond>
2.7889

> <Gold.Chemscore.Metal>
0.0000

> <Gold.Chemscore.Lipo>
50.9935

> <Gold.Chemscore.Internal_Hbond>
0.0000

> <Gold.Chemscore.DEClash>
0.1952

> <Gold.Chemscore.DEInternal>
1.4211

> <Gold.Chemscore.Rot>
1.8096

> <Gold.Chemscore.Internal.Correction>
   9.000000E+99

> <Gold.Chemscore.Hbonds>
donor molecule, donor type, donor heavy atom, donor atom, acceptor molecule, acceptor atom, score
      L1  H     2    25       P1  8028  0.93
      L1  H    10    33       P1  7948  0.99
      L1  H    13    34       P1  7948  0.68

> <Gold.Chemscore.Hbond.Weighted>
-9.3149

> <Gold.Chemscore.Metal.Weighted>
-0.0000

> <Gold.Chemscore.Lipo.Weighted>
-5.9662

> <Gold.Chemscore.Internal_Hbond.Weighted>
0.0000

> <Gold.Chemscore.DEClash.Weighted>
0.1952

> <Gold.Chemscore.DEInternal.Weighted>
1.4211

> <Gold.Chemscore.Rot.Weighted>
4.6325

> <Gold.Chemscore.Internal.Correction.Weighted>
   9.000000E+99

> <Gold.Protein.RotatedTorsions>
[ 6907 6896 6895 6894 ] final  -54.21 input  -60.11 | X-H torsion
[ 7974 7965 7964 7962 ] final  -37.44 input  175.53 | X-H torsion
[ 8008 7997 7996 7995 ] final  -79.50 input   59.86 | X-H torsion
[ 10167 10162 10161 10158 ] final   88.76 input  -65.29 | X-H torsion
[ 10718 10713 10712 10709 ] final    4.95 input   66.30 | X-H torsion
[ 10763 10752 10751 10750 ] final -164.79 input  -60.55 | X-H torsion
[ 11005 11000 10999 10996 ] final -151.54 input  -57.11 | X-H torsion

> <Gold.Protein.ActiveResidues>
 VAL166  LYS551  ARG553  GLY616  TRP617  ASP618  TYR619  PRO620  LYS621  CYS622 
 ASP623  PHE694  ASN695  SER759  ASP760  ASP761  ALA762  ILE779  LEU786  VAL792 
 PHE793  MET794  SER795  GLU796  ALA797  LYS798  CYS799  TRP800  GLU811  SER814 

> <Gold.Protein.RotatedAtoms>
  150.8358  134.7631  159.6891 H   0  0  0  0  0  0  0  0  0  0  0  0  # atno 6907 bound_to 6896
  152.4455  134.5500  159.9874 H   0  0  0  0  0  0  0  0  0  0  0  0  # atno 6908 bound_to 6896
  151.5651  133.3360  159.3014 H   0  0  0  0  0  0  0  0  0  0  0  0  # atno 6909 bound_to 6896
  146.0575  140.6396  142.9013 H   0  0  0  0  0  0  0  0  0  0  0  0  # atno 7974 bound_to 7965
  154.5791  140.0677  156.9078 H   0  0  0  0  0  0  0  0  0  0  0  0  # atno 8008 bound_to 7997
  155.2495  140.3350  155.4265 H   0  0  0  0  0  0  0  0  0  0  0  0  # atno 8009 bound_to 7997
  156.2176  140.1785  156.7538 H   0  0  0  0  0  0  0  0  0  0  0  0  # atno 8010 bound_to 7997
  139.8640  144.6529  150.9025 H   0  0  0  0  0  0  0  0  0  0  0  0  # atno 10167 bound_to 10162
  156.9002  130.5719  149.5648 H   0  0  0  0  0  0  0  0  0  0  0  0  # atno 10718 bound_to 10713
  154.6994  135.2985  154.9363 H   0  0  0  0  0  0  0  0  0  0  0  0  # atno 10763 bound_to 10752
  154.0300  135.6671  153.4784 H   0  0  0  0  0  0  0  0  0  0  0  0  # atno 10764 bound_to 10752
  153.0670  135.5082  154.8130 H   0  0  0  0  0  0  0  0  0  0  0  0  # atno 10765 bound_to 10752
  140.7285  134.3648  157.5171 H   0  0  0  0  0  0  0  0  0  0  0  0  # atno 11005 bound_to 11000
  144.7156  140.4196  143.7047 LP  0  0  0  0  0  0  0  0  0  0  0  0  # atno 17320 bound_to 7965
  145.6619  139.1583  143.2803 LP  0  0  0  0  0  0  0  0  0  0  0  0  # atno 17321 bound_to 7965
  140.7771  143.3720  151.1632 LP  0  0  0  0  0  0  0  0  0  0  0  0  # atno 17342 bound_to 10162
  139.7347  143.9018  152.3031 LP  0  0  0  0  0  0  0  0  0  0  0  0  # atno 17343 bound_to 10162
  156.0586  130.5643  150.9144 LP  0  0  0  0  0  0  0  0  0  0  0  0  # atno 17370 bound_to 10713
  157.6031  131.0940  150.8926 LP  0  0  0  0  0  0  0  0  0  0  0  0  # atno 17371 bound_to 10713
  139.8832  134.9002  156.2784 LP  0  0  0  0  0  0  0  0  0  0  0  0  # atno 17394 bound_to 11000
  140.9942  133.7190  156.0860 LP  0  0  0  0  0  0  0  0  0  0  0  0  # atno 17395 bound_to 11000

$$$$
