AV-unprocessed.smi:1230|AV-procd|sdf|5156|dock1
  -GOLD-   22720 4223D 1   1.00000     0.00000
 Structure written by MMmdl.
 39 40  0  0  0  0  0  0  0  0  1 V2000
  151.4073  144.2007  157.6012 C   0  0  0  0  0  0  0  0  0  0  0  0
  151.6038  143.3317  158.8544 C   0  0  2  0  0  0  0  0  0  0  0  0
  152.2870  144.1421  159.9748 C   0  0  0  0  0  0  0  0  0  0  0  0
  152.5055  143.2969  161.2384 C   0  0  0  0  0  0  0  0  0  0  0  0
  153.3120  142.0308  160.9205 C   0  0  0  0  0  0  0  0  0  0  0  0
  152.6332  141.2084  159.8155 C   0  0  0  0  0  0  0  0  0  0  0  0
  152.4060  142.0484  158.5401 C   0  0  1  0  0  0  0  0  0  0  0  0
  151.6609  141.2898  157.5950 O   0  0  0  0  0  0  0  0  0  0  0  0
  152.2297  140.0307  157.2705 C   0  0  0  0  0  0  0  0  0  0  0  0
  152.4175  139.9616  155.7475 C   0  0  0  0  0  0  0  0  0  0  0  0
  151.1691  139.8727  155.0324 N   0  0  0  0  0  0  0  0  0  0  0  0
  150.2220  140.8848  155.0616 C   0  0  0  0  0  0  0  0  0  0  0  0
  149.0547  140.8162  154.3788 C   0  0  0  0  0  0  0  0  0  0  0  0
  148.0907  141.8656  154.4177 C   0  0  0  0  0  0  0  0  0  0  0  0
  147.2898  142.7005  154.4433 N   0  0  0  0  0  0  0  0  0  0  0  0
  148.7352  139.6477  153.5604 C   0  0  0  0  0  0  0  0  0  0  0  0
  147.7055  139.4893  152.9074 O   0  0  0  0  0  0  0  0  0  0  0  0
  149.7246  138.6590  153.5568 N   0  0  0  0  0  0  0  0  0  0  0  0
  150.9341  138.7157  154.2527 C   0  0  0  0  0  0  0  0  0  0  0  0
  151.7360  137.7857  154.1656 O   0  0  0  0  0  0  0  0  0  0  0  0
  149.5506  137.8342  153.0010 H   0  0  0  0  0  0  0  0  0  0  0  0
  152.3641  144.5139  157.1826 H   0  0  0  0  0  0  0  0  0  0  0  0
  150.8352  145.0994  157.8330 H   0  0  0  0  0  0  0  0  0  0  0  0
  150.8652  143.6616  156.8240 H   0  0  0  0  0  0  0  0  0  0  0  0
  150.6158  143.0358  159.2110 H   0  0  0  0  0  0  0  0  0  0  0  0
  153.2475  144.5204  159.6224 H   0  0  0  0  0  0  0  0  0  0  0  0
  151.6848  145.0169  160.2227 H   0  0  0  0  0  0  0  0  0  0  0  0
  153.0224  143.8869  161.9956 H   0  0  0  0  0  0  0  0  0  0  0  0
  151.5410  143.0201  161.6660 H   0  0  0  0  0  0  0  0  0  0  0  0
  154.3192  142.3065  160.6055 H   0  0  0  0  0  0  0  0  0  0  0  0
  153.4234  141.4250  161.8200 H   0  0  0  0  0  0  0  0  0  0  0  0
  153.2440  140.3331  159.5962 H   0  0  0  0  0  0  0  0  0  0  0  0
  151.6763  140.8321  160.1798 H   0  0  0  0  0  0  0  0  0  0  0  0
  153.3693  142.3397  158.1166 H   0  0  0  0  0  0  0  0  0  0  0  0
  153.1941  139.9196  157.7685 H   0  0  0  0  0  0  0  0  0  0  0  0
  151.5872  139.2198  157.6126 H   0  0  0  0  0  0  0  0  0  0  0  0
  152.9680  140.8183  155.3527 H   0  0  0  0  0  0  0  0  0  0  0  0
  152.9912  139.0757  155.4710 H   0  0  0  0  0  0  0  0  0  0  0  0
  150.4193  141.7694  155.6508 H   0  0  0  0  0  0  0  0  0  0  0  0
  1  2  1  0  0  0  0
  1 22  1  0  0  0  0
  1 23  1  0  0  0  0
  1 24  1  0  0  0  0
  2  7  1  0  0  0  0
  2  3  1  0  0  0  0
  2 25  1  0  0  0  0
  3  4  1  0  0  0  0
  3 26  1  0  0  0  0
  3 27  1  0  0  0  0
  4  5  1  0  0  0  0
  4 28  1  0  0  0  0
  4 29  1  0  0  0  0
  5  6  1  0  0  0  0
  5 30  1  0  0  0  0
  5 31  1  0  0  0  0
  6  7  1  0  0  0  0
  6 32  1  0  0  0  0
  6 33  1  0  0  0  0
  7  8  1  0  0  0  0
  7 34  1  0  0  0  0
  8  9  1  0  0  0  0
  9 10  1  0  0  0  0
  9 35  1  0  0  0  0
  9 36  1  0  0  0  0
 10 11  1  0  0  0  0
 10 37  1  0  0  0  0
 10 38  1  0  0  0  0
 11 19  1  0  0  0  0
 11 12  1  0  0  0  0
 12 13  2  0  0  0  0
 12 39  1  0  0  0  0
 13 14  1  0  0  0  0
 13 16  1  0  0  0  0
 14 15  3  0  0  0  0
 16 17  2  0  0  0  0
 16 18  1  0  0  0  0
 18 21  1  0  0  0  0
 18 19  1  0  0  0  0
 19 20  2  0  0  0  0
M  END
> <s_m_source_file>
AV-unprocessed.smi

> <i_m_source_file_index>
1230

> <i_lp_mmshare_version>
43012

> <i_f3d_flags>
0

> <s_epik_input>
W0NIM11bQ0BASF0xW0NIMl1bQ0gyXVtDSDJdW0NIMl1bQ0BIXTFPW0NIMl1bQ0gyXW4yW2NIXWMoQyNOKWMoPU8pW25IXWMyPU8=

> <s_epik_cmdline>
J2VwaWtfcHl0aG9uJywgJy1waCcsICc3LjAnLCAnLXRuJywgJzgnLCAnLW1hJywgJzIwMCcsICctbWV0YWxfYmluZGluZycsICctaW1hZScsICc8aW5maWxlLm1hZT4nLCAnLW9tYWUnLCAnPG91dGZpbGUubWFlPic=

> <r_epik_Ionization_Penalty>
0.421541

> <r_epik_Ionization_Penalty_Charging>
0.421541

> <r_epik_Ionization_Penalty_Neutral>
2.29267e-11

> <r_epik_State_Penalty>
0.422277

> <r_epik_Charging_Adjusted_Penalty>
0.843818

> <i_epik_Tot_Q>
0

> <i_epik_Tot_abs_Q>
0

> <r_epik_Metal_State_Penalty>
4.11629

> <b_epik_Metal_Only>
0

> <s_lp_Force_Field>
OPLS_2005

> <r_lp_Energy>
13.3679

> <b_lp_Chiralities_Consistent>
1

> <s_lp_Variant>
AV-unprocessed.smi:1230-5

> <Gold.Version>
5.8.1

> <Gold.Id.Protein>
6NUR|6NUR_protein|mol2

> <Gold.PLP.Fitness>
48.2925

> <Gold.PLP.PLP>
-43.1063

> <Gold.PLP.part.hbond>
-2.0000

> <Gold.PLP.part.metal>
0.0000

> <Gold.PLP.part.buried>
-2.9141

> <Gold.PLP.part.nonpolar>
-39.3228

> <Gold.PLP.part.repulsive>
2.0283

> <Gold.PLP.ligand.clash>
0.0000

> <Gold.PLP.ligand.torsion>
0.4138

> <Gold.PLP.Chemscore.Hbond>
2.0000

> <Gold.PLP.Chemscore.CHOScore>
0.0000

> <Gold.PLP.Chemscore.Metal>
0.0000

> <Gold.Chemscore.Hbonds>
donor molecule, donor type, donor heavy atom, donor atom, acceptor molecule, acceptor atom, score
      L1  H    18    21       P1  7948  1.00

> <Gold.PLP.Chemscore.Internal.Correction>
0.0138

> <Gold.Rescore>
     Score         DG    S(hbond)    S(metal)    S(lipo)     H(rot)  DE(clash)    DE(int)     intcor
     16.55     -18.49       1.89        0.00      99.60       1.94       0.24       1.70       ----

> <Gold.Chemscore.Fitness>
16.5468

> <Gold.Chemscore.DG>
-18.4888

> <Gold.Chemscore.ZeroCoef>
-5.4800

> <Gold.Chemscore.Hbond>
1.8916

> <Gold.Chemscore.Metal>
0.0000

> <Gold.Chemscore.Lipo>
99.6017

> <Gold.Chemscore.Internal_Hbond>
0.0000

> <Gold.Chemscore.DEClash>
0.2423

> <Gold.Chemscore.DEInternal>
1.6997

> <Gold.Chemscore.Rot>
1.9385

> <Gold.Chemscore.Internal.Correction>
   9.000000E+99

> <Gold.Chemscore.Hbonds>
donor molecule, donor type, donor heavy atom, donor atom, acceptor molecule, acceptor atom, score
      L1  H    18    21       P1  7948  0.78
      P1  H 10752 10763       L1    20  0.06

> <Gold.Chemscore.Hbond.Weighted>
-6.3180

> <Gold.Chemscore.Metal.Weighted>
-0.0000

> <Gold.Chemscore.Lipo.Weighted>
-11.6534

> <Gold.Chemscore.Internal_Hbond.Weighted>
0.0000

> <Gold.Chemscore.DEClash.Weighted>
0.2423

> <Gold.Chemscore.DEInternal.Weighted>
1.6997

> <Gold.Chemscore.Rot.Weighted>
4.9625

> <Gold.Chemscore.Internal.Correction.Weighted>
   9.000000E+99

> <Gold.Protein.RotatedTorsions>
[ 6907 6896 6895 6894 ] final   -7.44 input  -60.11 | X-H torsion
[ 7974 7965 7964 7962 ] final  -85.02 input  175.53 | X-H torsion
[ 8008 7997 7996 7995 ] final  158.60 input   59.86 | X-H torsion
[ 10167 10162 10161 10158 ] final   69.66 input  -65.29 | X-H torsion
[ 10718 10713 10712 10709 ] final -176.10 input   66.30 | X-H torsion
[ 10763 10752 10751 10750 ] final   40.48 input  -60.55 | X-H torsion
[ 11005 11000 10999 10996 ] final   41.23 input  -57.11 | X-H torsion

> <Gold.Protein.ActiveResidues>
 VAL166  LYS551  ARG553  GLY616  TRP617  ASP618  TYR619  PRO620  LYS621  CYS622 
 ASP623  PHE694  ASN695  SER759  ASP760  ASP761  ALA762  ILE779  LEU786  VAL792 
 PHE793  MET794  SER795  GLU796  ALA797  LYS798  CYS799  TRP800  GLU811  SER814 

> <Gold.Protein.RotatedAtoms>
  151.4495  135.1028  159.9693 H   0  0  0  0  0  0  0  0  0  0  0  0  # atno 6907 bound_to 6896
  152.4893  133.8453  159.7184 H   0  0  0  0  0  0  0  0  0  0  0  0  # atno 6908 bound_to 6896
  150.9032  133.7033  159.2901 H   0  0  0  0  0  0  0  0  0  0  0  0  # atno 6909 bound_to 6896
  145.4989  140.9548  143.1771 H   0  0  0  0  0  0  0  0  0  0  0  0  # atno 7974 bound_to 7965
  156.2292  140.1854  156.7284 H   0  0  0  0  0  0  0  0  0  0  0  0  # atno 8008 bound_to 7997
  154.5994  140.0638  156.9375 H   0  0  0  0  0  0  0  0  0  0  0  0  # atno 8009 bound_to 7997
  155.2200  140.3306  155.4319 H   0  0  0  0  0  0  0  0  0  0  0  0  # atno 8010 bound_to 7997
  140.0654  144.5198  150.7264 H   0  0  0  0  0  0  0  0  0  0  0  0  # atno 10167 bound_to 10162
  156.8097  130.9582  151.3116 H   0  0  0  0  0  0  0  0  0  0  0  0  # atno 10718 bound_to 10713
  152.9935  135.6190  154.2632 H   0  0  0  0  0  0  0  0  0  0  0  0  # atno 10763 bound_to 10752
  154.2368  135.2790  155.2871 H   0  0  0  0  0  0  0  0  0  0  0  0  # atno 10764 bound_to 10752
  154.5403  135.5763  153.6892 H   0  0  0  0  0  0  0  0  0  0  0  0  # atno 10765 bound_to 10752
  140.1854  134.4052  155.8176 H   0  0  0  0  0  0  0  0  0  0  0  0  # atno 11005 bound_to 11000
  144.7791  139.6564  143.7162 LP  0  0  0  0  0  0  0  0  0  0  0  0  # atno 17320 bound_to 7965
  146.2238  139.5685  142.9600 LP  0  0  0  0  0  0  0  0  0  0  0  0  # atno 17321 bound_to 7965
  140.7152  143.2538  151.4458 LP  0  0  0  0  0  0  0  0  0  0  0  0  # atno 17342 bound_to 10162
  139.5868  144.1586  152.2039 LP  0  0  0  0  0  0  0  0  0  0  0  0  # atno 17343 bound_to 10162
  157.6512  130.8886  149.9637 LP  0  0  0  0  0  0  0  0  0  0  0  0  # atno 17370 bound_to 10713
  156.1052  130.3653  150.0147 LP  0  0  0  0  0  0  0  0  0  0  0  0  # atno 17371 bound_to 10713
  141.2224  133.7020  156.8003 LP  0  0  0  0  0  0  0  0  0  0  0  0  # atno 17394 bound_to 11000
  140.2220  134.8750  157.3386 LP  0  0  0  0  0  0  0  0  0  0  0  0  # atno 17395 bound_to 11000

$$$$
