AV-unprocessed.smi:1240|AV-procd|sdf|5204|dock1
  -GOLD-   22720 4293D 1   1.00000     0.00000
 Structure written by MMmdl.
 48 50  0  0  0  0  0  0  0  0  2 V2000
  145.6242  137.7339  154.2384 O   0  0  0  0  0  0  0  0  0  0  0  0
  146.6019  137.2458  153.6726 C   0  0  0  0  0  0  0  0  0  0  0  0
  147.8648  137.6259  153.9116 N   0  0  0  0  0  0  0  0  0  0  0  0
  148.2779  138.6654  154.8509 C   0  0  0  0  0  0  0  0  0  0  0  0
  149.1078  139.7730  154.1479 C   0  0  1  0  0  0  0  0  0  0  0  0
  148.2992  141.0964  153.9660 C   0  0  2  0  0  0  0  0  0  0  0  0
  148.0180  141.9137  155.2308 C   0  0  0  0  0  0  0  0  0  0  0  0
  146.5180  142.1968  155.1607 C   0  0  0  0  0  0  0  0  0  0  0  0
  146.2161  142.1185  153.7777 O   0  0  0  0  0  0  0  0  0  0  0  0
  146.9347  141.0103  153.2614 C   0  0  0  0  0  0  0  0  0  0  0  0
  150.4841  139.9383  154.6594 N   0  0  0  0  0  0  0  0  0  0  0  0
  151.2817  138.7158  154.5818 C   0  0  0  0  0  0  0  0  0  0  0  0
  152.7452  138.9625  154.9806 C   0  0  0  0  0  0  0  0  0  0  0  0
  152.7876  139.5062  156.2952 O   0  0  0  0  0  0  0  0  0  0  0  0
  152.0696  140.7305  156.4030 C   0  0  0  0  0  0  0  0  0  0  0  0
  150.6004  140.5208  155.9947 C   0  0  0  0  0  0  0  0  0  0  0  0
  146.5546  136.2918  152.7268 N   0  0  0  0  0  0  0  0  0  0  0  0
  145.4160  135.6338  152.1868 C   0  0  0  0  0  0  0  0  0  0  0  0
  145.5801  134.9421  150.9660 C   0  0  0  0  0  0  0  0  0  0  0  0
  144.4838  134.2610  150.3989 C   0  0  0  0  0  0  0  0  0  0  0  0
  143.2898  134.2660  151.0294 N   0  3  0  0  0  0  0  0  0  0  0  0
  143.0877  134.9004  152.2042 C   0  0  0  0  0  0  0  0  0  0  0  0
  144.1469  135.5985  152.8195 C   0  0  0  0  0  0  0  0  0  0  0  0
  148.6029  137.1691  153.3956 H   0  0  0  0  0  0  0  0  0  0  0  0
  147.4176  139.1042  155.3577 H   0  0  0  0  0  0  0  0  0  0  0  0
  148.8628  138.1673  155.6225 H   0  0  0  0  0  0  0  0  0  0  0  0
  149.2346  139.4194  153.1234 H   0  0  0  0  0  0  0  0  0  0  0  0
  148.9070  141.7441  153.3319 H   0  0  0  0  0  0  0  0  0  0  0  0
  148.2821  141.4186  156.1647 H   0  0  0  0  0  0  0  0  0  0  0  0
  148.5780  142.8492  155.1957 H   0  0  0  0  0  0  0  0  0  0  0  0
  145.9541  141.4317  155.6965 H   0  0  0  0  0  0  0  0  0  0  0  0
  146.2538  143.1695  155.5760 H   0  0  0  0  0  0  0  0  0  0  0  0
  147.0207  141.0821  152.1773 H   0  0  0  0  0  0  0  0  0  0  0  0
  146.3943  140.0928  153.4843 H   0  0  0  0  0  0  0  0  0  0  0  0
  150.8714  137.9516  155.2415 H   0  0  0  0  0  0  0  0  0  0  0  0
  151.2472  138.3113  153.5696 H   0  0  0  0  0  0  0  0  0  0  0  0
  153.3064  138.0283  154.9622 H   0  0  0  0  0  0  0  0  0  0  0  0
  153.2300  139.6425  154.2783 H   0  0  0  0  0  0  0  0  0  0  0  0
  152.1292  141.0902  157.4304 H   0  0  0  0  0  0  0  0  0  0  0  0
  152.5375  141.4877  155.7721 H   0  0  0  0  0  0  0  0  0  0  0  0
  150.1116  141.4904  156.0286 H   0  0  0  0  0  0  0  0  0  0  0  0
  150.1092  139.8823  156.7293 H   0  0  0  0  0  0  0  0  0  0  0  0
  147.4366  136.0516  152.2984 H   0  0  0  0  0  0  0  0  0  0  0  0
  146.5357  134.9358  150.4616 H   0  0  0  0  0  0  0  0  0  0  0  0
  144.5266  133.7151  149.4675 H   0  0  0  0  0  0  0  0  0  0  0  0
  142.0928  134.8265  152.6186 H   0  0  0  0  0  0  0  0  0  0  0  0
  143.9667  136.0811  153.7678 H   0  0  0  0  0  0  0  0  0  0  0  0
  142.5092  133.7657  150.6032 H   0  0  0  0  0  0  0  0  0  0  0  0
  1  2  2  0  0  0  0
  2  3  1  0  0  0  0
  2 17  1  0  0  0  0
  3  4  1  0  0  0  0
  3 24  1  0  0  0  0
  4  5  1  0  0  0  0
  4 25  1  0  0  0  0
  4 26  1  0  0  0  0
  5  6  1  0  0  0  0
  5 11  1  0  0  0  0
  5 27  1  0  0  0  0
  6 10  1  0  0  0  0
  6  7  1  0  0  0  0
  6 28  1  0  0  0  0
  7  8  1  0  0  0  0
  7 29  1  0  0  0  0
  7 30  1  0  0  0  0
  8  9  1  0  0  0  0
  8 31  1  0  0  0  0
  8 32  1  0  0  0  0
  9 10  1  0  0  0  0
 10 33  1  0  0  0  0
 10 34  1  0  0  0  0
 11 16  1  0  0  0  0
 11 12  1  0  0  0  0
 12 13  1  0  0  0  0
 12 35  1  0  0  0  0
 12 36  1  0  0  0  0
 13 14  1  0  0  0  0
 13 37  1  0  0  0  0
 13 38  1  0  0  0  0
 14 15  1  0  0  0  0
 15 16  1  0  0  0  0
 15 39  1  0  0  0  0
 15 40  1  0  0  0  0
 16 41  1  0  0  0  0
 16 42  1  0  0  0  0
 17 18  1  0  0  0  0
 17 43  1  0  0  0  0
 18 23  1  0  0  0  0
 18 19  2  0  0  0  0
 19 20  1  0  0  0  0
 19 44  1  0  0  0  0
 20 21  2  0  0  0  0
 20 45  1  0  0  0  0
 21 22  1  0  0  0  0
 21 48  1  0  0  0  0
 22 23  2  0  0  0  0
 22 46  1  0  0  0  0
 23 47  1  0  0  0  0
M  CHG  1  21   1
M  END
> <s_m_source_file>
AV-unprocessed.smi

> <i_m_source_file_index>
1240

> <i_lp_mmshare_version>
43012

> <i_f3d_flags>
0

> <s_epik_input>
W2NIXTFbY0hdbltjSF1bY0hdYzFbTkhdQyg9TylbTkhdW0NIMl1bQ0BIXShbQ0BASF0yW0NIMl1bQ0gyXU9bQ0gyXTIpTjNbQ0gyXVtDSDJdT1tDSDJdW0NIMl0z

> <s_epik_cmdline>
J2VwaWtfcHl0aG9uJywgJy1waCcsICc3LjAnLCAnLXRuJywgJzgnLCAnLW1hJywgJzIwMCcsICctbWV0YWxfYmluZGluZycsICctaW1hZScsICc8aW5maWxlLm1hZT4nLCAnLW9tYWUnLCAnPG91dGZpbGUubWFlPic=

> <r_epik_Ionization_Penalty>
1.15944

> <r_epik_Ionization_Penalty_Charging>
1.0344

> <r_epik_Ionization_Penalty_Neutral>
0.125034

> <r_epik_State_Penalty>
1.2199

> <r_epik_Charging_Adjusted_Penalty>
2.25431

> <i_epik_Tot_Q>
1

> <i_epik_Tot_abs_Q>
1

> <r_epik_Metal_State_Penalty>
1.3155

> <b_epik_Metal_Only>
0

> <s_lp_Force_Field>
OPLS_2005

> <r_lp_Energy>
64.7191

> <b_lp_Chiralities_Consistent>
1

> <s_lp_Variant>
AV-unprocessed.smi:1240-10

> <Gold.Version>
5.8.1

> <Gold.Id.Protein>
6NUR|6NUR_protein|mol2

> <Gold.PLP.Fitness>
47.8699

> <Gold.PLP.PLP>
-35.2493

> <Gold.PLP.part.hbond>
-5.0000

> <Gold.PLP.part.metal>
0.0000

> <Gold.PLP.part.buried>
-2.9816

> <Gold.PLP.part.nonpolar>
-28.5743

> <Gold.PLP.part.repulsive>
0.4029

> <Gold.PLP.ligand.clash>
0.0000

> <Gold.PLP.ligand.torsion>
0.9005

> <Gold.PLP.Chemscore.Hbond>
4.6840

> <Gold.PLP.Chemscore.CHOScore>
0.0000

> <Gold.PLP.Chemscore.Metal>
0.0000

> <Gold.Chemscore.Hbonds>
donor molecule, donor type, donor heavy atom, donor atom, acceptor molecule, acceptor atom, score
      L1  H     3    24       P1  7948  0.88
      L1  H    17    43       P1  7948  1.00
      L1  H    21    48       P1 10186  1.22
      P1  H  7989  7998       L1    11  0.65
      P1  H  7997  8008       L1    14  0.95

> <Gold.PLP.Chemscore.Internal.Correction>
0.3696

> <Gold.Rescore>
     Score         DG    S(hbond)    S(metal)    S(lipo)     H(rot)  DE(clash)    DE(int)     intcor
     17.37     -20.34       2.62        0.00      89.37       1.69       0.69       2.28       ----

> <Gold.Chemscore.Fitness>
17.3677

> <Gold.Chemscore.DG>
-20.3417

> <Gold.Chemscore.ZeroCoef>
-5.4800

> <Gold.Chemscore.Hbond>
2.6154

> <Gold.Chemscore.Metal>
0.0000

> <Gold.Chemscore.Lipo>
89.3660

> <Gold.Chemscore.Internal_Hbond>
0.0000

> <Gold.Chemscore.DEClash>
0.6898

> <Gold.Chemscore.DEInternal>
2.2842

> <Gold.Chemscore.Rot>
1.6912

> <Gold.Chemscore.Internal.Correction>
   9.000000E+99

> <Gold.Chemscore.Hbonds>
donor molecule, donor type, donor heavy atom, donor atom, acceptor molecule, acceptor atom, score
      L1  H     3    24       P1  7948  0.87
      L1  H    17    43       P1  7948  0.97
      L1  H    21    48       P1 10186  0.54
      P1  H  7989  7998       L1    11  0.03
      P1  H  7997  8008       L1    14  0.10

> <Gold.Chemscore.Hbond.Weighted>
-8.7353

> <Gold.Chemscore.Metal.Weighted>
-0.0000

> <Gold.Chemscore.Lipo.Weighted>
-10.4558

> <Gold.Chemscore.Internal_Hbond.Weighted>
0.0000

> <Gold.Chemscore.DEClash.Weighted>
0.6898

> <Gold.Chemscore.DEInternal.Weighted>
2.2842

> <Gold.Chemscore.Rot.Weighted>
4.3295

> <Gold.Chemscore.Internal.Correction.Weighted>
   9.000000E+99

> <Gold.Protein.RotatedTorsions>
[ 6907 6896 6895 6894 ] final  140.02 input  -60.11 | X-H torsion
[ 7974 7965 7964 7962 ] final  131.18 input  175.53 | X-H torsion
[ 8008 7997 7996 7995 ] final  -48.96 input   59.86 | X-H torsion
[ 10167 10162 10161 10158 ] final   60.05 input  -65.29 | X-H torsion
[ 10718 10713 10712 10709 ] final  -42.82 input   66.30 | X-H torsion
[ 10763 10752 10751 10750 ] final  -99.40 input  -60.55 | X-H torsion
[ 11005 11000 10999 10996 ] final   86.87 input  -57.11 | X-H torsion

> <Gold.Protein.ActiveResidues>
 VAL166  LYS551  ARG553  GLY616  TRP617  ASP618  TYR619  PRO620  LYS621  CYS622 
 ASP623  PHE694  ASN695  SER759  ASP760  ASP761  ALA762  ILE779  LEU786  VAL792 
 PHE793  MET794  SER795  GLU796  ALA797  LYS798  CYS799  TRP800  GLU811  SER814 

> <Gold.Protein.RotatedAtoms>
  152.2481  133.5191  159.5308 H   0  0  0  0  0  0  0  0  0  0  0  0  # atno 6907 bound_to 6896
  150.7085  134.0998  159.3970 H   0  0  0  0  0  0  0  0  0  0  0  0  # atno 6908 bound_to 6896
  151.8918  135.0413  160.0549 H   0  0  0  0  0  0  0  0  0  0  0  0  # atno 6909 bound_to 6896
  145.0100  139.4229  143.5249 H   0  0  0  0  0  0  0  0  0  0  0  0  # atno 7974 bound_to 7965
  154.4036  140.1308  156.4424 H   0  0  0  0  0  0  0  0  0  0  0  0  # atno 8008 bound_to 7997
  155.7446  140.3489  155.5101 H   0  0  0  0  0  0  0  0  0  0  0  0  # atno 8009 bound_to 7997
  155.9007  140.1019  157.1342 H   0  0  0  0  0  0  0  0  0  0  0  0  # atno 8010 bound_to 7997
  140.1698  144.4288  150.6667 H   0  0  0  0  0  0  0  0  0  0  0  0  # atno 10167 bound_to 10162
  156.2555  130.4192  149.8601 H   0  0  0  0  0  0  0  0  0  0  0  0  # atno 10718 bound_to 10713
  154.7494  135.4974  153.9262 H   0  0  0  0  0  0  0  0  0  0  0  0  # atno 10763 bound_to 10752
  153.1127  135.6713  153.9480 H   0  0  0  0  0  0  0  0  0  0  0  0  # atno 10764 bound_to 10752
  153.9234  135.3086  155.3426 H   0  0  0  0  0  0  0  0  0  0  0  0  # atno 10765 bound_to 10752
  139.8933  134.8385  156.2781 H   0  0  0  0  0  0  0  0  0  0  0  0  # atno 11005 bound_to 11000
  146.3468  139.9539  142.8725 LP  0  0  0  0  0  0  0  0  0  0  0  0  # atno 17320 bound_to 7965
  145.2036  140.9865  143.4141 LP  0  0  0  0  0  0  0  0  0  0  0  0  # atno 17321 bound_to 7965
  140.6589  143.2246  151.5902 LP  0  0  0  0  0  0  0  0  0  0  0  0  # atno 17342 bound_to 10162
  139.5343  144.2826  152.1217 LP  0  0  0  0  0  0  0  0  0  0  0  0  # atno 17343 bound_to 10162
  156.6135  130.8596  151.3459 LP  0  0  0  0  0  0  0  0  0  0  0  0  # atno 17370 bound_to 10713
  157.7231  130.9585  150.1519 LP  0  0  0  0  0  0  0  0  0  0  0  0  # atno 17371 bound_to 10713
  141.0056  133.7125  156.1030 LP  0  0  0  0  0  0  0  0  0  0  0  0  # atno 17394 bound_to 11000
  140.7438  134.4121  157.5551 LP  0  0  0  0  0  0  0  0  0  0  0  0  # atno 17395 bound_to 11000

$$$$
