AV-unprocessed.smi:703|AV-procd|sdf|3438|dock2
  -GOLD-   22720 0423D 1   1.00000     0.00000
 Structure written by MMmdl.
 37 38  0  0  0  0  0  0  0  0  3 V2000
  146.5205  138.4455  152.1844 C   0  0  0  0  0  0  0  0  0  0  0  0
  147.4341  139.2939  153.0791 C   0  0  0  0  0  0  0  0  0  0  0  0
  148.4685  138.4741  153.7531 N   0  3  1  0  0  0  0  0  0  0  0  0
  149.7870  139.1322  153.8651 C   0  0  0  0  0  0  0  0  0  0  0  0
  150.4736  138.4493  155.0510 C   0  0  1  0  0  0  0  0  0  0  0  0
  151.6562  139.2571  155.6205 C   0  0  0  0  0  0  0  0  0  0  0  0
  149.3040  138.2139  156.0205 C   0  0  2  0  0  0  0  0  0  0  0  0
  149.5631  137.0877  156.9031 N   0  5  0  0  0  0  0  0  0  0  0  0
  149.4455  137.2843  158.5090 S   0  0  0  0  0  0  0  0  0  0  0  0
  150.3480  136.3935  159.2569 O   0  0  0  0  0  0  0  0  0  0  0  0
  149.4427  138.7062  158.8896 O   0  0  0  0  0  0  0  0  0  0  0  0
  147.7279  136.6765  158.8125 C   0  0  0  0  0  0  0  0  0  0  0  0
  147.5646  136.2325  160.2407 C   0  0  0  0  0  0  0  0  0  0  0  0
  147.3276  134.9213  160.7396 C   0  0  0  0  0  0  0  0  0  0  0  0
  147.2680  135.0999  162.0914 C   0  0  0  0  0  0  0  0  0  0  0  0
  147.4622  136.4051  162.4078 O   0  0  0  0  0  0  0  0  0  0  0  0
  147.6559  137.1196  161.2201 N   0  0  0  0  0  0  0  0  0  0  0  0
  148.0989  137.9635  155.0963 C   0  0  0  0  0  0  0  0  0  0  0  0
  145.7965  139.0749  151.6666 H   0  0  0  0  0  0  0  0  0  0  0  0
  145.9606  137.7099  152.7625 H   0  0  0  0  0  0  0  0  0  0  0  0
  147.0959  137.9109  151.4282 H   0  0  0  0  0  0  0  0  0  0  0  0
  147.9304  140.0437  152.4615 H   0  0  0  0  0  0  0  0  0  0  0  0
  146.8468  139.8363  153.8216 H   0  0  0  0  0  0  0  0  0  0  0  0
  150.3570  139.0230  152.9417 H   0  0  0  0  0  0  0  0  0  0  0  0
  149.6607  140.2036  154.0455 H   0  0  0  0  0  0  0  0  0  0  0  0
  150.8484  137.4837  154.7049 H   0  0  0  0  0  0  0  0  0  0  0  0
  151.3554  140.2497  155.9605 H   0  0  0  0  0  0  0  0  0  0  0  0
  152.4238  139.3962  154.8589 H   0  0  0  0  0  0  0  0  0  0  0  0
  152.1284  138.7449  156.4608 H   0  0  0  0  0  0  0  0  0  0  0  0
  149.1284  139.1394  156.5708 H   0  0  0  0  0  0  0  0  0  0  0  0
  147.0449  137.4973  158.5957 H   0  0  0  0  0  0  0  0  0  0  0  0
  147.5097  135.8756  158.1058 H   0  0  0  0  0  0  0  0  0  0  0  0
  147.2101  133.9991  160.1901 H   0  0  0  0  0  0  0  0  0  0  0  0
  147.1042  134.4295  162.9220 H   0  0  0  0  0  0  0  0  0  0  0  0
  147.2098  138.4540  155.4954 H   0  0  0  0  0  0  0  0  0  0  0  0
  147.8675  136.9019  154.9963 H   0  0  0  0  0  0  0  0  0  0  0  0
  148.6204  137.6558  153.1811 H   0  0  0  0  0  0  0  0  0  0  0  0
  1  2  1  0  0  0  0
  1 19  1  0  0  0  0
  1 20  1  0  0  0  0
  1 21  1  0  0  0  0
  2  3  1  0  0  0  0
  2 22  1  0  0  0  0
  2 23  1  0  0  0  0
  3 18  1  0  0  0  0
  3  4  1  0  0  0  0
  3 37  1  0  0  0  0
  4  5  1  0  0  0  0
  4 24  1  0  0  0  0
  4 25  1  0  0  0  0
  5  6  1  0  0  0  0
  5  7  1  0  0  0  0
  5 26  1  0  0  0  0
  6 27  1  0  0  0  0
  6 28  1  0  0  0  0
  6 29  1  0  0  0  0
  7  8  1  0  0  0  0
  7 18  1  0  0  0  0
  7 30  1  0  0  0  0
  8  9  1  0  0  0  0
  9 10  2  0  0  0  0
  9 11  2  0  0  0  0
  9 12  1  0  0  0  0
 12 13  1  0  0  0  0
 12 31  1  0  0  0  0
 12 32  1  0  0  0  0
 13 17  2  0  0  0  0
 13 14  1  0  0  0  0
 14 15  2  0  0  0  0
 14 33  1  0  0  0  0
 15 16  1  0  0  0  0
 15 34  1  0  0  0  0
 16 17  1  0  0  0  0
 18 35  1  0  0  0  0
 18 36  1  0  0  0  0
M  CHG  1   3   1
M  CHG  1   8  -1
M  END
> <s_m_source_file>
AV-unprocessed.smi

> <i_m_source_file_index>
703

> <i_lp_mmshare_version>
43012

> <i_f3d_flags>
0

> <s_epik_input>
W0NIM11bQ0gyXU4xW0NIMl1bQ0BASF0oW0NIM10pW0NASF0oW0NIMl0xKVtOSF1TKD1PKSg9TylbQ0gyXWMyW2NIXVtjSF1vbjI=

> <s_epik_cmdline>
J2VwaWtfcHl0aG9uJywgJy1waCcsICc3LjAnLCAnLXRuJywgJzgnLCAnLW1hJywgJzIwMCcsICctbWV0YWxfYmluZGluZycsICctaW1hZScsICc8aW5maWxlLm1hZT4nLCAnLW9tYWUnLCAnPG91dGZpbGUubWFlPic=

> <r_epik_Ionization_Penalty>
3.62494

> <r_epik_Ionization_Penalty_Charging>
3.62494

> <r_epik_Ionization_Penalty_Neutral>
2.0321e-10

> <r_epik_State_Penalty>
3.62558

> <r_epik_Charging_Adjusted_Penalty>
7.25052

> <i_epik_Tot_Q>
0

> <i_epik_Tot_abs_Q>
2

> <r_epik_Metal_State_Penalty>
0.530836

> <b_epik_Metal_Only>
1

> <s_lp_Force_Field>
OPLS_2005

> <r_lp_Energy>
15.7429

> <b_lp_Chiralities_Consistent>
1

> <s_lp_Variant>
AV-unprocessed.smi:703-13

> <Gold.Version>
5.8.1

> <Gold.Id.Protein>
6NUR|6NUR_protein|mol2

> <Gold.PLP.Fitness>
39.1154

> <Gold.PLP.PLP>
-27.2051

> <Gold.PLP.part.hbond>
-5.6957

> <Gold.PLP.part.metal>
0.0000

> <Gold.PLP.part.buried>
0.1877

> <Gold.PLP.part.nonpolar>
-22.0033

> <Gold.PLP.part.repulsive>
0.0206

> <Gold.PLP.ligand.clash>
0.0000

> <Gold.PLP.ligand.torsion>
1.5108

> <Gold.PLP.Chemscore.Hbond>
4.6320

> <Gold.PLP.Chemscore.CHOScore>
0.0000

> <Gold.PLP.Chemscore.Metal>
0.0000

> <Gold.Chemscore.Hbonds>
donor molecule, donor type, donor heavy atom, donor atom, acceptor molecule, acceptor atom, score
      L1  H     3    37       P1  7948  2.00
      P1  H  6896  6908       L1    10  1.00
      P1  H  6931  6943       L1    17  0.78
      P1  H  6934  6947       L1    17  0.88

> <Gold.PLP.Chemscore.Internal.Correction>
1.0360

> <Gold.Rescore>
     Score         DG    S(hbond)    S(metal)    S(lipo)     H(rot)  DE(clash)    DE(int)     intcor
     16.32     -18.62       3.07        0.00      60.40       1.63       0.70       1.60       ----

> <Gold.Chemscore.Fitness>
16.3235

> <Gold.Chemscore.DG>
-18.6200

> <Gold.Chemscore.ZeroCoef>
-5.4800

> <Gold.Chemscore.Hbond>
3.0705

> <Gold.Chemscore.Metal>
0.0000

> <Gold.Chemscore.Lipo>
60.4008

> <Gold.Chemscore.Internal_Hbond>
0.0000

> <Gold.Chemscore.DEClash>
0.7001

> <Gold.Chemscore.DEInternal>
1.5964

> <Gold.Chemscore.Rot>
1.6338

> <Gold.Chemscore.Internal.Correction>
   9.000000E+99

> <Gold.Chemscore.Hbonds>
donor molecule, donor type, donor heavy atom, donor atom, acceptor molecule, acceptor atom, score
      L1  H     3    37       P1  7948  0.99
      P1  H  6896  6908       L1    10  0.99
      P1  H  6931  6943       L1    17  0.11
      P1  H  6934  6947       L1    17  0.83

> <Gold.Chemscore.Hbond.Weighted>
-10.2556

> <Gold.Chemscore.Metal.Weighted>
-0.0000

> <Gold.Chemscore.Lipo.Weighted>
-7.0669

> <Gold.Chemscore.Internal_Hbond.Weighted>
0.0000

> <Gold.Chemscore.DEClash.Weighted>
0.7001

> <Gold.Chemscore.DEInternal.Weighted>
1.5964

> <Gold.Chemscore.Rot.Weighted>
4.1825

> <Gold.Chemscore.Internal.Correction.Weighted>
   9.000000E+99

> <Gold.Protein.RotatedTorsions>
[ 6907 6896 6895 6894 ] final -161.50 input  -60.11 | X-H torsion
[ 7974 7965 7964 7962 ] final    0.64 input  175.53 | X-H torsion
[ 8008 7997 7996 7995 ] final  119.26 input   59.86 | X-H torsion
[ 10167 10162 10161 10158 ] final -157.10 input  -65.29 | X-H torsion
[ 10718 10713 10712 10709 ] final  -32.58 input   66.30 | X-H torsion
[ 10763 10752 10751 10750 ] final  134.56 input  -60.55 | X-H torsion
[ 11005 11000 10999 10996 ] final  -27.37 input  -57.11 | X-H torsion

> <Gold.Protein.ActiveResidues>
 VAL166  LYS551  ARG553  GLY616  TRP617  ASP618  TYR619  PRO620  LYS621  CYS622 
 ASP623  PHE694  ASN695  SER759  ASP760  ASP761  ALA762  ILE779  LEU786  VAL792 
 PHE793  MET794  SER795  GLU796  ALA797  LYS798  CYS799  TRP800  GLU811  SER814 

> <Gold.Protein.RotatedAtoms>
  151.3657  133.3873  159.2694 H   0  0  0  0  0  0  0  0  0  0  0  0  # atno 6907 bound_to 6896
  150.9690  134.9067  159.7787 H   0  0  0  0  0  0  0  0  0  0  0  0  # atno 6908 bound_to 6896
  152.5178  134.3618  159.9340 H   0  0  0  0  0  0  0  0  0  0  0  0  # atno 6909 bound_to 6896
  146.2435  140.1108  142.8344 H   0  0  0  0  0  0  0  0  0  0  0  0  # atno 7974 bound_to 7965
  156.2587  140.2857  156.0964 H   0  0  0  0  0  0  0  0  0  0  0  0  # atno 8008 bound_to 7997
  155.1407  140.0395  157.2815 H   0  0  0  0  0  0  0  0  0  0  0  0  # atno 8009 bound_to 7997
  154.6532  140.2549  155.7197 H   0  0  0  0  0  0  0  0  0  0  0  0  # atno 8010 bound_to 7997
  139.6797  143.9602  152.2330 H   0  0  0  0  0  0  0  0  0  0  0  0  # atno 10167 bound_to 10162
  156.3732  130.4343  149.7529 H   0  0  0  0  0  0  0  0  0  0  0  0  # atno 10718 bound_to 10713
  153.8256  135.3110  155.3414 H   0  0  0  0  0  0  0  0  0  0  0  0  # atno 10763 bound_to 10752
  154.7994  135.4735  154.0243 H   0  0  0  0  0  0  0  0  0  0  0  0  # atno 10764 bound_to 10752
  153.1666  135.6870  153.8757 H   0  0  0  0  0  0  0  0  0  0  0  0  # atno 10765 bound_to 10752
  140.9113  133.7459  156.0674 H   0  0  0  0  0  0  0  0  0  0  0  0  # atno 11005 bound_to 11000
  145.0489  140.9002  143.5007 LP  0  0  0  0  0  0  0  0  0  0  0  0  # atno 17320 bound_to 7965
  145.1202  139.2699  143.5592 LP  0  0  0  0  0  0  0  0  0  0  0  0  # atno 17321 bound_to 7965
  139.9388  144.6694  150.8287 LP  0  0  0  0  0  0  0  0  0  0  0  0  # atno 17342 bound_to 10162
  140.7648  143.3258  151.2519 LP  0  0  0  0  0  0  0  0  0  0  0  0  # atno 17343 bound_to 10162
  156.4648  130.7969  151.2988 LP  0  0  0  0  0  0  0  0  0  0  0  0  # atno 17370 bound_to 10713
  157.7486  131.0054  150.3113 LP  0  0  0  0  0  0  0  0  0  0  0  0  # atno 17371 bound_to 10713
  140.8107  134.3403  157.5412 LP  0  0  0  0  0  0  0  0  0  0  0  0  # atno 17394 bound_to 11000
  139.8758  134.9252  156.3369 LP  0  0  0  0  0  0  0  0  0  0  0  0  # atno 17395 bound_to 11000

$$$$
