AV-unprocessed.smi:1196|AV-procd|sdf|4997|dock7
  -GOLD-   22720 4 03D 1   1.00000     0.00000
 Structure written by MMmdl.
 37 38  0  0  0  0  0  0  0  0  1 V2000
  160.0137  135.7706  153.2245 C   0  0  0  0  0  0  0  0  0  0  0  0
  158.7131  134.9536  153.2797 C   0  0  1  0  0  0  0  0  0  0  0  0
  157.7250  135.3941  152.1823 C   0  0  0  0  0  0  0  0  0  0  0  0
  157.2299  136.7431  152.3937 N   0  0  0  0  0  0  0  0  0  0  0  0
  157.4353  137.8610  151.6131 C   0  0  0  0  0  0  0  0  0  0  0  0
  156.7830  138.9002  152.2121 C   0  0  0  0  0  0  0  0  0  0  0  0
  156.1999  138.3115  153.3690 C   0  0  0  0  0  0  0  0  0  0  0  0
  156.4696  137.0202  153.4757 N   0  0  0  0  0  0  0  0  0  0  0  0
  159.0107  133.5296  153.1427 N   0  0  0  0  0  0  0  0  0  0  0  0
  159.6521  132.9612  152.1106 C   0  0  0  0  0  0  0  0  0  0  0  0
  160.0496  133.5916  151.1306 O   0  0  0  0  0  0  0  0  0  0  0  0
  159.8857  131.4518  152.2085 C   0  0  0  0  0  0  0  0  0  0  0  0
  160.9791  130.9560  151.2436 C   0  0  0  0  0  0  0  0  0  0  0  0
  160.5962  131.1308  149.7613 C   0  0  2  0  0  0  0  0  0  0  0  0
  159.2437  130.6845  149.4729 N   0  0  0  0  0  0  0  0  0  0  0  0
  159.2116  129.7029  148.5614 C   0  0  0  0  0  0  0  0  0  0  0  0
  158.2025  129.1471  148.1343 O   0  0  0  0  0  0  0  0  0  0  0  0
  160.4708  129.4344  148.1995 N   0  0  0  0  0  0  0  0  0  0  0  0
  161.3573  130.1937  148.8408 C   0  0  0  0  0  0  0  0  0  0  0  0
  162.5809  130.1605  148.7263 O   0  0  0  0  0  0  0  0  0  0  0  0
  159.8116  136.8361  153.3363 H   0  0  0  0  0  0  0  0  0  0  0  0
  160.5321  135.6281  152.2758 H   0  0  0  0  0  0  0  0  0  0  0  0
  160.6969  135.4827  154.0242 H   0  0  0  0  0  0  0  0  0  0  0  0
  158.2416  135.1303  154.2485 H   0  0  0  0  0  0  0  0  0  0  0  0
  158.2139  135.3687  151.2077 H   0  0  0  0  0  0  0  0  0  0  0  0
  156.8797  134.7062  152.1228 H   0  0  0  0  0  0  0  0  0  0  0  0
  158.0240  137.8241  150.7081 H   0  0  0  0  0  0  0  0  0  0  0  0
  156.7307  139.9250  151.8757 H   0  0  0  0  0  0  0  0  0  0  0  0
  155.5932  138.7810  154.1293 H   0  0  0  0  0  0  0  0  0  0  0  0
  158.7290  132.9340  153.9081 H   0  0  0  0  0  0  0  0  0  0  0  0
  160.1556  131.2173  153.2386 H   0  0  0  0  0  0  0  0  0  0  0  0
  158.9523  130.9255  152.0026 H   0  0  0  0  0  0  0  0  0  0  0  0
  161.9023  131.5050  151.4376 H   0  0  0  0  0  0  0  0  0  0  0  0
  161.2019  129.9064  151.4456 H   0  0  0  0  0  0  0  0  0  0  0  0
  160.7284  132.1627  149.4341 H   0  0  0  0  0  0  0  0  0  0  0  0
  158.4274  131.0812  149.9153 H   0  0  0  0  0  0  0  0  0  0  0  0
  160.7219  128.7280  147.5234 H   0  0  0  0  0  0  0  0  0  0  0  0
  1  2  1  0  0  0  0
  1 21  1  0  0  0  0
  1 22  1  0  0  0  0
  1 23  1  0  0  0  0
  2  3  1  0  0  0  0
  2  9  1  0  0  0  0
  2 24  1  0  0  0  0
  3  4  1  0  0  0  0
  3 25  1  0  0  0  0
  3 26  1  0  0  0  0
  4  8  1  0  0  0  0
  4  5  1  0  0  0  0
  5  6  2  0  0  0  0
  5 27  1  0  0  0  0
  6  7  1  0  0  0  0
  6 28  1  0  0  0  0
  7  8  2  0  0  0  0
  7 29  1  0  0  0  0
  9 10  1  0  0  0  0
  9 30  1  0  0  0  0
 10 11  2  0  0  0  0
 10 12  1  0  0  0  0
 12 13  1  0  0  0  0
 12 31  1  0  0  0  0
 12 32  1  0  0  0  0
 13 14  1  0  0  0  0
 13 33  1  0  0  0  0
 13 34  1  0  0  0  0
 14 19  1  0  0  0  0
 14 15  1  0  0  0  0
 14 35  1  0  0  0  0
 15 16  1  0  0  0  0
 15 36  1  0  0  0  0
 16 17  2  0  0  0  0
 16 18  1  0  0  0  0
 18 19  1  0  0  0  0
 18 37  1  0  0  0  0
 19 20  2  0  0  0  0
M  END
> <s_m_source_file>
AV-unprocessed.smi

> <i_m_source_file_index>
1196

> <i_lp_mmshare_version>
43012

> <i_f3d_flags>
0

> <s_epik_input>
bjFbY0hdW2NIXVtjSF1uMVtDSDJdW0NAQEhdKFtDSDNdKVtOSF1DKD1PKVtDSDJdW0NIMl1bQ0BASF0yW05IXUMoPU8pW05IXUMyPU8=

> <s_epik_cmdline>
J2VwaWtfcHl0aG9uJywgJy1waCcsICc3LjAnLCAnLXRuJywgJzgnLCAnLW1hJywgJzIwMCcsICctbWV0YWxfYmluZGluZycsICctaW1hZScsICc8aW5maWxlLm1hZT4nLCAnLW9tYWUnLCAnPG91dGZpbGUubWFlPic=

> <r_lp_tautomer_probability>
1

> <r_epik_Ionization_Penalty>
0.00815973

> <r_epik_Ionization_Penalty_Charging>
0

> <r_epik_Ionization_Penalty_Neutral>
0.00815973

> <r_epik_State_Penalty>
0.00583796

> <r_epik_Charging_Adjusted_Penalty>
0.00583796

> <i_epik_Tot_Q>
0

> <i_epik_Tot_abs_Q>
0

> <r_epik_Metal_State_Penalty>
0.409204

> <b_epik_Metal_Only>
0

> <s_lp_Force_Field>
OPLS_2005

> <r_lp_Energy>
16.5203

> <b_lp_Chiralities_Consistent>
1

> <s_lp_Variant>
AV-unprocessed.smi:1196-2

> <Gold.Version>
5.8.1

> <Gold.Id.Protein>
6NUR|6NUR_protein|mol2

> <Gold.PLP.Fitness>
42.9651

> <Gold.PLP.PLP>
-35.6499

> <Gold.PLP.part.hbond>
-4.8617

> <Gold.PLP.part.metal>
0.0000

> <Gold.PLP.part.buried>
-4.2558

> <Gold.PLP.part.nonpolar>
-28.3164

> <Gold.PLP.part.repulsive>
0.3011

> <Gold.PLP.ligand.clash>
0.0000

> <Gold.PLP.ligand.torsion>
0.4841

> <Gold.PLP.Chemscore.Hbond>
1.9670

> <Gold.PLP.Chemscore.CHOScore>
0.7743

> <Gold.PLP.Chemscore.Metal>
0.0000

> <Gold.Chemscore.Hbonds>
donor molecule, donor type, donor heavy atom, donor atom, acceptor molecule, acceptor atom, score
      P1  H 10719 10728       L1    17  0.04
      P1  H 10752 10763       L1     8  0.27
      L1  C     5    27       P1 10674  0.68

> <Gold.PLP.Chemscore.Internal.Correction>
0.0596

> <Gold.Rescore>
     Score         DG    S(hbond)    S(metal)    S(lipo)     H(rot)  DE(clash)    DE(int)     intcor
      9.54     -12.78       1.55        0.00      82.95       2.96       0.40       2.83       ----

> <Gold.Chemscore.Fitness>
9.5411

> <Gold.Chemscore.DG>
-12.7753

> <Gold.Chemscore.ZeroCoef>
-5.4800

> <Gold.Chemscore.Hbond>
1.5455

> <Gold.Chemscore.Metal>
0.0000

> <Gold.Chemscore.Lipo>
82.9471

> <Gold.Chemscore.Internal_Hbond>
0.0000

> <Gold.Chemscore.DEClash>
0.3996

> <Gold.Chemscore.DEInternal>
2.8345

> <Gold.Chemscore.Rot>
2.9575

> <Gold.Chemscore.Internal.Correction>
   9.000000E+99

> <Gold.Chemscore.Hbonds>
donor molecule, donor type, donor heavy atom, donor atom, acceptor molecule, acceptor atom, score
      P1  H 10719 10728       L1    17  0.06
      P1  H 10752 10763       L1     8  0.26

> <Gold.Chemscore.Hbond.Weighted>
-5.1618

> <Gold.Chemscore.Metal.Weighted>
-0.0000

> <Gold.Chemscore.Lipo.Weighted>
-9.7048

> <Gold.Chemscore.Internal_Hbond.Weighted>
0.0000

> <Gold.Chemscore.DEClash.Weighted>
0.3996

> <Gold.Chemscore.DEInternal.Weighted>
2.8345

> <Gold.Chemscore.Rot.Weighted>
7.5713

> <Gold.Chemscore.Internal.Correction.Weighted>
   9.000000E+99

> <Gold.Protein.RotatedTorsions>
[ 6907 6896 6895 6894 ] final  164.78 input  -60.11 | X-H torsion
[ 7974 7965 7964 7962 ] final -141.01 input  175.53 | X-H torsion
[ 8008 7997 7996 7995 ] final -179.78 input   59.86 | X-H torsion
[ 10167 10162 10161 10158 ] final  117.86 input  -65.29 | X-H torsion
[ 10718 10713 10712 10709 ] final   90.56 input   66.30 | X-H torsion
[ 10763 10752 10751 10750 ] final -119.51 input  -60.55 | X-H torsion
[ 11005 11000 10999 10996 ] final -131.06 input  -57.11 | X-H torsion

> <Gold.Protein.ActiveResidues>
 VAL166  LYS551  ARG553  GLY616  TRP617  ASP618  TYR619  PRO620  LYS621  CYS622 
 ASP623  PHE694  ASN695  SER759  ASP760  ASP761  ALA762  ILE779  LEU786  VAL792 
 PHE793  MET794  SER795  GLU796  ALA797  LYS798  CYS799  TRP800  GLU811  SER814 

> <Gold.Protein.RotatedAtoms>
  151.9046  133.3546  159.3842 H   0  0  0  0  0  0  0  0  0  0  0  0  # atno 6907 bound_to 6896
  150.7072  134.4793  159.5472 H   0  0  0  0  0  0  0  0  0  0  0  0  # atno 6908 bound_to 6896
  152.2388  134.8249  160.0514 H   0  0  0  0  0  0  0  0  0  0  0  0  # atno 6909 bound_to 6896
  144.8552  140.6131  143.5364 H   0  0  0  0  0  0  0  0  0  0  0  0  # atno 7974 bound_to 7965
  156.0344  140.1289  157.0223 H   0  0  0  0  0  0  0  0  0  0  0  0  # atno 8008 bound_to 7997
  154.4364  140.1043  156.6217 H   0  0  0  0  0  0  0  0  0  0  0  0  # atno 8009 bound_to 7997
  155.5759  140.3467  155.4529 H   0  0  0  0  0  0  0  0  0  0  0  0  # atno 8010 bound_to 7997
  139.6150  144.7090  151.2759 H   0  0  0  0  0  0  0  0  0  0  0  0  # atno 10167 bound_to 10162
  157.6959  131.0375  150.3597 H   0  0  0  0  0  0  0  0  0  0  0  0  # atno 10718 bound_to 10713
  154.8619  135.4236  154.2310 H   0  0  0  0  0  0  0  0  0  0  0  0  # atno 10763 bound_to 10752
  153.3295  135.6987  153.6965 H   0  0  0  0  0  0  0  0  0  0  0  0  # atno 10764 bound_to 10752
  153.5988  135.3541  155.2911 H   0  0  0  0  0  0  0  0  0  0  0  0  # atno 10765 bound_to 10752
  140.9292  134.1342  157.4249 H   0  0  0  0  0  0  0  0  0  0  0  0  # atno 11005 bound_to 11000
  145.4419  139.1534  143.3965 LP  0  0  0  0  0  0  0  0  0  0  0  0  # atno 17320 bound_to 7965
  146.2817  140.4541  142.8773 LP  0  0  0  0  0  0  0  0  0  0  0  0  # atno 17321 bound_to 7965
  140.7345  143.6764  150.8038 LP  0  0  0  0  0  0  0  0  0  0  0  0  # atno 17342 bound_to 10162
  140.0365  143.5389  152.2737 LP  0  0  0  0  0  0  0  0  0  0  0  0  # atno 17343 bound_to 10162
  156.4035  130.3920  149.6943 LP  0  0  0  0  0  0  0  0  0  0  0  0  # atno 17370 bound_to 10713
  156.4252  130.7788  151.2806 LP  0  0  0  0  0  0  0  0  0  0  0  0  # atno 17371 bound_to 10713
  139.8792  134.9999  156.5979 LP  0  0  0  0  0  0  0  0  0  0  0  0  # atno 17394 bound_to 11000
  140.7886  133.8601  155.8627 LP  0  0  0  0  0  0  0  0  0  0  0  0  # atno 17395 bound_to 11000

$$$$
