AV-unprocessed.smi:2190|AV-procd|sdf|8888|dock4
  -GOLD-   2272012 93D 1   1.00000     0.00000
 Structure written by MMmdl.
 46 48  0  0  0  0  0  0  0  0  1 V2000
  146.4798  138.0869  151.4798 C   0  0  0  0  0  0  0  0  0  0  0  0
  146.5745  138.3879  152.9615 C   0  0  0  0  0  0  0  0  0  0  0  0
  145.5088  138.0640  153.8228 C   0  0  0  0  0  0  0  0  0  0  0  0
  145.6063  138.3457  155.1972 C   0  0  0  0  0  0  0  0  0  0  0  0
  146.7682  138.9515  155.7189 C   0  0  0  0  0  0  0  0  0  0  0  0
  146.8567  139.2468  157.2044 C   0  0  0  0  0  0  0  0  0  0  0  0
  147.8466  139.2816  154.8653 C   0  0  0  0  0  0  0  0  0  0  0  0
  148.9546  139.8705  155.4399 O   0  0  0  0  0  0  0  0  0  0  0  0
  150.2283  139.6399  154.8529 C   0  0  0  0  0  0  0  0  0  0  0  0
  151.3074  140.2949  155.7298 C   0  0  2  0  0  0  0  0  0  0  0  0
  152.5741  140.0274  155.1605 O   0  0  0  0  0  0  0  0  0  0  0  0
  151.2769  139.7536  157.1743 C   0  0  0  0  0  0  0  0  0  0  0  0
  152.0558  140.5636  158.1025 N   0  0  0  0  0  0  0  0  0  0  0  0
  153.0631  140.1618  158.9184 C   0  0  0  0  0  0  0  0  0  0  0  0
  153.5206  138.7306  158.9495 C   0  0  0  0  0  0  0  0  0  0  0  0
  154.8424  138.5387  158.4869 O   0  0  0  0  0  0  0  0  0  0  0  0
  153.6131  141.1193  159.6692 N   0  0  0  0  0  0  0  0  0  0  0  0
  152.8978  142.2430  159.3065 C   0  0  0  0  0  0  0  0  0  0  0  0
  153.0041  143.5812  159.7483 C   0  0  0  0  0  0  0  0  0  0  0  0
  152.1524  144.5758  159.2244 C   0  0  0  0  0  0  0  0  0  0  0  0
  151.1849  144.2473  158.2530 C   0  0  0  0  0  0  0  0  0  0  0  0
  151.0629  142.9200  157.7986 C   0  0  0  0  0  0  0  0  0  0  0  0
  151.9152  141.9305  158.3253 C   0  0  0  0  0  0  0  0  0  0  0  0
  147.7368  138.9924  153.4809 C   0  0  0  0  0  0  0  0  0  0  0  0
  145.4737  137.7716  151.2016 H   0  0  0  0  0  0  0  0  0  0  0  0
  147.1742  137.2902  151.2124 H   0  0  0  0  0  0  0  0  0  0  0  0
  146.7309  138.9724  150.8954 H   0  0  0  0  0  0  0  0  0  0  0  0
  144.6142  137.5989  153.4349 H   0  0  0  0  0  0  0  0  0  0  0  0
  144.7836  138.0935  155.8500 H   0  0  0  0  0  0  0  0  0  0  0  0
  147.0256  140.3112  157.3705 H   0  0  0  0  0  0  0  0  0  0  0  0
  147.6840  138.6938  157.6500 H   0  0  0  0  0  0  0  0  0  0  0  0
  145.9408  138.9642  157.7241 H   0  0  0  0  0  0  0  0  0  0  0  0
  150.3985  138.5625  154.8190 H   0  0  0  0  0  0  0  0  0  0  0  0
  150.2770  140.0184  153.8301 H   0  0  0  0  0  0  0  0  0  0  0  0
  151.1544  141.3741  155.7471 H   0  0  0  0  0  0  0  0  0  0  0  0
  152.5856  139.1321  154.8587 H   0  0  0  0  0  0  0  0  0  0  0  0
  150.2501  139.6982  157.5364 H   0  0  0  0  0  0  0  0  0  0  0  0
  151.6580  138.7318  157.2017 H   0  0  0  0  0  0  0  0  0  0  0  0
  153.4587  138.3523  159.9693 H   0  0  0  0  0  0  0  0  0  0  0  0
  152.8494  138.1297  158.3357 H   0  0  0  0  0  0  0  0  0  0  0  0
  155.1935  137.7615  158.8935 H   0  0  0  0  0  0  0  0  0  0  0  0
  153.7425  143.8423  160.4918 H   0  0  0  0  0  0  0  0  0  0  0  0
  152.2418  145.5952  159.5700 H   0  0  0  0  0  0  0  0  0  0  0  0
  150.5361  145.0148  157.8571 H   0  0  0  0  0  0  0  0  0  0  0  0
  150.3212  142.6658  157.0564 H   0  0  0  0  0  0  0  0  0  0  0  0
  148.5361  139.2250  152.7938 H   0  0  0  0  0  0  0  0  0  0  0  0
  1  2  1  0  0  0  0
  1 25  1  0  0  0  0
  1 26  1  0  0  0  0
  1 27  1  0  0  0  0
  2 24  1  0  0  0  0
  2  3  2  0  0  0  0
  3  4  1  0  0  0  0
  3 28  1  0  0  0  0
  4  5  2  0  0  0  0
  4 29  1  0  0  0  0
  5  6  1  0  0  0  0
  5  7  1  0  0  0  0
  6 30  1  0  0  0  0
  6 31  1  0  0  0  0
  6 32  1  0  0  0  0
  7  8  1  0  0  0  0
  7 24  2  0  0  0  0
  8  9  1  0  0  0  0
  9 10  1  0  0  0  0
  9 33  1  0  0  0  0
  9 34  1  0  0  0  0
 10 11  1  0  0  0  0
 10 12  1  0  0  0  0
 10 35  1  0  0  0  0
 11 36  1  0  0  0  0
 12 13  1  0  0  0  0
 12 37  1  0  0  0  0
 12 38  1  0  0  0  0
 13 23  1  0  0  0  0
 13 14  1  0  0  0  0
 14 15  1  0  0  0  0
 14 17  2  0  0  0  0
 15 16  1  0  0  0  0
 15 39  1  0  0  0  0
 15 40  1  0  0  0  0
 16 41  1  0  0  0  0
 17 18  1  0  0  0  0
 18 23  2  0  0  0  0
 18 19  1  0  0  0  0
 19 20  2  0  0  0  0
 19 42  1  0  0  0  0
 20 21  1  0  0  0  0
 20 43  1  0  0  0  0
 21 22  2  0  0  0  0
 21 44  1  0  0  0  0
 22 23  1  0  0  0  0
 22 45  1  0  0  0  0
 24 46  1  0  0  0  0
M  END
> <s_m_source_file>
AV-unprocessed.smi

> <i_m_source_file_index>
2190

> <i_lp_mmshare_version>
43012

> <i_f3d_flags>
0

> <s_epik_input>
W0NIM11jMVtjSF1bY0hdYyhbQ0gzXSljKFtjSF0xKU9bQ0gyXVtDQEhdKFtPSF0pW0NIMl1uKGMobjIpW0NIMl1bT0hdKWMoYzIzKVtjSF1bY0hdW2NIXVtjSF0z

> <s_epik_cmdline>
J2VwaWtfcHl0aG9uJywgJy1waCcsICc3LjAnLCAnLXRuJywgJzgnLCAnLW1hJywgJzIwMCcsICctbWV0YWxfYmluZGluZycsICctaW1hZScsICc8aW5maWxlLm1hZT4nLCAnLW9tYWUnLCAnPG91dGZpbGUubWFlPic=

> <r_lp_tautomer_probability>
1

> <r_epik_Ionization_Penalty>
0.0555874

> <r_epik_Ionization_Penalty_Charging>
0

> <r_epik_Ionization_Penalty_Neutral>
0.0555874

> <r_epik_State_Penalty>
0.0478234

> <r_epik_Charging_Adjusted_Penalty>
0.0478234

> <i_epik_Tot_Q>
0

> <i_epik_Tot_abs_Q>
0

> <r_epik_Metal_State_Penalty>
4.98044e-05

> <b_epik_Metal_Only>
0

> <s_lp_Force_Field>
OPLS_2005

> <r_lp_Energy>
17.5677

> <b_lp_Chiralities_Consistent>
1

> <s_lp_Variant>
AV-unprocessed.smi:2190-1

> <Gold.Version>
5.8.1

> <Gold.Id.Protein>
6NUR|6NUR_protein|mol2

> <Gold.PLP.Fitness>
46.0333

> <Gold.PLP.PLP>
-40.8953

> <Gold.PLP.part.hbond>
-3.0000

> <Gold.PLP.part.metal>
0.0000

> <Gold.PLP.part.buried>
-1.1025

> <Gold.PLP.part.nonpolar>
-37.4265

> <Gold.PLP.part.repulsive>
0.0365

> <Gold.PLP.ligand.clash>
0.0000

> <Gold.PLP.ligand.torsion>
0.5240

> <Gold.PLP.Chemscore.Hbond>
2.0441

> <Gold.PLP.Chemscore.CHOScore>
0.0000

> <Gold.PLP.Chemscore.Metal>
0.0000

> <Gold.Chemscore.Hbonds>
donor molecule, donor type, donor heavy atom, donor atom, acceptor molecule, acceptor atom, score
      P1  H  7989  7998       L1    11  0.05
      P1  H  7997  8008       L1    11  0.99
      P1  H  7997  8010       L1    16  1.00

> <Gold.PLP.Chemscore.Internal.Correction>
0.0538

> <Gold.Rescore>
     Score         DG    S(hbond)    S(metal)    S(lipo)     H(rot)  DE(clash)    DE(int)     intcor
     12.65     -13.18       1.03        0.00     101.18       2.96       0.01       0.52       ----

> <Gold.Chemscore.Fitness>
12.6516

> <Gold.Chemscore.DG>
-13.1799

> <Gold.Chemscore.ZeroCoef>
-5.4800

> <Gold.Chemscore.Hbond>
1.0267

> <Gold.Chemscore.Metal>
0.0000

> <Gold.Chemscore.Lipo>
101.1825

> <Gold.Chemscore.Internal_Hbond>
0.0000

> <Gold.Chemscore.DEClash>
0.0093

> <Gold.Chemscore.DEInternal>
0.5189

> <Gold.Chemscore.Rot>
2.9561

> <Gold.Chemscore.Internal.Correction>
   9.000000E+99

> <Gold.Chemscore.Hbonds>
donor molecule, donor type, donor heavy atom, donor atom, acceptor molecule, acceptor atom, score
      P1  H  7997  8008       L1    11  0.28
      P1  H  7997  8010       L1    16  0.64

> <Gold.Chemscore.Hbond.Weighted>
-3.4292

> <Gold.Chemscore.Metal.Weighted>
-0.0000

> <Gold.Chemscore.Lipo.Weighted>
-11.8384

> <Gold.Chemscore.Internal_Hbond.Weighted>
0.0000

> <Gold.Chemscore.DEClash.Weighted>
0.0093

> <Gold.Chemscore.DEInternal.Weighted>
0.5189

> <Gold.Chemscore.Rot.Weighted>
7.5677

> <Gold.Chemscore.Internal.Correction.Weighted>
   9.000000E+99

> <Gold.Protein.RotatedTorsions>
[ 6907 6896 6895 6894 ] final  109.64 input  -60.11 | X-H torsion
[ 7974 7965 7964 7962 ] final  -84.08 input  175.53 | X-H torsion
[ 8008 7997 7996 7995 ] final  -10.35 input   59.86 | X-H torsion
[ 10167 10162 10161 10158 ] final  -77.56 input  -65.29 | X-H torsion
[ 10718 10713 10712 10709 ] final  -49.43 input   66.30 | X-H torsion
[ 10763 10752 10751 10750 ] final -144.44 input  -60.55 | X-H torsion
[ 11005 11000 10999 10996 ] final -112.23 input  -57.11 | X-H torsion

> <Gold.Protein.ActiveResidues>
 VAL166  LYS551  ARG553  GLY616  TRP617  ASP618  TYR619  PRO620  LYS621  CYS622 
 ASP623  PHE694  ASN695  SER759  ASP760  ASP761  ALA762  ILE779  LEU786  VAL792 
 PHE793  MET794  SER795  GLU796  ALA797  LYS798  CYS799  TRP800  GLU811  SER814 

> <Gold.Protein.RotatedAtoms>
  152.5058  133.8915  159.7395 H   0  0  0  0  0  0  0  0  0  0  0  0  # atno 6907 bound_to 6896
  150.9353  133.6711  159.2809 H   0  0  0  0  0  0  0  0  0  0  0  0  # atno 6908 bound_to 6896
  151.4041  135.0980  159.9617 H   0  0  0  0  0  0  0  0  0  0  0  0  # atno 6909 bound_to 6896
  145.5115  140.9539  143.1705 H   0  0  0  0  0  0  0  0  0  0  0  0  # atno 7974 bound_to 7965
  154.5563  140.2331  155.8405 H   0  0  0  0  0  0  0  0  0  0  0  0  # atno 8008 bound_to 7997
  156.1991  140.3057  155.9448 H   0  0  0  0  0  0  0  0  0  0  0  0  # atno 8009 bound_to 7997
  155.2974  140.0429  157.3018 H   0  0  0  0  0  0  0  0  0  0  0  0  # atno 8010 bound_to 7997
  140.4759  143.2414  151.8133 H   0  0  0  0  0  0  0  0  0  0  0  0  # atno 10167 bound_to 10162
  156.1894  130.4152  149.9393 H   0  0  0  0  0  0  0  0  0  0  0  0  # atno 10718 bound_to 10713
  154.8428  135.3440  154.6347 H   0  0  0  0  0  0  0  0  0  0  0  0  # atno 10763 bound_to 10752
  153.6957  135.6972  153.5082 H   0  0  0  0  0  0  0  0  0  0  0  0  # atno 10764 bound_to 10752
  153.2561  135.4338  155.0802 H   0  0  0  0  0  0  0  0  0  0  0  0  # atno 10765 bound_to 10752
  141.0687  133.9416  157.2528 H   0  0  0  0  0  0  0  0  0  0  0  0  # atno 11005 bound_to 11000
  144.7725  139.6703  143.7189 LP  0  0  0  0  0  0  0  0  0  0  0  0  # atno 17320 bound_to 7965
  146.2164  139.5556  142.9647 LP  0  0  0  0  0  0  0  0  0  0  0  0  # atno 17321 bound_to 7965
  139.4825  144.4833  151.9278 LP  0  0  0  0  0  0  0  0  0  0  0  0  # atno 17342 bound_to 10162
  140.3919  144.2605  150.5899 LP  0  0  0  0  0  0  0  0  0  0  0  0  # atno 17343 bound_to 10162
  156.7139  130.8980  151.3612 LP  0  0  0  0  0  0  0  0  0  0  0  0  # atno 17370 bound_to 10713
  157.6919  130.9242  150.0537 LP  0  0  0  0  0  0  0  0  0  0  0  0  # atno 17371 bound_to 10713
  139.9502  135.0177  156.8971 LP  0  0  0  0  0  0  0  0  0  0  0  0  # atno 17394 bound_to 11000
  140.5719  134.0435  155.7433 LP  0  0  0  0  0  0  0  0  0  0  0  0  # atno 17395 bound_to 11000

$$$$
