AV-unprocessed.smi:2855|AV-procd|sdf|10984|dock6
  -GOLD-   2272015433D 1   1.00000     0.00000
 Structure written by MMmdl.
 47 48  0  0  0  0  0  0  0  0  1 V2000
  151.5902  142.7858  159.3487 C   0  0  0  0  0  0  0  0  0  0  0  0
  151.1144  141.5860  158.5175 C   0  0  1  0  0  0  0  0  0  0  0  0
  151.3197  141.8245  157.0137 C   0  0  0  0  0  0  0  0  0  0  0  0
  150.8498  140.6241  156.1774 C   0  0  0  0  0  0  0  0  0  0  0  0
  151.5490  139.3019  156.5849 C   0  0  2  0  0  0  0  0  0  0  0  0
  151.0806  138.0973  155.7092 C   0  0  0  0  0  0  0  0  0  0  0  0
  151.5950  136.7408  156.2287 C   0  0  0  0  0  0  0  0  0  0  0  0
  151.4865  138.2487  154.2306 C   0  0  0  0  0  0  0  0  0  0  0  0
  151.3822  139.0674  158.1140 C   0  0  2  0  0  0  0  0  0  0  0  0
  150.0055  138.6887  158.4216 N   0  0  0  0  0  0  0  0  0  0  0  0
  149.5657  137.4640  158.7524 C   0  0  0  0  0  0  0  0  0  0  0  0
  150.3157  136.5013  158.9083 O   0  0  0  0  0  0  0  0  0  0  0  0
  148.0475  137.2763  158.9138 C   0  0  0  0  0  0  0  0  0  0  0  0
  147.6692  136.3409  159.9874 N   0  0  0  0  0  0  0  0  0  0  0  0
  148.0015  136.6148  161.3066 C   0  0  0  0  0  0  0  0  0  0  0  0
  147.6487  135.8198  162.3444 C   0  0  0  0  0  0  0  0  0  0  0  0
  146.8795  134.6015  162.1142 C   0  0  0  0  0  0  0  0  0  0  0  0
  146.5101  133.8200  162.9877 O   0  0  0  0  0  0  0  0  0  0  0  0
  146.5669  134.3593  160.7740 N   0  0  0  0  0  0  0  0  0  0  0  0
  146.9267  135.1739  159.7000 C   0  0  0  0  0  0  0  0  0  0  0  0
  146.5865  134.8741  158.5564 O   0  0  0  0  0  0  0  0  0  0  0  0
  151.8290  140.2915  158.9417 C   0  0  0  0  0  0  0  0  0  0  0  0
  146.0341  133.5274  160.5655 H   0  0  0  0  0  0  0  0  0  0  0  0
  152.6581  142.9617  159.2160 H   0  0  0  0  0  0  0  0  0  0  0  0
  151.4093  142.6224  160.4115 H   0  0  0  0  0  0  0  0  0  0  0  0
  151.0636  143.6964  159.0617 H   0  0  0  0  0  0  0  0  0  0  0  0
  150.0455  141.4653  158.7000 H   0  0  0  0  0  0  0  0  0  0  0  0
  150.7778  142.7182  156.7023 H   0  0  0  0  0  0  0  0  0  0  0  0
  152.3738  142.0181  156.8100 H   0  0  0  0  0  0  0  0  0  0  0  0
  149.7684  140.5160  156.2713 H   0  0  0  0  0  0  0  0  0  0  0  0
  151.0428  140.8561  155.1314 H   0  0  0  0  0  0  0  0  0  0  0  0
  152.6168  139.4351  156.4035 H   0  0  0  0  0  0  0  0  0  0  0  0
  149.9910  138.0555  155.7339 H   0  0  0  0  0  0  0  0  0  0  0  0
  152.6819  136.7343  156.3141 H   0  0  0  0  0  0  0  0  0  0  0  0
  151.3106  135.9296  155.5579 H   0  0  0  0  0  0  0  0  0  0  0  0
  151.1771  136.4926  157.2040 H   0  0  0  0  0  0  0  0  0  0  0  0
  152.5625  138.3922  154.1270 H   0  0  0  0  0  0  0  0  0  0  0  0
  150.9853  139.0889  153.7518 H   0  0  0  0  0  0  0  0  0  0  0  0
  151.2158  137.3620  153.6566 H   0  0  0  0  0  0  0  0  0  0  0  0
  152.0300  138.2404  158.4071 H   0  0  0  0  0  0  0  0  0  0  0  0
  149.3117  139.4150  158.3201 H   0  0  0  0  0  0  0  0  0  0  0  0
  147.5852  138.2511  159.0813 H   0  0  0  0  0  0  0  0  0  0  0  0
  147.6490  136.9317  157.9586 H   0  0  0  0  0  0  0  0  0  0  0  0
  148.5648  137.5109  161.5252 H   0  0  0  0  0  0  0  0  0  0  0  0
  147.9347  136.0883  163.3510 H   0  0  0  0  0  0  0  0  0  0  0  0
  152.9057  140.4214  158.8232 H   0  0  0  0  0  0  0  0  0  0  0  0
  151.6672  140.1070  160.0045 H   0  0  0  0  0  0  0  0  0  0  0  0
  1  2  1  0  0  0  0
  1 24  1  0  0  0  0
  1 25  1  0  0  0  0
  1 26  1  0  0  0  0
  2 22  1  0  0  0  0
  2  3  1  0  0  0  0
  2 27  1  0  0  0  0
  3  4  1  0  0  0  0
  3 28  1  0  0  0  0
  3 29  1  0  0  0  0
  4  5  1  0  0  0  0
  4 30  1  0  0  0  0
  4 31  1  0  0  0  0
  5  6  1  0  0  0  0
  5  9  1  0  0  0  0
  5 32  1  0  0  0  0
  6  7  1  0  0  0  0
  6  8  1  0  0  0  0
  6 33  1  0  0  0  0
  7 34  1  0  0  0  0
  7 35  1  0  0  0  0
  7 36  1  0  0  0  0
  8 37  1  0  0  0  0
  8 38  1  0  0  0  0
  8 39  1  0  0  0  0
  9 10  1  0  0  0  0
  9 22  1  0  0  0  0
  9 40  1  0  0  0  0
 10 11  1  0  0  0  0
 10 41  1  0  0  0  0
 11 12  2  0  0  0  0
 11 13  1  0  0  0  0
 13 14  1  0  0  0  0
 13 42  1  0  0  0  0
 13 43  1  0  0  0  0
 14 20  1  0  0  0  0
 14 15  1  0  0  0  0
 15 16  2  0  0  0  0
 15 44  1  0  0  0  0
 16 17  1  0  0  0  0
 16 45  1  0  0  0  0
 17 18  2  0  0  0  0
 17 19  1  0  0  0  0
 19 23  1  0  0  0  0
 19 20  1  0  0  0  0
 20 21  2  0  0  0  0
 22 46  1  0  0  0  0
 22 47  1  0  0  0  0
M  END
> <s_m_source_file>
AV-unprocessed.smi

> <i_m_source_file_index>
2855

> <i_lp_mmshare_version>
43012

> <i_f3d_flags>
0

> <s_epik_input>
W0NIM11bQ0BASF0xW0NIMl1bQ0gyXVtDQEBIXShbQ0hdKFtDSDNdKVtDSDNdKVtDQEhdKFtDSDJdMSlbTkhdQyg9TylbQ0gyXW4yW2NIXVtjSF1jKD1PKVtuSF1jMj1P

> <s_epik_cmdline>
J2VwaWtfcHl0aG9uJywgJy1waCcsICc3LjAnLCAnLXRuJywgJzgnLCAnLW1hJywgJzIwMCcsICctbWV0YWxfYmluZGluZycsICctaW1hZScsICc8aW5maWxlLm1hZT4nLCAnLW9tYWUnLCAnPG91dGZpbGUubWFlPic=

> <r_lp_tautomer_probability>
0.999537

> <r_epik_Ionization_Penalty>
0.00306256

> <r_epik_Ionization_Penalty_Charging>
0.00306254

> <r_epik_Ionization_Penalty_Neutral>
2.0223e-08

> <r_epik_State_Penalty>
0.0021533

> <r_epik_Charging_Adjusted_Penalty>
0.00521583

> <i_epik_Tot_Q>
0

> <i_epik_Tot_abs_Q>
0

> <r_epik_Metal_State_Penalty>
0.362116

> <b_epik_Metal_Only>
0

> <s_lp_Force_Field>
OPLS_2005

> <r_lp_Energy>
12.2647

> <b_lp_Chiralities_Consistent>
1

> <s_lp_Variant>
AV-unprocessed.smi:2855-8

> <Gold.Version>
5.8.1

> <Gold.Id.Protein>
6NUR|6NUR_protein|mol2

> <Gold.PLP.Fitness>
36.1776

> <Gold.PLP.PLP>
-34.2504

> <Gold.PLP.part.hbond>
-2.0000

> <Gold.PLP.part.metal>
0.0000

> <Gold.PLP.part.buried>
-4.2465

> <Gold.PLP.part.nonpolar>
-28.6595

> <Gold.PLP.part.repulsive>
0.1853

> <Gold.PLP.ligand.clash>
0.0000

> <Gold.PLP.ligand.torsion>
0.5559

> <Gold.PLP.Chemscore.Hbond>
1.0000

> <Gold.PLP.Chemscore.CHOScore>
0.0000

> <Gold.PLP.Chemscore.Metal>
0.0000

> <Gold.Chemscore.Hbonds>
donor molecule, donor type, donor heavy atom, donor atom, acceptor molecule, acceptor atom, score
      P1  H  6896  6909       L1    12  1.00

> <Gold.PLP.Chemscore.Internal.Correction>
0.0390

> <Gold.Rescore>
     Score         DG    S(hbond)    S(metal)    S(lipo)     H(rot)  DE(clash)    DE(int)     intcor
     13.43     -13.92       0.98        0.00      84.74       1.85       0.01       0.48       ----

> <Gold.Chemscore.Fitness>
13.4266

> <Gold.Chemscore.DG>
-13.9216

> <Gold.Chemscore.ZeroCoef>
-5.4800

> <Gold.Chemscore.Hbond>
0.9799

> <Gold.Chemscore.Metal>
0.0000

> <Gold.Chemscore.Lipo>
84.7402

> <Gold.Chemscore.Internal_Hbond>
0.0000

> <Gold.Chemscore.DEClash>
0.0149

> <Gold.Chemscore.DEInternal>
0.4801

> <Gold.Chemscore.Rot>
1.8539

> <Gold.Chemscore.Internal.Correction>
   9.000000E+99

> <Gold.Chemscore.Hbonds>
donor molecule, donor type, donor heavy atom, donor atom, acceptor molecule, acceptor atom, score
      P1  H  6896  6909       L1    12  0.96

> <Gold.Chemscore.Hbond.Weighted>
-3.2730

> <Gold.Chemscore.Metal.Weighted>
-0.0000

> <Gold.Chemscore.Lipo.Weighted>
-9.9146

> <Gold.Chemscore.Internal_Hbond.Weighted>
0.0000

> <Gold.Chemscore.DEClash.Weighted>
0.0149

> <Gold.Chemscore.DEInternal.Weighted>
0.4801

> <Gold.Chemscore.Rot.Weighted>
4.7460

> <Gold.Chemscore.Internal.Correction.Weighted>
   9.000000E+99

> <Gold.Protein.RotatedTorsions>
[ 6907 6896 6895 6894 ] final   67.31 input  -60.11 | X-H torsion
[ 7974 7965 7964 7962 ] final  102.49 input  175.53 | X-H torsion
[ 8008 7997 7996 7995 ] final -126.97 input   59.86 | X-H torsion
[ 10167 10162 10161 10158 ] final  112.17 input  -65.29 | X-H torsion
[ 10718 10713 10712 10709 ] final    8.78 input   66.30 | X-H torsion
[ 10763 10752 10751 10750 ] final   77.30 input  -60.55 | X-H torsion
[ 11005 11000 10999 10996 ] final -118.54 input  -57.11 | X-H torsion

> <Gold.Protein.ActiveResidues>
 VAL166  LYS551  ARG553  GLY616  TRP617  ASP618  TYR619  PRO620  LYS621  CYS622 
 ASP623  PHE694  ASN695  SER759  ASP760  ASP761  ALA762  ILE779  LEU786  VAL792 
 PHE793  MET794  SER795  GLU796  ALA797  LYS798  CYS799  TRP800  GLU811  SER814 

> <Gold.Protein.RotatedAtoms>
  152.4543  134.5325  159.9815 H   0  0  0  0  0  0  0  0  0  0  0  0  # atno 6907 bound_to 6896
  151.5390  133.3430  159.2940 H   0  0  0  0  0  0  0  0  0  0  0  0  # atno 6908 bound_to 6896
  150.8482  134.7829  159.7050 H   0  0  0  0  0  0  0  0  0  0  0  0  # atno 6909 bound_to 6896
  145.3584  139.2423  143.3520 H   0  0  0  0  0  0  0  0  0  0  0  0  # atno 7974 bound_to 7965
  155.2384  140.0428  157.2971 H   0  0  0  0  0  0  0  0  0  0  0  0  # atno 8008 bound_to 7997
  154.5844  140.2409  155.7979 H   0  0  0  0  0  0  0  0  0  0  0  0  # atno 8009 bound_to 7997
  156.2215  140.2968  155.9973 H   0  0  0  0  0  0  0  0  0  0  0  0  # atno 8010 bound_to 7997
  139.6555  144.7129  151.1964 H   0  0  0  0  0  0  0  0  0  0  0  0  # atno 10167 bound_to 10162
  156.9566  130.5917  149.5659 H   0  0  0  0  0  0  0  0  0  0  0  0  # atno 10718 bound_to 10713
  153.0788  135.4919  154.8460 H   0  0  0  0  0  0  0  0  0  0  0  0  # atno 10763 bound_to 10752
  154.7123  135.3022  154.9179 H   0  0  0  0  0  0  0  0  0  0  0  0  # atno 10764 bound_to 10752
  153.9869  135.6783  153.4805 H   0  0  0  0  0  0  0  0  0  0  0  0  # atno 10765 bound_to 10752
  141.0279  134.0026  157.3187 H   0  0  0  0  0  0  0  0  0  0  0  0  # atno 11005 bound_to 11000
  146.2938  140.4213  142.8729 LP  0  0  0  0  0  0  0  0  0  0  0  0  # atno 17320 bound_to 7965
  144.8665  140.7213  143.6074 LP  0  0  0  0  0  0  0  0  0  0  0  0  # atno 17321 bound_to 7965
  140.7557  143.6079  150.8635 LP  0  0  0  0  0  0  0  0  0  0  0  0  # atno 17342 bound_to 10162
  139.9731  143.6034  152.2967 LP  0  0  0  0  0  0  0  0  0  0  0  0  # atno 17343 bound_to 10162
  156.0340  130.5429  150.8606 LP  0  0  0  0  0  0  0  0  0  0  0  0  # atno 17370 bound_to 10713
  157.5686  131.0946  150.9452 LP  0  0  0  0  0  0  0  0  0  0  0  0  # atno 17371 bound_to 10713
  139.9188  135.0199  156.7985 LP  0  0  0  0  0  0  0  0  0  0  0  0  # atno 17394 bound_to 11000
  140.6459  133.9776  155.7730 LP  0  0  0  0  0  0  0  0  0  0  0  0  # atno 17395 bound_to 11000

$$$$
