AV-unprocessed.smi:2509|AV-procd|sdf|9867|dock4
  -GOLD-   2272013493D 1   1.00000     0.00000
 Structure written by MMmdl.
 45 46  0  0  0  0  0  0  0  0  1 V2000
  144.4905  136.2946  161.9800 C   0  0  0  0  0  0  0  0  0  0  0  0
  144.9557  134.8234  161.8686 C   0  0  0  0  0  0  0  0  0  0  0  0
  146.4294  134.8047  162.3378 C   0  0  0  0  0  0  0  0  0  0  0  0
  144.1049  133.9428  162.8023 C   0  0  0  0  0  0  0  0  0  0  0  0
  144.8301  134.3093  160.4236 C   0  0  0  0  0  0  0  0  0  0  0  0
  145.9669  134.0325  159.7722 N   0  0  0  0  0  0  0  0  0  0  0  0
  145.8763  133.7039  158.4666 C   0  0  0  0  0  0  0  0  0  0  0  0
  144.6440  133.6819  157.7831 C   0  0  0  0  0  0  0  0  0  0  0  0
  144.6367  133.3264  156.4060 N   0  0  0  0  0  0  0  0  0  0  0  0
  145.6256  133.4149  155.5002 C   0  0  0  0  0  0  0  0  0  0  0  0
  146.7619  133.8328  155.7182 O   0  0  0  0  0  0  0  0  0  0  0  0
  145.2172  132.9859  154.2977 N   0  0  0  0  0  0  0  0  0  0  0  0
  146.0385  132.9655  153.0914 C   0  0  0  0  0  0  0  0  0  0  0  0
  145.2304  132.5452  151.8453 C   0  0  1  0  0  0  0  0  0  0  0  0
  144.3219  133.6436  151.2801 C   0  0  0  0  0  0  0  0  0  0  0  0
  144.0761  133.2683  149.8099 C   0  0  0  0  0  0  0  0  0  0  0  0
  145.0301  132.1068  149.4876 C   0  0  0  0  0  0  0  0  0  0  0  0
  146.0464  132.0701  150.6326 C   0  0  1  0  0  0  0  0  0  0  0  0
  147.1048  132.9628  150.3361 O   0  0  0  0  0  0  0  0  0  0  0  0
  143.5098  134.0314  158.5557 C   0  0  0  0  0  0  0  0  0  0  0  0
  143.6152  134.3575  159.8618 N   0  0  0  0  0  0  0  0  0  0  0  0
  144.6195  136.6757  162.9937 H   0  0  0  0  0  0  0  0  0  0  0  0
  143.4347  136.4099  161.7334 H   0  0  0  0  0  0  0  0  0  0  0  0
  145.0589  136.9426  161.3117 H   0  0  0  0  0  0  0  0  0  0  0  0
  147.0634  135.4001  161.6796 H   0  0  0  0  0  0  0  0  0  0  0  0
  146.8377  133.7939  162.3645 H   0  0  0  0  0  0  0  0  0  0  0  0
  146.5306  135.2106  163.3449 H   0  0  0  0  0  0  0  0  0  0  0  0
  144.1668  134.2829  163.8364 H   0  0  0  0  0  0  0  0  0  0  0  0
  144.4366  132.9042  162.7770 H   0  0  0  0  0  0  0  0  0  0  0  0
  143.0537  133.9589  162.5125 H   0  0  0  0  0  0  0  0  0  0  0  0
  146.8004  133.4623  157.9622 H   0  0  0  0  0  0  0  0  0  0  0  0
  143.7611  132.9580  156.0644 H   0  0  0  0  0  0  0  0  0  0  0  0
  144.2661  132.6606  154.2041 H   0  0  0  0  0  0  0  0  0  0  0  0
  146.4877  133.9472  152.9336 H   0  0  0  0  0  0  0  0  0  0  0  0
  146.8677  132.2776  153.2580 H   0  0  0  0  0  0  0  0  0  0  0  0
  144.5794  131.7174  152.1327 H   0  0  0  0  0  0  0  0  0  0  0  0
  143.3927  133.7327  151.8440 H   0  0  0  0  0  0  0  0  0  0  0  0
  144.8255  134.6100  151.3285 H   0  0  0  0  0  0  0  0  0  0  0  0
  143.0399  132.9719  149.6428 H   0  0  0  0  0  0  0  0  0  0  0  0
  144.2769  134.1247  149.1655 H   0  0  0  0  0  0  0  0  0  0  0  0
  144.4642  131.1743  149.4861 H   0  0  0  0  0  0  0  0  0  0  0  0
  145.4944  132.2009  148.5049 H   0  0  0  0  0  0  0  0  0  0  0  0
  146.4570  131.0706  150.7798 H   0  0  0  0  0  0  0  0  0  0  0  0
  147.8490  132.4582  150.0448 H   0  0  0  0  0  0  0  0  0  0  0  0
  142.5090  134.0651  158.1571 H   0  0  0  0  0  0  0  0  0  0  0  0
  1  2  1  0  0  0  0
  1 22  1  0  0  0  0
  1 23  1  0  0  0  0
  1 24  1  0  0  0  0
  2  3  1  0  0  0  0
  2  4  1  0  0  0  0
  2  5  1  0  0  0  0
  3 25  1  0  0  0  0
  3 26  1  0  0  0  0
  3 27  1  0  0  0  0
  4 28  1  0  0  0  0
  4 29  1  0  0  0  0
  4 30  1  0  0  0  0
  5 21  1  0  0  0  0
  5  6  2  0  0  0  0
  6  7  1  0  0  0  0
  7  8  2  0  0  0  0
  7 31  1  0  0  0  0
  8  9  1  0  0  0  0
  8 20  1  0  0  0  0
  9 10  1  0  0  0  0
  9 32  1  0  0  0  0
 10 11  2  0  0  0  0
 10 12  1  0  0  0  0
 12 13  1  0  0  0  0
 12 33  1  0  0  0  0
 13 14  1  0  0  0  0
 13 34  1  0  0  0  0
 13 35  1  0  0  0  0
 14 18  1  0  0  0  0
 14 15  1  0  0  0  0
 14 36  1  0  0  0  0
 15 16  1  0  0  0  0
 15 37  1  0  0  0  0
 15 38  1  0  0  0  0
 16 17  1  0  0  0  0
 16 39  1  0  0  0  0
 16 40  1  0  0  0  0
 17 18  1  0  0  0  0
 17 41  1  0  0  0  0
 17 42  1  0  0  0  0
 18 19  1  0  0  0  0
 18 43  1  0  0  0  0
 19 44  1  0  0  0  0
 20 21  2  0  0  0  0
 20 45  1  0  0  0  0
M  END
> <s_m_source_file>
AV-unprocessed.smi

> <i_m_source_file_index>
2509

> <i_lp_mmshare_version>
43012

> <i_f3d_flags>
0

> <s_epik_input>
W0NIM11DKFtDSDNdKShbQ0gzXSljMW5bY0hdYyhbY0hdbjEpW05IXUMoPU8pW05IXVtDSDJdW0NAQEhdMltDSDJdW0NIMl1bQ0gyXVtDQEhdMltPSF0=

> <s_epik_cmdline>
J2VwaWtfcHl0aG9uJywgJy1waCcsICc3LjAnLCAnLXRuJywgJzgnLCAnLW1hJywgJzIwMCcsICctbWV0YWxfYmluZGluZycsICctaW1hZScsICc8aW5maWxlLm1hZT4nLCAnLW9tYWUnLCAnPG91dGZpbGUubWFlPic=

> <r_lp_tautomer_probability>
1

> <r_epik_Ionization_Penalty>
2.77586e-05

> <r_epik_Ionization_Penalty_Charging>
0

> <r_epik_Ionization_Penalty_Neutral>
2.77586e-05

> <r_epik_State_Penalty>
-0

> <r_epik_Charging_Adjusted_Penalty>
0

> <i_epik_Tot_Q>
0

> <i_epik_Tot_abs_Q>
0

> <r_epik_Metal_State_Penalty>
-0

> <b_epik_Metal_Only>
0

> <s_lp_Force_Field>
OPLS_2005

> <r_lp_Energy>
25.7942

> <b_lp_Chiralities_Consistent>
1

> <s_lp_Variant>
AV-unprocessed.smi:2509-2

> <Gold.Version>
5.8.1

> <Gold.Id.Protein>
6NUR|6NUR_protein|mol2

> <Gold.PLP.Fitness>
39.0609

> <Gold.PLP.PLP>
-27.7829

> <Gold.PLP.part.hbond>
-3.5895

> <Gold.PLP.part.metal>
0.0000

> <Gold.PLP.part.buried>
-2.7322

> <Gold.PLP.part.nonpolar>
-21.4681

> <Gold.PLP.part.repulsive>
0.0157

> <Gold.PLP.ligand.clash>
0.0000

> <Gold.PLP.ligand.torsion>
0.3624

> <Gold.PLP.Chemscore.Hbond>
3.0000

> <Gold.PLP.Chemscore.CHOScore>
0.9514

> <Gold.PLP.Chemscore.Metal>
0.0000

> <Gold.Chemscore.Hbonds>
donor molecule, donor type, donor heavy atom, donor atom, acceptor molecule, acceptor atom, score
      L1  H     9    32       P1 10957  0.99
      L1  H    12    33       P1 10957  1.00
      L1  H    19    44       P1 10747  0.99
      L1  C    20    45       P1 11000  0.92

> <Gold.PLP.Chemscore.Internal.Correction>
0.1485

> <Gold.Rescore>
     Score         DG    S(hbond)    S(metal)    S(lipo)     H(rot)  DE(clash)    DE(int)     intcor
     17.08     -18.71       2.75        0.00      76.34       1.91       0.01       1.63       ----

> <Gold.Chemscore.Fitness>
17.0767

> <Gold.Chemscore.DG>
-18.7146

> <Gold.Chemscore.ZeroCoef>
-5.4800

> <Gold.Chemscore.Hbond>
2.7536

> <Gold.Chemscore.Metal>
0.0000

> <Gold.Chemscore.Lipo>
76.3358

> <Gold.Chemscore.Internal_Hbond>
0.0000

> <Gold.Chemscore.DEClash>
0.0060

> <Gold.Chemscore.DEInternal>
1.6320

> <Gold.Chemscore.Rot>
1.9116

> <Gold.Chemscore.Internal.Correction>
   9.000000E+99

> <Gold.Chemscore.Hbonds>
donor molecule, donor type, donor heavy atom, donor atom, acceptor molecule, acceptor atom, score
      L1  H     9    32       P1 10957  0.89
      L1  H    12    33       P1 10957  0.86
      L1  H    19    44       P1 10747  0.92

> <Gold.Chemscore.Hbond.Weighted>
-9.1969

> <Gold.Chemscore.Metal.Weighted>
-0.0000

> <Gold.Chemscore.Lipo.Weighted>
-8.9313

> <Gold.Chemscore.Internal_Hbond.Weighted>
0.0000

> <Gold.Chemscore.DEClash.Weighted>
0.0060

> <Gold.Chemscore.DEInternal.Weighted>
1.6320

> <Gold.Chemscore.Rot.Weighted>
4.8936

> <Gold.Chemscore.Internal.Correction.Weighted>
   9.000000E+99

> <Gold.Protein.RotatedTorsions>
[ 6907 6896 6895 6894 ] final  149.87 input  -60.11 | X-H torsion
[ 7974 7965 7964 7962 ] final  139.51 input  175.53 | X-H torsion
[ 8008 7997 7996 7995 ] final  -65.73 input   59.86 | X-H torsion
[ 10167 10162 10161 10158 ] final    2.42 input  -65.29 | X-H torsion
[ 10718 10713 10712 10709 ] final  -12.53 input   66.30 | X-H torsion
[ 10763 10752 10751 10750 ] final   86.41 input  -60.55 | X-H torsion
[ 11005 11000 10999 10996 ] final   50.06 input  -57.11 | X-H torsion

> <Gold.Protein.ActiveResidues>
 VAL166  LYS551  ARG553  GLY616  TRP617  ASP618  TYR619  PRO620  LYS621  CYS622 
 ASP623  PHE694  ASN695  SER759  ASP760  ASP761  ALA762  ILE779  LEU786  VAL792 
 PHE793  MET794  SER795  GLU796  ALA797  LYS798  CYS799  TRP800  GLU811  SER814 

> <Gold.Protein.RotatedAtoms>
  152.1221  133.4359  159.4680 H   0  0  0  0  0  0  0  0  0  0  0  0  # atno 6907 bound_to 6896
  150.6872  134.2522  159.4524 H   0  0  0  0  0  0  0  0  0  0  0  0  # atno 6908 bound_to 6896
  152.0400  134.9717  160.0624 H   0  0  0  0  0  0  0  0  0  0  0  0  # atno 6909 bound_to 6896
  144.9272  139.5093  143.5635 H   0  0  0  0  0  0  0  0  0  0  0  0  # atno 7974 bound_to 7965
  154.4690  140.0927  156.7095 H   0  0  0  0  0  0  0  0  0  0  0  0  # atno 8008 bound_to 7997
  155.4777  140.3466  155.4317 H   0  0  0  0  0  0  0  0  0  0  0  0  # atno 8009 bound_to 7997
  156.1006  140.1421  156.9460 H   0  0  0  0  0  0  0  0  0  0  0  0  # atno 8010 bound_to 7997
  140.6636  143.7240  150.7784 H   0  0  0  0  0  0  0  0  0  0  0  0  # atno 10167 bound_to 10162
  156.6433  130.4934  149.6087 H   0  0  0  0  0  0  0  0  0  0  0  0  # atno 10718 bound_to 10713
  153.1568  135.4581  154.9716 H   0  0  0  0  0  0  0  0  0  0  0  0  # atno 10763 bound_to 10752
  154.7867  135.3206  154.7872 H   0  0  0  0  0  0  0  0  0  0  0  0  # atno 10764 bound_to 10752
  153.8368  135.6933  153.4862 H   0  0  0  0  0  0  0  0  0  0  0  0  # atno 10765 bound_to 10752
  140.1050  134.5031  155.8728 H   0  0  0  0  0  0  0  0  0  0  0  0  # atno 11005 bound_to 11000
  146.3231  139.8195  142.8929 LP  0  0  0  0  0  0  0  0  0  0  0  0  # atno 17320 bound_to 7965
  145.3200  141.0241  143.3505 LP  0  0  0  0  0  0  0  0  0  0  0  0  # atno 17321 bound_to 7965
  140.0913  143.4875  152.2477 LP  0  0  0  0  0  0  0  0  0  0  0  0  # atno 17342 bound_to 10162
  139.5877  144.7537  151.3479 LP  0  0  0  0  0  0  0  0  0  0  0  0  # atno 17343 bound_to 10162
  156.2142  130.6697  151.1301 LP  0  0  0  0  0  0  0  0  0  0  0  0  # atno 17370 bound_to 10713
  157.7164  131.0707  150.6309 LP  0  0  0  0  0  0  0  0  0  0  0  0  # atno 17371 bound_to 10713
  141.2116  133.6708  156.6593 LP  0  0  0  0  0  0  0  0  0  0  0  0  # atno 17394 bound_to 11000
  140.3168  134.8040  157.4221 LP  0  0  0  0  0  0  0  0  0  0  0  0  # atno 17395 bound_to 11000

$$$$
