AV-unprocessed.smi:1230|AV-procd|sdf|5159|dock10
  -GOLD-   22720 4233D 1   1.00000     0.00000
 Structure written by MMmdl.
 39 40  0  0  0  0  0  0  0  0  1 V2000
  150.7655  144.4777  158.8888 C   0  0  0  0  0  0  0  0  0  0  0  0
  151.9057  143.7019  159.5688 C   0  0  1  0  0  0  0  0  0  0  0  0
  151.9092  143.9630  161.0884 C   0  0  0  0  0  0  0  0  0  0  0  0
  153.0340  143.1939  161.7974 C   0  0  0  0  0  0  0  0  0  0  0  0
  152.9387  141.6895  161.5091 C   0  0  0  0  0  0  0  0  0  0  0  0
  152.9465  141.4164  159.9978 C   0  0  0  0  0  0  0  0  0  0  0  0
  151.8212  142.1867  159.2746 C   0  0  2  0  0  0  0  0  0  0  0  0
  151.9498  142.0070  157.8692 O   0  0  0  0  0  0  0  0  0  0  0  0
  150.8446  141.3615  157.2562 C   0  0  0  0  0  0  0  0  0  0  0  0
  151.3197  140.7315  155.9383 C   0  0  0  0  0  0  0  0  0  0  0  0
  150.2345  140.4306  155.0385 N   0  0  0  0  0  0  0  0  0  0  0  0
  149.2128  141.3314  154.7787 C   0  0  0  0  0  0  0  0  0  0  0  0
  148.1803  141.0492  153.9494 C   0  0  0  0  0  0  0  0  0  0  0  0
  147.1358  141.9852  153.6936 C   0  0  0  0  0  0  0  0  0  0  0  0
  146.2970  142.7599  153.5051 N   0  0  0  0  0  0  0  0  0  0  0  0
  148.0933  139.7532  153.2784 C   0  0  0  0  0  0  0  0  0  0  0  0
  147.2014  139.4028  152.5081 O   0  0  0  0  0  0  0  0  0  0  0  0
  149.1417  138.8774  153.5790 N   0  0  0  0  0  0  0  0  0  0  0  0
  150.2114  139.1516  154.4338 C   0  0  0  0  0  0  0  0  0  0  0  0
  151.0739  138.2954  154.6311 O   0  0  0  0  0  0  0  0  0  0  0  0
  149.1218  137.9667  153.1430 H   0  0  0  0  0  0  0  0  0  0  0  0
  149.7905  144.1380  159.2397 H   0  0  0  0  0  0  0  0  0  0  0  0
  150.7904  144.3538  157.8060 H   0  0  0  0  0  0  0  0  0  0  0  0
  150.8398  145.5457  159.0957 H   0  0  0  0  0  0  0  0  0  0  0  0
  152.8481  144.0739  159.1637 H   0  0  0  0  0  0  0  0  0  0  0  0
  152.0212  145.0302  161.2830 H   0  0  0  0  0  0  0  0  0  0  0  0
  150.9480  143.6719  161.5146 H   0  0  0  0  0  0  0  0  0  0  0  0
  154.0020  143.5709  161.4651 H   0  0  0  0  0  0  0  0  0  0  0  0
  152.9849  143.3704  162.8722 H   0  0  0  0  0  0  0  0  0  0  0  0
  153.7679  141.1663  161.9860 H   0  0  0  0  0  0  0  0  0  0  0  0
  152.0249  141.2884  161.9493 H   0  0  0  0  0  0  0  0  0  0  0  0
  153.9126  141.7069  159.5827 H   0  0  0  0  0  0  0  0  0  0  0  0
  152.8494  140.3445  159.8282 H   0  0  0  0  0  0  0  0  0  0  0  0
  150.8498  141.8233  159.6158 H   0  0  0  0  0  0  0  0  0  0  0  0
  150.4311  140.5989  157.9158 H   0  0  0  0  0  0  0  0  0  0  0  0
  150.0553  142.0881  157.0572 H   0  0  0  0  0  0  0  0  0  0  0  0
  151.9805  141.4141  155.4018 H   0  0  0  0  0  0  0  0  0  0  0  0
  151.8892  139.8125  156.0934 H   0  0  0  0  0  0  0  0  0  0  0  0
  149.2346  142.3002  155.2577 H   0  0  0  0  0  0  0  0  0  0  0  0
  1  2  1  0  0  0  0
  1 22  1  0  0  0  0
  1 23  1  0  0  0  0
  1 24  1  0  0  0  0
  2  7  1  0  0  0  0
  2  3  1  0  0  0  0
  2 25  1  0  0  0  0
  3  4  1  0  0  0  0
  3 26  1  0  0  0  0
  3 27  1  0  0  0  0
  4  5  1  0  0  0  0
  4 28  1  0  0  0  0
  4 29  1  0  0  0  0
  5  6  1  0  0  0  0
  5 30  1  0  0  0  0
  5 31  1  0  0  0  0
  6  7  1  0  0  0  0
  6 32  1  0  0  0  0
  6 33  1  0  0  0  0
  7  8  1  0  0  0  0
  7 34  1  0  0  0  0
  8  9  1  0  0  0  0
  9 10  1  0  0  0  0
  9 35  1  0  0  0  0
  9 36  1  0  0  0  0
 10 11  1  0  0  0  0
 10 37  1  0  0  0  0
 10 38  1  0  0  0  0
 11 19  1  0  0  0  0
 11 12  1  0  0  0  0
 12 13  2  0  0  0  0
 12 39  1  0  0  0  0
 13 14  1  0  0  0  0
 13 16  1  0  0  0  0
 14 15  3  0  0  0  0
 16 17  2  0  0  0  0
 16 18  1  0  0  0  0
 18 21  1  0  0  0  0
 18 19  1  0  0  0  0
 19 20  2  0  0  0  0
M  END
> <s_m_source_file>
AV-unprocessed.smi

> <i_m_source_file_index>
1230

> <i_lp_mmshare_version>
43012

> <i_f3d_flags>
0

> <s_epik_input>
W0NIM11bQ0BASF0xW0NIMl1bQ0gyXVtDSDJdW0NIMl1bQ0BIXTFPW0NIMl1bQ0gyXW4yW2NIXWMoQyNOKWMoPU8pW25IXWMyPU8=

> <s_epik_cmdline>
J2VwaWtfcHl0aG9uJywgJy1waCcsICc3LjAnLCAnLXRuJywgJzgnLCAnLW1hJywgJzIwMCcsICctbWV0YWxfYmluZGluZycsICctaW1hZScsICc8aW5maWxlLm1hZT4nLCAnLW9tYWUnLCAnPG91dGZpbGUubWFlPic=

> <r_epik_Ionization_Penalty>
0.421541

> <r_epik_Ionization_Penalty_Charging>
0.421541

> <r_epik_Ionization_Penalty_Neutral>
2.29267e-11

> <r_epik_State_Penalty>
0.422277

> <r_epik_Charging_Adjusted_Penalty>
0.843818

> <i_epik_Tot_Q>
0

> <i_epik_Tot_abs_Q>
0

> <r_epik_Metal_State_Penalty>
4.11629

> <b_epik_Metal_Only>
0

> <s_lp_Force_Field>
OPLS_2005

> <r_lp_Energy>
13.3669

> <b_lp_Chiralities_Consistent>
1

> <s_lp_Variant>
AV-unprocessed.smi:1230-8

> <Gold.Version>
5.8.1

> <Gold.Id.Protein>
6NUR|6NUR_protein|mol2

> <Gold.PLP.Fitness>
45.9565

> <Gold.PLP.PLP>
-43.0644

> <Gold.PLP.part.hbond>
-1.5886

> <Gold.PLP.part.metal>
0.0000

> <Gold.PLP.part.buried>
-3.4141

> <Gold.PLP.part.nonpolar>
-38.1144

> <Gold.PLP.part.repulsive>
1.1458

> <Gold.PLP.ligand.clash>
0.0000

> <Gold.PLP.ligand.torsion>
1.1054

> <Gold.PLP.Chemscore.Hbond>
0.6988

> <Gold.PLP.Chemscore.CHOScore>
1.0000

> <Gold.PLP.Chemscore.Metal>
0.0000

> <Gold.Chemscore.Hbonds>
donor molecule, donor type, donor heavy atom, donor atom, acceptor molecule, acceptor atom, score
      L1  H    18    21       P1  7948  0.73
      L1  C    12    39       P1  8028  1.00

> <Gold.PLP.Chemscore.Internal.Correction>
0.0067

> <Gold.Rescore>
     Score         DG    S(hbond)    S(metal)    S(lipo)     H(rot)  DE(clash)    DE(int)     intcor
     13.65     -15.04       0.82        0.00     100.78       1.94       0.42       0.97       ----

> <Gold.Chemscore.Fitness>
13.6475

> <Gold.Chemscore.DG>
-15.0426

> <Gold.Chemscore.ZeroCoef>
-5.4800

> <Gold.Chemscore.Hbond>
0.8185

> <Gold.Chemscore.Metal>
0.0000

> <Gold.Chemscore.Lipo>
100.7821

> <Gold.Chemscore.Internal_Hbond>
0.0000

> <Gold.Chemscore.DEClash>
0.4211

> <Gold.Chemscore.DEInternal>
0.9740

> <Gold.Chemscore.Rot>
1.9385

> <Gold.Chemscore.Internal.Correction>
   9.000000E+99

> <Gold.Chemscore.Hbonds>
donor molecule, donor type, donor heavy atom, donor atom, acceptor molecule, acceptor atom, score
      L1  H    18    21       P1  7948  0.72

> <Gold.Chemscore.Hbond.Weighted>
-2.7336

> <Gold.Chemscore.Metal.Weighted>
-0.0000

> <Gold.Chemscore.Lipo.Weighted>
-11.7915

> <Gold.Chemscore.Internal_Hbond.Weighted>
0.0000

> <Gold.Chemscore.DEClash.Weighted>
0.4211

> <Gold.Chemscore.DEInternal.Weighted>
0.9740

> <Gold.Chemscore.Rot.Weighted>
4.9625

> <Gold.Chemscore.Internal.Correction.Weighted>
   9.000000E+99

> <Gold.Protein.RotatedTorsions>
[ 6907 6896 6895 6894 ] final  106.59 input  -60.11 | X-H torsion
[ 7974 7965 7964 7962 ] final  135.91 input  175.53 | X-H torsion
[ 8008 7997 7996 7995 ] final  -12.69 input   59.86 | X-H torsion
[ 10167 10162 10161 10158 ] final   41.00 input  -65.29 | X-H torsion
[ 10718 10713 10712 10709 ] final  -89.57 input   66.30 | X-H torsion
[ 10763 10752 10751 10750 ] final   40.47 input  -60.55 | X-H torsion
[ 11005 11000 10999 10996 ] final  -82.86 input  -57.11 | X-H torsion

> <Gold.Protein.ActiveResidues>
 VAL166  LYS551  ARG553  GLY616  TRP617  ASP618  TYR619  PRO620  LYS621  CYS622 
 ASP623  PHE694  ASN695  SER759  ASP760  ASP761  ALA762  ILE779  LEU786  VAL792 
 PHE793  MET794  SER795  GLU796  ALA797  LYS798  CYS799  TRP800  GLU811  SER814 

> <Gold.Protein.RotatedAtoms>
  152.5187  133.9358  159.7602 H   0  0  0  0  0  0  0  0  0  0  0  0  # atno 6907 bound_to 6896
  150.9699  133.6347  159.2747 H   0  0  0  0  0  0  0  0  0  0  0  0  # atno 6908 bound_to 6896
  151.3562  135.0900  159.9472 H   0  0  0  0  0  0  0  0  0  0  0  0  # atno 6909 bound_to 6896
  144.9616  139.4704  143.5476 H   0  0  0  0  0  0  0  0  0  0  0  0  # atno 7974 bound_to 7965
  154.5355  140.2269  155.8730 H   0  0  0  0  0  0  0  0  0  0  0  0  # atno 8008 bound_to 7997
  156.1807  140.3101  155.9106 H   0  0  0  0  0  0  0  0  0  0  0  0  # atno 8009 bound_to 7997
  155.3363  140.0448  157.3034 H   0  0  0  0  0  0  0  0  0  0  0  0  # atno 8010 bound_to 7997
  140.3686  144.2134  150.6134 H   0  0  0  0  0  0  0  0  0  0  0  0  # atno 10167 bound_to 10162
  155.9985  130.4877  150.5191 H   0  0  0  0  0  0  0  0  0  0  0  0  # atno 10718 bound_to 10713
  152.9935  135.6190  154.2632 H   0  0  0  0  0  0  0  0  0  0  0  0  # atno 10763 bound_to 10752
  154.2367  135.2790  155.2871 H   0  0  0  0  0  0  0  0  0  0  0  0  # atno 10764 bound_to 10752
  154.5404  135.5762  153.6892 H   0  0  0  0  0  0  0  0  0  0  0  0  # atno 10765 bound_to 10752
  141.1661  133.7266  156.8635 H   0  0  0  0  0  0  0  0  0  0  0  0  # atno 11005 bound_to 11000
  146.3355  139.8770  142.8830 LP  0  0  0  0  0  0  0  0  0  0  0  0  # atno 17320 bound_to 7965
  145.2691  141.0102  143.3782 LP  0  0  0  0  0  0  0  0  0  0  0  0  # atno 17321 bound_to 7965
  140.5056  143.2305  151.8614 LP  0  0  0  0  0  0  0  0  0  0  0  0  # atno 17342 bound_to 10162
  139.4806  144.5010  151.9061 LP  0  0  0  0  0  0  0  0  0  0  0  0  # atno 17343 bound_to 10162
  157.3155  131.0672  151.1970 LP  0  0  0  0  0  0  0  0  0  0  0  0  # atno 17370 bound_to 10713
  157.2901  130.6792  149.6110 LP  0  0  0  0  0  0  0  0  0  0  0  0  # atno 17371 bound_to 10713
  140.1832  134.9019  157.2973 LP  0  0  0  0  0  0  0  0  0  0  0  0  # atno 17394 bound_to 11000
  140.2372  134.3838  155.7496 LP  0  0  0  0  0  0  0  0  0  0  0  0  # atno 17395 bound_to 11000

$$$$
