AV-unprocessed.smi:148|AV-procd|sdf|1230|dock2
  -GOLD-   2262018433D 1   1.00000     0.00000
 Structure written by MMmdl.
 63 67  0  0  0  0  0  0  0  0  1 V2000
  154.2673  139.4521  158.4817 O   0  0  0  0  0  0  0  0  0  0  0  0
  153.5333  139.7120  159.6593 C   0  0  0  0  0  0  0  0  0  0  0  0
  152.2852  140.5893  159.3800 C   0  0  2  0  0  0  0  0  0  0  0  0
  151.5532  140.1365  158.0899 C   0  0  0  0  0  0  0  0  0  0  0  0
  150.9216  138.8329  158.2041 N   0  0  0  0  0  0  0  0  0  0  0  0
  151.3256  137.7877  159.0038 C   0  0  0  0  0  0  0  0  0  0  0  0
  150.5827  136.7171  158.9359 N   0  0  0  0  0  0  0  0  0  0  0  0
  149.6024  137.0419  158.0056 C   0  0  0  0  0  0  0  0  0  0  0  0
  148.4833  136.3543  157.4539 C   0  0  0  0  0  0  0  0  0  0  0  0
  148.1056  135.0957  157.7778 N   0  0  0  0  0  0  0  0  0  0  0  0
  147.7759  135.0398  159.2028 C   0  0  0  0  0  0  0  0  0  0  0  0
  147.1168  133.7068  159.5805 C   0  0  0  0  0  0  0  0  0  0  0  0
  148.0034  132.5334  159.1524 C   0  0  0  0  0  0  0  0  0  0  0  0
  148.2923  132.6259  157.6491 C   0  0  0  0  0  0  0  0  0  0  0  0
  148.9381  133.9875  157.2739 C   0  0  1  0  0  0  0  0  0  0  0  0
  149.2788  134.1043  155.7537 C   0  0  1  0  0  0  0  0  0  0  0  0
  150.0121  132.8684  155.1896 C   0  0  0  0  0  0  0  0  0  0  0  0
  149.0779  132.2574  154.1442 C   0  0  0  0  0  0  0  0  0  0  0  0
  148.3218  133.4573  153.5849 C   0  0  0  0  0  0  0  0  0  0  0  0
  148.0711  134.3376  154.8118 C   0  0  2  0  0  0  0  0  0  0  0  0
  147.9413  135.6921  154.4319 O   0  0  0  0  0  0  0  0  0  0  0  0
  147.7109  137.0162  156.5572 N   0  0  0  0  0  0  0  0  0  0  0  0
  148.0232  138.2649  156.1977 C   0  0  0  0  0  0  0  0  0  0  0  0
  149.0372  139.0257  156.6159 N   0  0  0  0  0  0  0  0  0  0  0  0
  149.8043  138.3690  157.5328 C   0  0  0  0  0  0  0  0  0  0  0  0
  152.6374  142.1010  159.2982 C   0  0  1  0  0  0  0  0  0  0  0  0
  151.4849  143.0068  158.8961 C   0  0  0  0  0  0  0  0  0  0  0  0
  151.9808  144.3817  159.3298 C   0  0  0  0  0  0  0  0  0  0  0  0
  152.7925  144.1536  160.4751 O   0  0  0  0  0  0  0  0  0  0  0  0
  153.0434  142.7598  160.6219 C   0  0  0  0  0  0  0  0  0  0  0  0
  154.3197  138.5164  158.3590 H   0  0  0  0  0  0  0  0  0  0  0  0
  153.2480  138.7701  160.1286 H   0  0  0  0  0  0  0  0  0  0  0  0
  154.2275  140.2033  160.3396 H   0  0  0  0  0  0  0  0  0  0  0  0
  151.5881  140.4479  160.2076 H   0  0  0  0  0  0  0  0  0  0  0  0
  150.7721  140.8464  157.8183 H   0  0  0  0  0  0  0  0  0  0  0  0
  152.2525  140.1100  157.2532 H   0  0  0  0  0  0  0  0  0  0  0  0
  152.1877  137.8484  159.6520 H   0  0  0  0  0  0  0  0  0  0  0  0
  148.6869  135.1783  159.7875 H   0  0  0  0  0  0  0  0  0  0  0  0
  147.1046  135.8594  159.4651 H   0  0  0  0  0  0  0  0  0  0  0  0
  146.9372  133.6700  160.6552 H   0  0  0  0  0  0  0  0  0  0  0  0
  146.1419  133.6282  159.0975 H   0  0  0  0  0  0  0  0  0  0  0  0
  148.9393  132.5497  159.7123 H   0  0  0  0  0  0  0  0  0  0  0  0
  147.5143  131.5872  159.3847 H   0  0  0  0  0  0  0  0  0  0  0  0
  148.9375  131.7954  157.3659 H   0  0  0  0  0  0  0  0  0  0  0  0
  147.3560  132.4784  157.1130 H   0  0  0  0  0  0  0  0  0  0  0  0
  149.8830  134.0338  157.8158 H   0  0  0  0  0  0  0  0  0  0  0  0
  149.9803  134.9284  155.6187 H   0  0  0  0  0  0  0  0  0  0  0  0
  150.9302  133.1923  154.6969 H   0  0  0  0  0  0  0  0  0  0  0  0
  150.3107  132.1480  155.9508 H   0  0  0  0  0  0  0  0  0  0  0  0
  149.6151  131.7024  153.3747 H   0  0  0  0  0  0  0  0  0  0  0  0
  148.3789  131.5722  154.6255 H   0  0  0  0  0  0  0  0  0  0  0  0
  148.9564  133.9772  152.8650 H   0  0  0  0  0  0  0  0  0  0  0  0
  147.4002  133.1755  153.0745 H   0  0  0  0  0  0  0  0  0  0  0  0
  147.1379  134.0301  155.2794 H   0  0  0  0  0  0  0  0  0  0  0  0
  148.3443  135.8053  153.5839 H   0  0  0  0  0  0  0  0  0  0  0  0
  147.3649  138.7208  155.4729 H   0  0  0  0  0  0  0  0  0  0  0  0
  153.4476  142.2427  158.5809 H   0  0  0  0  0  0  0  0  0  0  0  0
  151.2564  142.9711  157.8307 H   0  0  0  0  0  0  0  0  0  0  0  0
  150.5820  142.7428  159.4489 H   0  0  0  0  0  0  0  0  0  0  0  0
  152.6002  144.8263  158.5500 H   0  0  0  0  0  0  0  0  0  0  0  0
  151.1643  145.0702  159.5485 H   0  0  0  0  0  0  0  0  0  0  0  0
  152.4284  142.3894  161.4432 H   0  0  0  0  0  0  0  0  0  0  0  0
  154.0887  142.5816  160.8746 H   0  0  0  0  0  0  0  0  0  0  0  0
  1  2  1  0  0  0  0
  1 31  1  0  0  0  0
  2  3  1  0  0  0  0
  2 32  1  0  0  0  0
  2 33  1  0  0  0  0
  3  4  1  0  0  0  0
  3 26  1  0  0  0  0
  3 34  1  0  0  0  0
  4  5  1  0  0  0  0
  4 35  1  0  0  0  0
  4 36  1  0  0  0  0
  5 25  1  0  0  0  0
  5  6  1  0  0  0  0
  6  7  2  0  0  0  0
  6 37  1  0  0  0  0
  7  8  1  0  0  0  0
  8 25  2  0  0  0  0
  8  9  1  0  0  0  0
  9 10  1  0  0  0  0
  9 22  2  0  0  0  0
 10 15  1  0  0  0  0
 10 11  1  0  0  0  0
 11 12  1  0  0  0  0
 11 38  1  0  0  0  0
 11 39  1  0  0  0  0
 12 13  1  0  0  0  0
 12 40  1  0  0  0  0
 12 41  1  0  0  0  0
 13 14  1  0  0  0  0
 13 42  1  0  0  0  0
 13 43  1  0  0  0  0
 14 15  1  0  0  0  0
 14 44  1  0  0  0  0
 14 45  1  0  0  0  0
 15 16  1  0  0  0  0
 15 46  1  0  0  0  0
 16 20  1  0  0  0  0
 16 17  1  0  0  0  0
 16 47  1  0  0  0  0
 17 18  1  0  0  0  0
 17 48  1  0  0  0  0
 17 49  1  0  0  0  0
 18 19  1  0  0  0  0
 18 50  1  0  0  0  0
 18 51  1  0  0  0  0
 19 20  1  0  0  0  0
 19 52  1  0  0  0  0
 19 53  1  0  0  0  0
 20 21  1  0  0  0  0
 20 54  1  0  0  0  0
 21 55  1  0  0  0  0
 22 23  1  0  0  0  0
 23 24  2  0  0  0  0
 23 56  1  0  0  0  0
 24 25  1  0  0  0  0
 26 30  1  0  0  0  0
 26 27  1  0  0  0  0
 26 57  1  0  0  0  0
 27 28  1  0  0  0  0
 27 58  1  0  0  0  0
 27 59  1  0  0  0  0
 28 29  1  0  0  0  0
 28 60  1  0  0  0  0
 28 61  1  0  0  0  0
 29 30  1  0  0  0  0
 30 62  1  0  0  0  0
 30 63  1  0  0  0  0
M  END
> <s_m_source_file>
AV-unprocessed.smi

> <i_m_source_file_index>
148

> <i_lp_mmshare_version>
43012

> <i_f3d_flags>
0

> <s_epik_input>
W0NIMl0xT1tDSDJdW0NIMl1bQ0BIXTFbQ0BIXShbQ0gyXVtPSF0pW0NIMl1uKFtjSF1uMiljKGMyMyluW2NIXW5jM040W0NIMl1bQ0gyXVtDSDJdW0NIMl1bQ0BIXTRbQ0BASF01W0NIMl1bQ0gyXVtDSDJdW0NASF01W09IXQ==

> <s_epik_cmdline>
J2VwaWtfcHl0aG9uJywgJy1waCcsICc3LjAnLCAnLXRuJywgJzgnLCAnLW1hJywgJzIwMCcsICctbWV0YWxfYmluZGluZycsICctaW1hZScsICc8aW5maWxlLm1hZT4nLCAnLW9tYWUnLCAnPG91dGZpbGUubWFlPic=

> <r_lp_tautomer_probability>
1

> <r_epik_Ionization_Penalty>
0.00556303

> <r_epik_Ionization_Penalty_Charging>
0

> <r_epik_Ionization_Penalty_Neutral>
0.00556303

> <r_epik_State_Penalty>
0.00401767

> <r_epik_Charging_Adjusted_Penalty>
0.00401767

> <i_epik_Tot_Q>
0

> <i_epik_Tot_abs_Q>
0

> <r_epik_Metal_State_Penalty>
-0

> <b_epik_Metal_Only>
0

> <s_lp_Force_Field>
OPLS_2005

> <r_lp_Energy>
68.4818

> <b_lp_Chiralities_Consistent>
1

> <s_lp_Variant>
AV-unprocessed.smi:148-29

> <Gold.Version>
5.8.1

> <Gold.Id.Protein>
6NUR|6NUR_protein|mol2

> <Gold.PLP.Fitness>
49.1549

> <Gold.PLP.PLP>
-41.8432

> <Gold.PLP.part.hbond>
-3.0000

> <Gold.PLP.part.metal>
0.0000

> <Gold.PLP.part.buried>
-5.5250

> <Gold.PLP.part.nonpolar>
-33.6855

> <Gold.PLP.part.repulsive>
0.0697

> <Gold.PLP.ligand.clash>
0.0000

> <Gold.PLP.ligand.torsion>
0.9890

> <Gold.PLP.Chemscore.Hbond>
2.9360

> <Gold.PLP.Chemscore.CHOScore>
0.0000

> <Gold.PLP.Chemscore.Metal>
0.0000

> <Gold.Chemscore.Hbonds>
donor molecule, donor type, donor heavy atom, donor atom, acceptor molecule, acceptor atom, score
      L1  H    21    55       P1  7948  1.00
      P1  H  6896  6909       L1     7  1.00
      P1  H  7997  8008       L1     1  0.89

> <Gold.PLP.Chemscore.Internal.Correction>
0.4817

> <Gold.Rescore>
     Score         DG    S(hbond)    S(metal)    S(lipo)     H(rot)  DE(clash)    DE(int)     intcor
     14.88     -18.17       2.90        0.00      98.30       3.32       0.00       3.29       ----

> <Gold.Chemscore.Fitness>
14.8805

> <Gold.Chemscore.DG>
-18.1741

> <Gold.Chemscore.ZeroCoef>
-5.4800

> <Gold.Chemscore.Hbond>
2.9021

> <Gold.Chemscore.Metal>
0.0000

> <Gold.Chemscore.Lipo>
98.3008

> <Gold.Chemscore.Internal_Hbond>
0.0000

> <Gold.Chemscore.DEClash>
0.0000

> <Gold.Chemscore.DEInternal>
3.2936

> <Gold.Chemscore.Rot>
3.3203

> <Gold.Chemscore.Internal.Correction>
   9.000000E+99

> <Gold.Chemscore.Hbonds>
donor molecule, donor type, donor heavy atom, donor atom, acceptor molecule, acceptor atom, score
      L1  H    21    55       P1  7948  1.00
      P1  H  6896  6909       L1     7  0.93
      P1  H  7997  8008       L1     1  0.38

> <Gold.Chemscore.Hbond.Weighted>
-9.6929

> <Gold.Chemscore.Metal.Weighted>
-0.0000

> <Gold.Chemscore.Lipo.Weighted>
-11.5012

> <Gold.Chemscore.Internal_Hbond.Weighted>
0.0000

> <Gold.Chemscore.DEClash.Weighted>
0.0000

> <Gold.Chemscore.DEInternal.Weighted>
3.2936

> <Gold.Chemscore.Rot.Weighted>
8.5000

> <Gold.Chemscore.Internal.Correction.Weighted>
   9.000000E+99

> <Gold.Protein.RotatedTorsions>
[ 6907 6896 6895 6894 ] final   75.08 input  -60.11 | X-H torsion
[ 7974 7965 7964 7962 ] final -166.29 input  175.53 | X-H torsion
[ 8008 7997 7996 7995 ] final -107.85 input   59.86 | X-H torsion
[ 10167 10162 10161 10158 ] final   38.73 input  -65.29 | X-H torsion
[ 10718 10713 10712 10709 ] final   74.87 input   66.30 | X-H torsion
[ 10763 10752 10751 10750 ] final   66.74 input  -60.55 | X-H torsion
[ 11005 11000 10999 10996 ] final -109.18 input  -57.11 | X-H torsion

> <Gold.Protein.ActiveResidues>
 VAL166  LYS551  ARG553  GLY616  TRP617  ASP618  TYR619  PRO620  LYS621  CYS622 
 ASP623  PHE694  ASN695  SER759  ASP760  ASP761  ALA762  ILE779  LEU786  VAL792 
 PHE793  MET794  SER795  GLU796  ALA797  LYS798  CYS799  TRP800  GLU811  SER814 

> <Gold.Protein.RotatedAtoms>
  152.5008  134.4175  159.9469 H   0  0  0  0  0  0  0  0  0  0  0  0  # atno 6907 bound_to 6896
  151.4146  133.3710  159.2756 H   0  0  0  0  0  0  0  0  0  0  0  0  # atno 6908 bound_to 6896
  150.9267  134.8705  159.7584 H   0  0  0  0  0  0  0  0  0  0  0  0  # atno 6909 bound_to 6896
  144.7249  140.2688  143.6254 H   0  0  0  0  0  0  0  0  0  0  0  0  # atno 7974 bound_to 7965
  154.9355  140.0404  157.2070 H   0  0  0  0  0  0  0  0  0  0  0  0  # atno 8008 bound_to 7997
  154.8119  140.2869  155.5825 H   0  0  0  0  0  0  0  0  0  0  0  0  # atno 8009 bound_to 7997
  156.2972  140.2535  156.3009 H   0  0  0  0  0  0  0  0  0  0  0  0  # atno 8010 bound_to 7997
  140.3908  144.1855  150.6131 H   0  0  0  0  0  0  0  0  0  0  0  0  # atno 10167 bound_to 10162
  157.6610  130.9698  150.1272 H   0  0  0  0  0  0  0  0  0  0  0  0  # atno 10718 bound_to 10713
  153.0154  135.5309  154.6871 H   0  0  0  0  0  0  0  0  0  0  0  0  # atno 10763 bound_to 10752
  154.6015  135.2869  155.0532 H   0  0  0  0  0  0  0  0  0  0  0  0  # atno 10764 bound_to 10752
  154.1587  135.6551  153.5033 H   0  0  0  0  0  0  0  0  0  0  0  0  # atno 10765 bound_to 10752
  141.0861  133.9136  157.2181 H   0  0  0  0  0  0  0  0  0  0  0  0  # atno 11005 bound_to 11000
  145.8063  139.1985  143.2019 LP  0  0  0  0  0  0  0  0  0  0  0  0  # atno 17320 bound_to 7965
  146.0634  140.7947  142.9724 LP  0  0  0  0  0  0  0  0  0  0  0  0  # atno 17321 bound_to 7965
  140.4841  143.2369  151.8913 LP  0  0  0  0  0  0  0  0  0  0  0  0  # atno 17342 bound_to 10162
  139.4789  144.5237  151.8765 LP  0  0  0  0  0  0  0  0  0  0  0  0  # atno 17343 bound_to 10162
  156.2128  130.3668  149.8650 LP  0  0  0  0  0  0  0  0  0  0  0  0  # atno 17370 bound_to 10713
  156.6524  130.8749  151.3533 LP  0  0  0  0  0  0  0  0  0  0  0  0  # atno 17371 bound_to 10713
  139.9680  135.0136  156.9438 LP  0  0  0  0  0  0  0  0  0  0  0  0  # atno 17394 bound_to 11000
  140.5358  134.0768  155.7328 LP  0  0  0  0  0  0  0  0  0  0  0  0  # atno 17395 bound_to 11000

$$$$
