AV-unprocessed.smi:36|AV-procd|sdf|283|dock3
  -GOLD-   2262016 63D 1   1.00000     0.00000
 Structure written by MMmdl.
 64 67  0  0  0  0  0  0  0  0  1 V2000
  151.9682  127.1375  166.4753 C   0  0  0  0  0  0  0  0  0  0  0  0
  152.1018  128.5722  165.9384 C   0  0  0  0  0  0  0  0  0  0  0  0
  152.8664  128.5621  164.6042 C   0  0  0  0  0  0  0  0  0  0  0  0
  150.7068  129.1856  165.7313 C   0  0  0  0  0  0  0  0  0  0  0  0
  153.0639  129.6354  167.2004 Si  0  0  0  0  0  0  0  0  0  0  0  0
  152.1531  129.7010  168.8672 C   0  0  0  0  0  0  0  0  0  0  0  0
  154.8275  128.9780  167.4573 C   0  0  0  0  0  0  0  0  0  0  0  0
  153.1684  131.2073  166.5821 O   0  0  0  0  0  0  0  0  0  0  0  0
  153.7440  131.5242  165.3312 C   0  0  0  0  0  0  0  0  0  0  0  0
  154.4345  132.8933  165.4262 C   0  0  2  0  0  0  0  0  0  0  0  0
  154.9259  133.3208  164.1615 O   0  0  0  0  0  0  0  0  0  0  0  0
  155.9684  134.2350  164.3396 C   0  0  1  0  0  0  0  0  0  0  0  0
  155.4873  135.5883  163.9300 N   0  0  0  0  0  0  0  0  0  0  0  0
  154.4475  136.3358  164.4409 C   0  0  0  0  0  0  0  0  0  0  0  0
  154.2638  137.4973  163.8719 N   0  0  0  0  0  0  0  0  0  0  0  0
  155.2529  137.5558  162.8981 C   0  0  0  0  0  0  0  0  0  0  0  0
  155.6218  138.5218  161.9261 C   0  0  0  0  0  0  0  0  0  0  0  0
  154.9294  139.6803  161.8229 N   0  0  0  0  0  0  0  0  0  0  0  0
  154.4329  140.3256  160.6201 C   0  0  0  0  0  0  0  0  0  0  0  0
  154.6867  139.8969  159.4939 O   0  0  0  0  0  0  0  0  0  0  0  0
  153.6600  141.5963  160.8249 C   0  0  0  0  0  0  0  0  0  0  0  0
  153.0129  142.2144  159.7311 C   0  0  0  0  0  0  0  0  0  0  0  0
  152.2683  143.3957  159.9176 C   0  0  0  0  0  0  0  0  0  0  0  0
  152.1587  143.9650  161.2001 C   0  0  0  0  0  0  0  0  0  0  0  0
  152.7910  143.3503  162.2971 C   0  0  0  0  0  0  0  0  0  0  0  0
  153.5353  142.1688  162.1123 C   0  0  0  0  0  0  0  0  0  0  0  0
  156.6775  138.2275  161.1218 N   0  0  0  0  0  0  0  0  0  0  0  0
  157.3260  137.0671  161.2591 C   0  0  0  0  0  0  0  0  0  0  0  0
  157.0876  136.0747  162.1196 N   0  0  0  0  0  0  0  0  0  0  0  0
  156.0283  136.3642  162.9290 C   0  0  0  0  0  0  0  0  0  0  0  0
  156.3369  134.2404  165.8300 C   0  0  0  0  0  0  0  0  0  0  0  0
  155.6562  132.9878  166.3470 C   0  0  2  0  0  0  0  0  0  0  0  0
  156.5105  131.8670  166.2211 O   0  0  0  0  0  0  0  0  0  0  0  0
  151.4246  126.5018  165.7756 H   0  0  0  0  0  0  0  0  0  0  0  0
  151.4300  127.1163  167.4231 H   0  0  0  0  0  0  0  0  0  0  0  0
  152.9451  126.6828  166.6412 H   0  0  0  0  0  0  0  0  0  0  0  0
  153.8576  128.1222  164.7169 H   0  0  0  0  0  0  0  0  0  0  0  0
  152.9973  129.5723  164.2151 H   0  0  0  0  0  0  0  0  0  0  0  0
  152.3358  127.9835  163.8472 H   0  0  0  0  0  0  0  0  0  0  0  0
  150.1288  128.6189  165.0007 H   0  0  0  0  0  0  0  0  0  0  0  0
  150.7756  130.2128  165.3713 H   0  0  0  0  0  0  0  0  0  0  0  0
  150.1365  129.2010  166.6604 H   0  0  0  0  0  0  0  0  0  0  0  0
  152.0357  128.7069  169.2976 H   0  0  0  0  0  0  0  0  0  0  0  0
  151.1565  130.1291  168.7633 H   0  0  0  0  0  0  0  0  0  0  0  0
  152.6925  130.3047  169.5962 H   0  0  0  0  0  0  0  0  0  0  0  0
  154.8232  127.9590  167.8433 H   0  0  0  0  0  0  0  0  0  0  0  0
  155.3816  129.5913  168.1674 H   0  0  0  0  0  0  0  0  0  0  0  0
  155.3932  128.9710  166.5261 H   0  0  0  0  0  0  0  0  0  0  0  0
  154.4375  130.7476  165.0075 H   0  0  0  0  0  0  0  0  0  0  0  0
  152.9460  131.5620  164.5895 H   0  0  0  0  0  0  0  0  0  0  0  0
  153.7007  133.6332  165.7503 H   0  0  0  0  0  0  0  0  0  0  0  0
  156.8001  134.0058  163.6725 H   0  0  0  0  0  0  0  0  0  0  0  0
  153.8212  135.9935  165.2516 H   0  0  0  0  0  0  0  0  0  0  0  0
  154.7033  140.1381  162.6938 H   0  0  0  0  0  0  0  0  0  0  0  0
  153.0855  141.7889  158.7404 H   0  0  0  0  0  0  0  0  0  0  0  0
  151.7800  143.8637  159.0755 H   0  0  0  0  0  0  0  0  0  0  0  0
  151.5868  144.8700  161.3429 H   0  0  0  0  0  0  0  0  0  0  0  0
  152.7022  143.7830  163.2828 H   0  0  0  0  0  0  0  0  0  0  0  0
  154.0030  141.7086  162.9706 H   0  0  0  0  0  0  0  0  0  0  0  0
  158.1530  136.9112  160.5822 H   0  0  0  0  0  0  0  0  0  0  0  0
  157.4183  134.2534  165.9706 H   0  0  0  0  0  0  0  0  0  0  0  0
  155.9124  135.1217  166.3140 H   0  0  0  0  0  0  0  0  0  0  0  0
  155.3663  133.0843  167.3937 H   0  0  0  0  0  0  0  0  0  0  0  0
  156.7505  131.5744  167.0873 H   0  0  0  0  0  0  0  0  0  0  0  0
  1  2  1  0  0  0  0
  1 34  1  0  0  0  0
  1 35  1  0  0  0  0
  1 36  1  0  0  0  0
  2  3  1  0  0  0  0
  2  4  1  0  0  0  0
  2  5  1  0  0  0  0
  3 37  1  0  0  0  0
  3 38  1  0  0  0  0
  3 39  1  0  0  0  0
  4 40  1  0  0  0  0
  4 41  1  0  0  0  0
  4 42  1  0  0  0  0
  5  6  1  0  0  0  0
  5  7  1  0  0  0  0
  5  8  1  0  0  0  0
  6 43  1  0  0  0  0
  6 44  1  0  0  0  0
  6 45  1  0  0  0  0
  7 46  1  0  0  0  0
  7 47  1  0  0  0  0
  7 48  1  0  0  0  0
  8  9  1  0  0  0  0
  9 10  1  0  0  0  0
  9 49  1  0  0  0  0
  9 50  1  0  0  0  0
 10 32  1  0  0  0  0
 10 11  1  0  0  0  0
 10 51  1  0  0  0  0
 11 12  1  0  0  0  0
 12 13  1  0  0  0  0
 12 31  1  0  0  0  0
 12 52  1  0  0  0  0
 13 30  1  0  0  0  0
 13 14  1  0  0  0  0
 14 15  2  0  0  0  0
 14 53  1  0  0  0  0
 15 16  1  0  0  0  0
 16 30  2  0  0  0  0
 16 17  1  0  0  0  0
 17 18  1  0  0  0  0
 17 27  2  0  0  0  0
 18 19  1  0  0  0  0
 18 54  1  0  0  0  0
 19 20  2  0  0  0  0
 19 21  1  0  0  0  0
 21 26  1  0  0  0  0
 21 22  2  0  0  0  0
 22 23  1  0  0  0  0
 22 55  1  0  0  0  0
 23 24  2  0  0  0  0
 23 56  1  0  0  0  0
 24 25  1  0  0  0  0
 24 57  1  0  0  0  0
 25 26  2  0  0  0  0
 25 58  1  0  0  0  0
 26 59  1  0  0  0  0
 27 28  1  0  0  0  0
 28 29  2  0  0  0  0
 28 60  1  0  0  0  0
 29 30  1  0  0  0  0
 31 32  1  0  0  0  0
 31 61  1  0  0  0  0
 31 62  1  0  0  0  0
 32 33  1  0  0  0  0
 32 63  1  0  0  0  0
 33 64  1  0  0  0  0
M  END
> <s_m_source_file>
AV-unprocessed.smi

> <i_m_source_file_index>
36

> <i_lp_mmshare_version>
43012

> <i_f3d_flags>
0

> <s_epik_input>
W0NIM11DKFtDSDNdKShbQ0gzXSlbU2ldKFtDSDNdKShbQ0gzXSlPW0NIMl1bQ0BASF0xT1tDQEhdKFtDSDJdW0NASF0xW09IXSluKFtjSF1uMiljKGMyMyluW2NIXW5jM1tOSF1DKD1PKWM0W2NIXVtjSF1bY0hdW2NIXVtjSF00

> <s_epik_cmdline>
J2VwaWtfcHl0aG9uJywgJy1waCcsICc3LjAnLCAnLXRuJywgJzgnLCAnLW1hJywgJzIwMCcsICctbWV0YWxfYmluZGluZycsICctaW1hZScsICc8aW5maWxlLm1hZT4nLCAnLW9tYWUnLCAnPG91dGZpbGUubWFlPic=

> <r_lp_tautomer_probability>
1

> <r_epik_Ionization_Penalty>
0.00150433

> <r_epik_Ionization_Penalty_Charging>
0

> <r_epik_Ionization_Penalty_Neutral>
0.00150433

> <r_epik_State_Penalty>
0.00724046

> <r_epik_Charging_Adjusted_Penalty>
0.00724046

> <i_epik_Tot_Q>
0

> <i_epik_Tot_abs_Q>
0

> <r_epik_Metal_State_Penalty>
0.323355

> <b_epik_Metal_Only>
0

> <s_epik_Chemistry_Notes>
This compound contains an acetal/aminal-like group ( X-CH(R)-Y where X, Y are N, S, or O) that may be acid/base labile, releasing an aldehyde.

> <s_lp_Force_Field>
OPLS_2005

> <r_lp_Energy>
37.4738

> <b_lp_Chiralities_Consistent>
1

> <s_lp_Variant>
AV-unprocessed.smi:36-5

> <Gold.Version>
5.8.1

> <Gold.Id.Protein>
6NUR|6NUR_protein|mol2

> <Gold.PLP.Fitness>
57.7042

> <Gold.PLP.PLP>
-55.9799

> <Gold.PLP.part.hbond>
-1.0000

> <Gold.PLP.part.metal>
0.0000

> <Gold.PLP.part.buried>
-7.0827

> <Gold.PLP.part.nonpolar>
-47.0853

> <Gold.PLP.part.repulsive>
0.1182

> <Gold.PLP.ligand.clash>
0.0000

> <Gold.PLP.ligand.torsion>
0.6802

> <Gold.PLP.Chemscore.Hbond>
1.0000

> <Gold.PLP.Chemscore.CHOScore>
0.0000

> <Gold.PLP.Chemscore.Metal>
0.0000

> <Gold.Chemscore.Hbonds>
donor molecule, donor type, donor heavy atom, donor atom, acceptor molecule, acceptor atom, score
      P1  H  7997  8008       L1    20  0.59

> <Gold.PLP.Chemscore.Internal.Correction>
0.0847

> <Gold.Rescore>
     Score         DG    S(hbond)    S(metal)    S(lipo)     H(rot)  DE(clash)    DE(int)     intcor
     16.33     -17.55       0.99        0.00     133.99       2.70       0.20       1.01       ----

> <Gold.Chemscore.Fitness>
16.3339

> <Gold.Chemscore.DG>
-17.5451

> <Gold.Chemscore.ZeroCoef>
-5.4800

> <Gold.Chemscore.Hbond>
0.9913

> <Gold.Chemscore.Metal>
0.0000

> <Gold.Chemscore.Lipo>
133.9895

> <Gold.Chemscore.Internal_Hbond>
0.0000

> <Gold.Chemscore.DEClash>
0.2001

> <Gold.Chemscore.DEInternal>
1.0111

> <Gold.Chemscore.Rot>
2.7041

> <Gold.Chemscore.Internal.Correction>
   9.000000E+99

> <Gold.Chemscore.Hbonds>
donor molecule, donor type, donor heavy atom, donor atom, acceptor molecule, acceptor atom, score
      P1  H  7997  8008       L1    20  0.57

> <Gold.Chemscore.Hbond.Weighted>
-3.3108

> <Gold.Chemscore.Metal.Weighted>
-0.0000

> <Gold.Chemscore.Lipo.Weighted>
-15.6768

> <Gold.Chemscore.Internal_Hbond.Weighted>
0.0000

> <Gold.Chemscore.DEClash.Weighted>
0.2001

> <Gold.Chemscore.DEInternal.Weighted>
1.0111

> <Gold.Chemscore.Rot.Weighted>
6.9225

> <Gold.Chemscore.Internal.Correction.Weighted>
   9.000000E+99

> <Gold.Protein.RotatedTorsions>
[ 6907 6896 6895 6894 ] final   -7.54 input  -60.11 | X-H torsion
[ 7974 7965 7964 7962 ] final   65.87 input  175.53 | X-H torsion
[ 8008 7997 7996 7995 ] final -126.77 input   59.86 | X-H torsion
[ 10167 10162 10161 10158 ] final  -89.94 input  -65.29 | X-H torsion
[ 10718 10713 10712 10709 ] final   28.53 input   66.30 | X-H torsion
[ 10763 10752 10751 10750 ] final -134.36 input  -60.55 | X-H torsion
[ 11005 11000 10999 10996 ] final  111.49 input  -57.11 | X-H torsion

> <Gold.Protein.ActiveResidues>
 VAL166  LYS551  ARG553  GLY616  TRP617  ASP618  TYR619  PRO620  LYS621  CYS622 
 ASP623  PHE694  ASN695  SER759  ASP760  ASP761  ALA762  ILE779  LEU786  VAL792 
 PHE793  MET794  SER795  GLU796  ALA797  LYS798  CYS799  TRP800  GLU811  SER814 

> <Gold.Protein.RotatedAtoms>
  151.4480  135.1027  159.9689 H   0  0  0  0  0  0  0  0  0  0  0  0  # atno 6907 bound_to 6896
  152.4899  133.8467  159.7191 H   0  0  0  0  0  0  0  0  0  0  0  0  # atno 6908 bound_to 6896
  150.9042  133.7020  159.2898 H   0  0  0  0  0  0  0  0  0  0  0  0  # atno 6909 bound_to 6896
  145.8333  139.3152  143.0974 H   0  0  0  0  0  0  0  0  0  0  0  0  # atno 7974 bound_to 7965
  155.2352  140.0426  157.2967 H   0  0  0  0  0  0  0  0  0  0  0  0  # atno 8008 bound_to 7997
  154.5863  140.2414  155.7953 H   0  0  0  0  0  0  0  0  0  0  0  0  # atno 8009 bound_to 7997
  156.2228  140.2964  156.0003 H   0  0  0  0  0  0  0  0  0  0  0  0  # atno 8010 bound_to 7997
  140.3599  143.2847  151.9627 H   0  0  0  0  0  0  0  0  0  0  0  0  # atno 10167 bound_to 10162
  157.2347  130.7040  149.6330 H   0  0  0  0  0  0  0  0  0  0  0  0  # atno 10718 bound_to 10713
  154.8720  135.3737  154.4723 H   0  0  0  0  0  0  0  0  0  0  0  0  # atno 10763 bound_to 10752
  153.5383  135.7027  153.5654 H   0  0  0  0  0  0  0  0  0  0  0  0  # atno 10764 bound_to 10752
  153.3828  135.3992  155.1833 H   0  0  0  0  0  0  0  0  0  0  0  0  # atno 10765 bound_to 10752
  139.8905  134.9509  156.6440 H   0  0  0  0  0  0  0  0  0  0  0  0  # atno 11005 bound_to 11000
  145.9547  140.8882  143.0241 LP  0  0  0  0  0  0  0  0  0  0  0  0  # atno 17320 bound_to 7965
  144.6738  140.1728  143.7413 LP  0  0  0  0  0  0  0  0  0  0  0  0  # atno 17321 bound_to 7965
  139.4815  144.6002  151.7619 LP  0  0  0  0  0  0  0  0  0  0  0  0  # atno 17342 bound_to 10162
  140.5137  144.0985  150.6002 LP  0  0  0  0  0  0  0  0  0  0  0  0  # atno 17343 bound_to 10162
  155.9673  130.4477  150.5592 LP  0  0  0  0  0  0  0  0  0  0  0  0  # atno 17370 bound_to 10713
  157.3441  131.0722  151.1765 LP  0  0  0  0  0  0  0  0  0  0  0  0  # atno 17371 bound_to 10713
  140.7571  133.8848  155.8390 LP  0  0  0  0  0  0  0  0  0  0  0  0  # atno 17394 bound_to 11000
  140.9952  134.1224  157.4370 LP  0  0  0  0  0  0  0  0  0  0  0  0  # atno 17395 bound_to 11000

$$$$
