AV-unprocessed.smi:1419|AV-procd|sdf|5781|dock5
  -GOLD-   22720 5423D 1   1.00000     0.00000
 Structure written by MMmdl.
 41 42  0  0  0  0  0  0  0  0  1 V2000
  148.9247  140.4095  157.3679 C   0  0  0  0  0  0  0  0  0  0  0  0
  150.2735  140.7857  156.7403 C   0  0  1  0  0  0  0  0  0  0  0  0
  150.0824  141.5546  155.4147 C   0  0  0  0  0  0  0  0  0  0  0  0
  148.9615  141.0586  154.6358 N   0  0  0  0  0  0  0  0  0  0  0  0
  147.8464  141.7742  154.2205 C   0  0  0  0  0  0  0  0  0  0  0  0
  147.0455  140.8896  153.5343 C   0  0  0  0  0  0  0  0  0  0  0  0
  147.6475  139.6336  153.5082 N   0  0  0  0  0  0  0  0  0  0  0  0
  148.7798  139.8127  154.1755 C   0  0  0  0  0  0  0  0  0  0  0  0
  151.0358  141.5902  157.6940 N   0  0  0  0  0  0  0  0  0  0  0  0
  151.9484  141.1242  158.5650 C   0  0  0  0  0  0  0  0  0  0  0  0
  152.1532  139.9200  158.7233 O   0  0  0  0  0  0  0  0  0  0  0  0
  152.6605  142.0859  159.2015 N   0  0  0  0  0  0  0  0  0  0  0  0
  153.4588  141.9264  160.4236 C   0  0  0  0  0  0  0  0  0  0  0  0
  152.6812  142.5774  161.5844 C   0  0  1  0  0  0  0  0  0  0  0  0
  153.4504  142.5091  162.9076 C   0  0  0  0  0  0  0  0  0  0  0  0
  152.4473  143.9513  161.2727 O   0  0  0  0  0  0  0  0  0  0  0  0
  151.7267  144.1568  160.0567 C   0  0  1  0  0  0  0  0  0  0  0  0
  151.5353  145.6641  159.8609 C   0  0  0  0  0  0  0  0  0  0  0  0
  152.5048  143.5084  158.8929 C   0  0  0  0  0  0  0  0  0  0  0  0
  148.3387  139.7863  156.6919 H   0  0  0  0  0  0  0  0  0  0  0  0
  148.3329  141.2955  157.6005 H   0  0  0  0  0  0  0  0  0  0  0  0
  149.0643  139.8490  158.2930 H   0  0  0  0  0  0  0  0  0  0  0  0
  150.8030  139.8543  156.5315 H   0  0  0  0  0  0  0  0  0  0  0  0
  149.9080  142.6122  155.6156 H   0  0  0  0  0  0  0  0  0  0  0  0
  150.9857  141.4972  154.8056 H   0  0  0  0  0  0  0  0  0  0  0  0
  147.7140  142.8209  154.4510 H   0  0  0  0  0  0  0  0  0  0  0  0
  146.0891  141.0590  153.0620 H   0  0  0  0  0  0  0  0  0  0  0  0
  149.4876  139.0146  154.3448 H   0  0  0  0  0  0  0  0  0  0  0  0
  150.9247  142.5915  157.6285 H   0  0  0  0  0  0  0  0  0  0  0  0
  153.6991  140.8894  160.6590 H   0  0  0  0  0  0  0  0  0  0  0  0
  154.4209  142.4237  160.2911 H   0  0  0  0  0  0  0  0  0  0  0  0
  151.7212  142.0742  161.7122 H   0  0  0  0  0  0  0  0  0  0  0  0
  153.6412  141.4756  163.1973 H   0  0  0  0  0  0  0  0  0  0  0  0
  152.8853  142.9806  163.7117 H   0  0  0  0  0  0  0  0  0  0  0  0
  154.4111  143.0192  162.8320 H   0  0  0  0  0  0  0  0  0  0  0  0
  150.7433  143.6904  160.1457 H   0  0  0  0  0  0  0  0  0  0  0  0
  150.9795  145.8730  158.9464 H   0  0  0  0  0  0  0  0  0  0  0  0
  152.4944  146.1788  159.7963 H   0  0  0  0  0  0  0  0  0  0  0  0
  150.9797  146.0967  160.6933 H   0  0  0  0  0  0  0  0  0  0  0  0
  153.4870  143.9708  158.7830 H   0  0  0  0  0  0  0  0  0  0  0  0
  151.9837  143.6811  157.9502 H   0  0  0  0  0  0  0  0  0  0  0  0
  1  2  1  0  0  0  0
  1 20  1  0  0  0  0
  1 21  1  0  0  0  0
  1 22  1  0  0  0  0
  2  3  1  0  0  0  0
  2  9  1  0  0  0  0
  2 23  1  0  0  0  0
  3  4  1  0  0  0  0
  3 24  1  0  0  0  0
  3 25  1  0  0  0  0
  4  8  1  0  0  0  0
  4  5  1  0  0  0  0
  5  6  2  0  0  0  0
  5 26  1  0  0  0  0
  6  7  1  0  0  0  0
  6 27  1  0  0  0  0
  7  8  2  0  0  0  0
  8 28  1  0  0  0  0
  9 10  1  0  0  0  0
  9 29  1  0  0  0  0
 10 11  2  0  0  0  0
 10 12  1  0  0  0  0
 12 19  1  0  0  0  0
 12 13  1  0  0  0  0
 13 14  1  0  0  0  0
 13 30  1  0  0  0  0
 13 31  1  0  0  0  0
 14 15  1  0  0  0  0
 14 16  1  0  0  0  0
 14 32  1  0  0  0  0
 15 33  1  0  0  0  0
 15 34  1  0  0  0  0
 15 35  1  0  0  0  0
 16 17  1  0  0  0  0
 17 18  1  0  0  0  0
 17 19  1  0  0  0  0
 17 36  1  0  0  0  0
 18 37  1  0  0  0  0
 18 38  1  0  0  0  0
 18 39  1  0  0  0  0
 19 40  1  0  0  0  0
 19 41  1  0  0  0  0
M  END
> <s_m_source_file>
AV-unprocessed.smi

> <i_m_source_file_index>
1419

> <i_lp_mmshare_version>
43012

> <i_f3d_flags>
0

> <s_epik_input>
W2NIXTFuW2NIXVtjSF1uMVtDSDJdW0NAQEhdKFtDSDNdKVtOSF1DKD1PKU4yW0NIMl1bQ0BASF0oW0NIM10pT1tDQEBIXShbQ0gzXSlbQ0gyXTI=

> <s_epik_cmdline>
J2VwaWtfcHl0aG9uJywgJy1waCcsICc3LjAnLCAnLXRuJywgJzgnLCAnLW1hJywgJzIwMCcsICctbWV0YWxfYmluZGluZycsICctaW1hZScsICc8aW5maWxlLm1hZT4nLCAnLW9tYWUnLCAnPG91dGZpbGUubWFlPic=

> <r_lp_tautomer_probability>
1

> <r_epik_Ionization_Penalty>
0.625124

> <r_epik_Ionization_Penalty_Charging>
0.625093

> <r_epik_Ionization_Penalty_Neutral>
3.17415e-05

> <r_epik_State_Penalty>
0.641455

> <r_epik_Charging_Adjusted_Penalty>
1.26655

> <i_epik_Tot_Q>
0

> <i_epik_Tot_abs_Q>
0

> <r_epik_Metal_State_Penalty>
0.307717

> <b_epik_Metal_Only>
0

> <s_lp_Force_Field>
OPLS_2005

> <r_lp_Energy>
27.9017

> <b_lp_Chiralities_Consistent>
1

> <s_lp_Variant>
AV-unprocessed.smi:1419-8

> <Gold.Version>
5.8.1

> <Gold.Id.Protein>
6NUR|6NUR_protein|mol2

> <Gold.PLP.Fitness>
48.3723

> <Gold.PLP.PLP>
-45.6874

> <Gold.PLP.part.hbond>
0.0000

> <Gold.PLP.part.metal>
0.0000

> <Gold.PLP.part.buried>
-4.1049

> <Gold.PLP.part.nonpolar>
-42.2927

> <Gold.PLP.part.repulsive>
0.7056

> <Gold.PLP.ligand.clash>
1.9042

> <Gold.PLP.ligand.torsion>
0.6491

> <Gold.PLP.Chemscore.Hbond>
0.0000

> <Gold.PLP.Chemscore.CHOScore>
1.9389

> <Gold.PLP.Chemscore.Metal>
0.0000

> <Gold.Chemscore.Hbonds>
donor molecule, donor type, donor heavy atom, donor atom, acceptor molecule, acceptor atom, score
      L1  C     5    26       P1  8028  1.00
      L1  C     6    27       P1 10175  1.00

> <Gold.PLP.Chemscore.Internal.Correction>
0.0706

> <Gold.Rescore>
     Score         DG    S(hbond)    S(metal)    S(lipo)     H(rot)  DE(clash)    DE(int)     intcor
     12.56     -13.17       0.00        0.00     100.22       1.58       0.06       0.54       ----

> <Gold.Chemscore.Fitness>
12.5639

> <Gold.Chemscore.DG>
-13.1691

> <Gold.Chemscore.ZeroCoef>
-5.4800

> <Gold.Chemscore.Hbond>
0.0000

> <Gold.Chemscore.Metal>
0.0000

> <Gold.Chemscore.Lipo>
100.2223

> <Gold.Chemscore.Internal_Hbond>
0.0000

> <Gold.Chemscore.DEClash>
0.0606

> <Gold.Chemscore.DEInternal>
0.5446

> <Gold.Chemscore.Rot>
1.5769

> <Gold.Chemscore.Internal.Correction>
   9.000000E+99

> <Gold.Chemscore.Hbond.Weighted>
-0.0000

> <Gold.Chemscore.Metal.Weighted>
-0.0000

> <Gold.Chemscore.Lipo.Weighted>
-11.7260

> <Gold.Chemscore.Internal_Hbond.Weighted>
0.0000

> <Gold.Chemscore.DEClash.Weighted>
0.0606

> <Gold.Chemscore.DEInternal.Weighted>
0.5446

> <Gold.Chemscore.Rot.Weighted>
4.0369

> <Gold.Chemscore.Internal.Correction.Weighted>
   9.000000E+99

> <Gold.Protein.RotatedTorsions>
[ 6907 6896 6895 6894 ] final   60.68 input  -60.11 | X-H torsion
[ 7974 7965 7964 7962 ] final   -4.09 input  175.53 | X-H torsion
[ 8008 7997 7996 7995 ] final  -49.68 input   59.86 | X-H torsion
[ 10167 10162 10161 10158 ] final  104.06 input  -65.29 | X-H torsion
[ 10718 10713 10712 10709 ] final  163.20 input   66.30 | X-H torsion
[ 10763 10752 10751 10750 ] final   90.22 input  -60.55 | X-H torsion
[ 11005 11000 10999 10996 ] final -149.92 input  -57.11 | X-H torsion

> <Gold.Protein.ActiveResidues>
 VAL166  LYS551  ARG553  GLY616  TRP617  ASP618  TYR619  PRO620  LYS621  CYS622 
 ASP623  PHE694  ASN695  SER759  ASP760  ASP761  ALA762  ILE779  LEU786  VAL792 
 PHE793  MET794  SER795  GLU796  ALA797  LYS798  CYS799  TRP800  GLU811  SER814 

> <Gold.Protein.RotatedAtoms>
  152.4024  134.6264  160.0064 H   0  0  0  0  0  0  0  0  0  0  0  0  # atno 6907 bound_to 6896
  151.6466  133.3317  159.3150 H   0  0  0  0  0  0  0  0  0  0  0  0  # atno 6908 bound_to 6896
  150.7922  134.6997  159.6588 H   0  0  0  0  0  0  0  0  0  0  0  0  # atno 6909 bound_to 6896
  146.2378  140.1819  142.8332 H   0  0  0  0  0  0  0  0  0  0  0  0  # atno 7974 bound_to 7965
  154.4048  140.1291  156.4542 H   0  0  0  0  0  0  0  0  0  0  0  0  # atno 8008 bound_to 7997
  155.7336  140.3491  155.5051 H   0  0  0  0  0  0  0  0  0  0  0  0  # atno 8009 bound_to 7997
  155.9104  140.1035  157.1274 H   0  0  0  0  0  0  0  0  0  0  0  0  # atno 8010 bound_to 7997
  139.7209  144.7058  151.0874 H   0  0  0  0  0  0  0  0  0  0  0  0  # atno 10167 bound_to 10162
  157.1119  131.0470  151.2453 H   0  0  0  0  0  0  0  0  0  0  0  0  # atno 10718 bound_to 10713
  153.1953  135.4442  155.0199 H   0  0  0  0  0  0  0  0  0  0  0  0  # atno 10763 bound_to 10752
  154.8115  135.3296  154.7295 H   0  0  0  0  0  0  0  0  0  0  0  0  # atno 10764 bound_to 10752
  153.7746  135.6982  153.4955 H   0  0  0  0  0  0  0  0  0  0  0  0  # atno 10765 bound_to 10752
  140.7457  134.3464  157.5137 H   0  0  0  0  0  0  0  0  0  0  0  0  # atno 11005 bound_to 11000
  144.9928  140.8562  143.5329 LP  0  0  0  0  0  0  0  0  0  0  0  0  # atno 17320 bound_to 7965
  145.1827  139.2343  143.5284 LP  0  0  0  0  0  0  0  0  0  0  0  0  # atno 17321 bound_to 7965
  140.7753  143.5167  150.9586 LP  0  0  0  0  0  0  0  0  0  0  0  0  # atno 17342 bound_to 10162
  139.8854  143.7019  152.3152 LP  0  0  0  0  0  0  0  0  0  0  0  0  # atno 17343 bound_to 10162
  157.4552  130.7621  149.7186 LP  0  0  0  0  0  0  0  0  0  0  0  0  # atno 17370 bound_to 10713
  155.9848  130.3988  150.3291 LP  0  0  0  0  0  0  0  0  0  0  0  0  # atno 17371 bound_to 10713
  139.8797  134.9109  156.3026 LP  0  0  0  0  0  0  0  0  0  0  0  0  # atno 17394 bound_to 11000
  140.9796  133.7275  156.0653 LP  0  0  0  0  0  0  0  0  0  0  0  0  # atno 17395 bound_to 11000

$$$$
