AV-unprocessed.smi:561|AV-procd|sdf|2942|dock4
  -GOLD-   2262023443D 1   1.00000     0.00000
 Structure written by MMmdl.
 35 36  0  0  0  0  0  0  0  0  2 V2000
  153.3194  142.5769  162.2531 C   0  0  0  0  0  0  0  0  0  0  0  0
  153.8769  141.9447  160.9703 C   0  0  2  0  0  0  0  0  0  0  0  0
  152.7455  141.6604  159.9489 C   0  0  0  0  0  0  0  0  0  0  0  0
  152.0950  142.8563  159.4234 N   0  0  0  0  0  0  0  0  0  0  0  0
  151.0540  142.9086  158.5020 C   0  0  0  0  0  0  0  0  0  0  0  0
  150.7581  144.2393  158.3132 C   0  0  0  0  0  0  0  0  0  0  0  0
  151.5859  145.0223  159.1136 N   0  0  0  0  0  0  0  0  0  0  0  0
  152.3476  144.1358  159.7422 C   0  0  0  0  0  0  0  0  0  0  0  0
  154.5640  140.6965  161.3238 N   0  5  0  0  0  0  0  0  0  0  0  0
  154.2527  139.4552  160.8399 C   0  0  0  0  0  0  0  0  0  0  0  0
  153.9531  139.1826  159.6709 O   0  0  0  0  0  0  0  0  0  0  0  0
  154.2427  138.2981  161.7833 C   0  0  0  0  0  0  0  0  0  0  0  0
  154.6460  138.4627  163.0047 N   0  0  0  0  0  0  0  0  0  0  0  0
  154.6309  137.4404  163.9305 N   0  0  0  0  0  0  0  0  0  0  0  0
  154.8609  137.8616  165.3109 C   0  0  0  0  0  0  0  0  0  0  0  0
  154.4459  136.1312  163.6311 C   0  0  0  0  0  0  0  0  0  0  0  0
  154.4101  135.2344  164.4741 O   0  0  0  0  0  0  0  0  0  0  0  0
  154.3091  135.7839  162.1469 C   0  0  0  0  0  0  0  0  0  0  0  0
  153.7207  136.9476  161.3251 C   0  0  0  0  0  0  0  0  0  0  0  0
  152.8179  143.5206  162.0367 H   0  0  0  0  0  0  0  0  0  0  0  0
  154.1165  142.7866  162.9673 H   0  0  0  0  0  0  0  0  0  0  0  0
  152.5972  141.9215  162.7411 H   0  0  0  0  0  0  0  0  0  0  0  0
  154.5559  142.6742  160.5264 H   0  0  0  0  0  0  0  0  0  0  0  0
  153.1279  141.0777  159.1094 H   0  0  0  0  0  0  0  0  0  0  0  0
  151.9751  141.0474  160.4183 H   0  0  0  0  0  0  0  0  0  0  0  0
  150.6323  142.0166  158.0627 H   0  0  0  0  0  0  0  0  0  0  0  0
  150.0157  144.6892  157.6708 H   0  0  0  0  0  0  0  0  0  0  0  0
  153.1104  144.4228  160.4511 H   0  0  0  0  0  0  0  0  0  0  0  0
  155.7399  137.3645  165.7234 H   0  0  0  0  0  0  0  0  0  0  0  0
  154.0021  137.6128  165.9358 H   0  0  0  0  0  0  0  0  0  0  0  0
  155.0250  138.9378  165.3886 H   0  0  0  0  0  0  0  0  0  0  0  0
  155.3055  135.5412  161.7756 H   0  0  0  0  0  0  0  0  0  0  0  0
  153.7008  134.8873  162.0246 H   0  0  0  0  0  0  0  0  0  0  0  0
  152.6325  136.9416  161.3956 H   0  0  0  0  0  0  0  0  0  0  0  0
  153.9628  136.7748  160.2761 H   0  0  0  0  0  0  0  0  0  0  0  0
  1  2  1  0  0  0  0
  1 20  1  0  0  0  0
  1 21  1  0  0  0  0
  1 22  1  0  0  0  0
  2  3  1  0  0  0  0
  2  9  1  0  0  0  0
  2 23  1  0  0  0  0
  3  4  1  0  0  0  0
  3 24  1  0  0  0  0
  3 25  1  0  0  0  0
  4  8  1  0  0  0  0
  4  5  1  0  0  0  0
  5  6  2  0  0  0  0
  5 26  1  0  0  0  0
  6  7  1  0  0  0  0
  6 27  1  0  0  0  0
  7  8  2  0  0  0  0
  8 28  1  0  0  0  0
  9 10  1  0  0  0  0
 10 11  2  0  0  0  0
 10 12  1  0  0  0  0
 12 19  1  0  0  0  0
 12 13  2  0  0  0  0
 13 14  1  0  0  0  0
 14 15  1  0  0  0  0
 14 16  1  0  0  0  0
 15 29  1  0  0  0  0
 15 30  1  0  0  0  0
 15 31  1  0  0  0  0
 16 17  2  0  0  0  0
 16 18  1  0  0  0  0
 18 19  1  0  0  0  0
 18 32  1  0  0  0  0
 18 33  1  0  0  0  0
 19 34  1  0  0  0  0
 19 35  1  0  0  0  0
M  CHG  1   9  -1
M  END
> <s_m_source_file>
AV-unprocessed.smi

> <i_m_source_file_index>
561

> <i_lp_mmshare_version>
43012

> <i_f3d_flags>
0

> <s_epik_input>
W2NIXTFuW2NIXVtjSF1uMVtDSDJdW0NAQEhdKFtDSDNdKVtOSF1DKD1PKUMyPU5OKFtDSDNdKUMoPU8pW0NIMl1bQ0gyXTI=

> <s_epik_cmdline>
J2VwaWtfcHl0aG9uJywgJy1waCcsICc3LjAnLCAnLXRuJywgJzgnLCAnLW1hJywgJzIwMCcsICctbWV0YWxfYmluZGluZycsICctaW1hZScsICc8aW5maWxlLm1hZT4nLCAnLW9tYWUnLCAnPG91dGZpbGUubWFlPic=

> <r_lp_tautomer_probability>
1

> <r_epik_Ionization_Penalty>
6.06239

> <r_epik_Ionization_Penalty_Charging>
6.06239

> <r_epik_Ionization_Penalty_Neutral>
3.91387e-09

> <r_epik_State_Penalty>
5.76729

> <r_epik_Charging_Adjusted_Penalty>
11.8297

> <i_epik_Tot_Q>
-1

> <i_epik_Tot_abs_Q>
1

> <r_epik_Metal_State_Penalty>
2.02369

> <b_epik_Metal_Only>
1

> <s_epik_Chemistry_Notes>
This compound has an imine and may undergo hydrolysis.

> <s_lp_Force_Field>
OPLS_2005

> <r_lp_Energy>
24.7282

> <b_lp_Chiralities_Consistent>
1

> <s_lp_Variant>
AV-unprocessed.smi:561-7

> <Gold.Version>
5.8.1

> <Gold.Id.Protein>
6NUR|6NUR_protein|mol2

> <Gold.PLP.Fitness>
47.5850

> <Gold.PLP.PLP>
-42.3090

> <Gold.PLP.part.hbond>
-1.3278

> <Gold.PLP.part.metal>
0.0000

> <Gold.PLP.part.buried>
-5.7763

> <Gold.PLP.part.nonpolar>
-34.9334

> <Gold.PLP.part.repulsive>
0.1094

> <Gold.PLP.ligand.clash>
0.0000

> <Gold.PLP.ligand.torsion>
0.3757

> <Gold.PLP.Chemscore.Hbond>
1.0000

> <Gold.PLP.Chemscore.CHOScore>
1.0000

> <Gold.PLP.Chemscore.Metal>
0.0000

> <Gold.Chemscore.Hbonds>
donor molecule, donor type, donor heavy atom, donor atom, acceptor molecule, acceptor atom, score
      L1  C     6    27       P1  8028  0.72
      L1  C     6    27       P1  8029  0.24

> <Gold.PLP.Chemscore.Internal.Correction>
0.0274

> <Gold.Rescore>
     Score         DG    S(hbond)    S(metal)    S(lipo)     H(rot)  DE(clash)    DE(int)     intcor
     12.04     -14.04       1.00        0.00      81.44       1.68       0.18       1.81       ----

> <Gold.Chemscore.Fitness>
12.0448

> <Gold.Chemscore.DG>
-14.0362

> <Gold.Chemscore.ZeroCoef>
-5.4800

> <Gold.Chemscore.Hbond>
0.9961

> <Gold.Chemscore.Metal>
0.0000

> <Gold.Chemscore.Lipo>
81.4442

> <Gold.Chemscore.Internal_Hbond>
0.0000

> <Gold.Chemscore.DEClash>
0.1812

> <Gold.Chemscore.DEInternal>
1.8102

> <Gold.Chemscore.Rot>
1.6796

> <Gold.Chemscore.Internal.Correction>
   9.000000E+99

> <Gold.Chemscore.Hbond.Weighted>
-3.3270

> <Gold.Chemscore.Metal.Weighted>
-0.0000

> <Gold.Chemscore.Lipo.Weighted>
-9.5290

> <Gold.Chemscore.Internal_Hbond.Weighted>
0.0000

> <Gold.Chemscore.DEClash.Weighted>
0.1812

> <Gold.Chemscore.DEInternal.Weighted>
1.8102

> <Gold.Chemscore.Rot.Weighted>
4.2997

> <Gold.Chemscore.Internal.Correction.Weighted>
   9.000000E+99

> <Gold.Protein.RotatedTorsions>
[ 6907 6896 6895 6894 ] final  144.26 input  -60.11 | X-H torsion
[ 7974 7965 7964 7962 ] final  -23.64 input  175.53 | X-H torsion
[ 8008 7997 7996 7995 ] final -110.84 input   59.86 | X-H torsion
[ 10167 10162 10161 10158 ] final   67.32 input  -65.29 | X-H torsion
[ 10718 10713 10712 10709 ] final -138.57 input   66.30 | X-H torsion
[ 10763 10752 10751 10750 ] final -161.23 input  -60.55 | X-H torsion
[ 11005 11000 10999 10996 ] final  131.68 input  -57.11 | X-H torsion

> <Gold.Protein.ActiveResidues>
 VAL166  LYS551  ARG553  GLY616  TRP617  ASP618  TYR619  PRO620  LYS621  CYS622 
 ASP623  PHE694  ASN695  SER759  ASP760  ASP761  ALA762  ILE779  LEU786  VAL792 
 PHE793  MET794  SER795  GLU796  ALA797  LYS798  CYS799  TRP800  GLU811  SER814 

> <Gold.Protein.RotatedAtoms>
  152.1959  133.4806  159.5032 H   0  0  0  0  0  0  0  0  0  0  0  0  # atno 6907 bound_to 6896
  150.6960  134.1652  159.4200 H   0  0  0  0  0  0  0  0  0  0  0  0  # atno 6908 bound_to 6896
  151.9569  135.0142  160.0596 H   0  0  0  0  0  0  0  0  0  0  0  0  # atno 6909 bound_to 6896
  146.1604  140.4643  142.8574 H   0  0  0  0  0  0  0  0  0  0  0  0  # atno 7974 bound_to 7965
  154.9806  140.0396  157.2276 H   0  0  0  0  0  0  0  0  0  0  0  0  # atno 8008 bound_to 7997
  154.7717  140.2803  155.6110 H   0  0  0  0  0  0  0  0  0  0  0  0  # atno 8009 bound_to 7997
  156.2922  140.2608  156.2522 H   0  0  0  0  0  0  0  0  0  0  0  0  # atno 8010 bound_to 7997
  140.0909  144.4989  150.7100 H   0  0  0  0  0  0  0  0  0  0  0  0  # atno 10167 bound_to 10162
  156.3008  130.7428  151.1479 H   0  0  0  0  0  0  0  0  0  0  0  0  # atno 10718 bound_to 10713
  154.7321  135.3049  154.8873 H   0  0  0  0  0  0  0  0  0  0  0  0  # atno 10763 bound_to 10752
  153.9713  135.6741  153.4751 H   0  0  0  0  0  0  0  0  0  0  0  0  # atno 10764 bound_to 10752
  153.0928  135.4951  154.8644 H   0  0  0  0  0  0  0  0  0  0  0  0  # atno 10765 bound_to 10752
  139.9744  134.9568  156.9472 H   0  0  0  0  0  0  0  0  0  0  0  0  # atno 11005 bound_to 11000
  144.8019  140.6229  143.6472 LP  0  0  0  0  0  0  0  0  0  0  0  0  # atno 17320 bound_to 7965
  145.4603  139.1513  143.3870 LP  0  0  0  0  0  0  0  0  0  0  0  0  # atno 17321 bound_to 7965
  140.7029  143.2447  151.4811 LP  0  0  0  0  0  0  0  0  0  0  0  0  # atno 17342 bound_to 10162
  139.5725  144.1894  152.1857 LP  0  0  0  0  0  0  0  0  0  0  0  0  # atno 17343 bound_to 10162
  157.7367  131.0559  150.5396 LP  0  0  0  0  0  0  0  0  0  0  0  0  # atno 17370 bound_to 10713
  156.5523  130.4235  149.6102 LP  0  0  0  0  0  0  0  0  0  0  0  0  # atno 17371 bound_to 10713
  140.5225  134.0893  155.7295 LP  0  0  0  0  0  0  0  0  0  0  0  0  # atno 17394 bound_to 11000
  141.1422  133.9118  157.2299 LP  0  0  0  0  0  0  0  0  0  0  0  0  # atno 17395 bound_to 11000

$$$$
