AV-unprocessed.smi:170|AV-procd|sdf|1409|dock7
  -GOLD-   2262019163D 1   1.00000     0.00000
 Structure written by MMmdl.
 57 61  0  0  0  0  0  0  0  0  1 V2000
  146.3366  138.4158  150.6532 O   0  0  0  0  0  0  0  0  0  0  0  0
  146.5920  137.7245  151.8615 C   0  0  1  0  0  0  0  0  0  0  0  0
  146.3061  138.6278  153.0766 C   0  0  0  0  0  0  0  0  0  0  0  0
  147.3998  138.6342  154.0313 N   0  0  0  0  0  0  0  0  0  0  0  0
  147.8892  137.5573  154.7336 C   0  0  0  0  0  0  0  0  0  0  0  0
  148.8831  137.8247  155.5359 N   0  0  0  0  0  0  0  0  0  0  0  0
  149.1015  139.1878  155.3691 C   0  0  0  0  0  0  0  0  0  0  0  0
  150.0226  140.1293  155.9154 C   0  0  0  0  0  0  0  0  0  0  0  0
  150.9945  139.8468  156.8153 N   0  0  0  0  0  0  0  0  0  0  0  0
  151.8798  138.8073  156.3024 C   0  0  0  0  0  0  0  0  0  0  0  0
  152.8401  138.3332  157.4013 C   0  0  0  0  0  0  0  0  0  0  0  0
  153.5613  139.4516  157.8994 O   0  0  0  0  0  0  0  0  0  0  0  0
  152.7002  140.4183  158.4901 C   0  0  0  0  0  0  0  0  0  0  0  0
  151.7030  140.9699  157.4439 C   0  0  2  0  0  0  0  0  0  0  0  0
  150.7361  142.0026  158.0806 C   0  0  0  0  0  0  0  0  0  0  0  0
  151.3535  143.3847  158.2821 C   0  0  0  0  0  0  0  0  0  0  0  0
  152.4449  143.5830  159.3446 C   0  0  0  0  0  0  0  0  0  0  0  0
  151.8721  144.9789  159.6065 C   0  0  0  0  0  0  0  0  0  0  0  0
  150.5550  144.4779  159.0089 C   0  0  0  0  0  0  0  0  0  0  0  0
  149.9142  141.4223  155.5203 N   0  0  0  0  0  0  0  0  0  0  0  0
  148.9814  141.7765  154.6313 C   0  0  0  0  0  0  0  0  0  0  0  0
  148.0709  141.0111  154.0258 N   0  0  0  0  0  0  0  0  0  0  0  0
  148.1678  139.7125  154.4311 C   0  0  0  0  0  0  0  0  0  0  0  0
  145.7970  136.4043  151.9005 C   0  0  2  0  0  0  0  0  0  0  0  0
  145.8028  135.5660  150.6107 C   0  0  0  0  0  0  0  0  0  0  0  0
  144.3346  135.2459  150.3763 C   0  0  0  0  0  0  0  0  0  0  0  0
  143.6922  135.5231  151.7305 C   0  0  0  0  0  0  0  0  0  0  0  0
  144.4273  136.6368  152.2084 O   0  0  0  0  0  0  0  0  0  0  0  0
  145.4059  138.3944  150.4903 H   0  0  0  0  0  0  0  0  0  0  0  0
  147.6540  137.4752  151.8589 H   0  0  0  0  0  0  0  0  0  0  0  0
  146.1171  139.6540  152.7587 H   0  0  0  0  0  0  0  0  0  0  0  0
  145.4059  138.2912  153.5923 H   0  0  0  0  0  0  0  0  0  0  0  0
  147.4807  136.5620  154.6349 H   0  0  0  0  0  0  0  0  0  0  0  0
  151.2987  137.9601  155.9354 H   0  0  0  0  0  0  0  0  0  0  0  0
  152.4462  139.1993  155.4562 H   0  0  0  0  0  0  0  0  0  0  0  0
  152.2986  137.8402  158.2102 H   0  0  0  0  0  0  0  0  0  0  0  0
  153.5447  137.6064  156.9976 H   0  0  0  0  0  0  0  0  0  0  0  0
  152.1743  139.9780  159.3389 H   0  0  0  0  0  0  0  0  0  0  0  0
  153.3266  141.2174  158.8854 H   0  0  0  0  0  0  0  0  0  0  0  0
  152.2912  141.4671  156.6733 H   0  0  0  0  0  0  0  0  0  0  0  0
  149.8467  142.1187  157.4623 H   0  0  0  0  0  0  0  0  0  0  0  0
  150.3743  141.6175  159.0346 H   0  0  0  0  0  0  0  0  0  0  0  0
  151.7228  143.7904  157.3384 H   0  0  0  0  0  0  0  0  0  0  0  0
  152.3331  142.9160  160.2010 H   0  0  0  0  0  0  0  0  0  0  0  0
  153.4645  143.5729  158.9583 H   0  0  0  0  0  0  0  0  0  0  0  0
  151.8190  145.2622  160.6579 H   0  0  0  0  0  0  0  0  0  0  0  0
  152.3448  145.7525  158.9991 H   0  0  0  0  0  0  0  0  0  0  0  0
  150.0503  145.1868  158.3518 H   0  0  0  0  0  0  0  0  0  0  0  0
  149.8763  144.0755  159.7632 H   0  0  0  0  0  0  0  0  0  0  0  0
  148.9624  142.8234  154.3662 H   0  0  0  0  0  0  0  0  0  0  0  0
  146.1949  135.7853  152.7066 H   0  0  0  0  0  0  0  0  0  0  0  0
  146.2304  136.0879  149.7543 H   0  0  0  0  0  0  0  0  0  0  0  0
  146.3820  134.6539  150.7591 H   0  0  0  0  0  0  0  0  0  0  0  0
  143.9244  135.9279  149.6305 H   0  0  0  0  0  0  0  0  0  0  0  0
  144.1689  134.2256  150.0296 H   0  0  0  0  0  0  0  0  0  0  0  0
  142.6272  135.7430  151.6567 H   0  0  0  0  0  0  0  0  0  0  0  0
  143.8257  134.6777  152.4075 H   0  0  0  0  0  0  0  0  0  0  0  0
  1  2  1  0  0  0  0
  1 29  1  0  0  0  0
  2  3  1  0  0  0  0
  2 24  1  0  0  0  0
  2 30  1  0  0  0  0
  3  4  1  0  0  0  0
  3 31  1  0  0  0  0
  3 32  1  0  0  0  0
  4 23  1  0  0  0  0
  4  5  1  0  0  0  0
  5  6  2  0  0  0  0
  5 33  1  0  0  0  0
  6  7  1  0  0  0  0
  7 23  2  0  0  0  0
  7  8  1  0  0  0  0
  8  9  1  0  0  0  0
  8 20  2  0  0  0  0
  9 14  1  0  0  0  0
  9 10  1  0  0  0  0
 10 11  1  0  0  0  0
 10 34  1  0  0  0  0
 10 35  1  0  0  0  0
 11 12  1  0  0  0  0
 11 36  1  0  0  0  0
 11 37  1  0  0  0  0
 12 13  1  0  0  0  0
 13 14  1  0  0  0  0
 13 38  1  0  0  0  0
 13 39  1  0  0  0  0
 14 15  1  0  0  0  0
 14 40  1  0  0  0  0
 15 16  1  0  0  0  0
 15 41  1  0  0  0  0
 15 42  1  0  0  0  0
 16 19  1  0  0  0  0
 16 17  1  0  0  0  0
 16 43  1  0  0  0  0
 17 18  1  0  0  0  0
 17 44  1  0  0  0  0
 17 45  1  0  0  0  0
 18 19  1  0  0  0  0
 18 46  1  0  0  0  0
 18 47  1  0  0  0  0
 19 48  1  0  0  0  0
 19 49  1  0  0  0  0
 20 21  1  0  0  0  0
 21 22  2  0  0  0  0
 21 50  1  0  0  0  0
 22 23  1  0  0  0  0
 24 28  1  0  0  0  0
 24 25  1  0  0  0  0
 24 51  1  0  0  0  0
 25 26  1  0  0  0  0
 25 52  1  0  0  0  0
 25 53  1  0  0  0  0
 26 27  1  0  0  0  0
 26 54  1  0  0  0  0
 26 55  1  0  0  0  0
 27 28  1  0  0  0  0
 27 56  1  0  0  0  0
 27 57  1  0  0  0  0
M  END
> <s_m_source_file>
AV-unprocessed.smi

> <i_m_source_file_index>
170

> <i_lp_mmshare_version>
43012

> <i_f3d_flags>
0

> <s_epik_input>
TzFbQ0gyXVtDSDJdW0NIMl1bQ0BIXTFbQ0BIXShbT0hdKVtDSDJdbihbY0hdbjIpYyhjMjMpbltjSF1uYzNONFtDSDJdW0NIMl1PW0NIMl1bQ0BIXTRbQ0gyXVtDSF01W0NIMl1bQ0gyXVtDSDJdNQ==

> <s_epik_cmdline>
J2VwaWtfcHl0aG9uJywgJy1waCcsICc3LjAnLCAnLXRuJywgJzgnLCAnLW1hJywgJzIwMCcsICctbWV0YWxfYmluZGluZycsICctaW1hZScsICc8aW5maWxlLm1hZT4nLCAnLW9tYWUnLCAnPG91dGZpbGUubWFlPic=

> <r_lp_tautomer_probability>
1

> <r_epik_Ionization_Penalty>
4.98275e-05

> <r_epik_Ionization_Penalty_Charging>
0

> <r_epik_Ionization_Penalty_Neutral>
4.98275e-05

> <r_epik_State_Penalty>
-0

> <r_epik_Charging_Adjusted_Penalty>
0

> <i_epik_Tot_Q>
0

> <i_epik_Tot_abs_Q>
0

> <r_epik_Metal_State_Penalty>
-0

> <b_epik_Metal_Only>
0

> <s_lp_Force_Field>
OPLS_2005

> <r_lp_Energy>
52.3548

> <b_lp_Chiralities_Consistent>
1

> <s_lp_Variant>
AV-unprocessed.smi:170-4

> <Gold.Version>
5.8.1

> <Gold.Id.Protein>
6NUR|6NUR_protein|mol2

> <Gold.PLP.Fitness>
54.0603

> <Gold.PLP.PLP>
-44.5049

> <Gold.PLP.part.hbond>
-3.3910

> <Gold.PLP.part.metal>
0.0000

> <Gold.PLP.part.buried>
-3.9279

> <Gold.PLP.part.nonpolar>
-38.7692

> <Gold.PLP.part.repulsive>
0.4671

> <Gold.PLP.ligand.clash>
0.0000

> <Gold.PLP.ligand.torsion>
1.1983

> <Gold.PLP.Chemscore.Hbond>
2.9760

> <Gold.PLP.Chemscore.CHOScore>
0.8584

> <Gold.PLP.Chemscore.Metal>
0.0000

> <Gold.Chemscore.Hbonds>
donor molecule, donor type, donor heavy atom, donor atom, acceptor molecule, acceptor atom, score
      L1  H     1    29       P1 10171  1.00
      P1  H  7954  7966       L1     1  0.51
      P1  H  7997  8009       L1    12  0.96
      L1  C    21    50       P1  8028  1.00

> <Gold.PLP.Chemscore.Internal.Correction>
0.4488

> <Gold.Rescore>
     Score         DG    S(hbond)    S(metal)    S(lipo)     H(rot)  DE(clash)    DE(int)     intcor
     16.79     -20.78       2.67        0.00     111.70       2.61       1.54       2.46       ----

> <Gold.Chemscore.Fitness>
16.7914

> <Gold.Chemscore.DG>
-20.7850

> <Gold.Chemscore.ZeroCoef>
-5.4800

> <Gold.Chemscore.Hbond>
2.6732

> <Gold.Chemscore.Metal>
0.0000

> <Gold.Chemscore.Lipo>
111.7047

> <Gold.Chemscore.Internal_Hbond>
0.0000

> <Gold.Chemscore.DEClash>
1.5350

> <Gold.Chemscore.DEInternal>
2.4585

> <Gold.Chemscore.Rot>
2.6144

> <Gold.Chemscore.Internal.Correction>
   9.000000E+99

> <Gold.Chemscore.Hbonds>
donor molecule, donor type, donor heavy atom, donor atom, acceptor molecule, acceptor atom, score
      L1  H     1    29       P1 10171  1.00
      P1  H  7954  7966       L1     1  0.03
      P1  H  7997  8009       L1    12  0.60

> <Gold.Chemscore.Hbond.Weighted>
-8.9285

> <Gold.Chemscore.Metal.Weighted>
-0.0000

> <Gold.Chemscore.Lipo.Weighted>
-13.0694

> <Gold.Chemscore.Internal_Hbond.Weighted>
0.0000

> <Gold.Chemscore.DEClash.Weighted>
1.5350

> <Gold.Chemscore.DEInternal.Weighted>
2.4585

> <Gold.Chemscore.Rot.Weighted>
6.6929

> <Gold.Chemscore.Internal.Correction.Weighted>
   9.000000E+99

> <Gold.Protein.RotatedTorsions>
[ 6907 6896 6895 6894 ] final  125.14 input  -60.11 | X-H torsion
[ 7974 7965 7964 7962 ] final  -74.11 input  175.53 | X-H torsion
[ 8008 7997 7996 7995 ] final  168.53 input   59.86 | X-H torsion
[ 10167 10162 10161 10158 ] final   35.91 input  -65.29 | X-H torsion
[ 10718 10713 10712 10709 ] final  104.42 input   66.30 | X-H torsion
[ 10763 10752 10751 10750 ] final   95.29 input  -60.55 | X-H torsion
[ 11005 11000 10999 10996 ] final   43.25 input  -57.11 | X-H torsion

> <Gold.Protein.ActiveResidues>
 VAL166  LYS551  ARG553  GLY616  TRP617  ASP618  TYR619  PRO620  LYS621  CYS622 
 ASP623  PHE694  ASN695  SER759  ASP760  ASP761  ALA762  ILE779  LEU786  VAL792 
 PHE793  MET794  SER795  GLU796  ALA797  LYS798  CYS799  TRP800  GLU811  SER814 

> <Gold.Protein.RotatedAtoms>
  152.4017  133.6828  159.6322 H   0  0  0  0  0  0  0  0  0  0  0  0  # atno 6907 bound_to 6896
  150.7908  133.8779  159.3286 H   0  0  0  0  0  0  0  0  0  0  0  0  # atno 6908 bound_to 6896
  151.6543  135.0999  160.0218 H   0  0  0  0  0  0  0  0  0  0  0  0  # atno 6909 bound_to 6896
  145.6434  140.9304  143.1023 H   0  0  0  0  0  0  0  0  0  0  0  0  # atno 7974 bound_to 7965
  156.1538  140.1588  156.8725 H   0  0  0  0  0  0  0  0  0  0  0  0  # atno 8008 bound_to 7997
  154.5096  140.0804  156.8000 H   0  0  0  0  0  0  0  0  0  0  0  0  # atno 8009 bound_to 7997
  155.3843  140.3406  155.4250 H   0  0  0  0  0  0  0  0  0  0  0  0  # atno 8010 bound_to 7997
  140.4178  144.1503  150.6145 H   0  0  0  0  0  0  0  0  0  0  0  0  # atno 10167 bound_to 10162
  157.6740  131.0803  150.5704 H   0  0  0  0  0  0  0  0  0  0  0  0  # atno 10718 bound_to 10713
  153.2514  135.4259  155.0801 H   0  0  0  0  0  0  0  0  0  0  0  0  # atno 10763 bound_to 10752
  154.8383  135.3427  154.6507 H   0  0  0  0  0  0  0  0  0  0  0  0  # atno 10764 bound_to 10752
  153.6928  135.7033  153.5142 H   0  0  0  0  0  0  0  0  0  0  0  0  # atno 10765 bound_to 10752
  140.1663  134.4278  155.8285 H   0  0  0  0  0  0  0  0  0  0  0  0  # atno 11005 bound_to 11000
  144.7149  139.8234  143.7402 LP  0  0  0  0  0  0  0  0  0  0  0  0  # atno 17320 bound_to 7965
  146.1262  139.4289  143.0197 LP  0  0  0  0  0  0  0  0  0  0  0  0  # atno 17321 bound_to 7965
  140.4568  143.2465  151.9274 LP  0  0  0  0  0  0  0  0  0  0  0  0  # atno 17342 bound_to 10162
  139.4782  144.5508  151.8389 LP  0  0  0  0  0  0  0  0  0  0  0  0  # atno 17343 bound_to 10162
  156.6005  130.4353  149.5899 LP  0  0  0  0  0  0  0  0  0  0  0  0  # atno 17370 bound_to 10713
  156.2510  130.6907  151.1644 LP  0  0  0  0  0  0  0  0  0  0  0  0  # atno 17371 bound_to 10713
  141.2214  133.6935  156.7683 LP  0  0  0  0  0  0  0  0  0  0  0  0  # atno 17394 bound_to 11000
  140.2430  134.8599  157.3592 LP  0  0  0  0  0  0  0  0  0  0  0  0  # atno 17395 bound_to 11000

$$$$
