AV-unprocessed.smi:912|AV-procd|sdf|4144|dock8
  -GOLD-   22720 2 53D 1   1.00000     0.00000
 Structure written by MMmdl.
 27 27  0  0  0  0  0  0  0  0  2 V2000
  150.2297  137.7691  158.1287 C   0  0  0  0  0  0  0  0  0  0  0  0
  150.5829  137.4702  156.7418 N   0  0  0  0  0  0  0  0  0  0  0  0
  151.5256  138.3754  156.0564 C   0  0  1  0  0  0  0  0  0  0  0  0
  152.7807  138.4194  156.9681 C   0  0  0  0  0  0  0  0  0  0  0  0
  151.8865  137.8804  154.6286 C   0  0  0  0  0  0  0  0  0  0  0  0
  150.8760  137.5636  153.8110 N   0  0  0  0  0  0  0  0  0  0  0  0
  153.0571  137.7881  154.2630 O   0  0  0  0  0  0  0  0  0  0  0  0
  150.9435  139.7978  155.9127 C   0  0  0  0  0  0  0  0  0  0  0  0
  149.8314  140.0780  155.0749 C   0  0  0  0  0  0  0  0  0  0  0  0
  149.3413  141.3960  154.9757 C   0  0  0  0  0  0  0  0  0  0  0  0
  149.9315  142.3891  155.6724 N   0  3  0  0  0  0  0  0  0  0  0  0
  150.9943  142.1810  156.4767 C   0  0  0  0  0  0  0  0  0  0  0  0
  151.5270  140.8837  156.6145 C   0  0  0  0  0  0  0  0  0  0  0  0
  149.4354  137.0930  158.4445 H   0  0  0  0  0  0  0  0  0  0  0  0
  149.8587  138.7868  158.2474 H   0  0  0  0  0  0  0  0  0  0  0  0
  151.0645  137.6181  158.8126 H   0  0  0  0  0  0  0  0  0  0  0  0
  149.7160  137.5027  156.2243 H   0  0  0  0  0  0  0  0  0  0  0  0
  153.5688  139.0535  156.5620 H   0  0  0  0  0  0  0  0  0  0  0  0
  153.2255  137.4344  157.1116 H   0  0  0  0  0  0  0  0  0  0  0  0
  152.5353  138.8100  157.9565 H   0  0  0  0  0  0  0  0  0  0  0  0
  151.0684  137.2582  152.8680 H   0  0  0  0  0  0  0  0  0  0  0  0
  149.9233  137.6517  154.1339 H   0  0  0  0  0  0  0  0  0  0  0  0
  149.3441  139.3040  154.5012 H   0  0  0  0  0  0  0  0  0  0  0  0
  148.5005  141.6831  154.3612 H   0  0  0  0  0  0  0  0  0  0  0  0
  151.3867  143.0525  156.9802 H   0  0  0  0  0  0  0  0  0  0  0  0
  152.3849  140.7324  157.2527 H   0  0  0  0  0  0  0  0  0  0  0  0
  149.5611  143.3361  155.5851 H   0  0  0  0  0  0  0  0  0  0  0  0
  1  2  1  0  0  0  0
  1 14  1  0  0  0  0
  1 15  1  0  0  0  0
  1 16  1  0  0  0  0
  2  3  1  0  0  0  0
  2 17  1  0  0  0  0
  3  4  1  0  0  0  0
  3  5  1  0  0  0  0
  3  8  1  0  0  0  0
  4 18  1  0  0  0  0
  4 19  1  0  0  0  0
  4 20  1  0  0  0  0
  5  6  1  0  0  0  0
  5  7  2  0  0  0  0
  6 21  1  0  0  0  0
  6 22  1  0  0  0  0
  8 13  1  0  0  0  0
  8  9  2  0  0  0  0
  9 10  1  0  0  0  0
  9 23  1  0  0  0  0
 10 11  2  0  0  0  0
 10 24  1  0  0  0  0
 11 12  1  0  0  0  0
 11 27  1  0  0  0  0
 12 13  2  0  0  0  0
 12 25  1  0  0  0  0
 13 26  1  0  0  0  0
M  CHG  1  11   1
M  END
> <s_m_source_file>
AV-unprocessed.smi

> <i_m_source_file_index>
912

> <i_lp_mmshare_version>
43012

> <i_f3d_flags>
0

> <s_epik_input>
W0NIM11bTkhdW0NAQF0oW0NIM10pKEMoPU8pW05IMl0pYzFbY0hdW2NIXW5bY0hdW2NIXTE=

> <s_epik_cmdline>
J2VwaWtfcHl0aG9uJywgJy1waCcsICc3LjAnLCAnLXRuJywgJzgnLCAnLW1hJywgJzIwMCcsICctbWV0YWxfYmluZGluZycsICctaW1hZScsICc8aW5maWxlLm1hZT4nLCAnLW9tYWUnLCAnPG91dGZpbGUubWFlPic=

> <r_epik_Ionization_Penalty>
0.562542

> <r_epik_Ionization_Penalty_Charging>
0.554844

> <r_epik_Ionization_Penalty_Neutral>
0.00769834

> <r_epik_State_Penalty>
1.39075

> <r_epik_Charging_Adjusted_Penalty>
1.94559

> <i_epik_Tot_Q>
1

> <i_epik_Tot_abs_Q>
1

> <r_epik_Metal_State_Penalty>
1.55563

> <b_epik_Metal_Only>
0

> <s_lp_Force_Field>
OPLS_2005

> <r_lp_Energy>
17.994

> <b_lp_Chiralities_Consistent>
1

> <s_lp_Variant>
AV-unprocessed.smi:912-5

> <Gold.Version>
5.8.1

> <Gold.Id.Protein>
6NUR|6NUR_protein|mol2

> <Gold.PLP.Fitness>
31.5102

> <Gold.PLP.PLP>
-22.4881

> <Gold.PLP.part.hbond>
-4.0000

> <Gold.PLP.part.metal>
0.0000

> <Gold.PLP.part.buried>
-3.6009

> <Gold.PLP.part.nonpolar>
-15.8380

> <Gold.PLP.part.repulsive>
0.3357

> <Gold.PLP.ligand.clash>
0.0000

> <Gold.PLP.ligand.torsion>
0.4387

> <Gold.PLP.Chemscore.Hbond>
3.2894

> <Gold.PLP.Chemscore.CHOScore>
0.0000

> <Gold.PLP.Chemscore.Metal>
0.0000

> <Gold.Chemscore.Hbonds>
donor molecule, donor type, donor heavy atom, donor atom, acceptor molecule, acceptor atom, score
      L1  H     6    21       P1  7949  1.00
      L1  H    11    27       P1  8028  2.00
      P1  H 10752 10765       L1     7  0.31

> <Gold.PLP.Chemscore.Internal.Correction>
0.0313

> <Gold.Rescore>
     Score         DG    S(hbond)    S(metal)    S(lipo)     H(rot)  DE(clash)    DE(int)     intcor
     11.97     -12.61       1.83        0.00      48.67       1.82       0.02       0.62       ----

> <Gold.Chemscore.Fitness>
11.9665

> <Gold.Chemscore.DG>
-12.6082

> <Gold.Chemscore.ZeroCoef>
-5.4800

> <Gold.Chemscore.Hbond>
1.8262

> <Gold.Chemscore.Metal>
0.0000

> <Gold.Chemscore.Lipo>
48.6731

> <Gold.Chemscore.Internal_Hbond>
0.0000

> <Gold.Chemscore.DEClash>
0.0202

> <Gold.Chemscore.DEInternal>
0.6215

> <Gold.Chemscore.Rot>
1.8226

> <Gold.Chemscore.Internal.Correction>
   9.000000E+99

> <Gold.Chemscore.Hbonds>
donor molecule, donor type, donor heavy atom, donor atom, acceptor molecule, acceptor atom, score
      L1  H     6    21       P1  7949  0.34
      L1  H    11    27       P1  8028  0.94
      P1  H 10752 10765       L1     7  0.09

> <Gold.Chemscore.Hbond.Weighted>
-6.0993

> <Gold.Chemscore.Metal.Weighted>
-0.0000

> <Gold.Chemscore.Lipo.Weighted>
-5.6948

> <Gold.Chemscore.Internal_Hbond.Weighted>
0.0000

> <Gold.Chemscore.DEClash.Weighted>
0.0202

> <Gold.Chemscore.DEInternal.Weighted>
0.6215

> <Gold.Chemscore.Rot.Weighted>
4.6659

> <Gold.Chemscore.Internal.Correction.Weighted>
   9.000000E+99

> <Gold.Protein.RotatedTorsions>
[ 6907 6896 6895 6894 ] final -147.70 input  -60.11 | X-H torsion
[ 7974 7965 7964 7962 ] final  101.02 input  175.53 | X-H torsion
[ 8008 7997 7996 7995 ] final  159.91 input   59.86 | X-H torsion
[ 10167 10162 10161 10158 ] final  131.78 input  -65.29 | X-H torsion
[ 10718 10713 10712 10709 ] final  168.59 input   66.30 | X-H torsion
[ 10763 10752 10751 10750 ] final  132.10 input  -60.55 | X-H torsion
[ 11005 11000 10999 10996 ] final   -5.29 input  -57.11 | X-H torsion

> <Gold.Protein.ActiveResidues>
 VAL166  LYS551  ARG553  GLY616  TRP617  ASP618  TYR619  PRO620  LYS621  CYS622 
 ASP623  PHE694  ASN695  SER759  ASP760  ASP761  ALA762  ILE779  LEU786  VAL792 
 PHE793  MET794  SER795  GLU796  ALA797  LYS798  CYS799  TRP800  GLU811  SER814 

> <Gold.Protein.RotatedAtoms>
  151.1594  133.4855  159.2594 H   0  0  0  0  0  0  0  0  0  0  0  0  # atno 6907 bound_to 6896
  151.1470  135.0208  159.8661 H   0  0  0  0  0  0  0  0  0  0  0  0  # atno 6908 bound_to 6896
  152.5463  134.1482  159.8560 H   0  0  0  0  0  0  0  0  0  0  0  0  # atno 6909 bound_to 6896
  145.3778  139.2385  143.3420 H   0  0  0  0  0  0  0  0  0  0  0  0  # atno 7974 bound_to 7965
  156.2207  140.1818  156.7483 H   0  0  0  0  0  0  0  0  0  0  0  0  # atno 8008 bound_to 7997
  154.5861  140.0658  156.9202 H   0  0  0  0  0  0  0  0  0  0  0  0  # atno 8009 bound_to 7997
  155.2417  140.3322  155.4294 H   0  0  0  0  0  0  0  0  0  0  0  0  # atno 8010 bound_to 7997
  139.5368  144.6691  151.4758 H   0  0  0  0  0  0  0  0  0  0  0  0  # atno 10167 bound_to 10162
  157.0349  131.0270  151.2732 H   0  0  0  0  0  0  0  0  0  0  0  0  # atno 10718 bound_to 10713
  153.7852  135.3163  155.3371 H   0  0  0  0  0  0  0  0  0  0  0  0  # atno 10763 bound_to 10752
  154.8146  135.4644  154.0612 H   0  0  0  0  0  0  0  0  0  0  0  0  # atno 10764 bound_to 10752
  153.1913  135.6909  153.8434 H   0  0  0  0  0  0  0  0  0  0  0  0  # atno 10765 bound_to 10752
  140.6895  133.9083  155.8608 H   0  0  0  0  0  0  0  0  0  0  0  0  # atno 11005 bound_to 11000
  146.2856  140.4440  142.8759 LP  0  0  0  0  0  0  0  0  0  0  0  0  # atno 17320 bound_to 7965
  144.8529  140.7028  143.6156 LP  0  0  0  0  0  0  0  0  0  0  0  0  # atno 17321 bound_to 7965
  140.6579  143.8561  150.6855 LP  0  0  0  0  0  0  0  0  0  0  0  0  # atno 17342 bound_to 10162
  140.1946  143.4009  152.1838 LP  0  0  0  0  0  0  0  0  0  0  0  0  # atno 17343 bound_to 10162
  157.5149  130.7961  149.7745 LP  0  0  0  0  0  0  0  0  0  0  0  0  # atno 17370 bound_to 10713
  156.0057  130.3857  150.2441 LP  0  0  0  0  0  0  0  0  0  0  0  0  # atno 17371 bound_to 10713
  141.0253  134.0832  157.4075 LP  0  0  0  0  0  0  0  0  0  0  0  0  # atno 17394 bound_to 11000
  139.8928  135.0126  156.6863 LP  0  0  0  0  0  0  0  0  0  0  0  0  # atno 17395 bound_to 11000

$$$$
