AV-unprocessed.smi:1047|AV-procd|sdf|4591|dock5
  -GOLD-   22720 3 73D 1   1.00000     0.00000
 Structure written by MMmdl.
 57 59  0  0  0  0  0  0  0  0  3 V2000
  145.8339  134.6774  151.5489 C   0  0  0  0  0  0  0  0  0  0  0  0
  146.0327  133.3348  152.2673 C   0  0  0  0  0  0  0  0  0  0  0  0
  147.4206  133.0073  152.5899 N   0  0  0  0  0  0  0  0  0  0  0  0
  147.5329  131.6406  153.0872 C   0  0  0  0  0  0  0  0  0  0  0  0
  148.9848  131.2748  153.4386 C   0  0  0  0  0  0  0  0  0  0  0  0
  149.4941  132.2088  154.3851 O   0  0  0  0  0  0  0  0  0  0  0  0
  149.4569  133.5544  153.9152 C   0  0  2  0  0  0  0  0  0  0  0  0
  150.0343  134.4610  155.0105 C   0  0  0  0  0  0  0  0  0  0  0  0
  149.8197  135.8859  154.6899 N   0  3  0  0  0  0  0  0  0  0  0  0
  150.9106  136.7750  155.1377 C   0  0  0  0  0  0  0  0  0  0  0  0
  150.4262  138.2274  155.2830 C   0  0  1  0  0  0  0  0  0  0  0  0
  149.0598  138.2195  155.6496 O   0  0  0  0  0  0  0  0  0  0  0  0
  151.2413  139.0055  156.3353 C   0  0  0  0  0  0  0  0  0  0  0  0
  150.8826  140.4303  156.3945 N   0  0  0  0  0  0  0  0  0  0  0  0
  150.0590  141.1501  155.5846 C   0  0  0  0  0  0  0  0  0  0  0  0
  150.0459  142.4313  156.0442 N   0  3  0  0  0  0  0  0  0  0  0  0
  150.8734  142.5334  157.1639 C   0  0  0  0  0  0  0  0  0  0  0  0
  151.1792  143.6225  157.9711 C   0  0  0  0  0  0  0  0  0  0  0  0
  152.0660  143.3985  159.0480 C   0  0  0  0  0  0  0  0  0  0  0  0
  152.4207  144.5680  159.9507 C   0  0  0  0  0  0  0  0  0  0  0  0
  152.6154  142.1121  159.2850 C   0  0  0  0  0  0  0  0  0  0  0  0
  153.5683  141.8831  160.4461 C   0  0  0  0  0  0  0  0  0  0  0  0
  152.2916  141.0166  158.4526 C   0  0  0  0  0  0  0  0  0  0  0  0
  151.4159  141.2537  157.3949 C   0  0  0  0  0  0  0  0  0  0  0  0
  147.9976  133.9191  153.5746 C   0  0  0  0  0  0  0  0  0  0  0  0
  144.7936  134.7987  151.2467 H   0  0  0  0  0  0  0  0  0  0  0  0
  146.4477  134.7370  150.6497 H   0  0  0  0  0  0  0  0  0  0  0  0
  146.0846  135.5241  152.1875 H   0  0  0  0  0  0  0  0  0  0  0  0
  145.4253  133.3128  153.1732 H   0  0  0  0  0  0  0  0  0  0  0  0
  145.6302  132.5557  151.6185 H   0  0  0  0  0  0  0  0  0  0  0  0
  146.9066  131.5158  153.9721 H   0  0  0  0  0  0  0  0  0  0  0  0
  147.1571  130.9420  152.3388 H   0  0  0  0  0  0  0  0  0  0  0  0
  149.0316  130.2728  153.8651 H   0  0  0  0  0  0  0  0  0  0  0  0
  149.6108  131.2724  152.5449 H   0  0  0  0  0  0  0  0  0  0  0  0
  150.0686  133.6407  153.0151 H   0  0  0  0  0  0  0  0  0  0  0  0
  149.5501  134.2425  155.9632 H   0  0  0  0  0  0  0  0  0  0  0  0
  151.1002  134.2671  155.1384 H   0  0  0  0  0  0  0  0  0  0  0  0
  149.7209  135.9754  153.6886 H   0  0  0  0  0  0  0  0  0  0  0  0
  151.3235  136.4125  156.0804 H   0  0  0  0  0  0  0  0  0  0  0  0
  151.7126  136.7281  154.3998 H   0  0  0  0  0  0  0  0  0  0  0  0
  150.5175  138.7358  154.3219 H   0  0  0  0  0  0  0  0  0  0  0  0
  148.9744  138.5927  156.5137 H   0  0  0  0  0  0  0  0  0  0  0  0
  151.1389  138.5626  157.3263 H   0  0  0  0  0  0  0  0  0  0  0  0
  152.3030  138.9565  156.0901 H   0  0  0  0  0  0  0  0  0  0  0  0
  149.5133  140.7737  154.7312 H   0  0  0  0  0  0  0  0  0  0  0  0
  150.7568  144.5993  157.7847 H   0  0  0  0  0  0  0  0  0  0  0  0
  153.4907  144.7727  159.9084 H   0  0  0  0  0  0  0  0  0  0  0  0
  152.1491  144.3514  160.9842 H   0  0  0  0  0  0  0  0  0  0  0  0
  151.8954  145.4758  159.6527 H   0  0  0  0  0  0  0  0  0  0  0  0
  153.9205  140.8518  160.4775 H   0  0  0  0  0  0  0  0  0  0  0  0
  153.0737  142.0951  161.3943 H   0  0  0  0  0  0  0  0  0  0  0  0
  154.4418  142.5298  160.3583 H   0  0  0  0  0  0  0  0  0  0  0  0
  152.7100  140.0391  158.6389 H   0  0  0  0  0  0  0  0  0  0  0  0
  147.9734  134.9414  153.1977 H   0  0  0  0  0  0  0  0  0  0  0  0
  147.3959  133.9073  154.4850 H   0  0  0  0  0  0  0  0  0  0  0  0
  148.9600  136.1899  155.1249 H   0  0  0  0  0  0  0  0  0  0  0  0
  149.5105  143.1799  155.6231 H   0  0  0  0  0  0  0  0  0  0  0  0
  1  2  1  0  0  0  0
  1 26  1  0  0  0  0
  1 27  1  0  0  0  0
  1 28  1  0  0  0  0
  2  3  1  0  0  0  0
  2 29  1  0  0  0  0
  2 30  1  0  0  0  0
  3 25  1  0  0  0  0
  3  4  1  0  0  0  0
  4  5  1  0  0  0  0
  4 31  1  0  0  0  0
  4 32  1  0  0  0  0
  5  6  1  0  0  0  0
  5 33  1  0  0  0  0
  5 34  1  0  0  0  0
  6  7  1  0  0  0  0
  7  8  1  0  0  0  0
  7 25  1  0  0  0  0
  7 35  1  0  0  0  0
  8  9  1  0  0  0  0
  8 36  1  0  0  0  0
  8 37  1  0  0  0  0
  9 10  1  0  0  0  0
  9 38  1  0  0  0  0
  9 56  1  0  0  0  0
 10 11  1  0  0  0  0
 10 39  1  0  0  0  0
 10 40  1  0  0  0  0
 11 12  1  0  0  0  0
 11 13  1  0  0  0  0
 11 41  1  0  0  0  0
 12 42  1  0  0  0  0
 13 14  1  0  0  0  0
 13 43  1  0  0  0  0
 13 44  1  0  0  0  0
 14 24  1  0  0  0  0
 14 15  1  0  0  0  0
 15 16  2  0  0  0  0
 15 45  1  0  0  0  0
 16 17  1  0  0  0  0
 16 57  1  0  0  0  0
 17 24  2  0  0  0  0
 17 18  1  0  0  0  0
 18 19  2  0  0  0  0
 18 46  1  0  0  0  0
 19 20  1  0  0  0  0
 19 21  1  0  0  0  0
 20 47  1  0  0  0  0
 20 48  1  0  0  0  0
 20 49  1  0  0  0  0
 21 22  1  0  0  0  0
 21 23  2  0  0  0  0
 22 50  1  0  0  0  0
 22 51  1  0  0  0  0
 22 52  1  0  0  0  0
 23 24  1  0  0  0  0
 23 53  1  0  0  0  0
 25 54  1  0  0  0  0
 25 55  1  0  0  0  0
M  CHG  1   9   1
M  CHG  1  16   1
M  END
> <s_m_source_file>
AV-unprocessed.smi

> <i_m_source_file_index>
1047

> <i_lp_mmshare_version>
43012

> <i_f3d_flags>
0

> <s_epik_input>
W0NIM11bQ0gyXU4xW0NIMl1bQ0gyXU9bQ0BIXShbQ0gyXTEpW0NIMl1bTkhdW0NIMl1bQ0BIXShbT0hdKVtDSDJdbihbY0hdbjIpYyhjMjMpW2NIXWMoW0NIM10pYyhbY0hdMylbQ0gzXQ==

> <s_epik_cmdline>
J2VwaWtfcHl0aG9uJywgJy1waCcsICc3LjAnLCAnLXRuJywgJzgnLCAnLW1hJywgJzIwMCcsICctbWV0YWxfYmluZGluZycsICctaW1hZScsICc8aW5maWxlLm1hZT4nLCAnLW9tYWUnLCAnPG91dGZpbGUubWFlPic=

> <r_epik_Ionization_Penalty>
1.75732

> <r_epik_Ionization_Penalty_Charging>
1.18089

> <r_epik_Ionization_Penalty_Neutral>
0.576429

> <r_epik_State_Penalty>
1.69377

> <r_epik_Charging_Adjusted_Penalty>
2.87466

> <i_epik_Tot_Q>
2

> <i_epik_Tot_abs_Q>
2

> <r_epik_Metal_State_Penalty>
5.70174

> <b_epik_Metal_Only>
0

> <s_lp_Force_Field>
OPLS_2005

> <r_lp_Energy>
38.6305

> <b_lp_Chiralities_Consistent>
1

> <s_lp_Variant>
AV-unprocessed.smi:1047-32

> <Gold.Version>
5.8.1

> <Gold.Id.Protein>
6NUR|6NUR_protein|mol2

> <Gold.PLP.Fitness>
59.0618

> <Gold.PLP.PLP>
-48.5778

> <Gold.PLP.part.hbond>
-2.0000

> <Gold.PLP.part.metal>
0.0000

> <Gold.PLP.part.buried>
-5.4412

> <Gold.PLP.part.nonpolar>
-42.0782

> <Gold.PLP.part.repulsive>
0.3768

> <Gold.PLP.ligand.clash>
0.0000

> <Gold.PLP.ligand.torsion>
0.8245

> <Gold.PLP.Chemscore.Hbond>
3.9840

> <Gold.PLP.Chemscore.CHOScore>
0.0000

> <Gold.PLP.Chemscore.Metal>
0.0000

> <Gold.Chemscore.Hbonds>
donor molecule, donor type, donor heavy atom, donor atom, acceptor molecule, acceptor atom, score
      L1  H     9    38       P1  7948  1.90
      L1  H    16    57       P1  8028  2.00

> <Gold.PLP.Chemscore.Internal.Correction>
0.1809

> <Gold.Rescore>
     Score         DG    S(hbond)    S(metal)    S(lipo)     H(rot)  DE(clash)    DE(int)     intcor
     17.89     -18.73       1.51        0.00     128.92       2.69       0.08       0.76       ----

> <Gold.Chemscore.Fitness>
17.8884

> <Gold.Chemscore.DG>
-18.7265

> <Gold.Chemscore.ZeroCoef>
-5.4800

> <Gold.Chemscore.Hbond>
1.5132

> <Gold.Chemscore.Metal>
0.0000

> <Gold.Chemscore.Lipo>
128.9162

> <Gold.Chemscore.Internal_Hbond>
0.0000

> <Gold.Chemscore.DEClash>
0.0806

> <Gold.Chemscore.DEInternal>
0.7575

> <Gold.Chemscore.Rot>
2.6917

> <Gold.Chemscore.Internal.Correction>
   9.000000E+99

> <Gold.Chemscore.Hbonds>
donor molecule, donor type, donor heavy atom, donor atom, acceptor molecule, acceptor atom, score
      L1  H     9    38       P1  7948  0.21
      L1  H    16    57       P1  8028  0.96

> <Gold.Chemscore.Hbond.Weighted>
-5.0540

> <Gold.Chemscore.Metal.Weighted>
-0.0000

> <Gold.Chemscore.Lipo.Weighted>
-15.0832

> <Gold.Chemscore.Internal_Hbond.Weighted>
0.0000

> <Gold.Chemscore.DEClash.Weighted>
0.0806

> <Gold.Chemscore.DEInternal.Weighted>
0.7575

> <Gold.Chemscore.Rot.Weighted>
6.8907

> <Gold.Chemscore.Internal.Correction.Weighted>
   9.000000E+99

> <Gold.Protein.RotatedTorsions>
[ 6907 6896 6895 6894 ] final   56.11 input  -60.11 | X-H torsion
[ 7974 7965 7964 7962 ] final   -9.18 input  175.53 | X-H torsion
[ 8008 7997 7996 7995 ] final   -0.93 input   59.86 | X-H torsion
[ 10167 10162 10161 10158 ] final   68.75 input  -65.29 | X-H torsion
[ 10718 10713 10712 10709 ] final  -62.05 input   66.30 | X-H torsion
[ 10763 10752 10751 10750 ] final  -87.00 input  -60.55 | X-H torsion
[ 11005 11000 10999 10996 ] final  -83.70 input  -57.11 | X-H torsion

> <Gold.Protein.ActiveResidues>
 VAL166  LYS551  ARG553  GLY616  TRP617  ASP618  TYR619  PRO620  LYS621  CYS622 
 ASP623  PHE694  ASN695  SER759  ASP760  ASP761  ALA762  ILE779  LEU786  VAL792 
 PHE793  MET794  SER795  GLU796  ALA797  LYS798  CYS799  TRP800  GLU811  SER814 

> <Gold.Protein.RotatedAtoms>
  152.3604  134.6880  160.0208 H   0  0  0  0  0  0  0  0  0  0  0  0  # atno 6907 bound_to 6896
  151.7205  133.3309  159.3322 H   0  0  0  0  0  0  0  0  0  0  0  0  # atno 6908 bound_to 6896
  150.7601  134.6386  159.6269 H   0  0  0  0  0  0  0  0  0  0  0  0  # atno 6909 bound_to 6896
  146.2259  140.2579  142.8350 H   0  0  0  0  0  0  0  0  0  0  0  0  # atno 7974 bound_to 7965
  154.6525  140.2572  155.7198 H   0  0  0  0  0  0  0  0  0  0  0  0  # atno 8008 bound_to 7997
  156.2581  140.2865  156.0886 H   0  0  0  0  0  0  0  0  0  0  0  0  # atno 8009 bound_to 7997
  155.1429  140.0380  157.2793 H   0  0  0  0  0  0  0  0  0  0  0  0  # atno 8010 bound_to 7997
  140.0753  144.5118  150.7199 H   0  0  0  0  0  0  0  0  0  0  0  0  # atno 10167 bound_to 10162
  156.0881  130.4205  150.1080 H   0  0  0  0  0  0  0  0  0  0  0  0  # atno 10718 bound_to 10713
  154.6288  135.5429  153.7657 H   0  0  0  0  0  0  0  0  0  0  0  0  # atno 10763 bound_to 10752
  153.0274  135.6430  154.1332 H   0  0  0  0  0  0  0  0  0  0  0  0  # atno 10764 bound_to 10752
  154.1263  135.2917  155.3176 H   0  0  0  0  0  0  0  0  0  0  0  0  # atno 10765 bound_to 10752
  141.1656  133.7307  156.8758 H   0  0  0  0  0  0  0  0  0  0  0  0  # atno 11005 bound_to 11000
  144.9362  140.8029  143.5659 LP  0  0  0  0  0  0  0  0  0  0  0  0  # atno 17320 bound_to 7965
  145.2526  139.2025  143.4934 LP  0  0  0  0  0  0  0  0  0  0  0  0  # atno 17321 bound_to 7965
  140.7105  143.2501  151.4595 LP  0  0  0  0  0  0  0  0  0  0  0  0  # atno 17342 bound_to 10162
  139.5812  144.1706  152.1970 LP  0  0  0  0  0  0  0  0  0  0  0  0  # atno 17343 bound_to 10162
  156.9096  130.9647  151.3565 LP  0  0  0  0  0  0  0  0  0  0  0  0  # atno 17370 bound_to 10713
  157.6022  130.8521  149.8819 LP  0  0  0  0  0  0  0  0  0  0  0  0  # atno 17371 bound_to 10713
  140.1749  134.9074  157.2879 LP  0  0  0  0  0  0  0  0  0  0  0  0  # atno 17394 bound_to 11000
  140.2460  134.3739  155.7461 LP  0  0  0  0  0  0  0  0  0  0  0  0  # atno 17395 bound_to 11000

$$$$
