AV-unprocessed.smi:1176|AV-procd|sdf|4953|dock9
  -GOLD-   22720 3543D 1   1.00000     0.00000
 Structure written by MMmdl.
 50 51  0  0  0  0  0  0  0  0  2 V2000
  144.5381  135.0190  150.2751 C   0  0  0  0  0  0  0  0  0  0  0  0
  145.1028  133.7600  150.9503 C   0  0  0  0  0  0  0  0  0  0  0  0
  145.4602  132.6997  149.8953 C   0  0  0  0  0  0  0  0  0  0  0  0
  144.1095  133.2153  151.9996 C   0  0  0  0  0  0  0  0  0  0  0  0
  144.2867  133.8291  153.3413 N   0  3  2  0  0  0  0  0  0  0  0  0
  143.6222  135.1540  153.4480 C   0  0  0  0  0  0  0  0  0  0  0  0
  143.6999  135.7082  154.8839 C   0  0  0  0  0  0  0  0  0  0  0  0
  145.1492  135.7862  155.3936 C   0  0  2  0  0  0  0  0  0  0  0  0
  145.8715  136.8449  154.6902 N   0  0  0  0  0  0  0  0  0  0  0  0
  147.1276  137.2400  154.9463 C   0  0  0  0  0  0  0  0  0  0  0  0
  147.8174  136.7674  155.8488 O   0  0  0  0  0  0  0  0  0  0  0  0
  147.6876  138.3404  154.0410 C   0  0  0  0  0  0  0  0  0  0  0  0
  149.0703  138.6715  154.4040 N   0  0  0  0  0  0  0  0  0  0  0  0
  150.0683  137.7409  154.1775 C   0  0  0  0  0  0  0  0  0  0  0  0
  151.3631  137.9404  154.5051 C   0  0  0  0  0  0  0  0  0  0  0  0
  151.7914  139.1848  155.1303 C   0  0  0  0  0  0  0  0  0  0  0  0
  152.9551  139.4060  155.4676 O   0  0  0  0  0  0  0  0  0  0  0  0
  150.7570  140.1267  155.3356 N   0  0  0  0  0  0  0  0  0  0  0  0
  151.1271  141.3783  155.9638 C   0  0  0  0  0  0  0  0  0  0  0  0
  149.3995  139.9069  155.0046 C   0  0  0  0  0  0  0  0  0  0  0  0
  148.5228  140.7435  155.2310 O   0  0  0  0  0  0  0  0  0  0  0  0
  145.8216  134.4083  155.2195 C   0  0  0  0  0  0  0  0  0  0  0  0
  145.7077  133.8930  153.7747 C   0  0  0  0  0  0  0  0  0  0  0  0
  143.6112  134.8034  149.7425 H   0  0  0  0  0  0  0  0  0  0  0  0
  145.2462  135.4310  149.5555 H   0  0  0  0  0  0  0  0  0  0  0  0
  144.3270  135.7981  151.0083 H   0  0  0  0  0  0  0  0  0  0  0  0
  146.0243  134.0589  151.4490 H   0  0  0  0  0  0  0  0  0  0  0  0
  144.5734  132.3562  149.3614 H   0  0  0  0  0  0  0  0  0  0  0  0
  145.9356  131.8290  150.3477 H   0  0  0  0  0  0  0  0  0  0  0  0
  146.1562  133.1003  149.1576 H   0  0  0  0  0  0  0  0  0  0  0  0
  143.0797  133.3644  151.6704 H   0  0  0  0  0  0  0  0  0  0  0  0
  144.2499  132.1355  152.0692 H   0  0  0  0  0  0  0  0  0  0  0  0
  144.0818  135.8499  152.7446 H   0  0  0  0  0  0  0  0  0  0  0  0
  142.5739  135.0629  153.1610 H   0  0  0  0  0  0  0  0  0  0  0  0
  143.2281  136.6905  154.9327 H   0  0  0  0  0  0  0  0  0  0  0  0
  143.1216  135.0625  155.5462 H   0  0  0  0  0  0  0  0  0  0  0  0
  145.1303  136.0428  156.4543 H   0  0  0  0  0  0  0  0  0  0  0  0
  145.3807  137.3095  153.9401 H   0  0  0  0  0  0  0  0  0  0  0  0
  147.6402  138.0227  152.9978 H   0  0  0  0  0  0  0  0  0  0  0  0
  147.0457  139.2206  154.1052 H   0  0  0  0  0  0  0  0  0  0  0  0
  149.7992  136.8002  153.7195 H   0  0  0  0  0  0  0  0  0  0  0  0
  152.0913  137.1681  154.3050 H   0  0  0  0  0  0  0  0  0  0  0  0
  150.3595  142.1347  155.8010 H   0  0  0  0  0  0  0  0  0  0  0  0
  152.0546  141.7296  155.5082 H   0  0  0  0  0  0  0  0  0  0  0  0
  151.2570  141.1736  157.0275 H   0  0  0  0  0  0  0  0  0  0  0  0
  146.8689  134.4433  155.5204 H   0  0  0  0  0  0  0  0  0  0  0  0
  145.3451  133.6918  155.8900 H   0  0  0  0  0  0  0  0  0  0  0  0
  146.1670  132.9072  153.7185 H   0  0  0  0  0  0  0  0  0  0  0  0
  146.2705  134.5383  153.0979 H   0  0  0  0  0  0  0  0  0  0  0  0
  143.8071  133.2248  153.9933 H   0  0  0  0  0  0  0  0  0  0  0  0
  1  2  1  0  0  0  0
  1 24  1  0  0  0  0
  1 25  1  0  0  0  0
  1 26  1  0  0  0  0
  2  3  1  0  0  0  0
  2  4  1  0  0  0  0
  2 27  1  0  0  0  0
  3 28  1  0  0  0  0
  3 29  1  0  0  0  0
  3 30  1  0  0  0  0
  4  5  1  0  0  0  0
  4 31  1  0  0  0  0
  4 32  1  0  0  0  0
  5 23  1  0  0  0  0
  5  6  1  0  0  0  0
  5 50  1  0  0  0  0
  6  7  1  0  0  0  0
  6 33  1  0  0  0  0
  6 34  1  0  0  0  0
  7  8  1  0  0  0  0
  7 35  1  0  0  0  0
  7 36  1  0  0  0  0
  8  9  1  0  0  0  0
  8 22  1  0  0  0  0
  8 37  1  0  0  0  0
  9 10  1  0  0  0  0
  9 38  1  0  0  0  0
 10 11  2  0  0  0  0
 10 12  1  0  0  0  0
 12 13  1  0  0  0  0
 12 39  1  0  0  0  0
 12 40  1  0  0  0  0
 13 20  1  0  0  0  0
 13 14  1  0  0  0  0
 14 15  2  0  0  0  0
 14 41  1  0  0  0  0
 15 16  1  0  0  0  0
 15 42  1  0  0  0  0
 16 17  2  0  0  0  0
 16 18  1  0  0  0  0
 18 19  1  0  0  0  0
 18 20  1  0  0  0  0
 19 43  1  0  0  0  0
 19 44  1  0  0  0  0
 19 45  1  0  0  0  0
 20 21  2  0  0  0  0
 22 23  1  0  0  0  0
 22 46  1  0  0  0  0
 22 47  1  0  0  0  0
 23 48  1  0  0  0  0
 23 49  1  0  0  0  0
M  CHG  1   5   1
M  END
> <s_m_source_file>
AV-unprocessed.smi

> <i_m_source_file_index>
1176

> <i_lp_mmshare_version>
43012

> <i_f3d_flags>
0

> <s_epik_input>
W0NIM11bQ0hdKFtDSDNdKVtDSDJdTjFbQ0gyXVtDSDJdW0NIXShbQ0gyXVtDSDJdMSlbTkhdQyg9TylbQ0gyXW4yW2NIXVtjSF1jKD1PKW4oW0NIM10pYzI9Tw==

> <s_epik_cmdline>
J2VwaWtfcHl0aG9uJywgJy1waCcsICc3LjAnLCAnLXRuJywgJzgnLCAnLW1hJywgJzIwMCcsICctbWV0YWxfYmluZGluZycsICctaW1hZScsICc8aW5maWxlLm1hZT4nLCAnLW9tYWUnLCAnPG91dGZpbGUubWFlPic=

> <r_lp_tautomer_probability>
1

> <r_epik_Ionization_Penalty>
0.00401429

> <r_epik_Ionization_Penalty_Charging>
0.00401425

> <r_epik_Ionization_Penalty_Neutral>
4.29561e-08

> <r_epik_State_Penalty>
0.00287487

> <r_epik_Charging_Adjusted_Penalty>
0.00688912

> <i_epik_Tot_Q>
1

> <i_epik_Tot_abs_Q>
1

> <r_epik_Metal_State_Penalty>
-0

> <b_epik_Metal_Only>
0

> <s_lp_Force_Field>
OPLS_2005

> <r_lp_Energy>
29.2662

> <b_lp_Chiralities_Consistent>
1

> <s_lp_Variant>
AV-unprocessed.smi:1176-2

> <Gold.Version>
5.8.1

> <Gold.Id.Protein>
6NUR|6NUR_protein|mol2

> <Gold.PLP.Fitness>
41.5560

> <Gold.PLP.PLP>
-30.7038

> <Gold.PLP.part.hbond>
-2.0000

> <Gold.PLP.part.metal>
0.0000

> <Gold.PLP.part.buried>
-0.6652

> <Gold.PLP.part.nonpolar>
-26.8210

> <Gold.PLP.part.repulsive>
0.1291

> <Gold.PLP.ligand.clash>
0.0000

> <Gold.PLP.ligand.torsion>
0.6116

> <Gold.PLP.Chemscore.Hbond>
3.0000

> <Gold.PLP.Chemscore.CHOScore>
1.0000

> <Gold.PLP.Chemscore.Metal>
0.0000

> <Gold.Chemscore.Hbonds>
donor molecule, donor type, donor heavy atom, donor atom, acceptor molecule, acceptor atom, score
      L1  H     5    50       P1 10957  2.00
      P1  H  7997  8009       L1    17  1.00
      L1  C    14    41       P1  7948  1.00

> <Gold.PLP.Chemscore.Internal.Correction>
0.0754

> <Gold.Rescore>
     Score         DG    S(hbond)    S(metal)    S(lipo)     H(rot)  DE(clash)    DE(int)     intcor
     13.28     -14.38       1.99        0.00      61.30       1.92       0.30       0.80       ----

> <Gold.Chemscore.Fitness>
13.2766

> <Gold.Chemscore.DG>
-14.3763

> <Gold.Chemscore.ZeroCoef>
-5.4800

> <Gold.Chemscore.Hbond>
1.9878

> <Gold.Chemscore.Metal>
0.0000

> <Gold.Chemscore.Lipo>
61.2951

> <Gold.Chemscore.Internal_Hbond>
0.0000

> <Gold.Chemscore.DEClash>
0.3039

> <Gold.Chemscore.DEInternal>
0.7958

> <Gold.Chemscore.Rot>
1.9198

> <Gold.Chemscore.Internal.Correction>
   9.000000E+99

> <Gold.Chemscore.Hbonds>
donor molecule, donor type, donor heavy atom, donor atom, acceptor molecule, acceptor atom, score
      L1  H     5    50       P1 10957  0.95
      P1  H  7997  8009       L1    17  1.00

> <Gold.Chemscore.Hbond.Weighted>
-6.6394

> <Gold.Chemscore.Metal.Weighted>
-0.0000

> <Gold.Chemscore.Lipo.Weighted>
-7.1715

> <Gold.Chemscore.Internal_Hbond.Weighted>
0.0000

> <Gold.Chemscore.DEClash.Weighted>
0.3039

> <Gold.Chemscore.DEInternal.Weighted>
0.7958

> <Gold.Chemscore.Rot.Weighted>
4.9147

> <Gold.Chemscore.Internal.Correction.Weighted>
   9.000000E+99

> <Gold.Protein.RotatedTorsions>
[ 6907 6896 6895 6894 ] final  -22.24 input  -60.11 | X-H torsion
[ 7974 7965 7964 7962 ] final  -84.65 input  175.53 | X-H torsion
[ 8008 7997 7996 7995 ] final -141.83 input   59.86 | X-H torsion
[ 10167 10162 10161 10158 ] final  -49.12 input  -65.29 | X-H torsion
[ 10718 10713 10712 10709 ] final   43.73 input   66.30 | X-H torsion
[ 10763 10752 10751 10750 ] final  -66.29 input  -60.55 | X-H torsion
[ 11005 11000 10999 10996 ] final -143.69 input  -57.11 | X-H torsion

> <Gold.Protein.ActiveResidues>
 VAL166  LYS551  ARG553  GLY616  TRP617  ASP618  TYR619  PRO620  LYS621  CYS622 
 ASP623  PHE694  ASN695  SER759  ASP760  ASP761  ALA762  ILE779  LEU786  VAL792 
 PHE793  MET794  SER795  GLU796  ALA797  LYS798  CYS799  TRP800  GLU811  SER814 

> <Gold.Protein.RotatedAtoms>
  151.2216  135.0520  159.8951 H   0  0  0  0  0  0  0  0  0  0  0  0  # atno 6907 bound_to 6896
  152.5415  134.0635  159.8172 H   0  0  0  0  0  0  0  0  0  0  0  0  # atno 6908 bound_to 6896
  151.0802  133.5348  159.2653 H   0  0  0  0  0  0  0  0  0  0  0  0  # atno 6909 bound_to 6896
  145.5037  140.9545  143.1745 H   0  0  0  0  0  0  0  0  0  0  0  0  # atno 7974 bound_to 7965
  155.4842  140.0562  157.2963 H   0  0  0  0  0  0  0  0  0  0  0  0  # atno 8008 bound_to 7997
  154.4648  140.2013  156.0099 H   0  0  0  0  0  0  0  0  0  0  0  0  # atno 8009 bound_to 7997
  156.0955  140.3227  155.7876 H   0  0  0  0  0  0  0  0  0  0  0  0  # atno 8010 bound_to 7997
  140.6700  143.2711  151.4169 H   0  0  0  0  0  0  0  0  0  0  0  0  # atno 10167 bound_to 10162
  157.4191  130.7958  149.7499 H   0  0  0  0  0  0  0  0  0  0  0  0  # atno 10718 bound_to 10713
  154.3577  135.6123  153.5674 H   0  0  0  0  0  0  0  0  0  0  0  0  # atno 10763 bound_to 10752
  152.9795  135.5807  154.4670 H   0  0  0  0  0  0  0  0  0  0  0  0  # atno 10764 bound_to 10752
  154.4402  135.2850  155.1830 H   0  0  0  0  0  0  0  0  0  0  0  0  # atno 10765 bound_to 10752
  140.8100  134.2756  157.4945 H   0  0  0  0  0  0  0  0  0  0  0  0  # atno 11005 bound_to 11000
  144.7765  139.6618  143.7172 LP  0  0  0  0  0  0  0  0  0  0  0  0  # atno 17320 bound_to 7965
  146.2210  139.5635  142.9618 LP  0  0  0  0  0  0  0  0  0  0  0  0  # atno 17321 bound_to 7965
  139.5964  144.1388  152.2149 LP  0  0  0  0  0  0  0  0  0  0  0  0  # atno 17342 bound_to 10162
  140.0759  144.5741  150.7158 LP  0  0  0  0  0  0  0  0  0  0  0  0  # atno 17343 bound_to 10162
  155.9875  130.3967  150.3164 LP  0  0  0  0  0  0  0  0  0  0  0  0  # atno 17370 bound_to 10713
  157.1310  131.0271  151.2969 LP  0  0  0  0  0  0  0  0  0  0  0  0  # atno 17371 bound_to 10713
  139.8715  134.9478  156.3977 LP  0  0  0  0  0  0  0  0  0  0  0  0  # atno 17394 bound_to 11000
  140.9207  133.7647  155.9903 LP  0  0  0  0  0  0  0  0  0  0  0  0  # atno 17395 bound_to 11000

$$$$
