AV-unprocessed.smi:705|AV-procd|sdf|3449|dock3
  -GOLD-   22720 0433D 1   1.00000     0.00000
 Structure written by MMmdl.
 29 30  0  0  0  0  0  0  0  0  2 V2000
  145.0101  132.7499  156.3355 N   0  0  0  0  0  0  0  0  0  0  0  0
  146.1314  133.4447  156.1257 C   0  0  0  0  0  0  0  0  0  0  0  0
  146.8906  133.7743  157.0354 O   0  0  0  0  0  0  0  0  0  0  0  0
  146.4105  133.8074  154.6967 C   0  0  0  0  0  0  0  0  0  0  0  0
  145.5964  133.2930  153.6431 C   0  0  0  0  0  0  0  0  0  0  0  0
  146.1368  133.8247  152.5051 C   0  0  0  0  0  0  0  0  0  0  0  0
  145.7476  133.6834  151.0671 C   0  0  1  0  0  0  0  0  0  0  0  0
  145.8391  132.2221  150.5857 C   0  0  0  0  0  0  0  0  0  0  0  0
  145.4108  132.1041  149.1150 C   0  0  0  0  0  0  0  0  0  0  0  0
  144.0089  132.6973  148.9038 C   0  0  0  0  0  0  0  0  0  0  0  0
  143.9599  134.0978  149.3763 N   0  3  0  0  0  0  0  0  0  0  0  0
  144.3332  134.2399  150.8011 C   0  0  0  0  0  0  0  0  0  0  0  0
  147.1974  134.6024  152.9123 N   0  0  0  0  0  0  0  0  0  0  0  0
  147.3760  134.5991  154.2464 N   0  0  0  0  0  0  0  0  0  0  0  0
  147.8037  135.1297  152.2998 H   0  0  0  0  0  0  0  0  0  0  0  0
  144.7578  132.4721  157.2726 H   0  0  0  0  0  0  0  0  0  0  0  0
  144.4200  132.5074  155.5528 H   0  0  0  0  0  0  0  0  0  0  0  0
  144.7441  132.6329  153.7121 H   0  0  0  0  0  0  0  0  0  0  0  0
  146.4480  134.2688  150.4689 H   0  0  0  0  0  0  0  0  0  0  0  0
  146.8571  131.8495  150.7059 H   0  0  0  0  0  0  0  0  0  0  0  0
  145.2009  131.5856  151.2003 H   0  0  0  0  0  0  0  0  0  0  0  0
  146.1295  132.6239  148.4800 H   0  0  0  0  0  0  0  0  0  0  0  0
  145.4246  131.0583  148.8061 H   0  0  0  0  0  0  0  0  0  0  0  0
  143.7393  132.6666  147.8479 H   0  0  0  0  0  0  0  0  0  0  0  0
  143.2633  132.1102  149.4418 H   0  0  0  0  0  0  0  0  0  0  0  0
  144.5985  134.6475  148.8195 H   0  0  0  0  0  0  0  0  0  0  0  0
  143.5954  133.7210  151.4150 H   0  0  0  0  0  0  0  0  0  0  0  0
  144.2846  135.2952  151.0713 H   0  0  0  0  0  0  0  0  0  0  0  0
  143.0240  134.4553  149.2462 H   0  0  0  0  0  0  0  0  0  0  0  0
  1  2  1  0  0  0  0
  1 16  1  0  0  0  0
  1 17  1  0  0  0  0
  2  3  2  0  0  0  0
  2  4  1  0  0  0  0
  4 14  2  0  0  0  0
  4  5  1  0  0  0  0
  5  6  2  0  0  0  0
  5 18  1  0  0  0  0
  6  7  1  0  0  0  0
  6 13  1  0  0  0  0
  7 12  1  0  0  0  0
  7  8  1  0  0  0  0
  7 19  1  0  0  0  0
  8  9  1  0  0  0  0
  8 20  1  0  0  0  0
  8 21  1  0  0  0  0
  9 10  1  0  0  0  0
  9 22  1  0  0  0  0
  9 23  1  0  0  0  0
 10 11  1  0  0  0  0
 10 24  1  0  0  0  0
 10 25  1  0  0  0  0
 11 12  1  0  0  0  0
 11 26  1  0  0  0  0
 11 29  1  0  0  0  0
 12 27  1  0  0  0  0
 12 28  1  0  0  0  0
 13 15  1  0  0  0  0
 13 14  1  0  0  0  0
M  CHG  1  11   1
M  END
> <s_m_source_file>
AV-unprocessed.smi

> <i_m_source_file_index>
705

> <i_lp_mmshare_version>
43012

> <i_f3d_flags>
0

> <s_epik_input>
W05IMl1DKD1PKWMxW2NIXWMoW25IXW4xKVtDQEBIXTJbQ0gyXVtDSDJdW0NIMl1bTkhdW0NIMl0y

> <s_epik_cmdline>
J2VwaWtfcHl0aG9uJywgJy1waCcsICc3LjAnLCAnLXRuJywgJzgnLCAnLW1hJywgJzIwMCcsICctbWV0YWxfYmluZGluZycsICctaW1hZScsICc8aW5maWxlLm1hZT4nLCAnLW9tYWUnLCAnPG91dGZpbGUubWFlPic=

> <r_lp_tautomer_probability>
0.5

> <r_epik_Ionization_Penalty>
0.000245231

> <r_epik_Ionization_Penalty_Charging>
0.000226378

> <r_epik_Ionization_Penalty_Neutral>
1.88531e-05

> <r_epik_State_Penalty>
0.41068

> <r_epik_Charging_Adjusted_Penalty>
0.410906

> <i_epik_Tot_Q>
1

> <i_epik_Tot_abs_Q>
1

> <r_epik_Metal_State_Penalty>
0.446108

> <b_epik_Metal_Only>
0

> <s_lp_Force_Field>
OPLS_2005

> <r_lp_Energy>
15.347

> <b_lp_Chiralities_Consistent>
1

> <s_lp_Variant>
AV-unprocessed.smi:705-4

> <Gold.Version>
5.8.1

> <Gold.Id.Protein>
6NUR|6NUR_protein|mol2

> <Gold.PLP.Fitness>
37.2742

> <Gold.PLP.PLP>
-22.3212

> <Gold.PLP.part.hbond>
-4.0000

> <Gold.PLP.part.metal>
0.0000

> <Gold.PLP.part.buried>
-3.2080

> <Gold.PLP.part.nonpolar>
-15.0193

> <Gold.PLP.part.repulsive>
0.1952

> <Gold.PLP.ligand.clash>
0.0000

> <Gold.PLP.ligand.torsion>
0.0318

> <Gold.PLP.Chemscore.Hbond>
5.0000

> <Gold.PLP.Chemscore.CHOScore>
0.0000

> <Gold.PLP.Chemscore.Metal>
0.0000

> <Gold.Chemscore.Hbonds>
donor molecule, donor type, donor heavy atom, donor atom, acceptor molecule, acceptor atom, score
      L1  H     1    17       P1 10957  1.00
      L1  H    11    26       P1  7921  1.00
      L1  H    11    29       P1 10186  2.00
      L1  H    13    15       P1  7948  1.00

> <Gold.PLP.Chemscore.Internal.Correction>
0.0166

> <Gold.Rescore>
     Score         DG    S(hbond)    S(metal)    S(lipo)     H(rot)  DE(clash)    DE(int)     intcor
     22.19     -22.24       3.78        0.00      57.21       1.00       0.00       0.05       ----

> <Gold.Chemscore.Fitness>
22.1885

> <Gold.Chemscore.DG>
-22.2422

> <Gold.Chemscore.ZeroCoef>
-5.4800

> <Gold.Chemscore.Hbond>
3.7812

> <Gold.Chemscore.Metal>
0.0000

> <Gold.Chemscore.Lipo>
57.2060

> <Gold.Chemscore.Internal_Hbond>
0.0000

> <Gold.Chemscore.DEClash>
0.0004

> <Gold.Chemscore.DEInternal>
0.0533

> <Gold.Chemscore.Rot>
1.0000

> <Gold.Chemscore.Internal.Correction>
   9.000000E+99

> <Gold.Chemscore.Hbonds>
donor molecule, donor type, donor heavy atom, donor atom, acceptor molecule, acceptor atom, score
      L1  H     1    17       P1 10957  0.88
      L1  H    11    26       P1  7921  0.95
      L1  H    11    29       P1 10186  0.91
      L1  H    13    15       P1  7948  0.95

> <Gold.Chemscore.Hbond.Weighted>
-12.6291

> <Gold.Chemscore.Metal.Weighted>
-0.0000

> <Gold.Chemscore.Lipo.Weighted>
-6.6931

> <Gold.Chemscore.Internal_Hbond.Weighted>
0.0000

> <Gold.Chemscore.DEClash.Weighted>
0.0004

> <Gold.Chemscore.DEInternal.Weighted>
0.0533

> <Gold.Chemscore.Rot.Weighted>
2.5600

> <Gold.Chemscore.Internal.Correction.Weighted>
   9.000000E+99

> <Gold.Protein.RotatedTorsions>
[ 6907 6896 6895 6894 ] final   45.57 input  -60.11 | X-H torsion
[ 7974 7965 7964 7962 ] final -104.02 input  175.53 | X-H torsion
[ 8008 7997 7996 7995 ] final  -97.97 input   59.86 | X-H torsion
[ 10167 10162 10161 10158 ] final -102.38 input  -65.29 | X-H torsion
[ 10718 10713 10712 10709 ] final  158.92 input   66.30 | X-H torsion
[ 10763 10752 10751 10750 ] final  115.19 input  -60.55 | X-H torsion
[ 11005 11000 10999 10996 ] final   89.29 input  -57.11 | X-H torsion

> <Gold.Protein.ActiveResidues>
 VAL166  LYS551  ARG553  GLY616  TRP617  ASP618  TYR619  PRO620  LYS621  CYS622 
 ASP623  PHE694  ASN695  SER759  ASP760  ASP761  ALA762  ILE779  LEU786  VAL792 
 PHE793  MET794  SER795  GLU796  ALA797  LYS798  CYS799  TRP800  GLU811  SER814 

> <Gold.Protein.RotatedAtoms>
  152.2461  134.8180  160.0452 H   0  0  0  0  0  0  0  0  0  0  0  0  # atno 6907 bound_to 6896
  151.8877  133.3504  159.3796 H   0  0  0  0  0  0  0  0  0  0  0  0  # atno 6908 bound_to 6896
  150.7069  134.4881  159.5547 H   0  0  0  0  0  0  0  0  0  0  0  0  # atno 6909 bound_to 6896
  145.2485  140.9230  143.3109 H   0  0  0  0  0  0  0  0  0  0  0  0  # atno 7974 bound_to 7965
  154.7949  140.0459  157.1229 H   0  0  0  0  0  0  0  0  0  0  0  0  # atno 8008 bound_to 7997
  154.9547  140.3069  155.5039 H   0  0  0  0  0  0  0  0  0  0  0  0  # atno 8009 bound_to 7997
  156.2954  140.2281  156.4627 H   0  0  0  0  0  0  0  0  0  0  0  0  # atno 8010 bound_to 7997
  140.2313  143.3604  152.0884 H   0  0  0  0  0  0  0  0  0  0  0  0  # atno 10167 bound_to 10162
  157.1713  131.0610  151.2181 H   0  0  0  0  0  0  0  0  0  0  0  0  # atno 10718 bound_to 10713
  153.5184  135.3603  155.2620 H   0  0  0  0  0  0  0  0  0  0  0  0  # atno 10763 bound_to 10752
  154.8737  135.4039  154.3287 H   0  0  0  0  0  0  0  0  0  0  0  0  # atno 10764 bound_to 10752
  153.3953  135.7073  153.6532 H   0  0  0  0  0  0  0  0  0  0  0  0  # atno 10765 bound_to 10752
  139.8878  134.8542  156.3121 H   0  0  0  0  0  0  0  0  0  0  0  0  # atno 11005 bound_to 11000
  144.9525  139.4068  143.6395 LP  0  0  0  0  0  0  0  0  0  0  0  0  # atno 17320 bound_to 7965
  146.3309  139.8538  142.8868 LP  0  0  0  0  0  0  0  0  0  0  0  0  # atno 17321 bound_to 7965
  139.5109  144.6892  151.5806 LP  0  0  0  0  0  0  0  0  0  0  0  0  # atno 17342 bound_to 10162
  140.6183  143.9307  150.6506 LP  0  0  0  0  0  0  0  0  0  0  0  0  # atno 17343 bound_to 10162
  157.4040  130.7349  149.6789 LP  0  0  0  0  0  0  0  0  0  0  0  0  # atno 17370 bound_to 10713
  155.9738  130.4113  150.3974 LP  0  0  0  0  0  0  0  0  0  0  0  0  # atno 17371 bound_to 10713
  140.9843  133.7248  156.0719 LP  0  0  0  0  0  0  0  0  0  0  0  0  # atno 17394 bound_to 11000
  140.7708  134.3834  157.5508 LP  0  0  0  0  0  0  0  0  0  0  0  0  # atno 17395 bound_to 11000

$$$$
