AV-unprocessed.smi:1035|AV-procd|sdf|4515|dock3
  -GOLD-   22720 2523D 1   1.00000     0.00000
 Structure written by MMmdl.
 42 43  0  0  0  0  0  0  0  0  1 V2000
  151.5469  141.4650  158.0769 C   0  0  0  0  0  0  0  0  0  0  0  0
  151.0553  140.9333  156.7420 C   0  0  0  0  0  0  0  0  0  0  0  0
  150.0753  141.5569  156.0525 C   0  0  0  0  0  0  0  0  0  0  0  0
  149.6106  141.0426  154.7873 C   0  0  0  0  0  0  0  0  0  0  0  0
  150.1788  139.9262  154.3102 C   0  0  0  0  0  0  0  0  0  0  0  0
  151.2033  139.2587  155.0070 N   0  0  0  0  0  0  0  0  0  0  0  0
  151.7470  138.0387  154.3854 C   0  0  0  0  0  0  0  0  0  0  0  0
  151.3174  136.7453  155.0933 C   0  0  0  0  0  0  0  0  0  0  0  0
  151.8575  136.3820  156.1394 O   0  0  0  0  0  0  0  0  0  0  0  0
  150.3235  136.0622  154.5089 N   0  0  0  0  0  0  0  0  0  0  0  0
  149.7720  134.8118  155.0162 C   0  0  0  0  0  0  0  0  0  0  0  0
  149.6210  133.7678  153.8965 C   0  0  0  0  0  0  0  0  0  0  0  0
  150.1632  132.3941  154.2638 C   0  0  0  0  0  0  0  0  0  0  0  0
  149.8443  131.2893  153.5614 C   0  0  0  0  0  0  0  0  0  0  0  0
  150.3720  129.8993  153.8714 C   0  0  0  0  0  0  0  0  0  0  0  0
  151.5648  129.9283  154.8419 C   0  0  0  0  0  0  0  0  0  0  0  0
  151.3183  130.9115  155.9928 C   0  0  0  0  0  0  0  0  0  0  0  0
  151.0943  132.3416  155.4697 C   0  0  0  0  0  0  0  0  0  0  0  0
  151.6779  139.7059  156.2112 C   0  0  0  0  0  0  0  0  0  0  0  0
  152.5747  139.1092  156.8105 O   0  0  0  0  0  0  0  0  0  0  0  0
  151.0205  142.3768  158.3609 H   0  0  0  0  0  0  0  0  0  0  0  0
  152.6121  141.6926  158.0284 H   0  0  0  0  0  0  0  0  0  0  0  0
  151.3876  140.7261  158.8630 H   0  0  0  0  0  0  0  0  0  0  0  0
  149.6246  142.4550  156.4496 H   0  0  0  0  0  0  0  0  0  0  0  0
  148.8230  141.5411  154.2416 H   0  0  0  0  0  0  0  0  0  0  0  0
  149.8840  139.4719  153.3753 H   0  0  0  0  0  0  0  0  0  0  0  0
  151.4387  137.9728  153.3409 H   0  0  0  0  0  0  0  0  0  0  0  0
  152.8375  138.0852  154.3564 H   0  0  0  0  0  0  0  0  0  0  0  0
  149.9303  136.4241  153.6521 H   0  0  0  0  0  0  0  0  0  0  0  0
  150.4188  134.4272  155.8062 H   0  0  0  0  0  0  0  0  0  0  0  0
  148.7990  135.0027  155.4716 H   0  0  0  0  0  0  0  0  0  0  0  0
  148.5691  133.6661  153.6282 H   0  0  0  0  0  0  0  0  0  0  0  0
  150.1275  134.1291  153.0003 H   0  0  0  0  0  0  0  0  0  0  0  0
  149.1673  131.3622  152.7228 H   0  0  0  0  0  0  0  0  0  0  0  0
  149.5545  129.3160  154.2964 H   0  0  0  0  0  0  0  0  0  0  0  0
  150.6623  129.4087  152.9420 H   0  0  0  0  0  0  0  0  0  0  0  0
  151.7539  128.9271  155.2305 H   0  0  0  0  0  0  0  0  0  0  0  0
  152.4658  130.2266  154.3040 H   0  0  0  0  0  0  0  0  0  0  0  0
  150.4420  130.5889  156.5569 H   0  0  0  0  0  0  0  0  0  0  0  0
  152.1562  130.8976  156.6903 H   0  0  0  0  0  0  0  0  0  0  0  0
  152.0496  132.7809  155.1802 H   0  0  0  0  0  0  0  0  0  0  0  0
  150.6909  132.9623  156.2705 H   0  0  0  0  0  0  0  0  0  0  0  0
  1  2  1  0  0  0  0
  1 21  1  0  0  0  0
  1 22  1  0  0  0  0
  1 23  1  0  0  0  0
  2 19  1  0  0  0  0
  2  3  2  0  0  0  0
  3  4  1  0  0  0  0
  3 24  1  0  0  0  0
  4  5  2  0  0  0  0
  4 25  1  0  0  0  0
  5  6  1  0  0  0  0
  5 26  1  0  0  0  0
  6  7  1  0  0  0  0
  6 19  1  0  0  0  0
  7  8  1  0  0  0  0
  7 27  1  0  0  0  0
  7 28  1  0  0  0  0
  8  9  2  0  0  0  0
  8 10  1  0  0  0  0
 10 11  1  0  0  0  0
 10 29  1  0  0  0  0
 11 12  1  0  0  0  0
 11 30  1  0  0  0  0
 11 31  1  0  0  0  0
 12 13  1  0  0  0  0
 12 32  1  0  0  0  0
 12 33  1  0  0  0  0
 13 18  1  0  0  0  0
 13 14  2  0  0  0  0
 14 15  1  0  0  0  0
 14 34  1  0  0  0  0
 15 16  1  0  0  0  0
 15 35  1  0  0  0  0
 15 36  1  0  0  0  0
 16 17  1  0  0  0  0
 16 37  1  0  0  0  0
 16 38  1  0  0  0  0
 17 18  1  0  0  0  0
 17 39  1  0  0  0  0
 17 40  1  0  0  0  0
 18 41  1  0  0  0  0
 18 42  1  0  0  0  0
 19 20  2  0  0  0  0
M  END
> <s_m_source_file>
AV-unprocessed.smi

> <i_m_source_file_index>
1035

> <i_lp_mmshare_version>
43012

> <i_f3d_flags>
0

> <s_epik_input>
W0NIM11jMVtjSF1bY0hdW2NIXW4oYzE9TylbQ0gyXUMoPU8pW05IXVtDSDJdW0NIMl1DMj1bQ0hdW0NIMl1bQ0gyXVtDSDJdW0NIMl0y

> <s_epik_cmdline>
J2VwaWtfcHl0aG9uJywgJy1waCcsICc3LjAnLCAnLXRuJywgJzgnLCAnLW1hJywgJzIwMCcsICctbWV0YWxfYmluZGluZycsICctaW1hZScsICc8aW5maWxlLm1hZT4nLCAnLW9tYWUnLCAnPG91dGZpbGUubWFlPic=

> <r_lp_tautomer_probability>
1

> <r_epik_Ionization_Penalty>
7.80073e-07

> <r_epik_Ionization_Penalty_Charging>
7.6197e-07

> <r_epik_Ionization_Penalty_Neutral>
1.81035e-08

> <r_epik_State_Penalty>
-0

> <r_epik_Charging_Adjusted_Penalty>
7.6197e-07

> <i_epik_Tot_Q>
0

> <i_epik_Tot_abs_Q>
0

> <r_epik_Metal_State_Penalty>
-0

> <b_epik_Metal_Only>
0

> <s_lp_Force_Field>
OPLS_2005

> <r_lp_Energy>
17.5966

> <b_lp_Chiralities_Consistent>
1

> <s_lp_Variant>
AV-unprocessed.smi:1035-1

> <Gold.Version>
5.8.1

> <Gold.Id.Protein>
6NUR|6NUR_protein|mol2

> <Gold.PLP.Fitness>
52.1736

> <Gold.PLP.PLP>
-42.7316

> <Gold.PLP.part.hbond>
-3.0000

> <Gold.PLP.part.metal>
0.0000

> <Gold.PLP.part.buried>
-2.4311

> <Gold.PLP.part.nonpolar>
-36.3646

> <Gold.PLP.part.repulsive>
0.0782

> <Gold.PLP.ligand.clash>
0.0000

> <Gold.PLP.ligand.torsion>
1.0267

> <Gold.PLP.Chemscore.Hbond>
2.8160

> <Gold.PLP.Chemscore.CHOScore>
1.0000

> <Gold.PLP.Chemscore.Metal>
0.0000

> <Gold.Chemscore.Hbonds>
donor molecule, donor type, donor heavy atom, donor atom, acceptor molecule, acceptor atom, score
      L1  H    10    29       P1  7948  0.95
      P1  H  7997  8008       L1    20  0.59
      P1  H 10752 10763       L1     9  0.25
      L1  C     5    26       P1  7957  1.00

> <Gold.PLP.Chemscore.Internal.Correction>
0.0473

> <Gold.Rescore>
     Score         DG    S(hbond)    S(metal)    S(lipo)     H(rot)  DE(clash)    DE(int)     intcor
     15.60     -17.97       1.89        0.00      88.44       1.63       0.13       2.25       ----

> <Gold.Chemscore.Fitness>
15.5997

> <Gold.Chemscore.DG>
-17.9729

> <Gold.Chemscore.ZeroCoef>
-5.4800

> <Gold.Chemscore.Hbond>
1.8927

> <Gold.Chemscore.Metal>
0.0000

> <Gold.Chemscore.Lipo>
88.4374

> <Gold.Chemscore.Internal_Hbond>
0.0000

> <Gold.Chemscore.DEClash>
0.1270

> <Gold.Chemscore.DEInternal>
2.2462

> <Gold.Chemscore.Rot>
1.6311

> <Gold.Chemscore.Internal.Correction>
   9.000000E+99

> <Gold.Chemscore.Hbonds>
donor molecule, donor type, donor heavy atom, donor atom, acceptor molecule, acceptor atom, score
      L1  H    10    29       P1  7948  0.20
      P1  H  7997  8008       L1    20  0.23

> <Gold.Chemscore.Hbond.Weighted>
-6.3215

> <Gold.Chemscore.Metal.Weighted>
-0.0000

> <Gold.Chemscore.Lipo.Weighted>
-10.3472

> <Gold.Chemscore.Internal_Hbond.Weighted>
0.0000

> <Gold.Chemscore.DEClash.Weighted>
0.1270

> <Gold.Chemscore.DEInternal.Weighted>
2.2462

> <Gold.Chemscore.Rot.Weighted>
4.1757

> <Gold.Chemscore.Internal.Correction.Weighted>
   9.000000E+99

> <Gold.Protein.RotatedTorsions>
[ 6907 6896 6895 6894 ] final -139.27 input  -60.11 | X-H torsion
[ 7974 7965 7964 7962 ] final   14.97 input  175.53 | X-H torsion
[ 8008 7997 7996 7995 ] final  -30.39 input   59.86 | X-H torsion
[ 10167 10162 10161 10158 ] final  -85.47 input  -65.29 | X-H torsion
[ 10718 10713 10712 10709 ] final  140.70 input   66.30 | X-H torsion
[ 10763 10752 10751 10750 ] final   84.24 input  -60.55 | X-H torsion
[ 11005 11000 10999 10996 ] final -129.40 input  -57.11 | X-H torsion

> <Gold.Protein.ActiveResidues>
 VAL166  LYS551  ARG553  GLY616  TRP617  ASP618  TYR619  PRO620  LYS621  CYS622 
 ASP623  PHE694  ASN695  SER759  ASP760  ASP761  ALA762  ILE779  LEU786  VAL792 
 PHE793  MET794  SER795  GLU796  ALA797  LYS798  CYS799  TRP800  GLU811  SER814 

> <Gold.Protein.RotatedAtoms>
  151.0456  133.5668  159.2646 H   0  0  0  0  0  0  0  0  0  0  0  0  # atno 6907 bound_to 6896
  151.2698  135.0680  159.9139 H   0  0  0  0  0  0  0  0  0  0  0  0  # atno 6908 bound_to 6896
  152.5372  134.0188  159.8026 H   0  0  0  0  0  0  0  0  0  0  0  0  # atno 6909 bound_to 6896
  146.2291  139.8962  142.8546 H   0  0  0  0  0  0  0  0  0  0  0  0  # atno 7974 bound_to 7965
  154.4252  140.1792  156.1399 H   0  0  0  0  0  0  0  0  0  0  0  0  # atno 8008 bound_to 7997
  156.0000  140.3361  155.6811 H   0  0  0  0  0  0  0  0  0  0  0  0  # atno 8009 bound_to 7997
  155.6256  140.0664  157.2655 H   0  0  0  0  0  0  0  0  0  0  0  0  # atno 8010 bound_to 7997
  140.4034  143.2653  151.9112 H   0  0  0  0  0  0  0  0  0  0  0  0  # atno 10167 bound_to 10162
  157.4003  131.1016  151.0558 H   0  0  0  0  0  0  0  0  0  0  0  0  # atno 10718 bound_to 10713
  153.1363  135.4661  154.9428 H   0  0  0  0  0  0  0  0  0  0  0  0  # atno 10763 bound_to 10752
  154.7709  135.3158  154.8194 H   0  0  0  0  0  0  0  0  0  0  0  0  # atno 10764 bound_to 10752
  153.8725  135.6902  153.4827 H   0  0  0  0  0  0  0  0  0  0  0  0  # atno 10765 bound_to 10752
  140.9434  134.1162  157.4129 H   0  0  0  0  0  0  0  0  0  0  0  0  # atno 11005 bound_to 11000
  145.2368  140.9994  143.3959 LP  0  0  0  0  0  0  0  0  0  0  0  0  # atno 17320 bound_to 7965
  144.9485  139.4109  143.6414 LP  0  0  0  0  0  0  0  0  0  0  0  0  # atno 17321 bound_to 7965
  139.4784  144.5610  151.8239 LP  0  0  0  0  0  0  0  0  0  0  0  0  # atno 17342 bound_to 10162
  140.4715  144.1580  150.5918 LP  0  0  0  0  0  0  0  0  0  0  0  0  # atno 17343 bound_to 10162
  157.1559  130.6204  149.5596 LP  0  0  0  0  0  0  0  0  0  0  0  0  # atno 17370 bound_to 10713
  155.9821  130.4833  150.6866 LP  0  0  0  0  0  0  0  0  0  0  0  0  # atno 17371 bound_to 10713
  139.8826  135.0044  156.6245 LP  0  0  0  0  0  0  0  0  0  0  0  0  # atno 17394 bound_to 11000
  140.7702  133.8744  155.8486 LP  0  0  0  0  0  0  0  0  0  0  0  0  # atno 17395 bound_to 11000

$$$$
