AV-unprocessed.smi:1399|AV-procd|sdf|5682|dock2
  -GOLD-   22720 5303D 1   1.00000     0.00000
 Structure written by MMmdl.
 38 39  0  0  0  0  0  0  0  0  2 V2000
  148.7338  141.5853  155.9454 N   0  0  0  0  0  0  0  0  0  0  0  0
  148.4735  141.4670  154.6414 C   0  0  0  0  0  0  0  0  0  0  0  0
  149.3527  141.2226  153.8169 O   0  0  0  0  0  0  0  0  0  0  0  0
  147.0193  141.6715  154.2039 C   0  0  0  0  0  0  0  0  0  0  0  0
  146.4844  140.5271  153.4223 N   0  3  2  0  0  0  0  0  0  0  0  0
  146.4730  139.2619  154.1999 C   0  0  0  0  0  0  0  0  0  0  0  0
  145.7753  138.1361  153.4173 C   0  0  0  0  0  0  0  0  0  0  0  0
  146.4294  137.9204  152.0428 C   0  0  1  0  0  0  0  0  0  0  0  0
  145.6835  136.9141  151.2923 N   0  0  0  0  0  0  0  0  0  0  0  0
  145.7145  135.5944  151.5278 C   0  0  0  0  0  0  0  0  0  0  0  0
  146.3927  135.0785  152.4160 O   0  0  0  0  0  0  0  0  0  0  0  0
  144.9204  134.9273  150.6748 N   0  0  0  0  0  0  0  0  0  0  0  0
  144.6905  133.5293  150.6312 C   0  0  0  0  0  0  0  0  0  0  0  0
  143.7355  132.7946  149.8687 C   0  0  0  0  0  0  0  0  0  0  0  0
  143.8334  131.4933  150.1021 N   0  0  0  0  0  0  0  0  0  0  0  0
  144.8370  131.3902  151.0023 N   0  0  0  0  0  0  0  0  0  0  0  0
  145.3863  132.6042  151.3512 C   0  0  0  0  0  0  0  0  0  0  0  0
  146.4727  139.2553  151.2762 C   0  0  0  0  0  0  0  0  0  0  0  0
  147.1573  140.3524  152.1074 C   0  0  0  0  0  0  0  0  0  0  0  0
  145.1316  130.4942  151.3641 H   0  0  0  0  0  0  0  0  0  0  0  0
  149.6792  141.4625  156.2801 H   0  0  0  0  0  0  0  0  0  0  0  0
  147.9914  141.8002  156.5955 H   0  0  0  0  0  0  0  0  0  0  0  0
  146.3811  141.8684  155.0671 H   0  0  0  0  0  0  0  0  0  0  0  0
  147.0042  142.5740  153.5912 H   0  0  0  0  0  0  0  0  0  0  0  0
  147.4967  138.9743  154.4452 H   0  0  0  0  0  0  0  0  0  0  0  0
  145.9508  139.4144  155.1450 H   0  0  0  0  0  0  0  0  0  0  0  0
  145.8078  137.2122  153.9961 H   0  0  0  0  0  0  0  0  0  0  0  0
  144.7204  138.3849  153.2915 H   0  0  0  0  0  0  0  0  0  0  0  0
  147.4503  137.5665  152.2012 H   0  0  0  0  0  0  0  0  0  0  0  0
  145.0972  137.2471  150.5406 H   0  0  0  0  0  0  0  0  0  0  0  0
  144.4242  135.4760  149.9880 H   0  0  0  0  0  0  0  0  0  0  0  0
  142.9902  133.1428  149.1691 H   0  0  0  0  0  0  0  0  0  0  0  0
  146.1976  132.6981  152.0581 H   0  0  0  0  0  0  0  0  0  0  0  0
  147.0020  139.1302  150.3306 H   0  0  0  0  0  0  0  0  0  0  0  0
  145.4597  139.5724  151.0232 H   0  0  0  0  0  0  0  0  0  0  0  0
  147.1382  141.2880  151.5476 H   0  0  0  0  0  0  0  0  0  0  0  0
  148.2074  140.1019  152.2653 H   0  0  0  0  0  0  0  0  0  0  0  0
  145.5178  140.7511  153.2307 H   0  0  0  0  0  0  0  0  0  0  0  0
  1  2  1  0  0  0  0
  1 21  1  0  0  0  0
  1 22  1  0  0  0  0
  2  3  2  0  0  0  0
  2  4  1  0  0  0  0
  4  5  1  0  0  0  0
  4 23  1  0  0  0  0
  4 24  1  0  0  0  0
  5 19  1  0  0  0  0
  5  6  1  0  0  0  0
  5 38  1  0  0  0  0
  6  7  1  0  0  0  0
  6 25  1  0  0  0  0
  6 26  1  0  0  0  0
  7  8  1  0  0  0  0
  7 27  1  0  0  0  0
  7 28  1  0  0  0  0
  8  9  1  0  0  0  0
  8 18  1  0  0  0  0
  8 29  1  0  0  0  0
  9 10  1  0  0  0  0
  9 30  1  0  0  0  0
 10 11  2  0  0  0  0
 10 12  1  0  0  0  0
 12 13  1  0  0  0  0
 12 31  1  0  0  0  0
 13 17  2  0  0  0  0
 13 14  1  0  0  0  0
 14 15  2  0  0  0  0
 14 32  1  0  0  0  0
 15 16  1  0  0  0  0
 16 20  1  0  0  0  0
 16 17  1  0  0  0  0
 17 33  1  0  0  0  0
 18 19  1  0  0  0  0
 18 34  1  0  0  0  0
 18 35  1  0  0  0  0
 19 36  1  0  0  0  0
 19 37  1  0  0  0  0
M  CHG  1   5   1
M  END
> <s_m_source_file>
AV-unprocessed.smi

> <i_m_source_file_index>
1399

> <i_lp_mmshare_version>
43012

> <i_f3d_flags>
0

> <s_epik_input>
W05IMl1DKD1PKVtDSDJdTjFbQ0gyXVtDSDJdW0NIXShbQ0gyXVtDSDJdMSlbTkhdQyg9TylbTkhdYzJbY0hdbltuSF1bY0hdMg==

> <s_epik_cmdline>
J2VwaWtfcHl0aG9uJywgJy1waCcsICc3LjAnLCAnLXRuJywgJzgnLCAnLW1hJywgJzIwMCcsICctbWV0YWxfYmluZGluZycsICctaW1hZScsICc8aW5maWxlLm1hZT4nLCAnLW9tYWUnLCAnPG91dGZpbGUubWFlPic=

> <r_lp_tautomer_probability>
0.5

> <r_epik_Ionization_Penalty>
0.838927

> <r_epik_Ionization_Penalty_Charging>
0.838844

> <r_epik_Ionization_Penalty_Neutral>
8.28742e-05

> <r_epik_State_Penalty>
0.8734

> <r_epik_Charging_Adjusted_Penalty>
1.71224

> <i_epik_Tot_Q>
1

> <i_epik_Tot_abs_Q>
1

> <r_epik_Metal_State_Penalty>
0.890702

> <b_epik_Metal_Only>
0

> <s_lp_Force_Field>
OPLS_2005

> <r_lp_Energy>
15.1462

> <b_lp_Chiralities_Consistent>
1

> <s_lp_Variant>
AV-unprocessed.smi:1399-2

> <Gold.Version>
5.8.1

> <Gold.Id.Protein>
6NUR|6NUR_protein|mol2

> <Gold.PLP.Fitness>
44.8164

> <Gold.PLP.PLP>
-27.8626

> <Gold.PLP.part.hbond>
-5.5854

> <Gold.PLP.part.metal>
0.0000

> <Gold.PLP.part.buried>
1.0728

> <Gold.PLP.part.nonpolar>
-26.7614

> <Gold.PLP.part.repulsive>
3.1126

> <Gold.PLP.ligand.clash>
0.0000

> <Gold.PLP.ligand.torsion>
0.2463

> <Gold.PLP.Chemscore.Hbond>
4.8104

> <Gold.PLP.Chemscore.CHOScore>
0.9905

> <Gold.PLP.Chemscore.Metal>
0.0000

> <Gold.Chemscore.Hbonds>
donor molecule, donor type, donor heavy atom, donor atom, acceptor molecule, acceptor atom, score
      L1  H     5    38       P1 10175  2.00
      L1  H     9    30       P1 10171  1.00
      P1  H  7989  7998       L1     3  0.10
      P1  H  8011  8017       L1     3  0.86
      P1  H 10785 10796       L1    15  0.77
      L1  C    14    32       P1 10186  1.00

> <Gold.PLP.Chemscore.Internal.Correction>
0.0436

> <Gold.Rescore>
     Score         DG    S(hbond)    S(metal)    S(lipo)     H(rot)  DE(clash)    DE(int)     intcor
     14.31     -18.66       3.20        0.00      67.10       2.09       2.77       1.59       ----

> <Gold.Chemscore.Fitness>
14.3061

> <Gold.Chemscore.DG>
-18.6622

> <Gold.Chemscore.ZeroCoef>
-5.4800

> <Gold.Chemscore.Hbond>
3.1956

> <Gold.Chemscore.Metal>
0.0000

> <Gold.Chemscore.Lipo>
67.0970

> <Gold.Chemscore.Internal_Hbond>
0.0000

> <Gold.Chemscore.DEClash>
2.7670

> <Gold.Chemscore.DEInternal>
1.5890

> <Gold.Chemscore.Rot>
2.0865

> <Gold.Chemscore.Internal.Correction>
   9.000000E+99

> <Gold.Chemscore.Hbonds>
donor molecule, donor type, donor heavy atom, donor atom, acceptor molecule, acceptor atom, score
      L1  H     5    38       P1 10175  0.71
      L1  H     9    30       P1 10171  0.94
      P1  H  7989  7998       L1     3  0.10
      P1  H  8011  8017       L1     3  0.85
      P1  H 10785 10796       L1    15  0.73

> <Gold.Chemscore.Hbond.Weighted>
-10.6733

> <Gold.Chemscore.Metal.Weighted>
-0.0000

> <Gold.Chemscore.Lipo.Weighted>
-7.8503

> <Gold.Chemscore.Internal_Hbond.Weighted>
0.0000

> <Gold.Chemscore.DEClash.Weighted>
2.7670

> <Gold.Chemscore.DEInternal.Weighted>
1.5890

> <Gold.Chemscore.Rot.Weighted>
5.3415

> <Gold.Chemscore.Internal.Correction.Weighted>
   9.000000E+99

> <Gold.Protein.RotatedTorsions>
[ 6907 6896 6895 6894 ] final  150.36 input  -60.11 | X-H torsion
[ 7974 7965 7964 7962 ] final   27.07 input  175.53 | X-H torsion
[ 8008 7997 7996 7995 ] final -140.45 input   59.86 | X-H torsion
[ 10167 10162 10161 10158 ] final   39.81 input  -65.29 | X-H torsion
[ 10718 10713 10712 10709 ] final   24.06 input   66.30 | X-H torsion
[ 10763 10752 10751 10750 ] final  109.32 input  -60.55 | X-H torsion
[ 11005 11000 10999 10996 ] final -153.89 input  -57.11 | X-H torsion

> <Gold.Protein.ActiveResidues>
 VAL166  LYS551  ARG553  GLY616  TRP617  ASP618  TYR619  PRO620  LYS621  CYS622 
 ASP623  PHE694  ASN695  SER759  ASP760  ASP761  ALA762  ILE779  LEU786  VAL792 
 PHE793  MET794  SER795  GLU796  ALA797  LYS798  CYS799  TRP800  GLU811  SER814 

> <Gold.Protein.RotatedAtoms>
  152.1155  133.4324  159.4650 H   0  0  0  0  0  0  0  0  0  0  0  0  # atno 6907 bound_to 6896
  150.6869  134.2597  159.4553 H   0  0  0  0  0  0  0  0  0  0  0  0  # atno 6908 bound_to 6896
  152.0469  134.9677  160.0625 H   0  0  0  0  0  0  0  0  0  0  0  0  # atno 6909 bound_to 6896
  146.1804  139.7241  142.8905 H   0  0  0  0  0  0  0  0  0  0  0  0  # atno 7974 bound_to 7965
  155.4616  140.0546  157.2990 H   0  0  0  0  0  0  0  0  0  0  0  0  # atno 8008 bound_to 7997
  154.4735  140.2051  155.9890 H   0  0  0  0  0  0  0  0  0  0  0  0  # atno 8009 bound_to 7997
  156.1094  140.3206  155.8056 H   0  0  0  0  0  0  0  0  0  0  0  0  # atno 8010 bound_to 7997
  140.3803  144.1988  150.6131 H   0  0  0  0  0  0  0  0  0  0  0  0  # atno 10167 bound_to 10162
  157.1747  130.6775  149.6090 H   0  0  0  0  0  0  0  0  0  0  0  0  # atno 10718 bound_to 10713
  153.4330  135.3784  155.2182 H   0  0  0  0  0  0  0  0  0  0  0  0  # atno 10763 bound_to 10752
  154.8751  135.3844  154.4245 H   0  0  0  0  0  0  0  0  0  0  0  0  # atno 10764 bound_to 10752
  153.4780  135.7088  153.6018 H   0  0  0  0  0  0  0  0  0  0  0  0  # atno 10765 bound_to 10752
  140.7033  134.3913  157.5207 H   0  0  0  0  0  0  0  0  0  0  0  0  # atno 11005 bound_to 11000
  145.4093  141.0394  143.3026 LP  0  0  0  0  0  0  0  0  0  0  0  0  # atno 17320 bound_to 7965
  144.8305  139.5637  143.6946 LP  0  0  0  0  0  0  0  0  0  0  0  0  # atno 17321 bound_to 7965
  140.4944  143.2337  151.8771 LP  0  0  0  0  0  0  0  0  0  0  0  0  # atno 17342 bound_to 10162
  139.4796  144.5130  151.8907 LP  0  0  0  0  0  0  0  0  0  0  0  0  # atno 17343 bound_to 10162
  155.9733  130.4667  150.6299 LP  0  0  0  0  0  0  0  0  0  0  0  0  # atno 17370 bound_to 10713
  157.4010  131.0810  151.1308 LP  0  0  0  0  0  0  0  0  0  0  0  0  # atno 17371 bound_to 10713
  139.8891  134.8839  156.2439 LP  0  0  0  0  0  0  0  0  0  0  0  0  # atno 17394 bound_to 11000
  141.0146  133.7076  156.1167 LP  0  0  0  0  0  0  0  0  0  0  0  0  # atno 17395 bound_to 11000

$$$$
