AV-unprocessed.smi:626|AV-procd|sdf|3111|dock9
  -GOLD-   22720 0 33D 1   1.00000     0.00000
 Structure written by MMmdl.
 34 36  0  0  0  0  0  0  0  0  1 V2000
  147.8069  139.0023  153.7906 C   0  0  0  0  0  0  0  0  0  0  0  0
  149.0041  138.6330  154.5300 N   0  0  0  0  0  0  0  0  0  0  0  0
  150.0683  139.4332  154.6913 C   0  0  0  0  0  0  0  0  0  0  0  0
  150.1377  140.5682  154.2193 O   0  0  0  0  0  0  0  0  0  0  0  0
  151.2335  138.8689  155.5077 C   0  0  0  0  0  0  0  0  0  0  0  0
  151.5914  139.7912  156.6288 C   0  0  0  0  0  0  0  0  0  0  0  0
  152.8174  139.8181  157.1376 N   0  0  0  0  0  0  0  0  0  0  0  0
  152.7355  140.8091  158.1260 O   0  0  0  0  0  0  0  0  0  0  0  0
  151.4508  141.2412  158.1189 C   0  0  0  0  0  0  0  0  0  0  0  0
  151.0843  142.3897  159.0133 C   0  0  2  0  0  0  0  0  0  0  0  0
  150.5015  143.6281  158.2950 C   0  0  0  0  0  0  0  0  0  0  0  0
  151.3671  144.7757  158.8507 C   0  0  2  0  0  0  0  0  0  0  0  0
  152.7778  144.6934  158.2361 C   0  0  0  0  0  0  0  0  0  0  0  0
  153.3958  143.4817  158.9597 C   0  0  0  0  0  0  0  0  0  0  0  0
  152.2364  142.9928  159.8517 C   0  0  1  0  0  0  0  0  0  0  0  0
  151.6226  144.3214  160.2838 C   0  0  0  0  0  0  0  0  0  0  0  0
  150.7056  140.6700  157.1731 N   0  0  0  0  0  0  0  0  0  0  0  0
  147.1315  138.1489  153.7267 H   0  0  0  0  0  0  0  0  0  0  0  0
  148.0540  139.3171  152.7758 H   0  0  0  0  0  0  0  0  0  0  0  0
  147.2812  139.8170  154.2901 H   0  0  0  0  0  0  0  0  0  0  0  0
  149.0233  137.7148  154.9501 H   0  0  0  0  0  0  0  0  0  0  0  0
  150.9841  137.8847  155.9075 H   0  0  0  0  0  0  0  0  0  0  0  0
  152.0966  138.7345  154.8546 H   0  0  0  0  0  0  0  0  0  0  0  0
  150.3255  142.0189  159.7047 H   0  0  0  0  0  0  0  0  0  0  0  0
  150.5597  143.5748  157.2073 H   0  0  0  0  0  0  0  0  0  0  0  0
  149.4518  143.7637  158.5586 H   0  0  0  0  0  0  0  0  0  0  0  0
  150.9047  145.7583  158.7526 H   0  0  0  0  0  0  0  0  0  0  0  0
  152.7490  144.5600  157.1540 H   0  0  0  0  0  0  0  0  0  0  0  0
  153.3496  145.5980  158.4468 H   0  0  0  0  0  0  0  0  0  0  0  0
  153.7691  142.7221  158.2743 H   0  0  0  0  0  0  0  0  0  0  0  0
  154.2383  143.8006  159.5749 H   0  0  0  0  0  0  0  0  0  0  0  0
  152.5627  142.3493  160.6693 H   0  0  0  0  0  0  0  0  0  0  0  0
  152.3177  144.9659  160.8252 H   0  0  0  0  0  0  0  0  0  0  0  0
  150.7096  144.2086  160.8710 H   0  0  0  0  0  0  0  0  0  0  0  0
  1  2  1  0  0  0  0
  1 18  1  0  0  0  0
  1 19  1  0  0  0  0
  1 20  1  0  0  0  0
  2  3  1  0  0  0  0
  2 21  1  0  0  0  0
  3  4  2  0  0  0  0
  3  5  1  0  0  0  0
  5  6  1  0  0  0  0
  5 22  1  0  0  0  0
  5 23  1  0  0  0  0
  6 17  1  0  0  0  0
  6  7  2  0  0  0  0
  7  8  1  0  0  0  0
  8  9  1  0  0  0  0
  9 10  1  0  0  0  0
  9 17  2  0  0  0  0
 10 15  1  0  0  0  0
 10 11  1  0  0  0  0
 10 24  1  0  0  0  0
 11 12  1  0  0  0  0
 11 25  1  0  0  0  0
 11 26  1  0  0  0  0
 12 16  1  0  0  0  0
 12 13  1  0  0  0  0
 12 27  1  0  0  0  0
 13 14  1  0  0  0  0
 13 28  1  0  0  0  0
 13 29  1  0  0  0  0
 14 15  1  0  0  0  0
 14 30  1  0  0  0  0
 14 31  1  0  0  0  0
 15 16  1  0  0  0  0
 15 32  1  0  0  0  0
 16 33  1  0  0  0  0
 16 34  1  0  0  0  0
M  END
> <s_m_source_file>
AV-unprocessed.smi

> <i_m_source_file_index>
626

> <i_lp_mmshare_version>
43012

> <i_f3d_flags>
0

> <s_epik_input>
W0NIM11bTkhdQyg9TylbQ0gyXWMxbm9jKG4xKVtDQEhdKFtDSDJdW0NAQEhdMjMpW0NAQEhdKFtDSDJdMylbQ0gyXVtDSDJdMg==

> <s_epik_cmdline>
J2VwaWtfcHl0aG9uJywgJy1waCcsICc3LjAnLCAnLXRuJywgJzgnLCAnLW1hJywgJzIwMCcsICctbWV0YWxfYmluZGluZycsICctaW1hZScsICc8aW5maWxlLm1hZT4nLCAnLW9tYWUnLCAnPG91dGZpbGUubWFlPic=

> <r_lp_tautomer_probability>
1

> <r_epik_Ionization_Penalty>
1.02916e-07

> <r_epik_Ionization_Penalty_Charging>
0

> <r_epik_Ionization_Penalty_Neutral>
1.02916e-07

> <r_epik_State_Penalty>
-0

> <r_epik_Charging_Adjusted_Penalty>
0

> <i_epik_Tot_Q>
0

> <i_epik_Tot_abs_Q>
0

> <r_epik_Metal_State_Penalty>
-0

> <b_epik_Metal_Only>
0

> <s_lp_Force_Field>
OPLS_2005

> <r_lp_Energy>
49.4755

> <b_lp_Chiralities_Consistent>
1

> <s_lp_Variant>
AV-unprocessed.smi:626-3

> <Gold.Version>
5.8.1

> <Gold.Id.Protein>
6NUR|6NUR_protein|mol2

> <Gold.PLP.Fitness>
39.6245

> <Gold.PLP.PLP>
-35.1110

> <Gold.PLP.part.hbond>
-2.7691

> <Gold.PLP.part.metal>
0.0000

> <Gold.PLP.part.buried>
-2.2876

> <Gold.PLP.part.nonpolar>
-29.2935

> <Gold.PLP.part.repulsive>
0.1794

> <Gold.PLP.ligand.clash>
0.0000

> <Gold.PLP.ligand.torsion>
0.4846

> <Gold.PLP.Chemscore.Hbond>
1.8000

> <Gold.PLP.Chemscore.CHOScore>
0.0000

> <Gold.PLP.Chemscore.Metal>
0.0000

> <Gold.Chemscore.Hbonds>
donor molecule, donor type, donor heavy atom, donor atom, acceptor molecule, acceptor atom, score
      P1  H  7989  7998       L1     4  0.80
      P1  H  7997  8009       L1     7  1.00

> <Gold.PLP.Chemscore.Internal.Correction>
0.0826

> <Gold.Rescore>
     Score         DG    S(hbond)    S(metal)    S(lipo)     H(rot)  DE(clash)    DE(int)     intcor
     14.84     -17.72       1.68        0.00      92.09       1.61       0.02       2.86       ----

> <Gold.Chemscore.Fitness>
14.8407

> <Gold.Chemscore.DG>
-17.7227

> <Gold.Chemscore.ZeroCoef>
-5.4800

> <Gold.Chemscore.Hbond>
1.6751

> <Gold.Chemscore.Metal>
0.0000

> <Gold.Chemscore.Lipo>
92.0892

> <Gold.Chemscore.Internal_Hbond>
0.0000

> <Gold.Chemscore.DEClash>
0.0236

> <Gold.Chemscore.DEInternal>
2.8584

> <Gold.Chemscore.Rot>
1.6119

> <Gold.Chemscore.Internal.Correction>
   9.000000E+99

> <Gold.Chemscore.Hbonds>
donor molecule, donor type, donor heavy atom, donor atom, acceptor molecule, acceptor atom, score
      P1  H  7989  7998       L1     4  0.68
      P1  H  7997  8009       L1     7  0.25

> <Gold.Chemscore.Hbond.Weighted>
-5.5948

> <Gold.Chemscore.Metal.Weighted>
-0.0000

> <Gold.Chemscore.Lipo.Weighted>
-10.7744

> <Gold.Chemscore.Internal_Hbond.Weighted>
0.0000

> <Gold.Chemscore.DEClash.Weighted>
0.0236

> <Gold.Chemscore.DEInternal.Weighted>
2.8584

> <Gold.Chemscore.Rot.Weighted>
4.1266

> <Gold.Chemscore.Internal.Correction.Weighted>
   9.000000E+99

> <Gold.Protein.RotatedTorsions>
[ 6907 6896 6895 6894 ] final   53.69 input  -60.11 | X-H torsion
[ 7974 7965 7964 7962 ] final -176.74 input  175.53 | X-H torsion
[ 8008 7997 7996 7995 ] final -175.09 input   59.86 | X-H torsion
[ 10167 10162 10161 10158 ] final  -82.99 input  -65.29 | X-H torsion
[ 10718 10713 10712 10709 ] final  103.65 input   66.30 | X-H torsion
[ 10763 10752 10751 10750 ] final -156.12 input  -60.55 | X-H torsion
[ 11005 11000 10999 10996 ] final -100.83 input  -57.11 | X-H torsion

> <Gold.Protein.ActiveResidues>
 VAL166  LYS551  ARG553  GLY616  TRP617  ASP618  TYR619  PRO620  LYS621  CYS622 
 ASP623  PHE694  ASN695  SER759  ASP760  ASP761  ALA762  ILE779  LEU786  VAL792 
 PHE793  MET794  SER795  GLU796  ALA797  LYS798  CYS799  TRP800  GLU811  SER814 

> <Gold.Protein.RotatedAtoms>
  152.3363  134.7193  160.0275 H   0  0  0  0  0  0  0  0  0  0  0  0  # atno 6907 bound_to 6896
  151.7593  133.3327  159.3421 H   0  0  0  0  0  0  0  0  0  0  0  0  # atno 6908 bound_to 6896
  150.7452  134.6052  159.6102 H   0  0  0  0  0  0  0  0  0  0  0  0  # atno 6909 bound_to 6896
  144.7127  140.1125  143.6410 H   0  0  0  0  0  0  0  0  0  0  0  0  # atno 7974 bound_to 7965
  155.9782  140.1176  157.0750 H   0  0  0  0  0  0  0  0  0  0  0  0  # atno 8008 bound_to 7997
  154.4175  140.1149  156.5467 H   0  0  0  0  0  0  0  0  0  0  0  0  # atno 8009 bound_to 7997
  155.6506  140.3473  155.4749 H   0  0  0  0  0  0  0  0  0  0  0  0  # atno 8010 bound_to 7997
  140.4269  143.2563  151.8814 H   0  0  0  0  0  0  0  0  0  0  0  0  # atno 10167 bound_to 10162
  157.6766  131.0784  150.5587 H   0  0  0  0  0  0  0  0  0  0  0  0  # atno 10718 bound_to 10713
  154.7736  135.3153  154.8138 H   0  0  0  0  0  0  0  0  0  0  0  0  # atno 10763 bound_to 10752
  153.8867  135.6829  153.4767 H   0  0  0  0  0  0  0  0  0  0  0  0  # atno 10764 bound_to 10752
  153.1355  135.4761  154.9351 H   0  0  0  0  0  0  0  0  0  0  0  0  # atno 10765 bound_to 10752
  141.1255  133.8430  157.1153 H   0  0  0  0  0  0  0  0  0  0  0  0  # atno 11005 bound_to 11000
  145.9442  139.2690  143.1250 LP  0  0  0  0  0  0  0  0  0  0  0  0  # atno 17320 bound_to 7965
  145.9391  140.8993  143.0317 LP  0  0  0  0  0  0  0  0  0  0  0  0  # atno 17321 bound_to 7965
  139.4784  144.5377  151.8574 LP  0  0  0  0  0  0  0  0  0  0  0  0  # atno 17342 bound_to 10162
  140.4471  144.1906  150.5895 LP  0  0  0  0  0  0  0  0  0  0  0  0  # atno 17343 bound_to 10162
  156.5890  130.4324  149.5945 LP  0  0  0  0  0  0  0  0  0  0  0  0  # atno 17370 bound_to 10713
  156.2599  130.6956  151.1721 LP  0  0  0  0  0  0  0  0  0  0  0  0  # atno 17371 bound_to 10713
  140.0250  134.9928  157.0667 LP  0  0  0  0  0  0  0  0  0  0  0  0  # atno 17394 bound_to 11000
  140.4378  134.1713  155.7172 LP  0  0  0  0  0  0  0  0  0  0  0  0  # atno 17395 bound_to 11000

$$$$
