AV-unprocessed.smi:62|AV-procd|sdf|604|dock1
  -GOLD-   2262016493D 1   1.00000     0.00000
 Structure written by MMmdl.
 31 32  0  0  0  0  0  0  0  0  3 V2000
  151.4710  145.4350  159.9540 C   0  0  0  0  0  0  0  0  0  0  0  0
  151.5742  144.1925  159.2193 N   0  0  0  0  0  0  0  0  0  0  0  0
  151.0322  143.8668  157.9982 C   0  0  0  0  0  0  0  0  0  0  0  0
  151.3949  142.5817  157.6992 C   0  0  0  0  0  0  0  0  0  0  0  0
  151.0154  141.8481  156.4318 C   0  0  0  0  0  0  0  0  0  0  0  0
  149.5999  142.1011  156.0730 N   0  3  2  0  0  0  0  0  0  0  0  0
  148.6086  141.5252  157.0120 C   0  0  0  0  0  0  0  0  0  0  0  0
  147.4314  141.0231  156.1625 C   0  0  0  0  0  0  0  0  0  0  0  0
  147.6760  141.6186  154.7767 C   0  0  2  0  0  0  0  0  0  0  0  0
  147.1302  140.8152  153.7517 O   0  0  0  0  0  0  0  0  0  0  0  0
  149.1979  141.6969  154.7104 C   0  0  0  0  0  0  0  0  0  0  0  0
  152.1725  142.1935  158.8457 C   0  0  0  0  0  0  0  0  0  0  0  0
  152.7974  140.8315  158.9948 C   0  0  0  0  0  0  0  0  0  0  0  0
  153.2919  140.4820  160.0878 O   0  0  0  0  0  0  0  0  0  0  0  0
  152.8012  140.0795  157.9958 O   0  5  0  0  0  0  0  0  0  0  0  0
  152.2752  143.1694  159.7383 N   0  0  0  0  0  0  0  0  0  0  0  0
  151.0961  146.2246  159.3022 H   0  0  0  0  0  0  0  0  0  0  0  0
  152.4508  145.7261  160.3345 H   0  0  0  0  0  0  0  0  0  0  0  0
  150.7845  145.3092  160.7917 H   0  0  0  0  0  0  0  0  0  0  0  0
  150.4377  144.5745  157.4394 H   0  0  0  0  0  0  0  0  0  0  0  0
  151.6654  142.0653  155.5862 H   0  0  0  0  0  0  0  0  0  0  0  0
  151.1239  140.7750  156.5948 H   0  0  0  0  0  0  0  0  0  0  0  0
  149.0324  140.7028  157.5907 H   0  0  0  0  0  0  0  0  0  0  0  0
  148.2934  142.2977  157.7137 H   0  0  0  0  0  0  0  0  0  0  0  0
  147.4652  139.9332  156.1152 H   0  0  0  0  0  0  0  0  0  0  0  0
  146.4619  141.3056  156.5740 H   0  0  0  0  0  0  0  0  0  0  0  0
  147.2503  142.6216  154.7223 H   0  0  0  0  0  0  0  0  0  0  0  0
  147.8337  140.3543  153.3199 H   0  0  0  0  0  0  0  0  0  0  0  0
  149.5556  142.3940  153.9517 H   0  0  0  0  0  0  0  0  0  0  0  0
  149.6035  140.7089  154.4893 H   0  0  0  0  0  0  0  0  0  0  0  0
  149.4634  143.1007  156.1151 H   0  0  0  0  0  0  0  0  0  0  0  0
  1  2  1  0  0  0  0
  1 17  1  0  0  0  0
  1 18  1  0  0  0  0
  1 19  1  0  0  0  0
  2 16  1  0  0  0  0
  2  3  1  0  0  0  0
  3  4  2  0  0  0  0
  3 20  1  0  0  0  0
  4  5  1  0  0  0  0
  4 12  1  0  0  0  0
  5  6  1  0  0  0  0
  5 21  1  0  0  0  0
  5 22  1  0  0  0  0
  6 11  1  0  0  0  0
  6  7  1  0  0  0  0
  6 31  1  0  0  0  0
  7  8  1  0  0  0  0
  7 23  1  0  0  0  0
  7 24  1  0  0  0  0
  8  9  1  0  0  0  0
  8 25  1  0  0  0  0
  8 26  1  0  0  0  0
  9 10  1  0  0  0  0
  9 11  1  0  0  0  0
  9 27  1  0  0  0  0
 10 28  1  0  0  0  0
 11 29  1  0  0  0  0
 11 30  1  0  0  0  0
 12 13  1  0  0  0  0
 12 16  2  0  0  0  0
 13 14  2  0  0  0  0
 13 15  1  0  0  0  0
M  CHG  1   6   1
M  CHG  1  15  -1
M  END
> <s_m_source_file>
AV-unprocessed.smi

> <i_m_source_file_index>
62

> <i_lp_mmshare_version>
43012

> <i_f3d_flags>
0

> <s_epik_input>
W0NIM11uMVtjSF1jKGMobjEpQyg9TylbT0hdKVtDSDJdTjJbQ0gyXVtDSDJdW0NAQEhdKFtPSF0pW0NIMl0y

> <s_epik_cmdline>
J2VwaWtfcHl0aG9uJywgJy1waCcsICc3LjAnLCAnLXRuJywgJzgnLCAnLW1hJywgJzIwMCcsICctbWV0YWxfYmluZGluZycsICctaW1hZScsICc8aW5maWxlLm1hZT4nLCAnLW9tYWUnLCAnPG91dGZpbGUubWFlPic=

> <r_epik_Ionization_Penalty>
0.0522993

> <r_epik_Ionization_Penalty_Charging>
0.0522915

> <r_epik_Ionization_Penalty_Neutral>
7.84975e-06

> <r_epik_State_Penalty>
0.0448084

> <r_epik_Charging_Adjusted_Penalty>
0.0970998

> <i_epik_Tot_Q>
0

> <i_epik_Tot_abs_Q>
2

> <r_epik_Metal_State_Penalty>
0.0448097

> <b_epik_Metal_Only>
0

> <s_lp_Force_Field>
OPLS_2005

> <r_lp_Energy>
19.3538

> <b_lp_Chiralities_Consistent>
1

> <s_lp_Variant>
AV-unprocessed.smi:62-4

> <Gold.Version>
5.8.1

> <Gold.Id.Protein>
6NUR|6NUR_protein|mol2

> <Gold.PLP.Fitness>
45.3548

> <Gold.PLP.PLP>
-31.0476

> <Gold.PLP.part.hbond>
-2.0000

> <Gold.PLP.part.metal>
0.0000

> <Gold.PLP.part.buried>
-4.8766

> <Gold.PLP.part.nonpolar>
-24.5280

> <Gold.PLP.part.repulsive>
0.0991

> <Gold.PLP.ligand.clash>
0.0000

> <Gold.PLP.ligand.torsion>
0.3539

> <Gold.PLP.Chemscore.Hbond>
4.0000

> <Gold.PLP.Chemscore.CHOScore>
1.0000

> <Gold.PLP.Chemscore.Metal>
0.0000

> <Gold.Chemscore.Hbonds>
donor molecule, donor type, donor heavy atom, donor atom, acceptor molecule, acceptor atom, score
      L1  H     6    31       P1  8028  2.00
      P1  H  7997  8009       L1    15  2.00
      L1  C     3    20       P1  8028  1.00

> <Gold.PLP.Chemscore.Internal.Correction>
0.0149

> <Gold.Rescore>
     Score         DG    S(hbond)    S(metal)    S(lipo)     H(rot)  DE(clash)    DE(int)     intcor
     13.82     -15.35       1.93        0.00      68.96       1.81       0.02       1.51       ----

> <Gold.Chemscore.Fitness>
13.8201

> <Gold.Chemscore.DG>
-15.3526

> <Gold.Chemscore.ZeroCoef>
-5.4800

> <Gold.Chemscore.Hbond>
1.9268

> <Gold.Chemscore.Metal>
0.0000

> <Gold.Chemscore.Lipo>
68.9609

> <Gold.Chemscore.Internal_Hbond>
0.0000

> <Gold.Chemscore.DEClash>
0.0211

> <Gold.Chemscore.DEInternal>
1.5114

> <Gold.Chemscore.Rot>
1.8091

> <Gold.Chemscore.Internal.Correction>
   9.000000E+99

> <Gold.Chemscore.Hbonds>
donor molecule, donor type, donor heavy atom, donor atom, acceptor molecule, acceptor atom, score
      L1  H     6    31       P1  8028  0.99
      P1  H  7997  8009       L1    15  0.75

> <Gold.Chemscore.Hbond.Weighted>
-6.4355

> <Gold.Chemscore.Metal.Weighted>
-0.0000

> <Gold.Chemscore.Lipo.Weighted>
-8.0684

> <Gold.Chemscore.Internal_Hbond.Weighted>
0.0000

> <Gold.Chemscore.DEClash.Weighted>
0.0211

> <Gold.Chemscore.DEInternal.Weighted>
1.5114

> <Gold.Chemscore.Rot.Weighted>
4.6314

> <Gold.Chemscore.Internal.Correction.Weighted>
   9.000000E+99

> <Gold.Protein.RotatedTorsions>
[ 6907 6896 6895 6894 ] final   48.17 input  -60.11 | X-H torsion
[ 7974 7965 7964 7962 ] final  -94.47 input  175.53 | X-H torsion
[ 8008 7997 7996 7995 ] final  155.48 input   59.86 | X-H torsion
[ 10167 10162 10161 10158 ] final  162.52 input  -65.29 | X-H torsion
[ 10718 10713 10712 10709 ] final  139.42 input   66.30 | X-H torsion
[ 10763 10752 10751 10750 ] final   88.51 input  -60.55 | X-H torsion
[ 11005 11000 10999 10996 ] final -111.95 input  -57.11 | X-H torsion

> <Gold.Protein.ActiveResidues>
 VAL166  LYS551  ARG553  GLY616  TRP617  ASP618  TYR619  PRO620  LYS621  CYS622 
 ASP623  PHE694  ASN695  SER759  ASP760  ASP761  ALA762  ILE779  LEU786  VAL792 
 PHE793  MET794  SER795  GLU796  ALA797  LYS798  CYS799  TRP800  GLU811  SER814 

> <Gold.Protein.RotatedAtoms>
  152.2764  134.7876  160.0404 H   0  0  0  0  0  0  0  0  0  0  0  0  # atno 6907 bound_to 6896
  151.8471  133.3428  159.3669 H   0  0  0  0  0  0  0  0  0  0  0  0  # atno 6908 bound_to 6896
  150.7172  134.5263  159.5723 H   0  0  0  0  0  0  0  0  0  0  0  0  # atno 6909 bound_to 6896
  145.3728  140.9507  143.2437 H   0  0  0  0  0  0  0  0  0  0  0  0  # atno 7974 bound_to 7965
  156.2475  140.1938  156.6808 H   0  0  0  0  0  0  0  0  0  0  0  0  # atno 8008 bound_to 7997
  154.6323  140.0594  156.9773 H   0  0  0  0  0  0  0  0  0  0  0  0  # atno 8009 bound_to 7997
  155.1691  140.3266  155.4399 H   0  0  0  0  0  0  0  0  0  0  0  0  # atno 8010 bound_to 7997
  139.4862  144.4429  151.8929 H   0  0  0  0  0  0  0  0  0  0  0  0  # atno 10167 bound_to 10162
  157.4146  131.1032  151.0418 H   0  0  0  0  0  0  0  0  0  0  0  0  # atno 10718 bound_to 10713
  153.1776  135.4504  154.9985 H   0  0  0  0  0  0  0  0  0  0  0  0  # atno 10763 bound_to 10752
  154.8008  135.3255  154.7556 H   0  0  0  0  0  0  0  0  0  0  0  0  # atno 10764 bound_to 10752
  153.8025  135.6961  153.4908 H   0  0  0  0  0  0  0  0  0  0  0  0  # atno 10765 bound_to 10752
  141.0704  133.9389  157.2496 H   0  0  0  0  0  0  0  0  0  0  0  0  # atno 11005 bound_to 11000
  144.8564  139.5243  143.6832 LP  0  0  0  0  0  0  0  0  0  0  0  0  # atno 17320 bound_to 7965
  146.2877  139.7052  142.9183 LP  0  0  0  0  0  0  0  0  0  0  0  0  # atno 17321 bound_to 7965
  140.3882  144.2650  150.5902 LP  0  0  0  0  0  0  0  0  0  0  0  0  # atno 17342 bound_to 10162
  140.5171  143.2275  151.8446 LP  0  0  0  0  0  0  0  0  0  0  0  0  # atno 17343 bound_to 10162
  157.1371  130.6127  149.5545 LP  0  0  0  0  0  0  0  0  0  0  0  0  # atno 17370 bound_to 10713
  155.9861  130.4894  150.7063 LP  0  0  0  0  0  0  0  0  0  0  0  0  # atno 17371 bound_to 10713
  139.9518  135.0174  156.9014 LP  0  0  0  0  0  0  0  0  0  0  0  0  # atno 17394 bound_to 11000
  140.5686  134.0466  155.7422 LP  0  0  0  0  0  0  0  0  0  0  0  0  # atno 17395 bound_to 11000

$$$$
