AV-unprocessed.smi:1983|AV-procd|sdf|8031|dock6
  -GOLD-   2272010223D 1   1.00000     0.00000
 Structure written by MMmdl.
 49 50  0  0  0  0  0  0  0  0  1 V2000
  150.7353  133.2874  156.4508 C   0  0  0  0  0  0  0  0  0  0  0  0
  149.4255  134.0875  156.3881 C   0  0  1  0  0  0  0  0  0  0  0  0
  149.0637  134.7227  157.7460 C   0  0  0  0  0  0  0  0  0  0  0  0
  150.1609  135.4460  158.2619 O   0  0  0  0  0  0  0  0  0  0  0  0
  149.5445  135.1170  155.3591 N   0  0  0  0  0  0  0  0  0  0  0  0
  150.4956  136.0610  155.3149 C   0  0  0  0  0  0  0  0  0  0  0  0
  151.3955  136.1741  156.1477 O   0  0  0  0  0  0  0  0  0  0  0  0
  150.3562  136.8604  154.2480 N   0  0  0  0  0  0  0  0  0  0  0  0
  151.2630  137.9501  153.9066 C   0  0  0  0  0  0  0  0  0  0  0  0
  151.3886  138.9786  155.0166 C   0  0  0  0  0  0  0  0  0  0  0  0
  150.3281  139.8563  155.3157 C   0  0  0  0  0  0  0  0  0  0  0  0
  150.4956  140.8016  156.3454 C   0  0  0  0  0  0  0  0  0  0  0  0
  151.7234  140.8456  157.0471 C   0  0  0  0  0  0  0  0  0  0  0  0
  151.9103  141.7895  158.0784 N   0  0  0  0  0  0  0  0  0  0  0  0
  152.3847  141.3074  159.3721 C   0  0  0  0  0  0  0  0  0  0  0  0
  152.8470  142.4878  160.2441 C   0  0  2  0  0  0  0  0  0  0  0  0
  153.2354  142.0385  161.6564 C   0  0  0  0  0  0  0  0  0  0  0  0
  151.7902  143.4403  160.3569 O   0  0  0  0  0  0  0  0  0  0  0  0
  151.3135  143.9571  159.1119 C   0  0  1  0  0  0  0  0  0  0  0  0
  152.3244  144.9120  158.4525 C   0  0  0  0  0  0  0  0  0  0  0  0
  150.8673  142.8044  158.1902 C   0  0  0  0  0  0  0  0  0  0  0  0
  152.7431  140.0014  156.7527 N   0  0  0  0  0  0  0  0  0  0  0  0
  152.5757  139.0940  155.7676 C   0  0  0  0  0  0  0  0  0  0  0  0
  150.6689  132.4770  157.1770 H   0  0  0  0  0  0  0  0  0  0  0  0
  151.5749  133.9216  156.7365 H   0  0  0  0  0  0  0  0  0  0  0  0
  150.9687  132.8401  155.4840 H   0  0  0  0  0  0  0  0  0  0  0  0
  148.6263  133.4044  156.0933 H   0  0  0  0  0  0  0  0  0  0  0  0
  148.2002  135.3823  157.6542 H   0  0  0  0  0  0  0  0  0  0  0  0
  148.8049  133.9555  158.4766 H   0  0  0  0  0  0  0  0  0  0  0  0
  150.1982  136.2845  157.8276 H   0  0  0  0  0  0  0  0  0  0  0  0
  148.8511  135.1064  154.6256 H   0  0  0  0  0  0  0  0  0  0  0  0
  149.5830  136.6932  153.6210 H   0  0  0  0  0  0  0  0  0  0  0  0
  152.2488  137.5272  153.7121 H   0  0  0  0  0  0  0  0  0  0  0  0
  150.9448  138.4280  152.9784 H   0  0  0  0  0  0  0  0  0  0  0  0
  149.4015  139.8103  154.7627 H   0  0  0  0  0  0  0  0  0  0  0  0
  149.6942  141.4882  156.5746 H   0  0  0  0  0  0  0  0  0  0  0  0
  151.5806  140.7627  159.8688 H   0  0  0  0  0  0  0  0  0  0  0  0
  153.2134  140.6116  159.2338 H   0  0  0  0  0  0  0  0  0  0  0  0
  153.7192  142.9585  159.7895 H   0  0  0  0  0  0  0  0  0  0  0  0
  154.0532  141.3183  161.6274 H   0  0  0  0  0  0  0  0  0  0  0  0
  152.3940  141.5704  162.1678 H   0  0  0  0  0  0  0  0  0  0  0  0
  153.5610  142.8869  162.2590 H   0  0  0  0  0  0  0  0  0  0  0  0
  150.4303  144.5507  159.3491 H   0  0  0  0  0  0  0  0  0  0  0  0
  151.8866  145.3919  157.5770 H   0  0  0  0  0  0  0  0  0  0  0  0
  153.2257  144.3970  158.1207 H   0  0  0  0  0  0  0  0  0  0  0  0
  152.6234  145.6991  159.1448 H   0  0  0  0  0  0  0  0  0  0  0  0
  150.5823  143.2043  157.2177 H   0  0  0  0  0  0  0  0  0  0  0  0
  149.9768  142.3301  158.6048 H   0  0  0  0  0  0  0  0  0  0  0  0
  153.4183  138.4478  155.5701 H   0  0  0  0  0  0  0  0  0  0  0  0
  1  2  1  0  0  0  0
  1 24  1  0  0  0  0
  1 25  1  0  0  0  0
  1 26  1  0  0  0  0
  2  3  1  0  0  0  0
  2  5  1  0  0  0  0
  2 27  1  0  0  0  0
  3  4  1  0  0  0  0
  3 28  1  0  0  0  0
  3 29  1  0  0  0  0
  4 30  1  0  0  0  0
  5  6  1  0  0  0  0
  5 31  1  0  0  0  0
  6  7  2  0  0  0  0
  6  8  1  0  0  0  0
  8  9  1  0  0  0  0
  8 32  1  0  0  0  0
  9 10  1  0  0  0  0
  9 33  1  0  0  0  0
  9 34  1  0  0  0  0
 10 23  1  0  0  0  0
 10 11  2  0  0  0  0
 11 12  1  0  0  0  0
 11 35  1  0  0  0  0
 12 13  2  0  0  0  0
 12 36  1  0  0  0  0
 13 14  1  0  0  0  0
 13 22  1  0  0  0  0
 14 21  1  0  0  0  0
 14 15  1  0  0  0  0
 15 16  1  0  0  0  0
 15 37  1  0  0  0  0
 15 38  1  0  0  0  0
 16 17  1  0  0  0  0
 16 18  1  0  0  0  0
 16 39  1  0  0  0  0
 17 40  1  0  0  0  0
 17 41  1  0  0  0  0
 17 42  1  0  0  0  0
 18 19  1  0  0  0  0
 19 20  1  0  0  0  0
 19 21  1  0  0  0  0
 19 43  1  0  0  0  0
 20 44  1  0  0  0  0
 20 45  1  0  0  0  0
 20 46  1  0  0  0  0
 21 47  1  0  0  0  0
 21 48  1  0  0  0  0
 22 23  2  0  0  0  0
 23 49  1  0  0  0  0
M  END
> <s_m_source_file>
AV-unprocessed.smi

> <i_m_source_file_index>
1983

> <i_lp_mmshare_version>
43012

> <i_f3d_flags>
0

> <s_epik_input>
W09IXVtDSDJdW0NAQEhdKFtDSDNdKVtOSF1DKD1PKVtOSF1bQ0gyXWMxW2NIXVtjSF1jKG5bY0hdMSlOMltDSDJdW0NAQEhdKFtDSDNdKU9bQ0BASF0oW0NIM10pW0NIMl0y

> <s_epik_cmdline>
J2VwaWtfcHl0aG9uJywgJy1waCcsICc3LjAnLCAnLXRuJywgJzgnLCAnLW1hJywgJzIwMCcsICctbWV0YWxfYmluZGluZycsICctaW1hZScsICc8aW5maWxlLm1hZT4nLCAnLW9tYWUnLCAnPG91dGZpbGUubWFlPic=

> <r_lp_tautomer_probability>
1

> <r_epik_Ionization_Penalty>
0.00801967

> <r_epik_Ionization_Penalty_Charging>
0

> <r_epik_Ionization_Penalty_Neutral>
0.00801967

> <r_epik_State_Penalty>
0.00598289

> <r_epik_Charging_Adjusted_Penalty>
0.00598289

> <i_epik_Tot_Q>
0

> <i_epik_Tot_abs_Q>
0

> <r_epik_Metal_State_Penalty>
0.00590297

> <b_epik_Metal_Only>
0

> <s_lp_Force_Field>
OPLS_2005

> <r_lp_Energy>
16.1949

> <b_lp_Chiralities_Consistent>
1

> <s_lp_Variant>
AV-unprocessed.smi:1983-4

> <Gold.Version>
5.8.1

> <Gold.Id.Protein>
6NUR|6NUR_protein|mol2

> <Gold.PLP.Fitness>
51.1013

> <Gold.PLP.PLP>
-42.7722

> <Gold.PLP.part.hbond>
-3.7353

> <Gold.PLP.part.metal>
0.0000

> <Gold.PLP.part.buried>
-4.2258

> <Gold.PLP.part.nonpolar>
-35.3537

> <Gold.PLP.part.repulsive>
0.1398

> <Gold.PLP.ligand.clash>
0.0613

> <Gold.PLP.ligand.torsion>
0.3535

> <Gold.PLP.Chemscore.Hbond>
2.9120

> <Gold.PLP.Chemscore.CHOScore>
0.0000

> <Gold.PLP.Chemscore.Metal>
0.0000

> <Gold.Chemscore.Hbonds>
donor molecule, donor type, donor heavy atom, donor atom, acceptor molecule, acceptor atom, score
      L1  H     8    32       P1  7948  0.94
      P1  H  6896  6907       L1     4  0.82
      P1  H  7997  8009       L1    22  0.90
      P1  H 10752 10764       L1     7  0.22

> <Gold.PLP.Chemscore.Internal.Correction>
0.3613

> <Gold.Rescore>
     Score         DG    S(hbond)    S(metal)    S(lipo)     H(rot)  DE(clash)    DE(int)     intcor
     14.85     -19.09       2.19        0.00     110.79       2.61       0.02       4.21       ----

> <Gold.Chemscore.Fitness>
14.8530

> <Gold.Chemscore.DG>
-19.0896

> <Gold.Chemscore.ZeroCoef>
-5.4800

> <Gold.Chemscore.Hbond>
2.1941

> <Gold.Chemscore.Metal>
0.0000

> <Gold.Chemscore.Lipo>
110.7892

> <Gold.Chemscore.Internal_Hbond>
0.0000

> <Gold.Chemscore.DEClash>
0.0230

> <Gold.Chemscore.DEInternal>
4.2136

> <Gold.Chemscore.Rot>
2.6097

> <Gold.Chemscore.Internal.Correction>
   9.000000E+99

> <Gold.Chemscore.Hbonds>
donor molecule, donor type, donor heavy atom, donor atom, acceptor molecule, acceptor atom, score
      L1  H     8    32       P1  7948  0.68
      P1  H  6896  6907       L1     4  0.69
      P1  H  7997  8009       L1    22  0.20
      P1  H 10752 10764       L1     7  0.01

> <Gold.Chemscore.Hbond.Weighted>
-7.3281

> <Gold.Chemscore.Metal.Weighted>
-0.0000

> <Gold.Chemscore.Lipo.Weighted>
-12.9623

> <Gold.Chemscore.Internal_Hbond.Weighted>
0.0000

> <Gold.Chemscore.DEClash.Weighted>
0.0230

> <Gold.Chemscore.DEInternal.Weighted>
4.2136

> <Gold.Chemscore.Rot.Weighted>
6.6809

> <Gold.Chemscore.Internal.Correction.Weighted>
   9.000000E+99

> <Gold.Protein.RotatedTorsions>
[ 6907 6896 6895 6894 ] final  -55.57 input  -60.11 | X-H torsion
[ 7974 7965 7964 7962 ] final  178.60 input  175.53 | X-H torsion
[ 8008 7997 7996 7995 ] final  170.16 input   59.86 | X-H torsion
[ 10167 10162 10161 10158 ] final  -95.42 input  -65.29 | X-H torsion
[ 10718 10713 10712 10709 ] final  145.84 input   66.30 | X-H torsion
[ 10763 10752 10751 10750 ] final  -61.17 input  -60.55 | X-H torsion
[ 11005 11000 10999 10996 ] final  163.00 input  -57.11 | X-H torsion

> <Gold.Protein.ActiveResidues>
 VAL166  LYS551  ARG553  GLY616  TRP617  ASP618  TYR619  PRO620  LYS621  CYS622 
 ASP623  PHE694  ASN695  SER759  ASP760  ASP761  ALA762  ILE779  LEU786  VAL792 
 PHE793  MET794  SER795  GLU796  ALA797  LYS798  CYS799  TRP800  GLU811  SER814 

> <Gold.Protein.RotatedAtoms>
  150.8241  134.7463  159.6797 H   0  0  0  0  0  0  0  0  0  0  0  0  # atno 6907 bound_to 6896
  152.4353  134.5694  159.9927 H   0  0  0  0  0  0  0  0  0  0  0  0  # atno 6908 bound_to 6896
  151.5871  133.3333  159.3056 H   0  0  0  0  0  0  0  0  0  0  0  0  # atno 6909 bound_to 6896
  144.7154  140.0422  143.6437 H   0  0  0  0  0  0  0  0  0  0  0  0  # atno 7974 bound_to 7965
  156.1391  140.1545  156.8949 H   0  0  0  0  0  0  0  0  0  0  0  0  # atno 8008 bound_to 7997
  154.4972  140.0835  156.7760 H   0  0  0  0  0  0  0  0  0  0  0  0  # atno 8009 bound_to 7997
  155.4113  140.3419  155.4266 H   0  0  0  0  0  0  0  0  0  0  0  0  # atno 8010 bound_to 7997
  140.3043  143.3143  152.0215 H   0  0  0  0  0  0  0  0  0  0  0  0  # atno 10167 bound_to 10162
  157.3404  131.0935  151.1087 H   0  0  0  0  0  0  0  0  0  0  0  0  # atno 10718 bound_to 10713
  154.2806  135.6273  153.5345 H   0  0  0  0  0  0  0  0  0  0  0  0  # atno 10763 bound_to 10752
  152.9866  135.5632  154.5500 H   0  0  0  0  0  0  0  0  0  0  0  0  # atno 10764 bound_to 10752
  154.5090  135.2876  155.1334 H   0  0  0  0  0  0  0  0  0  0  0  0  # atno 10765 bound_to 10752
  140.2314  134.8121  157.3320 H   0  0  0  0  0  0  0  0  0  0  0  0  # atno 11005 bound_to 11000
  146.0014  139.3094  143.0925 LP  0  0  0  0  0  0  0  0  0  0  0  0  # atno 17320 bound_to 7965
  145.8789  140.9375  143.0612 LP  0  0  0  0  0  0  0  0  0  0  0  0  # atno 17321 bound_to 7965
  139.4908  144.6432  151.6833 LP  0  0  0  0  0  0  0  0  0  0  0  0  # atno 17342 bound_to 10162
  140.5623  144.0247  150.6176 LP  0  0  0  0  0  0  0  0  0  0  0  0  # atno 17343 bound_to 10162
  157.2301  130.6521  149.5846 LP  0  0  0  0  0  0  0  0  0  0  0  0  # atno 17370 bound_to 10713
  155.9707  130.4601  150.6062 LP  0  0  0  0  0  0  0  0  0  0  0  0  # atno 17371 bound_to 10713
  140.1747  134.4565  155.7809 LP  0  0  0  0  0  0  0  0  0  0  0  0  # atno 17394 bound_to 11000
  141.2217  133.6957  156.7767 LP  0  0  0  0  0  0  0  0  0  0  0  0  # atno 17395 bound_to 11000

$$$$
