AV-unprocessed.smi:919|AV-procd|sdf|4167|dock9
  -GOLD-   22720 2 73D 1   1.00000     0.00000
 Structure written by MMmdl.
 43 45  0  0  0  0  0  0  0  0  1 V2000
  149.7512  138.2579  154.3881 C   0  0  0  0  0  0  0  0  0  0  0  0
  149.1995  139.6516  154.2965 C   0  0  0  0  0  0  0  0  0  0  0  0
  150.0090  140.6874  154.4416 N   0  0  0  0  0  0  0  0  0  0  0  0
  149.2043  141.8233  154.3074 O   0  0  0  0  0  0  0  0  0  0  0  0
  147.9272  141.4216  154.0831 C   0  0  0  0  0  0  0  0  0  0  0  0
  146.9100  142.4991  153.9157 C   0  0  0  0  0  0  0  0  0  0  0  0
  147.8548  140.0561  154.0602 C   0  0  0  0  0  0  0  0  0  0  0  0
  146.6538  139.1763  153.8452 C   0  0  0  0  0  0  0  0  0  0  0  0
  146.4753  138.8260  152.3596 C   0  0  0  0  0  0  0  0  0  0  0  0
  146.7126  137.4092  152.1135 N   0  0  0  0  0  0  0  0  0  0  0  0
  145.7949  136.4378  152.2556 C   0  0  0  0  0  0  0  0  0  0  0  0
  144.6334  136.6478  152.6007 O   0  0  0  0  0  0  0  0  0  0  0  0
  146.2443  135.1981  151.9918 N   0  0  0  0  0  0  0  0  0  0  0  0
  145.4982  133.9394  152.0543 C   0  0  1  0  0  0  0  0  0  0  0  0
  144.3083  133.8909  151.0663 C   0  0  0  0  0  0  0  0  0  0  0  0
  144.6257  132.6532  150.2071 C   0  0  2  0  0  0  0  0  0  0  0  0
  144.4697  131.3791  151.0600 C   0  0  0  0  0  0  0  0  0  0  0  0
  145.6943  131.4406  151.9944 C   0  0  0  0  0  0  0  0  0  0  0  0
  146.3706  132.7590  151.5745 C   0  0  1  0  0  0  0  0  0  0  0  0
  146.1381  132.7550  150.0663 C   0  0  0  0  0  0  0  0  0  0  0  0
  149.0476  137.5897  154.8857 H   0  0  0  0  0  0  0  0  0  0  0  0
  150.6846  138.2307  154.9515 H   0  0  0  0  0  0  0  0  0  0  0  0
  149.9486  137.8521  153.3959 H   0  0  0  0  0  0  0  0  0  0  0  0
  145.8989  142.0987  153.9909 H   0  0  0  0  0  0  0  0  0  0  0  0
  147.0130  142.9783  152.9421 H   0  0  0  0  0  0  0  0  0  0  0  0
  147.0261  143.2637  154.6840 H   0  0  0  0  0  0  0  0  0  0  0  0
  146.7424  138.2569  154.4250 H   0  0  0  0  0  0  0  0  0  0  0  0
  145.7540  139.6691  154.2152 H   0  0  0  0  0  0  0  0  0  0  0  0
  145.4761  139.1021  152.0177 H   0  0  0  0  0  0  0  0  0  0  0  0
  147.1789  139.3987  151.7547 H   0  0  0  0  0  0  0  0  0  0  0  0
  147.6429  137.1446  151.8239 H   0  0  0  0  0  0  0  0  0  0  0  0
  147.2094  135.1210  151.7045 H   0  0  0  0  0  0  0  0  0  0  0  0
  145.1704  133.7682  153.0813 H   0  0  0  0  0  0  0  0  0  0  0  0
  143.3493  133.8029  151.5786 H   0  0  0  0  0  0  0  0  0  0  0  0
  144.2675  134.7843  150.4413 H   0  0  0  0  0  0  0  0  0  0  0  0
  144.0761  132.6214  149.2658 H   0  0  0  0  0  0  0  0  0  0  0  0
  143.5272  131.3634  151.6087 H   0  0  0  0  0  0  0  0  0  0  0  0
  144.5089  130.4852  150.4362 H   0  0  0  0  0  0  0  0  0  0  0  0
  145.4168  131.4286  153.0490 H   0  0  0  0  0  0  0  0  0  0  0  0
  146.3557  130.5922  151.8141 H   0  0  0  0  0  0  0  0  0  0  0  0
  147.4155  132.8234  151.8810 H   0  0  0  0  0  0  0  0  0  0  0  0
  146.5854  131.8974  149.5606 H   0  0  0  0  0  0  0  0  0  0  0  0
  146.4664  133.6718  149.5732 H   0  0  0  0  0  0  0  0  0  0  0  0
  1  2  1  0  0  0  0
  1 21  1  0  0  0  0
  1 22  1  0  0  0  0
  1 23  1  0  0  0  0
  2  7  1  0  0  0  0
  2  3  2  0  0  0  0
  3  4  1  0  0  0  0
  4  5  1  0  0  0  0
  5  6  1  0  0  0  0
  5  7  2  0  0  0  0
  6 24  1  0  0  0  0
  6 25  1  0  0  0  0
  6 26  1  0  0  0  0
  7  8  1  0  0  0  0
  8  9  1  0  0  0  0
  8 27  1  0  0  0  0
  8 28  1  0  0  0  0
  9 10  1  0  0  0  0
  9 29  1  0  0  0  0
  9 30  1  0  0  0  0
 10 11  1  0  0  0  0
 10 31  1  0  0  0  0
 11 12  2  0  0  0  0
 11 13  1  0  0  0  0
 13 14  1  0  0  0  0
 13 32  1  0  0  0  0
 14 19  1  0  0  0  0
 14 15  1  0  0  0  0
 14 33  1  0  0  0  0
 15 16  1  0  0  0  0
 15 34  1  0  0  0  0
 15 35  1  0  0  0  0
 16 20  1  0  0  0  0
 16 17  1  0  0  0  0
 16 36  1  0  0  0  0
 17 18  1  0  0  0  0
 17 37  1  0  0  0  0
 17 38  1  0  0  0  0
 18 19  1  0  0  0  0
 18 39  1  0  0  0  0
 18 40  1  0  0  0  0
 19 20  1  0  0  0  0
 19 41  1  0  0  0  0
 20 42  1  0  0  0  0
 20 43  1  0  0  0  0
M  END
> <s_m_source_file>
AV-unprocessed.smi

> <i_m_source_file_index>
919

> <i_lp_mmshare_version>
43012

> <i_f3d_flags>
0

> <s_epik_input>
W0NIM11jMW5vYyhbQ0gzXSljMVtDSDJdW0NIMl1bTkhdQyg9TylbTkhdW0NASF0oW0NIMl1bQ0BASF0yMylbQ0BASF0oW0NIMl0zKVtDSDJdW0NIMl0y

> <s_epik_cmdline>
J2VwaWtfcHl0aG9uJywgJy1waCcsICc3LjAnLCAnLXRuJywgJzgnLCAnLW1hJywgJzIwMCcsICctbWV0YWxfYmluZGluZycsICctaW1hZScsICc8aW5maWxlLm1hZT4nLCAnLW9tYWUnLCAnPG91dGZpbGUubWFlPic=

> <r_lp_tautomer_probability>
1

> <r_epik_Ionization_Penalty>
6.40771e-05

> <r_epik_Ionization_Penalty_Charging>
0

> <r_epik_Ionization_Penalty_Neutral>
6.40771e-05

> <r_epik_State_Penalty>
-0

> <r_epik_Charging_Adjusted_Penalty>
0

> <i_epik_Tot_Q>
0

> <i_epik_Tot_abs_Q>
0

> <r_epik_Metal_State_Penalty>
-0

> <b_epik_Metal_Only>
0

> <s_lp_Force_Field>
OPLS_2005

> <r_lp_Energy>
47.296

> <b_lp_Chiralities_Consistent>
1

> <s_lp_Variant>
AV-unprocessed.smi:919-4

> <Gold.Version>
5.8.1

> <Gold.Id.Protein>
6NUR|6NUR_protein|mol2

> <Gold.PLP.Fitness>
46.5632

> <Gold.PLP.PLP>
-39.5477

> <Gold.PLP.part.hbond>
-4.4233

> <Gold.PLP.part.metal>
0.0000

> <Gold.PLP.part.buried>
-5.2686

> <Gold.PLP.part.nonpolar>
-30.9834

> <Gold.PLP.part.repulsive>
0.6046

> <Gold.PLP.ligand.clash>
0.0000

> <Gold.PLP.ligand.torsion>
0.9172

> <Gold.PLP.Chemscore.Hbond>
2.9422

> <Gold.PLP.Chemscore.CHOScore>
0.0000

> <Gold.PLP.Chemscore.Metal>
0.0000

> <Gold.Chemscore.Hbonds>
donor molecule, donor type, donor heavy atom, donor atom, acceptor molecule, acceptor atom, score
      L1  H    10    31       P1  7948  1.00
      L1  H    13    32       P1  7948  0.78
      P1  H  7989  7998       L1     3  0.77
      P1  H  8011  8017       L1     4  0.32

> <Gold.PLP.Chemscore.Internal.Correction>
0.0232

> <Gold.Rescore>
     Score         DG    S(hbond)    S(metal)    S(lipo)     H(rot)  DE(clash)    DE(int)     intcor
     19.61     -20.58       2.31        0.00      96.40       1.52       0.04       0.93       ----

> <Gold.Chemscore.Fitness>
19.6113

> <Gold.Chemscore.DG>
-20.5822

> <Gold.Chemscore.ZeroCoef>
-5.4800

> <Gold.Chemscore.Hbond>
2.3068

> <Gold.Chemscore.Metal>
0.0000

> <Gold.Chemscore.Lipo>
96.4006

> <Gold.Chemscore.Internal_Hbond>
0.0000

> <Gold.Chemscore.DEClash>
0.0386

> <Gold.Chemscore.DEInternal>
0.9323

> <Gold.Chemscore.Rot>
1.5161

> <Gold.Chemscore.Internal.Correction>
   9.000000E+99

> <Gold.Chemscore.Hbonds>
donor molecule, donor type, donor heavy atom, donor atom, acceptor molecule, acceptor atom, score
      L1  H    10    31       P1  7948  0.95
      L1  H    13    32       P1  7948  0.67
      P1  H  7989  7998       L1     3  0.59
      P1  H  8011  8017       L1     4  0.02

> <Gold.Chemscore.Hbond.Weighted>
-7.7046

> <Gold.Chemscore.Metal.Weighted>
-0.0000

> <Gold.Chemscore.Lipo.Weighted>
-11.2789

> <Gold.Chemscore.Internal_Hbond.Weighted>
0.0000

> <Gold.Chemscore.DEClash.Weighted>
0.0386

> <Gold.Chemscore.DEInternal.Weighted>
0.9323

> <Gold.Chemscore.Rot.Weighted>
3.8813

> <Gold.Chemscore.Internal.Correction.Weighted>
   9.000000E+99

> <Gold.Protein.RotatedTorsions>
[ 6907 6896 6895 6894 ] final  -20.13 input  -60.11 | X-H torsion
[ 7974 7965 7964 7962 ] final  -18.07 input  175.53 | X-H torsion
[ 8008 7997 7996 7995 ] final  -19.11 input   59.86 | X-H torsion
[ 10167 10162 10161 10158 ] final -159.76 input  -65.29 | X-H torsion
[ 10718 10713 10712 10709 ] final   15.27 input   66.30 | X-H torsion
[ 10763 10752 10751 10750 ] final -121.59 input  -60.55 | X-H torsion
[ 11005 11000 10999 10996 ] final   99.34 input  -57.11 | X-H torsion

> <Gold.Protein.ActiveResidues>
 VAL166  LYS551  ARG553  GLY616  TRP617  ASP618  TYR619  PRO620  LYS621  CYS622 
 ASP623  PHE694  ASN695  SER759  ASP760  ASP761  ALA762  ILE779  LEU786  VAL792 
 PHE793  MET794  SER795  GLU796  ALA797  LYS798  CYS799  TRP800  GLU811  SER814 

> <Gold.Protein.RotatedAtoms>
  151.2527  135.0627  159.9067 H   0  0  0  0  0  0  0  0  0  0  0  0  # atno 6907 bound_to 6896
  152.5377  134.0315  159.8037 H   0  0  0  0  0  0  0  0  0  0  0  0  # atno 6908 bound_to 6896
  151.0525  133.5562  159.2672 H   0  0  0  0  0  0  0  0  0  0  0  0  # atno 6909 bound_to 6896
  146.1910  140.3869  142.8458 H   0  0  0  0  0  0  0  0  0  0  0  0  # atno 7974 bound_to 7965
  154.4859  140.2098  155.9656 H   0  0  0  0  0  0  0  0  0  0  0  0  # atno 8008 bound_to 7997
  156.1235  140.3209  155.8212 H   0  0  0  0  0  0  0  0  0  0  0  0  # atno 8009 bound_to 7997
  155.4425  140.0511  157.3000 H   0  0  0  0  0  0  0  0  0  0  0  0  # atno 8010 bound_to 7997
  139.6591  143.9945  152.2213 H   0  0  0  0  0  0  0  0  0  0  0  0  # atno 10167 bound_to 10162
  157.0510  130.6270  149.5768 H   0  0  0  0  0  0  0  0  0  0  0  0  # atno 10718 bound_to 10713
  154.8671  135.4162  154.2645 H   0  0  0  0  0  0  0  0  0  0  0  0  # atno 10763 bound_to 10752
  153.3566  135.7001  153.6751 H   0  0  0  0  0  0  0  0  0  0  0  0  # atno 10764 bound_to 10752
  153.5669  135.3599  155.2794 H   0  0  0  0  0  0  0  0  0  0  0  0  # atno 10765 bound_to 10752
  139.8771  134.9091  156.4592 H   0  0  0  0  0  0  0  0  0  0  0  0  # atno 11005 bound_to 11000
  144.8487  140.6968  143.6182 LP  0  0  0  0  0  0  0  0  0  0  0  0  # atno 17320 bound_to 7965
  145.3792  139.1641  143.4290 LP  0  0  0  0  0  0  0  0  0  0  0  0  # atno 17321 bound_to 7965
  139.9680  144.6513  150.8016 LP  0  0  0  0  0  0  0  0  0  0  0  0  # atno 17342 bound_to 10162
  140.7572  143.3081  151.2911 LP  0  0  0  0  0  0  0  0  0  0  0  0  # atno 17343 bound_to 10162
  156.0007  130.5086  150.7653 LP  0  0  0  0  0  0  0  0  0  0  0  0  # atno 17370 bound_to 10713
  157.5030  131.0920  151.0291 LP  0  0  0  0  0  0  0  0  0  0  0  0  # atno 17371 bound_to 10713
  140.8876  133.7871  155.9536 LP  0  0  0  0  0  0  0  0  0  0  0  0  # atno 17394 bound_to 11000
  140.8787  134.2637  157.5155 LP  0  0  0  0  0  0  0  0  0  0  0  0  # atno 17395 bound_to 11000

$$$$
