AV-unprocessed.smi:910|AV-procd|sdf|4120|dock1
  -GOLD-   22720 2 23D 1   1.00000     0.00000
 Structure written by MMmdl.
 46 47  0  0  0  0  0  0  0  0  1 V2000
  145.6930  131.9125  149.3919 C   0  0  0  0  0  0  0  0  0  0  0  0
  146.0813  132.7095  150.6180 C   0  0  0  0  0  0  0  0  0  0  0  0
  147.1229  132.3380  151.4241 N   0  0  0  0  0  0  0  0  0  0  0  0
  147.2297  133.2649  152.4495 C   0  0  0  0  0  0  0  0  0  0  0  0
  148.0875  133.2734  153.4226 N   0  0  0  0  0  0  0  0  0  0  0  0
  148.0515  134.2980  154.3570 C   0  0  0  0  0  0  0  0  0  0  0  0
  147.4399  135.3697  154.2994 O   0  0  0  0  0  0  0  0  0  0  0  0
  148.7935  133.9715  155.4255 N   0  0  0  0  0  0  0  0  0  0  0  0
  148.9585  134.7846  156.6263 C   0  0  0  0  0  0  0  0  0  0  0  0
  148.5092  134.0298  157.8856 C   0  0  0  0  0  0  0  0  0  0  0  0
  148.7759  134.8395  159.0214 O   0  0  0  0  0  0  0  0  0  0  0  0
  147.6840  134.9758  159.9219 C   0  0  2  0  0  0  0  0  0  0  0  0
  147.7061  136.3823  160.5564 C   0  0  0  0  0  0  0  0  0  0  0  0
  146.6303  136.5280  161.6425 C   0  0  0  0  0  0  0  0  0  0  0  0
  146.7791  135.4404  162.7155 C   0  0  0  0  0  0  0  0  0  0  0  0
  146.7463  134.0386  162.0882 C   0  0  0  0  0  0  0  0  0  0  0  0
  147.8237  133.8747  160.9972 C   0  0  1  0  0  0  0  0  0  0  0  0
  147.7623  132.4673  160.3801 C   0  0  0  0  0  0  0  0  0  0  0  0
  146.2324  134.1901  152.2416 O   0  0  0  0  0  0  0  0  0  0  0  0
  145.5534  133.8235  151.1196 C   0  0  0  0  0  0  0  0  0  0  0  0
  144.3984  134.6835  150.6583 C   0  0  0  0  0  0  0  0  0  0  0  0
  145.7672  132.5341  148.4993 H   0  0  0  0  0  0  0  0  0  0  0  0
  144.6659  131.5584  149.4813 H   0  0  0  0  0  0  0  0  0  0  0  0
  146.3450  131.0480  149.2642 H   0  0  0  0  0  0  0  0  0  0  0  0
  147.6920  131.5206  151.2587 H   0  0  0  0  0  0  0  0  0  0  0  0
  149.2640  133.0781  155.4160 H   0  0  0  0  0  0  0  0  0  0  0  0
  150.0097  135.0600  156.7140 H   0  0  0  0  0  0  0  0  0  0  0  0
  148.4013  135.7171  156.5244 H   0  0  0  0  0  0  0  0  0  0  0  0
  147.4438  133.8086  157.8208 H   0  0  0  0  0  0  0  0  0  0  0  0
  149.0347  133.0767  157.9605 H   0  0  0  0  0  0  0  0  0  0  0  0
  146.7382  134.8248  159.3977 H   0  0  0  0  0  0  0  0  0  0  0  0
  148.6884  136.5707  160.9918 H   0  0  0  0  0  0  0  0  0  0  0  0
  147.5543  137.1481  159.7961 H   0  0  0  0  0  0  0  0  0  0  0  0
  146.6960  137.5150  162.1011 H   0  0  0  0  0  0  0  0  0  0  0  0
  145.6408  136.4620  161.1884 H   0  0  0  0  0  0  0  0  0  0  0  0
  147.7187  135.5797  163.2521 H   0  0  0  0  0  0  0  0  0  0  0  0
  145.9831  135.5359  163.4545 H   0  0  0  0  0  0  0  0  0  0  0  0
  146.8879  133.2889  162.8673 H   0  0  0  0  0  0  0  0  0  0  0  0
  145.7590  133.8561  161.6617 H   0  0  0  0  0  0  0  0  0  0  0  0
  148.7997  133.9866  161.4724 H   0  0  0  0  0  0  0  0  0  0  0  0
  146.8109  132.2968  159.8752 H   0  0  0  0  0  0  0  0  0  0  0  0
  147.8756  131.6988  161.1451 H   0  0  0  0  0  0  0  0  0  0  0  0
  148.5569  132.3177  159.6484 H   0  0  0  0  0  0  0  0  0  0  0  0
  143.7702  134.1415  149.9511 H   0  0  0  0  0  0  0  0  0  0  0  0
  144.7715  135.5845  150.1715 H   0  0  0  0  0  0  0  0  0  0  0  0
  143.7841  134.9789  151.5090 H   0  0  0  0  0  0  0  0  0  0  0  0
  1 22  1  0  0  0  0
  1 23  1  0  0  0  0
  1 24  1  0  0  0  0
  1  2  1  0  0  0  0
  2  3  1  0  0  0  0
  2 20  2  0  0  0  0
  3 25  1  0  0  0  0
  3  4  1  0  0  0  0
  4 19  1  0  0  0  0
  4  5  2  0  0  0  0
  5  6  1  0  0  0  0
  6  8  1  0  0  0  0
  6  7  2  0  0  0  0
  8  9  1  0  0  0  0
  8 26  1  0  0  0  0
  9 10  1  0  0  0  0
  9 27  1  0  0  0  0
  9 28  1  0  0  0  0
 10 11  1  0  0  0  0
 10 29  1  0  0  0  0
 10 30  1  0  0  0  0
 11 12  1  0  0  0  0
 12 17  1  0  0  0  0
 12 13  1  0  0  0  0
 12 31  1  0  0  0  0
 13 14  1  0  0  0  0
 13 32  1  0  0  0  0
 13 33  1  0  0  0  0
 14 15  1  0  0  0  0
 14 34  1  0  0  0  0
 14 35  1  0  0  0  0
 15 16  1  0  0  0  0
 15 36  1  0  0  0  0
 15 37  1  0  0  0  0
 16 17  1  0  0  0  0
 16 38  1  0  0  0  0
 16 39  1  0  0  0  0
 17 18  1  0  0  0  0
 17 40  1  0  0  0  0
 18 41  1  0  0  0  0
 18 42  1  0  0  0  0
 18 43  1  0  0  0  0
 19 20  1  0  0  0  0
 20 21  1  0  0  0  0
 21 44  1  0  0  0  0
 21 45  1  0  0  0  0
 21 46  1  0  0  0  0
M  END
> <s_m_source_file>
AV-unprocessed.smi

> <i_m_source_file_index>
910

> <i_lp_mmshare_version>
43012

> <i_f3d_flags>
0

> <s_epik_input>
W0NIM11jMW5jKG9jMVtDSDNdKVtOSF1DKD1PKVtOSF1bQ0gyXVtDSDJdT1tDQEBIXTJbQ0gyXVtDSDJdW0NIMl1bQ0gyXVtDQEhdMltDSDNd

> <s_epik_cmdline>
J2VwaWtfcHl0aG9uJywgJy1waCcsICc3LjAnLCAnLXRuJywgJzgnLCAnLW1hJywgJzIwMCcsICctbWV0YWxfYmluZGluZycsICctaW1hZScsICc8aW5maWxlLm1hZT4nLCAnLW9tYWUnLCAnPG91dGZpbGUubWFlPic=

> <r_lp_tautomer_probability>
0.107061

> <r_epik_Ionization_Penalty>
0.727192

> <r_epik_Ionization_Penalty_Charging>
0.726719

> <r_epik_Ionization_Penalty_Neutral>
0.000473387

> <r_epik_State_Penalty>
2.53712

> <r_epik_Charging_Adjusted_Penalty>
3.26383

> <i_epik_Tot_Q>
0

> <i_epik_Tot_abs_Q>
0

> <r_epik_Metal_State_Penalty>
3.71015

> <b_epik_Metal_Only>
0

> <s_lp_Force_Field>
OPLS_2005

> <r_lp_Energy>
30.8071

> <b_lp_Chiralities_Consistent>
1

> <s_lp_Variant>
AV-unprocessed.smi:910-5

> <Gold.Version>
5.8.1

> <Gold.Id.Protein>
6NUR|6NUR_protein|mol2

> <Gold.PLP.Fitness>
40.3148

> <Gold.PLP.PLP>
-36.1852

> <Gold.PLP.part.hbond>
-2.0000

> <Gold.PLP.part.metal>
0.0000

> <Gold.PLP.part.buried>
-5.1693

> <Gold.PLP.part.nonpolar>
-29.4372

> <Gold.PLP.part.repulsive>
1.4713

> <Gold.PLP.ligand.clash>
0.0000

> <Gold.PLP.ligand.torsion>
0.8300

> <Gold.PLP.Chemscore.Hbond>
1.9120

> <Gold.PLP.Chemscore.CHOScore>
0.0000

> <Gold.PLP.Chemscore.Metal>
0.0000

> <Gold.Chemscore.Hbonds>
donor molecule, donor type, donor heavy atom, donor atom, acceptor molecule, acceptor atom, score
      L1  H     3    25       P1 10747  0.90
      P1  H  6896  6908       L1    11  0.95

> <Gold.PLP.Chemscore.Internal.Correction>
0.0536

> <Gold.Rescore>
     Score         DG    S(hbond)    S(metal)    S(lipo)     H(rot)  DE(clash)    DE(int)     intcor
     14.94     -17.46       1.96        0.00      82.74       1.66       0.02       2.51       ----

> <Gold.Chemscore.Fitness>
14.9350

> <Gold.Chemscore.DG>
-17.4633

> <Gold.Chemscore.ZeroCoef>
-5.4800

> <Gold.Chemscore.Hbond>
1.9599

> <Gold.Chemscore.Metal>
0.0000

> <Gold.Chemscore.Lipo>
82.7410

> <Gold.Chemscore.Internal_Hbond>
0.0000

> <Gold.Chemscore.DEClash>
0.0195

> <Gold.Chemscore.DEInternal>
2.5087

> <Gold.Chemscore.Rot>
1.6576

> <Gold.Chemscore.Internal.Correction>
   9.000000E+99

> <Gold.Chemscore.Hbonds>
donor molecule, donor type, donor heavy atom, donor atom, acceptor molecule, acceptor atom, score
      L1  H     3    25       P1 10747  0.87
      P1  H  6896  6908       L1    11  0.21

> <Gold.Chemscore.Hbond.Weighted>
-6.5462

> <Gold.Chemscore.Metal.Weighted>
-0.0000

> <Gold.Chemscore.Lipo.Weighted>
-9.6807

> <Gold.Chemscore.Internal_Hbond.Weighted>
0.0000

> <Gold.Chemscore.DEClash.Weighted>
0.0195

> <Gold.Chemscore.DEInternal.Weighted>
2.5087

> <Gold.Chemscore.Rot.Weighted>
4.2436

> <Gold.Chemscore.Internal.Correction.Weighted>
   9.000000E+99

> <Gold.Protein.RotatedTorsions>
[ 6907 6896 6895 6894 ] final  146.14 input  -60.11 | X-H torsion
[ 7974 7965 7964 7962 ] final -175.80 input  175.53 | X-H torsion
[ 8008 7997 7996 7995 ] final  -26.39 input   59.86 | X-H torsion
[ 10167 10162 10161 10158 ] final  130.37 input  -65.29 | X-H torsion
[ 10718 10713 10712 10709 ] final -108.04 input   66.30 | X-H torsion
[ 10763 10752 10751 10750 ] final  178.90 input  -60.55 | X-H torsion
[ 11005 11000 10999 10996 ] final -101.55 input  -57.11 | X-H torsion

> <Gold.Protein.ActiveResidues>
 VAL166  LYS551  ARG553  GLY616  TRP617  ASP618  TYR619  PRO620  LYS621  CYS622 
 ASP623  PHE694  ASN695  SER759  ASP760  ASP761  ALA762  ILE779  LEU786  VAL792 
 PHE793  MET794  SER795  GLU796  ALA797  LYS798  CYS799  TRP800  GLU811  SER814 

> <Gold.Protein.RotatedAtoms>
  152.1718  133.4648  159.4912 H   0  0  0  0  0  0  0  0  0  0  0  0  # atno 6907 bound_to 6896
  150.6921  134.1944  159.4306 H   0  0  0  0  0  0  0  0  0  0  0  0  # atno 6908 bound_to 6896
  151.9851  135.0008  160.0610 H   0  0  0  0  0  0  0  0  0  0  0  0  # atno 6909 bound_to 6896
  144.7127  140.1266  143.6401 H   0  0  0  0  0  0  0  0  0  0  0  0  # atno 7974 bound_to 7965
  154.4428  140.1901  156.0768 H   0  0  0  0  0  0  0  0  0  0  0  0  # atno 8008 bound_to 7997
  156.0469  140.3313  155.7280 H   0  0  0  0  0  0  0  0  0  0  0  0  # atno 8009 bound_to 7997
  155.5615  140.0604  157.2818 H   0  0  0  0  0  0  0  0  0  0  0  0  # atno 8010 bound_to 7997
  139.5433  144.6751  151.4553 H   0  0  0  0  0  0  0  0  0  0  0  0  # atno 10167 bound_to 10162
  156.0466  130.5693  150.7906 H   0  0  0  0  0  0  0  0  0  0  0  0  # atno 10718 bound_to 10713
  154.5136  135.2790  155.1321 H   0  0  0  0  0  0  0  0  0  0  0  0  # atno 10763 bound_to 10752
  154.2907  135.6267  153.5388 H   0  0  0  0  0  0  0  0  0  0  0  0  # atno 10764 bound_to 10752
  152.9923  135.5673  154.5608 H   0  0  0  0  0  0  0  0  0  0  0  0  # atno 10765 bound_to 10752
  141.1226  133.8487  157.1247 H   0  0  0  0  0  0  0  0  0  0  0  0  # atno 11005 bound_to 11000
  145.9323  139.2614  143.1317 LP  0  0  0  0  0  0  0  0  0  0  0  0  # atno 17320 bound_to 7965
  145.9509  140.8909  143.0259 LP  0  0  0  0  0  0  0  0  0  0  0  0  # atno 17321 bound_to 7965
  140.6672  143.8372  150.6956 LP  0  0  0  0  0  0  0  0  0  0  0  0  # atno 17342 bound_to 10162
  140.1785  143.4135  152.1950 LP  0  0  0  0  0  0  0  0  0  0  0  0  # atno 17343 bound_to 10162
  157.5348  131.0938  150.9907 LP  0  0  0  0  0  0  0  0  0  0  0  0  # atno 17370 bound_to 10713
  157.0205  130.5672  149.5331 LP  0  0  0  0  0  0  0  0  0  0  0  0  # atno 17371 bound_to 10713
  140.0196  134.9952  157.0564 LP  0  0  0  0  0  0  0  0  0  0  0  0  # atno 17394 bound_to 11000
  140.4462  134.1629  155.7177 LP  0  0  0  0  0  0  0  0  0  0  0  0  # atno 17395 bound_to 11000

$$$$
