AV-unprocessed.smi:1982|AV-procd|sdf|8022|dock5
  -GOLD-   2272010213D 1   1.00000     0.00000
 Structure written by MMmdl.
 36 37  0  0  0  0  0  0  0  0  1 V2000
  152.7446  142.7502  162.2066 C   0  0  0  0  0  0  0  0  0  0  0  0
  152.7427  143.2775  160.7597 C   0  0  2  0  0  0  0  0  0  0  0  0
  151.8825  144.5548  160.6788 C   0  0  0  0  0  0  0  0  0  0  0  0
  151.8673  145.1451  159.2645 C   0  0  0  0  0  0  0  0  0  0  0  0
  151.3587  144.1116  158.2551 C   0  0  0  0  0  0  0  0  0  0  0  0
  152.2049  142.8259  158.2971 C   0  0  2  0  0  0  0  0  0  0  0  0
  151.6483  141.8536  157.3604 N   0  0  0  0  0  0  0  0  0  0  0  0
  150.4495  141.2587  157.4641 C   0  0  0  0  0  0  0  0  0  0  0  0
  149.6969  141.4065  158.4261 O   0  0  0  0  0  0  0  0  0  0  0  0
  150.0300  140.3658  156.2950 C   0  0  0  0  0  0  0  0  0  0  0  0
  151.1737  139.6690  155.7332 N   0  0  0  0  0  0  0  0  0  0  0  0
  151.4001  138.3680  155.5384 C   0  0  0  0  0  0  0  0  0  0  0  0
  152.5764  138.1568  154.9683 N   0  0  0  0  0  0  0  0  0  0  0  0
  153.0869  139.4350  154.8166 N   0  0  0  0  0  0  0  0  0  0  0  0
  152.2594  140.3364  155.2690 N   0  0  0  0  0  0  0  0  0  0  0  0
  152.2708  142.2174  159.7243 C   0  0  1  0  0  0  0  0  0  0  0  0
  153.1553  140.9504  159.7453 C   0  0  0  0  0  0  0  0  0  0  0  0
  151.7641  142.3674  162.4911 H   0  0  0  0  0  0  0  0  0  0  0  0
  153.0071  143.5403  162.9108 H   0  0  0  0  0  0  0  0  0  0  0  0
  153.4722  141.9522  162.3490 H   0  0  0  0  0  0  0  0  0  0  0  0
  153.7682  143.5568  160.5126 H   0  0  0  0  0  0  0  0  0  0  0  0
  150.8610  144.3326  160.9907 H   0  0  0  0  0  0  0  0  0  0  0  0
  152.2597  145.3043  161.3755 H   0  0  0  0  0  0  0  0  0  0  0  0
  151.2355  146.0333  159.2381 H   0  0  0  0  0  0  0  0  0  0  0  0
  152.8715  145.4689  158.9881 H   0  0  0  0  0  0  0  0  0  0  0  0
  150.3152  143.8769  158.4707 H   0  0  0  0  0  0  0  0  0  0  0  0
  151.3781  144.5417  157.2529 H   0  0  0  0  0  0  0  0  0  0  0  0
  153.2241  143.0755  157.9944 H   0  0  0  0  0  0  0  0  0  0  0  0
  152.1979  141.6598  156.5354 H   0  0  0  0  0  0  0  0  0  0  0  0
  149.2873  139.6410  156.6319 H   0  0  0  0  0  0  0  0  0  0  0  0
  149.5672  140.9651  155.5101 H   0  0  0  0  0  0  0  0  0  0  0  0
  150.7049  137.5847  155.8021 H   0  0  0  0  0  0  0  0  0  0  0  0
  151.2598  141.9132  160.0013 H   0  0  0  0  0  0  0  0  0  0  0  0
  154.1948  141.1916  159.5214 H   0  0  0  0  0  0  0  0  0  0  0  0
  152.8262  140.2093  159.0168 H   0  0  0  0  0  0  0  0  0  0  0  0
  153.1289  140.4523  160.7137 H   0  0  0  0  0  0  0  0  0  0  0  0
  1  2  1  0  0  0  0
  1 18  1  0  0  0  0
  1 19  1  0  0  0  0
  1 20  1  0  0  0  0
  2 16  1  0  0  0  0
  2  3  1  0  0  0  0
  2 21  1  0  0  0  0
  3  4  1  0  0  0  0
  3 22  1  0  0  0  0
  3 23  1  0  0  0  0
  4  5  1  0  0  0  0
  4 24  1  0  0  0  0
  4 25  1  0  0  0  0
  5  6  1  0  0  0  0
  5 26  1  0  0  0  0
  5 27  1  0  0  0  0
  6  7  1  0  0  0  0
  6 16  1  0  0  0  0
  6 28  1  0  0  0  0
  7  8  1  0  0  0  0
  7 29  1  0  0  0  0
  8  9  2  0  0  0  0
  8 10  1  0  0  0  0
 10 11  1  0  0  0  0
 10 30  1  0  0  0  0
 10 31  1  0  0  0  0
 11 15  1  0  0  0  0
 11 12  1  0  0  0  0
 12 13  2  0  0  0  0
 12 32  1  0  0  0  0
 13 14  1  0  0  0  0
 14 15  2  0  0  0  0
 16 17  1  0  0  0  0
 16 33  1  0  0  0  0
 17 34  1  0  0  0  0
 17 35  1  0  0  0  0
 17 36  1  0  0  0  0
M  END
> <s_m_source_file>
AV-unprocessed.smi

> <i_m_source_file_index>
1982

> <i_lp_mmshare_version>
43012

> <i_f3d_flags>
0

> <s_epik_input>
W0NIM11bQ0BASF0xW0NIMl1bQ0gyXVtDSDJdW0NASF0oW0NASF0xW0NIM10pW05IXUMoPU8pW0NIMl1uMltjSF1ubm4y

> <s_epik_cmdline>
J2VwaWtfcHl0aG9uJywgJy1waCcsICc3LjAnLCAnLXRuJywgJzgnLCAnLW1hJywgJzIwMCcsICctbWV0YWxfYmluZGluZycsICctaW1hZScsICc8aW5maWxlLm1hZT4nLCAnLW9tYWUnLCAnPG91dGZpbGUubWFlPic=

> <r_lp_tautomer_probability>
1

> <r_epik_Ionization_Penalty>
5.03816e-07

> <r_epik_Ionization_Penalty_Charging>
0

> <r_epik_Ionization_Penalty_Neutral>
5.03816e-07

> <r_epik_State_Penalty>
-0

> <r_epik_Charging_Adjusted_Penalty>
0

> <i_epik_Tot_Q>
0

> <i_epik_Tot_abs_Q>
0

> <r_epik_Metal_State_Penalty>
-0

> <b_epik_Metal_Only>
0

> <s_lp_Force_Field>
OPLS_2005

> <r_lp_Energy>
13.7929

> <b_lp_Chiralities_Consistent>
1

> <s_lp_Variant>
AV-unprocessed.smi:1982-3

> <Gold.Version>
5.8.1

> <Gold.Id.Protein>
6NUR|6NUR_protein|mol2

> <Gold.PLP.Fitness>
41.3633

> <Gold.PLP.PLP>
-38.5049

> <Gold.PLP.part.hbond>
-3.5117

> <Gold.PLP.part.metal>
0.0000

> <Gold.PLP.part.buried>
-3.6859

> <Gold.PLP.part.nonpolar>
-31.6344

> <Gold.PLP.part.repulsive>
0.1669

> <Gold.PLP.ligand.clash>
0.0000

> <Gold.PLP.ligand.torsion>
0.3839

> <Gold.PLP.Chemscore.Hbond>
1.2060

> <Gold.PLP.Chemscore.CHOScore>
0.0000

> <Gold.PLP.Chemscore.Metal>
0.0000

> <Gold.Chemscore.Hbonds>
donor molecule, donor type, donor heavy atom, donor atom, acceptor molecule, acceptor atom, score
      P1  H  7989  7998       L1    15  0.41
      P1  H  7997  8010       L1    14  0.75

> <Gold.PLP.Chemscore.Internal.Correction>
0.0082

> <Gold.Rescore>
     Score         DG    S(hbond)    S(metal)    S(lipo)     H(rot)  DE(clash)    DE(int)     intcor
     11.97     -14.73       0.82        0.00      97.24       1.91       0.32       2.45       ----

> <Gold.Chemscore.Fitness>
11.9679

> <Gold.Chemscore.DG>
-14.7287

> <Gold.Chemscore.ZeroCoef>
-5.4800

> <Gold.Chemscore.Hbond>
0.8233

> <Gold.Chemscore.Metal>
0.0000

> <Gold.Chemscore.Lipo>
97.2448

> <Gold.Chemscore.Internal_Hbond>
0.0000

> <Gold.Chemscore.DEClash>
0.3154

> <Gold.Chemscore.DEInternal>
2.4453

> <Gold.Chemscore.Rot>
1.9058

> <Gold.Chemscore.Internal.Correction>
   9.000000E+99

> <Gold.Chemscore.Hbonds>
donor molecule, donor type, donor heavy atom, donor atom, acceptor molecule, acceptor atom, score
      P1  H  7989  7998       L1    15  0.02
      P1  H  7997  8010       L1    14  0.09

> <Gold.Chemscore.Hbond.Weighted>
-2.7499

> <Gold.Chemscore.Metal.Weighted>
-0.0000

> <Gold.Chemscore.Lipo.Weighted>
-11.3776

> <Gold.Chemscore.Internal_Hbond.Weighted>
0.0000

> <Gold.Chemscore.DEClash.Weighted>
0.3154

> <Gold.Chemscore.DEInternal.Weighted>
2.4453

> <Gold.Chemscore.Rot.Weighted>
4.8788

> <Gold.Chemscore.Internal.Correction.Weighted>
   9.000000E+99

> <Gold.Protein.RotatedTorsions>
[ 6907 6896 6895 6894 ] final    1.98 input  -60.11 | X-H torsion
[ 7974 7965 7964 7962 ] final  129.49 input  175.53 | X-H torsion
[ 8008 7997 7996 7995 ] final  126.04 input   59.86 | X-H torsion
[ 10167 10162 10161 10158 ] final -171.19 input  -65.29 | X-H torsion
[ 10718 10713 10712 10709 ] final   25.52 input   66.30 | X-H torsion
[ 10763 10752 10751 10750 ] final    3.28 input  -60.55 | X-H torsion
[ 11005 11000 10999 10996 ] final -102.82 input  -57.11 | X-H torsion

> <Gold.Protein.ActiveResidues>
 VAL166  LYS551  ARG553  GLY616  TRP617  ASP618  TYR619  PRO620  LYS621  CYS622 
 ASP623  PHE694  ASN695  SER759  ASP760  ASP761  ALA762  ILE779  LEU786  VAL792 
 PHE793  MET794  SER795  GLU796  ALA797  LYS798  CYS799  TRP800  GLU811  SER814 

> <Gold.Protein.RotatedAtoms>
  151.6015  135.1047  160.0060 H   0  0  0  0  0  0  0  0  0  0  0  0  # atno 6907 bound_to 6896
  152.4255  133.7184  159.6530 H   0  0  0  0  0  0  0  0  0  0  0  0  # atno 6908 bound_to 6896
  150.8144  133.8291  159.3189 H   0  0  0  0  0  0  0  0  0  0  0  0  # atno 6909 bound_to 6896
  145.0281  139.4071  143.5163 H   0  0  0  0  0  0  0  0  0  0  0  0  # atno 7974 bound_to 7965
  156.2852  140.2702  156.2046 H   0  0  0  0  0  0  0  0  0  0  0  0  # atno 8008 bound_to 7997
  155.0326  140.0386  157.2498 H   0  0  0  0  0  0  0  0  0  0  0  0  # atno 8009 bound_to 7997
  154.7341  140.2712  155.6435 H   0  0  0  0  0  0  0  0  0  0  0  0  # atno 8010 bound_to 7997
  139.5817  144.1408  152.1523 H   0  0  0  0  0  0  0  0  0  0  0  0  # atno 10167 bound_to 10162
  157.1945  130.6861  149.6163 H   0  0  0  0  0  0  0  0  0  0  0  0  # atno 10718 bound_to 10713
  153.2853  135.6944  153.7345 H   0  0  0  0  0  0  0  0  0  0  0  0  # atno 10763 bound_to 10752
  153.6317  135.3409  155.3044 H   0  0  0  0  0  0  0  0  0  0  0  0  # atno 10764 bound_to 10752
  154.8508  135.4410  154.1919 H   0  0  0  0  0  0  0  0  0  0  0  0  # atno 10765 bound_to 10752
  141.1172  133.8590  157.1409 H   0  0  0  0  0  0  0  0  0  0  0  0  # atno 11005 bound_to 11000
  146.3495  139.9816  142.8695 LP  0  0  0  0  0  0  0  0  0  0  0  0  # atno 17320 bound_to 7965
  145.1807  140.9765  143.4268 LP  0  0  0  0  0  0  0  0  0  0  0  0  # atno 17321 bound_to 7965
  140.0963  144.5578  150.7020 LP  0  0  0  0  0  0  0  0  0  0  0  0  # atno 17342 bound_to 10162
  140.7094  143.2493  151.4626 LP  0  0  0  0  0  0  0  0  0  0  0  0  # atno 17343 bound_to 10162
  155.9707  130.4603  150.6069 LP  0  0  0  0  0  0  0  0  0  0  0  0  # atno 17370 bound_to 10713
  157.3828  131.0783  151.1462 LP  0  0  0  0  0  0  0  0  0  0  0  0  # atno 17371 bound_to 10713
  140.0103  134.9991  157.0381 LP  0  0  0  0  0  0  0  0  0  0  0  0  # atno 17394 bound_to 11000
  140.4611  134.1483  155.7191 LP  0  0  0  0  0  0  0  0  0  0  0  0  # atno 17395 bound_to 11000

$$$$
