AV-unprocessed.smi:2855|AV-procd|sdf|10977|dock4
  -GOLD-   2272015433D 1   1.00000     0.00000
 Structure written by MMmdl.
 47 48  0  0  0  0  0  0  0  0  1 V2000
  148.0608  139.2554  153.9960 C   0  0  0  0  0  0  0  0  0  0  0  0
  148.9015  139.8206  155.1498 C   0  0  2  0  0  0  0  0  0  0  0  0
  148.4295  141.2256  155.5550 C   0  0  0  0  0  0  0  0  0  0  0  0
  149.2675  141.7982  156.7090 C   0  0  0  0  0  0  0  0  0  0  0  0
  150.7808  141.8457  156.3780 C   0  0  1  0  0  0  0  0  0  0  0  0
  151.6254  142.4561  157.5406 C   0  0  0  0  0  0  0  0  0  0  0  0
  151.2111  141.9121  158.9214 C   0  0  0  0  0  0  0  0  0  0  0  0
  151.5662  143.9958  157.5785 C   0  0  0  0  0  0  0  0  0  0  0  0
  151.2660  140.4390  155.9247 C   0  0  1  0  0  0  0  0  0  0  0  0
  151.3239  139.5163  157.0583 N   0  0  0  0  0  0  0  0  0  0  0  0
  152.3578  138.7227  157.3740 C   0  0  0  0  0  0  0  0  0  0  0  0
  153.3751  138.6257  156.6869 O   0  0  0  0  0  0  0  0  0  0  0  0
  152.2152  137.9067  158.6646 C   0  0  0  0  0  0  0  0  0  0  0  0
  153.0233  138.4612  159.7595 N   0  0  0  0  0  0  0  0  0  0  0  0
  153.1881  139.8331  159.8875 C   0  0  0  0  0  0  0  0  0  0  0  0
  153.9099  140.4078  160.8788 C   0  0  0  0  0  0  0  0  0  0  0  0
  154.5659  139.5836  161.8884 C   0  0  0  0  0  0  0  0  0  0  0  0
  155.2404  140.0102  162.8227 O   0  0  0  0  0  0  0  0  0  0  0  0
  154.3749  138.2086  161.7269 N   0  0  0  0  0  0  0  0  0  0  0  0
  153.6320  137.6097  160.7084 C   0  0  0  0  0  0  0  0  0  0  0  0
  153.5238  136.3846  160.6600 O   0  0  0  0  0  0  0  0  0  0  0  0
  150.3978  139.8548  154.7919 C   0  0  0  0  0  0  0  0  0  0  0  0
  154.8084  137.5982  162.4042 H   0  0  0  0  0  0  0  0  0  0  0  0
  148.1443  139.8754  153.1030 H   0  0  0  0  0  0  0  0  0  0  0  0
  147.0063  139.2033  154.2678 H   0  0  0  0  0  0  0  0  0  0  0  0
  148.3830  138.2476  153.7324 H   0  0  0  0  0  0  0  0  0  0  0  0
  148.7675  139.1576  156.0057 H   0  0  0  0  0  0  0  0  0  0  0  0
  148.4884  141.8972  154.6972 H   0  0  0  0  0  0  0  0  0  0  0  0
  147.3798  141.1942  155.8493 H   0  0  0  0  0  0  0  0  0  0  0  0
  148.8889  142.7955  156.9266 H   0  0  0  0  0  0  0  0  0  0  0  0
  149.1024  141.2053  157.6096 H   0  0  0  0  0  0  0  0  0  0  0  0
  150.8965  142.5078  155.5184 H   0  0  0  0  0  0  0  0  0  0  0  0
  152.6700  142.1796  157.3920 H   0  0  0  0  0  0  0  0  0  0  0  0
  150.1465  142.0617  159.1037 H   0  0  0  0  0  0  0  0  0  0  0  0
  151.7559  142.4147  159.7211 H   0  0  0  0  0  0  0  0  0  0  0  0
  151.4266  140.8495  159.0250 H   0  0  0  0  0  0  0  0  0  0  0  0
  150.5380  144.3514  157.6518 H   0  0  0  0  0  0  0  0  0  0  0  0
  152.0169  144.4457  156.6946 H   0  0  0  0  0  0  0  0  0  0  0  0
  152.1139  144.3888  158.4352 H   0  0  0  0  0  0  0  0  0  0  0  0
  152.2687  140.5515  155.5104 H   0  0  0  0  0  0  0  0  0  0  0  0
  150.5277  139.5176  157.6793 H   0  0  0  0  0  0  0  0  0  0  0  0
  151.1679  137.8477  158.9692 H   0  0  0  0  0  0  0  0  0  0  0  0
  152.5114  136.8793  158.4488 H   0  0  0  0  0  0  0  0  0  0  0  0
  152.7163  140.4839  159.1650 H   0  0  0  0  0  0  0  0  0  0  0  0
  154.0010  141.4833  160.9262 H   0  0  0  0  0  0  0  0  0  0  0  0
  150.7449  138.8526  154.5368 H   0  0  0  0  0  0  0  0  0  0  0  0
  150.5374  140.4584  153.8941 H   0  0  0  0  0  0  0  0  0  0  0  0
  1  2  1  0  0  0  0
  1 24  1  0  0  0  0
  1 25  1  0  0  0  0
  1 26  1  0  0  0  0
  2 22  1  0  0  0  0
  2  3  1  0  0  0  0
  2 27  1  0  0  0  0
  3  4  1  0  0  0  0
  3 28  1  0  0  0  0
  3 29  1  0  0  0  0
  4  5  1  0  0  0  0
  4 30  1  0  0  0  0
  4 31  1  0  0  0  0
  5  6  1  0  0  0  0
  5  9  1  0  0  0  0
  5 32  1  0  0  0  0
  6  7  1  0  0  0  0
  6  8  1  0  0  0  0
  6 33  1  0  0  0  0
  7 34  1  0  0  0  0
  7 35  1  0  0  0  0
  7 36  1  0  0  0  0
  8 37  1  0  0  0  0
  8 38  1  0  0  0  0
  8 39  1  0  0  0  0
  9 10  1  0  0  0  0
  9 22  1  0  0  0  0
  9 40  1  0  0  0  0
 10 11  1  0  0  0  0
 10 41  1  0  0  0  0
 11 12  2  0  0  0  0
 11 13  1  0  0  0  0
 13 14  1  0  0  0  0
 13 42  1  0  0  0  0
 13 43  1  0  0  0  0
 14 20  1  0  0  0  0
 14 15  1  0  0  0  0
 15 16  2  0  0  0  0
 15 44  1  0  0  0  0
 16 17  1  0  0  0  0
 16 45  1  0  0  0  0
 17 18  2  0  0  0  0
 17 19  1  0  0  0  0
 19 23  1  0  0  0  0
 19 20  1  0  0  0  0
 20 21  2  0  0  0  0
 22 46  1  0  0  0  0
 22 47  1  0  0  0  0
M  END
> <s_m_source_file>
AV-unprocessed.smi

> <i_m_source_file_index>
2855

> <i_lp_mmshare_version>
43012

> <i_f3d_flags>
0

> <s_epik_input>
W0NIM11bQ0BASF0xW0NIMl1bQ0gyXVtDQEBIXShbQ0hdKFtDSDNdKVtDSDNdKVtDQEhdKFtDSDJdMSlbTkhdQyg9TylbQ0gyXW4yW2NIXVtjSF1jKD1PKVtuSF1jMj1P

> <s_epik_cmdline>
J2VwaWtfcHl0aG9uJywgJy1waCcsICc3LjAnLCAnLXRuJywgJzgnLCAnLW1hJywgJzIwMCcsICctbWV0YWxfYmluZGluZycsICctaW1hZScsICc8aW5maWxlLm1hZT4nLCAnLW9tYWUnLCAnPG91dGZpbGUubWFlPic=

> <r_lp_tautomer_probability>
0.999537

> <r_epik_Ionization_Penalty>
0.00306256

> <r_epik_Ionization_Penalty_Charging>
0.00306254

> <r_epik_Ionization_Penalty_Neutral>
2.0223e-08

> <r_epik_State_Penalty>
0.0021533

> <r_epik_Charging_Adjusted_Penalty>
0.00521583

> <i_epik_Tot_Q>
0

> <i_epik_Tot_abs_Q>
0

> <r_epik_Metal_State_Penalty>
0.362116

> <b_epik_Metal_Only>
0

> <s_lp_Force_Field>
OPLS_2005

> <r_lp_Energy>
12.8991

> <b_lp_Chiralities_Consistent>
1

> <s_lp_Variant>
AV-unprocessed.smi:2855-1

> <Gold.Version>
5.8.1

> <Gold.Id.Protein>
6NUR|6NUR_protein|mol2

> <Gold.PLP.Fitness>
37.8184

> <Gold.PLP.PLP>
-34.0419

> <Gold.PLP.part.hbond>
-1.9833

> <Gold.PLP.part.metal>
0.0000

> <Gold.PLP.part.buried>
-3.5658

> <Gold.PLP.part.nonpolar>
-28.8817

> <Gold.PLP.part.repulsive>
0.0629

> <Gold.PLP.ligand.clash>
0.0000

> <Gold.PLP.ligand.torsion>
1.0992

> <Gold.PLP.Chemscore.Hbond>
1.9760

> <Gold.PLP.Chemscore.CHOScore>
0.0000

> <Gold.PLP.Chemscore.Metal>
0.0000

> <Gold.Chemscore.Hbonds>
donor molecule, donor type, donor heavy atom, donor atom, acceptor molecule, acceptor atom, score
      P1  H  6896  6909       L1    21  0.98
      P1  H  7997  8010       L1    12  0.99

> <Gold.PLP.Chemscore.Internal.Correction>
0.0468

> <Gold.Rescore>
     Score         DG    S(hbond)    S(metal)    S(lipo)     H(rot)  DE(clash)    DE(int)     intcor
     16.15     -17.71       1.95        0.00      89.44       1.85       0.34       1.21       ----

> <Gold.Chemscore.Fitness>
16.1514

> <Gold.Chemscore.DG>
-17.7050

> <Gold.Chemscore.ZeroCoef>
-5.4800

> <Gold.Chemscore.Hbond>
1.9481

> <Gold.Chemscore.Metal>
0.0000

> <Gold.Chemscore.Lipo>
89.4398

> <Gold.Chemscore.Internal_Hbond>
0.0000

> <Gold.Chemscore.DEClash>
0.3448

> <Gold.Chemscore.DEInternal>
1.2088

> <Gold.Chemscore.Rot>
1.8539

> <Gold.Chemscore.Internal.Correction>
   9.000000E+99

> <Gold.Chemscore.Hbonds>
donor molecule, donor type, donor heavy atom, donor atom, acceptor molecule, acceptor atom, score
      P1  H  6896  6909       L1    21  0.91
      P1  H  7997  8010       L1    12  0.89

> <Gold.Chemscore.Hbond.Weighted>
-6.5066

> <Gold.Chemscore.Metal.Weighted>
-0.0000

> <Gold.Chemscore.Lipo.Weighted>
-10.4645

> <Gold.Chemscore.Internal_Hbond.Weighted>
0.0000

> <Gold.Chemscore.DEClash.Weighted>
0.3448

> <Gold.Chemscore.DEInternal.Weighted>
1.2088

> <Gold.Chemscore.Rot.Weighted>
4.7460

> <Gold.Chemscore.Internal.Correction.Weighted>
   9.000000E+99

> <Gold.Protein.RotatedTorsions>
[ 6907 6896 6895 6894 ] final  164.99 input  -60.11 | X-H torsion
[ 7974 7965 7964 7962 ] final   96.41 input  175.53 | X-H torsion
[ 8008 7997 7996 7995 ] final   64.40 input   59.86 | X-H torsion
[ 10167 10162 10161 10158 ] final  -73.09 input  -65.29 | X-H torsion
[ 10718 10713 10712 10709 ] final -162.59 input   66.30 | X-H torsion
[ 10763 10752 10751 10750 ] final   -5.38 input  -60.55 | X-H torsion
[ 11005 11000 10999 10996 ] final  144.48 input  -57.11 | X-H torsion

> <Gold.Protein.ActiveResidues>
 VAL166  LYS551  ARG553  GLY616  TRP617  ASP618  TYR619  PRO620  LYS621  CYS622 
 ASP623  PHE694  ASN695  SER759  ASP760  ASP761  ALA762  ILE779  LEU786  VAL792 
 PHE793  MET794  SER795  GLU796  ALA797  LYS798  CYS799  TRP800  GLU811  SER814 

> <Gold.Protein.RotatedAtoms>
  151.9013  133.3539  159.3831 H   0  0  0  0  0  0  0  0  0  0  0  0  # atno 6907 bound_to 6896
  150.7079  134.4825  159.5486 H   0  0  0  0  0  0  0  0  0  0  0  0  # atno 6908 bound_to 6896
  152.2414  134.8225  160.0510 H   0  0  0  0  0  0  0  0  0  0  0  0  # atno 6909 bound_to 6896
  145.4392  139.2303  143.3101 H   0  0  0  0  0  0  0  0  0  0  0  0  # atno 7974 bound_to 7965
  155.6455  140.3497  155.4730 H   0  0  0  0  0  0  0  0  0  0  0  0  # atno 8008 bound_to 7997
  155.9891  140.1190  157.0678 H   0  0  0  0  0  0  0  0  0  0  0  0  # atno 8009 bound_to 7997
  154.4213  140.1123  156.5527 H   0  0  0  0  0  0  0  0  0  0  0  0  # atno 8010 bound_to 7997
  140.5138  143.2341  151.7547 H   0  0  0  0  0  0  0  0  0  0  0  0  # atno 10167 bound_to 10162
  156.6126  130.8857  151.2940 H   0  0  0  0  0  0  0  0  0  0  0  0  # atno 10718 bound_to 10713
  153.3977  135.7004  153.6449 H   0  0  0  0  0  0  0  0  0  0  0  0  # atno 10763 bound_to 10752
  153.4995  135.3655  155.2533 H   0  0  0  0  0  0  0  0  0  0  0  0  # atno 10764 bound_to 10752
  154.8708  135.4108  154.3306 H   0  0  0  0  0  0  0  0  0  0  0  0  # atno 10765 bound_to 10752
  140.0636  134.9191  157.1226 H   0  0  0  0  0  0  0  0  0  0  0  0  # atno 11005 bound_to 11000
  146.2565  140.5138  142.8871 LP  0  0  0  0  0  0  0  0  0  0  0  0  # atno 17320 bound_to 7965
  144.8132  140.6423  143.6401 LP  0  0  0  0  0  0  0  0  0  0  0  0  # atno 17321 bound_to 7965
  139.4903  144.4352  151.9827 LP  0  0  0  0  0  0  0  0  0  0  0  0  # atno 17342 bound_to 10162
  140.3446  144.3163  150.5960 LP  0  0  0  0  0  0  0  0  0  0  0  0  # atno 17343 bound_to 10162
  157.7250  130.9610  150.1596 LP  0  0  0  0  0  0  0  0  0  0  0  0  # atno 17370 bound_to 10713
  156.2377  130.3688  149.8372 LP  0  0  0  0  0  0  0  0  0  0  0  0  # atno 17371 bound_to 10713
  140.3733  134.2367  155.7176 LP  0  0  0  0  0  0  0  0  0  0  0  0  # atno 17394 bound_to 11000
  141.1983  133.8038  157.0587 LP  0  0  0  0  0  0  0  0  0  0  0  0  # atno 17395 bound_to 11000

$$$$
