AV-unprocessed.smi:587|AV-procd|sdf|3002|dock2
  -GOLD-   2262023503D 1   1.00000     0.00000
 Structure written by MMmdl.
 46 48  0  0  0  0  0  0  0  0  1 V2000
  149.7297  139.1621  154.7296 C   0  0  0  0  0  0  0  0  0  0  0  0
  149.7244  140.2789  155.6513 N   0  0  0  0  0  0  0  0  0  0  0  0
  150.8628  140.8147  156.2496 C   0  0  0  0  0  0  0  0  0  0  0  0
  152.0849  140.2169  155.9896 N   0  0  0  0  0  0  0  0  0  0  0  0
  150.7920  141.8740  157.1025 C   0  0  0  0  0  0  0  0  0  0  0  0
  151.9068  142.4391  157.7238 N   0  0  0  0  0  0  0  0  0  0  0  0
  152.8732  141.6629  158.4996 C   0  0  0  0  0  0  0  0  0  0  0  0
  152.9914  142.1883  159.9429 C   0  0  0  0  0  0  0  0  0  0  0  0
  153.2898  143.6955  159.9586 C   0  0  0  0  0  0  0  0  0  0  0  0
  152.2542  144.4524  159.1130 C   0  0  0  0  0  0  0  0  0  0  0  0
  152.1867  143.8738  157.6901 C   0  0  0  0  0  0  0  0  0  0  0  0
  149.4979  142.4944  157.4155 C   0  0  0  0  0  0  0  0  0  0  0  0
  149.3726  143.4666  158.1647 O   0  0  0  0  0  0  0  0  0  0  0  0
  148.3609  141.9127  156.8112 N   0  0  0  0  0  0  0  0  0  0  0  0
  147.0242  142.4630  157.1327 C   0  0  0  0  0  0  0  0  0  0  0  0
  146.7875  142.6581  158.6389 C   0  0  0  0  0  0  0  0  0  0  0  0
  146.3624  141.7382  159.3398 O   0  0  0  0  0  0  0  0  0  0  0  0
  147.0743  143.8764  159.1195 N   0  0  0  0  0  0  0  0  0  0  0  0
  146.9472  144.2800  160.4825 C   0  0  0  0  0  0  0  0  0  0  0  0
  146.9277  145.7634  160.7813 C   0  0  0  0  0  0  0  0  0  0  0  0
  148.1424  144.9473  161.1283 C   0  0  0  0  0  0  0  0  0  0  0  0
  148.4453  140.8025  155.9466 C   0  0  0  0  0  0  0  0  0  0  0  0
  147.4233  140.3037  155.4653 O   0  0  0  0  0  0  0  0  0  0  0  0
  150.7476  138.9295  154.4239 H   0  0  0  0  0  0  0  0  0  0  0  0
  149.1556  139.4488  153.8465 H   0  0  0  0  0  0  0  0  0  0  0  0
  149.2802  138.3138  155.2485 H   0  0  0  0  0  0  0  0  0  0  0  0
  152.1560  139.4128  155.3827 H   0  0  0  0  0  0  0  0  0  0  0  0
  152.9555  140.6356  156.2833 H   0  0  0  0  0  0  0  0  0  0  0  0
  152.5919  140.6091  158.5070 H   0  0  0  0  0  0  0  0  0  0  0  0
  153.8420  141.7185  158.0013 H   0  0  0  0  0  0  0  0  0  0  0  0
  152.0660  141.9975  160.4861 H   0  0  0  0  0  0  0  0  0  0  0  0
  153.7747  141.6467  160.4734 H   0  0  0  0  0  0  0  0  0  0  0  0
  153.2883  144.0703  160.9826 H   0  0  0  0  0  0  0  0  0  0  0  0
  154.2892  143.8756  159.5606 H   0  0  0  0  0  0  0  0  0  0  0  0
  151.2725  144.3807  159.5831 H   0  0  0  0  0  0  0  0  0  0  0  0
  152.5048  145.5128  159.0744 H   0  0  0  0  0  0  0  0  0  0  0  0
  153.1293  144.0398  157.1666 H   0  0  0  0  0  0  0  0  0  0  0  0
  151.4169  144.3971  157.1213 H   0  0  0  0  0  0  0  0  0  0  0  0
  146.8622  143.4186  156.6319 H   0  0  0  0  0  0  0  0  0  0  0  0
  146.2320  141.8256  156.7368 H   0  0  0  0  0  0  0  0  0  0  0  0
  147.4175  144.5706  158.4713 H   0  0  0  0  0  0  0  0  0  0  0  0
  146.3457  143.6503  161.1366 H   0  0  0  0  0  0  0  0  0  0  0  0
  147.0079  146.4531  159.9430 H   0  0  0  0  0  0  0  0  0  0  0  0
  146.2966  146.0998  161.6015 H   0  0  0  0  0  0  0  0  0  0  0  0
  148.3247  144.7409  162.1812 H   0  0  0  0  0  0  0  0  0  0  0  0
  149.0342  145.0944  160.5218 H   0  0  0  0  0  0  0  0  0  0  0  0
  1  2  1  0  0  0  0
  1 24  1  0  0  0  0
  1 25  1  0  0  0  0
  1 26  1  0  0  0  0
  2 22  1  0  0  0  0
  2  3  1  0  0  0  0
  3  4  1  0  0  0  0
  3  5  2  0  0  0  0
  4 27  1  0  0  0  0
  4 28  1  0  0  0  0
  5  6  1  0  0  0  0
  5 12  1  0  0  0  0
  6 11  1  0  0  0  0
  6  7  1  0  0  0  0
  7  8  1  0  0  0  0
  7 29  1  0  0  0  0
  7 30  1  0  0  0  0
  8  9  1  0  0  0  0
  8 31  1  0  0  0  0
  8 32  1  0  0  0  0
  9 10  1  0  0  0  0
  9 33  1  0  0  0  0
  9 34  1  0  0  0  0
 10 11  1  0  0  0  0
 10 35  1  0  0  0  0
 10 36  1  0  0  0  0
 11 37  1  0  0  0  0
 11 38  1  0  0  0  0
 12 13  2  0  0  0  0
 12 14  1  0  0  0  0
 14 15  1  0  0  0  0
 14 22  1  0  0  0  0
 15 16  1  0  0  0  0
 15 39  1  0  0  0  0
 15 40  1  0  0  0  0
 16 17  2  0  0  0  0
 16 18  1  0  0  0  0
 18 19  1  0  0  0  0
 18 41  1  0  0  0  0
 19 21  1  0  0  0  0
 19 20  1  0  0  0  0
 19 42  1  0  0  0  0
 20 21  1  0  0  0  0
 20 43  1  0  0  0  0
 20 44  1  0  0  0  0
 21 45  1  0  0  0  0
 21 46  1  0  0  0  0
 22 23  2  0  0  0  0
M  END
> <s_m_source_file>
AV-unprocessed.smi

> <i_m_source_file_index>
587

> <i_lp_mmshare_version>
43012

> <i_f3d_flags>
0

> <s_epik_input>
W0NIMl0xW0NIMl1bQ0gyXVtDSDJdW0NIMl1OMWMoYyhbTkgyXSluMltDSDNdKWMoPU8pbihjMj1PKVtDSDJdQyg9TylbTkhdW0NIXTNbQ0gyXVtDSDJdMw==

> <s_epik_cmdline>
J2VwaWtfcHl0aG9uJywgJy1waCcsICc3LjAnLCAnLXRuJywgJzgnLCAnLW1hJywgJzIwMCcsICctbWV0YWxfYmluZGluZycsICctaW1hZScsICc8aW5maWxlLm1hZT4nLCAnLW9tYWUnLCAnPG91dGZpbGUubWFlPic=

> <r_lp_tautomer_probability>
0.999881

> <r_epik_Ionization_Penalty>
0.00852669

> <r_epik_Ionization_Penalty_Charging>
2.6249e-08

> <r_epik_Ionization_Penalty_Neutral>
0.00852666

> <r_epik_State_Penalty>
0.00667057

> <r_epik_Charging_Adjusted_Penalty>
0.00667059

> <i_epik_Tot_Q>
0

> <i_epik_Tot_abs_Q>
0

> <r_epik_Metal_State_Penalty>
0.00667057

> <b_epik_Metal_Only>
0

> <s_lp_Force_Field>
OPLS_2005

> <r_lp_Energy>
38.4775

> <b_lp_Chiralities_Consistent>
1

> <s_lp_Variant>
AV-unprocessed.smi:587-1

> <Gold.Version>
5.8.1

> <Gold.Id.Protein>
6NUR|6NUR_protein|mol2

> <Gold.PLP.Fitness>
44.5205

> <Gold.PLP.PLP>
-39.8024

> <Gold.PLP.part.hbond>
-2.0000

> <Gold.PLP.part.metal>
0.0000

> <Gold.PLP.part.buried>
-4.7777

> <Gold.PLP.part.nonpolar>
-33.7938

> <Gold.PLP.part.repulsive>
0.6845

> <Gold.PLP.ligand.clash>
0.0092

> <Gold.PLP.ligand.torsion>
1.5634

> <Gold.PLP.Chemscore.Hbond>
1.9673

> <Gold.PLP.Chemscore.CHOScore>
0.0000

> <Gold.PLP.Chemscore.Metal>
0.0000

> <Gold.Chemscore.Hbonds>
donor molecule, donor type, donor heavy atom, donor atom, acceptor molecule, acceptor atom, score
      L1  H    18    41       P1  8029  1.00
      P1  H  6934  6946       L1    17  0.93

> <Gold.PLP.Chemscore.Internal.Correction>
1.9524

> <Gold.Rescore>
     Score         DG    S(hbond)    S(metal)    S(lipo)     H(rot)  DE(clash)    DE(int)     intcor
     13.61     -17.84       1.97        0.00      83.62       1.56       0.98       3.25       ----

> <Gold.Chemscore.Fitness>
13.6145

> <Gold.Chemscore.DG>
-17.8443

> <Gold.Chemscore.ZeroCoef>
-5.4800

> <Gold.Chemscore.Hbond>
1.9666

> <Gold.Chemscore.Metal>
0.0000

> <Gold.Chemscore.Lipo>
83.6198

> <Gold.Chemscore.Internal_Hbond>
0.0000

> <Gold.Chemscore.DEClash>
0.9766

> <Gold.Chemscore.DEInternal>
3.2532

> <Gold.Chemscore.Rot>
1.5577

> <Gold.Chemscore.Internal.Correction>
   9.000000E+99

> <Gold.Chemscore.Hbonds>
donor molecule, donor type, donor heavy atom, donor atom, acceptor molecule, acceptor atom, score
      L1  H    18    41       P1  8029  0.94
      P1  H  6934  6946       L1    17  0.91

> <Gold.Chemscore.Hbond.Weighted>
-6.5685

> <Gold.Chemscore.Metal.Weighted>
-0.0000

> <Gold.Chemscore.Lipo.Weighted>
-9.7835

> <Gold.Chemscore.Internal_Hbond.Weighted>
0.0000

> <Gold.Chemscore.DEClash.Weighted>
0.9766

> <Gold.Chemscore.DEInternal.Weighted>
3.2532

> <Gold.Chemscore.Rot.Weighted>
3.9877

> <Gold.Chemscore.Internal.Correction.Weighted>
   9.000000E+99

> <Gold.Protein.RotatedTorsions>
[ 6907 6896 6895 6894 ] final  -30.51 input  -60.11 | X-H torsion
[ 7974 7965 7964 7962 ] final    7.20 input  175.53 | X-H torsion
[ 8008 7997 7996 7995 ] final  -60.82 input   59.86 | X-H torsion
[ 10167 10162 10161 10158 ] final  -45.14 input  -65.29 | X-H torsion
[ 10718 10713 10712 10709 ] final -150.94 input   66.30 | X-H torsion
[ 10763 10752 10751 10750 ] final -127.37 input  -60.55 | X-H torsion
[ 11005 11000 10999 10996 ] final -125.75 input  -57.11 | X-H torsion

> <Gold.Protein.ActiveResidues>
 VAL166  LYS551  ARG553  GLY616  TRP617  ASP618  TYR619  PRO620  LYS621  CYS622 
 ASP623  PHE694  ASN695  SER759  ASP760  ASP761  ALA762  ILE779  LEU786  VAL792 
 PHE793  MET794  SER795  GLU796  ALA797  LYS798  CYS799  TRP800  GLU811  SER814 

> <Gold.Protein.RotatedAtoms>
  151.1046  134.9992  159.8464 H   0  0  0  0  0  0  0  0  0  0  0  0  # atno 6907 bound_to 6896
  152.5439  134.1909  159.8684 H   0  0  0  0  0  0  0  0  0  0  0  0  # atno 6908 bound_to 6896
  151.1955  133.4597  159.2628 H   0  0  0  0  0  0  0  0  0  0  0  0  # atno 6909 bound_to 6896
  146.2428  140.0118  142.8406 H   0  0  0  0  0  0  0  0  0  0  0  0  # atno 7974 bound_to 7965
  154.4417  140.1031  156.6333 H   0  0  0  0  0  0  0  0  0  0  0  0  # atno 8008 bound_to 7997
  155.5581  140.3487  155.4466 H   0  0  0  0  0  0  0  0  0  0  0  0  # atno 8009 bound_to 7997
  156.0480  140.1297  157.0071 H   0  0  0  0  0  0  0  0  0  0  0  0  # atno 8010 bound_to 7997
  140.6870  143.2894  151.3596 H   0  0  0  0  0  0  0  0  0  0  0  0  # atno 10167 bound_to 10162
  156.4527  130.8175  151.2406 H   0  0  0  0  0  0  0  0  0  0  0  0  # atno 10718 bound_to 10713
  154.8752  135.3964  154.3583 H   0  0  0  0  0  0  0  0  0  0  0  0  # atno 10763 bound_to 10752
  153.4359  135.7026  153.6206 H   0  0  0  0  0  0  0  0  0  0  0  0  # atno 10764 bound_to 10752
  153.4808  135.3770  155.2410 H   0  0  0  0  0  0  0  0  0  0  0  0  # atno 10765 bound_to 10752
  140.9737  134.0770  157.3841 H   0  0  0  0  0  0  0  0  0  0  0  0  # atno 11005 bound_to 11000
  145.1320  140.9523  143.4538 LP  0  0  0  0  0  0  0  0  0  0  0  0  # atno 17320 bound_to 7965
  145.0378  139.3286  143.5992 LP  0  0  0  0  0  0  0  0  0  0  0  0  # atno 17321 bound_to 7965
  139.6237  144.0857  152.2414 LP  0  0  0  0  0  0  0  0  0  0  0  0  # atno 17342 bound_to 10162
  140.0309  144.6081  150.7488 LP  0  0  0  0  0  0  0  0  0  0  0  0  # atno 17343 bound_to 10162
  157.7502  131.0133  150.3417 LP  0  0  0  0  0  0  0  0  0  0  0  0  # atno 17370 bound_to 10713
  156.3799  130.3878  149.7109 LP  0  0  0  0  0  0  0  0  0  0  0  0  # atno 17371 bound_to 10713
  139.8922  135.0123  156.6833 LP  0  0  0  0  0  0  0  0  0  0  0  0  # atno 17394 bound_to 11000
  140.7291  133.9075  155.8198 LP  0  0  0  0  0  0  0  0  0  0  0  0  # atno 17395 bound_to 11000

$$$$
