AV-unprocessed.smi:3023|AV-procd|sdf|11502|dock3
  -GOLD-   2272016433D 1   1.00000     0.00000
 Structure written by MMmdl.
 43 44  0  0  0  0  0  0  0  0  2 V2000
  143.9830  139.4729  155.5808 C   0  0  0  0  0  0  0  0  0  0  0  0
  145.1256  140.1577  154.9348 N   0  3  1  0  0  0  0  0  0  0  0  0
  145.6984  141.2213  155.8047 C   0  0  0  0  0  0  0  0  0  0  0  0
  146.1578  142.4680  155.0171 C   0  0  0  0  0  0  0  0  0  0  0  0
  146.9904  142.1890  153.7498 C   0  0  0  0  0  0  0  0  0  0  0  0
  147.7925  140.9635  153.8850 N   0  0  0  0  0  0  0  0  0  0  0  0
  148.9976  140.8796  154.5036 C   0  0  0  0  0  0  0  0  0  0  0  0
  149.6202  139.8232  154.6175 O   0  0  0  0  0  0  0  0  0  0  0  0
  149.4670  142.0500  154.9727 N   0  0  0  0  0  0  0  0  0  0  0  0
  150.7712  142.2601  155.5977 C   0  0  0  0  0  0  0  0  0  0  0  0
  150.8334  141.6517  157.0110 C   0  0  0  0  0  0  0  0  0  0  0  0
  151.2878  142.6402  158.0524 C   0  0  0  0  0  0  0  0  0  0  0  0
  151.3234  144.0607  157.9544 C   0  0  0  0  0  0  0  0  0  0  0  0
  151.7493  144.6420  159.0639 N   0  0  0  0  0  0  0  0  0  0  0  0
  152.0057  143.6176  159.9029 N   0  0  0  0  0  0  0  0  0  0  0  0
  152.4914  143.8915  161.2382 C   0  0  0  0  0  0  0  0  0  0  0  0
  151.7397  142.3983  159.3191 C   0  0  0  0  0  0  0  0  0  0  0  0
  147.1012  139.7661  153.3897 C   0  0  0  0  0  0  0  0  0  0  0  0
  146.1401  139.1810  154.4444 C   0  0  0  0  0  0  0  0  0  0  0  0
  144.3019  138.9483  156.4825 H   0  0  0  0  0  0  0  0  0  0  0  0
  143.5310  138.7474  154.9038 H   0  0  0  0  0  0  0  0  0  0  0  0
  143.2073  140.1887  155.8548 H   0  0  0  0  0  0  0  0  0  0  0  0
  144.9556  141.5530  156.5319 H   0  0  0  0  0  0  0  0  0  0  0  0
  146.5193  140.8151  156.3978 H   0  0  0  0  0  0  0  0  0  0  0  0
  145.2884  143.0639  154.7368 H   0  0  0  0  0  0  0  0  0  0  0  0
  146.7386  143.0972  155.6924 H   0  0  0  0  0  0  0  0  0  0  0  0
  146.3092  142.0959  152.9032 H   0  0  0  0  0  0  0  0  0  0  0  0
  147.6081  143.0525  153.4986 H   0  0  0  0  0  0  0  0  0  0  0  0
  148.8931  142.8701  154.8422 H   0  0  0  0  0  0  0  0  0  0  0  0
  151.5324  141.8005  154.9672 H   0  0  0  0  0  0  0  0  0  0  0  0
  151.0164  143.3225  155.6410 H   0  0  0  0  0  0  0  0  0  0  0  0
  149.8489  141.2586  157.2670 H   0  0  0  0  0  0  0  0  0  0  0  0
  151.4955  140.7854  156.9930 H   0  0  0  0  0  0  0  0  0  0  0  0
  151.0414  144.6827  157.1178 H   0  0  0  0  0  0  0  0  0  0  0  0
  152.9028  142.9828  161.6788 H   0  0  0  0  0  0  0  0  0  0  0  0
  151.6706  144.2490  161.8608 H   0  0  0  0  0  0  0  0  0  0  0  0
  153.2728  144.6514  161.2035 H   0  0  0  0  0  0  0  0  0  0  0  0
  151.8820  141.4690  159.8507 H   0  0  0  0  0  0  0  0  0  0  0  0
  146.5475  139.9952  152.4785 H   0  0  0  0  0  0  0  0  0  0  0  0
  147.8162  138.9997  153.0852 H   0  0  0  0  0  0  0  0  0  0  0  0
  146.7007  138.7770  155.2891 H   0  0  0  0  0  0  0  0  0  0  0  0
  145.6291  138.3315  153.9894 H   0  0  0  0  0  0  0  0  0  0  0  0
  144.7410  140.6184  154.1223 H   0  0  0  0  0  0  0  0  0  0  0  0
  1  2  1  0  0  0  0
  1 20  1  0  0  0  0
  1 21  1  0  0  0  0
  1 22  1  0  0  0  0
  2 19  1  0  0  0  0
  2  3  1  0  0  0  0
  2 43  1  0  0  0  0
  3  4  1  0  0  0  0
  3 23  1  0  0  0  0
  3 24  1  0  0  0  0
  4  5  1  0  0  0  0
  4 25  1  0  0  0  0
  4 26  1  0  0  0  0
  5  6  1  0  0  0  0
  5 27  1  0  0  0  0
  5 28  1  0  0  0  0
  6  7  1  0  0  0  0
  6 18  1  0  0  0  0
  7  8  2  0  0  0  0
  7  9  1  0  0  0  0
  9 10  1  0  0  0  0
  9 29  1  0  0  0  0
 10 11  1  0  0  0  0
 10 30  1  0  0  0  0
 10 31  1  0  0  0  0
 11 12  1  0  0  0  0
 11 32  1  0  0  0  0
 11 33  1  0  0  0  0
 12 17  2  0  0  0  0
 12 13  1  0  0  0  0
 13 14  2  0  0  0  0
 13 34  1  0  0  0  0
 14 15  1  0  0  0  0
 15 16  1  0  0  0  0
 15 17  1  0  0  0  0
 16 35  1  0  0  0  0
 16 36  1  0  0  0  0
 16 37  1  0  0  0  0
 17 38  1  0  0  0  0
 18 19  1  0  0  0  0
 18 39  1  0  0  0  0
 18 40  1  0  0  0  0
 19 41  1  0  0  0  0
 19 42  1  0  0  0  0
M  CHG  1   2   1
M  END
> <s_m_source_file>
AV-unprocessed.smi

> <i_m_source_file_index>
3023

> <i_lp_mmshare_version>
43012

> <i_f3d_flags>
0

> <s_epik_input>
W0NIM11OMVtDSDJdW0NIMl1bQ0gyXU4oW0NIMl1bQ0gyXTEpQyg9TylbTkhdW0NIMl1bQ0gyXWMyW2NIXW5uKFtDSDNdKVtjSF0y

> <s_epik_cmdline>
J2VwaWtfcHl0aG9uJywgJy1waCcsICc3LjAnLCAnLXRuJywgJzgnLCAnLW1hJywgJzIwMCcsICctbWV0YWxfYmluZGluZycsICctaW1hZScsICc8aW5maWxlLm1hZT4nLCAnLW9tYWUnLCAnPG91dGZpbGUubWFlPic=

> <r_lp_tautomer_probability>
1

> <r_epik_Ionization_Penalty>
0.00258886

> <r_epik_Ionization_Penalty_Charging>
0.00208099

> <r_epik_Ionization_Penalty_Neutral>
0.00050787

> <r_epik_State_Penalty>
-0

> <r_epik_Charging_Adjusted_Penalty>
0.00208099

> <i_epik_Tot_Q>
1

> <i_epik_Tot_abs_Q>
1

> <r_epik_Metal_State_Penalty>
-0

> <b_epik_Metal_Only>
0

> <s_lp_Force_Field>
OPLS_2005

> <r_lp_Energy>
39.0301

> <b_lp_Chiralities_Consistent>
1

> <s_lp_Variant>
AV-unprocessed.smi:3023-2

> <Gold.Version>
5.8.1

> <Gold.Id.Protein>
6NUR|6NUR_protein|mol2

> <Gold.PLP.Fitness>
43.6761

> <Gold.PLP.PLP>
-34.0341

> <Gold.PLP.part.hbond>
-2.0000

> <Gold.PLP.part.metal>
0.0000

> <Gold.PLP.part.buried>
-4.7177

> <Gold.PLP.part.nonpolar>
-27.0162

> <Gold.PLP.part.repulsive>
0.3953

> <Gold.PLP.ligand.clash>
0.0000

> <Gold.PLP.ligand.torsion>
0.6554

> <Gold.PLP.Chemscore.Hbond>
2.7040

> <Gold.PLP.Chemscore.CHOScore>
0.9396

> <Gold.PLP.Chemscore.Metal>
0.0000

> <Gold.Chemscore.Hbonds>
donor molecule, donor type, donor heavy atom, donor atom, acceptor molecule, acceptor atom, score
      L1  H     2    43       P1 10175  1.95
      L1  H     9    29       P1  8028  0.70
      L1  C    13    34       P1  8028  0.92

> <Gold.PLP.Chemscore.Internal.Correction>
0.0219

> <Gold.Rescore>
     Score         DG    S(hbond)    S(metal)    S(lipo)     H(rot)  DE(clash)    DE(int)     intcor
     14.98     -16.08       1.57        0.00      76.19       1.39       0.48       0.62       ----

> <Gold.Chemscore.Fitness>
14.9812

> <Gold.Chemscore.DG>
-16.0849

> <Gold.Chemscore.ZeroCoef>
-5.4800

> <Gold.Chemscore.Hbond>
1.5721

> <Gold.Chemscore.Metal>
0.0000

> <Gold.Chemscore.Lipo>
76.1877

> <Gold.Chemscore.Internal_Hbond>
0.0000

> <Gold.Chemscore.DEClash>
0.4810

> <Gold.Chemscore.DEInternal>
0.6227

> <Gold.Chemscore.Rot>
1.3906

> <Gold.Chemscore.Internal.Correction>
   9.000000E+99

> <Gold.Chemscore.Hbonds>
donor molecule, donor type, donor heavy atom, donor atom, acceptor molecule, acceptor atom, score
      L1  H     2    43       P1 10175  0.92
      L1  H     9    29       P1  8028  0.67

> <Gold.Chemscore.Hbond.Weighted>
-5.2508

> <Gold.Chemscore.Metal.Weighted>
-0.0000

> <Gold.Chemscore.Lipo.Weighted>
-8.9140

> <Gold.Chemscore.Internal_Hbond.Weighted>
0.0000

> <Gold.Chemscore.DEClash.Weighted>
0.4810

> <Gold.Chemscore.DEInternal.Weighted>
0.6227

> <Gold.Chemscore.Rot.Weighted>
3.5598

> <Gold.Chemscore.Internal.Correction.Weighted>
   9.000000E+99

> <Gold.Protein.RotatedTorsions>
[ 6907 6896 6895 6894 ] final   90.29 input  -60.11 | X-H torsion
[ 7974 7965 7964 7962 ] final  144.64 input  175.53 | X-H torsion
[ 8008 7997 7996 7995 ] final  109.75 input   59.86 | X-H torsion
[ 10167 10162 10161 10158 ] final   32.55 input  -65.29 | X-H torsion
[ 10718 10713 10712 10709 ] final   32.73 input   66.30 | X-H torsion
[ 10763 10752 10751 10750 ] final  159.74 input  -60.55 | X-H torsion
[ 11005 11000 10999 10996 ] final -135.77 input  -57.11 | X-H torsion

> <Gold.Protein.ActiveResidues>
 VAL166  LYS551  ARG553  GLY616  TRP617  ASP618  TYR619  PRO620  LYS621  CYS622 
 ASP623  PHE694  ASN695  SER759  ASP760  ASP761  ALA762  ILE779  LEU786  VAL792 
 PHE793  MET794  SER795  GLU796  ALA797  LYS798  CYS799  TRP800  GLU811  SER814 

> <Gold.Protein.RotatedAtoms>
  152.5443  134.1834  159.8644 H   0  0  0  0  0  0  0  0  0  0  0  0  # atno 6907 bound_to 6896
  151.1835  133.4704  159.2602 H   0  0  0  0  0  0  0  0  0  0  0  0  # atno 6908 bound_to 6896
  151.1155  135.0062  159.8569 H   0  0  0  0  0  0  0  0  0  0  0  0  # atno 6909 bound_to 6896
  144.8819  139.5686  143.5839 H   0  0  0  0  0  0  0  0  0  0  0  0  # atno 7974 bound_to 7965
  156.2002  140.3052  155.9511 H   0  0  0  0  0  0  0  0  0  0  0  0  # atno 8008 bound_to 7997
  155.2971  140.0444  157.3044 H   0  0  0  0  0  0  0  0  0  0  0  0  # atno 8009 bound_to 7997
  154.5561  140.2306  155.8416 H   0  0  0  0  0  0  0  0  0  0  0  0  # atno 8010 bound_to 7997
  140.4488  144.1079  150.6187 H   0  0  0  0  0  0  0  0  0  0  0  0  # atno 10167 bound_to 10162
  157.2889  130.7292  149.6599 H   0  0  0  0  0  0  0  0  0  0  0  0  # atno 10718 bound_to 10713
  154.2364  135.2776  155.2870 H   0  0  0  0  0  0  0  0  0  0  0  0  # atno 10763 bound_to 10752
  154.5581  135.5655  153.6986 H   0  0  0  0  0  0  0  0  0  0  0  0  # atno 10764 bound_to 10752
  153.0009  135.6291  154.2507 H   0  0  0  0  0  0  0  0  0  0  0  0  # atno 10765 bound_to 10752
  140.8868  134.1863  157.4555 H   0  0  0  0  0  0  0  0  0  0  0  0  # atno 11005 bound_to 11000
  146.3000  139.7396  142.9098 LP  0  0  0  0  0  0  0  0  0  0  0  0  # atno 17320 bound_to 7965
  145.3939  141.0376  143.3109 LP  0  0  0  0  0  0  0  0  0  0  0  0  # atno 17321 bound_to 7965
  140.4231  143.2602  151.9690 LP  0  0  0  0  0  0  0  0  0  0  0  0  # atno 17342 bound_to 10162
  139.4795  144.5812  151.7929 LP  0  0  0  0  0  0  0  0  0  0  0  0  # atno 17343 bound_to 10162
  155.9666  130.4315  150.4922 LP  0  0  0  0  0  0  0  0  0  0  0  0  # atno 17370 bound_to 10713
  157.2881  131.0620  151.2152 LP  0  0  0  0  0  0  0  0  0  0  0  0  # atno 17371 bound_to 10713
  139.8725  134.9841  156.5225 LP  0  0  0  0  0  0  0  0  0  0  0  0  # atno 17394 bound_to 11000
  140.8396  133.8216  155.9062 LP  0  0  0  0  0  0  0  0  0  0  0  0  # atno 17395 bound_to 11000

$$$$
