AV-unprocessed.smi:1561|AV-procd|sdf|6286|dock9
  -GOLD-   22720 6483D 1   1.00000     0.00000
 Structure written by MMmdl.
 33 34  0  0  0  0  0  0  0  0  1 V2000
  148.6764  140.6494  156.6733 C   0  0  0  0  0  0  0  0  0  0  0  0
  149.9766  141.1412  156.0050 C   0  0  1  0  0  0  0  0  0  0  0  0
  150.9127  141.8599  156.9892 C   0  0  0  0  0  0  0  0  0  0  0  0
  151.5471  141.2238  157.8316 O   0  0  0  0  0  0  0  0  0  0  0  0
  150.9850  143.1953  156.8698 N   0  0  0  0  0  0  0  0  0  0  0  0
  151.8126  144.0783  157.6856 C   0  0  0  0  0  0  0  0  0  0  0  0
  151.6050  143.8341  159.1922 C   0  0  1  0  0  0  0  0  0  0  0  0
  152.5591  142.8385  159.8246 C   0  0  0  0  0  0  0  0  0  0  0  0
  152.4494  143.1836  161.3074 C   0  0  0  0  0  0  0  0  0  0  0  0
  152.1138  144.5674  161.3671 O   0  0  0  0  0  0  0  0  0  0  0  0
  151.8668  145.0661  160.0566 C   0  0  0  0  0  0  0  0  0  0  0  0
  150.6892  140.0678  155.3214 N   0  0  0  0  0  0  0  0  0  0  0  0
  152.0050  139.6844  155.4864 C   0  0  0  0  0  0  0  0  0  0  0  0
  152.2268  138.6118  154.6710 C   0  0  0  0  0  0  0  0  0  0  0  0
  150.9679  138.3986  154.0443 C   0  0  0  0  0  0  0  0  0  0  0  0
  150.0491  139.2633  154.4408 N   0  0  0  0  0  0  0  0  0  0  0  0
  148.1305  141.4785  157.1250 H   0  0  0  0  0  0  0  0  0  0  0  0
  148.8682  139.9155  157.4572 H   0  0  0  0  0  0  0  0  0  0  0  0
  148.0157  140.1849  155.9409 H   0  0  0  0  0  0  0  0  0  0  0  0
  149.6864  141.8666  155.2430 H   0  0  0  0  0  0  0  0  0  0  0  0
  150.4289  143.6340  156.1503 H   0  0  0  0  0  0  0  0  0  0  0  0
  152.8665  143.9798  157.4190 H   0  0  0  0  0  0  0  0  0  0  0  0
  151.5339  145.1042  157.4437 H   0  0  0  0  0  0  0  0  0  0  0  0
  150.5812  143.4997  159.3692 H   0  0  0  0  0  0  0  0  0  0  0  0
  152.3027  141.8001  159.6125 H   0  0  0  0  0  0  0  0  0  0  0  0
  153.5777  143.0157  159.4759 H   0  0  0  0  0  0  0  0  0  0  0  0
  151.6455  142.6131  161.7738 H   0  0  0  0  0  0  0  0  0  0  0  0
  153.3720  142.9740  161.8492 H   0  0  0  0  0  0  0  0  0  0  0  0
  152.7580  145.5950  159.7157 H   0  0  0  0  0  0  0  0  0  0  0  0
  151.0333  145.7689  160.0486 H   0  0  0  0  0  0  0  0  0  0  0  0
  152.6681  140.2019  156.1640 H   0  0  0  0  0  0  0  0  0  0  0  0
  153.1466  138.0605  154.5448 H   0  0  0  0  0  0  0  0  0  0  0  0
  150.6949  137.6437  153.3219 H   0  0  0  0  0  0  0  0  0  0  0  0
  1  2  1  0  0  0  0
  1 17  1  0  0  0  0
  1 18  1  0  0  0  0
  1 19  1  0  0  0  0
  2  3  1  0  0  0  0
  2 12  1  0  0  0  0
  2 20  1  0  0  0  0
  3  4  2  0  0  0  0
  3  5  1  0  0  0  0
  5  6  1  0  0  0  0
  5 21  1  0  0  0  0
  6  7  1  0  0  0  0
  6 22  1  0  0  0  0
  6 23  1  0  0  0  0
  7 11  1  0  0  0  0
  7  8  1  0  0  0  0
  7 24  1  0  0  0  0
  8  9  1  0  0  0  0
  8 25  1  0  0  0  0
  8 26  1  0  0  0  0
  9 10  1  0  0  0  0
  9 27  1  0  0  0  0
  9 28  1  0  0  0  0
 10 11  1  0  0  0  0
 11 29  1  0  0  0  0
 11 30  1  0  0  0  0
 12 16  1  0  0  0  0
 12 13  1  0  0  0  0
 13 14  2  0  0  0  0
 13 31  1  0  0  0  0
 14 15  1  0  0  0  0
 14 32  1  0  0  0  0
 15 16  2  0  0  0  0
 15 33  1  0  0  0  0
M  END
> <s_m_source_file>
AV-unprocessed.smi

> <i_m_source_file_index>
1561

> <i_lp_mmshare_version>
43012

> <i_f3d_flags>
0

> <s_epik_input>
bjFbY0hdW2NIXVtjSF1uMVtDQEhdKFtDSDNdKUMoPU8pW05IXVtDSDJdW0NAQEhdMltDSDJdW0NIMl1PW0NIMl0y

> <s_epik_cmdline>
J2VwaWtfcHl0aG9uJywgJy1waCcsICc3LjAnLCAnLXRuJywgJzgnLCAnLW1hJywgJzIwMCcsICctbWV0YWxfYmluZGluZycsICctaW1hZScsICc8aW5maWxlLm1hZT4nLCAnLW9tYWUnLCAnPG91dGZpbGUubWFlPic=

> <r_lp_tautomer_probability>
1

> <r_epik_Ionization_Penalty>
3.82077e-05

> <r_epik_Ionization_Penalty_Charging>
0

> <r_epik_Ionization_Penalty_Neutral>
3.82077e-05

> <r_epik_State_Penalty>
-0

> <r_epik_Charging_Adjusted_Penalty>
0

> <i_epik_Tot_Q>
0

> <i_epik_Tot_abs_Q>
0

> <r_epik_Metal_State_Penalty>
-0

> <b_epik_Metal_Only>
0

> <s_lp_Force_Field>
OPLS_2005

> <r_lp_Energy>
22.4357

> <b_lp_Chiralities_Consistent>
1

> <s_lp_Variant>
AV-unprocessed.smi:1561-4

> <Gold.Version>
5.8.1

> <Gold.Id.Protein>
6NUR|6NUR_protein|mol2

> <Gold.PLP.Fitness>
45.4111

> <Gold.PLP.PLP>
-40.2735

> <Gold.PLP.part.hbond>
-1.0000

> <Gold.PLP.part.metal>
0.0000

> <Gold.PLP.part.buried>
-5.5047

> <Gold.PLP.part.nonpolar>
-34.5583

> <Gold.PLP.part.repulsive>
0.3761

> <Gold.PLP.ligand.clash>
0.0000

> <Gold.PLP.ligand.torsion>
0.6868

> <Gold.PLP.Chemscore.Hbond>
0.9920

> <Gold.PLP.Chemscore.CHOScore>
1.1434

> <Gold.PLP.Chemscore.Metal>
0.0000

> <Gold.Chemscore.Hbonds>
donor molecule, donor type, donor heavy atom, donor atom, acceptor molecule, acceptor atom, score
      L1  H     5    21       P1  8028  0.98
      L1  C    15    33       P1  7948  0.38
      L1  C    15    33       P1  7949  0.74

> <Gold.PLP.Chemscore.Internal.Correction>
0.1049

> <Gold.Rescore>
     Score         DG    S(hbond)    S(metal)    S(lipo)     H(rot)  DE(clash)    DE(int)     intcor
     11.21     -15.51       0.97        0.00      93.26       1.61       0.06       4.24       ----

> <Gold.Chemscore.Fitness>
11.2069

> <Gold.Chemscore.DG>
-15.5090

> <Gold.Chemscore.ZeroCoef>
-5.4800

> <Gold.Chemscore.Hbond>
0.9694

> <Gold.Chemscore.Metal>
0.0000

> <Gold.Chemscore.Lipo>
93.2594

> <Gold.Chemscore.Internal_Hbond>
0.0000

> <Gold.Chemscore.DEClash>
0.0579

> <Gold.Chemscore.DEInternal>
4.2442

> <Gold.Chemscore.Rot>
1.6094

> <Gold.Chemscore.Internal.Correction>
   9.000000E+99

> <Gold.Chemscore.Hbonds>
donor molecule, donor type, donor heavy atom, donor atom, acceptor molecule, acceptor atom, score
      L1  H     5    21       P1  8028  0.93

> <Gold.Chemscore.Hbond.Weighted>
-3.2377

> <Gold.Chemscore.Metal.Weighted>
-0.0000

> <Gold.Chemscore.Lipo.Weighted>
-10.9113

> <Gold.Chemscore.Internal_Hbond.Weighted>
0.0000

> <Gold.Chemscore.DEClash.Weighted>
0.0579

> <Gold.Chemscore.DEInternal.Weighted>
4.2442

> <Gold.Chemscore.Rot.Weighted>
4.1201

> <Gold.Chemscore.Internal.Correction.Weighted>
   9.000000E+99

> <Gold.Protein.RotatedTorsions>
[ 6907 6896 6895 6894 ] final -153.44 input  -60.11 | X-H torsion
[ 7974 7965 7964 7962 ] final  -83.41 input  175.53 | X-H torsion
[ 8008 7997 7996 7995 ] final -150.88 input   59.86 | X-H torsion
[ 10167 10162 10161 10158 ] final  -79.26 input  -65.29 | X-H torsion
[ 10718 10713 10712 10709 ] final -173.30 input   66.30 | X-H torsion
[ 10763 10752 10751 10750 ] final    2.46 input  -60.55 | X-H torsion
[ 11005 11000 10999 10996 ] final   93.84 input  -57.11 | X-H torsion

> <Gold.Protein.ActiveResidues>
 VAL166  LYS551  ARG553  GLY616  TRP617  ASP618  TYR619  PRO620  LYS621  CYS622 
 ASP623  PHE694  ASN695  SER759  ASP760  ASP761  ALA762  ILE779  LEU786  VAL792 
 PHE793  MET794  SER795  GLU796  ALA797  LYS798  CYS799  TRP800  GLU811  SER814 

> <Gold.Protein.RotatedAtoms>
  151.2426  133.4391  159.2607 H   0  0  0  0  0  0  0  0  0  0  0  0  # atno 6907 bound_to 6896
  151.0691  134.9787  159.8309 H   0  0  0  0  0  0  0  0  0  0  0  0  # atno 6908 bound_to 6896
  152.5409  134.2373  159.8901 H   0  0  0  0  0  0  0  0  0  0  0  0  # atno 6909 bound_to 6896
  145.5203  140.9532  143.1659 H   0  0  0  0  0  0  0  0  0  0  0  0  # atno 7974 bound_to 7965
  155.6305  140.0691  157.2650 H   0  0  0  0  0  0  0  0  0  0  0  0  # atno 8008 bound_to 7997
  154.4207  140.1768  156.1516 H   0  0  0  0  0  0  0  0  0  0  0  0  # atno 8009 bound_to 7997
  155.9937  140.3343  155.6781 H   0  0  0  0  0  0  0  0  0  0  0  0  # atno 8010 bound_to 7997
  140.4609  143.2454  151.8350 H   0  0  0  0  0  0  0  0  0  0  0  0  # atno 10167 bound_to 10162
  156.7683  130.9439  151.3119 H   0  0  0  0  0  0  0  0  0  0  0  0  # atno 10718 bound_to 10713
  153.2953  135.6951  153.7254 H   0  0  0  0  0  0  0  0  0  0  0  0  # atno 10763 bound_to 10752
  153.6189  135.3431  155.3005 H   0  0  0  0  0  0  0  0  0  0  0  0  # atno 10764 bound_to 10752
  154.8535  135.4381  154.2048 H   0  0  0  0  0  0  0  0  0  0  0  0  # atno 10765 bound_to 10752
  139.8805  134.8812  156.3777 H   0  0  0  0  0  0  0  0  0  0  0  0  # atno 11005 bound_to 11000
  144.7679  139.6801  143.7207 LP  0  0  0  0  0  0  0  0  0  0  0  0  # atno 17320 bound_to 7965
  146.2110  139.5467  142.9681 LP  0  0  0  0  0  0  0  0  0  0  0  0  # atno 17321 bound_to 7965
  139.4806  144.5009  151.9062 LP  0  0  0  0  0  0  0  0  0  0  0  0  # atno 17342 bound_to 10162
  140.4094  144.2388  150.5889 LP  0  0  0  0  0  0  0  0  0  0  0  0  # atno 17343 bound_to 10162
  157.6703  130.9045  150.0025 LP  0  0  0  0  0  0  0  0  0  0  0  0  # atno 17370 bound_to 10713
  156.1295  130.3643  149.9755 LP  0  0  0  0  0  0  0  0  0  0  0  0  # atno 17371 bound_to 10713
  140.9420  133.7508  156.0159 LP  0  0  0  0  0  0  0  0  0  0  0  0  # atno 17394 bound_to 11000
  140.8208  134.3292  157.5382 LP  0  0  0  0  0  0  0  0  0  0  0  0  # atno 17395 bound_to 11000

$$$$
