AV-unprocessed.smi:1813|AV-procd|sdf|7342|dock9
  -GOLD-   22720 9 03D 1   1.00000     0.00000
 Structure written by MMmdl.
 40 41  0  0  0  0  0  0  0  0  2 V2000
  151.2754  137.5015  154.6208 C   0  0  0  0  0  0  0  0  0  0  0  0
  150.0923  138.0773  153.9995 N   0  0  0  0  0  0  0  0  0  0  0  0
  149.7323  139.3635  154.1118 C   0  0  0  0  0  0  0  0  0  0  0  0
  150.3726  140.1894  154.7635 O   0  0  0  0  0  0  0  0  0  0  0  0
  148.4433  139.7724  153.3919 C   0  0  0  0  0  0  0  0  0  0  0  0
  147.6495  138.6097  152.9173 N   0  3  2  0  0  0  0  0  0  0  0  0
  146.8026  138.9418  151.7434 C   0  0  0  0  0  0  0  0  0  0  0  0
  146.1098  137.6864  151.1820 C   0  0  0  0  0  0  0  0  0  0  0  0
  145.2923  136.9458  152.2550 C   0  0  2  0  0  0  0  0  0  0  0  0
  144.0871  137.7021  152.5953 N   0  0  0  0  0  0  0  0  0  0  0  0
  142.8736  137.1697  152.8039 C   0  0  0  0  0  0  0  0  0  0  0  0
  142.6449  135.9616  152.7412 O   0  0  0  0  0  0  0  0  0  0  0  0
  141.9655  138.1200  153.0871 N   0  0  0  0  0  0  0  0  0  0  0  0
  140.5867  137.9542  153.3827 C   0  0  0  0  0  0  0  0  0  0  0  0
  139.6942  138.9512  153.4020 N   0  0  0  0  0  0  0  0  0  0  0  0
  138.4108  138.4999  153.7201 C   0  0  0  0  0  0  0  0  0  0  0  0
  138.3439  137.1467  153.9408 C   0  0  0  0  0  0  0  0  0  0  0  0
  139.8995  136.3808  153.7587 S   0  0  0  0  0  0  0  0  0  0  0  0
  146.1754  136.6815  153.4913 C   0  0  0  0  0  0  0  0  0  0  0  0
  146.8567  137.9643  153.9975 C   0  0  0  0  0  0  0  0  0  0  0  0
  151.3955  136.4658  154.3036 H   0  0  0  0  0  0  0  0  0  0  0  0
  151.1873  137.5171  155.7078 H   0  0  0  0  0  0  0  0  0  0  0  0
  152.1743  138.0500  154.3363 H   0  0  0  0  0  0  0  0  0  0  0  0
  149.5108  137.4569  153.4542 H   0  0  0  0  0  0  0  0  0  0  0  0
  147.8300  140.4088  154.0321 H   0  0  0  0  0  0  0  0  0  0  0  0
  148.7450  140.3832  152.5400 H   0  0  0  0  0  0  0  0  0  0  0  0
  146.0627  139.6916  152.0275 H   0  0  0  0  0  0  0  0  0  0  0  0
  147.4178  139.3864  150.9603 H   0  0  0  0  0  0  0  0  0  0  0  0
  145.4732  137.9544  150.3379 H   0  0  0  0  0  0  0  0  0  0  0  0
  146.8691  137.0113  150.7847 H   0  0  0  0  0  0  0  0  0  0  0  0
  144.9770  135.9880  151.8366 H   0  0  0  0  0  0  0  0  0  0  0  0
  144.1801  138.7051  152.6601 H   0  0  0  0  0  0  0  0  0  0  0  0
  142.2978  139.0727  153.0983 H   0  0  0  0  0  0  0  0  0  0  0  0
  137.6008  139.2125  153.7670 H   0  0  0  0  0  0  0  0  0  0  0  0
  137.4769  136.5568  154.1987 H   0  0  0  0  0  0  0  0  0  0  0  0
  145.5928  136.2261  154.2928 H   0  0  0  0  0  0  0  0  0  0  0  0
  146.9442  135.9528  153.2308 H   0  0  0  0  0  0  0  0  0  0  0  0
  147.5027  137.7135  154.8392 H   0  0  0  0  0  0  0  0  0  0  0  0
  146.1107  138.6657  154.3746 H   0  0  0  0  0  0  0  0  0  0  0  0
  148.3211  137.9258  152.5976 H   0  0  0  0  0  0  0  0  0  0  0  0
  1  2  1  0  0  0  0
  1 21  1  0  0  0  0
  1 22  1  0  0  0  0
  1 23  1  0  0  0  0
  2  3  1  0  0  0  0
  2 24  1  0  0  0  0
  3  4  2  0  0  0  0
  3  5  1  0  0  0  0
  5  6  1  0  0  0  0
  5 25  1  0  0  0  0
  5 26  1  0  0  0  0
  6 20  1  0  0  0  0
  6  7  1  0  0  0  0
  6 40  1  0  0  0  0
  7  8  1  0  0  0  0
  7 27  1  0  0  0  0
  7 28  1  0  0  0  0
  8  9  1  0  0  0  0
  8 29  1  0  0  0  0
  8 30  1  0  0  0  0
  9 10  1  0  0  0  0
  9 19  1  0  0  0  0
  9 31  1  0  0  0  0
 10 11  1  0  0  0  0
 10 32  1  0  0  0  0
 11 12  2  0  0  0  0
 11 13  1  0  0  0  0
 13 14  1  0  0  0  0
 13 33  1  0  0  0  0
 14 18  1  0  0  0  0
 14 15  2  0  0  0  0
 15 16  1  0  0  0  0
 16 17  2  0  0  0  0
 16 34  1  0  0  0  0
 17 18  1  0  0  0  0
 17 35  1  0  0  0  0
 19 20  1  0  0  0  0
 19 36  1  0  0  0  0
 19 37  1  0  0  0  0
 20 38  1  0  0  0  0
 20 39  1  0  0  0  0
M  CHG  1   6   1
M  END
> <s_m_source_file>
AV-unprocessed.smi

> <i_m_source_file_index>
1813

> <i_lp_mmshare_version>
43012

> <i_f3d_flags>
0

> <s_epik_input>
W0NIM11bTkhdQyg9TylbQ0gyXU4xW0NIMl1bQ0gyXVtDSF0oW0NIMl1bQ0gyXTEpW05IXUMoPU8pW05IXWMybltjSF1bY0hdczI=

> <s_epik_cmdline>
J2VwaWtfcHl0aG9uJywgJy1waCcsICc3LjAnLCAnLXRuJywgJzgnLCAnLW1hJywgJzIwMCcsICctbWV0YWxfYmluZGluZycsICctaW1hZScsICc8aW5maWxlLm1hZT4nLCAnLW9tYWUnLCAnPG91dGZpbGUubWFlPic=

> <r_lp_tautomer_probability>
0.999

> <r_epik_Ionization_Penalty>
0.862509

> <r_epik_Ionization_Penalty_Charging>
0.862349

> <r_epik_Ionization_Penalty_Neutral>
0.000159522

> <r_epik_State_Penalty>
0.898939

> <r_epik_Charging_Adjusted_Penalty>
1.76129

> <i_epik_Tot_Q>
1

> <i_epik_Tot_abs_Q>
1

> <r_epik_Metal_State_Penalty>
0.936827

> <b_epik_Metal_Only>
0

> <s_lp_Force_Field>
OPLS_2005

> <r_lp_Energy>
11.766

> <b_lp_Chiralities_Consistent>
1

> <s_lp_Variant>
AV-unprocessed.smi:1813-3

> <Gold.Version>
5.8.1

> <Gold.Id.Protein>
6NUR|6NUR_protein|mol2

> <Gold.PLP.Fitness>
51.2290

> <Gold.PLP.PLP>
-34.6139

> <Gold.PLP.part.hbond>
-7.0000

> <Gold.PLP.part.metal>
0.0000

> <Gold.PLP.part.buried>
4.1927

> <Gold.PLP.part.nonpolar>
-33.0526

> <Gold.PLP.part.repulsive>
0.7642

> <Gold.PLP.ligand.clash>
0.0000

> <Gold.PLP.ligand.torsion>
0.7028

> <Gold.PLP.Chemscore.Hbond>
6.0000

> <Gold.PLP.Chemscore.CHOScore>
0.0000

> <Gold.PLP.Chemscore.Metal>
0.0000

> <Gold.Chemscore.Hbonds>
donor molecule, donor type, donor heavy atom, donor atom, acceptor molecule, acceptor atom, score
      L1  H     2    24       P1  7948  0.94
      L1  H     6    40       P1  7948  2.00
      L1  H    10    32       P1 10175  1.00
      L1  H    13    33       P1 10175  0.99
      P1  H  7989  7998       L1     4  1.00

> <Gold.PLP.Chemscore.Internal.Correction>
0.0208

> <Gold.Rescore>
     Score         DG    S(hbond)    S(metal)    S(lipo)     H(rot)  DE(clash)    DE(int)     intcor
     18.64     -24.37       4.68        0.00      67.06       1.79       3.87       1.86       ----

> <Gold.Chemscore.Fitness>
18.6402

> <Gold.Chemscore.DG>
-24.3705

> <Gold.Chemscore.ZeroCoef>
-5.4800

> <Gold.Chemscore.Hbond>
4.6759

> <Gold.Chemscore.Metal>
0.0000

> <Gold.Chemscore.Lipo>
67.0578

> <Gold.Chemscore.Internal_Hbond>
0.0000

> <Gold.Chemscore.DEClash>
3.8703

> <Gold.Chemscore.DEInternal>
1.8600

> <Gold.Chemscore.Rot>
1.7862

> <Gold.Chemscore.Internal.Correction>
   9.000000E+99

> <Gold.Chemscore.Hbonds>
donor molecule, donor type, donor heavy atom, donor atom, acceptor molecule, acceptor atom, score
      L1  H     2    24       P1  7948  0.80
      L1  H     6    40       P1  7948  0.99
      L1  H    10    32       P1 10175  0.98
      L1  H    13    33       P1 10175  0.92
      P1  H  7989  7998       L1     4  0.39

> <Gold.Chemscore.Hbond.Weighted>
-15.6174

> <Gold.Chemscore.Metal.Weighted>
-0.0000

> <Gold.Chemscore.Lipo.Weighted>
-7.8458

> <Gold.Chemscore.Internal_Hbond.Weighted>
0.0000

> <Gold.Chemscore.DEClash.Weighted>
3.8703

> <Gold.Chemscore.DEInternal.Weighted>
1.8600

> <Gold.Chemscore.Rot.Weighted>
4.5726

> <Gold.Chemscore.Internal.Correction.Weighted>
   9.000000E+99

> <Gold.Protein.RotatedTorsions>
[ 6907 6896 6895 6894 ] final  -40.13 input  -60.11 | X-H torsion
[ 7974 7965 7964 7962 ] final   -1.76 input  175.53 | X-H torsion
[ 8008 7997 7996 7995 ] final  -92.68 input   59.86 | X-H torsion
[ 10167 10162 10161 10158 ] final   69.62 input  -65.29 | X-H torsion
[ 10718 10713 10712 10709 ] final   66.70 input   66.30 | X-H torsion
[ 10763 10752 10751 10750 ] final -139.59 input  -60.55 | X-H torsion
[ 11005 11000 10999 10996 ] final   70.12 input  -57.11 | X-H torsion

> <Gold.Protein.ActiveResidues>
 VAL166  LYS551  ARG553  GLY616  TRP617  ASP618  TYR619  PRO620  LYS621  CYS622 
 ASP623  PHE694  ASN695  SER759  ASP760  ASP761  ALA762  ILE779  LEU786  VAL792 
 PHE793  MET794  SER795  GLU796  ALA797  LYS798  CYS799  TRP800  GLU811  SER814 

> <Gold.Protein.RotatedAtoms>
  150.9821  134.9174  159.7850 H   0  0  0  0  0  0  0  0  0  0  0  0  # atno 6907 bound_to 6896
  152.5225  134.3396  159.9222 H   0  0  0  0  0  0  0  0  0  0  0  0  # atno 6908 bound_to 6896
  151.3403  133.3924  159.2705 H   0  0  0  0  0  0  0  0  0  0  0  0  # atno 6909 bound_to 6896
  146.2413  140.1469  142.8334 H   0  0  0  0  0  0  0  0  0  0  0  0  # atno 7974 bound_to 7965
  154.7261  140.0506  157.0684 H   0  0  0  0  0  0  0  0  0  0  0  0  # atno 8008 bound_to 7997
  155.0363  140.3163  155.4721 H   0  0  0  0  0  0  0  0  0  0  0  0  # atno 8009 bound_to 7997
  156.2829  140.2141  156.5485 H   0  0  0  0  0  0  0  0  0  0  0  0  # atno 8010 bound_to 7997
  140.0658  144.5194  150.7262 H   0  0  0  0  0  0  0  0  0  0  0  0  # atno 10167 bound_to 10162
  157.6185  130.9282  150.0144 H   0  0  0  0  0  0  0  0  0  0  0  0  # atno 10718 bound_to 10713
  154.8604  135.3578  154.5571 H   0  0  0  0  0  0  0  0  0  0  0  0  # atno 10763 bound_to 10752
  153.6188  135.7007  153.5323 H   0  0  0  0  0  0  0  0  0  0  0  0  # atno 10764 bound_to 10752
  153.3147  135.4168  155.1326 H   0  0  0  0  0  0  0  0  0  0  0  0  # atno 10765 bound_to 10752
  139.9615  134.7052  156.0635 H   0  0  0  0  0  0  0  0  0  0  0  0  # atno 11005 bound_to 11000
  145.0200  140.8785  143.5172 LP  0  0  0  0  0  0  0  0  0  0  0  0  # atno 17320 bound_to 7965
  145.1516  139.2511  143.5438 LP  0  0  0  0  0  0  0  0  0  0  0  0  # atno 17321 bound_to 7965
  140.7150  143.2536  151.4464 LP  0  0  0  0  0  0  0  0  0  0  0  0  # atno 17342 bound_to 10162
  139.5866  144.1591  152.2036 LP  0  0  0  0  0  0  0  0  0  0  0  0  # atno 17343 bound_to 10162
  156.1319  130.3643  149.9718 LP  0  0  0  0  0  0  0  0  0  0  0  0  # atno 17370 bound_to 10713
  156.7777  130.9210  151.3645 LP  0  0  0  0  0  0  0  0  0  0  0  0  # atno 17371 bound_to 10713
  141.1293  133.6591  156.3420 LP  0  0  0  0  0  0  0  0  0  0  0  0  # atno 17394 bound_to 11000
  140.5489  134.6047  157.5402 LP  0  0  0  0  0  0  0  0  0  0  0  0  # atno 17395 bound_to 11000

$$$$
