AV-unprocessed.smi:1047|AV-procd|sdf|4595|dock5
  -GOLD-   22720 3 83D 1   1.00000     0.00000
 Structure written by MMmdl.
 55 57  0  0  0  0  0  0  0  0  1 V2000
  143.5860  147.0176  155.8605 C   0  0  0  0  0  0  0  0  0  0  0  0
  142.7259  145.7478  155.7844 C   0  0  0  0  0  0  0  0  0  0  0  0
  143.4315  144.5057  156.0952 N   0  0  0  0  0  0  0  0  0  0  0  0
  144.1108  144.5987  157.3826 C   0  0  0  0  0  0  0  0  0  0  0  0
  144.8672  143.3054  157.7285 C   0  0  0  0  0  0  0  0  0  0  0  0
  145.7850  143.0005  156.6839 O   0  0  0  0  0  0  0  0  0  0  0  0
  145.1505  142.8353  155.4178 C   0  0  2  0  0  0  0  0  0  0  0  0
  146.2290  142.4961  154.3794 C   0  0  0  0  0  0  0  0  0  0  0  0
  146.9104  141.2529  154.7236 N   0  0  0  0  0  0  0  0  0  0  0  0
  147.9951  140.9057  153.8110 C   0  0  0  0  0  0  0  0  0  0  0  0
  149.2531  140.4708  154.5819 C   0  0  1  0  0  0  0  0  0  0  0  0
  150.1306  139.8194  153.6832 O   0  0  0  0  0  0  0  0  0  0  0  0
  149.9848  141.6727  155.2095 C   0  0  0  0  0  0  0  0  0  0  0  0
  150.9539  141.2673  156.2120 N   0  0  0  0  0  0  0  0  0  0  0  0
  151.7256  140.1633  156.2015 C   0  0  0  0  0  0  0  0  0  0  0  0
  152.5460  139.9838  157.2328 N   0  0  0  0  0  0  0  0  0  0  0  0
  152.2746  141.1022  158.0026 C   0  0  0  0  0  0  0  0  0  0  0  0
  152.8122  141.5156  159.2412 C   0  0  0  0  0  0  0  0  0  0  0  0
  152.3819  142.7140  159.8545 C   0  0  0  0  0  0  0  0  0  0  0  0
  152.9868  143.1205  161.1868 C   0  0  0  0  0  0  0  0  0  0  0  0
  151.3985  143.5203  159.2266 C   0  0  0  0  0  0  0  0  0  0  0  0
  150.9240  144.8140  159.8641 C   0  0  0  0  0  0  0  0  0  0  0  0
  150.8494  143.1207  157.9901 C   0  0  0  0  0  0  0  0  0  0  0  0
  151.2854  141.9262  157.3904 C   0  0  0  0  0  0  0  0  0  0  0  0
  144.4068  144.1405  155.0697 C   0  0  0  0  0  0  0  0  0  0  0  0
  143.0236  147.8819  155.5068 H   0  0  0  0  0  0  0  0  0  0  0  0
  144.4775  146.9264  155.2393 H   0  0  0  0  0  0  0  0  0  0  0  0
  143.9037  147.2348  156.8801 H   0  0  0  0  0  0  0  0  0  0  0  0
  141.8580  145.8558  156.4367 H   0  0  0  0  0  0  0  0  0  0  0  0
  142.3317  145.6825  154.7694 H   0  0  0  0  0  0  0  0  0  0  0  0
  144.8137  145.4333  157.3701 H   0  0  0  0  0  0  0  0  0  0  0  0
  143.3864  144.8127  158.1693 H   0  0  0  0  0  0  0  0  0  0  0  0
  145.4162  143.4254  158.6625 H   0  0  0  0  0  0  0  0  0  0  0  0
  144.1734  142.4749  157.8681 H   0  0  0  0  0  0  0  0  0  0  0  0
  144.4284  142.0179  155.4734 H   0  0  0  0  0  0  0  0  0  0  0  0
  145.7663  142.3913  153.3972 H   0  0  0  0  0  0  0  0  0  0  0  0
  146.9421  143.3181  154.3035 H   0  0  0  0  0  0  0  0  0  0  0  0
  147.2638  141.3092  155.6737 H   0  0  0  0  0  0  0  0  0  0  0  0
  147.6829  140.1283  153.1123 H   0  0  0  0  0  0  0  0  0  0  0  0
  148.2374  141.7819  153.2081 H   0  0  0  0  0  0  0  0  0  0  0  0
  148.9801  139.7722  155.3744 H   0  0  0  0  0  0  0  0  0  0  0  0
  149.7097  139.7637  152.8392 H   0  0  0  0  0  0  0  0  0  0  0  0
  150.4960  142.2559  154.4419 H   0  0  0  0  0  0  0  0  0  0  0  0
  149.2683  142.3438  155.6850 H   0  0  0  0  0  0  0  0  0  0  0  0
  151.6792  139.4486  155.3926 H   0  0  0  0  0  0  0  0  0  0  0  0
  153.5612  140.9010  159.7186 H   0  0  0  0  0  0  0  0  0  0  0  0
  153.5069  144.0743  161.0944 H   0  0  0  0  0  0  0  0  0  0  0  0
  153.7046  142.3800  161.5411 H   0  0  0  0  0  0  0  0  0  0  0  0
  152.2099  143.2214  161.9449 H   0  0  0  0  0  0  0  0  0  0  0  0
  150.1660  145.3040  159.2525 H   0  0  0  0  0  0  0  0  0  0  0  0
  151.7564  145.5079  159.9848 H   0  0  0  0  0  0  0  0  0  0  0  0
  150.4883  144.6208  160.8446 H   0  0  0  0  0  0  0  0  0  0  0  0
  150.0982  143.7233  157.5013 H   0  0  0  0  0  0  0  0  0  0  0  0
  143.9096  144.0112  154.1088 H   0  0  0  0  0  0  0  0  0  0  0  0
  145.1292  144.9484  154.9422 H   0  0  0  0  0  0  0  0  0  0  0  0
  1  2  1  0  0  0  0
  1 26  1  0  0  0  0
  1 27  1  0  0  0  0
  1 28  1  0  0  0  0
  2  3  1  0  0  0  0
  2 29  1  0  0  0  0
  2 30  1  0  0  0  0
  3 25  1  0  0  0  0
  3  4  1  0  0  0  0
  4  5  1  0  0  0  0
  4 31  1  0  0  0  0
  4 32  1  0  0  0  0
  5  6  1  0  0  0  0
  5 33  1  0  0  0  0
  5 34  1  0  0  0  0
  6  7  1  0  0  0  0
  7  8  1  0  0  0  0
  7 25  1  0  0  0  0
  7 35  1  0  0  0  0
  8  9  1  0  0  0  0
  8 36  1  0  0  0  0
  8 37  1  0  0  0  0
  9 10  1  0  0  0  0
  9 38  1  0  0  0  0
 10 11  1  0  0  0  0
 10 39  1  0  0  0  0
 10 40  1  0  0  0  0
 11 12  1  0  0  0  0
 11 13  1  0  0  0  0
 11 41  1  0  0  0  0
 12 42  1  0  0  0  0
 13 14  1  0  0  0  0
 13 43  1  0  0  0  0
 13 44  1  0  0  0  0
 14 24  1  0  0  0  0
 14 15  1  0  0  0  0
 15 16  2  0  0  0  0
 15 45  1  0  0  0  0
 16 17  1  0  0  0  0
 17 24  2  0  0  0  0
 17 18  1  0  0  0  0
 18 19  2  0  0  0  0
 18 46  1  0  0  0  0
 19 20  1  0  0  0  0
 19 21  1  0  0  0  0
 20 47  1  0  0  0  0
 20 48  1  0  0  0  0
 20 49  1  0  0  0  0
 21 22  1  0  0  0  0
 21 23  2  0  0  0  0
 22 50  1  0  0  0  0
 22 51  1  0  0  0  0
 22 52  1  0  0  0  0
 23 24  1  0  0  0  0
 23 53  1  0  0  0  0
 25 54  1  0  0  0  0
 25 55  1  0  0  0  0
M  END
> <s_m_source_file>
AV-unprocessed.smi

> <i_m_source_file_index>
1047

> <i_lp_mmshare_version>
43012

> <i_f3d_flags>
0

> <s_epik_input>
W0NIM11bQ0gyXU4xW0NIMl1bQ0gyXU9bQ0BIXShbQ0gyXTEpW0NIMl1bTkhdW0NIMl1bQ0BIXShbT0hdKVtDSDJdbihbY0hdbjIpYyhjMjMpW2NIXWMoW0NIM10pYyhbY0hdMylbQ0gzXQ==

> <s_epik_cmdline>
J2VwaWtfcHl0aG9uJywgJy1waCcsICc3LjAnLCAnLXRuJywgJzgnLCAnLW1hJywgJzIwMCcsICctbWV0YWxfYmluZGluZycsICctaW1hZScsICc8aW5maWxlLm1hZT4nLCAnLW9tYWUnLCAnPG91dGZpbGUubWFlPic=

> <r_epik_Ionization_Penalty>
2.74124

> <r_epik_Ionization_Penalty_Charging>
0

> <r_epik_Ionization_Penalty_Neutral>
2.74124

> <r_epik_State_Penalty>
2.37482

> <r_epik_Charging_Adjusted_Penalty>
2.37482

> <i_epik_Tot_Q>
0

> <i_epik_Tot_abs_Q>
0

> <r_epik_Metal_State_Penalty>
2.25944

> <b_epik_Metal_Only>
0

> <s_lp_Force_Field>
OPLS_2005

> <r_lp_Energy>
34.1371

> <b_lp_Chiralities_Consistent>
1

> <s_lp_Variant>
AV-unprocessed.smi:1047-36

> <Gold.Version>
5.8.1

> <Gold.Id.Protein>
6NUR|6NUR_protein|mol2

> <Gold.PLP.Fitness>
58.7714

> <Gold.PLP.PLP>
-51.9841

> <Gold.PLP.part.hbond>
-3.0000

> <Gold.PLP.part.metal>
0.0000

> <Gold.PLP.part.buried>
-5.5331

> <Gold.PLP.part.nonpolar>
-43.5047

> <Gold.PLP.part.repulsive>
0.1854

> <Gold.PLP.ligand.clash>
0.0000

> <Gold.PLP.ligand.torsion>
0.9323

> <Gold.PLP.Chemscore.Hbond>
2.8320

> <Gold.PLP.Chemscore.CHOScore>
0.0000

> <Gold.PLP.Chemscore.Metal>
0.0000

> <Gold.Chemscore.Hbonds>
donor molecule, donor type, donor heavy atom, donor atom, acceptor molecule, acceptor atom, score
      L1  H    12    42       P1  7957  1.00
      P1  H  7989  7998       L1    12  0.83
      P1  H  7997  8008       L1    16  1.00

> <Gold.PLP.Chemscore.Internal.Correction>
0.1560

> <Gold.Rescore>
     Score         DG    S(hbond)    S(metal)    S(lipo)     H(rot)  DE(clash)    DE(int)     intcor
     19.70     -22.02       2.34        0.00     129.88       2.52       0.19       2.13       ----

> <Gold.Chemscore.Fitness>
19.7035

> <Gold.Chemscore.DG>
-22.0235

> <Gold.Chemscore.ZeroCoef>
-5.4800

> <Gold.Chemscore.Hbond>
2.3377

> <Gold.Chemscore.Metal>
0.0000

> <Gold.Chemscore.Lipo>
129.8815

> <Gold.Chemscore.Internal_Hbond>
0.0000

> <Gold.Chemscore.DEClash>
0.1858

> <Gold.Chemscore.DEInternal>
2.1342

> <Gold.Chemscore.Rot>
2.5237

> <Gold.Chemscore.Internal.Correction>
   9.000000E+99

> <Gold.Chemscore.Hbonds>
donor molecule, donor type, donor heavy atom, donor atom, acceptor molecule, acceptor atom, score
      L1  H    12    42       P1  7957  0.97
      P1  H  7989  7998       L1    12  0.32
      P1  H  7997  8008       L1    16  0.47

> <Gold.Chemscore.Hbond.Weighted>
-7.8080

> <Gold.Chemscore.Metal.Weighted>
-0.0000

> <Gold.Chemscore.Lipo.Weighted>
-15.1961

> <Gold.Chemscore.Internal_Hbond.Weighted>
0.0000

> <Gold.Chemscore.DEClash.Weighted>
0.1858

> <Gold.Chemscore.DEInternal.Weighted>
2.1342

> <Gold.Chemscore.Rot.Weighted>
6.4607

> <Gold.Chemscore.Internal.Correction.Weighted>
   9.000000E+99

> <Gold.Protein.RotatedTorsions>
[ 6907 6896 6895 6894 ] final  176.12 input  -60.11 | X-H torsion
[ 7974 7965 7964 7962 ] final  118.79 input  175.53 | X-H torsion
[ 8008 7997 7996 7995 ] final  -62.44 input   59.86 | X-H torsion
[ 10167 10162 10161 10158 ] final   -5.90 input  -65.29 | X-H torsion
[ 10718 10713 10712 10709 ] final -137.45 input   66.30 | X-H torsion
[ 10763 10752 10751 10750 ] final  146.27 input  -60.55 | X-H torsion
[ 11005 11000 10999 10996 ] final  148.60 input  -57.11 | X-H torsion

> <Gold.Protein.ActiveResidues>
 VAL166  LYS551  ARG553  GLY616  TRP617  ASP618  TYR619  PRO620  LYS621  CYS622 
 ASP623  PHE694  ASN695  SER759  ASP760  ASP761  ALA762  ILE779  LEU786  VAL792 
 PHE793  MET794  SER795  GLU796  ALA797  LYS798  CYS799  TRP800  GLU811  SER814 

> <Gold.Protein.RotatedAtoms>
  151.7253  133.3316  159.3325 H   0  0  0  0  0  0  0  0  0  0  0  0  # atno 6907 bound_to 6896
  150.7635  134.6412  159.6247 H   0  0  0  0  0  0  0  0  0  0  0  0  # atno 6908 bound_to 6896
  152.3626  134.6852  160.0254 H   0  0  0  0  0  0  0  0  0  0  0  0  # atno 6909 bound_to 6896
  145.1509  139.3211  143.4567 H   0  0  0  0  0  0  0  0  0  0  0  0  # atno 7974 bound_to 7965
  154.4500  140.0996  156.6588 H   0  0  0  0  0  0  0  0  0  0  0  0  # atno 8008 bound_to 7997
  155.5316  140.3481  155.4409 H   0  0  0  0  0  0  0  0  0  0  0  0  # atno 8009 bound_to 7997
  156.0660  140.1338  156.9874 H   0  0  0  0  0  0  0  0  0  0  0  0  # atno 8010 bound_to 7997
  140.6979  143.6255  150.8572 H   0  0  0  0  0  0  0  0  0  0  0  0  # atno 10167 bound_to 10162
  156.2883  130.7360  151.1378 H   0  0  0  0  0  0  0  0  0  0  0  0  # atno 10718 bound_to 10713
  154.0192  135.2907  155.3383 H   0  0  0  0  0  0  0  0  0  0  0  0  # atno 10763 bound_to 10752
  154.7056  135.5170  153.8594 H   0  0  0  0  0  0  0  0  0  0  0  0  # atno 10764 bound_to 10752
  153.0689  135.6640  154.0415 H   0  0  0  0  0  0  0  0  0  0  0  0  # atno 10765 bound_to 10752
  140.0974  134.9004  157.1743 H   0  0  0  0  0  0  0  0  0  0  0  0  # atno 11005 bound_to 11000
  146.3494  140.1583  142.8591 LP  0  0  0  0  0  0  0  0  0  0  0  0  # atno 17320 bound_to 7965
  145.0431  140.8961  143.5040 LP  0  0  0  0  0  0  0  0  0  0  0  0  # atno 17321 bound_to 7965
  139.9975  143.5780  152.2888 LP  0  0  0  0  0  0  0  0  0  0  0  0  # atno 17342 bound_to 10162
  139.6457  144.7658  151.2248 LP  0  0  0  0  0  0  0  0  0  0  0  0  # atno 17343 bound_to 10162
  157.7335  131.0590  150.5574 LP  0  0  0  0  0  0  0  0  0  0  0  0  # atno 17370 bound_to 10713
  156.5687  130.4274  149.6029 LP  0  0  0  0  0  0  0  0  0  0  0  0  # atno 17371 bound_to 10713
  140.3268  134.2855  155.7235 LP  0  0  0  0  0  0  0  0  0  0  0  0  # atno 17394 bound_to 11000
  141.2096  133.7745  156.9988 LP  0  0  0  0  0  0  0  0  0  0  0  0  # atno 17395 bound_to 11000

$$$$
