AV-unprocessed.smi:69|AV-procd|sdf|656|dock2
  -GOLD-   2262016553D 1   1.00000     0.00000
 Structure written by MMmdl.
 32 34  0  0  0  0  0  0  0  0  1 V2000
  147.6735  142.4187  154.4389 N   0  0  0  0  0  0  0  0  0  0  0  0
  148.2992  141.2373  154.3454 C   0  0  0  0  0  0  0  0  0  0  0  0
  147.7238  140.2606  153.6050 N   0  0  0  0  0  0  0  0  0  0  0  0
  148.3315  139.0745  153.4918 C   0  0  0  0  0  0  0  0  0  0  0  0
  149.4880  138.6725  154.0270 N   0  0  0  0  0  0  0  0  0  0  0  0
  150.0626  139.6597  154.7751 C   0  0  0  0  0  0  0  0  0  0  0  0
  149.5358  140.9636  154.9825 C   0  0  0  0  0  0  0  0  0  0  0  0
  150.3939  141.6953  155.7924 N   0  0  0  0  0  0  0  0  0  0  0  0
  151.3735  140.8675  156.0427 C   0  0  0  0  0  0  0  0  0  0  0  0
  151.2475  139.6147  155.4772 N   0  0  0  0  0  0  0  0  0  0  0  0
  152.1770  138.4413  155.5401 C   0  0  1  0  0  0  0  0  0  0  0  0
  153.2348  138.7683  156.3908 O   0  0  0  0  0  0  0  0  0  0  0  0
  152.9626  138.2721  157.6970 C   0  0  2  0  0  0  0  0  0  0  0  0
  154.2355  138.2349  158.5602 C   0  0  0  0  0  0  0  0  0  0  0  0
  154.6797  139.5492  158.8222 O   0  0  0  0  0  0  0  0  0  0  0  0
  152.3284  136.9117  157.3855 C   0  0  2  0  0  0  0  0  0  0  0  0
  153.3313  135.9490  157.1024 O   0  0  0  0  0  0  0  0  0  0  0  0
  151.4581  137.2316  156.1701 C   0  0  2  0  0  0  0  0  0  0  0  0
  151.3231  136.1331  155.2875 O   0  0  0  0  0  0  0  0  0  0  0  0
  152.5195  138.2979  154.5143 H   0  0  0  0  0  0  0  0  0  0  0  0
  152.2072  138.9006  158.1730 H   0  0  0  0  0  0  0  0  0  0  0  0
  151.7309  136.5430  158.2200 H   0  0  0  0  0  0  0  0  0  0  0  0
  150.4659  137.5339  156.5095 H   0  0  0  0  0  0  0  0  0  0  0  0
  148.0850  143.1627  154.9839 H   0  0  0  0  0  0  0  0  0  0  0  0
  146.7973  142.5655  153.9590 H   0  0  0  0  0  0  0  0  0  0  0  0
  147.8176  138.3432  152.8855 H   0  0  0  0  0  0  0  0  0  0  0  0
  152.2180  141.1570  156.6515 H   0  0  0  0  0  0  0  0  0  0  0  0
  154.0237  137.7645  159.5209 H   0  0  0  0  0  0  0  0  0  0  0  0
  155.0266  137.6574  158.0809 H   0  0  0  0  0  0  0  0  0  0  0  0
  153.9305  140.0806  159.0444 H   0  0  0  0  0  0  0  0  0  0  0  0
  153.9695  135.9724  157.7995 H   0  0  0  0  0  0  0  0  0  0  0  0
  151.1076  136.4665  154.4295 H   0  0  0  0  0  0  0  0  0  0  0  0
  1  2  1  0  0  0  0
  1 24  1  0  0  0  0
  1 25  1  0  0  0  0
  2  7  1  0  0  0  0
  2  3  2  0  0  0  0
  3  4  1  0  0  0  0
  4  5  2  0  0  0  0
  4 26  1  0  0  0  0
  5  6  1  0  0  0  0
  6 10  1  0  0  0  0
  6  7  2  0  0  0  0
  7  8  1  0  0  0  0
  8  9  2  0  0  0  0
  9 10  1  0  0  0  0
  9 27  1  0  0  0  0
 10 11  1  0  0  0  0
 11 20  1  0  0  0  0
 11 18  1  0  0  0  0
 11 12  1  0  0  0  0
 12 13  1  0  0  0  0
 13 21  1  0  0  0  0
 13 14  1  0  0  0  0
 13 16  1  0  0  0  0
 14 15  1  0  0  0  0
 14 28  1  0  0  0  0
 14 29  1  0  0  0  0
 15 30  1  0  0  0  0
 16 22  1  0  0  0  0
 16 17  1  0  0  0  0
 16 18  1  0  0  0  0
 17 31  1  0  0  0  0
 18 23  1  0  0  0  0
 18 19  1  0  0  0  0
 19 32  1  0  0  0  0
M  END
> <s_m_source_file>
AV-unprocessed.smi

> <i_m_source_file_index>
69

> <i_lp_mmshare_version>
43012

> <i_f3d_flags>
0

> <s_epik_input>
bjFbY0hdbmMoW05IMl0pYyhjMTIpbltjSF1uMltDQEBIXTNPW0NASF0oW0NIMl1bT0hdKVtDQEBIXShbT0hdKVtDQEhdM1tPSF0=

> <s_epik_cmdline>
J2VwaWtfcHl0aG9uJywgJy1waCcsICc3LjAnLCAnLXRuJywgJzgnLCAnLW1hJywgJzIwMCcsICctbWV0YWxfYmluZGluZycsICctaW1hZScsICc8aW5maWxlLm1hZT4nLCAnLW9tYWUnLCAnPG91dGZpbGUubWFlPic=

> <r_lp_tautomer_probability>
1

> <r_epik_Ionization_Penalty>
0.000428445

> <r_epik_Ionization_Penalty_Charging>
0

> <r_epik_Ionization_Penalty_Neutral>
0.000428445

> <r_epik_State_Penalty>
-0

> <r_epik_Charging_Adjusted_Penalty>
0

> <i_epik_Tot_Q>
0

> <i_epik_Tot_abs_Q>
0

> <r_epik_Metal_State_Penalty>
-0

> <b_epik_Metal_Only>
0

> <s_epik_Chemistry_Notes>
This compound contains an acetal/aminal-like group ( X-CH(R)-Y where X, Y are N, S, or O) that may be acid/base labile, releasing an aldehyde.

> <s_lp_Force_Field>
OPLS_2005

> <r_lp_Energy>
39.6726

> <b_lp_Chiralities_Consistent>
1

> <s_lp_Variant>
AV-unprocessed.smi:69-14

> <Gold.Version>
5.8.1

> <Gold.Id.Protein>
6NUR|6NUR_protein|mol2

> <Gold.PLP.Fitness>
39.2296

> <Gold.PLP.PLP>
-25.8940

> <Gold.PLP.part.hbond>
-5.0000

> <Gold.PLP.part.metal>
0.0000

> <Gold.PLP.part.buried>
-2.8254

> <Gold.PLP.part.nonpolar>
-19.7319

> <Gold.PLP.part.repulsive>
1.1347

> <Gold.PLP.ligand.clash>
0.0000

> <Gold.PLP.ligand.torsion>
0.0287

> <Gold.PLP.Chemscore.Hbond>
3.5360

> <Gold.PLP.Chemscore.CHOScore>
0.9203

> <Gold.PLP.Chemscore.Metal>
0.0000

> <Gold.Chemscore.Hbonds>
donor molecule, donor type, donor heavy atom, donor atom, acceptor molecule, acceptor atom, score
      L1  H     1    24       P1  8028  1.00
      P1  H  7997  8008       L1    15  0.74
      P1  H  7997  8009       L1    12  0.80
      P1  H 10752 10765       L1    17  1.00
      L1  C     4    26       P1  7948  0.75

> <Gold.PLP.Chemscore.Internal.Correction>
0.0240

> <Gold.Rescore>
     Score         DG    S(hbond)    S(metal)    S(lipo)     H(rot)  DE(clash)    DE(int)     intcor
      9.02      -9.12       3.34        0.00      24.05       4.03       0.03       0.07       ----

> <Gold.Chemscore.Fitness>
9.0249

> <Gold.Chemscore.DG>
-9.1238

> <Gold.Chemscore.ZeroCoef>
-5.4800

> <Gold.Chemscore.Hbond>
3.3355

> <Gold.Chemscore.Metal>
0.0000

> <Gold.Chemscore.Lipo>
24.0527

> <Gold.Chemscore.Internal_Hbond>
0.0000

> <Gold.Chemscore.DEClash>
0.0270

> <Gold.Chemscore.DEInternal>
0.0719

> <Gold.Chemscore.Rot>
4.0277

> <Gold.Chemscore.Internal.Correction>
   9.000000E+99

> <Gold.Chemscore.Hbonds>
donor molecule, donor type, donor heavy atom, donor atom, acceptor molecule, acceptor atom, score
      L1  H     1    24       P1  8028  0.93
      P1  H  7997  8008       L1    15  0.33
      P1  H  7997  8009       L1    12  0.78
      P1  H 10752 10765       L1    17  0.97

> <Gold.Chemscore.Hbond.Weighted>
-11.1406

> <Gold.Chemscore.Metal.Weighted>
-0.0000

> <Gold.Chemscore.Lipo.Weighted>
-2.8142

> <Gold.Chemscore.Internal_Hbond.Weighted>
0.0000

> <Gold.Chemscore.DEClash.Weighted>
0.0270

> <Gold.Chemscore.DEInternal.Weighted>
0.0719

> <Gold.Chemscore.Rot.Weighted>
10.3110

> <Gold.Chemscore.Internal.Correction.Weighted>
   9.000000E+99

> <Gold.Protein.RotatedTorsions>
[ 6907 6896 6895 6894 ] final -155.65 input  -60.11 | X-H torsion
[ 7974 7965 7964 7962 ] final -169.54 input  175.53 | X-H torsion
[ 8008 7997 7996 7995 ] final -146.74 input   59.86 | X-H torsion
[ 10167 10162 10161 10158 ] final  171.14 input  -65.29 | X-H torsion
[ 10718 10713 10712 10709 ] final   30.70 input   66.30 | X-H torsion
[ 10763 10752 10751 10750 ] final -104.46 input  -60.55 | X-H torsion
[ 11005 11000 10999 10996 ] final  -69.54 input  -57.11 | X-H torsion

> <Gold.Protein.ActiveResidues>
 VAL166  LYS551  ARG553  GLY616  TRP617  ASP618  TYR619  PRO620  LYS621  CYS622 
 ASP623  PHE694  ASN695  SER759  ASP760  ASP761  ALA762  ILE779  LEU786  VAL792 
 PHE793  MET794  SER795  GLU796  ALA797  LYS798  CYS799  TRP800  GLU811  SER814 

> <Gold.Protein.RotatedAtoms>
  151.2757  133.4234  159.2623 H   0  0  0  0  0  0  0  0  0  0  0  0  # atno 6907 bound_to 6896
  151.0405  134.9604  159.8169 H   0  0  0  0  0  0  0  0  0  0  0  0  # atno 6908 bound_to 6896
  152.5364  134.2715  159.9026 H   0  0  0  0  0  0  0  0  0  0  0  0  # atno 6909 bound_to 6896
  144.7184  140.2205  143.6316 H   0  0  0  0  0  0  0  0  0  0  0  0  # atno 7974 bound_to 7965
  155.5643  140.0628  157.2821 H   0  0  0  0  0  0  0  0  0  0  0  0  # atno 8008 bound_to 7997
  154.4380  140.1880  156.0860 H   0  0  0  0  0  0  0  0  0  0  0  0  # atno 8009 bound_to 7997
  156.0423  140.3294  155.7262 H   0  0  0  0  0  0  0  0  0  0  0  0  # atno 8010 bound_to 7997
  139.5038  144.3519  151.9914 H   0  0  0  0  0  0  0  0  0  0  0  0  # atno 10167 bound_to 10162
  157.2630  130.7170  149.6464 H   0  0  0  0  0  0  0  0  0  0  0  0  # atno 10718 bound_to 10713
  154.7879  135.4785  153.9987 H   0  0  0  0  0  0  0  0  0  0  0  0  # atno 10763 bound_to 10752
  153.1587  135.6805  153.8781 H   0  0  0  0  0  0  0  0  0  0  0  0  # atno 10764 bound_to 10752
  153.8401  135.3180  155.3403 H   0  0  0  0  0  0  0  0  0  0  0  0  # atno 10765 bound_to 10752
  141.1556  133.6767  156.6615 H   0  0  0  0  0  0  0  0  0  0  0  0  # atno 11005 bound_to 11000
  145.8505  139.2173  143.1775 LP  0  0  0  0  0  0  0  0  0  0  0  0  # atno 17320 bound_to 7965
  146.0265  140.8299  142.9897 LP  0  0  0  0  0  0  0  0  0  0  0  0  # atno 17321 bound_to 7965
  140.2956  144.3705  150.6075 LP  0  0  0  0  0  0  0  0  0  0  0  0  # atno 17342 bound_to 10162
  140.5913  143.2168  151.7247 LP  0  0  0  0  0  0  0  0  0  0  0  0  # atno 17343 bound_to 10162
  155.9664  130.4391  150.5246 LP  0  0  0  0  0  0  0  0  0  0  0  0  # atno 17370 bound_to 10713
  157.3155  131.0672  151.1970 LP  0  0  0  0  0  0  0  0  0  0  0  0  # atno 17371 bound_to 10713
  140.3244  134.7981  157.4277 LP  0  0  0  0  0  0  0  0  0  0  0  0  # atno 17394 bound_to 11000
  140.1070  134.5396  155.8300 LP  0  0  0  0  0  0  0  0  0  0  0  0  # atno 17395 bound_to 11000

$$$$
