AV-unprocessed.smi:1279|AV-procd|sdf|5355|dock8
  -GOLD-   22720 4493D 1   1.00000     0.00000
 Structure written by MMmdl.
 46 47  0  0  0  0  0  0  0  0  2 V2000
  149.9349  142.1772  155.7843 C   0  0  0  0  0  0  0  0  0  0  0  0
  149.7558  140.8639  155.0818 C   0  0  0  0  0  0  0  0  0  0  0  0
  148.5937  140.3746  154.4171 C   0  0  0  0  0  0  0  0  0  0  0  0
  148.9971  139.1456  153.9715 C   0  0  0  0  0  0  0  0  0  0  0  0
  148.2969  138.2210  153.2619 N   0  0  0  0  0  0  0  0  0  0  0  0
  146.9645  138.0757  153.1560 C   0  0  0  0  0  0  0  0  0  0  0  0
  146.1205  138.7859  153.7031 O   0  0  0  0  0  0  0  0  0  0  0  0
  146.6513  137.0367  152.3684 N   0  0  0  0  0  0  0  0  0  0  0  0
  145.2938  136.6151  152.0421 C   0  0  0  0  0  0  0  0  0  0  0  0
  145.2731  135.6405  150.8483 C   0  0  0  0  0  0  0  0  0  0  0  0
  145.2183  134.2198  151.2761 N   0  3  2  0  0  0  0  0  0  0  0  0
  146.5722  133.6475  151.4942 C   0  0  0  0  0  0  0  0  0  0  0  0
  146.4905  132.2219  152.0655 C   0  0  0  0  0  0  0  0  0  0  0  0
  145.6632  131.3012  151.1535 C   0  0  1  0  0  0  0  0  0  0  0  0
  145.5484  129.8826  151.7291 C   0  0  0  0  0  0  0  0  0  0  0  0
  144.2815  131.9335  150.9184 C   0  0  0  0  0  0  0  0  0  0  0  0
  144.4071  133.3644  150.3692 C   0  0  0  0  0  0  0  0  0  0  0  0
  150.3048  138.9412  154.3520 N   0  0  0  0  0  0  0  0  0  0  0  0
  151.1676  137.8008  154.1124 C   0  0  0  0  0  0  0  0  0  0  0  0
  150.7700  140.0072  155.0383 N   0  0  0  0  0  0  0  0  0  0  0  0
  149.0210  142.7705  155.7492 H   0  0  0  0  0  0  0  0  0  0  0  0
  150.7297  142.7642  155.3231 H   0  0  0  0  0  0  0  0  0  0  0  0
  150.1937  142.0293  156.8331 H   0  0  0  0  0  0  0  0  0  0  0  0
  147.6375  140.8614  154.2983 H   0  0  0  0  0  0  0  0  0  0  0  0
  148.8600  137.5515  152.7583 H   0  0  0  0  0  0  0  0  0  0  0  0
  147.4057  136.5066  151.9566 H   0  0  0  0  0  0  0  0  0  0  0  0
  144.8258  136.1594  152.9165 H   0  0  0  0  0  0  0  0  0  0  0  0
  144.7240  137.5165  151.8199 H   0  0  0  0  0  0  0  0  0  0  0  0
  144.4375  135.8593  150.1814 H   0  0  0  0  0  0  0  0  0  0  0  0
  146.1806  135.7966  150.2633 H   0  0  0  0  0  0  0  0  0  0  0  0
  147.1240  133.6453  150.5526 H   0  0  0  0  0  0  0  0  0  0  0  0
  147.1317  134.2757  152.1882 H   0  0  0  0  0  0  0  0  0  0  0  0
  147.4964  131.8192  152.1892 H   0  0  0  0  0  0  0  0  0  0  0  0
  146.0465  132.2540  153.0616 H   0  0  0  0  0  0  0  0  0  0  0  0
  146.1725  131.2283  150.1913 H   0  0  0  0  0  0  0  0  0  0  0  0
  145.0413  129.8848  152.6945 H   0  0  0  0  0  0  0  0  0  0  0  0
  146.5328  129.4359  151.8714 H   0  0  0  0  0  0  0  0  0  0  0  0
  144.9858  129.2317  151.0589 H   0  0  0  0  0  0  0  0  0  0  0  0
  143.7057  131.3233  150.2215 H   0  0  0  0  0  0  0  0  0  0  0  0
  143.7172  131.9505  151.8521 H   0  0  0  0  0  0  0  0  0  0  0  0
  143.4077  133.7796  150.2465 H   0  0  0  0  0  0  0  0  0  0  0  0
  144.8644  133.3461  149.3786 H   0  0  0  0  0  0  0  0  0  0  0  0
  150.6424  136.8807  154.3700 H   0  0  0  0  0  0  0  0  0  0  0  0
  152.0718  137.8698  154.7193 H   0  0  0  0  0  0  0  0  0  0  0  0
  151.4475  137.7700  153.0593 H   0  0  0  0  0  0  0  0  0  0  0  0
  144.7628  134.2107  152.1778 H   0  0  0  0  0  0  0  0  0  0  0  0
  1  2  1  0  0  0  0
  1 21  1  0  0  0  0
  1 22  1  0  0  0  0
  1 23  1  0  0  0  0
  2 20  2  0  0  0  0
  2  3  1  0  0  0  0
  3  4  2  0  0  0  0
  3 24  1  0  0  0  0
  4  5  1  0  0  0  0
  4 18  1  0  0  0  0
  5  6  1  0  0  0  0
  5 25  1  0  0  0  0
  6  7  2  0  0  0  0
  6  8  1  0  0  0  0
  8  9  1  0  0  0  0
  8 26  1  0  0  0  0
  9 10  1  0  0  0  0
  9 27  1  0  0  0  0
  9 28  1  0  0  0  0
 10 11  1  0  0  0  0
 10 29  1  0  0  0  0
 10 30  1  0  0  0  0
 11 17  1  0  0  0  0
 11 12  1  0  0  0  0
 11 46  1  0  0  0  0
 12 13  1  0  0  0  0
 12 31  1  0  0  0  0
 12 32  1  0  0  0  0
 13 14  1  0  0  0  0
 13 33  1  0  0  0  0
 13 34  1  0  0  0  0
 14 15  1  0  0  0  0
 14 16  1  0  0  0  0
 14 35  1  0  0  0  0
 15 36  1  0  0  0  0
 15 37  1  0  0  0  0
 15 38  1  0  0  0  0
 16 17  1  0  0  0  0
 16 39  1  0  0  0  0
 16 40  1  0  0  0  0
 17 41  1  0  0  0  0
 17 42  1  0  0  0  0
 18 19  1  0  0  0  0
 18 20  1  0  0  0  0
 19 43  1  0  0  0  0
 19 44  1  0  0  0  0
 19 45  1  0  0  0  0
M  CHG  1  11   1
M  END
> <s_m_source_file>
AV-unprocessed.smi

> <i_m_source_file_index>
1279

> <i_lp_mmshare_version>
43012

> <i_f3d_flags>
0

> <s_epik_input>
W0NIM11jMVtjSF1jKG4objEpW0NIM10pW05IXUMoPU8pW05IXVtDSDJdW0NIMl1OMltDSDJdW0NIMl1bQ0hdKFtDSDNdKVtDSDJdW0NIMl0y

> <s_epik_cmdline>
J2VwaWtfcHl0aG9uJywgJy1waCcsICc3LjAnLCAnLXRuJywgJzgnLCAnLW1hJywgJzIwMCcsICctbWV0YWxfYmluZGluZycsICctaW1hZScsICc8aW5maWxlLm1hZT4nLCAnLW9tYWUnLCAnPG91dGZpbGUubWFlPic=

> <r_lp_tautomer_probability>
1

> <r_epik_Ionization_Penalty>
0.00166091

> <r_epik_Ionization_Penalty_Charging>
0.0015841

> <r_epik_Ionization_Penalty_Neutral>
7.68112e-05

> <r_epik_State_Penalty>
0.00106518

> <r_epik_Charging_Adjusted_Penalty>
0.00264928

> <i_epik_Tot_Q>
1

> <i_epik_Tot_abs_Q>
1

> <r_epik_Metal_State_Penalty>
-0

> <b_epik_Metal_Only>
0

> <s_lp_Force_Field>
OPLS_2005

> <r_lp_Energy>
17.7032

> <b_lp_Chiralities_Consistent>
1

> <s_lp_Variant>
AV-unprocessed.smi:1279-1

> <Gold.Version>
5.8.1

> <Gold.Id.Protein>
6NUR|6NUR_protein|mol2

> <Gold.PLP.Fitness>
43.6602

> <Gold.PLP.PLP>
-37.5670

> <Gold.PLP.part.hbond>
-3.6354

> <Gold.PLP.part.metal>
0.0000

> <Gold.PLP.part.buried>
-0.3337

> <Gold.PLP.part.nonpolar>
-35.1960

> <Gold.PLP.part.repulsive>
0.3440

> <Gold.PLP.ligand.clash>
0.0000

> <Gold.PLP.ligand.torsion>
0.8603

> <Gold.PLP.Chemscore.Hbond>
2.5920

> <Gold.PLP.Chemscore.CHOScore>
0.0000

> <Gold.PLP.Chemscore.Metal>
0.0000

> <Gold.Chemscore.Hbonds>
donor molecule, donor type, donor heavy atom, donor atom, acceptor molecule, acceptor atom, score
      L1  H     5    25       P1  7948  1.00
      L1  H     8    26       P1  7948  0.99
      P1  H  7989  7998       L1    20  0.56

> <Gold.PLP.Chemscore.Internal.Correction>
0.0377

> <Gold.Rescore>
     Score         DG    S(hbond)    S(metal)    S(lipo)     H(rot)  DE(clash)    DE(int)     intcor
     17.09     -18.16       1.91        0.00      86.24       1.48       0.06       1.00       ----

> <Gold.Chemscore.Fitness>
17.0938

> <Gold.Chemscore.DG>
-18.1596

> <Gold.Chemscore.ZeroCoef>
-5.4800

> <Gold.Chemscore.Hbond>
1.9126

> <Gold.Chemscore.Metal>
0.0000

> <Gold.Chemscore.Lipo>
86.2403

> <Gold.Chemscore.Internal_Hbond>
0.0000

> <Gold.Chemscore.DEClash>
0.0634

> <Gold.Chemscore.DEInternal>
1.0024

> <Gold.Chemscore.Rot>
1.4838

> <Gold.Chemscore.Internal.Correction>
   9.000000E+99

> <Gold.Chemscore.Hbonds>
donor molecule, donor type, donor heavy atom, donor atom, acceptor molecule, acceptor atom, score
      L1  H     5    25       P1  7948  0.93
      L1  H     8    26       P1  7948  0.90
      P1  H  7989  7998       L1    20  0.01

> <Gold.Chemscore.Hbond.Weighted>
-6.3880

> <Gold.Chemscore.Metal.Weighted>
-0.0000

> <Gold.Chemscore.Lipo.Weighted>
-10.0901

> <Gold.Chemscore.Internal_Hbond.Weighted>
0.0000

> <Gold.Chemscore.DEClash.Weighted>
0.0634

> <Gold.Chemscore.DEInternal.Weighted>
1.0024

> <Gold.Chemscore.Rot.Weighted>
3.7985

> <Gold.Chemscore.Internal.Correction.Weighted>
   9.000000E+99

> <Gold.Protein.RotatedTorsions>
[ 6907 6896 6895 6894 ] final -127.93 input  -60.11 | X-H torsion
[ 7974 7965 7964 7962 ] final  113.81 input  175.53 | X-H torsion
[ 8008 7997 7996 7995 ] final -117.27 input   59.86 | X-H torsion
[ 10167 10162 10161 10158 ] final -101.16 input  -65.29 | X-H torsion
[ 10718 10713 10712 10709 ] final -124.94 input   66.30 | X-H torsion
[ 10763 10752 10751 10750 ] final -109.75 input  -60.55 | X-H torsion
[ 11005 11000 10999 10996 ] final   76.15 input  -57.11 | X-H torsion

> <Gold.Protein.ActiveResidues>
 VAL166  LYS551  ARG553  GLY616  TRP617  ASP618  TYR619  PRO620  LYS621  CYS622 
 ASP623  PHE694  ASN695  SER759  ASP760  ASP761  ALA762  ILE779  LEU786  VAL792 
 PHE793  MET794  SER795  GLU796  ALA797  LYS798  CYS799  TRP800  GLU811  SER814 

> <Gold.Protein.RotatedAtoms>
  150.9125  133.6980  159.2851 H   0  0  0  0  0  0  0  0  0  0  0  0  # atno 6907 bound_to 6896
  151.4462  135.1024  159.9694 H   0  0  0  0  0  0  0  0  0  0  0  0  # atno 6908 bound_to 6896
  152.4937  133.8521  159.7262 H   0  0  0  0  0  0  0  0  0  0  0  0  # atno 6909 bound_to 6896
  145.2123  139.2900  143.4262 H   0  0  0  0  0  0  0  0  0  0  0  0  # atno 7974 bound_to 7965
  155.0810  140.0394  157.2639 H   0  0  0  0  0  0  0  0  0  0  0  0  # atno 8008 bound_to 7997
  154.6907  140.2652  155.6791 H   0  0  0  0  0  0  0  0  0  0  0  0  # atno 8009 bound_to 7997
  156.2727  140.2760  156.1484 H   0  0  0  0  0  0  0  0  0  0  0  0  # atno 8010 bound_to 7997
  140.2442  143.3517  152.0774 H   0  0  0  0  0  0  0  0  0  0  0  0  # atno 10167 bound_to 10162
  156.1631  130.6616  151.0078 H   0  0  0  0  0  0  0  0  0  0  0  0  # atno 10718 bound_to 10713
  154.8210  135.4589  154.0780 H   0  0  0  0  0  0  0  0  0  0  0  0  # atno 10763 bound_to 10752
  153.2133  135.6884  153.8094 H   0  0  0  0  0  0  0  0  0  0  0  0  # atno 10764 bound_to 10752
  153.7537  135.3294  155.3302 H   0  0  0  0  0  0  0  0  0  0  0  0  # atno 10765 bound_to 10752
  139.9311  134.7577  156.1359 H   0  0  0  0  0  0  0  0  0  0  0  0  # atno 11005 bound_to 11000
  146.3395  140.2403  142.8595 LP  0  0  0  0  0  0  0  0  0  0  0  0  # atno 17320 bound_to 7965
  144.9844  140.8489  143.5377 LP  0  0  0  0  0  0  0  0  0  0  0  0  # atno 17321 bound_to 7965
  139.5067  144.6819  151.5987 LP  0  0  0  0  0  0  0  0  0  0  0  0  # atno 17342 bound_to 10162
  140.6090  143.9471  150.6439 LP  0  0  0  0  0  0  0  0  0  0  0  0  # atno 17343 bound_to 10162
  157.6748  131.0853  150.7523 LP  0  0  0  0  0  0  0  0  0  0  0  0  # atno 17370 bound_to 10713
  156.7585  130.4791  149.5442 LP  0  0  0  0  0  0  0  0  0  0  0  0  # atno 17371 bound_to 10713
  141.0900  133.6718  156.2520 LP  0  0  0  0  0  0  0  0  0  0  0  0  # atno 17394 bound_to 11000
  140.6199  134.5372  157.5546 LP  0  0  0  0  0  0  0  0  0  0  0  0  # atno 17395 bound_to 11000

$$$$
