AV-unprocessed.smi:2448|AV-procd|sdf|9662|dock6
  -GOLD-   2272013303D 1   1.00000     0.00000
 Structure written by MMmdl.
 38 39  0  0  0  0  0  0  0  0  2 V2000
  150.0747  142.8522  159.2774 O   0  0  0  0  0  0  0  0  0  0  0  0
  151.3815  143.1822  158.8421 C   0  0  2  0  0  0  0  0  0  0  0  0
  151.5948  142.5701  157.4431 C   0  0  0  0  0  0  0  0  0  0  0  0
  151.4996  141.1077  157.4596 N   0  0  0  0  0  0  0  0  0  0  0  0
  150.4671  140.5236  156.5924 C   0  0  1  0  0  0  0  0  0  0  0  0
  150.0707  141.4735  155.4327 C   0  0  0  0  0  0  0  0  0  0  0  0
  148.6411  141.3331  154.9403 C   0  0  0  0  0  0  0  0  0  0  0  0
  148.3760  140.8404  153.6432 C   0  0  0  0  0  0  0  0  0  0  0  0
  147.0387  140.7141  153.2147 C   0  0  0  0  0  0  0  0  0  0  0  0
  146.0307  141.0659  154.0427 N   0  3  0  0  0  0  0  0  0  0  0  0
  146.2401  141.5455  155.2883 C   0  0  0  0  0  0  0  0  0  0  0  0
  147.5562  141.6944  155.7711 C   0  0  0  0  0  0  0  0  0  0  0  0
  150.9615  139.1681  156.0444 C   0  0  0  0  0  0  0  0  0  0  0  0
  152.1413  139.3270  155.4435 F   0  0  0  0  0  0  0  0  0  0  0  0
  151.1183  138.2973  157.0412 F   0  0  0  0  0  0  0  0  0  0  0  0
  150.0939  138.6675  155.1640 F   0  0  0  0  0  0  0  0  0  0  0  0
  152.4141  142.7208  159.8863 C   0  0  0  0  0  0  0  0  0  0  0  0
  152.3139  143.6583  161.0929 C   0  0  0  0  0  0  0  0  0  0  0  0
  151.8954  145.3058  160.4724 S   0  0  0  0  0  0  0  0  0  0  0  0
  151.4886  144.7171  158.8065 C   0  0  0  0  0  0  0  0  0  0  0  0
  149.8918  143.3306  160.0715 H   0  0  0  0  0  0  0  0  0  0  0  0
  150.8657  142.9838  156.7452 H   0  0  0  0  0  0  0  0  0  0  0  0
  152.5700  142.8834  157.0807 H   0  0  0  0  0  0  0  0  0  0  0  0
  151.3459  140.7968  158.4140 H   0  0  0  0  0  0  0  0  0  0  0  0
  149.5792  140.3072  157.1882 H   0  0  0  0  0  0  0  0  0  0  0  0
  150.2570  142.5087  155.7222 H   0  0  0  0  0  0  0  0  0  0  0  0
  150.7152  141.2894  154.5729 H   0  0  0  0  0  0  0  0  0  0  0  0
  149.1859  140.5596  152.9854 H   0  0  0  0  0  0  0  0  0  0  0  0
  146.7475  140.3450  152.2421 H   0  0  0  0  0  0  0  0  0  0  0  0
  145.3553  141.7926  155.8569 H   0  0  0  0  0  0  0  0  0  0  0  0
  147.7272  142.0725  156.7688 H   0  0  0  0  0  0  0  0  0  0  0  0
  152.2755  141.6793  160.1792 H   0  0  0  0  0  0  0  0  0  0  0  0
  153.4152  142.7999  159.4601 H   0  0  0  0  0  0  0  0  0  0  0  0
  151.5119  143.3314  161.7554 H   0  0  0  0  0  0  0  0  0  0  0  0
  153.2359  143.6803  161.6741 H   0  0  0  0  0  0  0  0  0  0  0  0
  152.3085  145.0221  158.1550 H   0  0  0  0  0  0  0  0  0  0  0  0
  150.5838  145.1957  158.4300 H   0  0  0  0  0  0  0  0  0  0  0  0
  145.0700  140.9669  153.7127 H   0  0  0  0  0  0  0  0  0  0  0  0
  1  2  1  0  0  0  0
  1 21  1  0  0  0  0
  2 20  1  0  0  0  0
  2  3  1  0  0  0  0
  2 17  1  0  0  0  0
  3  4  1  0  0  0  0
  3 22  1  0  0  0  0
  3 23  1  0  0  0  0
  4  5  1  0  0  0  0
  4 24  1  0  0  0  0
  5  6  1  0  0  0  0
  5 13  1  0  0  0  0
  5 25  1  0  0  0  0
  6  7  1  0  0  0  0
  6 26  1  0  0  0  0
  6 27  1  0  0  0  0
  7 12  1  0  0  0  0
  7  8  2  0  0  0  0
  8  9  1  0  0  0  0
  8 28  1  0  0  0  0
  9 10  2  0  0  0  0
  9 29  1  0  0  0  0
 10 11  1  0  0  0  0
 10 38  1  0  0  0  0
 11 12  2  0  0  0  0
 11 30  1  0  0  0  0
 12 31  1  0  0  0  0
 13 14  1  0  0  0  0
 13 15  1  0  0  0  0
 13 16  1  0  0  0  0
 17 18  1  0  0  0  0
 17 32  1  0  0  0  0
 17 33  1  0  0  0  0
 18 19  1  0  0  0  0
 18 34  1  0  0  0  0
 18 35  1  0  0  0  0
 19 20  1  0  0  0  0
 20 36  1  0  0  0  0
 20 37  1  0  0  0  0
M  CHG  1  10   1
M  END
> <s_m_source_file>
AV-unprocessed.smi

> <i_m_source_file_index>
2448

> <i_lp_mmshare_version>
43012

> <i_f3d_flags>
0

> <s_epik_input>
W0NIMl0xU1tDSDJdW0NIMl1bQ0BAXTEoW09IXSlbQ0gyXVtOSF1bQ0BASF0oQyhGKShGKUYpW0NIMl1jMltjSF1bY0hdbltjSF1bY0hdMg==

> <s_epik_cmdline>
J2VwaWtfcHl0aG9uJywgJy1waCcsICc3LjAnLCAnLXRuJywgJzgnLCAnLW1hJywgJzIwMCcsICctbWV0YWxfYmluZGluZycsICctaW1hZScsICc8aW5maWxlLm1hZT4nLCAnLW9tYWUnLCAnPG91dGZpbGUubWFlPic=

> <r_epik_Ionization_Penalty>
1.11129

> <r_epik_Ionization_Penalty_Charging>
1.08366

> <r_epik_Ionization_Penalty_Neutral>
0.0276276

> <r_epik_State_Penalty>
1.93785

> <r_epik_Charging_Adjusted_Penalty>
3.02151

> <i_epik_Tot_Q>
1

> <i_epik_Tot_abs_Q>
1

> <r_epik_Metal_State_Penalty>
5.97911

> <b_epik_Metal_Only>
0

> <s_lp_Force_Field>
OPLS_2005

> <r_lp_Energy>
38.9461

> <b_lp_Chiralities_Consistent>
1

> <s_lp_Variant>
AV-unprocessed.smi:2448-12

> <Gold.Version>
5.8.1

> <Gold.Id.Protein>
6NUR|6NUR_protein|mol2

> <Gold.PLP.Fitness>
45.4278

> <Gold.PLP.PLP>
-41.6272

> <Gold.PLP.part.hbond>
-2.0000

> <Gold.PLP.part.metal>
0.0000

> <Gold.PLP.part.buried>
-2.2788

> <Gold.PLP.part.nonpolar>
-37.2074

> <Gold.PLP.part.repulsive>
0.0010

> <Gold.PLP.ligand.clash>
0.0000

> <Gold.PLP.ligand.torsion>
1.3268

> <Gold.PLP.Chemscore.Hbond>
2.0000

> <Gold.PLP.Chemscore.CHOScore>
0.0000

> <Gold.PLP.Chemscore.Metal>
0.0000

> <Gold.Chemscore.Hbonds>
donor molecule, donor type, donor heavy atom, donor atom, acceptor molecule, acceptor atom, score
      L1  H    10    38       P1 10175  2.00

> <Gold.PLP.Chemscore.Internal.Correction>
0.4542

> <Gold.Rescore>
     Score         DG    S(hbond)    S(metal)    S(lipo)     H(rot)  DE(clash)    DE(int)     intcor
     13.44     -15.89       0.91        0.00     115.92       2.42       1.09       1.35       ----

> <Gold.Chemscore.Fitness>
13.4378

> <Gold.Chemscore.DG>
-15.8858

> <Gold.Chemscore.ZeroCoef>
-5.4800

> <Gold.Chemscore.Hbond>
0.9131

> <Gold.Chemscore.Metal>
0.0000

> <Gold.Chemscore.Lipo>
115.9239

> <Gold.Chemscore.Internal_Hbond>
0.0000

> <Gold.Chemscore.DEClash>
1.0949

> <Gold.Chemscore.DEInternal>
1.3531

> <Gold.Chemscore.Rot>
2.4247

> <Gold.Chemscore.Internal.Correction>
   9.000000E+99

> <Gold.Chemscore.Hbonds>
donor molecule, donor type, donor heavy atom, donor atom, acceptor molecule, acceptor atom, score
      L1  H    10    38       P1 10175  0.77

> <Gold.Chemscore.Hbond.Weighted>
-3.0499

> <Gold.Chemscore.Metal.Weighted>
-0.0000

> <Gold.Chemscore.Lipo.Weighted>
-13.5631

> <Gold.Chemscore.Internal_Hbond.Weighted>
0.0000

> <Gold.Chemscore.DEClash.Weighted>
1.0949

> <Gold.Chemscore.DEInternal.Weighted>
1.3531

> <Gold.Chemscore.Rot.Weighted>
6.2072

> <Gold.Chemscore.Internal.Correction.Weighted>
   9.000000E+99

> <Gold.Protein.RotatedTorsions>
[ 6907 6896 6895 6894 ] final   33.90 input  -60.11 | X-H torsion
[ 7974 7965 7964 7962 ] final   94.76 input  175.53 | X-H torsion
[ 8008 7997 7996 7995 ] final   -6.15 input   59.86 | X-H torsion
[ 10167 10162 10161 10158 ] final   -6.69 input  -65.29 | X-H torsion
[ 10718 10713 10712 10709 ] final  161.08 input   66.30 | X-H torsion
[ 10763 10752 10751 10750 ] final   66.34 input  -60.55 | X-H torsion
[ 11005 11000 10999 10996 ] final -154.46 input  -57.11 | X-H torsion

> <Gold.Protein.ActiveResidues>
 VAL166  LYS551  ARG553  GLY616  TRP617  ASP618  TYR619  PRO620  LYS621  CYS622 
 ASP623  PHE694  ASN695  SER759  ASP760  ASP761  ALA762  ILE779  LEU786  VAL792 
 PHE793  MET794  SER795  GLU796  ALA797  LYS798  CYS799  TRP800  GLU811  SER814 

> <Gold.Protein.RotatedAtoms>
  152.0949  134.9382  160.0570 H   0  0  0  0  0  0  0  0  0  0  0  0  # atno 6907 bound_to 6896
  152.0619  133.4061  159.4430 H   0  0  0  0  0  0  0  0  0  0  0  0  # atno 6908 bound_to 6896
  150.6838  134.3111  159.4790 H   0  0  0  0  0  0  0  0  0  0  0  0  # atno 6909 bound_to 6896
  145.4613  139.2287  143.2986 H   0  0  0  0  0  0  0  0  0  0  0  0  # atno 7974 bound_to 7965
  154.5966  140.2440  155.7848 H   0  0  0  0  0  0  0  0  0  0  0  0  # atno 8008 bound_to 7997
  156.2283  140.2975  156.0077 H   0  0  0  0  0  0  0  0  0  0  0  0  # atno 8009 bound_to 7997
  155.2282  140.0402  157.2949 H   0  0  0  0  0  0  0  0  0  0  0  0  # atno 8010 bound_to 7997
  140.7005  143.6166  150.8653 H   0  0  0  0  0  0  0  0  0  0  0  0  # atno 10167 bound_to 10162
  157.1415  131.0541  151.2324 H   0  0  0  0  0  0  0  0  0  0  0  0  # atno 10718 bound_to 10713
  153.0135  135.5324  154.6808 H   0  0  0  0  0  0  0  0  0  0  0  0  # atno 10763 bound_to 10752
  154.5968  135.2864  155.0579 H   0  0  0  0  0  0  0  0  0  0  0  0  # atno 10764 bound_to 10752
  154.1651  135.6541  153.5048 H   0  0  0  0  0  0  0  0  0  0  0  0  # atno 10765 bound_to 10752
  140.6971  134.3978  157.5213 H   0  0  0  0  0  0  0  0  0  0  0  0  # atno 11005 bound_to 11000
  146.2449  140.5382  142.8918 LP  0  0  0  0  0  0  0  0  0  0  0  0  # atno 17320 bound_to 7965
  144.8001  140.6197  143.6484 LP  0  0  0  0  0  0  0  0  0  0  0  0  # atno 17321 bound_to 7965
  139.9887  143.5870  152.2918 LP  0  0  0  0  0  0  0  0  0  0  0  0  # atno 17342 bound_to 10162
  139.6518  144.7661  151.2133 LP  0  0  0  0  0  0  0  0  0  0  0  0  # atno 17343 bound_to 10162
  157.4303  130.7487  149.6985 LP  0  0  0  0  0  0  0  0  0  0  0  0  # atno 17370 bound_to 10713
  155.9788  130.4047  150.3628 LP  0  0  0  0  0  0  0  0  0  0  0  0  # atno 17371 bound_to 10713
  139.8907  134.8798  156.2356 LP  0  0  0  0  0  0  0  0  0  0  0  0  # atno 17394 bound_to 11000
  141.0194  133.7050  156.1243 LP  0  0  0  0  0  0  0  0  0  0  0  0  # atno 17395 bound_to 11000

$$$$
