AV-unprocessed.smi:1094|AV-procd|sdf|4746|dock5
  -GOLD-   22720 3283D 1   1.00000     0.00000
 Structure written by MMmdl.
 45 46  0  0  0  0  0  0  0  0  1 V2000
  145.5654  132.1515  149.4250 C   0  0  0  0  0  0  0  0  0  0  0  0
  144.9373  131.7760  150.7748 C   0  0  0  0  0  0  0  0  0  0  0  0
  145.9127  131.8792  151.8691 N   0  0  0  0  0  0  0  0  0  0  0  0
  146.3790  133.1700  152.1876 C   0  0  0  0  0  0  0  0  0  0  0  0
  147.2787  133.3937  153.1710 C   0  0  0  0  0  0  0  0  0  0  0  0
  147.7864  134.6472  153.5457 N   0  0  0  0  0  0  0  0  0  0  0  0
  148.0955  135.1158  154.7695 C   0  0  0  0  0  0  0  0  0  0  0  0
  147.9606  134.5097  155.8322 O   0  0  0  0  0  0  0  0  0  0  0  0
  148.5915  136.3592  154.6913 N   0  0  0  0  0  0  0  0  0  0  0  0
  149.0388  137.1730  155.8216 C   0  0  0  0  0  0  0  0  0  0  0  0
  150.1438  138.2093  155.4640 C   0  0  0  0  0  0  0  0  0  0  0  0
  149.5103  139.1720  154.4215 C   0  0  0  0  0  0  0  0  0  0  0  0
  149.0589  138.6652  153.2692 N   0  0  0  0  0  0  0  0  0  0  0  0
  149.4447  140.3796  154.6460 O   0  0  0  0  0  0  0  0  0  0  0  0
  150.6637  138.9583  156.7257 C   0  0  0  0  0  0  0  0  0  0  0  0
  151.8772  139.8599  156.4195 C   0  0  0  0  0  0  0  0  0  0  0  0
  152.9251  139.0831  155.8511 O   0  0  0  0  0  0  0  0  0  0  0  0
  152.5599  138.4674  154.6212 C   0  0  0  0  0  0  0  0  0  0  0  0
  151.3832  137.4984  154.8513 C   0  0  0  0  0  0  0  0  0  0  0  0
  147.7497  132.2355  153.9001 C   0  0  0  0  0  0  0  0  0  0  0  0
  147.3179  130.9961  153.5973 C   0  0  0  0  0  0  0  0  0  0  0  0
  146.3519  130.7620  152.5217 C   0  0  0  0  0  0  0  0  0  0  0  0
  145.9638  129.6314  152.2269 O   0  0  0  0  0  0  0  0  0  0  0  0
  144.8298  132.0819  148.6235 H   0  0  0  0  0  0  0  0  0  0  0  0
  146.3927  131.4871  149.1735 H   0  0  0  0  0  0  0  0  0  0  0  0
  145.9471  133.1727  149.4377 H   0  0  0  0  0  0  0  0  0  0  0  0
  144.0824  132.4251  150.9707 H   0  0  0  0  0  0  0  0  0  0  0  0
  144.5179  130.7698  150.7204 H   0  0  0  0  0  0  0  0  0  0  0  0
  145.9470  133.9401  151.5689 H   0  0  0  0  0  0  0  0  0  0  0  0
  147.9455  135.2812  152.7765 H   0  0  0  0  0  0  0  0  0  0  0  0
  148.6681  136.7798  153.7769 H   0  0  0  0  0  0  0  0  0  0  0  0
  148.1553  137.6903  156.1990 H   0  0  0  0  0  0  0  0  0  0  0  0
  149.3721  136.5313  156.6400 H   0  0  0  0  0  0  0  0  0  0  0  0
  148.6436  139.2737  152.5790 H   0  0  0  0  0  0  0  0  0  0  0  0
  149.1352  137.6737  153.0941 H   0  0  0  0  0  0  0  0  0  0  0  0
  149.8704  139.5366  157.2007 H   0  0  0  0  0  0  0  0  0  0  0  0
  150.9830  138.2381  157.4783 H   0  0  0  0  0  0  0  0  0  0  0  0
  151.6161  140.6812  155.7515 H   0  0  0  0  0  0  0  0  0  0  0  0
  152.2430  140.3132  157.3410 H   0  0  0  0  0  0  0  0  0  0  0  0
  152.3176  139.2275  153.8772 H   0  0  0  0  0  0  0  0  0  0  0  0
  153.4213  137.9199  154.2388 H   0  0  0  0  0  0  0  0  0  0  0  0
  151.7311  136.7099  155.5189 H   0  0  0  0  0  0  0  0  0  0  0  0
  151.1275  136.9962  153.9171 H   0  0  0  0  0  0  0  0  0  0  0  0
  148.4624  132.3617  154.7023 H   0  0  0  0  0  0  0  0  0  0  0  0
  147.6910  130.1535  154.1611 H   0  0  0  0  0  0  0  0  0  0  0  0
  1  2  1  0  0  0  0
  1 24  1  0  0  0  0
  1 25  1  0  0  0  0
  1 26  1  0  0  0  0
  2  3  1  0  0  0  0
  2 27  1  0  0  0  0
  2 28  1  0  0  0  0
  3 22  1  0  0  0  0
  3  4  1  0  0  0  0
  4  5  2  0  0  0  0
  4 29  1  0  0  0  0
  5  6  1  0  0  0  0
  5 20  1  0  0  0  0
  6  7  1  0  0  0  0
  6 30  1  0  0  0  0
  7  8  2  0  0  0  0
  7  9  1  0  0  0  0
  9 10  1  0  0  0  0
  9 31  1  0  0  0  0
 10 11  1  0  0  0  0
 10 32  1  0  0  0  0
 10 33  1  0  0  0  0
 11 19  1  0  0  0  0
 11 12  1  0  0  0  0
 11 15  1  0  0  0  0
 12 13  1  0  0  0  0
 12 14  2  0  0  0  0
 13 34  1  0  0  0  0
 13 35  1  0  0  0  0
 15 16  1  0  0  0  0
 15 36  1  0  0  0  0
 15 37  1  0  0  0  0
 16 17  1  0  0  0  0
 16 38  1  0  0  0  0
 16 39  1  0  0  0  0
 17 18  1  0  0  0  0
 18 19  1  0  0  0  0
 18 40  1  0  0  0  0
 18 41  1  0  0  0  0
 19 42  1  0  0  0  0
 19 43  1  0  0  0  0
 20 21  2  0  0  0  0
 20 44  1  0  0  0  0
 21 22  1  0  0  0  0
 21 45  1  0  0  0  0
 22 23  2  0  0  0  0
M  END
> <s_m_source_file>
AV-unprocessed.smi

> <i_m_source_file_index>
1094

> <i_lp_mmshare_version>
43012

> <i_f3d_flags>
0

> <s_epik_input>
W0NIM11bQ0gyXW4xW2NIXWMoW2NIXVtjSF1jMT1PKVtOSF1DKD1PKVtOSF1bQ0gyXUMyKEMoPU8pW05IMl0pW0NIMl1bQ0gyXU9bQ0gyXVtDSDJdMg==

> <s_epik_cmdline>
J2VwaWtfcHl0aG9uJywgJy1waCcsICc3LjAnLCAnLXRuJywgJzgnLCAnLW1hJywgJzIwMCcsICctbWV0YWxfYmluZGluZycsICctaW1hZScsICc8aW5maWxlLm1hZT4nLCAnLW9tYWUnLCAnPG91dGZpbGUubWFlPic=

> <r_lp_tautomer_probability>
1

> <r_epik_Ionization_Penalty>
2.3227e-05

> <r_epik_Ionization_Penalty_Charging>
4.44262e-06

> <r_epik_Ionization_Penalty_Neutral>
1.87844e-05

> <r_epik_State_Penalty>
-0

> <r_epik_Charging_Adjusted_Penalty>
4.44262e-06

> <i_epik_Tot_Q>
0

> <i_epik_Tot_abs_Q>
0

> <r_epik_Metal_State_Penalty>
-0

> <b_epik_Metal_Only>
0

> <s_lp_Force_Field>
OPLS_2005

> <r_lp_Energy>
26.2071

> <b_lp_Chiralities_Consistent>
1

> <s_lp_Variant>
AV-unprocessed.smi:1094-1

> <Gold.Version>
5.8.1

> <Gold.Id.Protein>
6NUR|6NUR_protein|mol2

> <Gold.PLP.Fitness>
49.7677

> <Gold.PLP.PLP>
-38.0356

> <Gold.PLP.part.hbond>
-4.9106

> <Gold.PLP.part.metal>
0.0000

> <Gold.PLP.part.buried>
-5.6612

> <Gold.PLP.part.nonpolar>
-27.6551

> <Gold.PLP.part.repulsive>
0.3584

> <Gold.PLP.ligand.clash>
0.0000

> <Gold.PLP.ligand.torsion>
0.5220

> <Gold.PLP.Chemscore.Hbond>
4.2400

> <Gold.PLP.Chemscore.CHOScore>
0.0000

> <Gold.PLP.Chemscore.Metal>
0.0000

> <Gold.Chemscore.Hbonds>
donor molecule, donor type, donor heavy atom, donor atom, acceptor molecule, acceptor atom, score
      L1  H     6    30       P1  7948  1.00
      L1  H     9    31       P1  7948  0.78
      L1  H    13    34       P1  7957  0.48
      L1  H    13    35       P1  7948  0.94
      P1  H  7997  8008       L1    17  0.95

> <Gold.PLP.Chemscore.Internal.Correction>
0.0561

> <Gold.Rescore>
     Score         DG    S(hbond)    S(metal)    S(lipo)     H(rot)  DE(clash)    DE(int)     intcor
     19.38     -21.59       3.89        0.00      72.82       2.11       0.07       2.14       ----

> <Gold.Chemscore.Fitness>
19.3828

> <Gold.Chemscore.DG>
-21.5928

> <Gold.Chemscore.ZeroCoef>
-5.4800

> <Gold.Chemscore.Hbond>
3.8937

> <Gold.Chemscore.Metal>
0.0000

> <Gold.Chemscore.Lipo>
72.8166

> <Gold.Chemscore.Internal_Hbond>
0.0000

> <Gold.Chemscore.DEClash>
0.0738

> <Gold.Chemscore.DEInternal>
2.1362

> <Gold.Chemscore.Rot>
2.1140

> <Gold.Chemscore.Internal.Correction>
   9.000000E+99

> <Gold.Chemscore.Hbonds>
donor molecule, donor type, donor heavy atom, donor atom, acceptor molecule, acceptor atom, score
      L1  H     6    30       P1  7948  0.95
      L1  H     9    31       P1  7948  0.75
      L1  H    13    34       P1  7957  0.48
      L1  H    13    35       P1  7948  0.92
      P1  H  7997  8008       L1    17  0.22

> <Gold.Chemscore.Hbond.Weighted>
-13.0051

> <Gold.Chemscore.Metal.Weighted>
-0.0000

> <Gold.Chemscore.Lipo.Weighted>
-8.5195

> <Gold.Chemscore.Internal_Hbond.Weighted>
0.0000

> <Gold.Chemscore.DEClash.Weighted>
0.0738

> <Gold.Chemscore.DEInternal.Weighted>
2.1362

> <Gold.Chemscore.Rot.Weighted>
5.4119

> <Gold.Chemscore.Internal.Correction.Weighted>
   9.000000E+99

> <Gold.Protein.RotatedTorsions>
[ 6907 6896 6895 6894 ] final   78.79 input  -60.11 | X-H torsion
[ 7974 7965 7964 7962 ] final  -68.51 input  175.53 | X-H torsion
[ 8008 7997 7996 7995 ] final  -42.77 input   59.86 | X-H torsion
[ 10167 10162 10161 10158 ] final  152.05 input  -65.29 | X-H torsion
[ 10718 10713 10712 10709 ] final  -86.49 input   66.30 | X-H torsion
[ 10763 10752 10751 10750 ] final -162.36 input  -60.55 | X-H torsion
[ 11005 11000 10999 10996 ] final  144.15 input  -57.11 | X-H torsion

> <Gold.Protein.ActiveResidues>
 VAL166  LYS551  ARG553  GLY616  TRP617  ASP618  TYR619  PRO620  LYS621  CYS622 
 ASP623  PHE694  ASN695  SER759  ASP760  ASP761  ALA762  ILE779  LEU786  VAL792 
 PHE793  MET794  SER795  GLU796  ALA797  LYS798  CYS799  TRP800  GLU811  SER814 

> <Gold.Protein.RotatedAtoms>
  152.5173  134.3610  159.9284 H   0  0  0  0  0  0  0  0  0  0  0  0  # atno 6907 bound_to 6896
  151.3562  133.3900  159.2693 H   0  0  0  0  0  0  0  0  0  0  0  0  # atno 6908 bound_to 6896
  150.9688  134.9083  159.7833 H   0  0  0  0  0  0  0  0  0  0  0  0  # atno 6909 bound_to 6896
  145.7156  140.9060  143.0657 H   0  0  0  0  0  0  0  0  0  0  0  0  # atno 7974 bound_to 7965
  154.3998  140.1465  156.3409 H   0  0  0  0  0  0  0  0  0  0  0  0  # atno 8008 bound_to 7997
  155.8357  140.3464  155.5579 H   0  0  0  0  0  0  0  0  0  0  0  0  # atno 8009 bound_to 7997
  155.8141  140.0888  157.1877 H   0  0  0  0  0  0  0  0  0  0  0  0  # atno 8010 bound_to 7997
  139.4836  144.5390  151.7596 H   0  0  0  0  0  0  0  0  0  0  0  0  # atno 10167 bound_to 10162
  155.9989  130.4767  150.4722 H   0  0  0  0  0  0  0  0  0  0  0  0  # atno 10718 bound_to 10713
  154.7221  135.3028  154.9030 H   0  0  0  0  0  0  0  0  0  0  0  0  # atno 10763 bound_to 10752
  153.9899  135.6720  153.4757 H   0  0  0  0  0  0  0  0  0  0  0  0  # atno 10764 bound_to 10752
  153.0843  135.4992  154.8483 H   0  0  0  0  0  0  0  0  0  0  0  0  # atno 10765 bound_to 10752
  140.0610  134.9205  157.1183 H   0  0  0  0  0  0  0  0  0  0  0  0  # atno 11005 bound_to 11000
  144.6930  139.9133  143.7464 LP  0  0  0  0  0  0  0  0  0  0  0  0  # atno 17320 bound_to 7965
  146.0672  139.3663  143.0545 LP  0  0  0  0  0  0  0  0  0  0  0  0  # atno 17321 bound_to 7965
  140.4927  144.1286  150.5953 LP  0  0  0  0  0  0  0  0  0  0  0  0  # atno 17342 bound_to 10162
  140.4153  143.2637  151.9783 LP  0  0  0  0  0  0  0  0  0  0  0  0  # atno 17343 bound_to 10162
  157.2736  131.0592  151.2244 LP  0  0  0  0  0  0  0  0  0  0  0  0  # atno 17370 bound_to 10713
  157.3315  130.6987  149.6327 LP  0  0  0  0  0  0  0  0  0  0  0  0  # atno 17371 bound_to 10713
  140.3771  134.2327  155.7173 LP  0  0  0  0  0  0  0  0  0  0  0  0  # atno 17394 bound_to 11000
  141.1973  133.8063  157.0635 LP  0  0  0  0  0  0  0  0  0  0  0  0  # atno 17395 bound_to 11000

$$$$
