AV-unprocessed.smi:47|AV-procd|sdf|427|dock2
  -GOLD-   2262016303D 1   1.00000     0.00000
 Structure written by MMmdl.
 31 33  0  0  0  0  0  0  0  0  3 V2000
  145.1419  140.4008  154.7588 O   0  0  0  0  0  0  0  0  0  0  0  0
  146.5518  140.3261  154.7373 C   0  0  1  0  0  0  0  0  0  0  0  0
  147.0766  139.6406  153.4773 C   0  0  0  0  0  0  0  0  0  0  0  0
  148.4478  140.1519  153.3007 N   0  3  0  0  0  0  0  0  0  0  0  0
  148.5768  141.4275  154.0374 C   0  0  2  0  0  0  0  0  0  0  0  0
  149.6677  141.3165  155.0841 C   0  0  0  0  0  0  0  0  0  0  0  0
  150.5855  140.3319  155.1184 N   0  0  0  0  0  0  0  0  0  0  0  0
  151.3723  140.6014  156.1425 N   0  5  0  0  0  0  0  0  0  0  0  0
  150.9372  141.7382  156.7068 C   0  0  0  0  0  0  0  0  0  0  0  0
  151.5963  142.3390  157.8846 C   0  0  0  0  0  0  0  0  0  0  0  0
  151.6225  143.7433  158.0515 C   0  0  0  0  0  0  0  0  0  0  0  0
  152.2480  144.3309  159.1682 C   0  0  0  0  0  0  0  0  0  0  0  0
  152.8594  143.5191  160.1407 C   0  0  0  0  0  0  0  0  0  0  0  0
  152.8427  142.1205  159.9917 C   0  0  0  0  0  0  0  0  0  0  0  0
  152.2164  141.5376  158.8727 C   0  0  0  0  0  0  0  0  0  0  0  0
  149.8775  142.2100  156.0652 N   0  0  0  0  0  0  0  0  0  0  0  0
  147.2007  141.7052  154.6605 C   0  0  0  0  0  0  0  0  0  0  0  0
  146.9056  139.7980  155.6241 H   0  0  0  0  0  0  0  0  0  0  0  0
  148.8453  142.2225  153.3407 H   0  0  0  0  0  0  0  0  0  0  0  0
  144.8172  140.2207  153.8892 H   0  0  0  0  0  0  0  0  0  0  0  0
  147.0560  138.5527  153.5463 H   0  0  0  0  0  0  0  0  0  0  0  0
  146.4896  139.9380  152.6070 H   0  0  0  0  0  0  0  0  0  0  0  0
  149.0961  139.5000  153.7212 H   0  0  0  0  0  0  0  0  0  0  0  0
  151.1583  144.3842  157.3164 H   0  0  0  0  0  0  0  0  0  0  0  0
  152.2583  145.4054  159.2778 H   0  0  0  0  0  0  0  0  0  0  0  0
  153.3397  143.9673  160.9980 H   0  0  0  0  0  0  0  0  0  0  0  0
  153.3105  141.4926  160.7356 H   0  0  0  0  0  0  0  0  0  0  0  0
  152.2175  140.4615  158.7794 H   0  0  0  0  0  0  0  0  0  0  0  0
  146.6263  142.3367  153.9804 H   0  0  0  0  0  0  0  0  0  0  0  0
  147.2502  142.2191  155.6216 H   0  0  0  0  0  0  0  0  0  0  0  0
  148.6680  140.2704  152.3228 H   0  0  0  0  0  0  0  0  0  0  0  0
  1  2  1  0  0  0  0
  1 20  1  0  0  0  0
  2 18  1  0  0  0  0
  2 17  1  0  0  0  0
  2  3  1  0  0  0  0
  3  4  1  0  0  0  0
  3 21  1  0  0  0  0
  3 22  1  0  0  0  0
  4  5  1  0  0  0  0
  4 23  1  0  0  0  0
  4 31  1  0  0  0  0
  5 19  1  0  0  0  0
  5  6  1  0  0  0  0
  5 17  1  0  0  0  0
  6 16  1  0  0  0  0
  6  7  2  0  0  0  0
  7  8  1  0  0  0  0
  8  9  1  0  0  0  0
  9 10  1  0  0  0  0
  9 16  2  0  0  0  0
 10 15  1  0  0  0  0
 10 11  2  0  0  0  0
 11 12  1  0  0  0  0
 11 24  1  0  0  0  0
 12 13  2  0  0  0  0
 12 25  1  0  0  0  0
 13 14  1  0  0  0  0
 13 26  1  0  0  0  0
 14 15  2  0  0  0  0
 14 27  1  0  0  0  0
 15 28  1  0  0  0  0
 17 29  1  0  0  0  0
 17 30  1  0  0  0  0
M  CHG  1   4   1
M  CHG  1   8  -1
M  END
> <s_m_source_file>
AV-unprocessed.smi

> <i_m_source_file_index>
47

> <i_lp_mmshare_version>
43012

> <i_f3d_flags>
0

> <s_epik_input>
W09IXVtDQEhdMVtDSDJdW05IXVtDQEBIXShbQ0gyXTEpYzJuW25IXWMobjIpLWMzW2NIXVtjSF1bY0hdW2NIXVtjSF0z

> <s_epik_cmdline>
J2VwaWtfcHl0aG9uJywgJy1waCcsICc3LjAnLCAnLXRuJywgJzgnLCAnLW1hJywgJzIwMCcsICctbWV0YWxfYmluZGluZycsICctaW1hZScsICc8aW5maWxlLm1hZT4nLCAnLW9tYWUnLCAnPG91dGZpbGUubWFlPic=

> <r_lp_tautomer_probability>
1

> <r_epik_Ionization_Penalty>
1.09593

> <r_epik_Ionization_Penalty_Charging>
1.09593

> <r_epik_Ionization_Penalty_Neutral>
3.91329e-08

> <r_epik_State_Penalty>
0.690005

> <r_epik_Charging_Adjusted_Penalty>
1.78594

> <i_epik_Tot_Q>
0

> <i_epik_Tot_abs_Q>
2

> <r_epik_Metal_State_Penalty>
0.213596

> <b_epik_Metal_Only>
0

> <s_lp_Force_Field>
OPLS_2005

> <r_lp_Energy>
20.8089

> <b_lp_Chiralities_Consistent>
1

> <s_lp_Variant>
AV-unprocessed.smi:47-5

> <Gold.Version>
5.8.1

> <Gold.Id.Protein>
6NUR|6NUR_protein|mol2

> <Gold.PLP.Fitness>
43.7475

> <Gold.PLP.PLP>
-36.2512

> <Gold.PLP.part.hbond>
-2.7057

> <Gold.PLP.part.metal>
0.0000

> <Gold.PLP.part.buried>
-5.8918

> <Gold.PLP.part.nonpolar>
-30.8933

> <Gold.PLP.part.repulsive>
2.8669

> <Gold.PLP.ligand.clash>
0.0000

> <Gold.PLP.ligand.torsion>
0.7085

> <Gold.PLP.Chemscore.Hbond>
2.9675

> <Gold.PLP.Chemscore.CHOScore>
0.0000

> <Gold.PLP.Chemscore.Metal>
0.0000

> <Gold.Chemscore.Hbonds>
donor molecule, donor type, donor heavy atom, donor atom, acceptor molecule, acceptor atom, score
      L1  H     1    20       P1 10175  1.00
      L1  H     4    31       P1  7957  0.94
      P1  H  7989  7998       L1     7  0.90

> <Gold.PLP.Chemscore.Internal.Correction>
0.0109

> <Gold.Rescore>
     Score         DG    S(hbond)    S(metal)    S(lipo)     H(rot)  DE(clash)    DE(int)     intcor
     16.96     -19.03       2.05        0.00      89.66       1.48       1.29       0.78       ----

> <Gold.Chemscore.Fitness>
16.9551

> <Gold.Chemscore.DG>
-19.0281

> <Gold.Chemscore.ZeroCoef>
-5.4800

> <Gold.Chemscore.Hbond>
2.0504

> <Gold.Chemscore.Metal>
0.0000

> <Gold.Chemscore.Lipo>
89.6560

> <Gold.Chemscore.Internal_Hbond>
0.0000

> <Gold.Chemscore.DEClash>
1.2900

> <Gold.Chemscore.DEInternal>
0.7831

> <Gold.Chemscore.Rot>
1.4804

> <Gold.Chemscore.Internal.Correction>
   9.000000E+99

> <Gold.Chemscore.Hbonds>
donor molecule, donor type, donor heavy atom, donor atom, acceptor molecule, acceptor atom, score
      L1  H     1    20       P1 10175  0.97
      L1  H     4    31       P1  7957  0.86
      P1  H  7989  7998       L1     7  0.08

> <Gold.Chemscore.Hbond.Weighted>
-6.8483

> <Gold.Chemscore.Metal.Weighted>
-0.0000

> <Gold.Chemscore.Lipo.Weighted>
-10.4898

> <Gold.Chemscore.Internal_Hbond.Weighted>
0.0000

> <Gold.Chemscore.DEClash.Weighted>
1.2900

> <Gold.Chemscore.DEInternal.Weighted>
0.7831

> <Gold.Chemscore.Rot.Weighted>
3.7899

> <Gold.Chemscore.Internal.Correction.Weighted>
   9.000000E+99

> <Gold.Protein.RotatedTorsions>
[ 6907 6896 6895 6894 ] final -123.65 input  -60.11 | X-H torsion
[ 7974 7965 7964 7962 ] final  149.95 input  175.53 | X-H torsion
[ 8008 7997 7996 7995 ] final -121.62 input   59.86 | X-H torsion
[ 10167 10162 10161 10158 ] final   80.88 input  -65.29 | X-H torsion
[ 10718 10713 10712 10709 ] final  -27.55 input   66.30 | X-H torsion
[ 10763 10752 10751 10750 ] final  -44.49 input  -60.55 | X-H torsion
[ 11005 11000 10999 10996 ] final  -69.41 input  -57.11 | X-H torsion

> <Gold.Protein.ActiveResidues>
 VAL166  LYS551  ARG553  GLY616  TRP617  ASP618  TYR619  PRO620  LYS621  CYS622 
 ASP623  PHE694  ASN695  SER759  ASP760  ASP761  ALA762  ILE779  LEU786  VAL792 
 PHE793  MET794  SER795  GLU796  ALA797  LYS798  CYS799  TRP800  GLU811  SER814 

> <Gold.Protein.RotatedAtoms>
  150.8691  133.7531  159.2966 H   0  0  0  0  0  0  0  0  0  0  0  0  # atno 6907 bound_to 6896
  151.5149  135.1064  159.9873 H   0  0  0  0  0  0  0  0  0  0  0  0  # atno 6908 bound_to 6896
  152.4682  133.7926  159.6966 H   0  0  0  0  0  0  0  0  0  0  0  0  # atno 6909 bound_to 6896
  144.8400  139.6345  143.6021 H   0  0  0  0  0  0  0  0  0  0  0  0  # atno 7974 bound_to 7965
  155.1509  140.0404  157.2821 H   0  0  0  0  0  0  0  0  0  0  0  0  # atno 8008 bound_to 7997
  154.6404  140.2545  155.7301 H   0  0  0  0  0  0  0  0  0  0  0  0  # atno 8009 bound_to 7997
  156.2530  140.2857  156.0796 H   0  0  0  0  0  0  0  0  0  0  0  0  # atno 8010 bound_to 7997
  139.9451  144.6064  150.8214 H   0  0  0  0  0  0  0  0  0  0  0  0  # atno 10167 bound_to 10162
  156.4368  130.4456  149.7080 H   0  0  0  0  0  0  0  0  0  0  0  0  # atno 10718 bound_to 10713
  154.0129  135.6679  153.4766 H   0  0  0  0  0  0  0  0  0  0  0  0  # atno 10763 bound_to 10752
  153.0613  135.5026  154.8095 H   0  0  0  0  0  0  0  0  0  0  0  0  # atno 10764 bound_to 10752
  154.6984  135.3074  154.9341 H   0  0  0  0  0  0  0  0  0  0  0  0  # atno 10765 bound_to 10752
  141.1553  133.6764  156.6595 H   0  0  0  0  0  0  0  0  0  0  0  0  # atno 11005 bound_to 11000
  146.2694  139.6598  142.9307 LP  0  0  0  0  0  0  0  0  0  0  0  0  # atno 17320 bound_to 7965
  145.4714  141.0436  143.2697 LP  0  0  0  0  0  0  0  0  0  0  0  0  # atno 17321 bound_to 7965
  140.7599  143.3140  151.2777 LP  0  0  0  0  0  0  0  0  0  0  0  0  # atno 17342 bound_to 10162
  139.6673  144.0082  152.2731 LP  0  0  0  0  0  0  0  0  0  0  0  0  # atno 17343 bound_to 10162
  156.3961  130.7651  151.2656 LP  0  0  0  0  0  0  0  0  0  0  0  0  # atno 17370 bound_to 10713
  157.7507  131.0253  150.3916 LP  0  0  0  0  0  0  0  0  0  0  0  0  # atno 17371 bound_to 10713
  140.3258  134.7970  157.4288 LP  0  0  0  0  0  0  0  0  0  0  0  0  # atno 17394 bound_to 11000
  140.1058  134.5411  155.8310 LP  0  0  0  0  0  0  0  0  0  0  0  0  # atno 17395 bound_to 11000

$$$$
