AV-unprocessed.smi:2388|AV-procd|sdf|9471|dock6
  -GOLD-   2272013103D 1   1.00000     0.00000
 Structure written by MMmdl.
 43 44  0  0  0  0  0  0  0  0  1 V2000
  151.5951  144.1572  157.8722 C   0  0  0  0  0  0  0  0  0  0  0  0
  152.1866  142.9958  158.6430 C   0  0  0  0  0  0  0  0  0  0  0  0
  153.3716  143.1492  159.3890 C   0  0  0  0  0  0  0  0  0  0  0  0
  153.8641  142.0323  160.0875 C   0  0  0  0  0  0  0  0  0  0  0  0
  153.1570  140.8169  160.0115 C   0  0  0  0  0  0  0  0  0  0  0  0
  151.9770  140.7465  159.2373 C   0  0  0  0  0  0  0  0  0  0  0  0
  151.3410  139.4766  159.2236 N   0  0  0  0  0  0  0  0  0  0  0  0
  150.2157  139.1172  158.5810 C   0  0  0  0  0  0  0  0  0  0  0  0
  149.5353  139.8565  157.8693 O   0  0  0  0  0  0  0  0  0  0  0  0
  149.9211  137.8294  158.8084 N   0  0  0  0  0  0  0  0  0  0  0  0
  148.7760  137.1154  158.2552 C   0  0  0  0  0  0  0  0  0  0  0  0
  148.4391  135.8895  159.1236 C   0  0  0  0  0  0  0  0  0  0  0  0
  148.0390  136.2399  160.5678 C   0  0  0  0  0  0  0  0  0  0  0  0
  147.8597  137.4218  160.8672 O   0  0  0  0  0  0  0  0  0  0  0  0
  147.9007  135.2391  161.4718 N   0  0  0  0  0  0  0  0  0  0  0  0
  147.4756  135.4025  162.8691 C   0  0  0  0  0  0  0  0  0  0  0  0
  146.0462  134.8498  163.0174 C   0  0  0  0  0  0  0  0  0  0  0  0
  145.9747  133.3807  162.5579 C   0  0  0  0  0  0  0  0  0  0  0  0
  146.6090  133.1854  161.1675 C   0  0  0  0  0  0  0  0  0  0  0  0
  148.0106  133.8207  161.1063 C   0  0  0  0  0  0  0  0  0  0  0  0
  151.5090  141.8300  158.5688 N   0  0  0  0  0  0  0  0  0  0  0  0
  152.2636  145.0185  157.8799 H   0  0  0  0  0  0  0  0  0  0  0  0
  150.6450  144.4582  158.3144 H   0  0  0  0  0  0  0  0  0  0  0  0
  151.4170  143.8747  156.8341 H   0  0  0  0  0  0  0  0  0  0  0  0
  153.8904  144.0955  159.4278 H   0  0  0  0  0  0  0  0  0  0  0  0
  154.7692  142.1054  160.6723 H   0  0  0  0  0  0  0  0  0  0  0  0
  153.5223  139.9497  160.5423 H   0  0  0  0  0  0  0  0  0  0  0  0
  151.8005  138.7560  159.7600 H   0  0  0  0  0  0  0  0  0  0  0  0
  150.5403  137.2996  159.4042 H   0  0  0  0  0  0  0  0  0  0  0  0
  147.9040  137.7690  158.1883 H   0  0  0  0  0  0  0  0  0  0  0  0
  149.0257  136.8098  157.2383 H   0  0  0  0  0  0  0  0  0  0  0  0
  147.6219  135.3325  158.6634 H   0  0  0  0  0  0  0  0  0  0  0  0
  149.3090  135.2314  159.1487 H   0  0  0  0  0  0  0  0  0  0  0  0
  148.1562  134.8481  163.5167 H   0  0  0  0  0  0  0  0  0  0  0  0
  147.5180  136.4308  163.2243 H   0  0  0  0  0  0  0  0  0  0  0  0
  145.7164  134.9324  164.0533 H   0  0  0  0  0  0  0  0  0  0  0  0
  145.3589  135.4534  162.4230 H   0  0  0  0  0  0  0  0  0  0  0  0
  146.5027  132.7564  163.2798 H   0  0  0  0  0  0  0  0  0  0  0  0
  144.9401  133.0367  162.5520 H   0  0  0  0  0  0  0  0  0  0  0  0
  146.6667  132.1232  160.9287 H   0  0  0  0  0  0  0  0  0  0  0  0
  145.9714  133.6397  160.4079 H   0  0  0  0  0  0  0  0  0  0  0  0
  148.4442  133.6690  160.1171 H   0  0  0  0  0  0  0  0  0  0  0  0
  148.6817  133.3172  161.8037 H   0  0  0  0  0  0  0  0  0  0  0  0
  1  2  1  0  0  0  0
  1 22  1  0  0  0  0
  1 23  1  0  0  0  0
  1 24  1  0  0  0  0
  2 21  1  0  0  0  0
  2  3  2  0  0  0  0
  3  4  1  0  0  0  0
  3 25  1  0  0  0  0
  4  5  2  0  0  0  0
  4 26  1  0  0  0  0
  5  6  1  0  0  0  0
  5 27  1  0  0  0  0
  6  7  1  0  0  0  0
  6 21  2  0  0  0  0
  7  8  1  0  0  0  0
  7 28  1  0  0  0  0
  8  9  2  0  0  0  0
  8 10  1  0  0  0  0
 10 11  1  0  0  0  0
 10 29  1  0  0  0  0
 11 12  1  0  0  0  0
 11 30  1  0  0  0  0
 11 31  1  0  0  0  0
 12 13  1  0  0  0  0
 12 32  1  0  0  0  0
 12 33  1  0  0  0  0
 13 14  2  0  0  0  0
 13 15  1  0  0  0  0
 15 20  1  0  0  0  0
 15 16  1  0  0  0  0
 16 17  1  0  0  0  0
 16 34  1  0  0  0  0
 16 35  1  0  0  0  0
 17 18  1  0  0  0  0
 17 36  1  0  0  0  0
 17 37  1  0  0  0  0
 18 19  1  0  0  0  0
 18 38  1  0  0  0  0
 18 39  1  0  0  0  0
 19 20  1  0  0  0  0
 19 40  1  0  0  0  0
 19 41  1  0  0  0  0
 20 42  1  0  0  0  0
 20 43  1  0  0  0  0
M  END
> <s_m_source_file>
AV-unprocessed.smi

> <i_m_source_file_index>
2388

> <i_lp_mmshare_version>
43012

> <i_f3d_flags>
0

> <s_epik_input>
W0NIM11jMVtjSF1bY0hdW2NIXWMobjEpW05IXUMoPU8pW05IXVtDSDJdW0NIMl1DKD1PKU4yW0NIMl1bQ0gyXVtDSDJdW0NIMl1bQ0gyXTI=

> <s_epik_cmdline>
J2VwaWtfcHl0aG9uJywgJy1waCcsICc3LjAnLCAnLXRuJywgJzgnLCAnLW1hJywgJzIwMCcsICctbWV0YWxfYmluZGluZycsICctaW1hZScsICc8aW5maWxlLm1hZT4nLCAnLW9tYWUnLCAnPG91dGZpbGUubWFlPic=

> <r_lp_tautomer_probability>
1

> <r_epik_Ionization_Penalty>
7.16628e-05

> <r_epik_Ionization_Penalty_Charging>
0

> <r_epik_Ionization_Penalty_Neutral>
7.16628e-05

> <r_epik_State_Penalty>
-0

> <r_epik_Charging_Adjusted_Penalty>
0

> <i_epik_Tot_Q>
0

> <i_epik_Tot_abs_Q>
0

> <r_epik_Metal_State_Penalty>
-0

> <b_epik_Metal_Only>
0

> <s_lp_Force_Field>
OPLS_2005

> <r_lp_Energy>
26.3076

> <b_lp_Chiralities_Consistent>
1

> <s_lp_Variant>
AV-unprocessed.smi:2388-1

> <Gold.Version>
5.8.1

> <Gold.Id.Protein>
6NUR|6NUR_protein|mol2

> <Gold.PLP.Fitness>
45.2737

> <Gold.PLP.PLP>
-40.9798

> <Gold.PLP.part.hbond>
-2.0000

> <Gold.PLP.part.metal>
0.0000

> <Gold.PLP.part.buried>
-5.0502

> <Gold.PLP.part.nonpolar>
-34.7609

> <Gold.PLP.part.repulsive>
0.3495

> <Gold.PLP.ligand.clash>
0.0000

> <Gold.PLP.ligand.torsion>
0.2416

> <Gold.PLP.Chemscore.Hbond>
1.5840

> <Gold.PLP.Chemscore.CHOScore>
0.0000

> <Gold.PLP.Chemscore.Metal>
0.0000

> <Gold.Chemscore.Hbonds>
donor molecule, donor type, donor heavy atom, donor atom, acceptor molecule, acceptor atom, score
      P1  H  6931  6943       L1    14  0.77
      P1  H  6934  6947       L1    14  0.77

> <Gold.PLP.Chemscore.Internal.Correction>
0.0251

> <Gold.Rescore>
     Score         DG    S(hbond)    S(metal)    S(lipo)     H(rot)  DE(clash)    DE(int)     intcor
     15.42     -18.44       1.48        0.00     101.57       1.51       0.13       2.89       ----

> <Gold.Chemscore.Fitness>
15.4243

> <Gold.Chemscore.DG>
-18.4442

> <Gold.Chemscore.ZeroCoef>
-5.4800

> <Gold.Chemscore.Hbond>
1.4833

> <Gold.Chemscore.Metal>
0.0000

> <Gold.Chemscore.Lipo>
101.5677

> <Gold.Chemscore.Internal_Hbond>
0.0000

> <Gold.Chemscore.DEClash>
0.1288

> <Gold.Chemscore.DEInternal>
2.8911

> <Gold.Chemscore.Rot>
1.5131

> <Gold.Chemscore.Internal.Correction>
   9.000000E+99

> <Gold.Chemscore.Hbonds>
donor molecule, donor type, donor heavy atom, donor atom, acceptor molecule, acceptor atom, score
      P1  H  6931  6943       L1    14  0.74
      P1  H  6934  6947       L1    14  0.78

> <Gold.Chemscore.Hbond.Weighted>
-4.9542

> <Gold.Chemscore.Metal.Weighted>
-0.0000

> <Gold.Chemscore.Lipo.Weighted>
-11.8834

> <Gold.Chemscore.Internal_Hbond.Weighted>
0.0000

> <Gold.Chemscore.DEClash.Weighted>
0.1288

> <Gold.Chemscore.DEInternal.Weighted>
2.8911

> <Gold.Chemscore.Rot.Weighted>
3.8735

> <Gold.Chemscore.Internal.Correction.Weighted>
   9.000000E+99

> <Gold.Protein.RotatedTorsions>
[ 6907 6896 6895 6894 ] final   -2.59 input  -60.11 | X-H torsion
[ 7974 7965 7964 7962 ] final   77.14 input  175.53 | X-H torsion
[ 8008 7997 7996 7995 ] final -135.54 input   59.86 | X-H torsion
[ 10167 10162 10161 10158 ] final  -40.37 input  -65.29 | X-H torsion
[ 10718 10713 10712 10709 ] final  -13.78 input   66.30 | X-H torsion
[ 10763 10752 10751 10750 ] final   70.24 input  -60.55 | X-H torsion
[ 11005 11000 10999 10996 ] final   47.94 input  -57.11 | X-H torsion

> <Gold.Protein.ActiveResidues>
 VAL166  LYS551  ARG553  GLY616  TRP617  ASP618  TYR619  PRO620  LYS621  CYS622 
 ASP623  PHE694  ASN695  SER759  ASP760  ASP761  ALA762  ILE779  LEU786  VAL792 
 PHE793  MET794  SER795  GLU796  ALA797  LYS798  CYS799  TRP800  GLU811  SER814 

> <Gold.Protein.RotatedAtoms>
  151.5274  135.1068  159.9893 H   0  0  0  0  0  0  0  0  0  0  0  0  # atno 6907 bound_to 6896
  152.4593  133.7785  159.6848 H   0  0  0  0  0  0  0  0  0  0  0  0  # atno 6908 bound_to 6896
  150.8549  133.7665  159.3037 H   0  0  0  0  0  0  0  0  0  0  0  0  # atno 6909 bound_to 6896
  145.6939  139.2561  143.1744 H   0  0  0  0  0  0  0  0  0  0  0  0  # atno 7974 bound_to 7965
  155.3804  140.0493  157.3043 H   0  0  0  0  0  0  0  0  0  0  0  0  # atno 8008 bound_to 7997
  154.5085  140.2183  155.9164 H   0  0  0  0  0  0  0  0  0  0  0  0  # atno 8009 bound_to 7997
  156.1555  140.3127  155.8724 H   0  0  0  0  0  0  0  0  0  0  0  0  # atno 8010 bound_to 7997
  140.7036  143.3158  151.2914 H   0  0  0  0  0  0  0  0  0  0  0  0  # atno 10167 bound_to 10162
  156.6253  130.4886  149.6149 H   0  0  0  0  0  0  0  0  0  0  0  0  # atno 10718 bound_to 10713
  153.0330  135.5181  154.7410 H   0  0  0  0  0  0  0  0  0  0  0  0  # atno 10763 bound_to 10752
  154.6409  135.2912  155.0106 H   0  0  0  0  0  0  0  0  0  0  0  0  # atno 10764 bound_to 10752
  154.1024  135.6634  153.4923 H   0  0  0  0  0  0  0  0  0  0  0  0  # atno 10765 bound_to 10752
  140.1234  134.4799  155.8578 H   0  0  0  0  0  0  0  0  0  0  0  0  # atno 11005 bound_to 11000
  146.0858  140.7712  142.9619 LP  0  0  0  0  0  0  0  0  0  0  0  0  # atno 17320 bound_to 7965
  144.6988  140.3560  143.7173 LP  0  0  0  0  0  0  0  0  0  0  0  0  # atno 17321 bound_to 7965
  139.6596  144.0214  152.2683 LP  0  0  0  0  0  0  0  0  0  0  0  0  # atno 17342 bound_to 10162
  139.9777  144.6450  150.7930 LP  0  0  0  0  0  0  0  0  0  0  0  0  # atno 17343 bound_to 10162
  156.2278  130.6776  151.1433 LP  0  0  0  0  0  0  0  0  0  0  0  0  # atno 17370 bound_to 10713
  157.7216  131.0678  150.6112 LP  0  0  0  0  0  0  0  0  0  0  0  0  # atno 17371 bound_to 10713
  141.2156  133.6769  156.6933 LP  0  0  0  0  0  0  0  0  0  0  0  0  # atno 17394 bound_to 11000
  140.2935  134.8221  157.4037 LP  0  0  0  0  0  0  0  0  0  0  0  0  # atno 17395 bound_to 11000

$$$$
