AV-unprocessed.smi:2660|AV-procd|sdf|10314|dock1
  -GOLD-   2272014333D 1   1.00000     0.00000
 Structure written by MMmdl.
 36 37  0  0  0  0  0  0  0  0  1 V2000
  145.6852  139.7192  153.6138 N   0  0  0  0  0  0  0  0  0  0  0  0
  146.3021  140.2285  154.6875 C   0  0  0  0  0  0  0  0  0  0  0  0
  145.6648  140.9632  155.4422 O   0  0  0  0  0  0  0  0  0  0  0  0
  147.7194  139.8216  154.8255 C   0  0  0  0  0  0  0  0  0  0  0  0
  148.3446  139.0343  153.9213 C   0  0  0  0  0  0  0  0  0  0  0  0
  149.7219  138.6658  154.0982 C   0  0  0  0  0  0  0  0  0  0  0  0
  150.4133  139.1169  155.1614 C   0  0  0  0  0  0  0  0  0  0  0  0
  151.8803  138.7184  155.3674 C   0  0  0  0  0  0  0  0  0  0  0  0
  152.3095  137.9276  154.3826 F   0  0  0  0  0  0  0  0  0  0  0  0
  152.6819  139.7816  155.3773 F   0  0  0  0  0  0  0  0  0  0  0  0
  152.0343  138.0363  156.5029 F   0  0  0  0  0  0  0  0  0  0  0  0
  149.7755  139.9717  156.1145 N   0  0  0  0  0  0  0  0  0  0  0  0
  150.5354  140.5074  157.2719 C   0  0  0  0  0  0  0  0  0  0  0  0
  150.4385  142.0542  157.3934 C   0  0  2  0  0  0  0  0  0  0  0  0
  150.7978  142.6440  156.1607 O   0  0  0  0  0  0  0  0  0  0  0  0
  151.3088  142.5907  158.5214 C   0  0  0  0  0  0  0  0  0  0  0  0
  152.0993  141.7055  159.2857 C   0  0  0  0  0  0  0  0  0  0  0  0
  152.9117  142.1966  160.3258 C   0  0  0  0  0  0  0  0  0  0  0  0
  152.9392  143.5757  160.6078 C   0  0  0  0  0  0  0  0  0  0  0  0
  152.1537  144.4640  159.8487 C   0  0  0  0  0  0  0  0  0  0  0  0
  151.3404  143.9733  158.8087 C   0  0  0  0  0  0  0  0  0  0  0  0
  148.4491  140.3292  156.0160 C   0  0  0  0  0  0  0  0  0  0  0  0
  147.9326  141.0372  156.8855 O   0  0  0  0  0  0  0  0  0  0  0  0
  144.7156  139.9429  153.4429 H   0  0  0  0  0  0  0  0  0  0  0  0
  146.1873  139.1136  152.9813 H   0  0  0  0  0  0  0  0  0  0  0  0
  147.8421  138.6559  153.0436 H   0  0  0  0  0  0  0  0  0  0  0  0
  150.1819  138.0168  153.3681 H   0  0  0  0  0  0  0  0  0  0  0  0
  150.1422  140.0417  158.1781 H   0  0  0  0  0  0  0  0  0  0  0  0
  151.5735  140.1918  157.3099 H   0  0  0  0  0  0  0  0  0  0  0  0
  149.4069  142.3542  157.5835 H   0  0  0  0  0  0  0  0  0  0  0  0
  150.1255  143.2626  155.9188 H   0  0  0  0  0  0  0  0  0  0  0  0
  152.0901  140.6463  159.0740 H   0  0  0  0  0  0  0  0  0  0  0  0
  153.5154  141.5145  160.9061 H   0  0  0  0  0  0  0  0  0  0  0  0
  153.5635  143.9518  161.4049 H   0  0  0  0  0  0  0  0  0  0  0  0
  152.1757  145.5224  160.0632 H   0  0  0  0  0  0  0  0  0  0  0  0
  150.7429  144.6616  158.2289 H   0  0  0  0  0  0  0  0  0  0  0  0
  1  2  1  0  0  0  0
  1 24  1  0  0  0  0
  1 25  1  0  0  0  0
  2  3  2  0  0  0  0
  2  4  1  0  0  0  0
  4 22  1  0  0  0  0
  4  5  2  0  0  0  0
  5  6  1  0  0  0  0
  5 26  1  0  0  0  0
  6  7  2  0  0  0  0
  6 27  1  0  0  0  0
  7  8  1  0  0  0  0
  7 12  1  0  0  0  0
  8  9  1  0  0  0  0
  8 10  1  0  0  0  0
  8 11  1  0  0  0  0
 12 13  1  0  0  0  0
 12 22  1  0  0  0  0
 13 14  1  0  0  0  0
 13 28  1  0  0  0  0
 13 29  1  0  0  0  0
 14 15  1  0  0  0  0
 14 16  1  0  0  0  0
 14 30  1  0  0  0  0
 15 31  1  0  0  0  0
 16 21  1  0  0  0  0
 16 17  2  0  0  0  0
 17 18  1  0  0  0  0
 17 32  1  0  0  0  0
 18 19  2  0  0  0  0
 18 33  1  0  0  0  0
 19 20  1  0  0  0  0
 19 34  1  0  0  0  0
 20 21  2  0  0  0  0
 20 35  1  0  0  0  0
 21 36  1  0  0  0  0
 22 23  2  0  0  0  0
M  END
> <s_m_source_file>
AV-unprocessed.smi

> <i_m_source_file_index>
2660

> <i_lp_mmshare_version>
43012

> <i_f3d_flags>
0

> <s_epik_input>
W05IMl1DKD1PKWMxW2NIXVtjSF1jKEMoRikoRilGKW4oYzE9TylbQ0gyXVtDQEhdKFtPSF0pYzJbY0hdW2NIXVtjSF1bY0hdW2NIXTI=

> <s_epik_cmdline>
J2VwaWtfcHl0aG9uJywgJy1waCcsICc3LjAnLCAnLXRuJywgJzgnLCAnLW1hJywgJzIwMCcsICctbWV0YWxfYmluZGluZycsICctaW1hZScsICc8aW5maWxlLm1hZT4nLCAnLW9tYWUnLCAnPG91dGZpbGUubWFlPic=

> <r_lp_tautomer_probability>
1

> <r_epik_Ionization_Penalty>
1.58596e-06

> <r_epik_Ionization_Penalty_Charging>
5.13453e-09

> <r_epik_Ionization_Penalty_Neutral>
1.58083e-06

> <r_epik_State_Penalty>
-0

> <r_epik_Charging_Adjusted_Penalty>
5.13453e-09

> <i_epik_Tot_Q>
0

> <i_epik_Tot_abs_Q>
0

> <r_epik_Metal_State_Penalty>
-0

> <b_epik_Metal_Only>
0

> <s_lp_Force_Field>
OPLS_2005

> <r_lp_Energy>
35.2508

> <b_lp_Chiralities_Consistent>
1

> <s_lp_Variant>
AV-unprocessed.smi:2660-1

> <Gold.Version>
5.8.1

> <Gold.Id.Protein>
6NUR|6NUR_protein|mol2

> <Gold.PLP.Fitness>
42.4766

> <Gold.PLP.PLP>
-36.7924

> <Gold.PLP.part.hbond>
-1.6507

> <Gold.PLP.part.metal>
0.0000

> <Gold.PLP.part.buried>
-0.8952

> <Gold.PLP.part.nonpolar>
-33.4389

> <Gold.PLP.part.repulsive>
0.1366

> <Gold.PLP.ligand.clash>
3.4361

> <Gold.PLP.ligand.torsion>
0.0705

> <Gold.PLP.Chemscore.Hbond>
1.9199

> <Gold.PLP.Chemscore.CHOScore>
0.0000

> <Gold.PLP.Chemscore.Metal>
0.0000

> <Gold.Chemscore.Hbonds>
donor molecule, donor type, donor heavy atom, donor atom, acceptor molecule, acceptor atom, score
      L1  H     1    24       P1 10175  0.92
      L1  H    15    31       P1  8028  1.00

> <Gold.PLP.Chemscore.Internal.Correction>
3.5016

> <Gold.Rescore>
     Score         DG    S(hbond)    S(metal)    S(lipo)     H(rot)  DE(clash)    DE(int)     intcor
     12.39     -19.01       2.00        0.00     106.97       2.21       1.41       5.21       ----

> <Gold.Chemscore.Fitness>
12.3893

> <Gold.Chemscore.DG>
-19.0135

> <Gold.Chemscore.ZeroCoef>
-5.4800

> <Gold.Chemscore.Hbond>
1.9975

> <Gold.Chemscore.Metal>
0.0000

> <Gold.Chemscore.Lipo>
106.9737

> <Gold.Chemscore.Internal_Hbond>
0.0000

> <Gold.Chemscore.DEClash>
1.4122

> <Gold.Chemscore.DEInternal>
5.2119

> <Gold.Chemscore.Rot>
2.2086

> <Gold.Chemscore.Internal.Correction>
   9.000000E+99

> <Gold.Chemscore.Hbonds>
donor molecule, donor type, donor heavy atom, donor atom, acceptor molecule, acceptor atom, score
      L1  H     1    24       P1 10175  0.83
      L1  H    15    31       P1  8028  1.00

> <Gold.Chemscore.Hbond.Weighted>
-6.6715

> <Gold.Chemscore.Metal.Weighted>
-0.0000

> <Gold.Chemscore.Lipo.Weighted>
-12.5159

> <Gold.Chemscore.Internal_Hbond.Weighted>
0.0000

> <Gold.Chemscore.DEClash.Weighted>
1.4122

> <Gold.Chemscore.DEInternal.Weighted>
5.2119

> <Gold.Chemscore.Rot.Weighted>
5.6540

> <Gold.Chemscore.Internal.Correction.Weighted>
   9.000000E+99

> <Gold.Protein.RotatedTorsions>
[ 6907 6896 6895 6894 ] final  152.28 input  -60.11 | X-H torsion
[ 7974 7965 7964 7962 ] final    3.52 input  175.53 | X-H torsion
[ 8008 7997 7996 7995 ] final    3.33 input   59.86 | X-H torsion
[ 10167 10162 10161 10158 ] final  -81.36 input  -65.29 | X-H torsion
[ 10718 10713 10712 10709 ] final  -97.83 input   66.30 | X-H torsion
[ 10763 10752 10751 10750 ] final   76.98 input  -60.55 | X-H torsion
[ 11005 11000 10999 10996 ] final -141.55 input  -57.11 | X-H torsion

> <Gold.Protein.ActiveResidues>
 VAL166  LYS551  ARG553  GLY616  TRP617  ASP618  TYR619  PRO620  LYS621  CYS622 
 ASP623  PHE694  ASN695  SER759  ASP760  ASP761  ALA762  ILE779  LEU786  VAL792 
 PHE793  MET794  SER795  GLU796  ALA797  LYS798  CYS799  TRP800  GLU811  SER814 

> <Gold.Protein.RotatedAtoms>
  152.0889  133.4190  159.4534 H   0  0  0  0  0  0  0  0  0  0  0  0  # atno 6907 bound_to 6896
  150.6862  134.2895  159.4670 H   0  0  0  0  0  0  0  0  0  0  0  0  # atno 6908 bound_to 6896
  152.0744  134.9512  160.0625 H   0  0  0  0  0  0  0  0  0  0  0  0  # atno 6909 bound_to 6896
  146.2445  140.0673  142.8364 H   0  0  0  0  0  0  0  0  0  0  0  0  # atno 7974 bound_to 7965
  154.7024  140.2676  155.6707 H   0  0  0  0  0  0  0  0  0  0  0  0  # atno 8008 bound_to 7997
  156.2769  140.2769  156.1562 H   0  0  0  0  0  0  0  0  0  0  0  0  # atno 8009 bound_to 7997
  155.0747  140.0372  157.2610 H   0  0  0  0  0  0  0  0  0  0  0  0  # atno 8010 bound_to 7997
  140.4419  143.2512  151.8614 H   0  0  0  0  0  0  0  0  0  0  0  0  # atno 10167 bound_to 10162
  156.0093  130.5211  150.6433 H   0  0  0  0  0  0  0  0  0  0  0  0  # atno 10718 bound_to 10713
  153.0765  135.4931  154.8414 H   0  0  0  0  0  0  0  0  0  0  0  0  # atno 10763 bound_to 10752
  154.7094  135.3017  154.9223 H   0  0  0  0  0  0  0  0  0  0  0  0  # atno 10764 bound_to 10752
  153.9922  135.6777  153.4807 H   0  0  0  0  0  0  0  0  0  0  0  0  # atno 10765 bound_to 10752
  140.8313  134.2513  157.4855 H   0  0  0  0  0  0  0  0  0  0  0  0  # atno 11005 bound_to 11000
  145.0847  140.9245  143.4804 LP  0  0  0  0  0  0  0  0  0  0  0  0  # atno 17320 bound_to 7965
  145.0833  139.2944  143.5772 LP  0  0  0  0  0  0  0  0  0  0  0  0  # atno 17321 bound_to 7965
  139.4790  144.5220  151.8788 LP  0  0  0  0  0  0  0  0  0  0  0  0  # atno 17342 bound_to 10162
  140.4309  144.2117  150.5888 LP  0  0  0  0  0  0  0  0  0  0  0  0  # atno 17343 bound_to 10162
  157.4209  131.0836  151.1132 LP  0  0  0  0  0  0  0  0  0  0  0  0  # atno 17370 bound_to 10713
  157.1734  130.6277  149.5648 LP  0  0  0  0  0  0  0  0  0  0  0  0  # atno 17371 bound_to 10713
  139.8705  134.9587  156.4310 LP  0  0  0  0  0  0  0  0  0  0  0  0  # atno 17394 bound_to 11000
  140.8995  133.7790  155.9663 LP  0  0  0  0  0  0  0  0  0  0  0  0  # atno 17395 bound_to 11000

$$$$
