AV-unprocessed.smi:149|AV-procd|sdf|1241|dock6
  -GOLD-   2262018453D 1   1.00000     0.00000
 Structure written by MMmdl.
 59 63  0  0  0  0  0  0  0  0  1 V2000
  149.8514  126.8838  156.6480 C   0  0  0  0  0  0  0  0  0  0  0  0
  150.3043  127.8548  155.5436 C   0  0  1  0  0  0  0  0  0  0  0  0
  149.0940  128.5176  154.8631 C   0  0  0  0  0  0  0  0  0  0  0  0
  149.2450  129.9529  155.0399 N   0  0  0  0  0  0  0  0  0  0  0  0
  148.4972  130.8033  154.2838 C   0  0  0  0  0  0  0  0  0  0  0  0
  148.5219  132.1275  154.5950 N   0  0  0  0  0  0  0  0  0  0  0  0
  147.8114  133.0096  153.8877 C   0  0  0  0  0  0  0  0  0  0  0  0
  147.0157  132.7901  152.8413 N   0  0  0  0  0  0  0  0  0  0  0  0
  146.9858  131.4673  152.5131 C   0  0  0  0  0  0  0  0  0  0  0  0
  147.6948  130.4168  153.1665 C   0  0  0  0  0  0  0  0  0  0  0  0
  147.4269  129.2121  152.5234 N   0  0  0  0  0  0  0  0  0  0  0  0
  146.6140  129.5305  151.5549 C   0  0  0  0  0  0  0  0  0  0  0  0
  146.2698  130.8604  151.4957 N   0  0  0  0  0  0  0  0  0  0  0  0
  145.4253  131.4847  150.5205 C   0  0  0  0  0  0  0  0  0  0  0  0
  145.4824  132.9946  150.2778 C   0  0  0  0  0  0  0  0  0  0  0  0
  143.9721  132.9945  149.9548 C   0  0  0  0  0  0  0  0  0  0  0  0
  143.1802  134.1751  150.5416 C   0  0  0  0  0  0  0  0  0  0  0  0
  143.7096  135.4133  150.1128 O   0  0  0  0  0  0  0  0  0  0  0  0
  143.6217  132.8339  148.4616 C   0  0  0  0  0  0  0  0  0  0  0  0
  142.2659  132.4780  148.2839 O   0  0  0  0  0  0  0  0  0  0  0  0
  143.9313  131.6903  150.7829 C   0  0  0  0  0  0  0  0  0  0  0  0
  150.6407  130.2325  155.3073 C   0  0  0  0  0  0  0  0  0  0  0  0
  151.1890  129.0143  156.0651 C   0  0  2  0  0  0  0  0  0  0  0  0
  152.6419  128.8469  155.8949 N   0  0  0  0  0  0  0  0  0  0  0  0
  153.0093  128.6881  154.4863 C   0  0  0  0  0  0  0  0  0  0  0  0
  154.5255  128.5144  154.2932 C   0  0  0  0  0  0  0  0  0  0  0  0
  155.2084  129.6259  154.8606 O   0  0  0  0  0  0  0  0  0  0  0  0
  154.9236  129.7879  156.2449 C   0  0  0  0  0  0  0  0  0  0  0  0
  153.4083  129.9634  156.4469 C   0  0  0  0  0  0  0  0  0  0  0  0
  149.2730  127.4014  157.4139 H   0  0  0  0  0  0  0  0  0  0  0  0
  150.6949  126.4046  157.1425 H   0  0  0  0  0  0  0  0  0  0  0  0
  149.2232  126.0930  156.2373 H   0  0  0  0  0  0  0  0  0  0  0  0
  150.8467  127.2964  154.7793 H   0  0  0  0  0  0  0  0  0  0  0  0
  149.0717  128.2660  153.8016 H   0  0  0  0  0  0  0  0  0  0  0  0
  148.1522  128.1878  155.3038 H   0  0  0  0  0  0  0  0  0  0  0  0
  147.8902  134.0382  154.2077 H   0  0  0  0  0  0  0  0  0  0  0  0
  146.2364  128.7957  150.8587 H   0  0  0  0  0  0  0  0  0  0  0  0
  145.5829  130.9373  149.5896 H   0  0  0  0  0  0  0  0  0  0  0  0
  145.7242  133.5522  151.1849 H   0  0  0  0  0  0  0  0  0  0  0  0
  146.1281  133.2957  149.4522 H   0  0  0  0  0  0  0  0  0  0  0  0
  142.1252  134.1265  150.2719 H   0  0  0  0  0  0  0  0  0  0  0  0
  143.2165  134.1597  151.6313 H   0  0  0  0  0  0  0  0  0  0  0  0
  144.4182  135.2448  149.5104 H   0  0  0  0  0  0  0  0  0  0  0  0
  143.8214  133.7482  147.9025 H   0  0  0  0  0  0  0  0  0  0  0  0
  144.2308  132.0589  147.9961 H   0  0  0  0  0  0  0  0  0  0  0  0
  141.9906  132.7659  147.4270 H   0  0  0  0  0  0  0  0  0  0  0  0
  143.2928  130.9039  150.3788 H   0  0  0  0  0  0  0  0  0  0  0  0
  143.7127  131.8640  151.8381 H   0  0  0  0  0  0  0  0  0  0  0  0
  151.1640  130.3761  154.3604 H   0  0  0  0  0  0  0  0  0  0  0  0
  150.7538  131.1337  155.9099 H   0  0  0  0  0  0  0  0  0  0  0  0
  150.9651  129.1590  157.1236 H   0  0  0  0  0  0  0  0  0  0  0  0
  152.5092  127.8200  154.0572 H   0  0  0  0  0  0  0  0  0  0  0  0
  152.6713  129.5551  153.9166 H   0  0  0  0  0  0  0  0  0  0  0  0
  154.8711  127.5891  154.7568 H   0  0  0  0  0  0  0  0  0  0  0  0
  154.7676  128.4516  153.2325 H   0  0  0  0  0  0  0  0  0  0  0  0
  155.2891  128.9240  156.8024 H   0  0  0  0  0  0  0  0  0  0  0  0
  155.4594  130.6604  156.6188 H   0  0  0  0  0  0  0  0  0  0  0  0
  153.0868  130.8983  155.9852 H   0  0  0  0  0  0  0  0  0  0  0  0
  153.2210  130.0569  157.5156 H   0  0  0  0  0  0  0  0  0  0  0  0
  1  2  1  0  0  0  0
  1 30  1  0  0  0  0
  1 31  1  0  0  0  0
  1 32  1  0  0  0  0
  2 23  1  0  0  0  0
  2  3  1  0  0  0  0
  2 33  1  0  0  0  0
  3  4  1  0  0  0  0
  3 34  1  0  0  0  0
  3 35  1  0  0  0  0
  4  5  1  0  0  0  0
  4 22  1  0  0  0  0
  5 10  1  0  0  0  0
  5  6  2  0  0  0  0
  6  7  1  0  0  0  0
  7  8  2  0  0  0  0
  7 36  1  0  0  0  0
  8  9  1  0  0  0  0
  9 13  1  0  0  0  0
  9 10  2  0  0  0  0
 10 11  1  0  0  0  0
 11 12  2  0  0  0  0
 12 13  1  0  0  0  0
 12 37  1  0  0  0  0
 13 14  1  0  0  0  0
 14 21  1  0  0  0  0
 14 15  1  0  0  0  0
 14 38  1  0  0  0  0
 15 16  1  0  0  0  0
 15 39  1  0  0  0  0
 15 40  1  0  0  0  0
 16 17  1  0  0  0  0
 16 19  1  0  0  0  0
 16 21  1  0  0  0  0
 17 18  1  0  0  0  0
 17 41  1  0  0  0  0
 17 42  1  0  0  0  0
 18 43  1  0  0  0  0
 19 20  1  0  0  0  0
 19 44  1  0  0  0  0
 19 45  1  0  0  0  0
 20 46  1  0  0  0  0
 21 47  1  0  0  0  0
 21 48  1  0  0  0  0
 22 23  1  0  0  0  0
 22 49  1  0  0  0  0
 22 50  1  0  0  0  0
 23 24  1  0  0  0  0
 23 51  1  0  0  0  0
 24 29  1  0  0  0  0
 24 25  1  0  0  0  0
 25 26  1  0  0  0  0
 25 52  1  0  0  0  0
 25 53  1  0  0  0  0
 26 27  1  0  0  0  0
 26 54  1  0  0  0  0
 26 55  1  0  0  0  0
 27 28  1  0  0  0  0
 28 29  1  0  0  0  0
 28 56  1  0  0  0  0
 28 57  1  0  0  0  0
 29 58  1  0  0  0  0
 29 59  1  0  0  0  0
M  END
> <s_m_source_file>
AV-unprocessed.smi

> <i_m_source_file_index>
149

> <i_lp_mmshare_version>
43012

> <i_f3d_flags>
0

> <s_epik_input>
W0NIMl0xW0NIMl1PW0NIMl1bQ0gyXU4xW0NAQEhdMltDSDJdTihbQ0gyXVtDQEhdMltDSDNdKWMobltjSF1uMyljKGMzNCluW2NIXW40W0NIXShbQ0gyXTUpW0NIMl1DNShbQ0gyXVtPSF0pW0NIMl1bT0hd

> <s_epik_cmdline>
J2VwaWtfcHl0aG9uJywgJy1waCcsICc3LjAnLCAnLXRuJywgJzgnLCAnLW1hJywgJzIwMCcsICctbWV0YWxfYmluZGluZycsICctaW1hZScsICc8aW5maWxlLm1hZT4nLCAnLW9tYWUnLCAnPG91dGZpbGUubWFlPic=

> <r_lp_tautomer_probability>
1

> <r_epik_Ionization_Penalty>
0.41918

> <r_epik_Ionization_Penalty_Charging>
0

> <r_epik_Ionization_Penalty_Neutral>
0.41918

> <r_epik_State_Penalty>
0.654916

> <r_epik_Charging_Adjusted_Penalty>
0.654916

> <i_epik_Tot_Q>
0

> <i_epik_Tot_abs_Q>
0

> <r_epik_Metal_State_Penalty>
0.653217

> <b_epik_Metal_Only>
0

> <s_lp_Force_Field>
OPLS_2005

> <r_lp_Energy>
73.5543

> <b_lp_Chiralities_Consistent>
1

> <s_lp_Variant>
AV-unprocessed.smi:149-8

> <Gold.Version>
5.8.1

> <Gold.Id.Protein>
6NUR|6NUR_protein|mol2

> <Gold.PLP.Fitness>
48.3250

> <Gold.PLP.PLP>
-40.5891

> <Gold.PLP.part.hbond>
-4.3849

> <Gold.PLP.part.metal>
0.0000

> <Gold.PLP.part.buried>
-0.5777

> <Gold.PLP.part.nonpolar>
-35.6738

> <Gold.PLP.part.repulsive>
0.3736

> <Gold.PLP.ligand.clash>
0.0000

> <Gold.PLP.ligand.torsion>
1.0645

> <Gold.PLP.Chemscore.Hbond>
2.0000

> <Gold.PLP.Chemscore.CHOScore>
1.0000

> <Gold.PLP.Chemscore.Metal>
0.0000

> <Gold.Chemscore.Hbonds>
donor molecule, donor type, donor heavy atom, donor atom, acceptor molecule, acceptor atom, score
      L1  H    20    46       P1 10195  1.00

> <Gold.PLP.Chemscore.Internal.Correction>
0.8650

> <Gold.Rescore>
     Score         DG    S(hbond)    S(metal)    S(lipo)     H(rot)  DE(clash)    DE(int)     intcor
      9.20     -14.00       2.00        0.00      88.91       3.34       1.89       2.91       ----

> <Gold.Chemscore.Fitness>
9.2017

> <Gold.Chemscore.DG>
-13.9950

> <Gold.Chemscore.ZeroCoef>
-5.4800

> <Gold.Chemscore.Hbond>
1.9961

> <Gold.Chemscore.Metal>
0.0000

> <Gold.Chemscore.Lipo>
88.9105

> <Gold.Chemscore.Internal_Hbond>
0.0000

> <Gold.Chemscore.DEClash>
1.8877

> <Gold.Chemscore.DEInternal>
2.9057

> <Gold.Chemscore.Rot>
3.3416

> <Gold.Chemscore.Internal.Correction>
   9.000000E+99

> <Gold.Chemscore.Hbonds>
donor molecule, donor type, donor heavy atom, donor atom, acceptor molecule, acceptor atom, score
      L1  H    20    46       P1 10195  0.96

> <Gold.Chemscore.Hbond.Weighted>
-6.6670

> <Gold.Chemscore.Metal.Weighted>
-0.0000

> <Gold.Chemscore.Lipo.Weighted>
-10.4025

> <Gold.Chemscore.Internal_Hbond.Weighted>
0.0000

> <Gold.Chemscore.DEClash.Weighted>
1.8877

> <Gold.Chemscore.DEInternal.Weighted>
2.9057

> <Gold.Chemscore.Rot.Weighted>
8.5545

> <Gold.Chemscore.Internal.Correction.Weighted>
   9.000000E+99

> <Gold.Protein.RotatedTorsions>
[ 6907 6896 6895 6894 ] final  163.18 input  -60.11 | X-H torsion
[ 7974 7965 7964 7962 ] final  173.58 input  175.53 | X-H torsion
[ 8008 7997 7996 7995 ] final  133.82 input   59.86 | X-H torsion
[ 10167 10162 10161 10158 ] final  -63.93 input  -65.29 | X-H torsion
[ 10718 10713 10712 10709 ] final  -95.91 input   66.30 | X-H torsion
[ 10763 10752 10751 10750 ] final -110.15 input  -60.55 | X-H torsion
[ 11005 11000 10999 10996 ] final  107.25 input  -57.11 | X-H torsion

> <Gold.Protein.ActiveResidues>
 VAL166  LYS551  ARG553  GLY616  TRP617  ASP618  TYR619  PRO620  LYS621  CYS622 
 ASP623  PHE694  ASN695  SER759  ASP760  ASP761  ALA762  ILE779  LEU786  VAL792 
 PHE793  MET794  SER795  GLU796  ALA797  LYS798  CYS799  TRP800  GLU811  SER814 

> <Gold.Protein.RotatedAtoms>
  151.9291  133.3606  159.3924 H   0  0  0  0  0  0  0  0  0  0  0  0  # atno 6907 bound_to 6896
  150.7021  134.4556  159.5366 H   0  0  0  0  0  0  0  0  0  0  0  0  # atno 6908 bound_to 6896
  152.2193  134.8428  160.0538 H   0  0  0  0  0  0  0  0  0  0  0  0  # atno 6909 bound_to 6896
  144.7240  139.9669  143.6436 H   0  0  0  0  0  0  0  0  0  0  0  0  # atno 7974 bound_to 7965
  156.2995  140.2511  156.3317 H   0  0  0  0  0  0  0  0  0  0  0  0  # atno 8008 bound_to 7997
  154.9139  140.0402  157.1980 H   0  0  0  0  0  0  0  0  0  0  0  0  # atno 8009 bound_to 7997
  154.8378  140.2886  155.5684 H   0  0  0  0  0  0  0  0  0  0  0  0  # atno 8010 bound_to 7997
  140.5836  143.2330  151.6289 H   0  0  0  0  0  0  0  0  0  0  0  0  # atno 10167 bound_to 10162
  156.0052  130.5129  150.6147 H   0  0  0  0  0  0  0  0  0  0  0  0  # atno 10718 bound_to 10713
  154.8233  135.4574  154.0842 H   0  0  0  0  0  0  0  0  0  0  0  0  # atno 10763 bound_to 10752
  153.2178  135.6890  153.8043 H   0  0  0  0  0  0  0  0  0  0  0  0  # atno 10764 bound_to 10752
  153.7471  135.3303  155.3291 H   0  0  0  0  0  0  0  0  0  0  0  0  # atno 10765 bound_to 10752
  139.8825  134.9395  156.5790 H   0  0  0  0  0  0  0  0  0  0  0  0  # atno 11005 bound_to 11000
  146.0593  139.3588  143.0591 LP  0  0  0  0  0  0  0  0  0  0  0  0  # atno 17320 bound_to 7965
  145.8113  140.9724  143.0947 LP  0  0  0  0  0  0  0  0  0  0  0  0  # atno 17321 bound_to 7965
  139.5184  144.3284  152.0848 LP  0  0  0  0  0  0  0  0  0  0  0  0  # atno 17342 bound_to 10162
  140.2438  144.4242  150.6249 LP  0  0  0  0  0  0  0  0  0  0  0  0  # atno 17343 bound_to 10162
  157.3974  131.0805  151.1340 LP  0  0  0  0  0  0  0  0  0  0  0  0  # atno 17370 bound_to 10713
  157.2012  130.6395  149.5739 LP  0  0  0  0  0  0  0  0  0  0  0  0  # atno 17371 bound_to 10713
  140.8041  133.8481  155.8752 LP  0  0  0  0  0  0  0  0  0  0  0  0  # atno 17394 bound_to 11000
  140.9566  134.1710  157.4687 LP  0  0  0  0  0  0  0  0  0  0  0  0  # atno 17395 bound_to 11000

$$$$
