AV-unprocessed.smi:1814|AV-procd|sdf|7349|dock10
  -GOLD-   22720 9 13D 1   1.00000     0.00000
 Structure written by MMmdl.
 31 32  0  0  0  0  0  0  0  0  1 V2000
  150.7709  140.7265  156.4717 O   0  0  0  0  0  0  0  0  0  0  0  0
  150.1979  141.8052  156.3148 C   0  0  0  0  0  0  0  0  0  0  0  0
  149.1694  142.0241  155.4767 N   0  0  0  0  0  0  0  0  0  0  0  0
  148.5261  141.0967  154.6157 C   0  0  0  0  0  0  0  0  0  0  0  0
  147.4848  141.3930  153.8290 N   0  0  0  0  0  0  0  0  0  0  0  0
  147.0553  140.2888  153.0890 C   0  0  0  0  0  0  0  0  0  0  0  0
  147.7864  139.1512  153.3258 C   0  0  0  0  0  0  0  0  0  0  0  0
  149.0489  139.4229  154.4971 S   0  0  0  0  0  0  0  0  0  0  0  0
  150.5313  142.9230  156.9767 N   0  0  0  0  0  0  0  0  0  0  0  0
  151.5998  143.0295  157.9659 C   0  0  2  0  0  0  0  0  0  0  0  0
  151.6154  141.7917  158.8857 C   0  0  0  0  0  0  0  0  0  0  0  0
  152.6944  141.9112  159.9765 C   0  0  0  0  0  0  0  0  0  0  0  0
  152.5629  143.2122  160.7910 C   0  0  2  0  0  0  0  0  0  0  0  0
  151.4133  143.1575  161.6129 O   0  0  0  0  0  0  0  0  0  0  0  0
  152.4982  144.4498  159.8762 C   0  0  0  0  0  0  0  0  0  0  0  0
  151.4158  144.3163  158.7906 C   0  0  0  0  0  0  0  0  0  0  0  0
  148.7980  142.9623  155.4576 H   0  0  0  0  0  0  0  0  0  0  0  0
  146.2195  140.4022  152.4144 H   0  0  0  0  0  0  0  0  0  0  0  0
  147.6588  138.1743  152.8839 H   0  0  0  0  0  0  0  0  0  0  0  0
  150.0065  143.7637  156.7850 H   0  0  0  0  0  0  0  0  0  0  0  0
  152.5580  143.0956  157.4468 H   0  0  0  0  0  0  0  0  0  0  0  0
  150.6376  141.6664  159.3530 H   0  0  0  0  0  0  0  0  0  0  0  0
  151.7924  140.8890  158.2996 H   0  0  0  0  0  0  0  0  0  0  0  0
  152.6567  141.0446  160.6376 H   0  0  0  0  0  0  0  0  0  0  0  0
  153.6767  141.8879  159.5028 H   0  0  0  0  0  0  0  0  0  0  0  0
  153.4228  143.3051  161.4550 H   0  0  0  0  0  0  0  0  0  0  0  0
  151.2219  144.0304  161.9207 H   0  0  0  0  0  0  0  0  0  0  0  0
  152.3271  145.3496  160.4682 H   0  0  0  0  0  0  0  0  0  0  0  0
  153.4667  144.5846  159.3927 H   0  0  0  0  0  0  0  0  0  0  0  0
  151.4476  145.1875  158.1351 H   0  0  0  0  0  0  0  0  0  0  0  0
  150.4299  144.3197  159.2579 H   0  0  0  0  0  0  0  0  0  0  0  0
  1  2  2  0  0  0  0
  2  3  1  0  0  0  0
  2  9  1  0  0  0  0
  3  4  1  0  0  0  0
  3 17  1  0  0  0  0
  4  8  1  0  0  0  0
  4  5  2  0  0  0  0
  5  6  1  0  0  0  0
  6  7  2  0  0  0  0
  6 18  1  0  0  0  0
  7  8  1  0  0  0  0
  7 19  1  0  0  0  0
  9 10  1  0  0  0  0
  9 20  1  0  0  0  0
 10 16  1  0  0  0  0
 10 11  1  0  0  0  0
 10 21  1  0  0  0  0
 11 12  1  0  0  0  0
 11 22  1  0  0  0  0
 11 23  1  0  0  0  0
 12 13  1  0  0  0  0
 12 24  1  0  0  0  0
 12 25  1  0  0  0  0
 13 14  1  0  0  0  0
 13 15  1  0  0  0  0
 13 26  1  0  0  0  0
 14 27  1  0  0  0  0
 15 16  1  0  0  0  0
 15 28  1  0  0  0  0
 15 29  1  0  0  0  0
 16 30  1  0  0  0  0
 16 31  1  0  0  0  0
M  END
> <s_m_source_file>
AV-unprocessed.smi

> <i_m_source_file_index>
1814

> <i_lp_mmshare_version>
43012

> <i_f3d_flags>
0

> <s_epik_input>
czFbY0hdW2NIXW5jMVtOSF1DKD1PKVtOSF1bQ0BASF0yW0NIMl1bQ0gyXVtDQEBIXShbT0hdKVtDSDJdW0NIMl0y

> <s_epik_cmdline>
J2VwaWtfcHl0aG9uJywgJy1waCcsICc3LjAnLCAnLXRuJywgJzgnLCAnLW1hJywgJzIwMCcsICctbWV0YWxfYmluZGluZycsICctaW1hZScsICc8aW5maWxlLm1hZT4nLCAnLW9tYWUnLCAnPG91dGZpbGUubWFlPic=

> <r_lp_tautomer_probability>
0.999

> <r_epik_Ionization_Penalty>
0.000428518

> <r_epik_Ionization_Penalty_Charging>
0

> <r_epik_Ionization_Penalty_Neutral>
0.000428518

> <r_epik_State_Penalty>
0.000177984

> <r_epik_Charging_Adjusted_Penalty>
0.000177984

> <i_epik_Tot_Q>
0

> <i_epik_Tot_abs_Q>
0

> <r_epik_Metal_State_Penalty>
-0

> <b_epik_Metal_Only>
0

> <s_lp_Force_Field>
OPLS_2005

> <r_lp_Energy>
9.0844

> <b_lp_Chiralities_Consistent>
1

> <s_lp_Variant>
AV-unprocessed.smi:1814-2

> <Gold.Version>
5.8.1

> <Gold.Id.Protein>
6NUR|6NUR_protein|mol2

> <Gold.PLP.Fitness>
48.4502

> <Gold.PLP.PLP>
-35.4314

> <Gold.PLP.part.hbond>
-3.8969

> <Gold.PLP.part.metal>
0.0000

> <Gold.PLP.part.buried>
-4.2605

> <Gold.PLP.part.nonpolar>
-28.0578

> <Gold.PLP.part.repulsive>
0.3670

> <Gold.PLP.ligand.clash>
0.0000

> <Gold.PLP.ligand.torsion>
0.2408

> <Gold.PLP.Chemscore.Hbond>
2.4992

> <Gold.PLP.Chemscore.CHOScore>
2.0000

> <Gold.PLP.Chemscore.Metal>
0.0000

> <Gold.Chemscore.Hbonds>
donor molecule, donor type, donor heavy atom, donor atom, acceptor molecule, acceptor atom, score
      L1  H     3    17       P1  8028  1.00
      L1  H     9    20       P1  8028  1.00
      P1  H  6933  6945       L1    14  0.50
      L1  C     6    18       P1 10175  1.00
      L1  C     7    19       P1  7948  0.99

> <Gold.PLP.Chemscore.Internal.Correction>
0.0028

> <Gold.Rescore>
     Score         DG    S(hbond)    S(metal)    S(lipo)     H(rot)  DE(clash)    DE(int)     intcor
     16.34     -19.29       2.30        0.00      85.25       1.50       0.04       2.91       ----

> <Gold.Chemscore.Fitness>
16.3384

> <Gold.Chemscore.DG>
-19.2860

> <Gold.Chemscore.ZeroCoef>
-5.4800

> <Gold.Chemscore.Hbond>
2.2972

> <Gold.Chemscore.Metal>
0.0000

> <Gold.Chemscore.Lipo>
85.2542

> <Gold.Chemscore.Internal_Hbond>
0.0000

> <Gold.Chemscore.DEClash>
0.0351

> <Gold.Chemscore.DEInternal>
2.9125

> <Gold.Chemscore.Rot>
1.5006

> <Gold.Chemscore.Internal.Correction>
   9.000000E+99

> <Gold.Chemscore.Hbonds>
donor molecule, donor type, donor heavy atom, donor atom, acceptor molecule, acceptor atom, score
      L1  H     3    17       P1  8028  0.98
      L1  H     9    20       P1  8028  0.94
      P1  H  6933  6945       L1    14  0.40

> <Gold.Chemscore.Hbond.Weighted>
-7.6728

> <Gold.Chemscore.Metal.Weighted>
-0.0000

> <Gold.Chemscore.Lipo.Weighted>
-9.9747

> <Gold.Chemscore.Internal_Hbond.Weighted>
0.0000

> <Gold.Chemscore.DEClash.Weighted>
0.0351

> <Gold.Chemscore.DEInternal.Weighted>
2.9125

> <Gold.Chemscore.Rot.Weighted>
3.8415

> <Gold.Chemscore.Internal.Correction.Weighted>
   9.000000E+99

> <Gold.Protein.RotatedTorsions>
[ 6907 6896 6895 6894 ] final  150.88 input  -60.11 | X-H torsion
[ 7974 7965 7964 7962 ] final -175.68 input  175.53 | X-H torsion
[ 8008 7997 7996 7995 ] final   62.90 input   59.86 | X-H torsion
[ 10167 10162 10161 10158 ] final -119.00 input  -65.29 | X-H torsion
[ 10718 10713 10712 10709 ] final   44.09 input   66.30 | X-H torsion
[ 10763 10752 10751 10750 ] final   76.60 input  -60.55 | X-H torsion
[ 11005 11000 10999 10996 ] final  164.58 input  -57.11 | X-H torsion

> <Gold.Protein.ActiveResidues>
 VAL166  LYS551  ARG553  GLY616  TRP617  ASP618  TYR619  PRO620  LYS621  CYS622 
 ASP623  PHE694  ASN695  SER759  ASP760  ASP761  ALA762  ILE779  LEU786  VAL792 
 PHE793  MET794  SER795  GLU796  ALA797  LYS798  CYS799  TRP800  GLU811  SER814 

> <Gold.Protein.RotatedAtoms>
  152.1083  133.4287  159.4618 H   0  0  0  0  0  0  0  0  0  0  0  0  # atno 6907 bound_to 6896
  150.6866  134.2679  159.4585 H   0  0  0  0  0  0  0  0  0  0  0  0  # atno 6908 bound_to 6896
  152.0545  134.9632  160.0625 H   0  0  0  0  0  0  0  0  0  0  0  0  # atno 6909 bound_to 6896
  144.7127  140.1284  143.6400 H   0  0  0  0  0  0  0  0  0  0  0  0  # atno 7974 bound_to 7965
  155.6217  140.3496  155.4654 H   0  0  0  0  0  0  0  0  0  0  0  0  # atno 8008 bound_to 7997
  156.0074  140.1226  157.0512 H   0  0  0  0  0  0  0  0  0  0  0  0  # atno 8009 bound_to 7997
  154.4269  140.1088  156.5768 H   0  0  0  0  0  0  0  0  0  0  0  0  # atno 8010 bound_to 7997
  140.0514  143.5056  152.2080 H   0  0  0  0  0  0  0  0  0  0  0  0  # atno 10167 bound_to 10162
  157.4230  130.7980  149.7532 H   0  0  0  0  0  0  0  0  0  0  0  0  # atno 10718 bound_to 10713
  153.0737  135.4945  154.8360 H   0  0  0  0  0  0  0  0  0  0  0  0  # atno 10763 bound_to 10752
  154.7058  135.3010  154.9274 H   0  0  0  0  0  0  0  0  0  0  0  0  # atno 10764 bound_to 10752
  153.9983  135.6769  153.4810 H   0  0  0  0  0  0  0  0  0  0  0  0  # atno 10765 bound_to 10752
  140.2473  134.8004  157.3469 H   0  0  0  0  0  0  0  0  0  0  0  0  # atno 11005 bound_to 11000
  145.9308  139.2605  143.1326 LP  0  0  0  0  0  0  0  0  0  0  0  0  # atno 17320 bound_to 7965
  145.9524  140.8898  143.0252 LP  0  0  0  0  0  0  0  0  0  0  0  0  # atno 17321 bound_to 7965
  139.5950  144.7564  151.3307 LP  0  0  0  0  0  0  0  0  0  0  0  0  # atno 17342 bound_to 10162
  140.7215  143.7123  150.7760 LP  0  0  0  0  0  0  0  0  0  0  0  0  # atno 17343 bound_to 10162
  155.9887  130.3957  150.3107 LP  0  0  0  0  0  0  0  0  0  0  0  0  # atno 17370 bound_to 10713
  157.1257  131.0258  151.2991 LP  0  0  0  0  0  0  0  0  0  0  0  0  # atno 17371 bound_to 10713
  140.1593  134.4749  155.7906 LP  0  0  0  0  0  0  0  0  0  0  0  0  # atno 17394 bound_to 11000
  141.2205  133.6894  156.7515 LP  0  0  0  0  0  0  0  0  0  0  0  0  # atno 17395 bound_to 11000

$$$$
