AV-unprocessed.smi:1697|AV-procd|sdf|6811|dock2
  -GOLD-   22720 7583D 1   1.00000     0.00000
 Structure written by MMmdl.
 53 55  0  0  0  0  0  0  0  0  1 V2000
  153.0665  142.4827  162.7241 C   0  0  0  0  0  0  0  0  0  0  0  0
  152.0170  143.2350  161.9030 C   0  0  0  0  0  0  0  0  0  0  0  0
  152.5245  143.4425  160.5931 O   0  0  0  0  0  0  0  0  0  0  0  0
  151.5646  143.2788  159.5563 C   0  0  0  0  0  0  0  0  0  0  0  0
  151.3451  141.7924  159.2143 C   0  0  0  0  0  0  0  0  0  0  0  0
  150.4487  141.6526  157.9723 C   0  0  0  0  0  0  0  0  0  0  0  0
  150.9873  142.3468  156.8020 N   0  0  0  0  0  0  0  0  0  0  0  0
  150.1330  142.1227  155.6336 C   0  0  0  0  0  0  0  0  0  0  0  0
  149.7769  140.6519  155.3399 C   0  0  2  0  0  0  0  0  0  0  0  0
  150.8148  140.1013  154.5543 O   0  0  0  0  0  0  0  0  0  0  0  0
  148.4397  140.5000  154.5882 C   0  0  0  0  0  0  0  0  0  0  0  0
  147.3284  141.0679  155.3289 N   0  0  0  0  0  0  0  0  0  0  0  0
  146.8968  140.7172  156.5557 C   0  0  0  0  0  0  0  0  0  0  0  0
  145.8553  141.3832  157.0467 N   0  0  0  0  0  0  0  0  0  0  0  0
  145.5761  142.2649  156.0160 C   0  0  0  0  0  0  0  0  0  0  0  0
  144.5779  143.2572  155.9013 C   0  0  0  0  0  0  0  0  0  0  0  0
  144.4774  144.0529  154.7374 C   0  0  0  0  0  0  0  0  0  0  0  0
  143.3880  145.1075  154.6561 C   0  0  0  0  0  0  0  0  0  0  0  0
  145.3845  143.8605  153.6642 C   0  0  0  0  0  0  0  0  0  0  0  0
  145.2934  144.6998  152.4020 C   0  0  0  0  0  0  0  0  0  0  0  0
  146.3896  142.8762  153.7639 C   0  0  0  0  0  0  0  0  0  0  0  0
  146.4787  142.0913  154.9267 C   0  0  0  0  0  0  0  0  0  0  0  0
  151.1576  143.7707  157.1076 C   0  0  0  0  0  0  0  0  0  0  0  0
  152.0864  144.0098  158.3097 C   0  0  0  0  0  0  0  0  0  0  0  0
  152.7140  142.3101  163.7411 H   0  0  0  0  0  0  0  0  0  0  0  0
  153.9965  143.0486  162.7840 H   0  0  0  0  0  0  0  0  0  0  0  0
  153.2911  141.5132  162.2785 H   0  0  0  0  0  0  0  0  0  0  0  0
  151.0931  142.6578  161.8744 H   0  0  0  0  0  0  0  0  0  0  0  0
  151.7951  144.1917  162.3777 H   0  0  0  0  0  0  0  0  0  0  0  0
  150.6175  143.7355  159.8502 H   0  0  0  0  0  0  0  0  0  0  0  0
  152.3056  141.3103  159.0278 H   0  0  0  0  0  0  0  0  0  0  0  0
  150.8874  141.2652  160.0507 H   0  0  0  0  0  0  0  0  0  0  0  0
  150.3286  140.5925  157.7464 H   0  0  0  0  0  0  0  0  0  0  0  0
  149.4517  142.0326  158.2006 H   0  0  0  0  0  0  0  0  0  0  0  0
  149.1987  142.6702  155.7671 H   0  0  0  0  0  0  0  0  0  0  0  0
  150.6092  142.5596  154.7542 H   0  0  0  0  0  0  0  0  0  0  0  0
  149.7491  140.0768  156.2647 H   0  0  0  0  0  0  0  0  0  0  0  0
  150.5478  139.2409  154.2683 H   0  0  0  0  0  0  0  0  0  0  0  0
  148.4879  141.0031  153.6216 H   0  0  0  0  0  0  0  0  0  0  0  0
  148.2288  139.4496  154.3819 H   0  0  0  0  0  0  0  0  0  0  0  0
  147.3774  139.9325  157.1220 H   0  0  0  0  0  0  0  0  0  0  0  0
  143.8867  143.4024  156.7184 H   0  0  0  0  0  0  0  0  0  0  0  0
  142.6915  144.8729  153.8511 H   0  0  0  0  0  0  0  0  0  0  0  0
  143.8188  146.0909  154.4668 H   0  0  0  0  0  0  0  0  0  0  0  0
  142.8194  145.1657  155.5845 H   0  0  0  0  0  0  0  0  0  0  0  0
  146.0241  144.3800  151.6586 H   0  0  0  0  0  0  0  0  0  0  0  0
  145.4818  145.7495  152.6280 H   0  0  0  0  0  0  0  0  0  0  0  0
  144.3030  144.6130  151.9546 H   0  0  0  0  0  0  0  0  0  0  0  0
  147.0893  142.7200  152.9560 H   0  0  0  0  0  0  0  0  0  0  0  0
  151.5824  144.2929  156.2518 H   0  0  0  0  0  0  0  0  0  0  0  0
  150.1859  144.2283  157.2996 H   0  0  0  0  0  0  0  0  0  0  0  0
  152.1708  145.0783  158.5098 H   0  0  0  0  0  0  0  0  0  0  0  0
  153.0904  143.6587  158.0672 H   0  0  0  0  0  0  0  0  0  0  0  0
  1  2  1  0  0  0  0
  1 25  1  0  0  0  0
  1 26  1  0  0  0  0
  1 27  1  0  0  0  0
  2  3  1  0  0  0  0
  2 28  1  0  0  0  0
  2 29  1  0  0  0  0
  3  4  1  0  0  0  0
  4 24  1  0  0  0  0
  4  5  1  0  0  0  0
  4 30  1  0  0  0  0
  5  6  1  0  0  0  0
  5 31  1  0  0  0  0
  5 32  1  0  0  0  0
  6  7  1  0  0  0  0
  6 33  1  0  0  0  0
  6 34  1  0  0  0  0
  7  8  1  0  0  0  0
  7 23  1  0  0  0  0
  8  9  1  0  0  0  0
  8 35  1  0  0  0  0
  8 36  1  0  0  0  0
  9 10  1  0  0  0  0
  9 11  1  0  0  0  0
  9 37  1  0  0  0  0
 10 38  1  0  0  0  0
 11 12  1  0  0  0  0
 11 39  1  0  0  0  0
 11 40  1  0  0  0  0
 12 22  1  0  0  0  0
 12 13  1  0  0  0  0
 13 14  2  0  0  0  0
 13 41  1  0  0  0  0
 14 15  1  0  0  0  0
 15 22  2  0  0  0  0
 15 16  1  0  0  0  0
 16 17  2  0  0  0  0
 16 42  1  0  0  0  0
 17 18  1  0  0  0  0
 17 19  1  0  0  0  0
 18 43  1  0  0  0  0
 18 44  1  0  0  0  0
 18 45  1  0  0  0  0
 19 20  1  0  0  0  0
 19 21  2  0  0  0  0
 20 46  1  0  0  0  0
 20 47  1  0  0  0  0
 20 48  1  0  0  0  0
 21 22  1  0  0  0  0
 21 49  1  0  0  0  0
 23 24  1  0  0  0  0
 23 50  1  0  0  0  0
 23 51  1  0  0  0  0
 24 52  1  0  0  0  0
 24 53  1  0  0  0  0
M  END
> <s_m_source_file>
AV-unprocessed.smi

> <i_m_source_file_index>
1697

> <i_lp_mmshare_version>
43012

> <i_f3d_flags>
0

> <s_epik_input>
W0NIM11bQ0gyXU9bQ0hdMVtDSDJdW0NIMl1OKFtDSDJdW0NIMl0xKVtDSDJdW0NASF0oW09IXSlbQ0gyXW4oW2NIXW4yKWMoYzIzKVtjSF1jKFtDSDNdKWMoW2NIXTMpW0NIM10=

> <s_epik_cmdline>
J2VwaWtfcHl0aG9uJywgJy1waCcsICc3LjAnLCAnLXRuJywgJzgnLCAnLW1hJywgJzIwMCcsICctbWV0YWxfYmluZGluZycsICctaW1hZScsICc8aW5maWxlLm1hZT4nLCAnLW9tYWUnLCAnPG91dGZpbGUubWFlPic=

> <r_epik_Ionization_Penalty>
1.9836

> <r_epik_Ionization_Penalty_Charging>
0

> <r_epik_Ionization_Penalty_Neutral>
1.9836

> <r_epik_State_Penalty>
2.07269

> <r_epik_Charging_Adjusted_Penalty>
2.07269

> <i_epik_Tot_Q>
0

> <i_epik_Tot_abs_Q>
0

> <r_epik_Metal_State_Penalty>
2.00215

> <b_epik_Metal_Only>
0

> <s_lp_Force_Field>
OPLS_2005

> <r_lp_Energy>
30.2153

> <b_lp_Chiralities_Consistent>
1

> <s_lp_Variant>
AV-unprocessed.smi:1697-9

> <Gold.Version>
5.8.1

> <Gold.Id.Protein>
6NUR|6NUR_protein|mol2

> <Gold.PLP.Fitness>
51.1976

> <Gold.PLP.PLP>
-49.4441

> <Gold.PLP.part.hbond>
-0.9584

> <Gold.PLP.part.metal>
0.0000

> <Gold.PLP.part.buried>
-4.1331

> <Gold.PLP.part.nonpolar>
-43.9932

> <Gold.PLP.part.repulsive>
0.1390

> <Gold.PLP.ligand.clash>
0.0000

> <Gold.PLP.ligand.torsion>
0.8078

> <Gold.PLP.Chemscore.Hbond>
0.9750

> <Gold.PLP.Chemscore.CHOScore>
0.0000

> <Gold.PLP.Chemscore.Metal>
0.0000

> <Gold.Chemscore.Hbonds>
donor molecule, donor type, donor heavy atom, donor atom, acceptor molecule, acceptor atom, score
      P1  H  7989  7998       L1    10  1.00

> <Gold.PLP.Chemscore.Internal.Correction>
0.4441

> <Gold.Rescore>
     Score         DG    S(hbond)    S(metal)    S(lipo)     H(rot)  DE(clash)    DE(int)     intcor
     16.81     -18.29       0.81        0.00     134.24       2.19       0.57       0.91       ----

> <Gold.Chemscore.Fitness>
16.8085

> <Gold.Chemscore.DG>
-18.2851

> <Gold.Chemscore.ZeroCoef>
-5.4800

> <Gold.Chemscore.Hbond>
0.8132

> <Gold.Chemscore.Metal>
0.0000

> <Gold.Chemscore.Lipo>
134.2423

> <Gold.Chemscore.Internal_Hbond>
0.0000

> <Gold.Chemscore.DEClash>
0.5664

> <Gold.Chemscore.DEInternal>
0.9102

> <Gold.Chemscore.Rot>
2.1943

> <Gold.Chemscore.Internal.Correction>
   9.000000E+99

> <Gold.Chemscore.Hbonds>
donor molecule, donor type, donor heavy atom, donor atom, acceptor molecule, acceptor atom, score
      P1  H  7989  7998       L1    10  0.80

> <Gold.Chemscore.Hbond.Weighted>
-2.7162

> <Gold.Chemscore.Metal.Weighted>
-0.0000

> <Gold.Chemscore.Lipo.Weighted>
-15.7063

> <Gold.Chemscore.Internal_Hbond.Weighted>
0.0000

> <Gold.Chemscore.DEClash.Weighted>
0.5664

> <Gold.Chemscore.DEInternal.Weighted>
0.9102

> <Gold.Chemscore.Rot.Weighted>
5.6174

> <Gold.Chemscore.Internal.Correction.Weighted>
   9.000000E+99

> <Gold.Protein.RotatedTorsions>
[ 6907 6896 6895 6894 ] final -147.39 input  -60.11 | X-H torsion
[ 7974 7965 7964 7962 ] final  116.77 input  175.53 | X-H torsion
[ 8008 7997 7996 7995 ] final -103.22 input   59.86 | X-H torsion
[ 10167 10162 10161 10158 ] final  139.52 input  -65.29 | X-H torsion
[ 10718 10713 10712 10709 ] final  -38.36 input   66.30 | X-H torsion
[ 10763 10752 10751 10750 ] final   13.38 input  -60.55 | X-H torsion
[ 11005 11000 10999 10996 ] final   10.24 input  -57.11 | X-H torsion

> <Gold.Protein.ActiveResidues>
 VAL166  LYS551  ARG553  GLY616  TRP617  ASP618  TYR619  PRO620  LYS621  CYS622 
 ASP623  PHE694  ASN695  SER759  ASP760  ASP761  ALA762  ILE779  LEU786  VAL792 
 PHE793  MET794  SER795  GLU796  ALA797  LYS798  CYS799  TRP800  GLU811  SER814 

> <Gold.Protein.RotatedAtoms>
  151.1549  133.4883  159.2594 H   0  0  0  0  0  0  0  0  0  0  0  0  # atno 6907 bound_to 6896
  151.1514  135.0229  159.8680 H   0  0  0  0  0  0  0  0  0  0  0  0  # atno 6908 bound_to 6896
  152.5463  134.1433  159.8541 H   0  0  0  0  0  0  0  0  0  0  0  0  # atno 6909 bound_to 6896
  145.1756  139.3078  143.4445 H   0  0  0  0  0  0  0  0  0  0  0  0  # atno 7974 bound_to 7965
  154.8679  140.0424  157.1706 H   0  0  0  0  0  0  0  0  0  0  0  0  # atno 8008 bound_to 7997
  154.8771  140.2967  155.5426 H   0  0  0  0  0  0  0  0  0  0  0  0  # atno 8009 bound_to 7997
  156.2999  140.2418  156.3768 H   0  0  0  0  0  0  0  0  0  0  0  0  # atno 8010 bound_to 7997
  139.5076  144.6289  151.5867 H   0  0  0  0  0  0  0  0  0  0  0  0  # atno 10167 bound_to 10162
  156.3046  130.4244  149.8109 H   0  0  0  0  0  0  0  0  0  0  0  0  # atno 10718 bound_to 10713
  153.1727  135.6815  153.8585 H   0  0  0  0  0  0  0  0  0  0  0  0  # atno 10763 bound_to 10752
  153.7944  135.3164  155.3383 H   0  0  0  0  0  0  0  0  0  0  0  0  # atno 10764 bound_to 10752
  154.8009  135.4779  154.0365 H   0  0  0  0  0  0  0  0  0  0  0  0  # atno 10765 bound_to 10752
  140.5167  134.0599  155.7833 H   0  0  0  0  0  0  0  0  0  0  0  0  # atno 11005 bound_to 11000
  146.3461  140.1917  142.8589 LP  0  0  0  0  0  0  0  0  0  0  0  0  # atno 17320 bound_to 7965
  145.0188  140.8776  143.5179 LP  0  0  0  0  0  0  0  0  0  0  0  0  # atno 17321 bound_to 7965
  140.6015  143.9600  150.6390 LP  0  0  0  0  0  0  0  0  0  0  0  0  # atno 17342 bound_to 10162
  140.2814  143.3387  152.1148 LP  0  0  0  0  0  0  0  0  0  0  0  0  # atno 17343 bound_to 10162
  156.5475  130.8327  151.3289 LP  0  0  0  0  0  0  0  0  0  0  0  0  # atno 17370 bound_to 10713
  157.7376  130.9799  150.2205 LP  0  0  0  0  0  0  0  0  0  0  0  0  # atno 17371 bound_to 10713
  141.1356  133.9227  157.2440 LP  0  0  0  0  0  0  0  0  0  0  0  0  # atno 17394 bound_to 11000
  139.9628  135.0150  156.9307 LP  0  0  0  0  0  0  0  0  0  0  0  0  # atno 17395 bound_to 11000

$$$$
