AV-unprocessed.smi:1740|AV-procd|sdf|7006|dock5
  -GOLD-   22720 8213D 1   1.00000     0.00000
 Structure written by MMmdl.
 51 53  0  0  0  0  0  0  0  0  1 V2000
  142.8775  132.9089  161.8829 N   0  0  0  0  0  0  0  0  0  0  0  0
  143.2568  134.1072  162.3331 C   0  0  0  0  0  0  0  0  0  0  0  0
  142.4951  135.0716  162.3543 O   0  0  0  0  0  0  0  0  0  0  0  0
  144.6984  134.2415  162.8393 C   0  0  0  0  0  0  0  0  0  0  0  0
  145.5291  135.2065  162.0832 N   0  0  0  0  0  0  0  0  0  0  0  0
  145.9039  134.6135  160.7949 C   0  0  0  0  0  0  0  0  0  0  0  0
  146.6620  135.6321  159.9261 C   0  0  0  0  0  0  0  0  0  0  0  0
  147.9210  136.1417  160.6455 C   0  0  0  0  0  0  0  0  0  0  0  0
  148.5713  137.1978  159.8760 N   0  0  0  0  0  0  0  0  0  0  0  0
  149.3649  137.0026  158.8138 C   0  0  0  0  0  0  0  0  0  0  0  0
  149.6376  135.8906  158.3614 O   0  0  0  0  0  0  0  0  0  0  0  0
  149.8274  138.1688  158.3336 N   0  0  0  0  0  0  0  0  0  0  0  0
  150.7252  138.3755  157.2485 C   0  0  0  0  0  0  0  0  0  0  0  0
  150.7547  137.5001  156.1355 C   0  0  0  0  0  0  0  0  0  0  0  0
  151.6097  137.7840  155.0568 C   0  0  0  0  0  0  0  0  0  0  0  0
  152.3963  138.9459  155.1210 C   0  0  0  0  0  0  0  0  0  0  0  0
  152.3694  139.7970  156.1658 N   0  0  0  0  0  0  0  0  0  0  0  0
  151.5608  139.5288  157.2209 C   0  0  0  0  0  0  0  0  0  0  0  0
  151.5886  140.4447  158.2974 N   0  0  0  0  0  0  0  0  0  0  0  0
  152.7175  140.3756  159.2211 C   0  0  0  0  0  0  0  0  0  0  0  0
  153.0492  141.8203  159.6093 C   0  0  0  0  0  0  0  0  0  0  0  0
  151.7578  142.5772  159.3156 C   0  0  0  0  0  0  0  0  0  0  0  0
  151.2225  141.8420  158.0902 C   0  0  0  0  0  0  0  0  0  0  0  0
  147.5224  136.6720  162.0292 C   0  0  0  0  0  0  0  0  0  0  0  0
  146.7310  135.6183  162.8241 C   0  0  0  0  0  0  0  0  0  0  0  0
  141.9364  132.7780  161.5415 H   0  0  0  0  0  0  0  0  0  0  0  0
  143.5303  132.1388  161.8857 H   0  0  0  0  0  0  0  0  0  0  0  0
  144.6939  134.5118  163.8971 H   0  0  0  0  0  0  0  0  0  0  0  0
  145.1489  133.2500  162.7763 H   0  0  0  0  0  0  0  0  0  0  0  0
  146.5147  133.7220  160.9494 H   0  0  0  0  0  0  0  0  0  0  0  0
  145.0080  134.2946  160.2606 H   0  0  0  0  0  0  0  0  0  0  0  0
  146.9325  135.1721  158.9751 H   0  0  0  0  0  0  0  0  0  0  0  0
  146.0023  136.4684  159.6884 H   0  0  0  0  0  0  0  0  0  0  0  0
  148.6171  135.3116  160.7826 H   0  0  0  0  0  0  0  0  0  0  0  0
  148.4049  138.1468  160.1772 H   0  0  0  0  0  0  0  0  0  0  0  0
  149.5960  138.9944  158.8665 H   0  0  0  0  0  0  0  0  0  0  0  0
  150.1195  136.6291  156.0816 H   0  0  0  0  0  0  0  0  0  0  0  0
  151.6512  137.1334  154.1960 H   0  0  0  0  0  0  0  0  0  0  0  0
  153.0607  139.2029  154.3093 H   0  0  0  0  0  0  0  0  0  0  0  0
  152.4139  139.8145  160.1054 H   0  0  0  0  0  0  0  0  0  0  0  0
  153.5805  139.8734  158.7812 H   0  0  0  0  0  0  0  0  0  0  0  0
  153.3753  141.9167  160.6453 H   0  0  0  0  0  0  0  0  0  0  0  0
  153.8475  142.1980  158.9687 H   0  0  0  0  0  0  0  0  0  0  0  0
  151.0638  142.4688  160.1502 H   0  0  0  0  0  0  0  0  0  0  0  0
  151.9151  143.6414  159.1387 H   0  0  0  0  0  0  0  0  0  0  0  0
  151.6986  142.2412  157.1936 H   0  0  0  0  0  0  0  0  0  0  0  0
  150.1432  141.9576  157.9869 H   0  0  0  0  0  0  0  0  0  0  0  0
  148.4129  136.9614  162.5882 H   0  0  0  0  0  0  0  0  0  0  0  0
  146.9166  137.5736  161.9240 H   0  0  0  0  0  0  0  0  0  0  0  0
  146.4651  136.0549  163.7867 H   0  0  0  0  0  0  0  0  0  0  0  0
  147.3595  134.7509  163.0338 H   0  0  0  0  0  0  0  0  0  0  0  0
  1  2  1  0  0  0  0
  1 26  1  0  0  0  0
  1 27  1  0  0  0  0
  2  3  2  0  0  0  0
  2  4  1  0  0  0  0
  4  5  1  0  0  0  0
  4 28  1  0  0  0  0
  4 29  1  0  0  0  0
  5 25  1  0  0  0  0
  5  6  1  0  0  0  0
  6  7  1  0  0  0  0
  6 30  1  0  0  0  0
  6 31  1  0  0  0  0
  7  8  1  0  0  0  0
  7 32  1  0  0  0  0
  7 33  1  0  0  0  0
  8  9  1  0  0  0  0
  8 24  1  0  0  0  0
  8 34  1  0  0  0  0
  9 10  1  0  0  0  0
  9 35  1  0  0  0  0
 10 11  2  0  0  0  0
 10 12  1  0  0  0  0
 12 13  1  0  0  0  0
 12 36  1  0  0  0  0
 13 18  1  0  0  0  0
 13 14  2  0  0  0  0
 14 15  1  0  0  0  0
 14 37  1  0  0  0  0
 15 16  2  0  0  0  0
 15 38  1  0  0  0  0
 16 17  1  0  0  0  0
 16 39  1  0  0  0  0
 17 18  2  0  0  0  0
 18 19  1  0  0  0  0
 19 23  1  0  0  0  0
 19 20  1  0  0  0  0
 20 21  1  0  0  0  0
 20 40  1  0  0  0  0
 20 41  1  0  0  0  0
 21 22  1  0  0  0  0
 21 42  1  0  0  0  0
 21 43  1  0  0  0  0
 22 23  1  0  0  0  0
 22 44  1  0  0  0  0
 22 45  1  0  0  0  0
 23 46  1  0  0  0  0
 23 47  1  0  0  0  0
 24 25  1  0  0  0  0
 24 48  1  0  0  0  0
 24 49  1  0  0  0  0
 25 50  1  0  0  0  0
 25 51  1  0  0  0  0
M  END
> <s_m_source_file>
AV-unprocessed.smi

> <i_m_source_file_index>
1740

> <i_lp_mmshare_version>
43012

> <i_f3d_flags>
0

> <s_epik_input>
W05IMl1DKD1PKVtDSDJdTjFbQ0gyXVtDSDJdW0NIXShbQ0gyXVtDSDJdMSlbTkhdQyg9TylbTkhdYzJbY0hdW2NIXVtjSF1uYzJOM1tDSDJdW0NIMl1bQ0gyXVtDSDJdMw==

> <s_epik_cmdline>
J2VwaWtfcHl0aG9uJywgJy1waCcsICc3LjAnLCAnLXRuJywgJzgnLCAnLW1hJywgJzIwMCcsICctbWV0YWxfYmluZGluZycsICctaW1hZScsICc8aW5maWxlLm1hZT4nLCAnLW9tYWUnLCAnPG91dGZpbGUubWFlPic=

> <r_lp_tautomer_probability>
1

> <r_epik_Ionization_Penalty>
0.268698

> <r_epik_Ionization_Penalty_Charging>
0

> <r_epik_Ionization_Penalty_Neutral>
0.268698

> <r_epik_State_Penalty>
0.247497

> <r_epik_Charging_Adjusted_Penalty>
0.247497

> <i_epik_Tot_Q>
0

> <i_epik_Tot_abs_Q>
0

> <r_epik_Metal_State_Penalty>
0.244805

> <b_epik_Metal_Only>
0

> <s_lp_Force_Field>
OPLS_2005

> <r_lp_Energy>
39.8984

> <b_lp_Chiralities_Consistent>
1

> <s_lp_Variant>
AV-unprocessed.smi:1740-1

> <Gold.Version>
5.8.1

> <Gold.Id.Protein>
6NUR|6NUR_protein|mol2

> <Gold.PLP.Fitness>
46.4990

> <Gold.PLP.PLP>
-41.8362

> <Gold.PLP.part.hbond>
-3.0000

> <Gold.PLP.part.metal>
0.0000

> <Gold.PLP.part.buried>
-7.2281

> <Gold.PLP.part.nonpolar>
-32.8639

> <Gold.PLP.part.repulsive>
0.7136

> <Gold.PLP.ligand.clash>
0.0000

> <Gold.PLP.ligand.torsion>
0.8339

> <Gold.PLP.Chemscore.Hbond>
2.0000

> <Gold.PLP.Chemscore.CHOScore>
0.0000

> <Gold.PLP.Chemscore.Metal>
0.0000

> <Gold.Chemscore.Hbonds>
donor molecule, donor type, donor heavy atom, donor atom, acceptor molecule, acceptor atom, score
      P1  H  6896  6908       L1    11  0.98
      P1  H  7997  8008       L1    17  0.85

> <Gold.PLP.Chemscore.Internal.Correction>
0.3307

> <Gold.Rescore>
     Score         DG    S(hbond)    S(metal)    S(lipo)     H(rot)  DE(clash)    DE(int)     intcor
     13.80     -16.71       1.74        0.00      93.59       2.16       0.90       2.00       ----

> <Gold.Chemscore.Fitness>
13.8031

> <Gold.Chemscore.DG>
-16.7055

> <Gold.Chemscore.ZeroCoef>
-5.4800

> <Gold.Chemscore.Hbond>
1.7406

> <Gold.Chemscore.Metal>
0.0000

> <Gold.Chemscore.Lipo>
93.5944

> <Gold.Chemscore.Internal_Hbond>
0.0000

> <Gold.Chemscore.DEClash>
0.9010

> <Gold.Chemscore.DEInternal>
2.0015

> <Gold.Chemscore.Rot>
2.1635

> <Gold.Chemscore.Internal.Correction>
   9.000000E+99

> <Gold.Chemscore.Hbonds>
donor molecule, donor type, donor heavy atom, donor atom, acceptor molecule, acceptor atom, score
      P1  H  6896  6908       L1    11  0.86
      P1  H  7997  8008       L1    17  0.14

> <Gold.Chemscore.Hbond.Weighted>
-5.8135

> <Gold.Chemscore.Metal.Weighted>
-0.0000

> <Gold.Chemscore.Lipo.Weighted>
-10.9505

> <Gold.Chemscore.Internal_Hbond.Weighted>
0.0000

> <Gold.Chemscore.DEClash.Weighted>
0.9010

> <Gold.Chemscore.DEInternal.Weighted>
2.0015

> <Gold.Chemscore.Rot.Weighted>
5.5385

> <Gold.Chemscore.Internal.Correction.Weighted>
   9.000000E+99

> <Gold.Protein.RotatedTorsions>
[ 6907 6896 6895 6894 ] final  172.36 input  -60.11 | X-H torsion
[ 7974 7965 7964 7962 ] final    5.89 input  175.53 | X-H torsion
[ 8008 7997 7996 7995 ] final  -36.33 input   59.86 | X-H torsion
[ 10167 10162 10161 10158 ] final  110.00 input  -65.29 | X-H torsion
[ 10718 10713 10712 10709 ] final  135.60 input   66.30 | X-H torsion
[ 10763 10752 10751 10750 ] final -109.57 input  -60.55 | X-H torsion
[ 11005 11000 10999 10996 ] final   33.16 input  -57.11 | X-H torsion

> <Gold.Protein.ActiveResidues>
 VAL166  LYS551  ARG553  GLY616  TRP617  ASP618  TYR619  PRO620  LYS621  CYS622 
 ASP623  PHE694  ASN695  SER759  ASP760  ASP761  ALA762  ILE779  LEU786  VAL792 
 PHE793  MET794  SER795  GLU796  ALA797  LYS798  CYS799  TRP800  GLU811  SER814 

> <Gold.Protein.RotatedAtoms>
  151.7856  133.3354  159.3483 H   0  0  0  0  0  0  0  0  0  0  0  0  # atno 6907 bound_to 6896
  150.7410  134.5890  159.5987 H   0  0  0  0  0  0  0  0  0  0  0  0  # atno 6908 bound_to 6896
  152.3246  134.7339  160.0356 H   0  0  0  0  0  0  0  0  0  0  0  0  # atno 6909 bound_to 6896
  146.2438  140.0316  142.8389 H   0  0  0  0  0  0  0  0  0  0  0  0  # atno 7974 bound_to 7965
  154.4075  140.1633  156.2356 H   0  0  0  0  0  0  0  0  0  0  0  0  # atno 8008 bound_to 7997
  155.9245  140.3419  155.6177 H   0  0  0  0  0  0  0  0  0  0  0  0  # atno 8009 bound_to 7997
  155.7181  140.0765  157.2333 H   0  0  0  0  0  0  0  0  0  0  0  0  # atno 8010 bound_to 7997
  139.6722  144.7124  151.1667 H   0  0  0  0  0  0  0  0  0  0  0  0  # atno 10167 bound_to 10162
  157.4553  131.1069  150.9984 H   0  0  0  0  0  0  0  0  0  0  0  0  # atno 10718 bound_to 10713
  154.8200  135.4596  154.0753 H   0  0  0  0  0  0  0  0  0  0  0  0  # atno 10763 bound_to 10752
  153.2114  135.6882  153.8116 H   0  0  0  0  0  0  0  0  0  0  0  0  # atno 10764 bound_to 10752
  153.7566  135.3290  155.3307 H   0  0  0  0  0  0  0  0  0  0  0  0  # atno 10765 bound_to 10752
  140.2660  134.3137  155.7842 H   0  0  0  0  0  0  0  0  0  0  0  0  # atno 11005 bound_to 11000
  145.1149  140.9428  143.4634 LP  0  0  0  0  0  0  0  0  0  0  0  0  # atno 17320 bound_to 7965
  145.0539  139.3160  143.5915 LP  0  0  0  0  0  0  0  0  0  0  0  0  # atno 17321 bound_to 7965
  140.7622  143.5826  150.8879 LP  0  0  0  0  0  0  0  0  0  0  0  0  # atno 17342 bound_to 10162
  139.9492  143.6291  152.3033 LP  0  0  0  0  0  0  0  0  0  0  0  0  # atno 17343 bound_to 10162
  157.0800  130.5899  149.5418 LP  0  0  0  0  0  0  0  0  0  0  0  0  # atno 17370 bound_to 10713
  156.0005  130.5083  150.7644 LP  0  0  0  0  0  0  0  0  0  0  0  0  # atno 17371 bound_to 10713
  141.2184  133.7438  156.9261 LP  0  0  0  0  0  0  0  0  0  0  0  0  # atno 17394 bound_to 11000
  140.1419  134.9288  157.2477 LP  0  0  0  0  0  0  0  0  0  0  0  0  # atno 17395 bound_to 11000

$$$$
