AV-unprocessed.smi:2069|AV-procd|sdf|8437|dock5
  -GOLD-   2272011133D 1   1.00000     0.00000
 Structure written by MMmdl.
 38 39  0  0  0  0  0  0  0  0  3 V2000
  151.0787  140.9812  156.8557 C   0  0  0  0  0  0  0  0  0  0  0  0
  151.4429  139.7731  156.0629 C   0  0  0  0  0  0  0  0  0  0  0  0
  152.3276  139.8051  155.0633 N   0  0  0  0  0  0  0  0  0  0  0  0
  152.4977  138.5596  154.4761 N   0  0  0  0  0  0  0  0  0  0  0  0
  151.7322  137.6083  155.0291 C   0  0  0  0  0  0  0  0  0  0  0  0
  151.7485  136.3338  154.6046 N   0  5  0  0  0  0  0  0  0  0  0  0
  150.9450  135.4175  155.1896 C   0  0  0  0  0  0  0  0  0  0  0  0
  151.2188  134.7208  156.1696 O   0  0  0  0  0  0  0  0  0  0  0  0
  149.7479  135.2978  154.6016 N   0  0  0  0  0  0  0  0  0  0  0  0
  148.6915  134.3869  155.0271 C   0  0  0  0  0  0  0  0  0  0  0  0
  147.9577  133.7341  153.8261 C   0  0  2  0  0  0  0  0  0  0  0  0
  148.9701  132.9910  152.9214 C   0  0  0  0  0  0  0  0  0  0  0  0
  147.1514  134.7148  153.0248 N   0  3  0  0  0  0  0  0  0  0  0  0
  146.2935  134.0584  151.9992 C   0  0  0  0  0  0  0  0  0  0  0  0
  145.5247  135.0947  151.1635 C   0  0  0  0  0  0  0  0  0  0  0  0
  144.7368  135.9070  152.0195 O   0  0  0  0  0  0  0  0  0  0  0  0
  145.5478  136.6333  152.9294 C   0  0  0  0  0  0  0  0  0  0  0  0
  146.3276  135.6601  153.8297 C   0  0  0  0  0  0  0  0  0  0  0  0
  150.7400  138.1931  156.3647 S   0  0  0  0  0  0  0  0  0  0  0  0
  150.3769  141.5971  156.2935 H   0  0  0  0  0  0  0  0  0  0  0  0
  151.9684  141.5717  157.0752 H   0  0  0  0  0  0  0  0  0  0  0  0
  150.6131  140.6898  157.7974 H   0  0  0  0  0  0  0  0  0  0  0  0
  149.5598  135.8856  153.8025 H   0  0  0  0  0  0  0  0  0  0  0  0
  149.1764  133.6329  155.6474 H   0  0  0  0  0  0  0  0  0  0  0  0
  147.9798  134.9248  155.6558 H   0  0  0  0  0  0  0  0  0  0  0  0
  147.2648  132.9981  154.2378 H   0  0  0  0  0  0  0  0  0  0  0  0
  149.5823  132.2869  153.4844 H   0  0  0  0  0  0  0  0  0  0  0  0
  149.6473  133.6911  152.4313 H   0  0  0  0  0  0  0  0  0  0  0  0
  148.4867  132.3967  152.1484 H   0  0  0  0  0  0  0  0  0  0  0  0
  146.8862  133.4552  151.3150 H   0  0  0  0  0  0  0  0  0  0  0  0
  145.5890  133.3850  152.4899 H   0  0  0  0  0  0  0  0  0  0  0  0
  146.2088  135.7111  150.5779 H   0  0  0  0  0  0  0  0  0  0  0  0
  144.8667  134.5902  150.4557 H   0  0  0  0  0  0  0  0  0  0  0  0
  146.2281  137.2911  152.3858 H   0  0  0  0  0  0  0  0  0  0  0  0
  144.9075  137.2729  153.5371 H   0  0  0  0  0  0  0  0  0  0  0  0
  145.6382  135.0983  154.4621 H   0  0  0  0  0  0  0  0  0  0  0  0
  146.9545  136.2655  154.4827 H   0  0  0  0  0  0  0  0  0  0  0  0
  147.8184  135.2865  152.5265 H   0  0  0  0  0  0  0  0  0  0  0  0
  1  2  1  0  0  0  0
  1 20  1  0  0  0  0
  1 21  1  0  0  0  0
  1 22  1  0  0  0  0
  2 19  1  0  0  0  0
  2  3  2  0  0  0  0
  3  4  1  0  0  0  0
  4  5  2  0  0  0  0
  5  6  1  0  0  0  0
  5 19  1  0  0  0  0
  6  7  1  0  0  0  0
  7  8  2  0  0  0  0
  7  9  1  0  0  0  0
  9 10  1  0  0  0  0
  9 23  1  0  0  0  0
 10 11  1  0  0  0  0
 10 24  1  0  0  0  0
 10 25  1  0  0  0  0
 11 12  1  0  0  0  0
 11 13  1  0  0  0  0
 11 26  1  0  0  0  0
 12 27  1  0  0  0  0
 12 28  1  0  0  0  0
 12 29  1  0  0  0  0
 13 18  1  0  0  0  0
 13 14  1  0  0  0  0
 13 38  1  0  0  0  0
 14 15  1  0  0  0  0
 14 30  1  0  0  0  0
 14 31  1  0  0  0  0
 15 16  1  0  0  0  0
 15 32  1  0  0  0  0
 15 33  1  0  0  0  0
 16 17  1  0  0  0  0
 17 18  1  0  0  0  0
 17 34  1  0  0  0  0
 17 35  1  0  0  0  0
 18 36  1  0  0  0  0
 18 37  1  0  0  0  0
M  CHG  1   6  -1
M  CHG  1  13   1
M  END
> <s_m_source_file>
AV-unprocessed.smi

> <i_m_source_file_index>
2069

> <i_lp_mmshare_version>
43012

> <i_f3d_flags>
0

> <s_epik_input>
W0NIM11jMW5uYyhzMSlbTkhdQyg9TylbTkhdW0NIMl1bQ0BIXShbQ0gzXSlOMltDSDJdW0NIMl1PW0NIMl1bQ0gyXTI=

> <s_epik_cmdline>
J2VwaWtfcHl0aG9uJywgJy1waCcsICc3LjAnLCAnLXRuJywgJzgnLCAnLW1hJywgJzIwMCcsICctbWV0YWxfYmluZGluZycsICctaW1hZScsICc8aW5maWxlLm1hZT4nLCAnLW9tYWUnLCAnPG91dGZpbGUubWFlPic=

> <r_lp_tautomer_probability>
1

> <r_epik_Ionization_Penalty>
3.53072

> <r_epik_Ionization_Penalty_Charging>
3.4216

> <r_epik_Ionization_Penalty_Neutral>
0.109115

> <r_epik_State_Penalty>
3.61496

> <r_epik_Charging_Adjusted_Penalty>
7.03656

> <i_epik_Tot_Q>
0

> <i_epik_Tot_abs_Q>
2

> <r_epik_Metal_State_Penalty>
1.13918

> <b_epik_Metal_Only>
1

> <s_lp_Force_Field>
OPLS_2005

> <r_lp_Energy>
13.5119

> <b_lp_Chiralities_Consistent>
1

> <s_lp_Variant>
AV-unprocessed.smi:2069-7

> <Gold.Version>
5.8.1

> <Gold.Id.Protein>
6NUR|6NUR_protein|mol2

> <Gold.PLP.Fitness>
43.3675

> <Gold.PLP.PLP>
-28.0758

> <Gold.PLP.part.hbond>
-4.0000

> <Gold.PLP.part.metal>
0.0000

> <Gold.PLP.part.buried>
-3.8062

> <Gold.PLP.part.nonpolar>
-20.4191

> <Gold.PLP.part.repulsive>
0.5299

> <Gold.PLP.ligand.clash>
0.0000

> <Gold.PLP.ligand.torsion>
1.0158

> <Gold.PLP.Chemscore.Hbond>
5.7520

> <Gold.PLP.Chemscore.CHOScore>
0.0000

> <Gold.PLP.Chemscore.Metal>
0.0000

> <Gold.Chemscore.Hbonds>
donor molecule, donor type, donor heavy atom, donor atom, acceptor molecule, acceptor atom, score
      L1  H     9    23       P1  7948  1.00
      L1  H    13    38       P1  7948  2.00
      P1  H  7989  7998       L1     3  0.72
      P1  H  7997  8009       L1     3  0.04
      P1  H 10752 10763       L1     6  1.24

> <Gold.PLP.Chemscore.Internal.Correction>
0.0674

> <Gold.Rescore>
     Score         DG    S(hbond)    S(metal)    S(lipo)     H(rot)  DE(clash)    DE(int)     intcor
     16.05     -17.10       3.04        0.00      48.08       1.62       0.06       0.99       ----

> <Gold.Chemscore.Fitness>
16.0484

> <Gold.Chemscore.DG>
-17.1021

> <Gold.Chemscore.ZeroCoef>
-5.4800

> <Gold.Chemscore.Hbond>
3.0366

> <Gold.Chemscore.Metal>
0.0000

> <Gold.Chemscore.Lipo>
48.0780

> <Gold.Chemscore.Internal_Hbond>
0.0000

> <Gold.Chemscore.DEClash>
0.0641

> <Gold.Chemscore.DEInternal>
0.9896

> <Gold.Chemscore.Rot>
1.6192

> <Gold.Chemscore.Internal.Correction>
   9.000000E+99

> <Gold.Chemscore.Hbonds>
donor molecule, donor type, donor heavy atom, donor atom, acceptor molecule, acceptor atom, score
      L1  H     9    23       P1  7948  0.36
      L1  H    13    38       P1  7948  0.98
      P1  H  7989  7998       L1     3  0.18
      P1  H  7997  8009       L1     3  0.02
      P1  H 10752 10763       L1     6  0.21

> <Gold.Chemscore.Hbond.Weighted>
-10.1422

> <Gold.Chemscore.Metal.Weighted>
-0.0000

> <Gold.Chemscore.Lipo.Weighted>
-5.6251

> <Gold.Chemscore.Internal_Hbond.Weighted>
0.0000

> <Gold.Chemscore.DEClash.Weighted>
0.0641

> <Gold.Chemscore.DEInternal.Weighted>
0.9896

> <Gold.Chemscore.Rot.Weighted>
4.1452

> <Gold.Chemscore.Internal.Correction.Weighted>
   9.000000E+99

> <Gold.Protein.RotatedTorsions>
[ 6907 6896 6895 6894 ] final  -29.95 input  -60.11 | X-H torsion
[ 7974 7965 7964 7962 ] final   -2.63 input  175.53 | X-H torsion
[ 8008 7997 7996 7995 ] final -118.02 input   59.86 | X-H torsion
[ 10167 10162 10161 10158 ] final    9.84 input  -65.29 | X-H torsion
[ 10718 10713 10712 10709 ] final  138.51 input   66.30 | X-H torsion
[ 10763 10752 10751 10750 ] final   50.80 input  -60.55 | X-H torsion
[ 11005 11000 10999 10996 ] final   90.62 input  -57.11 | X-H torsion

> <Gold.Protein.ActiveResidues>
 VAL166  LYS551  ARG553  GLY616  TRP617  ASP618  TYR619  PRO620  LYS621  CYS622 
 ASP623  PHE694  ASN695  SER759  ASP760  ASP761  ALA762  ILE779  LEU786  VAL792 
 PHE793  MET794  SER795  GLU796  ALA797  LYS798  CYS799  TRP800  GLU811  SER814 

> <Gold.Protein.RotatedAtoms>
  151.1122  135.0033  159.8498 H   0  0  0  0  0  0  0  0  0  0  0  0  # atno 6907 bound_to 6896
  152.5444  134.1822  159.8650 H   0  0  0  0  0  0  0  0  0  0  0  0  # atno 6908 bound_to 6896
  151.1874  133.4643  159.2627 H   0  0  0  0  0  0  0  0  0  0  0  0  # atno 6909 bound_to 6896
  146.2401  140.1600  142.8333 H   0  0  0  0  0  0  0  0  0  0  0  0  # atno 7974 bound_to 7965
  155.0930  140.0395  157.2674 H   0  0  0  0  0  0  0  0  0  0  0  0  # atno 8008 bound_to 7997
  154.6817  140.2634  155.6877 H   0  0  0  0  0  0  0  0  0  0  0  0  # atno 8009 bound_to 7997
  156.2697  140.2777  156.1363 H   0  0  0  0  0  0  0  0  0  0  0  0  # atno 8010 bound_to 7997
  140.6231  143.8161  150.7199 H   0  0  0  0  0  0  0  0  0  0  0  0  # atno 10167 bound_to 10162
  157.4246  131.1042  151.0317 H   0  0  0  0  0  0  0  0  0  0  0  0  # atno 10718 bound_to 10713
  152.9784  135.5867  154.4312 H   0  0  0  0  0  0  0  0  0  0  0  0  # atno 10763 bound_to 10752
  154.3925  135.2768  155.2148 H   0  0  0  0  0  0  0  0  0  0  0  0  # atno 10764 bound_to 10752
  154.4014  135.6102  153.5954 H   0  0  0  0  0  0  0  0  0  0  0  0  # atno 10765 bound_to 10752
  139.8853  134.8625  156.3311 H   0  0  0  0  0  0  0  0  0  0  0  0  # atno 11005 bound_to 11000
  145.0097  140.8703  143.5231 LP  0  0  0  0  0  0  0  0  0  0  0  0  # atno 17320 bound_to 7965
  145.1632  139.2447  143.5381 LP  0  0  0  0  0  0  0  0  0  0  0  0  # atno 17321 bound_to 7965
  140.1756  143.4158  152.1970 LP  0  0  0  0  0  0  0  0  0  0  0  0  # atno 17342 bound_to 10162
  139.5456  144.7295  151.4595 LP  0  0  0  0  0  0  0  0  0  0  0  0  # atno 17343 bound_to 10162
  157.1235  130.6072  149.5511 LP  0  0  0  0  0  0  0  0  0  0  0  0  # atno 17370 bound_to 10713
  155.9892  130.4938  150.7203 LP  0  0  0  0  0  0  0  0  0  0  0  0  # atno 17371 bound_to 10713
  140.9722  133.7320  156.0551 LP  0  0  0  0  0  0  0  0  0  0  0  0  # atno 17394 bound_to 11000
  140.7856  134.3675  157.5477 LP  0  0  0  0  0  0  0  0  0  0  0  0  # atno 17395 bound_to 11000

$$$$
