AV-unprocessed.smi:2883|AV-procd|sdf|11077|dock2
  -GOLD-   2272015553D 1   1.00000     0.00000
 Structure written by MMmdl.
 40 42  0  0  0  0  0  0  0  0  2 V2000
  152.5041  144.9736  158.0734 C   0  0  0  0  0  0  0  0  0  0  0  0
  151.8375  144.1496  159.1997 C   0  0  0  0  0  0  0  0  0  0  0  0
  152.0959  144.9222  160.5133 C   0  0  0  0  0  0  0  0  0  0  0  0
  150.3219  144.0523  158.9473 C   0  0  0  0  0  0  0  0  0  0  0  0
  152.4355  142.7374  159.2700 C   0  0  0  0  0  0  0  0  0  0  0  0
  153.0794  142.3500  160.3857 N   0  3  0  0  0  0  0  0  0  0  0  0
  153.5202  141.0745  160.5095 C   0  0  0  0  0  0  0  0  0  0  0  0
  153.2797  140.1359  159.4900 C   0  0  0  0  0  0  0  0  0  0  0  0
  152.5620  140.5864  158.3702 C   0  0  0  0  0  0  0  0  0  0  0  0
  152.2738  139.6953  157.3275 N   0  0  0  0  0  0  0  0  0  0  0  0
  151.8691  140.1846  156.0126 C   0  0  2  0  0  0  0  0  0  0  0  0
  150.5467  140.9550  156.0387 C   0  0  0  0  0  0  0  0  0  0  0  0
  149.7352  140.2241  154.9596 C   0  0  2  0  0  0  0  0  0  0  0  0
  149.2384  138.8605  155.4565 C   0  0  0  0  0  0  0  0  0  0  0  0
  150.5302  138.0454  155.4678 C   0  0  0  0  0  0  0  0  0  0  0  0
  151.5633  139.0776  154.9832 C   0  0  1  0  0  0  0  0  0  0  0  0
  150.7652  139.8163  154.0743 O   0  0  0  0  0  0  0  0  0  0  0  0
  152.1382  141.8664  158.2931 N   0  0  0  0  0  0  0  0  0  0  0  0
  152.1162  145.9925  158.0445 H   0  0  0  0  0  0  0  0  0  0  0  0
  152.3251  144.5406  157.0885 H   0  0  0  0  0  0  0  0  0  0  0  0
  153.5841  145.0386  158.2135 H   0  0  0  0  0  0  0  0  0  0  0  0
  153.1623  144.9861  160.7336 H   0  0  0  0  0  0  0  0  0  0  0  0
  151.6077  144.4517  161.3674 H   0  0  0  0  0  0  0  0  0  0  0  0
  151.7132  145.9419  160.4549 H   0  0  0  0  0  0  0  0  0  0  0  0
  149.8626  145.0400  158.8931 H   0  0  0  0  0  0  0  0  0  0  0  0
  149.8216  143.5003  159.7441 H   0  0  0  0  0  0  0  0  0  0  0  0
  150.1088  143.5391  158.0087 H   0  0  0  0  0  0  0  0  0  0  0  0
  154.0440  140.8445  161.4257 H   0  0  0  0  0  0  0  0  0  0  0  0
  153.6236  139.1151  159.5740 H   0  0  0  0  0  0  0  0  0  0  0  0
  152.5568  138.7295  157.4105 H   0  0  0  0  0  0  0  0  0  0  0  0
  152.6440  140.8437  155.6176 H   0  0  0  0  0  0  0  0  0  0  0  0
  150.0445  140.9385  157.0072 H   0  0  0  0  0  0  0  0  0  0  0  0
  150.7121  141.9970  155.7627 H   0  0  0  0  0  0  0  0  0  0  0  0
  148.9595  140.8355  154.4980 H   0  0  0  0  0  0  0  0  0  0  0  0
  148.7663  138.9220  156.4376 H   0  0  0  0  0  0  0  0  0  0  0  0
  148.5205  138.4300  154.7575 H   0  0  0  0  0  0  0  0  0  0  0  0
  150.7644  137.6308  156.4486 H   0  0  0  0  0  0  0  0  0  0  0  0
  150.4591  137.2167  154.7625 H   0  0  0  0  0  0  0  0  0  0  0  0
  152.4508  138.6332  154.5317 H   0  0  0  0  0  0  0  0  0  0  0  0
  153.2462  143.0140  161.1423 H   0  0  0  0  0  0  0  0  0  0  0  0
  1  2  1  0  0  0  0
  1 19  1  0  0  0  0
  1 20  1  0  0  0  0
  1 21  1  0  0  0  0
  2  3  1  0  0  0  0
  2  4  1  0  0  0  0
  2  5  1  0  0  0  0
  3 22  1  0  0  0  0
  3 23  1  0  0  0  0
  3 24  1  0  0  0  0
  4 25  1  0  0  0  0
  4 26  1  0  0  0  0
  4 27  1  0  0  0  0
  5 18  1  0  0  0  0
  5  6  2  0  0  0  0
  6  7  1  0  0  0  0
  6 40  1  0  0  0  0
  7  8  2  0  0  0  0
  7 28  1  0  0  0  0
  8  9  1  0  0  0  0
  8 29  1  0  0  0  0
  9 10  1  0  0  0  0
  9 18  2  0  0  0  0
 10 11  1  0  0  0  0
 10 30  1  0  0  0  0
 11 16  1  0  0  0  0
 11 12  1  0  0  0  0
 11 31  1  0  0  0  0
 12 13  1  0  0  0  0
 12 32  1  0  0  0  0
 12 33  1  0  0  0  0
 13 17  1  0  0  0  0
 13 14  1  0  0  0  0
 13 34  1  0  0  0  0
 14 15  1  0  0  0  0
 14 35  1  0  0  0  0
 14 36  1  0  0  0  0
 15 16  1  0  0  0  0
 15 37  1  0  0  0  0
 15 38  1  0  0  0  0
 16 17  1  0  0  0  0
 16 39  1  0  0  0  0
M  CHG  1   6   1
M  END
> <s_m_source_file>
AV-unprocessed.smi

> <i_m_source_file_index>
2883

> <i_lp_mmshare_version>
43012

> <i_f3d_flags>
0

> <s_epik_input>
W0NIM11DKFtDSDNdKShbQ0gzXSljMW5bY0hdW2NIXWMobjEpW05IXVtDQEhdKFtDSDJdW0NAQEhdMjMpW0NAQEhdKE8zKVtDSDJdW0NIMl0y

> <s_epik_cmdline>
J2VwaWtfcHl0aG9uJywgJy1waCcsICc3LjAnLCAnLXRuJywgJzgnLCAnLW1hJywgJzIwMCcsICctbWV0YWxfYmluZGluZycsICctaW1hZScsICc8aW5maWxlLm1hZT4nLCAnLW9tYWUnLCAnPG91dGZpbGUubWFlPic=

> <r_lp_tautomer_probability>
0.999336

> <r_epik_Ionization_Penalty>
0.371831

> <r_epik_Ionization_Penalty_Charging>
0.371821

> <r_epik_Ionization_Penalty_Neutral>
1.06897e-05

> <r_epik_State_Penalty>
0.369311

> <r_epik_Charging_Adjusted_Penalty>
0.741132

> <i_epik_Tot_Q>
1

> <i_epik_Tot_abs_Q>
1

> <r_epik_Metal_State_Penalty>
0.621338

> <b_epik_Metal_Only>
0

> <s_lp_Force_Field>
OPLS_2005

> <r_lp_Energy>
39.227

> <b_lp_Chiralities_Consistent>
1

> <s_lp_Variant>
AV-unprocessed.smi:2883-3

> <Gold.Version>
5.8.1

> <Gold.Id.Protein>
6NUR|6NUR_protein|mol2

> <Gold.PLP.Fitness>
41.3234

> <Gold.PLP.PLP>
-38.6311

> <Gold.PLP.part.hbond>
-0.9344

> <Gold.PLP.part.metal>
0.0000

> <Gold.PLP.part.buried>
-5.5923

> <Gold.PLP.part.nonpolar>
-31.9384

> <Gold.PLP.part.repulsive>
0.3663

> <Gold.PLP.ligand.clash>
0.0000

> <Gold.PLP.ligand.torsion>
0.2264

> <Gold.PLP.Chemscore.Hbond>
1.0000

> <Gold.PLP.Chemscore.CHOScore>
0.0000

> <Gold.PLP.Chemscore.Metal>
0.0000

> <Gold.Chemscore.Hbonds>
donor molecule, donor type, donor heavy atom, donor atom, acceptor molecule, acceptor atom, score
      P1  H  7989  7998       L1    17  0.86

> <Gold.PLP.Chemscore.Internal.Correction>
0.1451

> <Gold.Rescore>
     Score         DG    S(hbond)    S(metal)    S(lipo)     H(rot)  DE(clash)    DE(int)     intcor
     15.51     -16.96       0.95        0.00      96.60       1.16       0.03       1.41       ----

> <Gold.Chemscore.Fitness>
15.5138

> <Gold.Chemscore.DG>
-16.9628

> <Gold.Chemscore.ZeroCoef>
-5.4800

> <Gold.Chemscore.Hbond>
0.9453

> <Gold.Chemscore.Metal>
0.0000

> <Gold.Chemscore.Lipo>
96.5972

> <Gold.Chemscore.Internal_Hbond>
0.0000

> <Gold.Chemscore.DEClash>
0.0346

> <Gold.Chemscore.DEInternal>
1.4144

> <Gold.Chemscore.Rot>
1.1626

> <Gold.Chemscore.Internal.Correction>
   9.000000E+99

> <Gold.Chemscore.Hbonds>
donor molecule, donor type, donor heavy atom, donor atom, acceptor molecule, acceptor atom, score
      P1  H  7989  7998       L1    17  0.48

> <Gold.Chemscore.Hbond.Weighted>
-3.1572

> <Gold.Chemscore.Metal.Weighted>
-0.0000

> <Gold.Chemscore.Lipo.Weighted>
-11.3019

> <Gold.Chemscore.Internal_Hbond.Weighted>
0.0000

> <Gold.Chemscore.DEClash.Weighted>
0.0346

> <Gold.Chemscore.DEInternal.Weighted>
1.4144

> <Gold.Chemscore.Rot.Weighted>
2.9763

> <Gold.Chemscore.Internal.Correction.Weighted>
   9.000000E+99

> <Gold.Protein.RotatedTorsions>
[ 6907 6896 6895 6894 ] final   28.23 input  -60.11 | X-H torsion
[ 7974 7965 7964 7962 ] final -141.57 input  175.53 | X-H torsion
[ 8008 7997 7996 7995 ] final  165.25 input   59.86 | X-H torsion
[ 10167 10162 10161 10158 ] final  -14.29 input  -65.29 | X-H torsion
[ 10718 10713 10712 10709 ] final -134.56 input   66.30 | X-H torsion
[ 10763 10752 10751 10750 ] final  -12.67 input  -60.55 | X-H torsion
[ 11005 11000 10999 10996 ] final  -41.02 input  -57.11 | X-H torsion

> <Gold.Protein.ActiveResidues>
 VAL166  LYS551  ARG553  GLY616  TRP617  ASP618  TYR619  PRO620  LYS621  CYS622 
 ASP623  PHE694  ASN695  SER759  ASP760  ASP761  ALA762  ILE779  LEU786  VAL792 
 PHE793  MET794  SER795  GLU796  ALA797  LYS798  CYS799  TRP800  GLU811  SER814 

> <Gold.Protein.RotatedAtoms>
  152.0138  134.9861  160.0568 H   0  0  0  0  0  0  0  0  0  0  0  0  # atno 6907 bound_to 6896
  152.1403  133.4455  159.4772 H   0  0  0  0  0  0  0  0  0  0  0  0  # atno 6908 bound_to 6896
  150.6864  134.2232  159.4448 H   0  0  0  0  0  0  0  0  0  0  0  0  # atno 6909 bound_to 6896
  144.8509  140.6063  143.5391 H   0  0  0  0  0  0  0  0  0  0  0  0  # atno 7974 bound_to 7965
  156.1815  140.1675  156.8265 H   0  0  0  0  0  0  0  0  0  0  0  0  # atno 8008 bound_to 7997
  154.5365  140.0745  156.8470 H   0  0  0  0  0  0  0  0  0  0  0  0  # atno 8009 bound_to 7997
  155.3300  140.3378  155.4242 H   0  0  0  0  0  0  0  0  0  0  0  0  # atno 8010 bound_to 7997
  140.7198  143.5337  150.9490 H   0  0  0  0  0  0  0  0  0  0  0  0  # atno 10167 bound_to 10162
  156.2568  130.7186  151.1105 H   0  0  0  0  0  0  0  0  0  0  0  0  # atno 10718 bound_to 10713
  153.5019  135.7017  153.5827 H   0  0  0  0  0  0  0  0  0  0  0  0  # atno 10763 bound_to 10752
  153.3955  135.3885  155.1952 H   0  0  0  0  0  0  0  0  0  0  0  0  # atno 10764 bound_to 10752
  154.8710  135.3868  154.4490 H   0  0  0  0  0  0  0  0  0  0  0  0  # atno 10765 bound_to 10752
  141.0216  133.6860  156.2400 H   0  0  0  0  0  0  0  0  0  0  0  0  # atno 11005 bound_to 11000
  145.4502  139.1524  143.3922 LP  0  0  0  0  0  0  0  0  0  0  0  0  # atno 17320 bound_to 7965
  146.2784  140.4628  142.8786 LP  0  0  0  0  0  0  0  0  0  0  0  0  # atno 17321 bound_to 7965
  139.9058  143.6780  152.3124 LP  0  0  0  0  0  0  0  0  0  0  0  0  # atno 17342 bound_to 10162
  139.7146  144.7614  151.1055 LP  0  0  0  0  0  0  0  0  0  0  0  0  # atno 17343 bound_to 10162
  157.7235  131.0665  150.6032 LP  0  0  0  0  0  0  0  0  0  0  0  0  # atno 17370 bound_to 10713
  156.6116  130.4381  149.5856 LP  0  0  0  0  0  0  0  0  0  0  0  0  # atno 17371 bound_to 10713
  140.6563  134.5015  157.5581 LP  0  0  0  0  0  0  0  0  0  0  0  0  # atno 17394 bound_to 11000
  139.9150  134.8266  156.1398 LP  0  0  0  0  0  0  0  0  0  0  0  0  # atno 17395 bound_to 11000

$$$$
