AV-unprocessed.smi:1824|AV-procd|sdf|7403|dock2
  -GOLD-   22720 9 73D 1   1.00000     0.00000
 Structure written by MMmdl.
 45 47  0  0  0  0  0  0  0  0  2 V2000
  153.9783  138.4754  154.5328 C   0  0  0  0  0  0  0  0  0  0  0  0
  152.4636  138.5786  154.7420 C   0  0  2  0  0  0  0  0  0  0  0  0
  152.1011  139.4854  155.9333 C   0  0  0  0  0  0  0  0  0  0  0  0
  150.6353  139.4982  156.1496 N   0  3  2  0  0  0  0  0  0  0  0  0
  150.2293  140.4149  157.2455 C   0  0  0  0  0  0  0  0  0  0  0  0
  150.1624  141.8872  156.7935 C   0  0  2  0  0  0  0  0  0  0  0  0
  149.9111  141.9217  155.4013 O   0  0  0  0  0  0  0  0  0  0  0  0
  151.4750  142.6359  157.0942 C   0  0  0  0  0  0  0  0  0  0  0  0
  151.4058  143.4105  158.3208 N   0  0  0  0  0  0  0  0  0  0  0  0
  150.7314  144.5601  158.5148 C   0  0  0  0  0  0  0  0  0  0  0  0
  150.8021  145.1115  159.7228 N   0  0  0  0  0  0  0  0  0  0  0  0
  151.6133  144.2130  160.3942 C   0  0  0  0  0  0  0  0  0  0  0  0
  152.0775  144.2167  161.7289 C   0  0  0  0  0  0  0  0  0  0  0  0
  152.9094  143.1791  162.1992 C   0  0  0  0  0  0  0  0  0  0  0  0
  153.3453  143.1978  163.4810 F   0  0  0  0  0  0  0  0  0  0  0  0
  153.2894  142.1244  161.3425 C   0  0  0  0  0  0  0  0  0  0  0  0
  154.0889  141.1328  161.8015 F   0  0  0  0  0  0  0  0  0  0  0  0
  152.8397  142.0999  160.0083 C   0  0  0  0  0  0  0  0  0  0  0  0
  152.0086  143.1362  159.5442 C   0  0  0  0  0  0  0  0  0  0  0  0
  150.1266  138.1138  156.3118 C   0  0  0  0  0  0  0  0  0  0  0  0
  150.5414  137.2432  155.1105 C   0  0  2  0  0  0  0  0  0  0  0  0
  150.1046  135.7834  155.2752 C   0  0  0  0  0  0  0  0  0  0  0  0
  151.9589  137.2700  154.9847 O   0  0  0  0  0  0  0  0  0  0  0  0
  154.4158  139.4548  154.3383 H   0  0  0  0  0  0  0  0  0  0  0  0
  154.2109  137.8332  153.6830 H   0  0  0  0  0  0  0  0  0  0  0  0
  154.4710  138.0564  155.4108 H   0  0  0  0  0  0  0  0  0  0  0  0
  152.0144  138.9733  153.8291 H   0  0  0  0  0  0  0  0  0  0  0  0
  152.5994  139.1382  156.8402 H   0  0  0  0  0  0  0  0  0  0  0  0
  152.4529  140.5000  155.7411 H   0  0  0  0  0  0  0  0  0  0  0  0
  149.2669  140.0919  157.6454 H   0  0  0  0  0  0  0  0  0  0  0  0
  150.9398  140.3394  158.0705 H   0  0  0  0  0  0  0  0  0  0  0  0
  149.3472  142.4043  157.2990 H   0  0  0  0  0  0  0  0  0  0  0  0
  148.9772  141.8688  155.2630 H   0  0  0  0  0  0  0  0  0  0  0  0
  152.2984  141.9264  157.1874 H   0  0  0  0  0  0  0  0  0  0  0  0
  151.7337  143.3045  156.2720 H   0  0  0  0  0  0  0  0  0  0  0  0
  150.1578  145.0199  157.7231 H   0  0  0  0  0  0  0  0  0  0  0  0
  151.7935  145.0191  162.3935 H   0  0  0  0  0  0  0  0  0  0  0  0
  153.1307  141.2938  159.3516 H   0  0  0  0  0  0  0  0  0  0  0  0
  150.5193  137.6879  157.2367 H   0  0  0  0  0  0  0  0  0  0  0  0
  149.0407  138.1153  156.3982 H   0  0  0  0  0  0  0  0  0  0  0  0
  150.0919  137.6380  154.1976 H   0  0  0  0  0  0  0  0  0  0  0  0
  149.0207  135.7047  155.3631 H   0  0  0  0  0  0  0  0  0  0  0  0
  150.5464  135.3365  156.1663 H   0  0  0  0  0  0  0  0  0  0  0  0
  150.4114  135.1858  154.4165 H   0  0  0  0  0  0  0  0  0  0  0  0
  150.2287  139.8699  155.3025 H   0  0  0  0  0  0  0  0  0  0  0  0
  1  2  1  0  0  0  0
  1 24  1  0  0  0  0
  1 25  1  0  0  0  0
  1 26  1  0  0  0  0
  2 23  1  0  0  0  0
  2  3  1  0  0  0  0
  2 27  1  0  0  0  0
  3  4  1  0  0  0  0
  3 28  1  0  0  0  0
  3 29  1  0  0  0  0
  4  5  1  0  0  0  0
  4 20  1  0  0  0  0
  4 45  1  0  0  0  0
  5  6  1  0  0  0  0
  5 30  1  0  0  0  0
  5 31  1  0  0  0  0
  6  7  1  0  0  0  0
  6  8  1  0  0  0  0
  6 32  1  0  0  0  0
  7 33  1  0  0  0  0
  8  9  1  0  0  0  0
  8 34  1  0  0  0  0
  8 35  1  0  0  0  0
  9 19  1  0  0  0  0
  9 10  1  0  0  0  0
 10 11  2  0  0  0  0
 10 36  1  0  0  0  0
 11 12  1  0  0  0  0
 12 19  2  0  0  0  0
 12 13  1  0  0  0  0
 13 14  2  0  0  0  0
 13 37  1  0  0  0  0
 14 15  1  0  0  0  0
 14 16  1  0  0  0  0
 16 17  1  0  0  0  0
 16 18  2  0  0  0  0
 18 19  1  0  0  0  0
 18 38  1  0  0  0  0
 20 21  1  0  0  0  0
 20 39  1  0  0  0  0
 20 40  1  0  0  0  0
 21 22  1  0  0  0  0
 21 23  1  0  0  0  0
 21 41  1  0  0  0  0
 22 42  1  0  0  0  0
 22 43  1  0  0  0  0
 22 44  1  0  0  0  0
M  CHG  1   4   1
M  END
> <s_m_source_file>
AV-unprocessed.smi

> <i_m_source_file_index>
1824

> <i_lp_mmshare_version>
43012

> <i_f3d_flags>
0

> <s_epik_input>
W0NIM11bQ0BASF0xW0NIMl1OKFtDSDJdW0NASF0oTzEpW0NIM10pW0NIMl1bQ0BIXShbT0hdKVtDSDJdbihbY0hdbjIpYyhjMjMpW2NIXWMoRiljKEYpW2NIXTM=

> <s_epik_cmdline>
J2VwaWtfcHl0aG9uJywgJy1waCcsICc3LjAnLCAnLXRuJywgJzgnLCAnLW1hJywgJzIwMCcsICctbWV0YWxfYmluZGluZycsICctaW1hZScsICc8aW5maWxlLm1hZT4nLCAnLW9tYWUnLCAnPG91dGZpbGUubWFlPic=

> <r_epik_Ionization_Penalty>
0.61967

> <r_epik_Ionization_Penalty_Charging>
0.608065

> <r_epik_Ionization_Penalty_Neutral>
0.0116057

> <r_epik_State_Penalty>
0.664205

> <r_epik_Charging_Adjusted_Penalty>
1.27227

> <i_epik_Tot_Q>
1

> <i_epik_Tot_abs_Q>
1

> <r_epik_Metal_State_Penalty>
0.654947

> <b_epik_Metal_Only>
0

> <s_lp_Force_Field>
OPLS_2005

> <r_lp_Energy>
19.9364

> <b_lp_Chiralities_Consistent>
1

> <s_lp_Variant>
AV-unprocessed.smi:1824-11

> <Gold.Version>
5.8.1

> <Gold.Id.Protein>
6NUR|6NUR_protein|mol2

> <Gold.PLP.Fitness>
56.5127

> <Gold.PLP.PLP>
-53.3775

> <Gold.PLP.part.hbond>
-2.0000

> <Gold.PLP.part.metal>
0.0000

> <Gold.PLP.part.buried>
-6.6207

> <Gold.PLP.part.nonpolar>
-44.5139

> <Gold.PLP.part.repulsive>
0.3260

> <Gold.PLP.ligand.clash>
0.0000

> <Gold.PLP.ligand.torsion>
1.4035

> <Gold.PLP.Chemscore.Hbond>
0.9280

> <Gold.PLP.Chemscore.CHOScore>
1.0252

> <Gold.PLP.Chemscore.Metal>
0.0000

> <Gold.Chemscore.Hbonds>
donor molecule, donor type, donor heavy atom, donor atom, acceptor molecule, acceptor atom, score
      P1  H 10752 10764       L1    23  0.90
      L1  C    10    36       P1  8028  0.53
      L1  C    10    36       P1  8029  0.37

> <Gold.PLP.Chemscore.Internal.Correction>
0.0826

> <Gold.Rescore>
     Score         DG    S(hbond)    S(metal)    S(lipo)     H(rot)  DE(clash)    DE(int)     intcor
     15.70     -17.56       0.89        0.00     128.62       2.33       0.36       1.50       ----

> <Gold.Chemscore.Fitness>
15.6973

> <Gold.Chemscore.DG>
-17.5627

> <Gold.Chemscore.ZeroCoef>
-5.4800

> <Gold.Chemscore.Hbond>
0.8940

> <Gold.Chemscore.Metal>
0.0000

> <Gold.Chemscore.Lipo>
128.6249

> <Gold.Chemscore.Internal_Hbond>
0.0000

> <Gold.Chemscore.DEClash>
0.3629

> <Gold.Chemscore.DEInternal>
1.5026

> <Gold.Chemscore.Rot>
2.3251

> <Gold.Chemscore.Internal.Correction>
   9.000000E+99

> <Gold.Chemscore.Hbonds>
donor molecule, donor type, donor heavy atom, donor atom, acceptor molecule, acceptor atom, score
      P1  H 10752 10764       L1    23  0.83

> <Gold.Chemscore.Hbond.Weighted>
-2.9859

> <Gold.Chemscore.Metal.Weighted>
-0.0000

> <Gold.Chemscore.Lipo.Weighted>
-15.0491

> <Gold.Chemscore.Internal_Hbond.Weighted>
0.0000

> <Gold.Chemscore.DEClash.Weighted>
0.3629

> <Gold.Chemscore.DEInternal.Weighted>
1.5026

> <Gold.Chemscore.Rot.Weighted>
5.9523

> <Gold.Chemscore.Internal.Correction.Weighted>
   9.000000E+99

> <Gold.Protein.RotatedTorsions>
[ 6907 6896 6895 6894 ] final  -35.12 input  -60.11 | X-H torsion
[ 7974 7965 7964 7962 ] final  129.56 input  175.53 | X-H torsion
[ 8008 7997 7996 7995 ] final   31.50 input   59.86 | X-H torsion
[ 10167 10162 10161 10158 ] final  -48.58 input  -65.29 | X-H torsion
[ 10718 10713 10712 10709 ] final   73.66 input   66.30 | X-H torsion
[ 10763 10752 10751 10750 ] final  -70.22 input  -60.55 | X-H torsion
[ 11005 11000 10999 10996 ] final   83.77 input  -57.11 | X-H torsion

> <Gold.Protein.ActiveResidues>
 VAL166  LYS551  ARG553  GLY616  TRP617  ASP618  TYR619  PRO620  LYS621  CYS622 
 ASP623  PHE694  ASN695  SER759  ASP760  ASP761  ALA762  ILE779  LEU786  VAL792 
 PHE793  MET794  SER795  GLU796  ALA797  LYS798  CYS799  TRP800  GLU811  SER814 

> <Gold.Protein.RotatedAtoms>
  151.0439  134.9626  159.8175 H   0  0  0  0  0  0  0  0  0  0  0  0  # atno 6907 bound_to 6896
  152.5369  134.2623  159.8950 H   0  0  0  0  0  0  0  0  0  0  0  0  # atno 6908 bound_to 6896
  151.2637  133.4247  159.2651 H   0  0  0  0  0  0  0  0  0  0  0  0  # atno 6909 bound_to 6896
  145.0273  139.4077  143.5167 H   0  0  0  0  0  0  0  0  0  0  0  0  # atno 7974 bound_to 7965
  155.1074  140.3235  155.4530 H   0  0  0  0  0  0  0  0  0  0  0  0  # atno 8008 bound_to 7997
  156.2700  140.2050  156.6147 H   0  0  0  0  0  0  0  0  0  0  0  0  # atno 8009 bound_to 7997
  154.6782  140.0529  157.0225 H   0  0  0  0  0  0  0  0  0  0  0  0  # atno 8010 bound_to 7997
  140.6724  143.2734  151.4092 H   0  0  0  0  0  0  0  0  0  0  0  0  # atno 10167 bound_to 10162
  157.6557  130.9639  150.1100 H   0  0  0  0  0  0  0  0  0  0  0  0  # atno 10718 bound_to 10713
  154.4146  135.6001  153.5973 H   0  0  0  0  0  0  0  0  0  0  0  0  # atno 10763 bound_to 10752
  152.9791  135.5937  154.4029 H   0  0  0  0  0  0  0  0  0  0  0  0  # atno 10764 bound_to 10752
  154.3846  135.2841  155.2169 H   0  0  0  0  0  0  0  0  0  0  0  0  # atno 10765 bound_to 10752
  139.9020  134.8169  156.2355 H   0  0  0  0  0  0  0  0  0  0  0  0  # atno 11005 bound_to 11000
  146.3494  139.9804  142.8696 LP  0  0  0  0  0  0  0  0  0  0  0  0  # atno 17320 bound_to 7965
  145.1816  140.9770  143.4263 LP  0  0  0  0  0  0  0  0  0  0  0  0  # atno 17321 bound_to 7965
  139.5999  144.1317  152.2186 LP  0  0  0  0  0  0  0  0  0  0  0  0  # atno 17342 bound_to 10162
  140.0698  144.5788  150.7200 LP  0  0  0  0  0  0  0  0  0  0  0  0  # atno 17343 bound_to 10162
  156.1999  130.3659  149.8801 LP  0  0  0  0  0  0  0  0  0  0  0  0  # atno 17370 bound_to 10713
  156.6707  130.8819  151.3562 LP  0  0  0  0  0  0  0  0  0  0  0  0  # atno 17371 bound_to 10713
  141.0318  133.6984  156.1444 LP  0  0  0  0  0  0  0  0  0  0  0  0  # atno 17394 bound_to 11000
  140.7085  134.4488  157.5583 LP  0  0  0  0  0  0  0  0  0  0  0  0  # atno 17395 bound_to 11000

$$$$
