AV-unprocessed.smi:1986|AV-procd|sdf|8053|dock1
  -GOLD-   2272010253D 1   1.00000     0.00000
 Structure written by MMmdl.
 48 49  0  0  0  0  0  0  0  0  2 V2000
  150.7134  135.8480  155.1061 C   0  0  0  0  0  0  0  0  0  0  0  0
  150.6071  137.3812  155.2071 C   0  0  0  0  0  0  0  0  0  0  0  0
  151.4753  138.0951  156.2976 C   0  0  2  0  0  0  0  0  0  0  0  0
  152.9474  138.1280  155.8190 C   0  0  0  0  0  0  0  0  0  0  0  0
  151.3957  137.2825  157.6266 C   0  0  0  0  0  0  0  0  0  0  0  0
  150.0586  137.3313  158.2118 N   0  0  0  0  0  0  0  0  0  0  0  0
  149.2967  136.2794  158.5543 C   0  0  0  0  0  0  0  0  0  0  0  0
  149.6072  135.1155  158.3061 O   0  0  0  0  0  0  0  0  0  0  0  0
  148.0114  136.5649  159.3493 C   0  0  0  0  0  0  0  0  0  0  0  0
  147.8078  135.6804  160.5097 N   0  0  0  0  0  0  0  0  0  0  0  0
  147.9298  134.3300  160.2224 N   0  0  0  0  0  0  0  0  0  0  0  0
  147.7556  133.4538  161.1533 C   0  0  0  0  0  0  0  0  0  0  0  0
  147.8828  132.1266  160.8241 O   0  0  0  0  0  0  0  0  0  0  0  0
  147.4340  133.8531  162.5060 C   0  0  0  0  0  0  0  0  0  0  0  0
  147.3169  135.1713  162.7772 C   0  0  0  0  0  0  0  0  0  0  0  0
  147.5024  136.1907  161.7435 C   0  0  0  0  0  0  0  0  0  0  0  0
  147.3724  137.3965  161.9546 O   0  0  0  0  0  0  0  0  0  0  0  0
  150.9594  139.4964  156.5428 N   0  3  0  0  0  0  0  0  0  0  0  0
  151.6678  140.2650  157.6057 C   0  0  0  0  0  0  0  0  0  0  0  0
  150.9047  141.5564  157.9319 C   0  0  0  0  0  0  0  0  0  0  0  0
  150.8206  142.3501  156.7576 O   0  0  0  0  0  0  0  0  0  0  0  0
  150.0926  141.6908  155.7319 C   0  0  0  0  0  0  0  0  0  0  0  0
  150.7834  140.3694  155.3465 C   0  0  0  0  0  0  0  0  0  0  0  0
  148.4729  132.1040  160.0863 H   0  0  0  0  0  0  0  0  0  0  0  0
  150.1322  135.4875  154.2573 H   0  0  0  0  0  0  0  0  0  0  0  0
  150.3162  135.3503  155.9905 H   0  0  0  0  0  0  0  0  0  0  0  0
  151.7393  135.5137  154.9571 H   0  0  0  0  0  0  0  0  0  0  0  0
  150.8698  137.7703  154.2231 H   0  0  0  0  0  0  0  0  0  0  0  0
  149.5548  137.6263  155.3562 H   0  0  0  0  0  0  0  0  0  0  0  0
  153.3242  137.1281  155.6071 H   0  0  0  0  0  0  0  0  0  0  0  0
  153.6170  138.5452  156.5708 H   0  0  0  0  0  0  0  0  0  0  0  0
  153.0627  138.7157  154.9081 H   0  0  0  0  0  0  0  0  0  0  0  0
  151.6465  136.2366  157.4540 H   0  0  0  0  0  0  0  0  0  0  0  0
  152.1443  137.6097  158.3473 H   0  0  0  0  0  0  0  0  0  0  0  0
  149.7066  138.2493  158.4438 H   0  0  0  0  0  0  0  0  0  0  0  0
  148.0404  137.6083  159.6682 H   0  0  0  0  0  0  0  0  0  0  0  0
  147.1544  136.4888  158.6776 H   0  0  0  0  0  0  0  0  0  0  0  0
  147.2939  133.1082  163.2755 H   0  0  0  0  0  0  0  0  0  0  0  0
  147.0774  135.4831  163.7832 H   0  0  0  0  0  0  0  0  0  0  0  0
  151.7739  139.6883  158.5213 H   0  0  0  0  0  0  0  0  0  0  0  0
  152.6741  140.5256  157.2765 H   0  0  0  0  0  0  0  0  0  0  0  0
  149.9088  141.3376  158.3214 H   0  0  0  0  0  0  0  0  0  0  0  0
  151.4325  142.1210  158.7008 H   0  0  0  0  0  0  0  0  0  0  0  0
  149.0683  141.5122  156.0614 H   0  0  0  0  0  0  0  0  0  0  0  0
  150.0338  142.3487  154.8647 H   0  0  0  0  0  0  0  0  0  0  0  0
  151.7522  140.5711  154.8883 H   0  0  0  0  0  0  0  0  0  0  0  0
  150.1564  139.9023  154.5895 H   0  0  0  0  0  0  0  0  0  0  0  0
  150.0226  139.3575  156.8946 H   0  0  0  0  0  0  0  0  0  0  0  0
  1  2  1  0  0  0  0
  1 25  1  0  0  0  0
  1 26  1  0  0  0  0
  1 27  1  0  0  0  0
  2  3  1  0  0  0  0
  2 28  1  0  0  0  0
  2 29  1  0  0  0  0
  3  4  1  0  0  0  0
  3  5  1  0  0  0  0
  3 18  1  0  0  0  0
  4 30  1  0  0  0  0
  4 31  1  0  0  0  0
  4 32  1  0  0  0  0
  5  6  1  0  0  0  0
  5 33  1  0  0  0  0
  5 34  1  0  0  0  0
  6  7  1  0  0  0  0
  6 35  1  0  0  0  0
  7  8  2  0  0  0  0
  7  9  1  0  0  0  0
  9 36  1  0  0  0  0
  9 37  1  0  0  0  0
  9 10  1  0  0  0  0
 10 11  1  0  0  0  0
 10 16  1  0  0  0  0
 11 12  2  0  0  0  0
 12 13  1  0  0  0  0
 12 14  1  0  0  0  0
 13 24  1  0  0  0  0
 14 38  1  0  0  0  0
 14 15  2  0  0  0  0
 15 39  1  0  0  0  0
 15 16  1  0  0  0  0
 16 17  2  0  0  0  0
 18 23  1  0  0  0  0
 18 19  1  0  0  0  0
 18 48  1  0  0  0  0
 19 20  1  0  0  0  0
 19 40  1  0  0  0  0
 19 41  1  0  0  0  0
 20 21  1  0  0  0  0
 20 42  1  0  0  0  0
 20 43  1  0  0  0  0
 21 22  1  0  0  0  0
 22 23  1  0  0  0  0
 22 44  1  0  0  0  0
 22 45  1  0  0  0  0
 23 46  1  0  0  0  0
 23 47  1  0  0  0  0
M  CHG  1  18   1
M  END
> <s_m_source_file>
AV-unprocessed.smi

> <i_m_source_file_index>
1986

> <i_lp_mmshare_version>
43012

> <i_f3d_flags>
0

> <s_epik_input>
W0NIMl0xW0NIMl1PW0NIMl1bQ0gyXU4xW0NAQF0oW0NIM10pKFtDSDJdW0NIM10pW0NIMl1bTkhdQyg9TylbQ0gyXW4yW25IXWMoPU8pW2NIXVtjSF1jMj1P

> <s_epik_cmdline>
J2VwaWtfcHl0aG9uJywgJy1waCcsICc3LjAnLCAnLXRuJywgJzgnLCAnLW1hJywgJzIwMCcsICctbWV0YWxfYmluZGluZycsICctaW1hZScsICc8aW5maWxlLm1hZT4nLCAnLW9tYWUnLCAnPG91dGZpbGUubWFlPic=

> <r_lp_tautomer_probability>
0.9996

> <r_epik_Ionization_Penalty>
2.73198

> <r_epik_Ionization_Penalty_Charging>
0.519658

> <r_epik_Ionization_Penalty_Neutral>
2.21233

> <r_epik_State_Penalty>
2.2852

> <r_epik_Charging_Adjusted_Penalty>
2.80486

> <i_epik_Tot_Q>
1

> <i_epik_Tot_abs_Q>
1

> <r_epik_Metal_State_Penalty>
2.2852

> <b_epik_Metal_Only>
0

> <s_lp_Force_Field>
OPLS_2005

> <r_lp_Energy>
41.4304

> <b_lp_Chiralities_Consistent>
1

> <s_lp_Variant>
AV-unprocessed.smi:1986-8

> <Gold.Version>
5.8.1

> <Gold.Id.Protein>
6NUR|6NUR_protein|mol2

> <Gold.PLP.Fitness>
44.2260

> <Gold.PLP.PLP>
-37.7741

> <Gold.PLP.part.hbond>
-3.0000

> <Gold.PLP.part.metal>
0.0000

> <Gold.PLP.part.buried>
-3.6702

> <Gold.PLP.part.nonpolar>
-30.7998

> <Gold.PLP.part.repulsive>
0.2825

> <Gold.PLP.ligand.clash>
0.0000

> <Gold.PLP.ligand.torsion>
0.5869

> <Gold.PLP.Chemscore.Hbond>
2.4720

> <Gold.PLP.Chemscore.CHOScore>
0.0000

> <Gold.PLP.Chemscore.Metal>
0.0000

> <Gold.Chemscore.Hbonds>
donor molecule, donor type, donor heavy atom, donor atom, acceptor molecule, acceptor atom, score
      P1  H  6896  6908       L1     8  1.00
      P1  H  6931  6943       L1    17  0.80
      P1  H  6934  6947       L1    17  0.69

> <Gold.PLP.Chemscore.Internal.Correction>
0.2098

> <Gold.Rescore>
     Score         DG    S(hbond)    S(metal)    S(lipo)     H(rot)  DE(clash)    DE(int)     intcor
     12.85     -14.67       2.59        0.00      73.62       3.15       0.06       1.77       ----

> <Gold.Chemscore.Fitness>
12.8451

> <Gold.Chemscore.DG>
-14.6750

> <Gold.Chemscore.ZeroCoef>
-5.4800

> <Gold.Chemscore.Hbond>
2.5874

> <Gold.Chemscore.Metal>
0.0000

> <Gold.Chemscore.Lipo>
73.6174

> <Gold.Chemscore.Internal_Hbond>
0.0000

> <Gold.Chemscore.DEClash>
0.0575

> <Gold.Chemscore.DEInternal>
1.7723

> <Gold.Chemscore.Rot>
3.1485

> <Gold.Chemscore.Internal.Correction>
   9.000000E+99

> <Gold.Chemscore.Hbonds>
donor molecule, donor type, donor heavy atom, donor atom, acceptor molecule, acceptor atom, score
      P1  H  6896  6908       L1     8  0.93
      P1  H  6931  6943       L1    17  0.62
      P1  H  6934  6947       L1    17  0.68

> <Gold.Chemscore.Hbond.Weighted>
-8.6419

> <Gold.Chemscore.Metal.Weighted>
-0.0000

> <Gold.Chemscore.Lipo.Weighted>
-8.6132

> <Gold.Chemscore.Internal_Hbond.Weighted>
0.0000

> <Gold.Chemscore.DEClash.Weighted>
0.0575

> <Gold.Chemscore.DEInternal.Weighted>
1.7723

> <Gold.Chemscore.Rot.Weighted>
8.0601

> <Gold.Chemscore.Internal.Correction.Weighted>
   9.000000E+99

> <Gold.Protein.RotatedTorsions>
[ 6907 6896 6895 6894 ] final  144.55 input  -60.11 | X-H torsion
[ 7974 7965 7964 7962 ] final   46.27 input  175.53 | X-H torsion
[ 8008 7997 7996 7995 ] final  109.89 input   59.86 | X-H torsion
[ 10167 10162 10161 10158 ] final -129.23 input  -65.29 | X-H torsion
[ 10718 10713 10712 10709 ] final -160.28 input   66.30 | X-H torsion
[ 10763 10752 10751 10750 ] final -152.04 input  -60.55 | X-H torsion
[ 11005 11000 10999 10996 ] final   89.61 input  -57.11 | X-H torsion

> <Gold.Protein.ActiveResidues>
 VAL166  LYS551  ARG553  GLY616  TRP617  ASP618  TYR619  PRO620  LYS621  CYS622 
 ASP623  PHE694  ASN695  SER759  ASP760  ASP761  ALA762  ILE779  LEU786  VAL792 
 PHE793  MET794  SER795  GLU796  ALA797  LYS798  CYS799  TRP800  GLU811  SER814 

> <Gold.Protein.RotatedAtoms>
  152.1923  133.4782  159.5014 H   0  0  0  0  0  0  0  0  0  0  0  0  # atno 6907 bound_to 6896
  150.6953  134.1697  159.4216 H   0  0  0  0  0  0  0  0  0  0  0  0  # atno 6908 bound_to 6896
  151.9612  135.0122  160.0598 H   0  0  0  0  0  0  0  0  0  0  0  0  # atno 6909 bound_to 6896
  146.0405  139.4874  142.9781 H   0  0  0  0  0  0  0  0  0  0  0  0  # atno 7974 bound_to 7965
  156.2013  140.3049  155.9532 H   0  0  0  0  0  0  0  0  0  0  0  0  # atno 8008 bound_to 7997
  155.2948  140.0443  157.3042 H   0  0  0  0  0  0  0  0  0  0  0  0  # atno 8009 bound_to 7997
  154.5574  140.2310  155.8398 H   0  0  0  0  0  0  0  0  0  0  0  0  # atno 8010 bound_to 7997
  139.9420  143.6152  152.2501 H   0  0  0  0  0  0  0  0  0  0  0  0  # atno 10167 bound_to 10162
  156.5800  130.8725  151.2862 H   0  0  0  0  0  0  0  0  0  0  0  0  # atno 10718 bound_to 10713
  154.8020  135.3245  154.7527 H   0  0  0  0  0  0  0  0  0  0  0  0  # atno 10763 bound_to 10752
  153.8193  135.6889  153.4834 H   0  0  0  0  0  0  0  0  0  0  0  0  # atno 10764 bound_to 10752
  153.1742  135.4611  154.9886 H   0  0  0  0  0  0  0  0  0  0  0  0  # atno 10765 bound_to 10752
  139.8872  134.8562  156.3166 H   0  0  0  0  0  0  0  0  0  0  0  0  # atno 11005 bound_to 11000
  145.6893  141.0169  143.1564 LP  0  0  0  0  0  0  0  0  0  0  0  0  # atno 17320 bound_to 7965
  144.7072  139.8513  143.7426 LP  0  0  0  0  0  0  0  0  0  0  0  0  # atno 17321 bound_to 7965
  139.6697  144.7661  151.1807 LP  0  0  0  0  0  0  0  0  0  0  0  0  # atno 17342 bound_to 10162
  140.7608  143.5884  150.8822 LP  0  0  0  0  0  0  0  0  0  0  0  0  # atno 17343 bound_to 10162
  157.7329  130.9722  150.1950 LP  0  0  0  0  0  0  0  0  0  0  0  0  # atno 17370 bound_to 10713
  156.2640  130.3714  149.8101 LP  0  0  0  0  0  0  0  0  0  0  0  0  # atno 17371 bound_to 10713
  140.9815  133.7265  156.0678 LP  0  0  0  0  0  0  0  0  0  0  0  0  # atno 17394 bound_to 11000
  140.7744  134.3797  157.5501 LP  0  0  0  0  0  0  0  0  0  0  0  0  # atno 17395 bound_to 11000

$$$$
