AV-unprocessed.smi:2840|AV-procd|sdf|10932|dock6
  -GOLD-   2272015383D 1   1.00000     0.00000
 Structure written by MMmdl.
 36 37  0  0  0  0  0  0  0  0  1 V2000
  151.6979  145.1696  158.8114 C   0  0  0  0  0  0  0  0  0  0  0  0
  152.5066  144.3061  159.7945 C   0  0  1  0  0  0  0  0  0  0  0  0
  151.7472  144.0947  161.1207 C   0  0  0  0  0  0  0  0  0  0  0  0
  152.5826  143.2873  162.1269 C   0  0  0  0  0  0  0  0  0  0  0  0
  153.0250  141.9416  161.5337 C   0  0  0  0  0  0  0  0  0  0  0  0
  153.7818  142.1387  160.2086 C   0  0  0  0  0  0  0  0  0  0  0  0
  152.9663  142.9559  159.1859 C   0  0  1  0  0  0  0  0  0  0  0  0
  151.8359  142.1581  158.7049 N   0  0  0  0  0  0  0  0  0  0  0  0
  151.1372  142.3728  157.5800 C   0  0  0  0  0  0  0  0  0  0  0  0
  151.3503  143.3119  156.8126 O   0  0  0  0  0  0  0  0  0  0  0  0
  150.1891  141.4339  157.4144 N   0  0  0  0  0  0  0  0  0  0  0  0
  149.2689  141.2936  156.3415 C   0  0  0  0  0  0  0  0  0  0  0  0
  147.9626  140.9092  156.7202 C   0  0  0  0  0  0  0  0  0  0  0  0
  146.9762  140.7361  155.7297 C   0  0  0  0  0  0  0  0  0  0  0  0
  147.3216  140.9539  154.3841 C   0  0  0  0  0  0  0  0  0  0  0  0
  148.6436  141.3375  154.0927 C   0  0  0  0  0  0  0  0  0  0  0  0
  149.5907  141.5029  155.0402 N   0  0  0  0  0  0  0  0  0  0  0  0
  150.7368  144.7153  158.5704 H   0  0  0  0  0  0  0  0  0  0  0  0
  152.2426  145.3143  157.8779 H   0  0  0  0  0  0  0  0  0  0  0  0
  151.4983  146.1557  159.2314 H   0  0  0  0  0  0  0  0  0  0  0  0
  153.4103  144.8703  160.0300 H   0  0  0  0  0  0  0  0  0  0  0  0
  151.4874  145.0594  161.5579 H   0  0  0  0  0  0  0  0  0  0  0  0
  150.8041  143.5801  160.9325 H   0  0  0  0  0  0  0  0  0  0  0  0
  153.4614  143.8643  162.4175 H   0  0  0  0  0  0  0  0  0  0  0  0
  152.0073  143.1204  163.0379 H   0  0  0  0  0  0  0  0  0  0  0  0
  153.6586  141.4134  162.2467 H   0  0  0  0  0  0  0  0  0  0  0  0
  152.1522  141.3082  161.3719 H   0  0  0  0  0  0  0  0  0  0  0  0
  154.7209  142.6552  160.4109 H   0  0  0  0  0  0  0  0  0  0  0  0
  154.0553  141.1705  159.7871 H   0  0  0  0  0  0  0  0  0  0  0  0
  153.6315  143.1733  158.3485 H   0  0  0  0  0  0  0  0  0  0  0  0
  151.5770  141.3649  159.2730 H   0  0  0  0  0  0  0  0  0  0  0  0
  150.1317  140.7247  158.1300 H   0  0  0  0  0  0  0  0  0  0  0  0
  147.7144  140.7454  157.7588 H   0  0  0  0  0  0  0  0  0  0  0  0
  145.9728  140.4403  155.9985 H   0  0  0  0  0  0  0  0  0  0  0  0
  146.5932  140.8308  153.5965 H   0  0  0  0  0  0  0  0  0  0  0  0
  148.9494  141.5153  153.0723 H   0  0  0  0  0  0  0  0  0  0  0  0
  1  2  1  0  0  0  0
  1 18  1  0  0  0  0
  1 19  1  0  0  0  0
  1 20  1  0  0  0  0
  2  7  1  0  0  0  0
  2  3  1  0  0  0  0
  2 21  1  0  0  0  0
  3  4  1  0  0  0  0
  3 22  1  0  0  0  0
  3 23  1  0  0  0  0
  4  5  1  0  0  0  0
  4 24  1  0  0  0  0
  4 25  1  0  0  0  0
  5  6  1  0  0  0  0
  5 26  1  0  0  0  0
  5 27  1  0  0  0  0
  6  7  1  0  0  0  0
  6 28  1  0  0  0  0
  6 29  1  0  0  0  0
  7  8  1  0  0  0  0
  7 30  1  0  0  0  0
  8  9  1  0  0  0  0
  8 31  1  0  0  0  0
  9 10  2  0  0  0  0
  9 11  1  0  0  0  0
 11 12  1  0  0  0  0
 11 32  1  0  0  0  0
 12 17  1  0  0  0  0
 12 13  2  0  0  0  0
 13 14  1  0  0  0  0
 13 33  1  0  0  0  0
 14 15  2  0  0  0  0
 14 34  1  0  0  0  0
 15 16  1  0  0  0  0
 15 35  1  0  0  0  0
 16 17  2  0  0  0  0
 16 36  1  0  0  0  0
M  END
> <s_m_source_file>
AV-unprocessed.smi

> <i_m_source_file_index>
2840

> <i_lp_mmshare_version>
43012

> <i_f3d_flags>
0

> <s_epik_input>
W0NIM11bQ0BASF0xW0NIMl1bQ0gyXVtDSDJdW0NIMl1bQ0BIXTFbTkhdQyg9TylbTkhdYzJbY0hdW2NIXVtjSF1bY0hdbjI=

> <s_epik_cmdline>
J2VwaWtfcHl0aG9uJywgJy1waCcsICc3LjAnLCAnLXRuJywgJzgnLCAnLW1hJywgJzIwMCcsICctbWV0YWxfYmluZGluZycsICctaW1hZScsICc8aW5maWxlLm1hZT4nLCAnLW9tYWUnLCAnPG91dGZpbGUubWFlPic=

> <r_lp_tautomer_probability>
1

> <r_epik_Ionization_Penalty>
5.29956e-05

> <r_epik_Ionization_Penalty_Charging>
0

> <r_epik_Ionization_Penalty_Neutral>
5.29956e-05

> <r_epik_State_Penalty>
-0

> <r_epik_Charging_Adjusted_Penalty>
0

> <i_epik_Tot_Q>
0

> <i_epik_Tot_abs_Q>
0

> <r_epik_Metal_State_Penalty>
-0

> <b_epik_Metal_Only>
0

> <s_lp_Force_Field>
OPLS_2005

> <r_lp_Energy>
11.7155

> <b_lp_Chiralities_Consistent>
1

> <s_lp_Variant>
AV-unprocessed.smi:2840-2

> <Gold.Version>
5.8.1

> <Gold.Id.Protein>
6NUR|6NUR_protein|mol2

> <Gold.PLP.Fitness>
38.6417

> <Gold.PLP.PLP>
-36.7245

> <Gold.PLP.part.hbond>
-0.0872

> <Gold.PLP.part.metal>
0.0000

> <Gold.PLP.part.buried>
-4.4458

> <Gold.PLP.part.nonpolar>
-33.5267

> <Gold.PLP.part.repulsive>
1.0314

> <Gold.PLP.ligand.clash>
0.0000

> <Gold.PLP.ligand.torsion>
0.5418

> <Gold.PLP.Chemscore.Hbond>
0.0000

> <Gold.PLP.Chemscore.CHOScore>
0.9979

> <Gold.PLP.Chemscore.Metal>
0.0000

> <Gold.Chemscore.Hbonds>
donor molecule, donor type, donor heavy atom, donor atom, acceptor molecule, acceptor atom, score
      L1  C    16    36       P1  7957  1.00

> <Gold.PLP.Chemscore.Internal.Correction>
0.0071

> <Gold.Rescore>
     Score         DG    S(hbond)    S(metal)    S(lipo)     H(rot)  DE(clash)    DE(int)     intcor
     11.13     -14.74       0.00        0.00     100.98       1.00       1.03       2.57       ----

> <Gold.Chemscore.Fitness>
11.1337

> <Gold.Chemscore.DG>
-14.7354

> <Gold.Chemscore.ZeroCoef>
-5.4800

> <Gold.Chemscore.Hbond>
0.0002

> <Gold.Chemscore.Metal>
0.0000

> <Gold.Chemscore.Lipo>
100.9808

> <Gold.Chemscore.Internal_Hbond>
0.0000

> <Gold.Chemscore.DEClash>
1.0346

> <Gold.Chemscore.DEInternal>
2.5671

> <Gold.Chemscore.Rot>
1.0000

> <Gold.Chemscore.Internal.Correction>
   9.000000E+99

> <Gold.Chemscore.Hbond.Weighted>
-0.0007

> <Gold.Chemscore.Metal.Weighted>
-0.0000

> <Gold.Chemscore.Lipo.Weighted>
-11.8148

> <Gold.Chemscore.Internal_Hbond.Weighted>
0.0000

> <Gold.Chemscore.DEClash.Weighted>
1.0346

> <Gold.Chemscore.DEInternal.Weighted>
2.5671

> <Gold.Chemscore.Rot.Weighted>
2.5600

> <Gold.Chemscore.Internal.Correction.Weighted>
   9.000000E+99

> <Gold.Protein.RotatedTorsions>
[ 6907 6896 6895 6894 ] final  154.80 input  -60.11 | X-H torsion
[ 7974 7965 7964 7962 ] final   12.02 input  175.53 | X-H torsion
[ 8008 7997 7996 7995 ] final  162.35 input   59.86 | X-H torsion
[ 10167 10162 10161 10158 ] final  -43.68 input  -65.29 | X-H torsion
[ 10718 10713 10712 10709 ] final -111.83 input   66.30 | X-H torsion
[ 10763 10752 10751 10750 ] final  -22.60 input  -60.55 | X-H torsion
[ 11005 11000 10999 10996 ] final  117.70 input  -57.11 | X-H torsion

> <Gold.Protein.ActiveResidues>
 VAL166  LYS551  ARG553  GLY616  TRP617  ASP618  TYR619  PRO620  LYS621  CYS622 
 ASP623  PHE694  ASN695  SER759  ASP760  ASP761  ALA762  ILE779  LEU786  VAL792 
 PHE793  MET794  SER795  GLU796  ALA797  LYS798  CYS799  TRP800  GLU811  SER814 

> <Gold.Protein.RotatedAtoms>
  152.0533  133.4028  159.4385 H   0  0  0  0  0  0  0  0  0  0  0  0  # atno 6907 bound_to 6896
  150.6869  134.3284  159.4825 H   0  0  0  0  0  0  0  0  0  0  0  0  # atno 6908 bound_to 6896
  152.1096  134.9283  160.0617 H   0  0  0  0  0  0  0  0  0  0  0  0  # atno 6909 bound_to 6896
  146.2360  139.9399  142.8484 H   0  0  0  0  0  0  0  0  0  0  0  0  # atno 7974 bound_to 7965
  156.2038  140.1753  156.7844 H   0  0  0  0  0  0  0  0  0  0  0  0  # atno 8008 bound_to 7997
  154.5627  140.0696  156.8874 H   0  0  0  0  0  0  0  0  0  0  0  0  # atno 8009 bound_to 7997
  155.2818  140.3349  155.4260 H   0  0  0  0  0  0  0  0  0  0  0  0  # atno 8010 bound_to 7997
  140.6925  143.2970  151.3387 H   0  0  0  0  0  0  0  0  0  0  0  0  # atno 10167 bound_to 10162
  156.0670  130.5888  150.8426 H   0  0  0  0  0  0  0  0  0  0  0  0  # atno 10718 bound_to 10713
  153.6545  135.6979  153.5198 H   0  0  0  0  0  0  0  0  0  0  0  0  # atno 10763 bound_to 10752
  153.2680  135.4223  155.0959 H   0  0  0  0  0  0  0  0  0  0  0  0  # atno 10764 bound_to 10752
  154.8468  135.3571  154.6089 H   0  0  0  0  0  0  0  0  0  0  0  0  # atno 10765 bound_to 10752
  139.9083  134.9613  156.7390 H   0  0  0  0  0  0  0  0  0  0  0  0  # atno 11005 bound_to 11000
  145.1963  140.9834  143.4182 LP  0  0  0  0  0  0  0  0  0  0  0  0  # atno 17320 bound_to 7965
  144.9813  139.3781  143.6261 LP  0  0  0  0  0  0  0  0  0  0  0  0  # atno 17321 bound_to 7965
  139.6343  144.0661  152.2502 LP  0  0  0  0  0  0  0  0  0  0  0  0  # atno 17342 bound_to 10162
  140.0146  144.6199  150.7618 LP  0  0  0  0  0  0  0  0  0  0  0  0  # atno 17343 bound_to 10162
  157.5717  131.0946  150.9407 LP  0  0  0  0  0  0  0  0  0  0  0  0  # atno 17370 bound_to 10713
  156.9622  130.5459  149.5286 LP  0  0  0  0  0  0  0  0  0  0  0  0  # atno 17371 bound_to 10713
  140.6864  133.9428  155.7940 LP  0  0  0  0  0  0  0  0  0  0  0  0  # atno 17394 bound_to 11000
  141.0473  134.0535  157.3828 LP  0  0  0  0  0  0  0  0  0  0  0  0  # atno 17395 bound_to 11000

$$$$
