AV-unprocessed.smi:2953|AV-procd|sdf|11296|dock1
  -GOLD-   2272016193D 1   1.00000     0.00000
 Structure written by MMmdl.
 46 48  0  0  0  0  0  0  0  0  2 V2000
  148.7311  134.6401  157.2521 C   0  0  0  0  0  0  0  0  0  0  0  0
  148.2819  135.1581  158.6051 C   0  0  0  0  0  0  0  0  0  0  0  0
  147.5090  134.3209  159.4368 C   0  0  0  0  0  0  0  0  0  0  0  0
  147.0760  134.7733  160.6958 C   0  0  0  0  0  0  0  0  0  0  0  0
  147.4138  136.0680  161.1263 C   0  0  0  0  0  0  0  0  0  0  0  0
  148.1834  136.9087  160.3001 C   0  0  0  0  0  0  0  0  0  0  0  0
  148.6280  136.4642  159.0278 C   0  0  0  0  0  0  0  0  0  0  0  0
  149.3829  137.2404  158.1707 O   0  0  0  0  0  0  0  0  0  0  0  0
  149.6148  138.5987  158.5225 C   0  0  0  0  0  0  0  0  0  0  0  0
  150.7670  139.1618  157.6794 C   0  0  0  0  0  0  0  0  0  0  0  0
  150.7319  140.6292  157.5791 N   0  0  0  0  0  0  0  0  0  0  0  0
  150.0109  141.4551  156.7634 C   0  0  0  0  0  0  0  0  0  0  0  0
  149.0351  141.0534  155.6947 C   0  0  1  0  0  0  0  0  0  0  0  0
  147.8810  140.2274  156.2824 C   0  0  0  0  0  0  0  0  0  0  0  0
  148.4892  142.2142  155.0020 N   0  0  0  0  0  0  0  0  0  0  0  0
  147.6149  142.1538  153.9900 C   0  0  0  0  0  0  0  0  0  0  0  0
  147.1800  141.0964  153.5417 O   0  0  0  0  0  0  0  0  0  0  0  0
  150.3781  142.7340  157.0661 N   0  3  0  0  0  0  0  0  0  0  0  0
  151.3226  142.7286  158.0919 C   0  0  0  0  0  0  0  0  0  0  0  0
  151.9775  143.7752  158.7337 C   0  0  0  0  0  0  0  0  0  0  0  0
  152.8947  143.4219  159.7452 C   0  0  0  0  0  0  0  0  0  0  0  0
  153.1302  142.0737  160.0842 C   0  0  0  0  0  0  0  0  0  0  0  0
  152.4589  141.0217  159.4265 C   0  0  0  0  0  0  0  0  0  0  0  0
  151.5547  141.3798  158.4267 C   0  0  0  0  0  0  0  0  0  0  0  0
  148.7254  133.5500  157.2277 H   0  0  0  0  0  0  0  0  0  0  0  0
  149.7431  134.9712  157.0175 H   0  0  0  0  0  0  0  0  0  0  0  0
  148.0564  135.0001  156.4761 H   0  0  0  0  0  0  0  0  0  0  0  0
  147.2438  133.3256  159.1112 H   0  0  0  0  0  0  0  0  0  0  0  0
  146.4853  134.1282  161.3294 H   0  0  0  0  0  0  0  0  0  0  0  0
  147.0813  136.4186  162.0922 H   0  0  0  0  0  0  0  0  0  0  0  0
  148.4158  137.8961  160.6686 H   0  0  0  0  0  0  0  0  0  0  0  0
  148.7121  139.1896  158.3598 H   0  0  0  0  0  0  0  0  0  0  0  0
  149.8798  138.6734  159.5782 H   0  0  0  0  0  0  0  0  0  0  0  0
  151.7311  138.8640  158.0928 H   0  0  0  0  0  0  0  0  0  0  0  0
  150.7286  138.7471  156.6732 H   0  0  0  0  0  0  0  0  0  0  0  0
  149.5514  140.4242  154.9682 H   0  0  0  0  0  0  0  0  0  0  0  0
  148.2564  139.3549  156.8160 H   0  0  0  0  0  0  0  0  0  0  0  0
  147.2136  139.8715  155.4968 H   0  0  0  0  0  0  0  0  0  0  0  0
  147.2834  140.8105  156.9842 H   0  0  0  0  0  0  0  0  0  0  0  0
  148.7945  143.1253  155.3130 H   0  0  0  0  0  0  0  0  0  0  0  0
  147.3405  143.1534  153.6207 H   0  0  0  0  0  0  0  0  0  0  0  0
  151.7990  144.8088  158.4753 H   0  0  0  0  0  0  0  0  0  0  0  0
  153.4288  144.2004  160.2712 H   0  0  0  0  0  0  0  0  0  0  0  0
  153.8411  141.8409  160.8641 H   0  0  0  0  0  0  0  0  0  0  0  0
  152.6459  139.9924  159.6945 H   0  0  0  0  0  0  0  0  0  0  0  0
  150.0048  143.5512  156.6008 H   0  0  0  0  0  0  0  0  0  0  0  0
  1  2  1  0  0  0  0
  1 25  1  0  0  0  0
  1 26  1  0  0  0  0
  1 27  1  0  0  0  0
  2  7  1  0  0  0  0
  2  3  2  0  0  0  0
  3  4  1  0  0  0  0
  3 28  1  0  0  0  0
  4  5  2  0  0  0  0
  4 29  1  0  0  0  0
  5  6  1  0  0  0  0
  5 30  1  0  0  0  0
  6  7  2  0  0  0  0
  6 31  1  0  0  0  0
  7  8  1  0  0  0  0
  8  9  1  0  0  0  0
  9 10  1  0  0  0  0
  9 32  1  0  0  0  0
  9 33  1  0  0  0  0
 10 11  1  0  0  0  0
 10 34  1  0  0  0  0
 10 35  1  0  0  0  0
 11 24  1  0  0  0  0
 11 12  1  0  0  0  0
 12 13  1  0  0  0  0
 12 18  2  0  0  0  0
 13 14  1  0  0  0  0
 13 15  1  0  0  0  0
 13 36  1  0  0  0  0
 14 37  1  0  0  0  0
 14 38  1  0  0  0  0
 14 39  1  0  0  0  0
 15 16  1  0  0  0  0
 15 40  1  0  0  0  0
 16 17  2  0  0  0  0
 16 41  1  0  0  0  0
 18 19  1  0  0  0  0
 18 46  1  0  0  0  0
 19 24  2  0  0  0  0
 19 20  1  0  0  0  0
 20 21  2  0  0  0  0
 20 42  1  0  0  0  0
 21 22  1  0  0  0  0
 21 43  1  0  0  0  0
 22 23  2  0  0  0  0
 22 44  1  0  0  0  0
 23 24  1  0  0  0  0
 23 45  1  0  0  0  0
M  CHG  1  18   1
M  END
> <s_m_source_file>
AV-unprocessed.smi

> <i_m_source_file_index>
2953

> <i_lp_mmshare_version>
43012

> <i_f3d_flags>
0

> <s_epik_input>
W0NIM11jMVtjSF1bY0hdW2NIXVtjSF1jMU9bQ0gyXVtDSDJdbihjKG4yKVtDQEhdKFtDSDNdKVtOSF1bQ0hdPU8pYyhjMjMpW2NIXVtjSF1bY0hdW2NIXTM=

> <s_epik_cmdline>
J2VwaWtfcHl0aG9uJywgJy1waCcsICc3LjAnLCAnLXRuJywgJzgnLCAnLW1hJywgJzIwMCcsICctbWV0YWxfYmluZGluZycsICctaW1hZScsICc8aW5maWxlLm1hZT4nLCAnLW9tYWUnLCAnPG91dGZpbGUubWFlPic=

> <r_lp_tautomer_probability>
1

> <r_epik_Ionization_Penalty>
1.14644

> <r_epik_Ionization_Penalty_Charging>
1.14644

> <r_epik_Ionization_Penalty_Neutral>
5.5802e-08

> <r_epik_State_Penalty>
1.20743

> <r_epik_Charging_Adjusted_Penalty>
2.35387

> <i_epik_Tot_Q>
1

> <i_epik_Tot_abs_Q>
1

> <r_epik_Metal_State_Penalty>
1.28856

> <b_epik_Metal_Only>
0

> <s_lp_Force_Field>
OPLS_2005

> <r_lp_Energy>
17.243

> <b_lp_Chiralities_Consistent>
1

> <s_lp_Variant>
AV-unprocessed.smi:2953-4

> <Gold.Version>
5.8.1

> <Gold.Id.Protein>
6NUR|6NUR_protein|mol2

> <Gold.PLP.Fitness>
49.4817

> <Gold.PLP.PLP>
-41.4385

> <Gold.PLP.part.hbond>
-2.0000

> <Gold.PLP.part.metal>
0.0000

> <Gold.PLP.part.buried>
-5.5553

> <Gold.PLP.part.nonpolar>
-35.0317

> <Gold.PLP.part.repulsive>
0.3420

> <Gold.PLP.ligand.clash>
0.0000

> <Gold.PLP.ligand.torsion>
0.5346

> <Gold.PLP.Chemscore.Hbond>
3.0000

> <Gold.PLP.Chemscore.CHOScore>
0.0000

> <Gold.PLP.Chemscore.Metal>
0.0000

> <Gold.Chemscore.Hbonds>
donor molecule, donor type, donor heavy atom, donor atom, acceptor molecule, acceptor atom, score
      L1  H    15    40       P1  8028  1.00
      L1  H    18    46       P1  8028  2.00

> <Gold.PLP.Chemscore.Internal.Correction>
0.1123

> <Gold.Rescore>
     Score         DG    S(hbond)    S(metal)    S(lipo)     H(rot)  DE(clash)    DE(int)     intcor
     17.87     -18.43       2.00        0.00     104.48       2.32       0.00       0.56       ----

> <Gold.Chemscore.Fitness>
17.8684

> <Gold.Chemscore.DG>
-18.4291

> <Gold.Chemscore.ZeroCoef>
-5.4800

> <Gold.Chemscore.Hbond>
1.9971

> <Gold.Chemscore.Metal>
0.0000

> <Gold.Chemscore.Lipo>
104.4774

> <Gold.Chemscore.Internal_Hbond>
0.0000

> <Gold.Chemscore.DEClash>
0.0024

> <Gold.Chemscore.DEInternal>
0.5583

> <Gold.Chemscore.Rot>
2.3223

> <Gold.Chemscore.Internal.Correction>
   9.000000E+99

> <Gold.Chemscore.Hbonds>
donor molecule, donor type, donor heavy atom, donor atom, acceptor molecule, acceptor atom, score
      L1  H    15    40       P1  8028  0.99
      L1  H    18    46       P1  8028  1.00

> <Gold.Chemscore.Hbond.Weighted>
-6.6702

> <Gold.Chemscore.Metal.Weighted>
-0.0000

> <Gold.Chemscore.Lipo.Weighted>
-12.2239

> <Gold.Chemscore.Internal_Hbond.Weighted>
0.0000

> <Gold.Chemscore.DEClash.Weighted>
0.0024

> <Gold.Chemscore.DEInternal.Weighted>
0.5583

> <Gold.Chemscore.Rot.Weighted>
5.9450

> <Gold.Chemscore.Internal.Correction.Weighted>
   9.000000E+99

> <Gold.Protein.RotatedTorsions>
[ 6907 6896 6895 6894 ] final  169.53 input  -60.11 | X-H torsion
[ 7974 7965 7964 7962 ] final  106.11 input  175.53 | X-H torsion
[ 8008 7997 7996 7995 ] final  -74.23 input   59.86 | X-H torsion
[ 10167 10162 10161 10158 ] final  152.95 input  -65.29 | X-H torsion
[ 10718 10713 10712 10709 ] final   -7.39 input   66.30 | X-H torsion
[ 10763 10752 10751 10750 ] final   -4.13 input  -60.55 | X-H torsion
[ 11005 11000 10999 10996 ] final -132.42 input  -57.11 | X-H torsion

> <Gold.Protein.ActiveResidues>
 VAL166  LYS551  ARG553  GLY616  TRP617  ASP618  TYR619  PRO620  LYS621  CYS622 
 ASP623  PHE694  ASN695  SER759  ASP760  ASP761  ALA762  ILE779  LEU786  VAL792 
 PHE793  MET794  SER795  GLU796  ALA797  LYS798  CYS799  TRP800  GLU811  SER814 

> <Gold.Protein.RotatedAtoms>
  151.8305  133.3408  159.3611 H   0  0  0  0  0  0  0  0  0  0  0  0  # atno 6907 bound_to 6896
  150.7266  134.5487  159.5793 H   0  0  0  0  0  0  0  0  0  0  0  0  # atno 6908 bound_to 6896
  152.2939  134.7690  160.0423 H   0  0  0  0  0  0  0  0  0  0  0  0  # atno 6909 bound_to 6896
  145.3109  139.2540  143.3763 H   0  0  0  0  0  0  0  0  0  0  0  0  # atno 7974 bound_to 7965
  154.5313  140.0765  156.8350 H   0  0  0  0  0  0  0  0  0  0  0  0  # atno 8008 bound_to 7997
  155.3369  140.3405  155.4221 H   0  0  0  0  0  0  0  0  0  0  0  0  # atno 8009 bound_to 7997
  156.1784  140.1643  156.8307 H   0  0  0  0  0  0  0  0  0  0  0  0  # atno 8010 bound_to 7997
  139.4830  144.5315  151.7715 H   0  0  0  0  0  0  0  0  0  0  0  0  # atno 10167 bound_to 10162
  156.7180  130.5142  149.5875 H   0  0  0  0  0  0  0  0  0  0  0  0  # atno 10718 bound_to 10713
  153.3807  135.6998  153.6568 H   0  0  0  0  0  0  0  0  0  0  0  0  # atno 10763 bound_to 10752
  153.5180  135.3618  155.2619 H   0  0  0  0  0  0  0  0  0  0  0  0  # atno 10764 bound_to 10752
  154.8692  135.4151  154.3104 H   0  0  0  0  0  0  0  0  0  0  0  0  # atno 10765 bound_to 10752
  140.9171  134.1492  157.4343 H   0  0  0  0  0  0  0  0  0  0  0  0  # atno 11005 bound_to 11000
  146.3118  140.3645  142.8668 LP  0  0  0  0  0  0  0  0  0  0  0  0  # atno 17320 bound_to 7965
  144.9016  140.7650  143.5863 LP  0  0  0  0  0  0  0  0  0  0  0  0  # atno 17321 bound_to 7965
  140.4841  144.1406  150.5938 LP  0  0  0  0  0  0  0  0  0  0  0  0  # atno 17342 bound_to 10162
  140.4244  143.2596  151.9674 LP  0  0  0  0  0  0  0  0  0  0  0  0  # atno 17343 bound_to 10162
  156.1614  130.6377  151.0724 LP  0  0  0  0  0  0  0  0  0  0  0  0  # atno 17370 bound_to 10713
  157.6909  131.0810  150.7109 LP  0  0  0  0  0  0  0  0  0  0  0  0  # atno 17371 bound_to 10713
  139.8768  134.9958  156.5760 LP  0  0  0  0  0  0  0  0  0  0  0  0  # atno 17394 bound_to 11000
  140.8035  133.8486  155.8747 LP  0  0  0  0  0  0  0  0  0  0  0  0  # atno 17395 bound_to 11000

$$$$
