AV-unprocessed.smi:72|AV-procd|sdf|703|dock7
  -GOLD-   2262017 23D 1   1.00000     0.00000
 Structure written by MMmdl.
 30 31  0  0  0  0  0  0  0  0  2 V2000
  142.1021  138.5451  153.8541 N   0  0  0  0  0  0  0  0  0  0  0  0
  142.8414  137.5658  153.2235 C   0  0  0  0  0  0  0  0  0  0  0  0
  143.9330  137.9659  152.4750 N   0  3  0  0  0  0  0  0  0  0  0  0
  144.7353  137.1431  151.7867 C   0  0  0  0  0  0  0  0  0  0  0  0
  144.4680  135.8536  151.7636 N   0  0  0  0  0  0  0  0  0  0  0  0
  145.3857  134.9148  151.0195 C   0  0  2  0  0  0  0  0  0  0  0  0
  144.5735  134.0113  150.3420 O   0  0  0  0  0  0  0  0  0  0  0  0
  145.1720  132.7235  150.3853 C   0  0  2  0  0  0  0  0  0  0  0  0
  144.1026  131.6395  150.1782 C   0  0  0  0  0  0  0  0  0  0  0  0
  143.1053  132.1087  149.2966 O   0  0  0  0  0  0  0  0  0  0  0  0
  145.8194  132.6910  151.7744 C   0  0  1  0  0  0  0  0  0  0  0  0
  146.8920  131.7708  151.7964 O   0  0  0  0  0  0  0  0  0  0  0  0
  146.3279  134.1176  151.9465 C   0  0  2  0  0  0  0  0  0  0  0  0
  146.3048  134.5222  153.3040 O   0  0  0  0  0  0  0  0  0  0  0  0
  143.4234  135.3392  152.5757 C   0  0  0  0  0  0  0  0  0  0  0  0
  143.2199  134.1288  152.6539 O   0  0  0  0  0  0  0  0  0  0  0  0
  142.6364  136.2783  153.2589 N   0  0  0  0  0  0  0  0  0  0  0  0
  145.9588  135.5020  150.3024 H   0  0  0  0  0  0  0  0  0  0  0  0
  145.9460  132.6676  149.6162 H   0  0  0  0  0  0  0  0  0  0  0  0
  145.0796  132.4396  152.5361 H   0  0  0  0  0  0  0  0  0  0  0  0
  147.3411  134.2184  151.5537 H   0  0  0  0  0  0  0  0  0  0  0  0
  141.2954  138.3448  154.4288 H   0  0  0  0  0  0  0  0  0  0  0  0
  142.3031  139.5328  153.7917 H   0  0  0  0  0  0  0  0  0  0  0  0
  145.6015  137.5437  151.2753 H   0  0  0  0  0  0  0  0  0  0  0  0
  144.5482  130.7540  149.7241 H   0  0  0  0  0  0  0  0  0  0  0  0
  143.6600  131.3305  151.1256 H   0  0  0  0  0  0  0  0  0  0  0  0
  142.3252  131.5894  149.4194 H   0  0  0  0  0  0  0  0  0  0  0  0
  147.5091  132.0094  151.1215 H   0  0  0  0  0  0  0  0  0  0  0  0
  145.4043  134.6261  153.5727 H   0  0  0  0  0  0  0  0  0  0  0  0
  144.1422  138.9538  152.4532 H   0  0  0  0  0  0  0  0  0  0  0  0
  1  2  1  0  0  0  0
  1 22  1  0  0  0  0
  1 23  1  0  0  0  0
  2 17  2  0  0  0  0
  2  3  1  0  0  0  0
  3  4  2  0  0  0  0
  3 30  1  0  0  0  0
  4  5  1  0  0  0  0
  4 24  1  0  0  0  0
  5  6  1  0  0  0  0
  5 15  1  0  0  0  0
  6 18  1  0  0  0  0
  6 13  1  0  0  0  0
  6  7  1  0  0  0  0
  7  8  1  0  0  0  0
  8 19  1  0  0  0  0
  8  9  1  0  0  0  0
  8 11  1  0  0  0  0
  9 10  1  0  0  0  0
  9 25  1  0  0  0  0
  9 26  1  0  0  0  0
 10 27  1  0  0  0  0
 11 20  1  0  0  0  0
 11 12  1  0  0  0  0
 11 13  1  0  0  0  0
 12 28  1  0  0  0  0
 13 21  1  0  0  0  0
 13 14  1  0  0  0  0
 14 29  1  0  0  0  0
 15 16  2  0  0  0  0
 15 17  1  0  0  0  0
M  CHG  1   3   1
M  END
> <s_m_source_file>
AV-unprocessed.smi

> <i_m_source_file_index>
72

> <i_lp_mmshare_version>
43012

> <i_f3d_flags>
0

> <s_epik_input>
W05IMl1jMW5bY0hdbihjKD1PKW4xKVtDQEBIXTJPW0NASF0oW0NIMl1bT0hdKVtDQEBIXShbT0hdKVtDQEhdMltPSF0=

> <s_epik_cmdline>
J2VwaWtfcHl0aG9uJywgJy1waCcsICc3LjAnLCAnLXRuJywgJzgnLCAnLW1hJywgJzIwMCcsICctbWV0YWxfYmluZGluZycsICctaW1hZScsICc8aW5maWxlLm1hZT4nLCAnLW9tYWUnLCAnPG91dGZpbGUubWFlPic=

> <r_lp_tautomer_probability>
4.77166e-05

> <r_epik_Ionization_Penalty>
0.104979

> <r_epik_Ionization_Penalty_Charging>
0.0999619

> <r_epik_Ionization_Penalty_Neutral>
0.00501745

> <r_epik_State_Penalty>
2.51541

> <r_epik_Charging_Adjusted_Penalty>
2.61537

> <i_epik_Tot_Q>
1

> <i_epik_Tot_abs_Q>
1

> <r_epik_Metal_State_Penalty>
3.53763

> <b_epik_Metal_Only>
0

> <s_epik_Chemistry_Notes>
This compound contains an acetal/aminal-like group ( X-CH(R)-Y where X, Y are N, S, or O) that may be acid/base labile, releasing an aldehyde.

> <s_lp_Force_Field>
OPLS_2005

> <r_lp_Energy>
34.5598

> <b_lp_Chiralities_Consistent>
1

> <s_lp_Variant>
AV-unprocessed.smi:72-41

> <Gold.Version>
5.8.1

> <Gold.Id.Protein>
6NUR|6NUR_protein|mol2

> <Gold.PLP.Fitness>
36.5970

> <Gold.PLP.PLP>
-25.2148

> <Gold.PLP.part.hbond>
-6.5209

> <Gold.PLP.part.metal>
0.0000

> <Gold.PLP.part.buried>
-0.7517

> <Gold.PLP.part.nonpolar>
-19.0580

> <Gold.PLP.part.repulsive>
0.5520

> <Gold.PLP.ligand.clash>
0.0000

> <Gold.PLP.ligand.torsion>
0.6782

> <Gold.PLP.Chemscore.Hbond>
4.1470

> <Gold.PLP.Chemscore.CHOScore>
0.0568

> <Gold.PLP.Chemscore.Metal>
0.0000

> <Gold.Chemscore.Hbonds>
donor molecule, donor type, donor heavy atom, donor atom, acceptor molecule, acceptor atom, score
      L1  H     1    23       P1 10175  0.51
      L1  H     3    30       P1 10175  1.98
      L1  H    10    27       P1 10952  1.00
      L1  H    12    28       P1 10747  0.55
      L1  C     4    24       P1 10171  0.07

> <Gold.PLP.Chemscore.Internal.Correction>
0.1271

> <Gold.Rescore>
     Score         DG    S(hbond)    S(metal)    S(lipo)     H(rot)  DE(clash)    DE(int)     intcor
      6.12      -9.96       3.40        0.00      30.45       4.08       1.67       2.16       ----

> <Gold.Chemscore.Fitness>
6.1220

> <Gold.Chemscore.DG>
-9.9601

> <Gold.Chemscore.ZeroCoef>
-5.4800

> <Gold.Chemscore.Hbond>
3.4006

> <Gold.Chemscore.Metal>
0.0000

> <Gold.Chemscore.Lipo>
30.4486

> <Gold.Chemscore.Internal_Hbond>
0.0000

> <Gold.Chemscore.DEClash>
1.6747

> <Gold.Chemscore.DEInternal>
2.1634

> <Gold.Chemscore.Rot>
4.0783

> <Gold.Chemscore.Internal.Correction>
   9.000000E+99

> <Gold.Chemscore.Hbonds>
donor molecule, donor type, donor heavy atom, donor atom, acceptor molecule, acceptor atom, score
      L1  H     1    23       P1 10175  0.50
      L1  H     3    30       P1 10175  0.91
      L1  H    10    27       P1 10952  0.99
      L1  H    12    28       P1 10747  0.52

> <Gold.Chemscore.Hbond.Weighted>
-11.3580

> <Gold.Chemscore.Metal.Weighted>
-0.0000

> <Gold.Chemscore.Lipo.Weighted>
-3.5625

> <Gold.Chemscore.Internal_Hbond.Weighted>
0.0000

> <Gold.Chemscore.DEClash.Weighted>
1.6747

> <Gold.Chemscore.DEInternal.Weighted>
2.1634

> <Gold.Chemscore.Rot.Weighted>
10.4404

> <Gold.Chemscore.Internal.Correction.Weighted>
   9.000000E+99

> <Gold.Protein.RotatedTorsions>
[ 6907 6896 6895 6894 ] final -112.34 input  -60.11 | X-H torsion
[ 7974 7965 7964 7962 ] final -175.25 input  175.53 | X-H torsion
[ 8008 7997 7996 7995 ] final -143.53 input   59.86 | X-H torsion
[ 10167 10162 10161 10158 ] final   48.38 input  -65.29 | X-H torsion
[ 10718 10713 10712 10709 ] final   22.28 input   66.30 | X-H torsion
[ 10763 10752 10751 10750 ] final -132.38 input  -60.55 | X-H torsion
[ 11005 11000 10999 10996 ] final -126.16 input  -57.11 | X-H torsion

> <Gold.Protein.ActiveResidues>
 VAL166  LYS551  ARG553  GLY616  TRP617  ASP618  TYR619  PRO620  LYS621  CYS622 
 ASP623  PHE694  ASN695  SER759  ASP760  ASP761  ALA762  ILE779  LEU786  VAL792 
 PHE793  MET794  SER795  GLU796  ALA797  LYS798  CYS799  TRP800  GLU811  SER814 

> <Gold.Protein.RotatedAtoms>
  150.7752  133.9104  159.3367 H   0  0  0  0  0  0  0  0  0  0  0  0  # atno 6907 bound_to 6896
  151.6980  135.0933  160.0255 H   0  0  0  0  0  0  0  0  0  0  0  0  # atno 6908 bound_to 6896
  152.3785  133.6475  159.6178 H   0  0  0  0  0  0  0  0  0  0  0  0  # atno 6909 bound_to 6896
  144.7129  140.1349  143.6396 H   0  0  0  0  0  0  0  0  0  0  0  0  # atno 7974 bound_to 7965
  155.5121  140.0584  157.2921 H   0  0  0  0  0  0  0  0  0  0  0  0  # atno 8008 bound_to 7997
  154.4548  140.1967  156.0360 H   0  0  0  0  0  0  0  0  0  0  0  0  # atno 8009 bound_to 7997
  156.0777  140.3251  155.7658 H   0  0  0  0  0  0  0  0  0  0  0  0  # atno 8010 bound_to 7997
  140.2939  144.3013  150.6234 H   0  0  0  0  0  0  0  0  0  0  0  0  # atno 10167 bound_to 10162
  157.1501  130.6671  149.6009 H   0  0  0  0  0  0  0  0  0  0  0  0  # atno 10718 bound_to 10713
  154.8743  135.3800  154.4399 H   0  0  0  0  0  0  0  0  0  0  0  0  # atno 10763 bound_to 10752
  153.5085  135.7030  153.5798 H   0  0  0  0  0  0  0  0  0  0  0  0  # atno 10764 bound_to 10752
  153.4098  135.3927  155.2009 H   0  0  0  0  0  0  0  0  0  0  0  0  # atno 10765 bound_to 10752
  140.9704  134.0814  157.3876 H   0  0  0  0  0  0  0  0  0  0  0  0  # atno 11005 bound_to 11000
  145.9254  139.2572  143.1357 LP  0  0  0  0  0  0  0  0  0  0  0  0  # atno 17320 bound_to 7965
  145.9577  140.8859  143.0226 LP  0  0  0  0  0  0  0  0  0  0  0  0  # atno 17321 bound_to 7965
  140.5709  143.2181  151.7601 LP  0  0  0  0  0  0  0  0  0  0  0  0  # atno 17342 bound_to 10162
  139.4931  144.4218  151.9969 LP  0  0  0  0  0  0  0  0  0  0  0  0  # atno 17343 bound_to 10162
  155.9772  130.4747  150.6578 LP  0  0  0  0  0  0  0  0  0  0  0  0  # atno 17370 bound_to 10713
  157.4228  131.0839  151.1114 LP  0  0  0  0  0  0  0  0  0  0  0  0  # atno 17371 bound_to 10713
  139.8910  135.0115  156.6767 LP  0  0  0  0  0  0  0  0  0  0  0  0  # atno 17394 bound_to 11000
  140.7337  133.9036  155.8229 LP  0  0  0  0  0  0  0  0  0  0  0  0  # atno 17395 bound_to 11000

$$$$
