AV-unprocessed.smi:634|AV-procd|sdf|3137|dock6
  -GOLD-   22720 0 63D 1   1.00000     0.00000
 Structure written by MMmdl.
 32 33  0  0  0  0  0  0  0  0  2 V2000
  143.3014  135.5524  162.8342 C   0  0  0  0  0  0  0  0  0  0  0  0
  144.6899  135.2227  162.4056 C   0  0  0  0  0  0  0  0  0  0  0  0
  145.5791  135.8432  161.5740 C   0  0  0  0  0  0  0  0  0  0  0  0
  146.7107  134.9854  161.6157 C   0  0  0  0  0  0  0  0  0  0  0  0
  147.8748  135.2861  160.8606 N   0  0  0  0  0  0  0  0  0  0  0  0
  148.2040  136.4331  160.2399 C   0  0  0  0  0  0  0  0  0  0  0  0
  147.4320  137.3975  160.2577 O   0  0  0  0  0  0  0  0  0  0  0  0
  149.4259  136.3605  159.6406 N   0  5  0  0  0  0  0  0  0  0  0  0
  150.0004  137.2801  158.6410 C   0  0  1  0  0  0  0  0  0  0  0  0
  150.2246  136.4526  157.3580 C   0  0  0  0  0  0  0  0  0  0  0  0
  149.0506  138.4691  158.3309 C   0  0  0  0  0  0  0  0  0  0  0  0
  149.8285  139.5618  157.5799 C   0  0  0  0  0  0  0  0  0  0  0  0
  151.5619  139.4474  158.1706 S   0  0  0  0  0  0  0  0  0  0  0  0
  152.4446  139.2104  157.0173 O   0  0  0  0  0  0  0  0  0  0  0  0
  151.8344  140.5456  159.1111 O   0  0  0  0  0  0  0  0  0  0  0  0
  151.3427  137.8860  159.1139 C   0  0  0  0  0  0  0  0  0  0  0  0
  146.5279  133.9371  162.4054 N   0  0  0  0  0  0  0  0  0  0  0  0
  145.2324  134.0838  162.9152 O   0  0  0  0  0  0  0  0  0  0  0  0
  142.8761  136.3366  162.2076 H   0  0  0  0  0  0  0  0  0  0  0  0
  143.2895  135.8996  163.8673 H   0  0  0  0  0  0  0  0  0  0  0  0
  142.6561  134.6767  162.7630 H   0  0  0  0  0  0  0  0  0  0  0  0
  145.4402  136.7615  161.0229 H   0  0  0  0  0  0  0  0  0  0  0  0
  148.5552  134.5438  160.7927 H   0  0  0  0  0  0  0  0  0  0  0  0
  150.6672  137.0468  156.5588 H   0  0  0  0  0  0  0  0  0  0  0  0
  149.2864  136.0460  156.9781 H   0  0  0  0  0  0  0  0  0  0  0  0
  150.8942  135.6110  157.5408 H   0  0  0  0  0  0  0  0  0  0  0  0
  148.1682  138.1545  157.7724 H   0  0  0  0  0  0  0  0  0  0  0  0
  148.6834  138.9133  159.2557 H   0  0  0  0  0  0  0  0  0  0  0  0
  149.8217  139.3881  156.5033 H   0  0  0  0  0  0  0  0  0  0  0  0
  149.4349  140.5605  157.7691 H   0  0  0  0  0  0  0  0  0  0  0  0
  151.3284  138.1556  160.1694 H   0  0  0  0  0  0  0  0  0  0  0  0
  152.1953  137.2268  158.9500 H   0  0  0  0  0  0  0  0  0  0  0  0
  1  2  1  0  0  0  0
  1 19  1  0  0  0  0
  1 20  1  0  0  0  0
  1 21  1  0  0  0  0
  2 18  1  0  0  0  0
  2  3  2  0  0  0  0
  3  4  1  0  0  0  0
  3 22  1  0  0  0  0
  4  5  1  0  0  0  0
  4 17  2  0  0  0  0
  5  6  1  0  0  0  0
  5 23  1  0  0  0  0
  6  7  2  0  0  0  0
  6  8  1  0  0  0  0
  8  9  1  0  0  0  0
  9 16  1  0  0  0  0
  9 10  1  0  0  0  0
  9 11  1  0  0  0  0
 10 24  1  0  0  0  0
 10 25  1  0  0  0  0
 10 26  1  0  0  0  0
 11 12  1  0  0  0  0
 11 27  1  0  0  0  0
 11 28  1  0  0  0  0
 12 13  1  0  0  0  0
 12 29  1  0  0  0  0
 12 30  1  0  0  0  0
 13 14  2  0  0  0  0
 13 15  2  0  0  0  0
 13 16  1  0  0  0  0
 16 31  1  0  0  0  0
 16 32  1  0  0  0  0
 17 18  1  0  0  0  0
M  CHG  1   8  -1
M  END
> <s_m_source_file>
AV-unprocessed.smi

> <i_m_source_file_index>
634

> <i_lp_mmshare_version>
43012

> <i_f3d_flags>
0

> <s_epik_input>
W0NIM11jMVtjSF1jKG5vMSlbTkhdQyg9TylbTkhdW0NAQF0yKFtDSDNdKVtDSDJdW0NIMl1TKD1PKSg9TylbQ0gyXTI=

> <s_epik_cmdline>
J2VwaWtfcHl0aG9uJywgJy1waCcsICc3LjAnLCAnLXRuJywgJzgnLCAnLW1hJywgJzIwMCcsICctbWV0YWxfYmluZGluZycsICctaW1hZScsICc8aW5maWxlLm1hZT4nLCAnLW9tYWUnLCAnPG91dGZpbGUubWFlPic=

> <r_lp_tautomer_probability>
1

> <r_epik_Ionization_Penalty>
6.62388

> <r_epik_Ionization_Penalty_Charging>
6.62387

> <r_epik_Ionization_Penalty_Neutral>
5.45748e-06

> <r_epik_State_Penalty>
6.65157

> <r_epik_Charging_Adjusted_Penalty>
13.2754

> <i_epik_Tot_Q>
-1

> <i_epik_Tot_abs_Q>
1

> <r_epik_Metal_State_Penalty>
2.59195

> <b_epik_Metal_Only>
1

> <s_lp_Force_Field>
OPLS_2005

> <r_lp_Energy>
8.12985

> <b_lp_Chiralities_Consistent>
1

> <s_lp_Variant>
AV-unprocessed.smi:634-5

> <Gold.Version>
5.8.1

> <Gold.Id.Protein>
6NUR|6NUR_protein|mol2

> <Gold.PLP.Fitness>
35.5023

> <Gold.PLP.PLP>
-24.7615

> <Gold.PLP.part.hbond>
-4.3866

> <Gold.PLP.part.metal>
0.0000

> <Gold.PLP.part.buried>
-6.4131

> <Gold.PLP.part.nonpolar>
-14.9202

> <Gold.PLP.part.repulsive>
0.1666

> <Gold.PLP.ligand.clash>
0.5408

> <Gold.PLP.ligand.torsion>
0.0931

> <Gold.PLP.Chemscore.Hbond>
3.8210

> <Gold.PLP.Chemscore.CHOScore>
0.0000

> <Gold.PLP.Chemscore.Metal>
0.0000

> <Gold.Chemscore.Hbonds>
donor molecule, donor type, donor heavy atom, donor atom, acceptor molecule, acceptor atom, score
      P1  H  6896  6907       L1     8  1.89
      P1  H  6934  6947       L1     7  1.00
      P1  H  7997  8010       L1    14  0.70

> <Gold.PLP.Chemscore.Internal.Correction>
0.0048

> <Gold.Rescore>
     Score         DG    S(hbond)    S(metal)    S(lipo)     H(rot)  DE(clash)    DE(int)     intcor
     14.89     -17.90       3.11        0.00      39.23       1.00       0.00       3.00       ----

> <Gold.Chemscore.Fitness>
14.8945

> <Gold.Chemscore.DG>
-17.8951

> <Gold.Chemscore.ZeroCoef>
-5.4800

> <Gold.Chemscore.Hbond>
3.1095

> <Gold.Chemscore.Metal>
0.0000

> <Gold.Chemscore.Lipo>
39.2257

> <Gold.Chemscore.Internal_Hbond>
0.0000

> <Gold.Chemscore.DEClash>
0.0033

> <Gold.Chemscore.DEInternal>
2.9973

> <Gold.Chemscore.Rot>
1.0000

> <Gold.Chemscore.Internal.Correction>
   9.000000E+99

> <Gold.Chemscore.Hbonds>
donor molecule, donor type, donor heavy atom, donor atom, acceptor molecule, acceptor atom, score
      P1  H  6896  6907       L1     8  0.27
      P1  H  6934  6947       L1     7  0.94
      P1  H  7997  8010       L1    14  0.69

> <Gold.Chemscore.Hbond.Weighted>
-10.3857

> <Gold.Chemscore.Metal.Weighted>
-0.0000

> <Gold.Chemscore.Lipo.Weighted>
-4.5894

> <Gold.Chemscore.Internal_Hbond.Weighted>
0.0000

> <Gold.Chemscore.DEClash.Weighted>
0.0033

> <Gold.Chemscore.DEInternal.Weighted>
2.9973

> <Gold.Chemscore.Rot.Weighted>
2.5600

> <Gold.Chemscore.Internal.Correction.Weighted>
   9.000000E+99

> <Gold.Protein.RotatedTorsions>
[ 6907 6896 6895 6894 ] final  -41.54 input  -60.11 | X-H torsion
[ 7974 7965 7964 7962 ] final   43.41 input  175.53 | X-H torsion
[ 8008 7997 7996 7995 ] final   63.79 input   59.86 | X-H torsion
[ 10167 10162 10161 10158 ] final   83.81 input  -65.29 | X-H torsion
[ 10718 10713 10712 10709 ] final   71.17 input   66.30 | X-H torsion
[ 10763 10752 10751 10750 ] final   37.15 input  -60.55 | X-H torsion
[ 11005 11000 10999 10996 ] final -128.35 input  -57.11 | X-H torsion

> <Gold.Protein.ActiveResidues>
 VAL166  LYS551  ARG553  GLY616  TRP617  ASP618  TYR619  PRO620  LYS621  CYS622 
 ASP623  PHE694  ASN695  SER759  ASP760  ASP761  ALA762  ILE779  LEU786  VAL792 
 PHE793  MET794  SER795  GLU796  ALA797  LYS798  CYS799  TRP800  GLU811  SER814 

> <Gold.Protein.RotatedAtoms>
  150.9655  134.9037  159.7756 H   0  0  0  0  0  0  0  0  0  0  0  0  # atno 6907 bound_to 6896
  152.5172  134.3613  159.9295 H   0  0  0  0  0  0  0  0  0  0  0  0  # atno 6908 bound_to 6896
  151.3624  133.3844  159.2725 H   0  0  0  0  0  0  0  0  0  0  0  0  # atno 6909 bound_to 6896
  146.0658  139.5190  142.9629 H   0  0  0  0  0  0  0  0  0  0  0  0  # atno 7974 bound_to 7965
  155.6358  140.3496  155.4698 H   0  0  0  0  0  0  0  0  0  0  0  0  # atno 8008 bound_to 7997
  155.9966  140.1204  157.0611 H   0  0  0  0  0  0  0  0  0  0  0  0  # atno 8009 bound_to 7997
  154.4235  140.1109  156.5625 H   0  0  0  0  0  0  0  0  0  0  0  0  # atno 8010 bound_to 7997
  139.9145  144.6251  150.8503 H   0  0  0  0  0  0  0  0  0  0  0  0  # atno 10167 bound_to 10162
  157.6438  130.9515  150.0752 H   0  0  0  0  0  0  0  0  0  0  0  0  # atno 10718 bound_to 10713
  153.0049  135.6286  154.2099 H   0  0  0  0  0  0  0  0  0  0  0  0  # atno 10763 bound_to 10752
  154.1842  135.2812  155.3044 H   0  0  0  0  0  0  0  0  0  0  0  0  # atno 10764 bound_to 10752
  154.5811  135.5647  153.7245 H   0  0  0  0  0  0  0  0  0  0  0  0  # atno 10765 bound_to 10752
  140.9523  134.1049  157.4050 H   0  0  0  0  0  0  0  0  0  0  0  0  # atno 11005 bound_to 11000
  145.6480  141.0269  143.1776 LP  0  0  0  0  0  0  0  0  0  0  0  0  # atno 17320 bound_to 7965
  144.7201  139.8058  143.7385 LP  0  0  0  0  0  0  0  0  0  0  0  0  # atno 17321 bound_to 7965
  140.7677  143.3341  151.2346 LP  0  0  0  0  0  0  0  0  0  0  0  0  # atno 17342 bound_to 10162
  139.6914  143.9686  152.2861 LP  0  0  0  0  0  0  0  0  0  0  0  0  # atno 17343 bound_to 10162
  156.1745  130.3647  149.9120 LP  0  0  0  0  0  0  0  0  0  0  0  0  # atno 17370 bound_to 10713
  156.7087  130.8961  151.3607 LP  0  0  0  0  0  0  0  0  0  0  0  0  # atno 17371 bound_to 10713
  139.8851  135.0069  156.6414 LP  0  0  0  0  0  0  0  0  0  0  0  0  # atno 17394 bound_to 11000
  140.7585  133.8837  155.8400 LP  0  0  0  0  0  0  0  0  0  0  0  0  # atno 17395 bound_to 11000

$$$$
