AV-unprocessed.smi:671|AV-procd|sdf|3286|dock6
  -GOLD-   22720 0243D 1   1.00000     0.00000
 Structure written by MMmdl.
 50 51  0  0  0  0  0  0  0  0  2 V2000
  149.3291  140.9590  154.6475 C   0  0  0  0  0  0  0  0  0  0  0  0
  150.0914  141.3754  155.8606 C   0  0  0  0  0  0  0  0  0  0  0  0
  149.9556  142.5828  156.4715 N   0  3  0  0  0  0  0  0  0  0  0  0
  150.7716  142.6600  157.5318 N   0  0  0  0  0  0  0  0  0  0  0  0
  150.7848  143.8821  158.3358 C   0  0  0  0  0  0  0  0  0  0  0  0
  151.4841  141.5057  157.6628 C   0  0  0  0  0  0  0  0  0  0  0  0
  152.4922  141.2522  158.7354 C   0  0  0  0  0  0  0  0  0  0  0  0
  151.0605  140.6913  156.6053 C   0  0  0  0  0  0  0  0  0  0  0  0
  151.5719  139.3060  156.3133 C   0  0  0  0  0  0  0  0  0  0  0  0
  151.7030  139.0096  154.8052 C   0  0  1  0  0  0  0  0  0  0  0  0
  153.1630  138.7772  154.3938 C   0  0  0  0  0  0  0  0  0  0  0  0
  150.9032  137.8326  154.4485 N   0  0  0  0  0  0  0  0  0  0  0  0
  150.9152  136.5993  154.9857 C   0  0  0  0  0  0  0  0  0  0  0  0
  151.6817  136.3059  155.9007 O   0  0  0  0  0  0  0  0  0  0  0  0
  150.0533  135.7310  154.4311 N   0  0  0  0  0  0  0  0  0  0  0  0
  149.8671  134.3345  154.8275 C   0  0  2  0  0  0  0  0  0  0  0  0
  150.0388  133.4093  153.6049 C   0  0  0  0  0  0  0  0  0  0  0  0
  148.7218  132.6419  153.4445 C   0  0  0  0  0  0  0  0  0  0  0  0
  147.6806  133.4841  154.1758 C   0  0  0  0  0  0  0  0  0  0  0  0
  148.4459  134.0547  155.3705 C   0  0  2  0  0  0  0  0  0  0  0  0
  147.7239  135.2232  156.0622 C   0  0  0  0  0  0  0  0  0  0  0  0
  149.9985  140.8768  153.7912 H   0  0  0  0  0  0  0  0  0  0  0  0
  148.5543  141.6888  154.4115 H   0  0  0  0  0  0  0  0  0  0  0  0
  148.8535  139.9924  154.8141 H   0  0  0  0  0  0  0  0  0  0  0  0
  151.7755  144.3339  158.2801 H   0  0  0  0  0  0  0  0  0  0  0  0
  150.5572  143.6287  159.3715 H   0  0  0  0  0  0  0  0  0  0  0  0
  150.0420  144.5891  157.9634 H   0  0  0  0  0  0  0  0  0  0  0  0
  153.1483  140.4260  158.4634 H   0  0  0  0  0  0  0  0  0  0  0  0
  151.9897  141.0040  159.6700 H   0  0  0  0  0  0  0  0  0  0  0  0
  153.1082  142.1375  158.8948 H   0  0  0  0  0  0  0  0  0  0  0  0
  152.5415  139.1650  156.7923 H   0  0  0  0  0  0  0  0  0  0  0  0
  150.9164  138.5640  156.7709 H   0  0  0  0  0  0  0  0  0  0  0  0
  151.3557  139.8954  154.2732 H   0  0  0  0  0  0  0  0  0  0  0  0
  153.7806  139.6436  154.6324 H   0  0  0  0  0  0  0  0  0  0  0  0
  153.2446  138.6015  153.3205 H   0  0  0  0  0  0  0  0  0  0  0  0
  153.5888  137.9138  154.9063 H   0  0  0  0  0  0  0  0  0  0  0  0
  150.3371  137.9390  153.6191 H   0  0  0  0  0  0  0  0  0  0  0  0
  149.4782  136.0619  153.6703 H   0  0  0  0  0  0  0  0  0  0  0  0
  150.6002  134.0618  155.5888 H   0  0  0  0  0  0  0  0  0  0  0  0
  150.2414  133.9849  152.7000 H   0  0  0  0  0  0  0  0  0  0  0  0
  150.8765  132.7231  153.7365 H   0  0  0  0  0  0  0  0  0  0  0  0
  148.4618  132.4697  152.3995 H   0  0  0  0  0  0  0  0  0  0  0  0
  148.8060  131.6677  153.9285 H   0  0  0  0  0  0  0  0  0  0  0  0
  147.3378  134.2919  153.5271 H   0  0  0  0  0  0  0  0  0  0  0  0
  146.8086  132.9015  154.4747 H   0  0  0  0  0  0  0  0  0  0  0  0
  148.5390  133.2510  156.1030 H   0  0  0  0  0  0  0  0  0  0  0  0
  147.5238  136.0342  155.3637 H   0  0  0  0  0  0  0  0  0  0  0  0
  148.3179  135.6239  156.8841 H   0  0  0  0  0  0  0  0  0  0  0  0
  146.7664  134.9010  156.4714 H   0  0  0  0  0  0  0  0  0  0  0  0
  149.3501  143.3539  156.2194 H   0  0  0  0  0  0  0  0  0  0  0  0
  1  2  1  0  0  0  0
  1 22  1  0  0  0  0
  1 23  1  0  0  0  0
  1 24  1  0  0  0  0
  2  8  1  0  0  0  0
  2  3  2  0  0  0  0
  3  4  1  0  0  0  0
  3 50  1  0  0  0  0
  4  5  1  0  0  0  0
  4  6  1  0  0  0  0
  5 25  1  0  0  0  0
  5 26  1  0  0  0  0
  5 27  1  0  0  0  0
  6  7  1  0  0  0  0
  6  8  2  0  0  0  0
  7 28  1  0  0  0  0
  7 29  1  0  0  0  0
  7 30  1  0  0  0  0
  8  9  1  0  0  0  0
  9 10  1  0  0  0  0
  9 31  1  0  0  0  0
  9 32  1  0  0  0  0
 10 11  1  0  0  0  0
 10 12  1  0  0  0  0
 10 33  1  0  0  0  0
 11 34  1  0  0  0  0
 11 35  1  0  0  0  0
 11 36  1  0  0  0  0
 12 13  1  0  0  0  0
 12 37  1  0  0  0  0
 13 14  2  0  0  0  0
 13 15  1  0  0  0  0
 15 16  1  0  0  0  0
 15 38  1  0  0  0  0
 16 20  1  0  0  0  0
 16 17  1  0  0  0  0
 16 39  1  0  0  0  0
 17 18  1  0  0  0  0
 17 40  1  0  0  0  0
 17 41  1  0  0  0  0
 18 19  1  0  0  0  0
 18 42  1  0  0  0  0
 18 43  1  0  0  0  0
 19 20  1  0  0  0  0
 19 44  1  0  0  0  0
 19 45  1  0  0  0  0
 20 21  1  0  0  0  0
 20 46  1  0  0  0  0
 21 47  1  0  0  0  0
 21 48  1  0  0  0  0
 21 49  1  0  0  0  0
M  CHG  1   3   1
M  END
> <s_m_source_file>
AV-unprocessed.smi

> <i_m_source_file_index>
671

> <i_lp_mmshare_version>
43012

> <i_f3d_flags>
0

> <s_epik_input>
W0NIM11jMW5uKFtDSDNdKWMoW0NIM10pYzFbQ0gyXVtDQEhdKFtDSDNdKVtOSF1DKD1PKVtOSF1bQ0BASF0yW0NIMl1bQ0gyXVtDSDJdW0NASF0yW0NIM10=

> <s_epik_cmdline>
J2VwaWtfcHl0aG9uJywgJy1waCcsICc3LjAnLCAnLXRuJywgJzgnLCAnLW1hJywgJzIwMCcsICctbWV0YWxfYmluZGluZycsICctaW1hZScsICc8aW5maWxlLm1hZT4nLCAnLW9tYWUnLCAnPG91dGZpbGUubWFlPic=

> <r_lp_tautomer_probability>
1

> <r_epik_Ionization_Penalty>
2.28705

> <r_epik_Ionization_Penalty_Charging>
2.28698

> <r_epik_Ionization_Penalty_Neutral>
6.23157e-05

> <r_epik_State_Penalty>
2.43671

> <r_epik_Charging_Adjusted_Penalty>
4.72369

> <i_epik_Tot_Q>
1

> <i_epik_Tot_abs_Q>
1

> <r_epik_Metal_State_Penalty>
2.44911

> <b_epik_Metal_Only>
0

> <s_lp_Force_Field>
OPLS_2005

> <r_lp_Energy>
35.2288

> <b_lp_Chiralities_Consistent>
1

> <s_lp_Variant>
AV-unprocessed.smi:671-14

> <Gold.Version>
5.8.1

> <Gold.Id.Protein>
6NUR|6NUR_protein|mol2

> <Gold.PLP.Fitness>
48.1272

> <Gold.PLP.PLP>
-38.6310

> <Gold.PLP.part.hbond>
-3.0000

> <Gold.PLP.part.metal>
0.0000

> <Gold.PLP.part.buried>
-5.1346

> <Gold.PLP.part.nonpolar>
-29.2347

> <Gold.PLP.part.repulsive>
0.2466

> <Gold.PLP.ligand.clash>
0.0000

> <Gold.PLP.ligand.torsion>
1.1553

> <Gold.PLP.Chemscore.Hbond>
3.9280

> <Gold.PLP.Chemscore.CHOScore>
0.0000

> <Gold.PLP.Chemscore.Metal>
0.0000

> <Gold.Chemscore.Hbonds>
donor molecule, donor type, donor heavy atom, donor atom, acceptor molecule, acceptor atom, score
      L1  H     3    50       P1  8028  2.00
      L1  H    15    38       P1  7948  1.00
      P1  H 10752 10764       L1    14  1.00

> <Gold.PLP.Chemscore.Internal.Correction>
0.0229

> <Gold.Rescore>
     Score         DG    S(hbond)    S(metal)    S(lipo)     H(rot)  DE(clash)    DE(int)     intcor
     19.78     -21.73       2.61        0.00      97.40       1.51       0.12       1.83       ----

> <Gold.Chemscore.Fitness>
19.7812

> <Gold.Chemscore.DG>
-21.7346

> <Gold.Chemscore.ZeroCoef>
-5.4800

> <Gold.Chemscore.Hbond>
2.6087

> <Gold.Chemscore.Metal>
0.0000

> <Gold.Chemscore.Lipo>
97.4030

> <Gold.Chemscore.Internal_Hbond>
0.0000

> <Gold.Chemscore.DEClash>
0.1240

> <Gold.Chemscore.DEInternal>
1.8293

> <Gold.Chemscore.Rot>
1.5057

> <Gold.Chemscore.Internal.Correction>
   9.000000E+99

> <Gold.Chemscore.Hbonds>
donor molecule, donor type, donor heavy atom, donor atom, acceptor molecule, acceptor atom, score
      L1  H     3    50       P1  8028  0.95
      L1  H    15    38       P1  7948  0.54
      P1  H 10752 10764       L1    14  0.50

> <Gold.Chemscore.Hbond.Weighted>
-8.7131

> <Gold.Chemscore.Metal.Weighted>
-0.0000

> <Gold.Chemscore.Lipo.Weighted>
-11.3962

> <Gold.Chemscore.Internal_Hbond.Weighted>
0.0000

> <Gold.Chemscore.DEClash.Weighted>
0.1240

> <Gold.Chemscore.DEInternal.Weighted>
1.8293

> <Gold.Chemscore.Rot.Weighted>
3.8547

> <Gold.Chemscore.Internal.Correction.Weighted>
   9.000000E+99

> <Gold.Protein.RotatedTorsions>
[ 6907 6896 6895 6894 ] final  -56.67 input  -60.11 | X-H torsion
[ 7974 7965 7964 7962 ] final  -19.42 input  175.53 | X-H torsion
[ 8008 7997 7996 7995 ] final   71.43 input   59.86 | X-H torsion
[ 10167 10162 10161 10158 ] final  -52.62 input  -65.29 | X-H torsion
[ 10718 10713 10712 10709 ] final  111.48 input   66.30 | X-H torsion
[ 10763 10752 10751 10750 ] final  -28.68 input  -60.55 | X-H torsion
[ 11005 11000 10999 10996 ] final  167.03 input  -57.11 | X-H torsion

> <Gold.Protein.ActiveResidues>
 VAL166  LYS551  ARG553  GLY616  TRP617  ASP618  TYR619  PRO620  LYS621  CYS622 
 ASP623  PHE694  ASN695  SER759  ASP760  ASP761  ALA762  ILE779  LEU786  VAL792 
 PHE793  MET794  SER795  GLU796  ALA797  LYS798  CYS799  TRP800  GLU811  SER814 

> <Gold.Protein.RotatedAtoms>
  150.8148  134.7324  159.6720 H   0  0  0  0  0  0  0  0  0  0  0  0  # atno 6907 bound_to 6896
  152.4267  134.5851  159.9968 H   0  0  0  0  0  0  0  0  0  0  0  0  # atno 6908 bound_to 6896
  151.6051  133.3315  159.3091 H   0  0  0  0  0  0  0  0  0  0  0  0  # atno 6909 bound_to 6896
  146.1842  140.4060  142.8483 H   0  0  0  0  0  0  0  0  0  0  0  0  # atno 7974 bound_to 7965
  155.7537  140.3488  155.5163 H   0  0  0  0  0  0  0  0  0  0  0  0  # atno 8008 bound_to 7997
  155.8980  140.1029  157.1391 H   0  0  0  0  0  0  0  0  0  0  0  0  # atno 8009 bound_to 7997
  154.4040  140.1291  156.4387 H   0  0  0  0  0  0  0  0  0  0  0  0  # atno 8010 bound_to 7997
  140.6527  143.2577  151.4675 H   0  0  0  0  0  0  0  0  0  0  0  0  # atno 10167 bound_to 10162
  157.6442  131.0951  150.6754 H   0  0  0  0  0  0  0  0  0  0  0  0  # atno 10718 bound_to 10713
  153.7522  135.6925  153.4943 H   0  0  0  0  0  0  0  0  0  0  0  0  # atno 10763 bound_to 10752
  153.1995  135.4441  155.0248 H   0  0  0  0  0  0  0  0  0  0  0  0  # atno 10764 bound_to 10752
  154.8183  135.3409  154.7042 H   0  0  0  0  0  0  0  0  0  0  0  0  # atno 10765 bound_to 10752
  140.2726  134.7814  157.3689 H   0  0  0  0  0  0  0  0  0  0  0  0  # atno 11005 bound_to 11000
  144.8367  140.6793  143.6256 LP  0  0  0  0  0  0  0  0  0  0  0  0  # atno 17320 bound_to 7965
  145.3988  139.1602  143.4189 LP  0  0  0  0  0  0  0  0  0  0  0  0  # atno 17321 bound_to 7965
  139.5745  144.1851  152.1884 LP  0  0  0  0  0  0  0  0  0  0  0  0  # atno 17342 bound_to 10162
  140.1157  144.5417  150.6895 LP  0  0  0  0  0  0  0  0  0  0  0  0  # atno 17343 bound_to 10162
  156.7074  130.4641  149.5556 LP  0  0  0  0  0  0  0  0  0  0  0  0  # atno 17370 bound_to 10713
  156.1754  130.6464  151.0887 LP  0  0  0  0  0  0  0  0  0  0  0  0  # atno 17371 bound_to 10713
  140.1359  134.5035  155.8069 LP  0  0  0  0  0  0  0  0  0  0  0  0  # atno 17394 bound_to 11000
  141.2175  133.6807  156.7122 LP  0  0  0  0  0  0  0  0  0  0  0  0  # atno 17395 bound_to 11000

$$$$
