AV-unprocessed.smi:318|AV-procd|sdf|2330|dock5
  -GOLD-   2262022233D 1   1.00000     0.00000
 Structure written by MMmdl.
 38 39  0  0  0  0  0  0  0  0  1 V2000
  148.9714  139.6331  156.0842 O   0  0  0  0  0  0  0  0  0  0  0  0
  149.4062  140.7830  156.0037 C   0  0  0  0  0  0  0  0  0  0  0  0
  150.9111  141.0709  156.1102 C   0  0  0  0  0  0  0  0  0  0  0  0
  151.3140  141.6396  157.4082 N   0  0  0  0  0  0  0  0  0  0  0  0
  150.6183  142.7814  157.8445 C   0  0  0  0  0  0  0  0  0  0  0  0
  150.9032  143.3790  159.0092 C   0  0  0  0  0  0  0  0  0  0  0  0
  151.9549  142.8202  159.8231 C   0  0  0  0  0  0  0  0  0  0  0  0
  152.6457  141.7259  159.4277 C   0  0  0  0  0  0  0  0  0  0  0  0
  153.7601  141.1205  160.2784 C   0  0  0  0  0  0  0  0  0  0  0  0
  153.7181  141.6039  161.5207 F   0  0  0  0  0  0  0  0  0  0  0  0
  153.6322  139.7947  160.3427 F   0  0  0  0  0  0  0  0  0  0  0  0
  154.9669  141.3899  159.7781 F   0  0  0  0  0  0  0  0  0  0  0  0
  152.3255  141.0768  158.1398 C   0  0  0  0  0  0  0  0  0  0  0  0
  152.9294  140.0820  157.7346 O   0  0  0  0  0  0  0  0  0  0  0  0
  148.6215  141.8530  155.8055 N   0  0  0  0  0  0  0  0  0  0  0  0
  147.1680  141.8239  155.6710 C   0  0  0  0  0  0  0  0  0  0  0  0
  146.7092  142.7176  154.4991 C   0  0  0  0  0  0  0  0  0  0  0  0
  145.1762  142.7665  154.3943 C   0  0  0  0  0  0  0  0  0  0  0  0
  144.5407  143.2233  155.7165 C   0  0  0  0  0  0  0  0  0  0  0  0
  144.9884  142.3298  156.8836 C   0  0  0  0  0  0  0  0  0  0  0  0
  146.5210  142.2809  156.9923 C   0  0  0  0  0  0  0  0  0  0  0  0
  151.4484  140.1408  155.9193 H   0  0  0  0  0  0  0  0  0  0  0  0
  151.2052  141.7390  155.2985 H   0  0  0  0  0  0  0  0  0  0  0  0
  149.8511  143.1399  157.1736 H   0  0  0  0  0  0  0  0  0  0  0  0
  150.3625  144.2577  159.3287 H   0  0  0  0  0  0  0  0  0  0  0  0
  152.1830  143.2979  160.7640 H   0  0  0  0  0  0  0  0  0  0  0  0
  149.0640  142.7587  155.7470 H   0  0  0  0  0  0  0  0  0  0  0  0
  146.8519  140.7970  155.4768 H   0  0  0  0  0  0  0  0  0  0  0  0
  147.0937  143.7298  154.6338 H   0  0  0  0  0  0  0  0  0  0  0  0
  147.1252  142.3525  153.5594 H   0  0  0  0  0  0  0  0  0  0  0  0
  144.8800  143.4381  153.5882 H   0  0  0  0  0  0  0  0  0  0  0  0
  144.7973  141.7790  154.1283 H   0  0  0  0  0  0  0  0  0  0  0  0
  144.8209  144.2577  155.9190 H   0  0  0  0  0  0  0  0  0  0  0  0
  143.4537  143.2080  155.6319 H   0  0  0  0  0  0  0  0  0  0  0  0
  144.5616  142.6965  157.8175 H   0  0  0  0  0  0  0  0  0  0  0  0
  144.6002  141.3204  156.7411 H   0  0  0  0  0  0  0  0  0  0  0  0
  146.8095  141.6088  157.8016 H   0  0  0  0  0  0  0  0  0  0  0  0
  146.8935  143.2697  157.2639 H   0  0  0  0  0  0  0  0  0  0  0  0
  1  2  2  0  0  0  0
  2  3  1  0  0  0  0
  2 15  1  0  0  0  0
  3  4  1  0  0  0  0
  3 22  1  0  0  0  0
  3 23  1  0  0  0  0
  4 13  1  0  0  0  0
  4  5  1  0  0  0  0
  5  6  2  0  0  0  0
  5 24  1  0  0  0  0
  6  7  1  0  0  0  0
  6 25  1  0  0  0  0
  7  8  2  0  0  0  0
  7 26  1  0  0  0  0
  8  9  1  0  0  0  0
  8 13  1  0  0  0  0
  9 10  1  0  0  0  0
  9 11  1  0  0  0  0
  9 12  1  0  0  0  0
 13 14  2  0  0  0  0
 15 16  1  0  0  0  0
 15 27  1  0  0  0  0
 16 21  1  0  0  0  0
 16 17  1  0  0  0  0
 16 28  1  0  0  0  0
 17 18  1  0  0  0  0
 17 29  1  0  0  0  0
 17 30  1  0  0  0  0
 18 19  1  0  0  0  0
 18 31  1  0  0  0  0
 18 32  1  0  0  0  0
 19 20  1  0  0  0  0
 19 33  1  0  0  0  0
 19 34  1  0  0  0  0
 20 21  1  0  0  0  0
 20 35  1  0  0  0  0
 20 36  1  0  0  0  0
 21 37  1  0  0  0  0
 21 38  1  0  0  0  0
M  END
> <s_m_source_file>
AV-unprocessed.smi

> <i_m_source_file_index>
318

> <i_lp_mmshare_version>
43012

> <i_f3d_flags>
0

> <s_epik_input>
W0NIMl0xW0NIMl1bQ0gyXVtDSDJdW0NIMl1bQ0hdMVtOSF1DKD1PKVtDSDJdbjJbY0hdW2NIXVtjSF1jKEMoRikoRilGKWMyPU8=

> <s_epik_cmdline>
J2VwaWtfcHl0aG9uJywgJy1waCcsICc3LjAnLCAnLXRuJywgJzgnLCAnLW1hJywgJzIwMCcsICctbWV0YWxfYmluZGluZycsICctaW1hZScsICc8aW5maWxlLm1hZT4nLCAnLW9tYWUnLCAnPG91dGZpbGUubWFlPic=

> <r_lp_tautomer_probability>
1

> <r_epik_Ionization_Penalty>
2.11101e-08

> <r_epik_Ionization_Penalty_Charging>
2.0632e-09

> <r_epik_Ionization_Penalty_Neutral>
1.90469e-08

> <r_epik_State_Penalty>
-0

> <r_epik_Charging_Adjusted_Penalty>
2.0632e-09

> <i_epik_Tot_Q>
0

> <i_epik_Tot_abs_Q>
0

> <r_epik_Metal_State_Penalty>
-0

> <b_epik_Metal_Only>
0

> <s_lp_Force_Field>
OPLS_2005

> <r_lp_Energy>
18.6605

> <b_lp_Chiralities_Consistent>
1

> <s_lp_Variant>
AV-unprocessed.smi:318-1

> <Gold.Version>
5.8.1

> <Gold.Id.Protein>
6NUR|6NUR_protein|mol2

> <Gold.PLP.Fitness>
46.3364

> <Gold.PLP.PLP>
-40.2042

> <Gold.PLP.part.hbond>
-2.0000

> <Gold.PLP.part.metal>
0.0000

> <Gold.PLP.part.buried>
-2.0980

> <Gold.PLP.part.nonpolar>
-35.7936

> <Gold.PLP.part.repulsive>
0.1051

> <Gold.PLP.ligand.clash>
0.6086

> <Gold.PLP.ligand.torsion>
1.0130

> <Gold.PLP.Chemscore.Hbond>
1.8160

> <Gold.PLP.Chemscore.CHOScore>
1.0000

> <Gold.PLP.Chemscore.Metal>
0.0000

> <Gold.Chemscore.Hbonds>
donor molecule, donor type, donor heavy atom, donor atom, acceptor molecule, acceptor atom, score
      L1  H    15    27       P1  8028  0.96
      P1  H  7997  8010       L1    14  1.00
      L1  C     5    24       P1  8028  1.00

> <Gold.PLP.Chemscore.Internal.Correction>
0.3187

> <Gold.Rescore>
     Score         DG    S(hbond)    S(metal)    S(lipo)     H(rot)  DE(clash)    DE(int)     intcor
     12.67     -15.88       1.77        0.00      71.90       1.54       0.03       3.18       ----

> <Gold.Chemscore.Fitness>
12.6678

> <Gold.Chemscore.DG>
-15.8775

> <Gold.Chemscore.ZeroCoef>
-5.4800

> <Gold.Chemscore.Hbond>
1.7734

> <Gold.Chemscore.Metal>
0.0000

> <Gold.Chemscore.Lipo>
71.9016

> <Gold.Chemscore.Internal_Hbond>
0.0000

> <Gold.Chemscore.DEClash>
0.0338

> <Gold.Chemscore.DEInternal>
3.1759

> <Gold.Chemscore.Rot>
1.5383

> <Gold.Chemscore.Internal.Correction>
   9.000000E+99

> <Gold.Chemscore.Hbonds>
donor molecule, donor type, donor heavy atom, donor atom, acceptor molecule, acceptor atom, score
      L1  H    15    27       P1  8028  0.91
      P1  H  7997  8010       L1    14  0.97

> <Gold.Chemscore.Hbond.Weighted>
-5.9230

> <Gold.Chemscore.Metal.Weighted>
-0.0000

> <Gold.Chemscore.Lipo.Weighted>
-8.4125

> <Gold.Chemscore.Internal_Hbond.Weighted>
0.0000

> <Gold.Chemscore.DEClash.Weighted>
0.0338

> <Gold.Chemscore.DEInternal.Weighted>
3.1759

> <Gold.Chemscore.Rot.Weighted>
3.9380

> <Gold.Chemscore.Internal.Correction.Weighted>
   9.000000E+99

> <Gold.Protein.RotatedTorsions>
[ 6907 6896 6895 6894 ] final  -86.10 input  -60.11 | X-H torsion
[ 7974 7965 7964 7962 ] final  124.41 input  175.53 | X-H torsion
[ 8008 7997 7996 7995 ] final   49.81 input   59.86 | X-H torsion
[ 10167 10162 10161 10158 ] final   65.89 input  -65.29 | X-H torsion
[ 10718 10713 10712 10709 ] final   76.77 input   66.30 | X-H torsion
[ 10763 10752 10751 10750 ] final  -30.65 input  -60.55 | X-H torsion
[ 11005 11000 10999 10996 ] final   85.37 input  -57.11 | X-H torsion

> <Gold.Protein.ActiveResidues>
 VAL166  LYS551  ARG553  GLY616  TRP617  ASP618  TYR619  PRO620  LYS621  CYS622 
 ASP623  PHE694  ASN695  SER759  ASP760  ASP761  ALA762  ILE779  LEU786  VAL792 
 PHE793  MET794  SER795  GLU796  ALA797  LYS798  CYS799  TRP800  GLU811  SER814 

> <Gold.Protein.RotatedAtoms>
  150.6868  134.3102  159.4742 H   0  0  0  0  0  0  0  0  0  0  0  0  # atno 6907 bound_to 6896
  152.0989  134.9353  160.0579 H   0  0  0  0  0  0  0  0  0  0  0  0  # atno 6908 bound_to 6896
  152.0640  133.4040  159.4467 H   0  0  0  0  0  0  0  0  0  0  0  0  # atno 6909 bound_to 6896
  145.0847  139.3631  143.4891 H   0  0  0  0  0  0  0  0  0  0  0  0  # atno 7974 bound_to 7965
  155.4084  140.3441  155.4262 H   0  0  0  0  0  0  0  0  0  0  0  0  # atno 8008 bound_to 7997
  156.1463  140.1557  156.8874 H   0  0  0  0  0  0  0  0  0  0  0  0  # atno 8009 bound_to 7997
  154.5013  140.0814  156.7785 H   0  0  0  0  0  0  0  0  0  0  0  0  # atno 8010 bound_to 7997
  140.1064  144.4857  150.7005 H   0  0  0  0  0  0  0  0  0  0  0  0  # atno 10167 bound_to 10162
  157.6686  130.9790  150.1545 H   0  0  0  0  0  0  0  0  0  0  0  0  # atno 10718 bound_to 10713
  153.7844  135.6902  153.4882 H   0  0  0  0  0  0  0  0  0  0  0  0  # atno 10763 bound_to 10752
  153.1790  135.4513  155.0002 H   0  0  0  0  0  0  0  0  0  0  0  0  # atno 10764 bound_to 10752
  154.8069  135.3360  154.7345 H   0  0  0  0  0  0  0  0  0  0  0  0  # atno 10765 bound_to 10752
  139.8973  134.8282  156.2573 H   0  0  0  0  0  0  0  0  0  0  0  0  # atno 11005 bound_to 11000
  146.3531  140.0653  142.8626 LP  0  0  0  0  0  0  0  0  0  0  0  0  # atno 17320 bound_to 7965
  145.1136  140.9420  143.4641 LP  0  0  0  0  0  0  0  0  0  0  0  0  # atno 17321 bound_to 7965
  140.6950  143.2398  151.5027 LP  0  0  0  0  0  0  0  0  0  0  0  0  # atno 17342 bound_to 10162
  139.5643  144.2080  152.1740 LP  0  0  0  0  0  0  0  0  0  0  0  0  # atno 17343 bound_to 10162
  156.2336  130.3684  149.8416 LP  0  0  0  0  0  0  0  0  0  0  0  0  # atno 17370 bound_to 10713
  156.6236  130.8636  151.3480 LP  0  0  0  0  0  0  0  0  0  0  0  0  # atno 17371 bound_to 10713
  141.0185  133.7055  156.1228 LP  0  0  0  0  0  0  0  0  0  0  0  0  # atno 17394 bound_to 11000
  140.7267  134.4299  157.5570 LP  0  0  0  0  0  0  0  0  0  0  0  0  # atno 17395 bound_to 11000

$$$$
