AV-unprocessed.smi:2124|AV-procd|sdf|8655|dock8
  -GOLD-   2272011403D 1   1.00000     0.00000
 Structure written by MMmdl.
 47 49  0  0  0  0  0  0  0  0  1 V2000
  157.7948  137.6485  162.8945 C   0  0  0  0  0  0  0  0  0  0  0  0
  156.5155  137.8741  162.1165 C   0  0  0  0  0  0  0  0  0  0  0  0
  155.9302  139.0212  162.0070 N   0  0  0  0  0  0  0  0  0  0  0  0
  154.7466  139.1049  161.2603 C   0  0  0  0  0  0  0  0  0  0  0  0
  154.1137  140.4840  161.1842 C   0  0  0  0  0  0  0  0  0  0  0  0
  154.2079  138.0099  160.6480 C   0  0  0  0  0  0  0  0  0  0  0  0
  152.9174  138.0664  159.8315 C   0  0  0  0  0  0  0  0  0  0  0  0
  152.8573  139.1361  158.7380 C   0  0  0  0  0  0  0  0  0  0  0  0
  153.6702  139.1298  157.8133 O   0  0  0  0  0  0  0  0  0  0  0  0
  151.8751  140.0447  158.8623 N   0  0  0  0  0  0  0  0  0  0  0  0
  151.5639  141.1509  157.9528 C   0  0  1  0  0  0  0  0  0  0  0  0
  150.4490  140.7512  156.9658 C   0  0  0  0  0  0  0  0  0  0  0  0
  151.2578  142.4725  158.7086 C   0  0  2  0  0  0  0  0  0  0  0  0
  151.0978  143.6959  157.7738 C   0  0  0  0  0  0  0  0  0  0  0  0
  152.0811  144.7227  158.3622 C   0  0  1  0  0  0  0  0  0  0  0  0
  151.5599  145.2141  159.7251 C   0  0  0  0  0  0  0  0  0  0  0  0
  151.7987  143.9963  160.6371 C   0  0  0  0  0  0  0  0  0  0  0  0
  152.3810  142.9531  159.6645 C   0  0  2  0  0  0  0  0  0  0  0  0
  153.2469  143.8302  158.7662 C   0  0  0  0  0  0  0  0  0  0  0  0
  154.8835  136.7050  160.7815 C   0  0  0  0  0  0  0  0  0  0  0  0
  154.4803  135.6563  160.2806 O   0  0  0  0  0  0  0  0  0  0  0  0
  156.0158  136.7179  161.5195 N   0  0  0  0  0  0  0  0  0  0  0  0
  156.5145  135.8487  161.6419 H   0  0  0  0  0  0  0  0  0  0  0  0
  157.6522  137.9257  163.9393 H   0  0  0  0  0  0  0  0  0  0  0  0
  158.5976  138.2606  162.4828 H   0  0  0  0  0  0  0  0  0  0  0  0
  158.1091  136.6043  162.8589 H   0  0  0  0  0  0  0  0  0  0  0  0
  154.1332  140.8568  160.1601 H   0  0  0  0  0  0  0  0  0  0  0  0
  154.6482  141.1995  161.8102 H   0  0  0  0  0  0  0  0  0  0  0  0
  153.0782  140.4542  161.5238 H   0  0  0  0  0  0  0  0  0  0  0  0
  152.7618  137.0950  159.3614 H   0  0  0  0  0  0  0  0  0  0  0  0
  152.0574  138.1981  160.4892 H   0  0  0  0  0  0  0  0  0  0  0  0
  151.2688  139.9529  159.6643 H   0  0  0  0  0  0  0  0  0  0  0  0
  152.4726  141.2985  157.3684 H   0  0  0  0  0  0  0  0  0  0  0  0
  150.3212  141.4997  156.1844 H   0  0  0  0  0  0  0  0  0  0  0  0
  149.4870  140.6366  157.4654 H   0  0  0  0  0  0  0  0  0  0  0  0
  150.6817  139.8069  156.4725 H   0  0  0  0  0  0  0  0  0  0  0  0
  150.3368  142.3374  159.2771 H   0  0  0  0  0  0  0  0  0  0  0  0
  151.3858  143.4585  156.7490 H   0  0  0  0  0  0  0  0  0  0  0  0
  150.0729  144.0679  157.7498 H   0  0  0  0  0  0  0  0  0  0  0  0
  152.3345  145.5286  157.6730 H   0  0  0  0  0  0  0  0  0  0  0  0
  152.1321  146.0741  160.0755 H   0  0  0  0  0  0  0  0  0  0  0  0
  150.5092  145.5033  159.6841 H   0  0  0  0  0  0  0  0  0  0  0  0
  152.5204  144.2400  161.4178 H   0  0  0  0  0  0  0  0  0  0  0  0
  150.8863  143.6516  161.1251 H   0  0  0  0  0  0  0  0  0  0  0  0
  152.9180  142.1553  160.1777 H   0  0  0  0  0  0  0  0  0  0  0  0
  153.6928  143.2920  157.9285 H   0  0  0  0  0  0  0  0  0  0  0  0
  154.0317  144.3623  159.3067 H   0  0  0  0  0  0  0  0  0  0  0  0
  1  2  1  0  0  0  0
  1 24  1  0  0  0  0
  1 25  1  0  0  0  0
  1 26  1  0  0  0  0
  2 22  1  0  0  0  0
  2  3  2  0  0  0  0
  3  4  1  0  0  0  0
  4  5  1  0  0  0  0
  4  6  2  0  0  0  0
  5 27  1  0  0  0  0
  5 28  1  0  0  0  0
  5 29  1  0  0  0  0
  6  7  1  0  0  0  0
  6 20  1  0  0  0  0
  7  8  1  0  0  0  0
  7 30  1  0  0  0  0
  7 31  1  0  0  0  0
  8  9  2  0  0  0  0
  8 10  1  0  0  0  0
 10 11  1  0  0  0  0
 10 32  1  0  0  0  0
 11 12  1  0  0  0  0
 11 13  1  0  0  0  0
 11 33  1  0  0  0  0
 12 34  1  0  0  0  0
 12 35  1  0  0  0  0
 12 36  1  0  0  0  0
 13 18  1  0  0  0  0
 13 14  1  0  0  0  0
 13 37  1  0  0  0  0
 14 15  1  0  0  0  0
 14 38  1  0  0  0  0
 14 39  1  0  0  0  0
 15 19  1  0  0  0  0
 15 16  1  0  0  0  0
 15 40  1  0  0  0  0
 16 17  1  0  0  0  0
 16 41  1  0  0  0  0
 16 42  1  0  0  0  0
 17 18  1  0  0  0  0
 17 43  1  0  0  0  0
 17 44  1  0  0  0  0
 18 19  1  0  0  0  0
 18 45  1  0  0  0  0
 19 46  1  0  0  0  0
 19 47  1  0  0  0  0
 20 21  2  0  0  0  0
 20 22  1  0  0  0  0
 22 23  1  0  0  0  0
M  END
> <s_m_source_file>
AV-unprocessed.smi

> <i_m_source_file_index>
2124

> <i_lp_mmshare_version>
43012

> <i_f3d_flags>
0

> <s_epik_input>
W0NIM11jMW5jKFtDSDNdKWMoYyg9TylbbkhdMSlbQ0gyXUMoPU8pW05IXVtDQEhdKFtDSDNdKVtDQEhdKFtDSDJdW0NASF0yMylbQ0BIXShbQ0gyXTMpW0NIMl1bQ0gyXTI=

> <s_epik_cmdline>
J2VwaWtfcHl0aG9uJywgJy1waCcsICc3LjAnLCAnLXRuJywgJzgnLCAnLW1hJywgJzIwMCcsICctbWV0YWxfYmluZGluZycsICctaW1hZScsICc8aW5maWxlLm1hZT4nLCAnLW9tYWUnLCAnPG91dGZpbGUubWFlPic=

> <r_lp_tautomer_probability>
0.839158

> <r_epik_Ionization_Penalty>
0.000383628

> <r_epik_Ionization_Penalty_Charging>
0.00035045

> <r_epik_Ionization_Penalty_Neutral>
3.31781e-05

> <r_epik_State_Penalty>
0.09125

> <r_epik_Charging_Adjusted_Penalty>
0.0916005

> <i_epik_Tot_Q>
0

> <i_epik_Tot_abs_Q>
0

> <r_epik_Metal_State_Penalty>
0.255229

> <b_epik_Metal_Only>
0

> <s_lp_Force_Field>
OPLS_2005

> <r_lp_Energy>
52.5198

> <b_lp_Chiralities_Consistent>
1

> <s_lp_Variant>
AV-unprocessed.smi:2124-6

> <Gold.Version>
5.8.1

> <Gold.Id.Protein>
6NUR|6NUR_protein|mol2

> <Gold.PLP.Fitness>
46.1279

> <Gold.PLP.PLP>
-40.8091

> <Gold.PLP.part.hbond>
-2.0000

> <Gold.PLP.part.metal>
0.0000

> <Gold.PLP.part.buried>
-5.4421

> <Gold.PLP.part.nonpolar>
-33.3981

> <Gold.PLP.part.repulsive>
0.1409

> <Gold.PLP.ligand.clash>
0.0000

> <Gold.PLP.ligand.torsion>
0.3616

> <Gold.PLP.Chemscore.Hbond>
1.9920

> <Gold.PLP.Chemscore.CHOScore>
0.0000

> <Gold.PLP.Chemscore.Metal>
0.0000

> <Gold.Chemscore.Hbonds>
donor molecule, donor type, donor heavy atom, donor atom, acceptor molecule, acceptor atom, score
      P1  H  6896  6907       L1    21  0.41
      P1  H  7997  8008       L1     9  0.91

> <Gold.PLP.Chemscore.Internal.Correction>
0.0660

> <Gold.Rescore>
     Score         DG    S(hbond)    S(metal)    S(lipo)     H(rot)  DE(clash)    DE(int)     intcor
     22.03     -22.40       2.00        0.00     123.78       1.65       0.03       0.34       ----

> <Gold.Chemscore.Fitness>
22.0259

> <Gold.Chemscore.DG>
-22.3966

> <Gold.Chemscore.ZeroCoef>
-5.4800

> <Gold.Chemscore.Hbond>
1.9962

> <Gold.Chemscore.Metal>
0.0000

> <Gold.Chemscore.Lipo>
123.7756

> <Gold.Chemscore.Internal_Hbond>
0.0000

> <Gold.Chemscore.DEClash>
0.0341

> <Gold.Chemscore.DEInternal>
0.3367

> <Gold.Chemscore.Rot>
1.6534

> <Gold.Chemscore.Internal.Correction>
   9.000000E+99

> <Gold.Chemscore.Hbonds>
donor molecule, donor type, donor heavy atom, donor atom, acceptor molecule, acceptor atom, score
      P1  H  6896  6907       L1    21  0.39
      P1  H  7997  8008       L1     9  0.89

> <Gold.Chemscore.Hbond.Weighted>
-6.6675

> <Gold.Chemscore.Metal.Weighted>
-0.0000

> <Gold.Chemscore.Lipo.Weighted>
-14.4818

> <Gold.Chemscore.Internal_Hbond.Weighted>
0.0000

> <Gold.Chemscore.DEClash.Weighted>
0.0341

> <Gold.Chemscore.DEInternal.Weighted>
0.3367

> <Gold.Chemscore.Rot.Weighted>
4.2326

> <Gold.Chemscore.Internal.Correction.Weighted>
   9.000000E+99

> <Gold.Protein.RotatedTorsions>
[ 6907 6896 6895 6894 ] final   58.24 input  -60.11 | X-H torsion
[ 7974 7965 7964 7962 ] final -152.55 input  175.53 | X-H torsion
[ 8008 7997 7996 7995 ] final -109.03 input   59.86 | X-H torsion
[ 10167 10162 10161 10158 ] final -167.96 input  -65.29 | X-H torsion
[ 10718 10713 10712 10709 ] final -138.06 input   66.30 | X-H torsion
[ 10763 10752 10751 10750 ] final  125.97 input  -60.55 | X-H torsion
[ 11005 11000 10999 10996 ] final  106.52 input  -57.11 | X-H torsion

> <Gold.Protein.ActiveResidues>
 VAL166  LYS551  ARG553  GLY616  TRP617  ASP618  TYR619  PRO620  LYS621  CYS622 
 ASP623  PHE694  ASN695  SER759  ASP760  ASP761  ALA762  ILE779  LEU786  VAL792 
 PHE793  MET794  SER795  GLU796  ALA797  LYS798  CYS799  TRP800  GLU811  SER814 

> <Gold.Protein.RotatedAtoms>
  152.3806  134.6597  160.0144 H   0  0  0  0  0  0  0  0  0  0  0  0  # atno 6907 bound_to 6896
  151.6861  133.3306  159.3239 H   0  0  0  0  0  0  0  0  0  0  0  0  # atno 6908 bound_to 6896
  150.7744  134.6675  159.6418 H   0  0  0  0  0  0  0  0  0  0  0  0  # atno 6909 bound_to 6896
  144.7788  140.4647  143.5854 H   0  0  0  0  0  0  0  0  0  0  0  0  # atno 7974 bound_to 7965
  154.9532  140.0400  157.2154 H   0  0  0  0  0  0  0  0  0  0  0  0  # atno 8008 bound_to 7997
  154.7959  140.2843  155.5935 H   0  0  0  0  0  0  0  0  0  0  0  0  # atno 8009 bound_to 7997
  156.2955  140.2564  156.2816 H   0  0  0  0  0  0  0  0  0  0  0  0  # atno 8010 bound_to 7997
  139.6016  144.1000  152.1748 H   0  0  0  0  0  0  0  0  0  0  0  0  # atno 10167 bound_to 10162
  156.2951  130.7397  151.1434 H   0  0  0  0  0  0  0  0  0  0  0  0  # atno 10718 bound_to 10713
  153.6858  135.3307  155.3190 H   0  0  0  0  0  0  0  0  0  0  0  0  # atno 10763 bound_to 10752
  154.8453  135.4420  154.1559 H   0  0  0  0  0  0  0  0  0  0  0  0  # atno 10764 bound_to 10752
  153.2587  135.6989  153.7678 H   0  0  0  0  0  0  0  0  0  0  0  0  # atno 10765 bound_to 10752
  139.8815  134.9372  156.5680 H   0  0  0  0  0  0  0  0  0  0  0  0  # atno 11005 bound_to 11000
  145.6109  139.1513  143.3076 LP  0  0  0  0  0  0  0  0  0  0  0  0  # atno 17320 bound_to 7965
  146.1984  140.6225  142.9113 LP  0  0  0  0  0  0  0  0  0  0  0  0  # atno 17321 bound_to 7965
  140.0597  144.5866  150.7272 LP  0  0  0  0  0  0  0  0  0  0  0  0  # atno 17342 bound_to 10162
  140.7253  143.2630  151.4139 LP  0  0  0  0  0  0  0  0  0  0  0  0  # atno 17343 bound_to 10162
  157.7353  131.0573  150.5476 LP  0  0  0  0  0  0  0  0  0  0  0  0  # atno 17370 bound_to 10713
  156.5597  130.4252  149.6068 LP  0  0  0  0  0  0  0  0  0  0  0  0  # atno 17371 bound_to 10713
  140.8120  133.8422  155.8818 LP  0  0  0  0  0  0  0  0  0  0  0  0  # atno 17394 bound_to 11000
  140.9498  134.1794  157.4736 LP  0  0  0  0  0  0  0  0  0  0  0  0  # atno 17395 bound_to 11000

$$$$
