AV-unprocessed.smi:1174|AV-procd|sdf|4948|dock9
  -GOLD-   22720 3533D 1   1.00000     0.00000
 Structure written by MMmdl.
 41 42  0  0  0  0  0  0  0  0  1 V2000
  148.4760  141.3815  156.9475 C   0  0  0  0  0  0  0  0  0  0  0  0
  149.8293  141.1397  157.6293 C   0  0  2  0  0  0  0  0  0  0  0  0
  150.9516  141.9611  156.9579 C   0  0  0  0  0  0  0  0  0  0  0  0
  151.4384  143.0408  157.7988 N   0  0  0  0  0  0  0  0  0  0  0  0
  151.3969  144.3986  157.5597 C   0  0  0  0  0  0  0  0  0  0  0  0
  151.9986  145.0161  158.6181 C   0  0  0  0  0  0  0  0  0  0  0  0
  152.3740  143.9385  159.4683 C   0  0  0  0  0  0  0  0  0  0  0  0
  152.0337  142.7578  158.9772 N   0  0  0  0  0  0  0  0  0  0  0  0
  150.1344  139.7099  157.5830 N   0  0  0  0  0  0  0  0  0  0  0  0
  151.0954  139.0895  158.2868 C   0  0  0  0  0  0  0  0  0  0  0  0
  151.8158  139.6738  159.0963 O   0  0  0  0  0  0  0  0  0  0  0  0
  151.2832  137.5869  158.0054 C   0  0  1  0  0  0  0  0  0  0  0  0
  149.9828  136.7852  158.2593 C   0  0  0  0  0  0  0  0  0  0  0  0
  148.9702  136.8811  157.1005 C   0  0  0  0  0  0  0  0  0  0  0  0
  149.6485  136.5861  155.7520 C   0  0  0  0  0  0  0  0  0  0  0  0
  150.7784  137.5133  155.5640 N   0  0  0  0  0  0  0  0  0  0  0  0
  150.8767  138.4838  154.6195 C   0  0  0  0  0  0  0  0  0  0  0  0
  150.0667  138.3424  153.5656 N   0  0  0  0  0  0  0  0  0  0  0  0
  151.6415  139.4436  154.7020 O   0  0  0  0  0  0  0  0  0  0  0  0
  151.8222  137.3035  156.5804 C   0  0  0  0  0  0  0  0  0  0  0  0
  148.1991  142.4353  156.9899 H   0  0  0  0  0  0  0  0  0  0  0  0
  147.6830  140.8142  157.4362 H   0  0  0  0  0  0  0  0  0  0  0  0
  148.5003  141.0858  155.8980 H   0  0  0  0  0  0  0  0  0  0  0  0
  149.7284  141.4646  158.6666 H   0  0  0  0  0  0  0  0  0  0  0  0
  151.7922  141.3175  156.6946 H   0  0  0  0  0  0  0  0  0  0  0  0
  150.5915  142.3968  156.0248 H   0  0  0  0  0  0  0  0  0  0  0  0
  150.9585  144.8059  156.6606 H   0  0  0  0  0  0  0  0  0  0  0  0
  152.1506  146.0753  158.7618 H   0  0  0  0  0  0  0  0  0  0  0  0
  152.8809  143.9790  160.4211 H   0  0  0  0  0  0  0  0  0  0  0  0
  149.5882  139.1524  156.9427 H   0  0  0  0  0  0  0  0  0  0  0  0
  152.0308  137.2230  158.7123 H   0  0  0  0  0  0  0  0  0  0  0  0
  150.2464  135.7368  158.4036 H   0  0  0  0  0  0  0  0  0  0  0  0
  149.5103  137.1020  159.1902 H   0  0  0  0  0  0  0  0  0  0  0  0
  148.1526  136.1796  157.2677 H   0  0  0  0  0  0  0  0  0  0  0  0
  148.5181  137.8729  157.0748 H   0  0  0  0  0  0  0  0  0  0  0  0
  150.0268  135.5630  155.7453 H   0  0  0  0  0  0  0  0  0  0  0  0
  148.9057  136.6230  154.9556 H   0  0  0  0  0  0  0  0  0  0  0  0
  150.0887  139.0216  152.8196 H   0  0  0  0  0  0  0  0  0  0  0  0
  149.4415  137.5513  153.5190 H   0  0  0  0  0  0  0  0  0  0  0  0
  152.7140  137.9054  156.3978 H   0  0  0  0  0  0  0  0  0  0  0  0
  152.1617  136.2687  156.5192 H   0  0  0  0  0  0  0  0  0  0  0  0
  1  2  1  0  0  0  0
  1 21  1  0  0  0  0
  1 22  1  0  0  0  0
  1 23  1  0  0  0  0
  2  3  1  0  0  0  0
  2  9  1  0  0  0  0
  2 24  1  0  0  0  0
  3  4  1  0  0  0  0
  3 25  1  0  0  0  0
  3 26  1  0  0  0  0
  4  8  1  0  0  0  0
  4  5  1  0  0  0  0
  5  6  2  0  0  0  0
  5 27  1  0  0  0  0
  6  7  1  0  0  0  0
  6 28  1  0  0  0  0
  7  8  2  0  0  0  0
  7 29  1  0  0  0  0
  9 10  1  0  0  0  0
  9 30  1  0  0  0  0
 10 11  2  0  0  0  0
 10 12  1  0  0  0  0
 12 20  1  0  0  0  0
 12 13  1  0  0  0  0
 12 31  1  0  0  0  0
 13 14  1  0  0  0  0
 13 32  1  0  0  0  0
 13 33  1  0  0  0  0
 14 15  1  0  0  0  0
 14 34  1  0  0  0  0
 14 35  1  0  0  0  0
 15 16  1  0  0  0  0
 15 36  1  0  0  0  0
 15 37  1  0  0  0  0
 16 17  1  0  0  0  0
 16 20  1  0  0  0  0
 17 18  1  0  0  0  0
 17 19  2  0  0  0  0
 18 38  1  0  0  0  0
 18 39  1  0  0  0  0
 20 40  1  0  0  0  0
 20 41  1  0  0  0  0
M  END
> <s_m_source_file>
AV-unprocessed.smi

> <i_m_source_file_index>
1174

> <i_lp_mmshare_version>
43012

> <i_f3d_flags>
0

> <s_epik_input>
bjFbY0hdW2NIXVtjSF1uMVtDSDJdW0NAQEhdKFtDSDNdKVtOSF1DKD1PKVtDQEBIXTJbQ0gyXVtDSDJdW0NIMl1OKFtDSDJdMilDKD1PKVtOSDJd

> <s_epik_cmdline>
J2VwaWtfcHl0aG9uJywgJy1waCcsICc3LjAnLCAnLXRuJywgJzgnLCAnLW1hJywgJzIwMCcsICctbWV0YWxfYmluZGluZycsICctaW1hZScsICc8aW5maWxlLm1hZT4nLCAnLW9tYWUnLCAnPG91dGZpbGUubWFlPic=

> <r_lp_tautomer_probability>
1

> <r_epik_Ionization_Penalty>
0.000372452

> <r_epik_Ionization_Penalty_Charging>
0

> <r_epik_Ionization_Penalty_Neutral>
0.000372452

> <r_epik_State_Penalty>
-0

> <r_epik_Charging_Adjusted_Penalty>
0

> <i_epik_Tot_Q>
0

> <i_epik_Tot_abs_Q>
0

> <r_epik_Metal_State_Penalty>
-0

> <b_epik_Metal_Only>
0

> <s_lp_Force_Field>
OPLS_2005

> <r_lp_Energy>
23.1922

> <b_lp_Chiralities_Consistent>
1

> <s_lp_Variant>
AV-unprocessed.smi:1174-3

> <Gold.Version>
5.8.1

> <Gold.Id.Protein>
6NUR|6NUR_protein|mol2

> <Gold.PLP.Fitness>
43.0843

> <Gold.PLP.PLP>
-34.5852

> <Gold.PLP.part.hbond>
-3.1769

> <Gold.PLP.part.metal>
0.0000

> <Gold.PLP.part.buried>
-6.3194

> <Gold.PLP.part.nonpolar>
-25.5452

> <Gold.PLP.part.repulsive>
0.2214

> <Gold.PLP.ligand.clash>
0.0000

> <Gold.PLP.ligand.torsion>
1.0621

> <Gold.PLP.Chemscore.Hbond>
2.5262

> <Gold.PLP.Chemscore.CHOScore>
1.0000

> <Gold.PLP.Chemscore.Metal>
0.0000

> <Gold.Chemscore.Hbonds>
donor molecule, donor type, donor heavy atom, donor atom, acceptor molecule, acceptor atom, score
      L1  H    18    38       P1  7957  1.00
      L1  H    18    39       P1  7948  0.42
      P1  H  7989  7998       L1    19  1.00
      L1  C     5    27       P1  8028  1.00

> <Gold.PLP.Chemscore.Internal.Correction>
0.0445

> <Gold.Rescore>
     Score         DG    S(hbond)    S(metal)    S(lipo)     H(rot)  DE(clash)    DE(int)     intcor
     15.20     -17.01       2.41        0.00      69.54       1.82       0.00       1.81       ----

> <Gold.Chemscore.Fitness>
15.1959

> <Gold.Chemscore.DG>
-17.0090

> <Gold.Chemscore.ZeroCoef>
-5.4800

> <Gold.Chemscore.Hbond>
2.4111

> <Gold.Chemscore.Metal>
0.0000

> <Gold.Chemscore.Lipo>
69.5435

> <Gold.Chemscore.Internal_Hbond>
0.0000

> <Gold.Chemscore.DEClash>
0.0000

> <Gold.Chemscore.DEInternal>
1.8131

> <Gold.Chemscore.Rot>
1.8206

> <Gold.Chemscore.Internal.Correction>
   9.000000E+99

> <Gold.Chemscore.Hbonds>
donor molecule, donor type, donor heavy atom, donor atom, acceptor molecule, acceptor atom, score
      L1  H    18    38       P1  7957  0.72
      L1  H    18    39       P1  7948  0.39
      P1  H  7989  7998       L1    19  0.98

> <Gold.Chemscore.Hbond.Weighted>
-8.0531

> <Gold.Chemscore.Metal.Weighted>
-0.0000

> <Gold.Chemscore.Lipo.Weighted>
-8.1366

> <Gold.Chemscore.Internal_Hbond.Weighted>
0.0000

> <Gold.Chemscore.DEClash.Weighted>
0.0000

> <Gold.Chemscore.DEInternal.Weighted>
1.8131

> <Gold.Chemscore.Rot.Weighted>
4.6607

> <Gold.Chemscore.Internal.Correction.Weighted>
   9.000000E+99

> <Gold.Protein.RotatedTorsions>
[ 6907 6896 6895 6894 ] final   27.49 input  -60.11 | X-H torsion
[ 7974 7965 7964 7962 ] final -175.59 input  175.53 | X-H torsion
[ 8008 7997 7996 7995 ] final    3.13 input   59.86 | X-H torsion
[ 10167 10162 10161 10158 ] final -108.03 input  -65.29 | X-H torsion
[ 10718 10713 10712 10709 ] final -129.03 input   66.30 | X-H torsion
[ 10763 10752 10751 10750 ] final  139.90 input  -60.55 | X-H torsion
[ 11005 11000 10999 10996 ] final   32.31 input  -57.11 | X-H torsion

> <Gold.Protein.ActiveResidues>
 VAL166  LYS551  ARG553  GLY616  TRP617  ASP618  TYR619  PRO620  LYS621  CYS622 
 ASP623  PHE694  ASN695  SER759  ASP760  ASP761  ALA762  ILE779  LEU786  VAL792 
 PHE793  MET794  SER795  GLU796  ALA797  LYS798  CYS799  TRP800  GLU811  SER814 

> <Gold.Protein.RotatedAtoms>
  152.0030  134.9918  160.0565 H   0  0  0  0  0  0  0  0  0  0  0  0  # atno 6907 bound_to 6896
  152.1501  133.4512  159.4818 H   0  0  0  0  0  0  0  0  0  0  0  0  # atno 6908 bound_to 6896
  150.6874  134.2117  159.4405 H   0  0  0  0  0  0  0  0  0  0  0  0  # atno 6909 bound_to 6896
  144.7128  140.1298  143.6399 H   0  0  0  0  0  0  0  0  0  0  0  0  # atno 7974 bound_to 7965
  154.6999  140.2671  155.6730 H   0  0  0  0  0  0  0  0  0  0  0  0  # atno 8008 bound_to 7997
  156.2761  140.2774  156.1530 H   0  0  0  0  0  0  0  0  0  0  0  0  # atno 8009 bound_to 7997
  155.0779  140.0372  157.2620 H   0  0  0  0  0  0  0  0  0  0  0  0  # atno 8010 bound_to 7997
  140.1705  143.4046  152.1358 H   0  0  0  0  0  0  0  0  0  0  0  0  # atno 10167 bound_to 10162
  156.2008  130.6856  151.0536 H   0  0  0  0  0  0  0  0  0  0  0  0  # atno 10718 bound_to 10713
  153.9139  135.3008  155.3448 H   0  0  0  0  0  0  0  0  0  0  0  0  # atno 10763 bound_to 10752
  154.7610  135.4934  153.9467 H   0  0  0  0  0  0  0  0  0  0  0  0  # atno 10764 bound_to 10752
  153.1178  135.6775  153.9490 H   0  0  0  0  0  0  0  0  0  0  0  0  # atno 10765 bound_to 10752
  140.2747  134.3041  155.7817 H   0  0  0  0  0  0  0  0  0  0  0  0  # atno 11005 bound_to 11000
  145.9297  139.2598  143.1332 LP  0  0  0  0  0  0  0  0  0  0  0  0  # atno 17320 bound_to 7965
  145.9535  140.8890  143.0247 LP  0  0  0  0  0  0  0  0  0  0  0  0  # atno 17321 bound_to 7965
  139.5340  144.7190  151.4957 LP  0  0  0  0  0  0  0  0  0  0  0  0  # atno 17342 bound_to 10162
  140.6585  143.8549  150.6861 LP  0  0  0  0  0  0  0  0  0  0  0  0  # atno 17343 bound_to 10162
  157.6984  131.0785  150.6896 LP  0  0  0  0  0  0  0  0  0  0  0  0  # atno 17370 bound_to 10713
  156.6954  130.4607  149.5588 LP  0  0  0  0  0  0  0  0  0  0  0  0  # atno 17371 bound_to 10713
  141.2172  133.7488  156.9389 LP  0  0  0  0  0  0  0  0  0  0  0  0  # atno 17394 bound_to 11000
  140.1339  134.9338  157.2375 LP  0  0  0  0  0  0  0  0  0  0  0  0  # atno 17395 bound_to 11000

$$$$
