AV-unprocessed.smi:455|AV-procd|sdf|2614|dock8
  -GOLD-   2262023 13D 1   1.00000     0.00000
 Structure written by MMmdl.
 46 47  0  0  0  0  0  0  0  0  1 V2000
  148.2840  132.5882  155.1716 C   0  0  0  0  0  0  0  0  0  0  0  0
  149.4126  133.5926  154.8550 C   0  0  0  0  0  0  0  0  0  0  0  0
  150.6653  133.1715  155.6482 C   0  0  0  0  0  0  0  0  0  0  0  0
  149.7456  133.5274  153.3497 C   0  0  0  0  0  0  0  0  0  0  0  0
  149.0396  135.0411  155.2847 C   0  0  0  0  0  0  0  0  0  0  0  0
  150.1860  136.0639  155.3094 C   0  0  0  0  0  0  0  0  0  0  0  0
  150.9209  136.1545  156.2923 O   0  0  0  0  0  0  0  0  0  0  0  0
  150.3445  136.8064  154.2019 N   0  0  0  0  0  0  0  0  0  0  0  0
  151.3979  137.7931  153.9790 C   0  0  0  0  0  0  0  0  0  0  0  0
  151.4540  138.8889  155.0324 C   0  0  0  0  0  0  0  0  0  0  0  0
  150.3731  139.7785  155.1885 C   0  0  0  0  0  0  0  0  0  0  0  0
  150.4525  140.7904  156.1636 C   0  0  0  0  0  0  0  0  0  0  0  0
  151.6190  140.8939  156.9580 C   0  0  0  0  0  0  0  0  0  0  0  0
  151.7203  141.9021  157.9413 N   0  0  0  0  0  0  0  0  0  0  0  0
  151.5409  143.2715  157.4653 C   0  0  0  0  0  0  0  0  0  0  0  0
  151.3608  144.2324  158.6530 C   0  0  0  0  0  0  0  0  0  0  0  0
  152.4573  144.0995  159.5509 O   0  0  0  0  0  0  0  0  0  0  0  0
  152.5447  142.7840  160.0885 C   0  0  0  0  0  0  0  0  0  0  0  0
  152.7687  141.7726  158.9516 C   0  0  0  0  0  0  0  0  0  0  0  0
  152.6591  140.0375  156.8037 N   0  0  0  0  0  0  0  0  0  0  0  0
  152.5784  139.0705  155.8654 C   0  0  0  0  0  0  0  0  0  0  0  0
  148.6062  131.5627  154.9875 H   0  0  0  0  0  0  0  0  0  0  0  0
  147.4005  132.7545  154.5556 H   0  0  0  0  0  0  0  0  0  0  0  0
  147.9774  132.6514  156.2162 H   0  0  0  0  0  0  0  0  0  0  0  0
  150.4813  133.1939  156.7230 H   0  0  0  0  0  0  0  0  0  0  0  0
  151.5070  133.8345  155.4455 H   0  0  0  0  0  0  0  0  0  0  0  0
  150.9799  132.1590  155.3920 H   0  0  0  0  0  0  0  0  0  0  0  0
  150.0983  132.5353  153.0656 H   0  0  0  0  0  0  0  0  0  0  0  0
  150.5254  134.2417  153.0839 H   0  0  0  0  0  0  0  0  0  0  0  0
  148.8750  133.7448  152.7315 H   0  0  0  0  0  0  0  0  0  0  0  0
  148.2710  135.4318  154.6166 H   0  0  0  0  0  0  0  0  0  0  0  0
  148.5776  135.0149  156.2734 H   0  0  0  0  0  0  0  0  0  0  0  0
  149.6955  136.6605  153.4423 H   0  0  0  0  0  0  0  0  0  0  0  0
  152.3784  137.3184  153.9167 H   0  0  0  0  0  0  0  0  0  0  0  0
  151.2188  138.2447  153.0027 H   0  0  0  0  0  0  0  0  0  0  0  0
  149.4894  139.6871  154.5742 H   0  0  0  0  0  0  0  0  0  0  0  0
  149.6175  141.4615  156.2991 H   0  0  0  0  0  0  0  0  0  0  0  0
  152.4181  143.5585  156.8841 H   0  0  0  0  0  0  0  0  0  0  0  0
  150.6803  143.3615  156.8040 H   0  0  0  0  0  0  0  0  0  0  0  0
  151.3154  145.2620  158.2982 H   0  0  0  0  0  0  0  0  0  0  0  0
  150.4229  144.0341  159.1747 H   0  0  0  0  0  0  0  0  0  0  0  0
  153.3731  142.7432  160.7957 H   0  0  0  0  0  0  0  0  0  0  0  0
  151.6377  142.5467  160.6466 H   0  0  0  0  0  0  0  0  0  0  0  0
  152.7741  140.7623  159.3626 H   0  0  0  0  0  0  0  0  0  0  0  0
  153.7411  141.9426  158.4873 H   0  0  0  0  0  0  0  0  0  0  0  0
  153.4434  138.4314  155.7773 H   0  0  0  0  0  0  0  0  0  0  0  0
  1  2  1  0  0  0  0
  1 22  1  0  0  0  0
  1 23  1  0  0  0  0
  1 24  1  0  0  0  0
  2  3  1  0  0  0  0
  2  4  1  0  0  0  0
  2  5  1  0  0  0  0
  3 25  1  0  0  0  0
  3 26  1  0  0  0  0
  3 27  1  0  0  0  0
  4 28  1  0  0  0  0
  4 29  1  0  0  0  0
  4 30  1  0  0  0  0
  5  6  1  0  0  0  0
  5 31  1  0  0  0  0
  5 32  1  0  0  0  0
  6  7  2  0  0  0  0
  6  8  1  0  0  0  0
  8  9  1  0  0  0  0
  8 33  1  0  0  0  0
  9 10  1  0  0  0  0
  9 34  1  0  0  0  0
  9 35  1  0  0  0  0
 10 21  1  0  0  0  0
 10 11  2  0  0  0  0
 11 12  1  0  0  0  0
 11 36  1  0  0  0  0
 12 13  2  0  0  0  0
 12 37  1  0  0  0  0
 13 14  1  0  0  0  0
 13 20  1  0  0  0  0
 14 19  1  0  0  0  0
 14 15  1  0  0  0  0
 15 16  1  0  0  0  0
 15 38  1  0  0  0  0
 15 39  1  0  0  0  0
 16 17  1  0  0  0  0
 16 40  1  0  0  0  0
 16 41  1  0  0  0  0
 17 18  1  0  0  0  0
 18 19  1  0  0  0  0
 18 42  1  0  0  0  0
 18 43  1  0  0  0  0
 19 44  1  0  0  0  0
 19 45  1  0  0  0  0
 20 21  2  0  0  0  0
 21 46  1  0  0  0  0
M  END
> <s_m_source_file>
AV-unprocessed.smi

> <i_m_source_file_index>
455

> <i_lp_mmshare_version>
43012

> <i_f3d_flags>
0

> <s_epik_input>
W0NIM11DKFtDSDNdKShbQ0gzXSlbQ0gyXUMoPU8pW05IXVtDSDJdYzFbY0hdW2NIXWMobltjSF0xKU4yW0NIMl1bQ0gyXU9bQ0gyXVtDSDJdMg==

> <s_epik_cmdline>
J2VwaWtfcHl0aG9uJywgJy1waCcsICc3LjAnLCAnLXRuJywgJzgnLCAnLW1hJywgJzIwMCcsICctbWV0YWxfYmluZGluZycsICctaW1hZScsICc8aW5maWxlLm1hZT4nLCAnLW9tYWUnLCAnPG91dGZpbGUubWFlPic=

> <r_lp_tautomer_probability>
1

> <r_epik_Ionization_Penalty>
0.00557649

> <r_epik_Ionization_Penalty_Charging>
0

> <r_epik_Ionization_Penalty_Neutral>
0.00557649

> <r_epik_State_Penalty>
0.00408419

> <r_epik_Charging_Adjusted_Penalty>
0.00408419

> <i_epik_Tot_Q>
0

> <i_epik_Tot_abs_Q>
0

> <r_epik_Metal_State_Penalty>
-0

> <b_epik_Metal_Only>
0

> <s_lp_Force_Field>
OPLS_2005

> <r_lp_Energy>
18.1118

> <b_lp_Chiralities_Consistent>
1

> <s_lp_Variant>
AV-unprocessed.smi:455-1

> <Gold.Version>
5.8.1

> <Gold.Id.Protein>
6NUR|6NUR_protein|mol2

> <Gold.PLP.Fitness>
41.9638

> <Gold.PLP.PLP>
-37.7354

> <Gold.PLP.part.hbond>
-2.6678

> <Gold.PLP.part.metal>
0.0000

> <Gold.PLP.part.buried>
-4.1054

> <Gold.PLP.part.nonpolar>
-31.4539

> <Gold.PLP.part.repulsive>
0.0774

> <Gold.PLP.ligand.clash>
0.0000

> <Gold.PLP.ligand.torsion>
0.6728

> <Gold.PLP.Chemscore.Hbond>
1.7424

> <Gold.PLP.Chemscore.CHOScore>
0.0000

> <Gold.PLP.Chemscore.Metal>
0.0000

> <Gold.Chemscore.Hbonds>
donor molecule, donor type, donor heavy atom, donor atom, acceptor molecule, acceptor atom, score
      L1  H     8    33       P1  7948  1.00
      P1  H  7997  8009       L1    20  0.62

> <Gold.PLP.Chemscore.Internal.Correction>
0.3468

> <Gold.Rescore>
     Score         DG    S(hbond)    S(metal)    S(lipo)     H(rot)  DE(clash)    DE(int)     intcor
     14.99     -16.61       0.96        0.00     103.04       1.62       0.30       1.32       ----

> <Gold.Chemscore.Fitness>
14.9886

> <Gold.Chemscore.DG>
-16.6147

> <Gold.Chemscore.ZeroCoef>
-5.4800

> <Gold.Chemscore.Hbond>
0.9633

> <Gold.Chemscore.Metal>
0.0000

> <Gold.Chemscore.Lipo>
103.0381

> <Gold.Chemscore.Internal_Hbond>
0.0000

> <Gold.Chemscore.DEClash>
0.3019

> <Gold.Chemscore.DEInternal>
1.3242

> <Gold.Chemscore.Rot>
1.6164

> <Gold.Chemscore.Internal.Correction>
   9.000000E+99

> <Gold.Chemscore.Hbonds>
donor molecule, donor type, donor heavy atom, donor atom, acceptor molecule, acceptor atom, score
      L1  H     8    33       P1  7948  0.50
      P1  H  7997  8009       L1    20  0.08

> <Gold.Chemscore.Hbond.Weighted>
-3.2173

> <Gold.Chemscore.Metal.Weighted>
-0.0000

> <Gold.Chemscore.Lipo.Weighted>
-12.0555

> <Gold.Chemscore.Internal_Hbond.Weighted>
0.0000

> <Gold.Chemscore.DEClash.Weighted>
0.3019

> <Gold.Chemscore.DEInternal.Weighted>
1.3242

> <Gold.Chemscore.Rot.Weighted>
4.1381

> <Gold.Chemscore.Internal.Correction.Weighted>
   9.000000E+99

> <Gold.Protein.RotatedTorsions>
[ 6907 6896 6895 6894 ] final   54.34 input  -60.11 | X-H torsion
[ 7974 7965 7964 7962 ] final   80.29 input  175.53 | X-H torsion
[ 8008 7997 7996 7995 ] final  165.19 input   59.86 | X-H torsion
[ 10167 10162 10161 10158 ] final    3.32 input  -65.29 | X-H torsion
[ 10718 10713 10712 10709 ] final  161.73 input   66.30 | X-H torsion
[ 10763 10752 10751 10750 ] final  -55.92 input  -60.55 | X-H torsion
[ 11005 11000 10999 10996 ] final  -70.62 input  -57.11 | X-H torsion

> <Gold.Protein.ActiveResidues>
 VAL166  LYS551  ARG553  GLY616  TRP617  ASP618  TYR619  PRO620  LYS621  CYS622 
 ASP623  PHE694  ASN695  SER759  ASP760  ASP761  ALA762  ILE779  LEU786  VAL792 
 PHE793  MET794  SER795  GLU796  ALA797  LYS798  CYS799  TRP800  GLU811  SER814 

> <Gold.Protein.RotatedAtoms>
  152.3429  134.7110  160.0258 H   0  0  0  0  0  0  0  0  0  0  0  0  # atno 6907 bound_to 6896
  151.7489  133.3321  159.3394 H   0  0  0  0  0  0  0  0  0  0  0  0  # atno 6908 bound_to 6896
  150.7491  134.6143  159.6147 H   0  0  0  0  0  0  0  0  0  0  0  0  # atno 6909 bound_to 6896
  145.6531  139.2452  143.1965 H   0  0  0  0  0  0  0  0  0  0  0  0  # atno 7974 bound_to 7965
  156.1820  140.1677  156.8255 H   0  0  0  0  0  0  0  0  0  0  0  0  # atno 8008 bound_to 7997
  154.5371  140.0744  156.8480 H   0  0  0  0  0  0  0  0  0  0  0  0  # atno 8009 bound_to 7997
  155.3288  140.3378  155.4242 H   0  0  0  0  0  0  0  0  0  0  0  0  # atno 8010 bound_to 7997
  140.6591  143.7350  150.7707 H   0  0  0  0  0  0  0  0  0  0  0  0  # atno 10167 bound_to 10162
  157.1324  131.0520  151.2365 H   0  0  0  0  0  0  0  0  0  0  0  0  # atno 10718 bound_to 10713
  154.1984  135.6415  153.5080 H   0  0  0  0  0  0  0  0  0  0  0  0  # atno 10763 bound_to 10752
  153.0018  135.5445  154.6341 H   0  0  0  0  0  0  0  0  0  0  0  0  # atno 10764 bound_to 10752
  154.5748  135.2920  155.0765 H   0  0  0  0  0  0  0  0  0  0  0  0  # atno 10765 bound_to 10752
  141.1577  133.6795  156.6781 H   0  0  0  0  0  0  0  0  0  0  0  0  # atno 11005 bound_to 11000
  146.1187  140.7337  142.9468 LP  0  0  0  0  0  0  0  0  0  0  0  0  # atno 17320 bound_to 7965
  144.7115  140.4057  143.7077 LP  0  0  0  0  0  0  0  0  0  0  0  0  # atno 17321 bound_to 7965
  140.1015  143.4783  152.2422 LP  0  0  0  0  0  0  0  0  0  0  0  0  # atno 17342 bound_to 10162
  139.5821  144.7515  151.3614 LP  0  0  0  0  0  0  0  0  0  0  0  0  # atno 17343 bound_to 10162
  157.4380  130.7528  149.7045 LP  0  0  0  0  0  0  0  0  0  0  0  0  # atno 17370 bound_to 10713
  155.9805  130.4029  150.3525 LP  0  0  0  0  0  0  0  0  0  0  0  0  # atno 17371 bound_to 10713
  140.3123  134.8075  157.4186 LP  0  0  0  0  0  0  0  0  0  0  0  0  # atno 17394 bound_to 11000
  140.1167  134.5273  155.8218 LP  0  0  0  0  0  0  0  0  0  0  0  0  # atno 17395 bound_to 11000

$$$$
