AV-unprocessed.smi:3172|AV-procd|sdf|12114|dock6
  -GOLD-   2272017553D 1   1.00000     0.00000
 Structure written by MMmdl.
 44 45  0  0  0  0  0  0  0  0  3 V2000
  151.0808  135.5232  155.1941 C   0  0  0  0  0  0  0  0  0  0  0  0
  151.0853  137.0111  155.0822 C   0  0  0  0  0  0  0  0  0  0  0  0
  150.5003  137.6664  154.0312 N   0  3  0  0  0  0  0  0  0  0  0  0
  150.6382  138.9860  154.1662 C   0  0  0  0  0  0  0  0  0  0  0  0
  151.3196  139.1905  155.2998 N   0  0  0  0  0  0  0  0  0  0  0  0
  151.6516  140.5445  155.7703 C   0  0  0  0  0  0  0  0  0  0  0  0
  150.4155  141.4368  156.0099 C   0  0  1  0  0  0  0  0  0  0  0  0
  149.4804  140.8858  157.1002 C   0  0  0  0  0  0  0  0  0  0  0  0
  150.8556  142.8054  156.3668 N   0  3  0  0  0  0  0  0  0  0  0  0
  151.0499  143.0718  157.8107 C   0  0  0  0  0  0  0  0  0  0  0  0
  151.6528  144.4765  158.0028 C   0  0  0  0  0  0  0  0  0  0  0  0
  151.8886  144.7921  159.4886 C   0  0  0  0  0  0  0  0  0  0  0  0
  152.7764  143.7267  160.1499 C   0  0  0  0  0  0  0  0  0  0  0  0
  152.1869  142.3207  159.9621 C   0  0  0  0  0  0  0  0  0  0  0  0
  151.9497  142.0074  158.4758 C   0  0  0  0  0  0  0  0  0  0  0  0
  151.6110  137.9850  155.9003 C   0  0  0  0  0  0  0  0  0  0  0  0
  152.3582  137.8675  157.1896 C   0  0  0  0  0  0  0  0  0  0  0  0
  150.8901  135.2222  156.2244 H   0  0  0  0  0  0  0  0  0  0  0  0
  152.0463  135.1213  154.8870 H   0  0  0  0  0  0  0  0  0  0  0  0
  150.3058  135.0904  154.5607 H   0  0  0  0  0  0  0  0  0  0  0  0
  150.2729  139.7371  153.4883 H   0  0  0  0  0  0  0  0  0  0  0  0
  152.2345  140.4509  156.6885 H   0  0  0  0  0  0  0  0  0  0  0  0
  152.3130  140.9985  155.0317 H   0  0  0  0  0  0  0  0  0  0  0  0
  149.8514  141.4782  155.0780 H   0  0  0  0  0  0  0  0  0  0  0  0
  149.0674  139.9164  156.8208 H   0  0  0  0  0  0  0  0  0  0  0  0
  148.6369  141.5542  157.2744 H   0  0  0  0  0  0  0  0  0  0  0  0
  150.0060  140.7641  158.0479 H   0  0  0  0  0  0  0  0  0  0  0  0
  151.7123  143.0173  155.8751 H   0  0  0  0  0  0  0  0  0  0  0  0
  150.0691  143.0604  158.2897 H   0  0  0  0  0  0  0  0  0  0  0  0
  152.5984  144.5511  157.4634 H   0  0  0  0  0  0  0  0  0  0  0  0
  150.9919  145.2295  157.5718 H   0  0  0  0  0  0  0  0  0  0  0  0
  152.3501  145.7748  159.5913 H   0  0  0  0  0  0  0  0  0  0  0  0
  150.9310  144.8447  160.0081 H   0  0  0  0  0  0  0  0  0  0  0  0
  153.7773  143.7638  159.7178 H   0  0  0  0  0  0  0  0  0  0  0  0
  152.8905  143.9440  161.2123 H   0  0  0  0  0  0  0  0  0  0  0  0
  152.8556  141.5772  160.3970 H   0  0  0  0  0  0  0  0  0  0  0  0
  151.2448  142.2440  160.5064 H   0  0  0  0  0  0  0  0  0  0  0  0
  151.5019  141.0171  158.3911 H   0  0  0  0  0  0  0  0  0  0  0  0
  152.9091  141.9583  157.9587 H   0  0  0  0  0  0  0  0  0  0  0  0
  152.3150  136.8437  157.5617 H   0  0  0  0  0  0  0  0  0  0  0  0
  151.9261  138.5226  157.9461 H   0  0  0  0  0  0  0  0  0  0  0  0
  153.4053  138.1332  157.0474 H   0  0  0  0  0  0  0  0  0  0  0  0
  150.1420  143.4430  156.0432 H   0  0  0  0  0  0  0  0  0  0  0  0
  150.0252  137.2146  153.2596 H   0  0  0  0  0  0  0  0  0  0  0  0
  1  2  1  0  0  0  0
  1 18  1  0  0  0  0
  1 19  1  0  0  0  0
  1 20  1  0  0  0  0
  2 16  2  0  0  0  0
  2  3  1  0  0  0  0
  3  4  2  0  0  0  0
  3 44  1  0  0  0  0
  4  5  1  0  0  0  0
  4 21  1  0  0  0  0
  5  6  1  0  0  0  0
  5 16  1  0  0  0  0
  6  7  1  0  0  0  0
  6 22  1  0  0  0  0
  6 23  1  0  0  0  0
  7  8  1  0  0  0  0
  7  9  1  0  0  0  0
  7 24  1  0  0  0  0
  8 25  1  0  0  0  0
  8 26  1  0  0  0  0
  8 27  1  0  0  0  0
  9 10  1  0  0  0  0
  9 28  1  0  0  0  0
  9 43  1  0  0  0  0
 10 15  1  0  0  0  0
 10 11  1  0  0  0  0
 10 29  1  0  0  0  0
 11 12  1  0  0  0  0
 11 30  1  0  0  0  0
 11 31  1  0  0  0  0
 12 13  1  0  0  0  0
 12 32  1  0  0  0  0
 12 33  1  0  0  0  0
 13 14  1  0  0  0  0
 13 34  1  0  0  0  0
 13 35  1  0  0  0  0
 14 15  1  0  0  0  0
 14 36  1  0  0  0  0
 14 37  1  0  0  0  0
 15 38  1  0  0  0  0
 15 39  1  0  0  0  0
 16 17  1  0  0  0  0
 17 40  1  0  0  0  0
 17 41  1  0  0  0  0
 17 42  1  0  0  0  0
M  CHG  1   3   1
M  CHG  1   9   1
M  END
> <s_m_source_file>
AV-unprocessed.smi

> <i_m_source_file_index>
3172

> <i_lp_mmshare_version>
43012

> <i_f3d_flags>
0

> <s_epik_input>
W0NIM11jMW5bY0hdbihjMVtDSDNdKVtDSDJdW0NASF0oW0NIM10pW05IXVtDSF0yW0NIMl1bQ0gyXVtDSDJdW0NIMl1bQ0gyXTI=

> <s_epik_cmdline>
J2VwaWtfcHl0aG9uJywgJy1waCcsICc3LjAnLCAnLXRuJywgJzgnLCAnLW1hJywgJzIwMCcsICctbWV0YWxfYmluZGluZycsICctaW1hZScsICc8aW5maWxlLm1hZT4nLCAnLW9tYWUnLCAnPG91dGZpbGUubWFlPic=

> <r_lp_tautomer_probability>
1

> <r_epik_Ionization_Penalty>
0.509043

> <r_epik_Ionization_Penalty_Charging>
0.00159961

> <r_epik_Ionization_Penalty_Neutral>
0.507444

> <r_epik_State_Penalty>
0.272352

> <r_epik_Charging_Adjusted_Penalty>
0.273952

> <i_epik_Tot_Q>
2

> <i_epik_Tot_abs_Q>
2

> <r_epik_Metal_State_Penalty>
3.76994

> <b_epik_Metal_Only>
0

> <s_lp_Force_Field>
OPLS_2005

> <r_lp_Energy>
25.4391

> <b_lp_Chiralities_Consistent>
1

> <s_lp_Variant>
AV-unprocessed.smi:3172-2

> <Gold.Version>
5.8.1

> <Gold.Id.Protein>
6NUR|6NUR_protein|mol2

> <Gold.PLP.Fitness>
54.2891

> <Gold.PLP.PLP>
-39.9940

> <Gold.PLP.part.hbond>
-2.5392

> <Gold.PLP.part.metal>
0.0000

> <Gold.PLP.part.buried>
-2.6843

> <Gold.PLP.part.nonpolar>
-34.6417

> <Gold.PLP.part.repulsive>
0.1395

> <Gold.PLP.ligand.clash>
0.0000

> <Gold.PLP.ligand.torsion>
0.3722

> <Gold.PLP.Chemscore.Hbond>
4.0000

> <Gold.PLP.Chemscore.CHOScore>
1.0000

> <Gold.PLP.Chemscore.Metal>
0.0000

> <Gold.Chemscore.Hbonds>
donor molecule, donor type, donor heavy atom, donor atom, acceptor molecule, acceptor atom, score
      L1  H     3    44       P1  7948  1.90
      L1  H     9    43       P1  8028  2.00
      L1  C     4    21       P1  7957  1.00

> <Gold.PLP.Chemscore.Internal.Correction>
0.0395

> <Gold.Rescore>
     Score         DG    S(hbond)    S(metal)    S(lipo)     H(rot)  DE(clash)    DE(int)     intcor
     20.10     -20.56       1.95        0.00     107.27       1.56       0.08       0.37       ----

> <Gold.Chemscore.Fitness>
20.1028

> <Gold.Chemscore.DG>
-20.5578

> <Gold.Chemscore.ZeroCoef>
-5.4800

> <Gold.Chemscore.Hbond>
1.9499

> <Gold.Chemscore.Metal>
0.0000

> <Gold.Chemscore.Lipo>
107.2681

> <Gold.Chemscore.Internal_Hbond>
0.0000

> <Gold.Chemscore.DEClash>
0.0814

> <Gold.Chemscore.DEInternal>
0.3736

> <Gold.Chemscore.Rot>
1.5567

> <Gold.Chemscore.Internal.Correction>
   9.000000E+99

> <Gold.Chemscore.Hbonds>
donor molecule, donor type, donor heavy atom, donor atom, acceptor molecule, acceptor atom, score
      L1  H     3    44       P1  7948  0.21
      L1  H     9    43       P1  8028  1.00

> <Gold.Chemscore.Hbond.Weighted>
-6.5127

> <Gold.Chemscore.Metal.Weighted>
-0.0000

> <Gold.Chemscore.Lipo.Weighted>
-12.5504

> <Gold.Chemscore.Internal_Hbond.Weighted>
0.0000

> <Gold.Chemscore.DEClash.Weighted>
0.0814

> <Gold.Chemscore.DEInternal.Weighted>
0.3736

> <Gold.Chemscore.Rot.Weighted>
3.9852

> <Gold.Chemscore.Internal.Correction.Weighted>
   9.000000E+99

> <Gold.Protein.RotatedTorsions>
[ 6907 6896 6895 6894 ] final -122.99 input  -60.11 | X-H torsion
[ 7974 7965 7964 7962 ] final -138.53 input  175.53 | X-H torsion
[ 8008 7997 7996 7995 ] final   34.63 input   59.86 | X-H torsion
[ 10167 10162 10161 10158 ] final   58.26 input  -65.29 | X-H torsion
[ 10718 10713 10712 10709 ] final  -37.35 input   66.30 | X-H torsion
[ 10763 10752 10751 10750 ] final -107.22 input  -60.55 | X-H torsion
[ 11005 11000 10999 10996 ] final   16.53 input  -57.11 | X-H torsion

> <Gold.Protein.ActiveResidues>
 VAL166  LYS551  ARG553  GLY616  TRP617  ASP618  TYR619  PRO620  LYS621  CYS622 
 ASP623  PHE694  ASN695  SER759  ASP760  ASP761  ALA762  ILE779  LEU786  VAL792 
 PHE793  MET794  SER795  GLU796  ALA797  LYS798  CYS799  TRP800  GLU811  SER814 

> <Gold.Protein.RotatedAtoms>
  150.8628  133.7618  159.2986 H   0  0  0  0  0  0  0  0  0  0  0  0  # atno 6907 bound_to 6896
  151.5255  135.1066  159.9899 H   0  0  0  0  0  0  0  0  0  0  0  0  # atno 6908 bound_to 6896
  152.4639  133.7836  159.6920 H   0  0  0  0  0  0  0  0  0  0  0  0  # atno 6909 bound_to 6896
  144.8751  140.6425  143.5242 H   0  0  0  0  0  0  0  0  0  0  0  0  # atno 7974 bound_to 7965
  155.1580  140.3281  155.4417 H   0  0  0  0  0  0  0  0  0  0  0  0  # atno 8008 bound_to 7997
  156.2552  140.1965  156.6639 H   0  0  0  0  0  0  0  0  0  0  0  0  # atno 8009 bound_to 7997
  154.6425  140.0568  156.9849 H   0  0  0  0  0  0  0  0  0  0  0  0  # atno 8010 bound_to 7997
  140.1891  144.4104  150.6579 H   0  0  0  0  0  0  0  0  0  0  0  0  # atno 10167 bound_to 10162
  156.3162  130.4259  149.8003 H   0  0  0  0  0  0  0  0  0  0  0  0  # atno 10718 bound_to 10713
  154.8061  135.4683  154.0397 H   0  0  0  0  0  0  0  0  0  0  0  0  # atno 10763 bound_to 10752
  153.1864  135.6848  153.8416 H   0  0  0  0  0  0  0  0  0  0  0  0  # atno 10764 bound_to 10752
  153.7949  135.3238  155.3360 H   0  0  0  0  0  0  0  0  0  0  0  0  # atno 10765 bound_to 10752
  140.4461  134.1272  155.7696 H   0  0  0  0  0  0  0  0  0  0  0  0  # atno 11005 bound_to 11000
  145.4057  139.1589  143.4153 LP  0  0  0  0  0  0  0  0  0  0  0  0  # atno 17320 bound_to 7965
  146.2957  140.4157  142.8722 LP  0  0  0  0  0  0  0  0  0  0  0  0  # atno 17321 bound_to 7965
  140.6468  143.2215  151.6167 LP  0  0  0  0  0  0  0  0  0  0  0  0  # atno 17342 bound_to 10162
  139.5263  144.3048  152.1043 LP  0  0  0  0  0  0  0  0  0  0  0  0  # atno 17343 bound_to 10162
  156.5328  130.8265  151.3243 LP  0  0  0  0  0  0  0  0  0  0  0  0  # atno 17370 bound_to 10713
  157.7402  130.9846  150.2362 LP  0  0  0  0  0  0  0  0  0  0  0  0  # atno 17371 bound_to 10713
  141.1684  133.8656  157.1644 LP  0  0  0  0  0  0  0  0  0  0  0  0  # atno 17394 bound_to 11000
  140.0038  135.0017  157.0247 LP  0  0  0  0  0  0  0  0  0  0  0  0  # atno 17395 bound_to 11000

$$$$
