AV-unprocessed.smi:1686|AV-procd|sdf|6764|dock3
  -GOLD-   22720 7523D 1   1.00000     0.00000
 Structure written by MMmdl.
 41 43  0  0  0  0  0  0  0  0  1 V2000
  155.6384  137.8823  162.6461 C   0  0  0  0  0  0  0  0  0  0  0  0
  154.7793  137.6623  161.4341 C   0  0  0  0  0  0  0  0  0  0  0  0
  154.2147  136.4769  161.2433 N   0  0  0  0  0  0  0  0  0  0  0  0
  153.4884  136.5734  160.0507 O   0  0  0  0  0  0  0  0  0  0  0  0
  153.6573  137.8321  159.5852 C   0  0  0  0  0  0  0  0  0  0  0  0
  152.9294  138.3776  158.1271 Cl  0  0  0  0  0  0  0  0  0  0  0  0
  154.4549  138.5857  160.3973 C   0  0  0  0  0  0  0  0  0  0  0  0
  154.8934  140.0201  160.2487 C   0  0  0  0  0  0  0  0  0  0  0  0
  153.6620  140.9208  160.1584 C   0  0  0  0  0  0  0  0  0  0  0  0
  153.3808  141.6732  161.0912 O   0  0  0  0  0  0  0  0  0  0  0  0
  152.9468  140.8453  159.0255 N   0  0  0  0  0  0  0  0  0  0  0  0
  151.7806  141.6649  158.7055 C   0  0  2  0  0  0  0  0  0  0  0  0
  151.0488  141.0780  157.4856 C   0  0  0  0  0  0  0  0  0  0  0  0
  152.2152  143.1303  158.4652 C   0  0  1  0  0  0  0  0  0  0  0  0
  151.1164  144.0373  157.8669 C   0  0  0  0  0  0  0  0  0  0  0  0
  151.1317  145.2630  158.7996 C   0  0  1  0  0  0  0  0  0  0  0  0
  150.4910  144.8808  160.1469 C   0  0  0  0  0  0  0  0  0  0  0  0
  151.5639  143.9829  160.7892 C   0  0  0  0  0  0  0  0  0  0  0  0
  152.6634  143.9401  159.7081 C   0  0  2  0  0  0  0  0  0  0  0  0
  152.6062  145.3662  159.1704 C   0  0  0  0  0  0  0  0  0  0  0  0
  156.4350  138.5973  162.4405 H   0  0  0  0  0  0  0  0  0  0  0  0
  156.1085  136.9557  162.9776 H   0  0  0  0  0  0  0  0  0  0  0  0
  155.0486  138.2719  163.4757 H   0  0  0  0  0  0  0  0  0  0  0  0
  155.5230  140.3327  161.0831 H   0  0  0  0  0  0  0  0  0  0  0  0
  155.4942  140.1614  159.3498 H   0  0  0  0  0  0  0  0  0  0  0  0
  153.2552  140.1980  158.3147 H   0  0  0  0  0  0  0  0  0  0  0  0
  151.0929  141.6416  159.5523 H   0  0  0  0  0  0  0  0  0  0  0  0
  150.1690  141.6682  157.2290 H   0  0  0  0  0  0  0  0  0  0  0  0
  150.7096  140.0599  157.6794 H   0  0  0  0  0  0  0  0  0  0  0  0
  151.6965  141.0504  156.6087 H   0  0  0  0  0  0  0  0  0  0  0  0
  153.0584  143.1165  157.7721 H   0  0  0  0  0  0  0  0  0  0  0  0
  151.3696  144.3195  156.8441 H   0  0  0  0  0  0  0  0  0  0  0  0
  150.1347  143.5626  157.8440 H   0  0  0  0  0  0  0  0  0  0  0  0
  150.7034  146.1595  158.3508 H   0  0  0  0  0  0  0  0  0  0  0  0
  150.3152  145.7655  160.7599 H   0  0  0  0  0  0  0  0  0  0  0  0
  149.5377  144.3661  160.0214 H   0  0  0  0  0  0  0  0  0  0  0  0
  151.9466  144.4444  161.7004 H   0  0  0  0  0  0  0  0  0  0  0  0
  151.1853  142.9983  161.0620 H   0  0  0  0  0  0  0  0  0  0  0  0
  153.6406  143.6463  160.0903 H   0  0  0  0  0  0  0  0  0  0  0  0
  153.2581  145.5350  158.3115 H   0  0  0  0  0  0  0  0  0  0  0  0
  152.8098  146.1249  159.9284 H   0  0  0  0  0  0  0  0  0  0  0  0
  1  2  1  0  0  0  0
  1 21  1  0  0  0  0
  1 22  1  0  0  0  0
  1 23  1  0  0  0  0
  2  7  1  0  0  0  0
  2  3  2  0  0  0  0
  3  4  1  0  0  0  0
  4  5  1  0  0  0  0
  5  6  1  0  0  0  0
  5  7  2  0  0  0  0
  7  8  1  0  0  0  0
  8  9  1  0  0  0  0
  8 24  1  0  0  0  0
  8 25  1  0  0  0  0
  9 10  2  0  0  0  0
  9 11  1  0  0  0  0
 11 12  1  0  0  0  0
 11 26  1  0  0  0  0
 12 13  1  0  0  0  0
 12 14  1  0  0  0  0
 12 27  1  0  0  0  0
 13 28  1  0  0  0  0
 13 29  1  0  0  0  0
 13 30  1  0  0  0  0
 14 19  1  0  0  0  0
 14 15  1  0  0  0  0
 14 31  1  0  0  0  0
 15 16  1  0  0  0  0
 15 32  1  0  0  0  0
 15 33  1  0  0  0  0
 16 20  1  0  0  0  0
 16 17  1  0  0  0  0
 16 34  1  0  0  0  0
 17 18  1  0  0  0  0
 17 35  1  0  0  0  0
 17 36  1  0  0  0  0
 18 19  1  0  0  0  0
 18 37  1  0  0  0  0
 18 38  1  0  0  0  0
 19 20  1  0  0  0  0
 19 39  1  0  0  0  0
 20 40  1  0  0  0  0
 20 41  1  0  0  0  0
M  END
> <s_m_source_file>
AV-unprocessed.smi

> <i_m_source_file_index>
1686

> <i_lp_mmshare_version>
43012

> <i_f3d_flags>
0

> <s_epik_input>
W0NIM11jMW5vYyhDbCljMVtDSDJdQyg9TylbTkhdW0NASF0oW0NIM10pW0NASF0oW0NIMl1bQ0BIXTIzKVtDQEhdKFtDSDJdMylbQ0gyXVtDSDJdMg==

> <s_epik_cmdline>
J2VwaWtfcHl0aG9uJywgJy1waCcsICc3LjAnLCAnLXRuJywgJzgnLCAnLW1hJywgJzIwMCcsICctbWV0YWxfYmluZGluZycsICctaW1hZScsICc8aW5maWxlLm1hZT4nLCAnLW9tYWUnLCAnPG91dGZpbGUubWFlPic=

> <r_lp_tautomer_probability>
1

> <r_epik_Ionization_Penalty>
2.01576e-08

> <r_epik_Ionization_Penalty_Charging>
0

> <r_epik_Ionization_Penalty_Neutral>
2.01576e-08

> <r_epik_State_Penalty>
-0

> <r_epik_Charging_Adjusted_Penalty>
0

> <i_epik_Tot_Q>
0

> <i_epik_Tot_abs_Q>
0

> <r_epik_Metal_State_Penalty>
-0

> <b_epik_Metal_Only>
0

> <s_lp_Force_Field>
OPLS_2005

> <r_lp_Energy>
45.5839

> <b_lp_Chiralities_Consistent>
1

> <s_lp_Variant>
AV-unprocessed.smi:1686-7

> <Gold.Version>
5.8.1

> <Gold.Id.Protein>
6NUR|6NUR_protein|mol2

> <Gold.PLP.Fitness>
40.4306

> <Gold.PLP.PLP>
-38.7316

> <Gold.PLP.part.hbond>
-0.7293

> <Gold.PLP.part.metal>
0.0000

> <Gold.PLP.part.buried>
-5.7820

> <Gold.PLP.part.nonpolar>
-30.9975

> <Gold.PLP.part.repulsive>
0.1212

> <Gold.PLP.ligand.clash>
0.0000

> <Gold.PLP.ligand.torsion>
0.3780

> <Gold.PLP.Chemscore.Hbond>
0.8125

> <Gold.PLP.Chemscore.CHOScore>
0.0000

> <Gold.PLP.Chemscore.Metal>
0.0000

> <Gold.Chemscore.Hbonds>
donor molecule, donor type, donor heavy atom, donor atom, acceptor molecule, acceptor atom, score
      P1  H  6896  6908       L1     4  0.86

> <Gold.PLP.Chemscore.Internal.Correction>
0.0174

> <Gold.Rescore>
     Score         DG    S(hbond)    S(metal)    S(lipo)     H(rot)  DE(clash)    DE(int)     intcor
     16.47     -19.96       0.99        0.00     127.52       1.46       0.06       3.43       ----

> <Gold.Chemscore.Fitness>
16.4654

> <Gold.Chemscore.DG>
-19.9622

> <Gold.Chemscore.ZeroCoef>
-5.4800

> <Gold.Chemscore.Hbond>
0.9918

> <Gold.Chemscore.Metal>
0.0000

> <Gold.Chemscore.Lipo>
127.5179

> <Gold.Chemscore.Internal_Hbond>
0.0000

> <Gold.Chemscore.DEClash>
0.0624

> <Gold.Chemscore.DEInternal>
3.4343

> <Gold.Chemscore.Rot>
1.4648

> <Gold.Chemscore.Internal.Correction>
   9.000000E+99

> <Gold.Chemscore.Hbonds>
donor molecule, donor type, donor heavy atom, donor atom, acceptor molecule, acceptor atom, score
      P1  H  6896  6908       L1     4  0.51

> <Gold.Chemscore.Hbond.Weighted>
-3.3125

> <Gold.Chemscore.Metal.Weighted>
-0.0000

> <Gold.Chemscore.Lipo.Weighted>
-14.9196

> <Gold.Chemscore.Internal_Hbond.Weighted>
0.0000

> <Gold.Chemscore.DEClash.Weighted>
0.0624

> <Gold.Chemscore.DEInternal.Weighted>
3.4343

> <Gold.Chemscore.Rot.Weighted>
3.7500

> <Gold.Chemscore.Internal.Correction.Weighted>
   9.000000E+99

> <Gold.Protein.RotatedTorsions>
[ 6907 6896 6895 6894 ] final  -88.64 input  -60.11 | X-H torsion
[ 7974 7965 7964 7962 ] final -175.47 input  175.53 | X-H torsion
[ 8008 7997 7996 7995 ] final   45.09 input   59.86 | X-H torsion
[ 10167 10162 10161 10158 ] final  153.86 input  -65.29 | X-H torsion
[ 10718 10713 10712 10709 ] final   65.54 input   66.30 | X-H torsion
[ 10763 10752 10751 10750 ] final -130.48 input  -60.55 | X-H torsion
[ 11005 11000 10999 10996 ] final -118.81 input  -57.11 | X-H torsion

> <Gold.Protein.ActiveResidues>
 VAL166  LYS551  ARG553  GLY616  TRP617  ASP618  TYR619  PRO620  LYS621  CYS622 
 ASP623  PHE694  ASN695  SER759  ASP760  ASP761  ALA762  ILE779  LEU786  VAL792 
 PHE793  MET794  SER795  GLU796  ALA797  LYS798  CYS799  TRP800  GLU811  SER814 

> <Gold.Protein.RotatedAtoms>
  150.6869  134.2710  159.4587 H   0  0  0  0  0  0  0  0  0  0  0  0  # atno 6907 bound_to 6896
  152.0632  134.9578  160.0584 H   0  0  0  0  0  0  0  0  0  0  0  0  # atno 6908 bound_to 6896
  152.0997  133.4208  159.4618 H   0  0  0  0  0  0  0  0  0  0  0  0  # atno 6909 bound_to 6896
  144.7128  140.1316  143.6398 H   0  0  0  0  0  0  0  0  0  0  0  0  # atno 7974 bound_to 7965
  155.3302  140.3402  155.4239 H   0  0  0  0  0  0  0  0  0  0  0  0  # atno 8008 bound_to 7997
  156.1865  140.1682  156.8211 H   0  0  0  0  0  0  0  0  0  0  0  0  # atno 8009 bound_to 7997
  154.5392  140.0728  156.8465 H   0  0  0  0  0  0  0  0  0  0  0  0  # atno 8010 bound_to 7997
  139.4825  144.5236  151.7836 H   0  0  0  0  0  0  0  0  0  0  0  0  # atno 10167 bound_to 10162
  157.6112  130.9219  149.9990 H   0  0  0  0  0  0  0  0  0  0  0  0  # atno 10718 bound_to 10713
  154.8755  135.3861  154.4090 H   0  0  0  0  0  0  0  0  0  0  0  0  # atno 10763 bound_to 10752
  153.4806  135.7030  153.5945 H   0  0  0  0  0  0  0  0  0  0  0  0  # atno 10764 bound_to 10752
  153.4363  135.3866  155.2168 H   0  0  0  0  0  0  0  0  0  0  0  0  # atno 10765 bound_to 10752
  141.0260  134.0053  157.3214 H   0  0  0  0  0  0  0  0  0  0  0  0  # atno 11005 bound_to 11000
  145.9282  139.2589  143.1341 LP  0  0  0  0  0  0  0  0  0  0  0  0  # atno 17320 bound_to 7965
  145.9550  140.8879  143.0239 LP  0  0  0  0  0  0  0  0  0  0  0  0  # atno 17321 bound_to 7965
  140.4753  144.1527  150.5924 LP  0  0  0  0  0  0  0  0  0  0  0  0  # atno 17342 bound_to 10162
  140.4337  143.2557  151.9563 LP  0  0  0  0  0  0  0  0  0  0  0  0  # atno 17343 bound_to 10162
  156.1215  130.3646  149.9879 LP  0  0  0  0  0  0  0  0  0  0  0  0  # atno 17370 bound_to 10713
  156.7958  130.9272  151.3646 LP  0  0  0  0  0  0  0  0  0  0  0  0  # atno 17371 bound_to 10713
  139.9176  135.0198  156.7942 LP  0  0  0  0  0  0  0  0  0  0  0  0  # atno 17394 bound_to 11000
  140.6491  133.9748  155.7746 LP  0  0  0  0  0  0  0  0  0  0  0  0  # atno 17395 bound_to 11000

$$$$
