AV-unprocessed.smi:1133|AV-procd|sdf|4856|dock4
  -GOLD-   22720 3423D 1   1.00000     0.00000
 Structure written by MMmdl.
 41 42  0  0  0  0  0  0  0  0  1 V2000
  152.7139  142.3402  161.9698 C   0  0  0  0  0  0  0  0  0  0  0  0
  152.4719  143.5881  161.1174 C   0  0  0  0  0  0  0  0  0  0  0  0
  152.0464  144.5980  161.6785 O   0  0  0  0  0  0  0  0  0  0  0  0
  152.7355  143.5445  159.7892 N   0  0  0  0  0  0  0  0  0  0  0  0
  153.1646  142.3194  159.1049 C   0  0  0  0  0  0  0  0  0  0  0  0
  152.0101  141.8167  158.2193 C   0  0  0  0  0  0  0  0  0  0  0  0
  151.5470  142.9045  157.2261 C   0  0  0  0  0  0  0  0  0  0  0  0
  150.3361  142.4612  156.5423 N   0  0  0  0  0  0  0  0  0  0  0  0
  150.2488  141.3845  155.7488 C   0  0  0  0  0  0  0  0  0  0  0  0
  151.1871  140.6237  155.5109 O   0  0  0  0  0  0  0  0  0  0  0  0
  149.0183  141.2406  155.2376 N   0  0  0  0  0  0  0  0  0  0  0  0
  148.6134  140.1746  154.3290 C   0  0  0  0  0  0  0  0  0  0  0  0
  147.0925  140.1714  154.1007 C   0  0  0  0  0  0  0  0  0  0  0  0
  146.7095  139.2026  153.0945 N   0  0  0  0  0  0  0  0  0  0  0  0
  145.9905  138.0308  153.2890 C   0  0  0  0  0  0  0  0  0  0  0  0
  145.8682  137.4359  152.0535 C   0  0  0  0  0  0  0  0  0  0  0  0
  146.5023  138.2183  151.0913 N   0  0  0  0  0  0  0  0  0  0  0  0
  146.9766  139.2471  151.7821 C   0  0  0  0  0  0  0  0  0  0  0  0
  151.3032  144.2550  157.9396 C   0  0  0  0  0  0  0  0  0  0  0  0
  152.4930  144.6361  158.8382 C   0  0  0  0  0  0  0  0  0  0  0  0
  153.7551  142.0225  161.9046 H   0  0  0  0  0  0  0  0  0  0  0  0
  152.0710  141.5210  161.6469 H   0  0  0  0  0  0  0  0  0  0  0  0
  152.4936  142.5425  163.0185 H   0  0  0  0  0  0  0  0  0  0  0  0
  154.0420  142.5340  158.4928 H   0  0  0  0  0  0  0  0  0  0  0  0
  153.4713  141.5340  159.7969 H   0  0  0  0  0  0  0  0  0  0  0  0
  152.3195  140.9221  157.6777 H   0  0  0  0  0  0  0  0  0  0  0  0
  151.1769  141.5191  158.8581 H   0  0  0  0  0  0  0  0  0  0  0  0
  152.3438  143.0415  156.4923 H   0  0  0  0  0  0  0  0  0  0  0  0
  149.5076  143.0227  156.6748 H   0  0  0  0  0  0  0  0  0  0  0  0
  148.3131  141.9174  155.4907 H   0  0  0  0  0  0  0  0  0  0  0  0
  149.1443  140.2737  153.3804 H   0  0  0  0  0  0  0  0  0  0  0  0
  148.9261  139.2241  154.7623 H   0  0  0  0  0  0  0  0  0  0  0  0
  146.5674  139.9369  155.0277 H   0  0  0  0  0  0  0  0  0  0  0  0
  146.7457  141.1546  153.7795 H   0  0  0  0  0  0  0  0  0  0  0  0
  145.6356  137.7259  154.2625 H   0  0  0  0  0  0  0  0  0  0  0  0
  145.3777  136.5119  151.7853 H   0  0  0  0  0  0  0  0  0  0  0  0
  147.5334  140.0511  151.3232 H   0  0  0  0  0  0  0  0  0  0  0  0
  151.1263  145.0423  157.2059 H   0  0  0  0  0  0  0  0  0  0  0  0
  150.4009  144.1936  158.5502 H   0  0  0  0  0  0  0  0  0  0  0  0
  152.3059  145.5976  159.3141 H   0  0  0  0  0  0  0  0  0  0  0  0
  153.3857  144.7846  158.2288 H   0  0  0  0  0  0  0  0  0  0  0  0
  1  2  1  0  0  0  0
  1 21  1  0  0  0  0
  1 22  1  0  0  0  0
  1 23  1  0  0  0  0
  2  3  2  0  0  0  0
  2  4  1  0  0  0  0
  4 20  1  0  0  0  0
  4  5  1  0  0  0  0
  5  6  1  0  0  0  0
  5 24  1  0  0  0  0
  5 25  1  0  0  0  0
  6  7  1  0  0  0  0
  6 26  1  0  0  0  0
  6 27  1  0  0  0  0
  7  8  1  0  0  0  0
  7 19  1  0  0  0  0
  7 28  1  0  0  0  0
  8  9  1  0  0  0  0
  8 29  1  0  0  0  0
  9 10  2  0  0  0  0
  9 11  1  0  0  0  0
 11 12  1  0  0  0  0
 11 30  1  0  0  0  0
 12 13  1  0  0  0  0
 12 31  1  0  0  0  0
 12 32  1  0  0  0  0
 13 14  1  0  0  0  0
 13 33  1  0  0  0  0
 13 34  1  0  0  0  0
 14 18  1  0  0  0  0
 14 15  1  0  0  0  0
 15 16  2  0  0  0  0
 15 35  1  0  0  0  0
 16 17  1  0  0  0  0
 16 36  1  0  0  0  0
 17 18  2  0  0  0  0
 18 37  1  0  0  0  0
 19 20  1  0  0  0  0
 19 38  1  0  0  0  0
 19 39  1  0  0  0  0
 20 40  1  0  0  0  0
 20 41  1  0  0  0  0
M  END
> <s_m_source_file>
AV-unprocessed.smi

> <i_m_source_file_index>
1133

> <i_lp_mmshare_version>
43012

> <i_f3d_flags>
0

> <s_epik_input>
W0NIM11DKD1PKU4xW0NIMl1bQ0gyXVtDSF0oW0NIMl1bQ0gyXTEpW05IXUMoPU8pW05IXVtDSDJdW0NIMl1uMltjSF1bY0hdbltjSF0y

> <s_epik_cmdline>
J2VwaWtfcHl0aG9uJywgJy1waCcsICc3LjAnLCAnLXRuJywgJzgnLCAnLW1hJywgJzIwMCcsICctbWV0YWxfYmluZGluZycsICctaW1hZScsICc8aW5maWxlLm1hZT4nLCAnLW9tYWUnLCAnPG91dGZpbGUubWFlPic=

> <r_lp_tautomer_probability>
1

> <r_epik_Ionization_Penalty>
0.622276

> <r_epik_Ionization_Penalty_Charging>
0.622222

> <r_epik_Ionization_Penalty_Neutral>
5.3634e-05

> <r_epik_State_Penalty>
0.638348

> <r_epik_Charging_Adjusted_Penalty>
1.26057

> <i_epik_Tot_Q>
0

> <i_epik_Tot_abs_Q>
0

> <r_epik_Metal_State_Penalty>
0.307013

> <b_epik_Metal_Only>
0

> <s_lp_Force_Field>
OPLS_2005

> <r_lp_Energy>
21.3303

> <b_lp_Chiralities_Consistent>
1

> <s_lp_Variant>
AV-unprocessed.smi:1133-2

> <Gold.Version>
5.8.1

> <Gold.Id.Protein>
6NUR|6NUR_protein|mol2

> <Gold.PLP.Fitness>
51.6446

> <Gold.PLP.PLP>
-42.3588

> <Gold.PLP.part.hbond>
-3.0000

> <Gold.PLP.part.metal>
0.0000

> <Gold.PLP.part.buried>
-4.0475

> <Gold.PLP.part.nonpolar>
-39.8101

> <Gold.PLP.part.repulsive>
3.4869

> <Gold.PLP.ligand.clash>
0.0000

> <Gold.PLP.ligand.torsion>
0.1373

> <Gold.PLP.Chemscore.Hbond>
2.3803

> <Gold.PLP.Chemscore.CHOScore>
0.7973

> <Gold.PLP.Chemscore.Metal>
0.0000

> <Gold.Chemscore.Hbonds>
donor molecule, donor type, donor heavy atom, donor atom, acceptor molecule, acceptor atom, score
      L1  H     8    29       P1  8028  0.53
      P1  H  7954  7966       L1    17  0.80
      P1  H  7989  7998       L1    10  0.77
      L1  C    18    37       P1  7957  0.87

> <Gold.PLP.Chemscore.Internal.Correction>
0.0273

> <Gold.Rescore>
     Score         DG    S(hbond)    S(metal)    S(lipo)     H(rot)  DE(clash)    DE(int)     intcor
     11.79     -15.41       1.29        0.00      92.02       2.01       3.53       0.09       ----

> <Gold.Chemscore.Fitness>
11.7907

> <Gold.Chemscore.DG>
-15.4100

> <Gold.Chemscore.ZeroCoef>
-5.4800

> <Gold.Chemscore.Hbond>
1.2916

> <Gold.Chemscore.Metal>
0.0000

> <Gold.Chemscore.Lipo>
92.0220

> <Gold.Chemscore.Internal_Hbond>
0.0000

> <Gold.Chemscore.DEClash>
3.5324

> <Gold.Chemscore.DEInternal>
0.0870

> <Gold.Chemscore.Rot>
2.0119

> <Gold.Chemscore.Internal.Correction>
   9.000000E+99

> <Gold.Chemscore.Hbonds>
donor molecule, donor type, donor heavy atom, donor atom, acceptor molecule, acceptor atom, score
      L1  H     8    29       P1  8028  0.52
      P1  H  7954  7966       L1    17  0.15
      P1  H  7989  7998       L1    10  0.40

> <Gold.Chemscore.Hbond.Weighted>
-4.3138

> <Gold.Chemscore.Metal.Weighted>
-0.0000

> <Gold.Chemscore.Lipo.Weighted>
-10.7666

> <Gold.Chemscore.Internal_Hbond.Weighted>
0.0000

> <Gold.Chemscore.DEClash.Weighted>
3.5324

> <Gold.Chemscore.DEInternal.Weighted>
0.0870

> <Gold.Chemscore.Rot.Weighted>
5.1503

> <Gold.Chemscore.Internal.Correction.Weighted>
   9.000000E+99

> <Gold.Protein.RotatedTorsions>
[ 6907 6896 6895 6894 ] final  158.47 input  -60.11 | X-H torsion
[ 7974 7965 7964 7962 ] final  -86.71 input  175.53 | X-H torsion
[ 8008 7997 7996 7995 ] final  -21.72 input   59.86 | X-H torsion
[ 10167 10162 10161 10158 ] final   78.67 input  -65.29 | X-H torsion
[ 10718 10713 10712 10709 ] final -137.04 input   66.30 | X-H torsion
[ 10763 10752 10751 10750 ] final -160.81 input  -60.55 | X-H torsion
[ 11005 11000 10999 10996 ] final   33.10 input  -57.11 | X-H torsion

> <Gold.Protein.ActiveResidues>
 VAL166  LYS551  ARG553  GLY616  TRP617  ASP618  TYR619  PRO620  LYS621  CYS622 
 ASP623  PHE694  ASN695  SER759  ASP760  ASP761  ALA762  ILE779  LEU786  VAL792 
 PHE793  MET794  SER795  GLU796  ALA797  LYS798  CYS799  TRP800  GLU811  SER814 

> <Gold.Protein.RotatedAtoms>
  151.9999  133.3821  159.4177 H   0  0  0  0  0  0  0  0  0  0  0  0  # atno 6907 bound_to 6896
  150.6911  134.3845  159.5058 H   0  0  0  0  0  0  0  0  0  0  0  0  # atno 6908 bound_to 6896
  152.1591  134.8926  160.0593 H   0  0  0  0  0  0  0  0  0  0  0  0  # atno 6909 bound_to 6896
  145.4762  140.9558  143.1890 H   0  0  0  0  0  0  0  0  0  0  0  0  # atno 7974 bound_to 7965
  154.4688  140.2027  156.0049 H   0  0  0  0  0  0  0  0  0  0  0  0  # atno 8008 bound_to 7997
  156.0974  140.3249  155.7867 H   0  0  0  0  0  0  0  0  0  0  0  0  # atno 8009 bound_to 7997
  155.4855  140.0542  157.2952 H   0  0  0  0  0  0  0  0  0  0  0  0  # atno 8010 bound_to 7997
  139.9685  144.5911  150.8007 H   0  0  0  0  0  0  0  0  0  0  0  0  # atno 10167 bound_to 10162
  156.2837  130.7335  151.1340 H   0  0  0  0  0  0  0  0  0  0  0  0  # atno 10718 bound_to 10713
  154.7358  135.3057  154.8814 H   0  0  0  0  0  0  0  0  0  0  0  0  # atno 10763 bound_to 10752
  153.9643  135.6749  153.4750 H   0  0  0  0  0  0  0  0  0  0  0  0  # atno 10764 bound_to 10752
  153.0961  135.4935  154.8704 H   0  0  0  0  0  0  0  0  0  0  0  0  # atno 10765 bound_to 10752
  140.2666  134.3131  155.7841 H   0  0  0  0  0  0  0  0  0  0  0  0  # atno 11005 bound_to 11000
  144.7916  139.6317  143.7111 LP  0  0  0  0  0  0  0  0  0  0  0  0  # atno 17320 bound_to 7965
  146.2368  139.5921  142.9518 LP  0  0  0  0  0  0  0  0  0  0  0  0  # atno 17321 bound_to 7965
  140.7530  143.3000  151.3104 LP  0  0  0  0  0  0  0  0  0  0  0  0  # atno 17342 bound_to 10162
  139.6499  144.0381  152.2619 LP  0  0  0  0  0  0  0  0  0  0  0  0  # atno 17343 bound_to 10162
  157.7322  131.0601  150.5639 LP  0  0  0  0  0  0  0  0  0  0  0  0  # atno 17370 bound_to 10713
  156.5748  130.4289  149.6003 LP  0  0  0  0  0  0  0  0  0  0  0  0  # atno 17371 bound_to 10713
  141.2183  133.7441  156.9269 LP  0  0  0  0  0  0  0  0  0  0  0  0  # atno 17394 bound_to 11000
  140.1413  134.9291  157.2471 LP  0  0  0  0  0  0  0  0  0  0  0  0  # atno 17395 bound_to 11000

$$$$
