AV-unprocessed.smi:2427|AV-procd|sdf|9579|dock2
  -GOLD-   2272013213D 1   1.00000     0.00000
 Structure written by MMmdl.
 35 36  0  0  0  0  0  0  0  0  3 V2000
  146.2573  137.9793  155.6682 O   0  0  0  0  0  0  0  0  0  0  0  0
  146.6709  137.7968  154.5221 C   0  0  0  0  0  0  0  0  0  0  0  0
  147.2899  138.9438  153.7097 C   0  0  0  0  0  0  0  0  0  0  0  0
  148.4453  139.5752  154.3695 N   0  0  0  0  0  0  0  0  0  0  0  0
  149.6901  138.9303  154.2304 C   0  0  0  0  0  0  0  0  0  0  0  0
  150.8138  139.4132  154.7956 C   0  0  0  0  0  0  0  0  0  0  0  0
  152.0826  138.7347  154.6466 N   0  3  0  0  0  0  0  0  0  0  0  0
  152.0819  137.5335  154.3968 O   0  0  0  0  0  0  0  0  0  0  0  0
  153.1205  139.3776  154.7746 O   0  5  0  0  0  0  0  0  0  0  0  0
  150.7087  140.6377  155.5652 C   0  0  0  0  0  0  0  0  0  0  0  0
  149.5199  141.2568  155.7061 C   0  0  0  0  0  0  0  0  0  0  0  0
  148.2976  140.7273  155.0927 C   0  0  0  0  0  0  0  0  0  0  0  0
  147.2079  141.2857  155.2215 O   0  0  0  0  0  0  0  0  0  0  0  0
  146.6269  136.6050  153.9083 N   0  0  0  0  0  0  0  0  0  0  0  0
  146.0935  135.3789  154.4904 C   0  0  0  0  0  0  0  0  0  0  0  0
  146.4506  134.1444  153.6453 C   0  0  1  0  0  0  0  0  0  0  0  0
  146.0263  134.2534  152.1813 C   0  0  0  0  0  0  0  0  0  0  0  0
  147.0205  133.3644  151.4477 C   0  0  0  0  0  0  0  0  0  0  0  0
  148.0975  133.0625  152.4933 C   0  0  0  0  0  0  0  0  0  0  0  0
  147.8571  133.9886  153.5425 O   0  0  0  0  0  0  0  0  0  0  0  0
  147.5791  138.5533  152.7329 H   0  0  0  0  0  0  0  0  0  0  0  0
  146.5186  139.6873  153.5004 H   0  0  0  0  0  0  0  0  0  0  0  0
  149.6611  138.0225  153.6449 H   0  0  0  0  0  0  0  0  0  0  0  0
  151.5816  141.0662  156.0354 H   0  0  0  0  0  0  0  0  0  0  0  0
  149.4642  142.1667  156.2856 H   0  0  0  0  0  0  0  0  0  0  0  0
  146.9954  136.5396  152.9705 H   0  0  0  0  0  0  0  0  0  0  0  0
  146.4694  135.2612  155.5082 H   0  0  0  0  0  0  0  0  0  0  0  0
  145.0107  135.4798  154.5699 H   0  0  0  0  0  0  0  0  0  0  0  0
  146.0239  133.2392  154.0816 H   0  0  0  0  0  0  0  0  0  0  0  0
  144.9904  133.9507  152.0246 H   0  0  0  0  0  0  0  0  0  0  0  0
  146.1313  135.2811  151.8308 H   0  0  0  0  0  0  0  0  0  0  0  0
  146.5564  132.4443  151.0910 H   0  0  0  0  0  0  0  0  0  0  0  0
  147.4374  133.8860  150.5855 H   0  0  0  0  0  0  0  0  0  0  0  0
  147.9842  132.0480  152.8786 H   0  0  0  0  0  0  0  0  0  0  0  0
  149.1084  133.1654  152.0979 H   0  0  0  0  0  0  0  0  0  0  0  0
  1  2  2  0  0  0  0
  2  3  1  0  0  0  0
  2 14  1  0  0  0  0
  3  4  1  0  0  0  0
  3 21  1  0  0  0  0
  3 22  1  0  0  0  0
  4 12  1  0  0  0  0
  4  5  1  0  0  0  0
  5  6  2  0  0  0  0
  5 23  1  0  0  0  0
  6  7  1  0  0  0  0
  6 10  1  0  0  0  0
  7  8  2  0  0  0  0
  7  9  1  0  0  0  0
 10 11  2  0  0  0  0
 10 24  1  0  0  0  0
 11 12  1  0  0  0  0
 11 25  1  0  0  0  0
 12 13  2  0  0  0  0
 14 15  1  0  0  0  0
 14 26  1  0  0  0  0
 15 16  1  0  0  0  0
 15 27  1  0  0  0  0
 15 28  1  0  0  0  0
 16 20  1  0  0  0  0
 16 17  1  0  0  0  0
 16 29  1  0  0  0  0
 17 18  1  0  0  0  0
 17 30  1  0  0  0  0
 17 31  1  0  0  0  0
 18 19  1  0  0  0  0
 18 32  1  0  0  0  0
 18 33  1  0  0  0  0
 19 20  1  0  0  0  0
 19 34  1  0  0  0  0
 19 35  1  0  0  0  0
M  CHG  1   7   1
M  CHG  1   9  -1
M  END
> <s_m_source_file>
AV-unprocessed.smi

> <i_m_source_file_index>
2427

> <i_lp_mmshare_version>
43012

> <i_f3d_flags>
0

> <s_epik_input>
TzFbQ0gyXVtDSDJdW0NIMl1bQ0BIXTFbQ0gyXVtOSF1DKD1PKVtDSDJdbjJbY0hdYyhbTitdKD1PKVtPLV0pW2NIXVtjSF1jMj1P

> <s_epik_cmdline>
J2VwaWtfcHl0aG9uJywgJy1waCcsICc3LjAnLCAnLXRuJywgJzgnLCAnLW1hJywgJzIwMCcsICctbWV0YWxfYmluZGluZycsICctaW1hZScsICc8aW5maWxlLm1hZT4nLCAnLW9tYWUnLCAnPG91dGZpbGUubWFlPic=

> <r_lp_tautomer_probability>
1

> <r_epik_Ionization_Penalty>
2.69366e-08

> <r_epik_Ionization_Penalty_Charging>
7.76344e-11

> <r_epik_Ionization_Penalty_Neutral>
2.6859e-08

> <r_epik_State_Penalty>
-0

> <r_epik_Charging_Adjusted_Penalty>
7.76344e-11

> <i_epik_Tot_Q>
0

> <i_epik_Tot_abs_Q>
2

> <r_epik_Metal_State_Penalty>
-0

> <b_epik_Metal_Only>
0

> <s_lp_Force_Field>
OPLS_2005

> <r_lp_Energy>
28.9532

> <b_lp_Chiralities_Consistent>
1

> <s_lp_Variant>
AV-unprocessed.smi:2427-2

> <Gold.Version>
5.8.1

> <Gold.Id.Protein>
6NUR|6NUR_protein|mol2

> <Gold.PLP.Fitness>
42.5261

> <Gold.PLP.PLP>
-32.6434

> <Gold.PLP.part.hbond>
-3.0000

> <Gold.PLP.part.metal>
0.0000

> <Gold.PLP.part.buried>
-1.1582

> <Gold.PLP.part.nonpolar>
-28.8483

> <Gold.PLP.part.repulsive>
1.0391

> <Gold.PLP.ligand.clash>
0.0000

> <Gold.PLP.ligand.torsion>
0.6337

> <Gold.PLP.Chemscore.Hbond>
2.6960

> <Gold.PLP.Chemscore.CHOScore>
1.0000

> <Gold.PLP.Chemscore.Metal>
0.0000

> <Gold.Chemscore.Hbonds>
donor molecule, donor type, donor heavy atom, donor atom, acceptor molecule, acceptor atom, score
      L1  H    14    26       P1  7948  0.34
      P1  H  7997  8009       L1     9  1.00
      P1  H 10752 10764       L1     8  0.46
      L1  C     5    23       P1  7948  0.85

> <Gold.PLP.Chemscore.Internal.Correction>
0.0622

> <Gold.Rescore>
     Score         DG    S(hbond)    S(metal)    S(lipo)     H(rot)  DE(clash)    DE(int)     intcor
     14.68     -15.80       2.78        0.00      50.51       1.90       0.02       1.10       ----

> <Gold.Chemscore.Fitness>
14.6793

> <Gold.Chemscore.DG>
-15.7982

> <Gold.Chemscore.ZeroCoef>
-5.4800

> <Gold.Chemscore.Hbond>
2.7796

> <Gold.Chemscore.Metal>
0.0000

> <Gold.Chemscore.Lipo>
50.5104

> <Gold.Chemscore.Internal_Hbond>
0.0000

> <Gold.Chemscore.DEClash>
0.0239

> <Gold.Chemscore.DEInternal>
1.0951

> <Gold.Chemscore.Rot>
1.9044

> <Gold.Chemscore.Internal.Correction>
   9.000000E+99

> <Gold.Chemscore.Hbonds>
donor molecule, donor type, donor heavy atom, donor atom, acceptor molecule, acceptor atom, score
      L1  H    14    26       P1  7948  0.34
      P1  H  7997  8009       L1     9  1.00
      P1  H 10752 10764       L1     8  0.47

> <Gold.Chemscore.Hbond.Weighted>
-9.2838

> <Gold.Chemscore.Metal.Weighted>
-0.0000

> <Gold.Chemscore.Lipo.Weighted>
-5.9097

> <Gold.Chemscore.Internal_Hbond.Weighted>
0.0000

> <Gold.Chemscore.DEClash.Weighted>
0.0239

> <Gold.Chemscore.DEInternal.Weighted>
1.0951

> <Gold.Chemscore.Rot.Weighted>
4.8753

> <Gold.Chemscore.Internal.Correction.Weighted>
   9.000000E+99

> <Gold.Protein.RotatedTorsions>
[ 6907 6896 6895 6894 ] final -110.18 input  -60.11 | X-H torsion
[ 7974 7965 7964 7962 ] final   70.40 input  175.53 | X-H torsion
[ 8008 7997 7996 7995 ] final -122.97 input   59.86 | X-H torsion
[ 10167 10162 10161 10158 ] final  -96.57 input  -65.29 | X-H torsion
[ 10718 10713 10712 10709 ] final  143.20 input   66.30 | X-H torsion
[ 10763 10752 10751 10750 ] final  -54.92 input  -60.55 | X-H torsion
[ 11005 11000 10999 10996 ] final -161.56 input  -57.11 | X-H torsion

> <Gold.Protein.ActiveResidues>
 VAL166  LYS551  ARG553  GLY616  TRP617  ASP618  TYR619  PRO620  LYS621  CYS622 
 ASP623  PHE694  ASN695  SER759  ASP760  ASP761  ALA762  ILE779  LEU786  VAL792 
 PHE793  MET794  SER795  GLU796  ALA797  LYS798  CYS799  TRP800  GLU811  SER814 

> <Gold.Protein.RotatedAtoms>
  150.7609  133.9419  159.3458 H   0  0  0  0  0  0  0  0  0  0  0  0  # atno 6907 bound_to 6896
  151.7328  135.0869  160.0312 H   0  0  0  0  0  0  0  0  0  0  0  0  # atno 6908 bound_to 6896
  152.3578  133.6222  159.6028 H   0  0  0  0  0  0  0  0  0  0  0  0  # atno 6909 bound_to 6896
  145.7786  139.2877  143.1279 H   0  0  0  0  0  0  0  0  0  0  0  0  # atno 7974 bound_to 7965
  155.1730  140.0408  157.2866 H   0  0  0  0  0  0  0  0  0  0  0  0  # atno 8008 bound_to 7997
  154.6256  140.2511  155.7468 H   0  0  0  0  0  0  0  0  0  0  0  0  # atno 8009 bound_to 7997
  156.2457  140.2886  156.0585 H   0  0  0  0  0  0  0  0  0  0  0  0  # atno 8010 bound_to 7997
  140.2924  143.3213  152.0332 H   0  0  0  0  0  0  0  0  0  0  0  0  # atno 10167 bound_to 10162
  157.3717  131.0980  151.0822 H   0  0  0  0  0  0  0  0  0  0  0  0  # atno 10718 bound_to 10713
  154.1825  135.6441  153.5038 H   0  0  0  0  0  0  0  0  0  0  0  0  # atno 10763 bound_to 10752
  153.0055  135.5409  154.6499 H   0  0  0  0  0  0  0  0  0  0  0  0  # atno 10764 bound_to 10752
  154.5867  135.2930  155.0650 H   0  0  0  0  0  0  0  0  0  0  0  0  # atno 10765 bound_to 10752
  140.6190  134.4770  157.5222 H   0  0  0  0  0  0  0  0  0  0  0  0  # atno 11005 bound_to 11000
  146.0097  140.8446  142.9977 LP  0  0  0  0  0  0  0  0  0  0  0  0  # atno 17320 bound_to 7965
  144.6800  140.2472  143.7336 LP  0  0  0  0  0  0  0  0  0  0  0  0  # atno 17321 bound_to 7965
  139.4935  144.6515  151.6665 LP  0  0  0  0  0  0  0  0  0  0  0  0  # atno 17342 bound_to 10162
  140.5721  144.0091  150.6222 LP  0  0  0  0  0  0  0  0  0  0  0  0  # atno 17343 bound_to 10162
  157.1924  130.6358  149.5709 LP  0  0  0  0  0  0  0  0  0  0  0  0  # atno 17370 bound_to 10713
  155.9757  130.4718  150.6476 LP  0  0  0  0  0  0  0  0  0  0  0  0  # atno 17371 bound_to 10713
  139.9161  134.8243  156.1362 LP  0  0  0  0  0  0  0  0  0  0  0  0  # atno 17394 bound_to 11000
  141.0756  133.6777  156.2229 LP  0  0  0  0  0  0  0  0  0  0  0  0  # atno 17395 bound_to 11000

$$$$
