AV-unprocessed.smi:3227|AV-procd|sdf|12318|dock3
  -GOLD-   2272018163D 1   1.00000     0.00000
 Structure written by MMmdl.
 38 39  0  0  0  0  0  0  0  0  2 V2000
  146.0394  142.7369  156.2252 C   0  0  0  0  0  0  0  0  0  0  0  0
  146.4979  142.6681  154.8425 N   0  0  0  0  0  0  0  0  0  0  0  0
  145.7440  143.4242  153.8497 C   0  0  0  0  0  0  0  0  0  0  0  0
  147.1132  141.4632  154.4327 C   0  0  0  0  0  0  0  0  0  0  0  0
  146.4207  140.6499  153.5959 N   0  3  0  0  0  0  0  0  0  0  0  0
  146.8829  139.4682  153.1373 C   0  0  0  0  0  0  0  0  0  0  0  0
  148.1601  139.0237  153.5199 C   0  0  0  0  0  0  0  0  0  0  0  0
  148.9328  139.8271  154.3797 C   0  0  0  0  0  0  0  0  0  0  0  0
  148.4117  141.0572  154.8563 C   0  0  0  0  0  0  0  0  0  0  0  0
  149.1869  141.9228  155.6774 N   0  0  0  0  0  0  0  0  0  0  0  0
  150.3299  141.6484  156.3320 C   0  0  0  0  0  0  0  0  0  0  0  0
  150.9347  140.5792  156.2648 O   0  0  0  0  0  0  0  0  0  0  0  0
  150.8764  142.7720  157.2108 C   0  0  0  0  0  0  0  0  0  0  0  0
  151.8567  142.2328  158.0837 O   0  0  0  0  0  0  0  0  0  0  0  0
  152.5420  143.2260  158.8242 C   0  0  0  0  0  0  0  0  0  0  0  0
  151.5460  143.9364  159.7150 C   0  0  0  0  0  0  0  0  0  0  0  0
  151.8187  145.3429  160.1963 C   0  0  0  0  0  0  0  0  0  0  0  0
  151.8565  144.1933  161.1718 C   0  0  0  0  0  0  0  0  0  0  0  0
  146.7169  143.3550  156.8146 H   0  0  0  0  0  0  0  0  0  0  0  0
  145.9855  141.7485  156.6834 H   0  0  0  0  0  0  0  0  0  0  0  0
  145.0456  143.1822  156.2836 H   0  0  0  0  0  0  0  0  0  0  0  0
  146.3065  143.5196  152.9201 H   0  0  0  0  0  0  0  0  0  0  0  0
  145.5373  144.4299  154.2171 H   0  0  0  0  0  0  0  0  0  0  0  0
  144.7916  142.9385  153.6345 H   0  0  0  0  0  0  0  0  0  0  0  0
  146.2229  138.9217  152.4793 H   0  0  0  0  0  0  0  0  0  0  0  0
  148.5474  138.0848  153.1515 H   0  0  0  0  0  0  0  0  0  0  0  0
  149.9253  139.4951  154.6439 H   0  0  0  0  0  0  0  0  0  0  0  0
  148.7628  142.8131  155.8961 H   0  0  0  0  0  0  0  0  0  0  0  0
  151.3134  143.5538  156.5872 H   0  0  0  0  0  0  0  0  0  0  0  0
  150.0554  143.2128  157.7781 H   0  0  0  0  0  0  0  0  0  0  0  0
  153.3194  142.7767  159.4436 H   0  0  0  0  0  0  0  0  0  0  0  0
  153.0165  143.9431  158.1526 H   0  0  0  0  0  0  0  0  0  0  0  0
  150.5078  143.7101  159.4793 H   0  0  0  0  0  0  0  0  0  0  0  0
  152.7675  145.7981  159.9193 H   0  0  0  0  0  0  0  0  0  0  0  0
  150.9735  146.0254  160.2546 H   0  0  0  0  0  0  0  0  0  0  0  0
  151.0366  144.1085  161.8820 H   0  0  0  0  0  0  0  0  0  0  0  0
  152.8308  143.8858  161.5464 H   0  0  0  0  0  0  0  0  0  0  0  0
  145.4908  140.9462  153.2993 H   0  0  0  0  0  0  0  0  0  0  0  0
  1  2  1  0  0  0  0
  1 19  1  0  0  0  0
  1 20  1  0  0  0  0
  1 21  1  0  0  0  0
  2  3  1  0  0  0  0
  2  4  1  0  0  0  0
  3 22  1  0  0  0  0
  3 23  1  0  0  0  0
  3 24  1  0  0  0  0
  4  9  1  0  0  0  0
  4  5  2  0  0  0  0
  5  6  1  0  0  0  0
  5 38  1  0  0  0  0
  6  7  2  0  0  0  0
  6 25  1  0  0  0  0
  7  8  1  0  0  0  0
  7 26  1  0  0  0  0
  8  9  2  0  0  0  0
  8 27  1  0  0  0  0
  9 10  1  0  0  0  0
 10 11  1  0  0  0  0
 10 28  1  0  0  0  0
 11 12  2  0  0  0  0
 11 13  1  0  0  0  0
 13 14  1  0  0  0  0
 13 29  1  0  0  0  0
 13 30  1  0  0  0  0
 14 15  1  0  0  0  0
 15 16  1  0  0  0  0
 15 31  1  0  0  0  0
 15 32  1  0  0  0  0
 16 18  1  0  0  0  0
 16 17  1  0  0  0  0
 16 33  1  0  0  0  0
 17 18  1  0  0  0  0
 17 34  1  0  0  0  0
 17 35  1  0  0  0  0
 18 36  1  0  0  0  0
 18 37  1  0  0  0  0
M  CHG  1   5   1
M  END
> <s_m_source_file>
AV-unprocessed.smi

> <i_m_source_file_index>
3227

> <i_lp_mmshare_version>
43012

> <i_f3d_flags>
0

> <s_epik_input>
W0NIM11OKFtDSDNdKWMxbltjSF1bY0hdW2NIXWMxW05IXUMoPU8pW0NIMl1PW0NIMl1bQ0hdMltDSDJdW0NIMl0y

> <s_epik_cmdline>
J2VwaWtfcHl0aG9uJywgJy1waCcsICc3LjAnLCAnLXRuJywgJzgnLCAnLW1hJywgJzIwMCcsICctbWV0YWxfYmluZGluZycsICctaW1hZScsICc8aW5maWxlLm1hZT4nLCAnLW9tYWUnLCAnPG91dGZpbGUubWFlPic=

> <r_lp_tautomer_probability>
0.999994

> <r_epik_Ionization_Penalty>
0.625506

> <r_epik_Ionization_Penalty_Charging>
0.625505

> <r_epik_Ionization_Penalty_Neutral>
1.06265e-06

> <r_epik_State_Penalty>
0.641902

> <r_epik_Charging_Adjusted_Penalty>
1.26741

> <i_epik_Tot_Q>
1

> <i_epik_Tot_abs_Q>
1

> <r_epik_Metal_State_Penalty>
0.821585

> <b_epik_Metal_Only>
0

> <s_lp_Force_Field>
OPLS_2005

> <r_lp_Energy>
27.1321

> <b_lp_Chiralities_Consistent>
1

> <s_lp_Variant>
AV-unprocessed.smi:3227-2

> <Gold.Version>
5.8.1

> <Gold.Id.Protein>
6NUR|6NUR_protein|mol2

> <Gold.PLP.Fitness>
48.4167

> <Gold.PLP.PLP>
-40.7553

> <Gold.PLP.part.hbond>
-2.0000

> <Gold.PLP.part.metal>
0.0000

> <Gold.PLP.part.buried>
-2.6286

> <Gold.PLP.part.nonpolar>
-37.1454

> <Gold.PLP.part.repulsive>
0.1919

> <Gold.PLP.ligand.clash>
0.0000

> <Gold.PLP.ligand.torsion>
1.6931

> <Gold.PLP.Chemscore.Hbond>
3.0000

> <Gold.PLP.Chemscore.CHOScore>
0.0000

> <Gold.PLP.Chemscore.Metal>
0.0000

> <Gold.Chemscore.Hbonds>
donor molecule, donor type, donor heavy atom, donor atom, acceptor molecule, acceptor atom, score
      L1  H     5    38       P1 10175  1.98
      L1  H    10    28       P1  8028  0.91

> <Gold.PLP.Chemscore.Internal.Correction>
2.0476

> <Gold.Rescore>
     Score         DG    S(hbond)    S(metal)    S(lipo)     H(rot)  DE(clash)    DE(int)     intcor
     15.21     -18.36       1.87        0.00      90.55       1.54       0.05       3.11       ----

> <Gold.Chemscore.Fitness>
15.2052

> <Gold.Chemscore.DG>
-18.3647

> <Gold.Chemscore.ZeroCoef>
-5.4800

> <Gold.Chemscore.Hbond>
1.8659

> <Gold.Chemscore.Metal>
0.0000

> <Gold.Chemscore.Lipo>
90.5468

> <Gold.Chemscore.Internal_Hbond>
0.0000

> <Gold.Chemscore.DEClash>
0.0460

> <Gold.Chemscore.DEInternal>
3.1134

> <Gold.Chemscore.Rot>
1.5396

> <Gold.Chemscore.Internal.Correction>
   9.000000E+99

> <Gold.Chemscore.Hbonds>
donor molecule, donor type, donor heavy atom, donor atom, acceptor molecule, acceptor atom, score
      L1  H     5    38       P1 10175  0.53
      L1  H    10    28       P1  8028  0.89

> <Gold.Chemscore.Hbond.Weighted>
-6.2320

> <Gold.Chemscore.Metal.Weighted>
-0.0000

> <Gold.Chemscore.Lipo.Weighted>
-10.5940

> <Gold.Chemscore.Internal_Hbond.Weighted>
0.0000

> <Gold.Chemscore.DEClash.Weighted>
0.0460

> <Gold.Chemscore.DEInternal.Weighted>
3.1134

> <Gold.Chemscore.Rot.Weighted>
3.9413

> <Gold.Chemscore.Internal.Correction.Weighted>
   9.000000E+99

> <Gold.Protein.RotatedTorsions>
[ 6907 6896 6895 6894 ] final  163.86 input  -60.11 | X-H torsion
[ 7974 7965 7964 7962 ] final   96.34 input  175.53 | X-H torsion
[ 8008 7997 7996 7995 ] final   32.82 input   59.86 | X-H torsion
[ 10167 10162 10161 10158 ] final   26.25 input  -65.29 | X-H torsion
[ 10718 10713 10712 10709 ] final  -64.86 input   66.30 | X-H torsion
[ 10763 10752 10751 10750 ] final  -46.95 input  -60.55 | X-H torsion
[ 11005 11000 10999 10996 ] final  -14.99 input  -57.11 | X-H torsion

> <Gold.Protein.ActiveResidues>
 VAL166  LYS551  ARG553  GLY616  TRP617  ASP618  TYR619  PRO620  LYS621  CYS622 
 ASP623  PHE694  ASN695  SER759  ASP760  ASP761  ALA762  ILE779  LEU786  VAL792 
 PHE793  MET794  SER795  GLU796  ALA797  LYS798  CYS799  TRP800  GLU811  SER814 

> <Gold.Protein.RotatedAtoms>
  151.9187  133.3580  159.3889 H   0  0  0  0  0  0  0  0  0  0  0  0  # atno 6907 bound_to 6896
  150.7042  134.4657  159.5411 H   0  0  0  0  0  0  0  0  0  0  0  0  # atno 6908 bound_to 6896
  152.2277  134.8353  160.0528 H   0  0  0  0  0  0  0  0  0  0  0  0  # atno 6909 bound_to 6896
  145.4402  139.2302  143.3096 H   0  0  0  0  0  0  0  0  0  0  0  0  # atno 7974 bound_to 7965
  155.1286  140.3255  155.4479 H   0  0  0  0  0  0  0  0  0  0  0  0  # atno 8008 bound_to 7997
  156.2641  140.2014  156.6355 H   0  0  0  0  0  0  0  0  0  0  0  0  # atno 8009 bound_to 7997
  154.6629  140.0545  157.0069 H   0  0  0  0  0  0  0  0  0  0  0  0  # atno 8010 bound_to 7997
  140.5039  144.0271  150.6344 H   0  0  0  0  0  0  0  0  0  0  0  0  # atno 10167 bound_to 10162
  156.0704  130.4239  150.1481 H   0  0  0  0  0  0  0  0  0  0  0  0  # atno 10718 bound_to 10713
  154.0533  135.6628  153.4803 H   0  0  0  0  0  0  0  0  0  0  0  0  # atno 10763 bound_to 10752
  153.0455  135.5117  154.7730 H   0  0  0  0  0  0  0  0  0  0  0  0  # atno 10764 bound_to 10752
  154.6743  135.3034  154.9666 H   0  0  0  0  0  0  0  0  0  0  0  0  # atno 10765 bound_to 10752
  140.7921  133.8280  155.9389 H   0  0  0  0  0  0  0  0  0  0  0  0  # atno 11005 bound_to 11000
  146.2560  140.5149  142.8873 LP  0  0  0  0  0  0  0  0  0  0  0  0  # atno 17320 bound_to 7965
  144.8126  140.6413  143.6405 LP  0  0  0  0  0  0  0  0  0  0  0  0  # atno 17321 bound_to 7965
  140.3575  143.2927  152.0420 LP  0  0  0  0  0  0  0  0  0  0  0  0  # atno 17342 bound_to 10162
  139.4879  144.6328  151.7035 LP  0  0  0  0  0  0  0  0  0  0  0  0  # atno 17343 bound_to 10162
  156.9533  130.9781  151.3494 LP  0  0  0  0  0  0  0  0  0  0  0  0  # atno 17370 bound_to 10713
  157.5771  130.8350  149.8470 LP  0  0  0  0  0  0  0  0  0  0  0  0  # atno 17371 bound_to 10713
  140.9379  134.1938  157.4818 LP  0  0  0  0  0  0  0  0  0  0  0  0  # atno 17394 bound_to 11000
  139.8730  134.9860  156.5305 LP  0  0  0  0  0  0  0  0  0  0  0  0  # atno 17395 bound_to 11000

$$$$
