AV-unprocessed.smi:2510|AV-procd|sdf|9883|dock4
  -GOLD-   2272013523D 1   1.00000     0.00000
 Structure written by MMmdl.
 48 49  0  0  0  0  0  0  0  0  1 V2000
  148.4998  137.6653  158.0818 C   0  0  0  0  0  0  0  0  0  0  0  0
  148.5484  139.2027  158.1044 C   0  0  0  0  0  0  0  0  0  0  0  0
  149.8000  139.8747  157.4888 C   0  0  0  0  0  0  0  0  0  0  0  0
  149.6548  141.4051  157.7295 C   0  0  0  0  0  0  0  0  0  0  0  0
  150.6221  142.3157  156.9487 C   0  0  0  0  0  0  0  0  0  0  0  0
  151.1859  139.2654  157.8592 C   0  0  2  0  0  0  0  0  0  0  0  0
  151.9278  140.0275  158.8596 N   0  0  0  0  0  0  0  0  0  0  0  0
  153.2640  140.0611  158.9624 C   0  0  0  0  0  0  0  0  0  0  0  0
  154.0117  139.4290  158.2144 O   0  0  0  0  0  0  0  0  0  0  0  0
  153.8211  140.9516  160.0796 C   0  0  0  0  0  0  0  0  0  0  0  0
  152.9181  142.0953  160.4239 C   0  0  0  0  0  0  0  0  0  0  0  0
  152.4522  143.1373  159.6715 C   0  0  0  0  0  0  0  0  0  0  0  0
  151.6415  143.8887  160.5722 C   0  0  0  0  0  0  0  0  0  0  0  0
  150.8701  145.1455  160.2971 C   0  0  0  0  0  0  0  0  0  0  0  0
  151.6083  143.3582  161.7856 N   0  0  0  0  0  0  0  0  0  0  0  0
  152.3894  142.2669  161.6835 N   0  0  0  0  0  0  0  0  0  0  0  0
  151.6711  139.5175  156.4254 C   0  0  1  0  0  0  0  0  0  0  0  0
  152.6673  138.5447  155.8051 C   0  0  0  0  0  0  0  0  0  0  0  0
  150.1833  139.4316  156.0477 C   0  0  2  0  0  0  0  0  0  0  0  0
  149.7739  140.3481  155.0443 O   0  0  0  0  0  0  0  0  0  0  0  0
  148.3709  140.5346  154.9837 C   0  0  0  0  0  0  0  0  0  0  0  0
  152.5478  141.6536  162.4703 H   0  0  0  0  0  0  0  0  0  0  0  0
  147.5355  137.3137  158.4491 H   0  0  0  0  0  0  0  0  0  0  0  0
  149.2612  137.2280  158.7275 H   0  0  0  0  0  0  0  0  0  0  0  0
  148.6274  137.2635  157.0773 H   0  0  0  0  0  0  0  0  0  0  0  0
  147.6588  139.5562  157.5823 H   0  0  0  0  0  0  0  0  0  0  0  0
  148.4260  139.5172  159.1417 H   0  0  0  0  0  0  0  0  0  0  0  0
  148.6395  141.7217  157.4878 H   0  0  0  0  0  0  0  0  0  0  0  0
  149.7771  141.6330  158.7883 H   0  0  0  0  0  0  0  0  0  0  0  0
  150.4917  143.3540  157.2541 H   0  0  0  0  0  0  0  0  0  0  0  0
  150.4395  142.2783  155.8751 H   0  0  0  0  0  0  0  0  0  0  0  0
  151.6661  142.0588  157.1193 H   0  0  0  0  0  0  0  0  0  0  0  0
  151.1577  138.1946  158.0654 H   0  0  0  0  0  0  0  0  0  0  0  0
  151.3852  140.5716  159.5145 H   0  0  0  0  0  0  0  0  0  0  0  0
  153.9944  140.3375  160.9643 H   0  0  0  0  0  0  0  0  0  0  0  0
  154.7945  141.3351  159.7712 H   0  0  0  0  0  0  0  0  0  0  0  0
  152.6589  143.3335  158.6297 H   0  0  0  0  0  0  0  0  0  0  0  0
  150.9850  145.4597  159.2595 H   0  0  0  0  0  0  0  0  0  0  0  0
  151.2131  145.9636  160.9309 H   0  0  0  0  0  0  0  0  0  0  0  0
  149.8055  145.0019  160.4837 H   0  0  0  0  0  0  0  0  0  0  0  0
  152.0204  140.5460  156.3177 H   0  0  0  0  0  0  0  0  0  0  0  0
  152.3071  137.5173  155.8597 H   0  0  0  0  0  0  0  0  0  0  0  0
  153.6271  138.5841  156.3200 H   0  0  0  0  0  0  0  0  0  0  0  0
  152.8526  138.7741  154.7565 H   0  0  0  0  0  0  0  0  0  0  0  0
  149.8691  138.4097  155.8271 H   0  0  0  0  0  0  0  0  0  0  0  0
  148.1392  141.3008  154.2442 H   0  0  0  0  0  0  0  0  0  0  0  0
  147.9709  140.8626  155.9439 H   0  0  0  0  0  0  0  0  0  0  0  0
  147.8608  139.6205  154.6824 H   0  0  0  0  0  0  0  0  0  0  0  0
  1  2  1  0  0  0  0
  1 23  1  0  0  0  0
  1 24  1  0  0  0  0
  1 25  1  0  0  0  0
  2  3  1  0  0  0  0
  2 26  1  0  0  0  0
  2 27  1  0  0  0  0
  3 19  1  0  0  0  0
  3  4  1  0  0  0  0
  3  6  1  0  0  0  0
  4  5  1  0  0  0  0
  4 28  1  0  0  0  0
  4 29  1  0  0  0  0
  5 30  1  0  0  0  0
  5 31  1  0  0  0  0
  5 32  1  0  0  0  0
  6  7  1  0  0  0  0
  6 17  1  0  0  0  0
  6 33  1  0  0  0  0
  7  8  1  0  0  0  0
  7 34  1  0  0  0  0
  8  9  2  0  0  0  0
  8 10  1  0  0  0  0
 10 35  1  0  0  0  0
 10 36  1  0  0  0  0
 10 11  1  0  0  0  0
 11 16  1  0  0  0  0
 11 12  2  0  0  0  0
 12 13  1  0  0  0  0
 12 37  1  0  0  0  0
 13 14  1  0  0  0  0
 13 15  2  0  0  0  0
 14 38  1  0  0  0  0
 14 39  1  0  0  0  0
 14 40  1  0  0  0  0
 15 16  1  0  0  0  0
 16 22  1  0  0  0  0
 17 18  1  0  0  0  0
 17 19  1  0  0  0  0
 17 41  1  0  0  0  0
 18 42  1  0  0  0  0
 18 43  1  0  0  0  0
 18 44  1  0  0  0  0
 19 20  1  0  0  0  0
 19 45  1  0  0  0  0
 20 21  1  0  0  0  0
 21 46  1  0  0  0  0
 21 47  1  0  0  0  0
 21 48  1  0  0  0  0
M  END
> <s_m_source_file>
AV-unprocessed.smi

> <i_m_source_file_index>
2510

> <i_lp_mmshare_version>
43012

> <i_f3d_flags>
0

> <s_epik_input>
W0NIM11PW0NAQEhdMVtDQEhdKFtDSDNdKVtDQEBIXShDMShbQ0gyXVtDSDNdKVtDSDJdW0NIM10pW05IXUMoPU8pW0NIMl1jMltjSF1jKFtDSDNdKVtuSF1uMg==

> <s_epik_cmdline>
J2VwaWtfcHl0aG9uJywgJy1waCcsICc3LjAnLCAnLXRuJywgJzgnLCAnLW1hJywgJzIwMCcsICctbWV0YWxfYmluZGluZycsICctaW1hZScsICc8aW5maWxlLm1hZT4nLCAnLW9tYWUnLCAnPG91dGZpbGUubWFlPic=

> <r_lp_tautomer_probability>
0.5

> <r_epik_Ionization_Penalty>
0.000134763

> <r_epik_Ionization_Penalty_Charging>
0

> <r_epik_Ionization_Penalty_Neutral>
0.000134763

> <r_epik_State_Penalty>
0.41068

> <r_epik_Charging_Adjusted_Penalty>
0.41068

> <i_epik_Tot_Q>
0

> <i_epik_Tot_abs_Q>
0

> <r_epik_Metal_State_Penalty>
0.410661

> <b_epik_Metal_Only>
0

> <s_lp_Force_Field>
OPLS_2005

> <r_lp_Energy>
25.9976

> <b_lp_Chiralities_Consistent>
1

> <s_lp_Variant>
AV-unprocessed.smi:2510-14

> <Gold.Version>
5.8.1

> <Gold.Id.Protein>
6NUR|6NUR_protein|mol2

> <Gold.PLP.Fitness>
45.3578

> <Gold.PLP.PLP>
-40.9694

> <Gold.PLP.part.hbond>
-2.0000

> <Gold.PLP.part.metal>
0.0000

> <Gold.PLP.part.buried>
-6.1801

> <Gold.PLP.part.nonpolar>
-32.7887

> <Gold.PLP.part.repulsive>
0.4974

> <Gold.PLP.ligand.clash>
0.0000

> <Gold.PLP.ligand.torsion>
0.9190

> <Gold.PLP.Chemscore.Hbond>
1.8800

> <Gold.PLP.Chemscore.CHOScore>
0.0000

> <Gold.PLP.Chemscore.Metal>
0.0000

> <Gold.Chemscore.Hbonds>
donor molecule, donor type, donor heavy atom, donor atom, acceptor molecule, acceptor atom, score
      P1  H  6933  6945       L1    15  0.02
      P1  H  7997  8008       L1     9  0.80

> <Gold.PLP.Chemscore.Internal.Correction>
0.5864

> <Gold.Rescore>
     Score         DG    S(hbond)    S(metal)    S(lipo)     H(rot)  DE(clash)    DE(int)     intcor
     12.94     -19.31       1.85        0.00     105.13       1.81       0.42       5.95       ----

> <Gold.Chemscore.Fitness>
12.9354

> <Gold.Chemscore.DG>
-19.3103

> <Gold.Chemscore.ZeroCoef>
-5.4800

> <Gold.Chemscore.Hbond>
1.8457

> <Gold.Chemscore.Metal>
0.0000

> <Gold.Chemscore.Lipo>
105.1262

> <Gold.Chemscore.Internal_Hbond>
0.0000

> <Gold.Chemscore.DEClash>
0.4212

> <Gold.Chemscore.DEInternal>
5.9537

> <Gold.Chemscore.Rot>
1.8102

> <Gold.Chemscore.Internal.Correction>
   9.000000E+99

> <Gold.Chemscore.Hbonds>
donor molecule, donor type, donor heavy atom, donor atom, acceptor molecule, acceptor atom, score
      P1  H  7989  7998       L1    20  0.02
      P1  H  7997  8008       L1     9  0.78

> <Gold.Chemscore.Hbond.Weighted>
-6.1646

> <Gold.Chemscore.Metal.Weighted>
-0.0000

> <Gold.Chemscore.Lipo.Weighted>
-12.2998

> <Gold.Chemscore.Internal_Hbond.Weighted>
0.0000

> <Gold.Chemscore.DEClash.Weighted>
0.4212

> <Gold.Chemscore.DEInternal.Weighted>
5.9537

> <Gold.Chemscore.Rot.Weighted>
4.6341

> <Gold.Chemscore.Internal.Correction.Weighted>
   9.000000E+99

> <Gold.Protein.RotatedTorsions>
[ 6907 6896 6895 6894 ] final   25.85 input  -60.11 | X-H torsion
[ 7974 7965 7964 7962 ] final -159.71 input  175.53 | X-H torsion
[ 8008 7997 7996 7995 ] final -111.60 input   59.86 | X-H torsion
[ 10167 10162 10161 10158 ] final  -46.41 input  -65.29 | X-H torsion
[ 10718 10713 10712 10709 ] final  -24.38 input   66.30 | X-H torsion
[ 10763 10752 10751 10750 ] final  120.78 input  -60.55 | X-H torsion
[ 11005 11000 10999 10996 ] final  157.33 input  -57.11 | X-H torsion

> <Gold.Protein.ActiveResidues>
 VAL166  LYS551  ARG553  GLY616  TRP617  ASP618  TYR619  PRO620  LYS621  CYS622 
 ASP623  PHE694  ASN695  SER759  ASP760  ASP761  ALA762  ILE779  LEU786  VAL792 
 PHE793  MET794  SER795  GLU796  ALA797  LYS798  CYS799  TRP800  GLU811  SER814 

> <Gold.Protein.RotatedAtoms>
  151.9787  135.0039  160.0556 H   0  0  0  0  0  0  0  0  0  0  0  0  # atno 6907 bound_to 6896
  152.1716  133.4642  159.4920 H   0  0  0  0  0  0  0  0  0  0  0  0  # atno 6908 bound_to 6896
  150.6902  134.1863  159.4311 H   0  0  0  0  0  0  0  0  0  0  0  0  # atno 6909 bound_to 6896
  144.7455  140.3646  143.6089 H   0  0  0  0  0  0  0  0  0  0  0  0  # atno 7974 bound_to 7965
  154.9923  140.0395  157.2324 H   0  0  0  0  0  0  0  0  0  0  0  0  # atno 8008 bound_to 7997
  154.7617  140.2786  155.6186 H   0  0  0  0  0  0  0  0  0  0  0  0  # atno 8009 bound_to 7997
  156.2905  140.2627  156.2398 H   0  0  0  0  0  0  0  0  0  0  0  0  # atno 8010 bound_to 7997
  140.6818  143.2832  151.3779 H   0  0  0  0  0  0  0  0  0  0  0  0  # atno 10167 bound_to 10162
  156.4784  130.4539  149.6826 H   0  0  0  0  0  0  0  0  0  0  0  0  # atno 10718 bound_to 10713
  153.6038  135.3443  155.2954 H   0  0  0  0  0  0  0  0  0  0  0  0  # atno 10763 bound_to 10752
  154.8631  135.4234  154.2384 H   0  0  0  0  0  0  0  0  0  0  0  0  # atno 10764 bound_to 10752
  153.3219  135.7038  153.7095 H   0  0  0  0  0  0  0  0  0  0  0  0  # atno 10765 bound_to 10752
  140.1759  134.8510  157.2746 H   0  0  0  0  0  0  0  0  0  0  0  0  # atno 11005 bound_to 11000
  145.7141  139.1692  143.2522 LP  0  0  0  0  0  0  0  0  0  0  0  0  # atno 17320 bound_to 7965
  146.1325  140.7166  142.9405 LP  0  0  0  0  0  0  0  0  0  0  0  0  # atno 17321 bound_to 7965
  139.6147  144.1027  152.2333 LP  0  0  0  0  0  0  0  0  0  0  0  0  # atno 17342 bound_to 10162
  140.0453  144.5976  150.7379 LP  0  0  0  0  0  0  0  0  0  0  0  0  # atno 17343 bound_to 10162
  156.3547  130.7450  151.2414 LP  0  0  0  0  0  0  0  0  0  0  0  0  # atno 17370 bound_to 10713
  157.7485  131.0367  150.4422 LP  0  0  0  0  0  0  0  0  0  0  0  0  # atno 17371 bound_to 10713
  140.2323  134.3895  155.7516 LP  0  0  0  0  0  0  0  0  0  0  0  0  # atno 17394 bound_to 11000
  141.2220  133.7221  156.8659 LP  0  0  0  0  0  0  0  0  0  0  0  0  # atno 17395 bound_to 11000

$$$$
