AV-unprocessed.smi:313|AV-procd|sdf|2309|dock2
  -GOLD-   2262022203D 1   1.00000     0.00000
 Structure written by MMmdl.
 50 51  0  0  0  0  0  0  0  0  1 V2000
  151.2199  140.8275  158.9710 C   0  0  0  0  0  0  0  0  0  0  0  0
  150.2322  140.9539  157.8018 C   0  0  0  0  0  0  0  0  0  0  0  0
  150.5957  142.0681  156.8023 C   0  0  2  0  0  0  0  0  0  0  0  0
  150.6505  143.4443  157.4841 C   0  0  0  0  0  0  0  0  0  0  0  0
  149.6333  142.0923  155.7035 N   0  0  0  0  0  0  0  0  0  0  0  0
  149.4083  141.0898  154.8404 C   0  0  0  0  0  0  0  0  0  0  0  0
  150.0041  140.0121  154.8849 O   0  0  0  0  0  0  0  0  0  0  0  0
  148.3284  141.3461  153.7767 C   0  0  2  0  0  0  0  0  0  0  0  0
  147.1957  142.1522  154.4332 C   0  0  0  0  0  0  0  0  0  0  0  0
  147.7651  140.0865  153.2935 N   0  0  0  0  0  0  0  0  0  0  0  0
  146.9502  139.2808  153.9954 C   0  0  0  0  0  0  0  0  0  0  0  0
  146.5698  139.5290  155.1397 O   0  0  0  0  0  0  0  0  0  0  0  0
  146.4628  138.0603  153.2697 C   0  0  0  0  0  0  0  0  0  0  0  0
  146.3096  138.0416  151.8662 C   0  0  0  0  0  0  0  0  0  0  0  0
  145.8752  136.8581  151.2394 C   0  0  0  0  0  0  0  0  0  0  0  0
  145.6111  135.7140  152.0288 C   0  0  0  0  0  0  0  0  0  0  0  0
  145.1798  134.5153  151.4200 N   0  0  0  0  0  0  0  0  0  0  0  0
  146.1889  133.4641  151.3132 C   0  0  0  0  0  0  0  0  0  0  0  0
  145.7003  132.3436  150.3792 C   0  0  0  0  0  0  0  0  0  0  0  0
  144.4401  131.8567  150.8280 O   0  0  0  0  0  0  0  0  0  0  0  0
  143.4445  132.8741  150.8145 C   0  0  0  0  0  0  0  0  0  0  0  0
  143.8529  134.0098  151.7677 C   0  0  0  0  0  0  0  0  0  0  0  0
  145.7610  135.7339  153.3761 N   0  0  0  0  0  0  0  0  0  0  0  0
  146.1802  136.8699  153.9729 C   0  0  0  0  0  0  0  0  0  0  0  0
  150.8922  140.0600  159.6723 H   0  0  0  0  0  0  0  0  0  0  0  0
  151.3003  141.7659  159.5203 H   0  0  0  0  0  0  0  0  0  0  0  0
  152.2176  140.5536  158.6271 H   0  0  0  0  0  0  0  0  0  0  0  0
  150.1653  139.9973  157.2820 H   0  0  0  0  0  0  0  0  0  0  0  0
  149.2381  141.1479  158.2068 H   0  0  0  0  0  0  0  0  0  0  0  0
  151.5878  141.8464  156.4042 H   0  0  0  0  0  0  0  0  0  0  0  0
  151.3768  143.4507  158.2971 H   0  0  0  0  0  0  0  0  0  0  0  0
  149.6816  143.7196  157.9018 H   0  0  0  0  0  0  0  0  0  0  0  0
  150.9426  144.2236  156.7794 H   0  0  0  0  0  0  0  0  0  0  0  0
  149.0939  142.9386  155.5928 H   0  0  0  0  0  0  0  0  0  0  0  0
  148.7456  141.9127  152.9417 H   0  0  0  0  0  0  0  0  0  0  0  0
  147.5569  143.1113  154.8070 H   0  0  0  0  0  0  0  0  0  0  0  0
  146.7470  141.6159  155.2709 H   0  0  0  0  0  0  0  0  0  0  0  0
  146.4026  142.3629  153.7151 H   0  0  0  0  0  0  0  0  0  0  0  0
  147.9970  139.8192  152.3480 H   0  0  0  0  0  0  0  0  0  0  0  0
  146.5207  138.9155  151.2671 H   0  0  0  0  0  0  0  0  0  0  0  0
  145.7405  136.8457  150.1683 H   0  0  0  0  0  0  0  0  0  0  0  0
  147.1356  133.8490  150.9374 H   0  0  0  0  0  0  0  0  0  0  0  0
  146.3829  133.0617  152.3083 H   0  0  0  0  0  0  0  0  0  0  0  0
  145.6192  132.7019  149.3517 H   0  0  0  0  0  0  0  0  0  0  0  0
  146.4161  131.5218  150.3736 H   0  0  0  0  0  0  0  0  0  0  0  0
  143.3054  133.2490  149.7993 H   0  0  0  0  0  0  0  0  0  0  0  0
  142.4934  132.4445  151.1284 H   0  0  0  0  0  0  0  0  0  0  0  0
  143.8625  133.6472  152.7965 H   0  0  0  0  0  0  0  0  0  0  0  0
  143.1160  134.8119  151.7103 H   0  0  0  0  0  0  0  0  0  0  0  0
  146.2874  136.8208  155.0467 H   0  0  0  0  0  0  0  0  0  0  0  0
  1  2  1  0  0  0  0
  1 25  1  0  0  0  0
  1 26  1  0  0  0  0
  1 27  1  0  0  0  0
  2  3  1  0  0  0  0
  2 28  1  0  0  0  0
  2 29  1  0  0  0  0
  3  4  1  0  0  0  0
  3  5  1  0  0  0  0
  3 30  1  0  0  0  0
  4 31  1  0  0  0  0
  4 32  1  0  0  0  0
  4 33  1  0  0  0  0
  5  6  1  0  0  0  0
  5 34  1  0  0  0  0
  6  7  2  0  0  0  0
  6  8  1  0  0  0  0
  8  9  1  0  0  0  0
  8 10  1  0  0  0  0
  8 35  1  0  0  0  0
  9 36  1  0  0  0  0
  9 37  1  0  0  0  0
  9 38  1  0  0  0  0
 10 11  1  0  0  0  0
 10 39  1  0  0  0  0
 11 12  2  0  0  0  0
 11 13  1  0  0  0  0
 13 24  1  0  0  0  0
 13 14  2  0  0  0  0
 14 15  1  0  0  0  0
 14 40  1  0  0  0  0
 15 16  2  0  0  0  0
 15 41  1  0  0  0  0
 16 17  1  0  0  0  0
 16 23  1  0  0  0  0
 17 22  1  0  0  0  0
 17 18  1  0  0  0  0
 18 19  1  0  0  0  0
 18 42  1  0  0  0  0
 18 43  1  0  0  0  0
 19 20  1  0  0  0  0
 19 44  1  0  0  0  0
 19 45  1  0  0  0  0
 20 21  1  0  0  0  0
 21 22  1  0  0  0  0
 21 46  1  0  0  0  0
 21 47  1  0  0  0  0
 22 48  1  0  0  0  0
 22 49  1  0  0  0  0
 23 24  2  0  0  0  0
 24 50  1  0  0  0  0
M  END
> <s_m_source_file>
AV-unprocessed.smi

> <i_m_source_file_index>
313

> <i_lp_mmshare_version>
43012

> <i_f3d_flags>
0

> <s_epik_input>
W0NIM11bQ0gyXVtDQEhdKFtDSDNdKVtOSF1DKD1PKVtDQEhdKFtDSDNdKVtOSF1DKD1PKWMxW2NIXVtjSF1jKG5bY0hdMSlOMltDSDJdW0NIMl1PW0NIMl1bQ0gyXTI=

> <s_epik_cmdline>
J2VwaWtfcHl0aG9uJywgJy1waCcsICc3LjAnLCAnLXRuJywgJzgnLCAnLW1hJywgJzIwMCcsICctbWV0YWxfYmluZGluZycsICctaW1hZScsICc8aW5maWxlLm1hZT4nLCAnLW9tYWUnLCAnPG91dGZpbGUubWFlPic=

> <r_lp_tautomer_probability>
1

> <r_epik_Ionization_Penalty>
9.96442e-06

> <r_epik_Ionization_Penalty_Charging>
0

> <r_epik_Ionization_Penalty_Neutral>
9.96442e-06

> <r_epik_State_Penalty>
-0

> <r_epik_Charging_Adjusted_Penalty>
0

> <i_epik_Tot_Q>
0

> <i_epik_Tot_abs_Q>
0

> <r_epik_Metal_State_Penalty>
-0

> <b_epik_Metal_Only>
0

> <s_lp_Force_Field>
OPLS_2005

> <r_lp_Energy>
19.8546

> <b_lp_Chiralities_Consistent>
1

> <s_lp_Variant>
AV-unprocessed.smi:313-1

> <Gold.Version>
5.8.1

> <Gold.Id.Protein>
6NUR|6NUR_protein|mol2

> <Gold.PLP.Fitness>
44.3506

> <Gold.PLP.PLP>
-39.9670

> <Gold.PLP.part.hbond>
-3.0000

> <Gold.PLP.part.metal>
0.0000

> <Gold.PLP.part.buried>
0.0710

> <Gold.PLP.part.nonpolar>
-37.0637

> <Gold.PLP.part.repulsive>
0.7267

> <Gold.PLP.ligand.clash>
0.0207

> <Gold.PLP.ligand.torsion>
1.4162

> <Gold.PLP.Chemscore.Hbond>
2.2774

> <Gold.PLP.Chemscore.CHOScore>
0.0000

> <Gold.PLP.Chemscore.Metal>
0.0000

> <Gold.Chemscore.Hbonds>
donor molecule, donor type, donor heavy atom, donor atom, acceptor molecule, acceptor atom, score
      L1  H     5    34       P1  8028  1.00
      L1  H    10    39       P1  7957  0.72
      P1  H  7989  7998       L1     7  0.15

> <Gold.PLP.Chemscore.Internal.Correction>
0.4046

> <Gold.Rescore>
     Score         DG    S(hbond)    S(metal)    S(lipo)     H(rot)  DE(clash)    DE(int)     intcor
     14.66     -17.84       1.71        0.00      95.94       1.79       0.84       2.33       ----

> <Gold.Chemscore.Fitness>
14.6629

> <Gold.Chemscore.DG>
-17.8393

> <Gold.Chemscore.ZeroCoef>
-5.4800

> <Gold.Chemscore.Hbond>
1.7107

> <Gold.Chemscore.Metal>
0.0000

> <Gold.Chemscore.Lipo>
95.9403

> <Gold.Chemscore.Internal_Hbond>
0.0000

> <Gold.Chemscore.DEClash>
0.8416

> <Gold.Chemscore.DEInternal>
2.3348

> <Gold.Chemscore.Rot>
1.7888

> <Gold.Chemscore.Internal.Correction>
   9.000000E+99

> <Gold.Chemscore.Hbonds>
donor molecule, donor type, donor heavy atom, donor atom, acceptor molecule, acceptor atom, score
      L1  H     5    34       P1  8028  0.97
      L1  H    10    39       P1  7957  0.70
      P1  H  7989  7998       L1     7  0.01

> <Gold.Chemscore.Hbond.Weighted>
-5.7136

> <Gold.Chemscore.Metal.Weighted>
-0.0000

> <Gold.Chemscore.Lipo.Weighted>
-11.2250

> <Gold.Chemscore.Internal_Hbond.Weighted>
0.0000

> <Gold.Chemscore.DEClash.Weighted>
0.8416

> <Gold.Chemscore.DEInternal.Weighted>
2.3348

> <Gold.Chemscore.Rot.Weighted>
4.5793

> <Gold.Chemscore.Internal.Correction.Weighted>
   9.000000E+99

> <Gold.Protein.RotatedTorsions>
[ 6907 6896 6895 6894 ] final   67.40 input  -60.11 | X-H torsion
[ 7974 7965 7964 7962 ] final -157.59 input  175.53 | X-H torsion
[ 8008 7997 7996 7995 ] final -169.42 input   59.86 | X-H torsion
[ 10167 10162 10161 10158 ] final -106.48 input  -65.29 | X-H torsion
[ 10718 10713 10712 10709 ] final  -53.08 input   66.30 | X-H torsion
[ 10763 10752 10751 10750 ] final   35.95 input  -60.55 | X-H torsion
[ 11005 11000 10999 10996 ] final  101.59 input  -57.11 | X-H torsion

> <Gold.Protein.ActiveResidues>
 VAL166  LYS551  ARG553  GLY616  TRP617  ASP618  TYR619  PRO620  LYS621  CYS622 
 ASP623  PHE694  ASN695  SER759  ASP760  ASP761  ALA762  ILE779  LEU786  VAL792 
 PHE793  MET794  SER795  GLU796  ALA797  LYS798  CYS799  TRP800  GLU811  SER814 

> <Gold.Protein.RotatedAtoms>
  152.4549  134.5313  159.9811 H   0  0  0  0  0  0  0  0  0  0  0  0  # atno 6907 bound_to 6896
  151.5376  133.3432  159.2937 H   0  0  0  0  0  0  0  0  0  0  0  0  # atno 6908 bound_to 6896
  150.8490  134.7840  159.7056 H   0  0  0  0  0  0  0  0  0  0  0  0  # atno 6909 bound_to 6896
  144.7542  140.3948  143.6025 H   0  0  0  0  0  0  0  0  0  0  0  0  # atno 7974 bound_to 7965
  155.9047  140.1047  157.1324 H   0  0  0  0  0  0  0  0  0  0  0  0  # atno 8008 bound_to 7997
  154.4031  140.1286  156.4545 H   0  0  0  0  0  0  0  0  0  0  0  0  # atno 8009 bound_to 7997
  155.7381  140.3467  155.5093 H   0  0  0  0  0  0  0  0  0  0  0  0  # atno 8010 bound_to 7997
  140.1873  143.3920  152.1234 H   0  0  0  0  0  0  0  0  0  0  0  0  # atno 10167 bound_to 10162
  156.1566  130.4150  149.9859 H   0  0  0  0  0  0  0  0  0  0  0  0  # atno 10718 bound_to 10713
  153.0097  135.6319  154.1909 H   0  0  0  0  0  0  0  0  0  0  0  0  # atno 10763 bound_to 10752
  154.1651  135.2821  155.3099 H   0  0  0  0  0  0  0  0  0  0  0  0  # atno 10764 bound_to 10752
  154.5951  135.5605  153.7378 H   0  0  0  0  0  0  0  0  0  0  0  0  # atno 10765 bound_to 10752
  139.8774  134.9189  156.4929 H   0  0  0  0  0  0  0  0  0  0  0  0  # atno 11005 bound_to 11000
  145.6838  139.1624  143.2686 LP  0  0  0  0  0  0  0  0  0  0  0  0  # atno 17320 bound_to 7965
  146.1531  140.6897  142.9313 LP  0  0  0  0  0  0  0  0  0  0  0  0  # atno 17321 bound_to 7965
  139.5271  144.7115  151.5191 LP  0  0  0  0  0  0  0  0  0  0  0  0  # atno 17342 bound_to 10162
  140.6480  143.8756  150.6756 LP  0  0  0  0  0  0  0  0  0  0  0  0  # atno 17343 bound_to 10162
  156.7701  130.9183  151.3644 LP  0  0  0  0  0  0  0  0  0  0  0  0  # atno 17370 bound_to 10713
  157.6700  130.9042  150.0018 LP  0  0  0  0  0  0  0  0  0  0  0  0  # atno 17371 bound_to 10713
  140.8645  133.8034  155.9300 LP  0  0  0  0  0  0  0  0  0  0  0  0  # atno 17394 bound_to 11000
  140.9015  134.2372  157.5038 LP  0  0  0  0  0  0  0  0  0  0  0  0  # atno 17395 bound_to 11000

$$$$
