AV-unprocessed.smi:2886|AV-procd|sdf|11093|dock1
  -GOLD-   2272015563D 1   1.00000     0.00000
 Structure written by MMmdl.
 28 30  0  0  0  0  0  0  0  0  3 V2000
  151.6218  143.1745  160.3745 O   0  0  0  0  0  0  0  0  0  0  0  0
  151.3903  142.8990  159.1988 C   0  0  0  0  0  0  0  0  0  0  0  0
  150.6733  143.7112  158.3664 N   0  5  0  0  0  0  0  0  0  0  0  0
  150.4392  143.3901  157.1136 N   0  3  0  0  0  0  0  0  0  0  0  0
  150.8690  142.2660  156.5490 C   0  0  0  0  0  0  0  0  0  0  0  0
  151.6349  141.3345  157.3045 C   0  0  0  0  0  0  0  0  0  0  0  0
  152.1073  140.1452  156.7634 N   0  0  0  0  0  0  0  0  0  0  0  0
  151.9463  139.6153  155.4153 C   0  0  2  0  0  0  0  0  0  0  0  0
  150.4854  139.4029  155.0161 C   0  0  0  0  0  0  0  0  0  0  0  0
  150.4942  137.9297  154.5828 C   0  0  2  0  0  0  0  0  0  0  0  0
  150.5617  136.9886  155.7924 C   0  0  0  0  0  0  0  0  0  0  0  0
  152.0059  137.1783  156.2528 C   0  0  0  0  0  0  0  0  0  0  0  0
  152.5337  138.2050  155.2355 C   0  0  1  0  0  0  0  0  0  0  0  0
  151.8153  137.7997  154.0820 O   0  0  0  0  0  0  0  0  0  0  0  0
  151.8882  141.6424  158.6093 C   0  0  0  0  0  0  0  0  0  0  0  0
  152.8058  140.5673  159.6122 Cl  0  0  0  0  0  0  0  0  0  0  0  0
  149.8918  144.0182  156.5046 H   0  0  0  0  0  0  0  0  0  0  0  0
  150.6047  142.1076  155.5115 H   0  0  0  0  0  0  0  0  0  0  0  0
  152.7407  139.6138  157.3443 H   0  0  0  0  0  0  0  0  0  0  0  0
  152.4235  140.2699  154.6867 H   0  0  0  0  0  0  0  0  0  0  0  0
  149.7785  139.5865  155.8267 H   0  0  0  0  0  0  0  0  0  0  0  0
  150.2230  140.0552  154.1827 H   0  0  0  0  0  0  0  0  0  0  0  0
  149.7127  137.6736  153.8671 H   0  0  0  0  0  0  0  0  0  0  0  0
  149.8336  137.2463  156.5623 H   0  0  0  0  0  0  0  0  0  0  0  0
  150.3896  135.9546  155.4907 H   0  0  0  0  0  0  0  0  0  0  0  0
  152.0824  137.5187  157.2857 H   0  0  0  0  0  0  0  0  0  0  0  0
  152.5549  136.2398  156.1682 H   0  0  0  0  0  0  0  0  0  0  0  0
  153.6174  138.1911  155.1159 H   0  0  0  0  0  0  0  0  0  0  0  0
  1  2  2  0  0  0  0
  2  3  1  0  0  0  0
  2 15  1  0  0  0  0
  3  4  1  0  0  0  0
  4  5  2  0  0  0  0
  4 17  1  0  0  0  0
  5  6  1  0  0  0  0
  5 18  1  0  0  0  0
  6 15  2  0  0  0  0
  6  7  1  0  0  0  0
  7  8  1  0  0  0  0
  7 19  1  0  0  0  0
  8 13  1  0  0  0  0
  8  9  1  0  0  0  0
  8 20  1  0  0  0  0
  9 10  1  0  0  0  0
  9 21  1  0  0  0  0
  9 22  1  0  0  0  0
 10 14  1  0  0  0  0
 10 11  1  0  0  0  0
 10 23  1  0  0  0  0
 11 12  1  0  0  0  0
 11 24  1  0  0  0  0
 11 25  1  0  0  0  0
 12 13  1  0  0  0  0
 12 26  1  0  0  0  0
 12 27  1  0  0  0  0
 13 14  1  0  0  0  0
 13 28  1  0  0  0  0
 15 16  1  0  0  0  0
M  CHG  1   3  -1
M  CHG  1   4   1
M  END
> <s_m_source_file>
AV-unprocessed.smi

> <i_m_source_file_index>
2886

> <i_lp_mmshare_version>
43012

> <i_f3d_flags>
0

> <s_epik_input>
Tz1jMVtuSF1uW2NIXWMoYzFDbClbTkhdW0NASF0oW0NIMl1bQ0BASF0yMylbQ0BASF0oTzMpW0NIMl1bQ0gyXTI=

> <s_epik_cmdline>
J2VwaWtfcHl0aG9uJywgJy1waCcsICc3LjAnLCAnLXRuJywgJzgnLCAnLW1hJywgJzIwMCcsICctbWV0YWxfYmluZGluZycsICctaW1hZScsICc8aW5maWxlLm1hZT4nLCAnLW9tYWUnLCAnPG91dGZpbGUubWFlPic=

> <r_lp_tautomer_probability>
0.0138196

> <r_epik_Ionization_Penalty>
2.43027

> <r_epik_Ionization_Penalty_Charging>
2.43027

> <r_epik_Ionization_Penalty_Neutral>
1.33267e-06

> <r_epik_State_Penalty>
2.7044

> <r_epik_Charging_Adjusted_Penalty>
5.13467

> <i_epik_Tot_Q>
0

> <i_epik_Tot_abs_Q>
2

> <r_epik_Metal_State_Penalty>
2.98589

> <b_epik_Metal_Only>
0

> <s_lp_Force_Field>
OPLS_2005

> <r_lp_Energy>
57.8079

> <b_lp_Chiralities_Consistent>
1

> <s_lp_Variant>
AV-unprocessed.smi:2886-7

> <Gold.Version>
5.8.1

> <Gold.Id.Protein>
6NUR|6NUR_protein|mol2

> <Gold.PLP.Fitness>
32.6874

> <Gold.PLP.PLP>
-26.6981

> <Gold.PLP.part.hbond>
-1.6628

> <Gold.PLP.part.metal>
0.0000

> <Gold.PLP.part.buried>
-4.8220

> <Gold.PLP.part.nonpolar>
-19.7998

> <Gold.PLP.part.repulsive>
0.5377

> <Gold.PLP.ligand.clash>
0.0000

> <Gold.PLP.ligand.torsion>
0.0100

> <Gold.PLP.Chemscore.Hbond>
2.0000

> <Gold.PLP.Chemscore.CHOScore>
0.0000

> <Gold.PLP.Chemscore.Metal>
0.0000

> <Gold.Chemscore.Hbonds>
donor molecule, donor type, donor heavy atom, donor atom, acceptor molecule, acceptor atom, score
      L1  H     4    17       P1  8028  1.72

> <Gold.PLP.Chemscore.Internal.Correction>
0.0093

> <Gold.Rescore>
     Score         DG    S(hbond)    S(metal)    S(lipo)     H(rot)  DE(clash)    DE(int)     intcor
     14.55     -14.77       1.08        0.00      70.39       1.00       0.18       0.03       ----

> <Gold.Chemscore.Fitness>
14.5542

> <Gold.Chemscore.DG>
-14.7653

> <Gold.Chemscore.ZeroCoef>
-5.4800

> <Gold.Chemscore.Hbond>
1.0806

> <Gold.Chemscore.Metal>
0.0000

> <Gold.Chemscore.Lipo>
70.3937

> <Gold.Chemscore.Internal_Hbond>
0.0000

> <Gold.Chemscore.DEClash>
0.1837

> <Gold.Chemscore.DEInternal>
0.0274

> <Gold.Chemscore.Rot>
1.0000

> <Gold.Chemscore.Internal.Correction>
   9.000000E+99

> <Gold.Chemscore.Hbonds>
donor molecule, donor type, donor heavy atom, donor atom, acceptor molecule, acceptor atom, score
      L1  H     4    17       P1  8028  0.84

> <Gold.Chemscore.Hbond.Weighted>
-3.6093

> <Gold.Chemscore.Metal.Weighted>
-0.0000

> <Gold.Chemscore.Lipo.Weighted>
-8.2361

> <Gold.Chemscore.Internal_Hbond.Weighted>
0.0000

> <Gold.Chemscore.DEClash.Weighted>
0.1837

> <Gold.Chemscore.DEInternal.Weighted>
0.0274

> <Gold.Chemscore.Rot.Weighted>
2.5600

> <Gold.Chemscore.Internal.Correction.Weighted>
   9.000000E+99

> <Gold.Protein.RotatedTorsions>
[ 6907 6896 6895 6894 ] final   49.16 input  -60.11 | X-H torsion
[ 7974 7965 7964 7962 ] final   -1.16 input  175.53 | X-H torsion
[ 8008 7997 7996 7995 ] final -138.33 input   59.86 | X-H torsion
[ 10167 10162 10161 10158 ] final  -22.05 input  -65.29 | X-H torsion
[ 10718 10713 10712 10709 ] final -127.87 input   66.30 | X-H torsion
[ 10763 10752 10751 10750 ] final  109.30 input  -60.55 | X-H torsion
[ 11005 11000 10999 10996 ] final    2.19 input  -57.11 | X-H torsion

> <Gold.Protein.ActiveResidues>
 VAL166  LYS551  ARG553  GLY616  TRP617  ASP618  TYR619  PRO620  LYS621  CYS622 
 ASP623  PHE694  ASN695  SER759  ASP760  ASP761  ALA762  ILE779  LEU786  VAL792 
 PHE793  MET794  SER795  GLU796  ALA797  LYS798  CYS799  TRP800  GLU811  SER814 

> <Gold.Protein.RotatedAtoms>
  152.2876  134.7758  160.0384 H   0  0  0  0  0  0  0  0  0  0  0  0  # atno 6907 bound_to 6896
  151.8315  133.3404  159.3623 H   0  0  0  0  0  0  0  0  0  0  0  0  # atno 6908 bound_to 6896
  150.7216  134.5407  159.5790 H   0  0  0  0  0  0  0  0  0  0  0  0  # atno 6909 bound_to 6896
  146.2420  140.1379  142.8336 H   0  0  0  0  0  0  0  0  0  0  0  0  # atno 7974 bound_to 7965
  155.4266  140.0522  157.3022 H   0  0  0  0  0  0  0  0  0  0  0  0  # atno 8008 bound_to 7997
  154.4879  140.2108  155.9573 H   0  0  0  0  0  0  0  0  0  0  0  0  # atno 8009 bound_to 7997
  156.1300  140.3173  155.8340 H   0  0  0  0  0  0  0  0  0  0  0  0  # atno 8010 bound_to 7997
  140.7284  143.4570  151.0434 H   0  0  0  0  0  0  0  0  0  0  0  0  # atno 10167 bound_to 10162
  156.1898  130.6787  151.0410 H   0  0  0  0  0  0  0  0  0  0  0  0  # atno 10718 bound_to 10713
  153.4327  135.3784  155.2180 H   0  0  0  0  0  0  0  0  0  0  0  0  # atno 10763 bound_to 10752
  154.8751  135.3844  154.4248 H   0  0  0  0  0  0  0  0  0  0  0  0  # atno 10764 bound_to 10752
  153.4783  135.7088  153.6016 H   0  0  0  0  0  0  0  0  0  0  0  0  # atno 10765 bound_to 10752
  140.6070  133.9783  155.8159 H   0  0  0  0  0  0  0  0  0  0  0  0  # atno 11005 bound_to 11000
  145.0271  140.8841  143.5132 LP  0  0  0  0  0  0  0  0  0  0  0  0  # atno 17320 bound_to 7965
  145.1437  139.2556  143.5477 LP  0  0  0  0  0  0  0  0  0  0  0  0  # atno 17321 bound_to 7965
  139.8251  143.7766  152.3178 LP  0  0  0  0  0  0  0  0  0  0  0  0  # atno 17342 bound_to 10162
  139.7863  144.7426  151.0018 LP  0  0  0  0  0  0  0  0  0  0  0  0  # atno 17343 bound_to 10162
  157.6922  131.0806  150.7075 LP  0  0  0  0  0  0  0  0  0  0  0  0  # atno 17370 bound_to 10713
  156.7132  130.4658  149.5542 LP  0  0  0  0  0  0  0  0  0  0  0  0  # atno 17371 bound_to 10713
  141.0834  134.0028  157.3351 LP  0  0  0  0  0  0  0  0  0  0  0  0  # atno 17394 bound_to 11000
  139.9208  135.0200  156.8056 LP  0  0  0  0  0  0  0  0  0  0  0  0  # atno 17395 bound_to 11000

$$$$
