AV-unprocessed.smi:1047|AV-procd|sdf|4579|dock1
  -GOLD-   22720 3 43D 1   1.00000     0.00000
 Structure written by MMmdl.
 56 58  0  0  0  0  0  0  0  0  2 V2000
  145.0185  144.9442  152.2293 C   0  0  0  0  0  0  0  0  0  0  0  0
  144.0126  145.1008  153.3786 C   0  0  0  0  0  0  0  0  0  0  0  0
  143.7725  143.8280  154.1034 N   0  3  2  0  0  0  0  0  0  0  0  0
  142.4980  143.8086  154.8629 C   0  0  0  0  0  0  0  0  0  0  0  0
  142.3117  142.4543  155.5665 C   0  0  0  0  0  0  0  0  0  0  0  0
  143.4313  142.1940  156.4036 O   0  0  0  0  0  0  0  0  0  0  0  0
  144.6451  142.1000  155.6646 C   0  0  2  0  0  0  0  0  0  0  0  0
  145.7724  141.7207  156.6367 C   0  0  0  0  0  0  0  0  0  0  0  0
  147.0727  142.1228  156.1108 N   0  0  0  0  0  0  0  0  0  0  0  0
  147.3198  141.6595  154.7482 C   0  0  0  0  0  0  0  0  0  0  0  0
  148.7692  141.1605  154.5880 C   0  0  1  0  0  0  0  0  0  0  0  0
  149.0649  141.0871  153.2089 O   0  0  0  0  0  0  0  0  0  0  0  0
  149.8198  142.0870  155.2309 C   0  0  0  0  0  0  0  0  0  0  0  0
  150.4081  141.5222  156.4318 N   0  0  0  0  0  0  0  0  0  0  0  0
  150.5521  140.2154  156.7238 C   0  0  0  0  0  0  0  0  0  0  0  0
  151.1218  139.9102  157.8860 N   0  0  0  0  0  0  0  0  0  0  0  0
  151.3844  141.1661  158.4061 C   0  0  0  0  0  0  0  0  0  0  0  0
  151.9869  141.5450  159.6256 C   0  0  0  0  0  0  0  0  0  0  0  0
  152.1566  142.9081  159.9573 C   0  0  0  0  0  0  0  0  0  0  0  0
  152.8098  143.2708  161.2795 C   0  0  0  0  0  0  0  0  0  0  0  0
  151.7213  143.9170  159.0610 C   0  0  0  0  0  0  0  0  0  0  0  0
  151.8960  145.3880  159.3945 C   0  0  0  0  0  0  0  0  0  0  0  0
  151.1152  143.5559  157.8395 C   0  0  0  0  0  0  0  0  0  0  0  0
  150.9519  142.1962  157.5203 C   0  0  0  0  0  0  0  0  0  0  0  0
  144.9052  143.4590  154.9862 C   0  0  0  0  0  0  0  0  0  0  0  0
  145.2403  145.9130  151.7812 H   0  0  0  0  0  0  0  0  0  0  0  0
  144.6373  144.3024  151.4356 H   0  0  0  0  0  0  0  0  0  0  0  0
  145.9597  144.5223  152.5830 H   0  0  0  0  0  0  0  0  0  0  0  0
  144.4158  145.8361  154.0764 H   0  0  0  0  0  0  0  0  0  0  0  0
  143.0690  145.5078  153.0119 H   0  0  0  0  0  0  0  0  0  0  0  0
  142.4989  144.6124  155.6007 H   0  0  0  0  0  0  0  0  0  0  0  0
  141.6537  143.9852  154.1972 H   0  0  0  0  0  0  0  0  0  0  0  0
  141.4098  142.4702  156.1785 H   0  0  0  0  0  0  0  0  0  0  0  0
  142.1888  141.6492  154.8401 H   0  0  0  0  0  0  0  0  0  0  0  0
  144.5552  141.3271  154.8985 H   0  0  0  0  0  0  0  0  0  0  0  0
  145.6049  142.2158  157.5940 H   0  0  0  0  0  0  0  0  0  0  0  0
  145.7523  140.6478  156.8317 H   0  0  0  0  0  0  0  0  0  0  0  0
  147.1564  143.1341  156.1464 H   0  0  0  0  0  0  0  0  0  0  0  0
  146.6138  140.8755  154.4705 H   0  0  0  0  0  0  0  0  0  0  0  0
  147.1416  142.4889  154.0637 H   0  0  0  0  0  0  0  0  0  0  0  0
  148.8682  140.1626  155.0182 H   0  0  0  0  0  0  0  0  0  0  0  0
  149.1995  140.1798  152.9814 H   0  0  0  0  0  0  0  0  0  0  0  0
  150.6259  142.2906  154.5242 H   0  0  0  0  0  0  0  0  0  0  0  0
  149.3756  143.0515  155.4795 H   0  0  0  0  0  0  0  0  0  0  0  0
  150.2163  139.4447  156.0452 H   0  0  0  0  0  0  0  0  0  0  0  0
  152.3194  140.7762  160.3074 H   0  0  0  0  0  0  0  0  0  0  0  0
  153.7470  143.8006  161.1083 H   0  0  0  0  0  0  0  0  0  0  0  0
  153.0293  142.3825  161.8726 H   0  0  0  0  0  0  0  0  0  0  0  0
  152.1527  143.9104  161.8690 H   0  0  0  0  0  0  0  0  0  0  0  0
  151.5607  146.0241  158.5747 H   0  0  0  0  0  0  0  0  0  0  0  0
  152.9450  145.6154  159.5851 H   0  0  0  0  0  0  0  0  0  0  0  0
  151.3171  145.6496  160.2804 H   0  0  0  0  0  0  0  0  0  0  0  0
  150.7773  144.3152  157.1500 H   0  0  0  0  0  0  0  0  0  0  0  0
  145.8230  143.4047  154.3992 H   0  0  0  0  0  0  0  0  0  0  0  0
  145.0504  144.2363  155.7386 H   0  0  0  0  0  0  0  0  0  0  0  0
  143.7114  143.1030  153.4026 H   0  0  0  0  0  0  0  0  0  0  0  0
  1  2  1  0  0  0  0
  1 26  1  0  0  0  0
  1 27  1  0  0  0  0
  1 28  1  0  0  0  0
  2  3  1  0  0  0  0
  2 29  1  0  0  0  0
  2 30  1  0  0  0  0
  3 25  1  0  0  0  0
  3  4  1  0  0  0  0
  3 56  1  0  0  0  0
  4  5  1  0  0  0  0
  4 31  1  0  0  0  0
  4 32  1  0  0  0  0
  5  6  1  0  0  0  0
  5 33  1  0  0  0  0
  5 34  1  0  0  0  0
  6  7  1  0  0  0  0
  7  8  1  0  0  0  0
  7 25  1  0  0  0  0
  7 35  1  0  0  0  0
  8  9  1  0  0  0  0
  8 36  1  0  0  0  0
  8 37  1  0  0  0  0
  9 10  1  0  0  0  0
  9 38  1  0  0  0  0
 10 11  1  0  0  0  0
 10 39  1  0  0  0  0
 10 40  1  0  0  0  0
 11 12  1  0  0  0  0
 11 13  1  0  0  0  0
 11 41  1  0  0  0  0
 12 42  1  0  0  0  0
 13 14  1  0  0  0  0
 13 43  1  0  0  0  0
 13 44  1  0  0  0  0
 14 24  1  0  0  0  0
 14 15  1  0  0  0  0
 15 16  2  0  0  0  0
 15 45  1  0  0  0  0
 16 17  1  0  0  0  0
 17 24  2  0  0  0  0
 17 18  1  0  0  0  0
 18 19  2  0  0  0  0
 18 46  1  0  0  0  0
 19 20  1  0  0  0  0
 19 21  1  0  0  0  0
 20 47  1  0  0  0  0
 20 48  1  0  0  0  0
 20 49  1  0  0  0  0
 21 22  1  0  0  0  0
 21 23  2  0  0  0  0
 22 50  1  0  0  0  0
 22 51  1  0  0  0  0
 22 52  1  0  0  0  0
 23 24  1  0  0  0  0
 23 53  1  0  0  0  0
 25 54  1  0  0  0  0
 25 55  1  0  0  0  0
M  CHG  1   3   1
M  END
> <s_m_source_file>
AV-unprocessed.smi

> <i_m_source_file_index>
1047

> <i_lp_mmshare_version>
43012

> <i_f3d_flags>
0

> <s_epik_input>
W0NIM11bQ0gyXU4xW0NIMl1bQ0gyXU9bQ0BIXShbQ0gyXTEpW0NIMl1bTkhdW0NIMl1bQ0BIXShbT0hdKVtDSDJdbihbY0hdbjIpYyhjMjMpW2NIXWMoW0NIM10pYyhbY0hdMylbQ0gzXQ==

> <s_epik_cmdline>
J2VwaWtfcHl0aG9uJywgJy1waCcsICc3LjAnLCAnLXRuJywgJzgnLCAnLW1hJywgJzIwMCcsICctbWV0YWxfYmluZGluZycsICctaW1hZScsICc8aW5maWxlLm1hZT4nLCAnLW9tYWUnLCAnPG91dGZpbGUubWFlPic=

> <r_epik_Ionization_Penalty>
1.19246

> <r_epik_Ionization_Penalty_Charging>
0.210041

> <r_epik_Ionization_Penalty_Neutral>
0.982415

> <r_epik_State_Penalty>
1.57595

> <r_epik_Charging_Adjusted_Penalty>
1.78599

> <i_epik_Tot_Q>
1

> <i_epik_Tot_abs_Q>
1

> <r_epik_Metal_State_Penalty>
1.46172

> <b_epik_Metal_Only>
0

> <s_lp_Force_Field>
OPLS_2005

> <r_lp_Energy>
30.8486

> <b_lp_Chiralities_Consistent>
1

> <s_lp_Variant>
AV-unprocessed.smi:1047-20

> <Gold.Version>
5.8.1

> <Gold.Id.Protein>
6NUR|6NUR_protein|mol2

> <Gold.PLP.Fitness>
57.8998

> <Gold.PLP.PLP>
-50.8465

> <Gold.PLP.part.hbond>
-4.0011

> <Gold.PLP.part.metal>
0.0000

> <Gold.PLP.part.buried>
-5.0200

> <Gold.PLP.part.nonpolar>
-43.7640

> <Gold.PLP.part.repulsive>
0.0887

> <Gold.PLP.ligand.clash>
0.0000

> <Gold.PLP.ligand.torsion>
1.8680

> <Gold.PLP.Chemscore.Hbond>
3.3963

> <Gold.PLP.Chemscore.CHOScore>
0.0000

> <Gold.PLP.Chemscore.Metal>
0.0000

> <Gold.Chemscore.Hbonds>
donor molecule, donor type, donor heavy atom, donor atom, acceptor molecule, acceptor atom, score
      L1  H     3    56       P1 10174  1.70
      L1  H     9    38       P1  8028  0.05
      L1  H    12    42       P1  7957  0.19
      P1  H  8011  8017       L1    12  1.00

> <Gold.PLP.Chemscore.Internal.Correction>
0.6006

> <Gold.Rescore>
     Score         DG    S(hbond)    S(metal)    S(lipo)     H(rot)  DE(clash)    DE(int)     intcor
     17.96     -19.78       1.65        0.00     132.39       2.62       0.22       1.61       ----

> <Gold.Chemscore.Fitness>
17.9585

> <Gold.Chemscore.DG>
-19.7828

> <Gold.Chemscore.ZeroCoef>
-5.4800

> <Gold.Chemscore.Hbond>
1.6535

> <Gold.Chemscore.Metal>
0.0000

> <Gold.Chemscore.Lipo>
132.3924

> <Gold.Chemscore.Internal_Hbond>
0.0000

> <Gold.Chemscore.DEClash>
0.2165

> <Gold.Chemscore.DEInternal>
1.6077

> <Gold.Chemscore.Rot>
2.6209

> <Gold.Chemscore.Internal.Correction>
   9.000000E+99

> <Gold.Chemscore.Hbonds>
donor molecule, donor type, donor heavy atom, donor atom, acceptor molecule, acceptor atom, score
      L1  H     3    56       P1 10174  0.22
      L1  H    12    42       P1  7957  0.20
      P1  H  8011  8017       L1    12  0.97

> <Gold.Chemscore.Hbond.Weighted>
-5.5225

> <Gold.Chemscore.Metal.Weighted>
-0.0000

> <Gold.Chemscore.Lipo.Weighted>
-15.4899

> <Gold.Chemscore.Internal_Hbond.Weighted>
0.0000

> <Gold.Chemscore.DEClash.Weighted>
0.2165

> <Gold.Chemscore.DEInternal.Weighted>
1.6077

> <Gold.Chemscore.Rot.Weighted>
6.7096

> <Gold.Chemscore.Internal.Correction.Weighted>
   9.000000E+99

> <Gold.Protein.RotatedTorsions>
[ 6907 6896 6895 6894 ] final   10.90 input  -60.11 | X-H torsion
[ 7974 7965 7964 7962 ] final   55.41 input  175.53 | X-H torsion
[ 8008 7997 7996 7995 ] final  100.69 input   59.86 | X-H torsion
[ 10167 10162 10161 10158 ] final  -18.24 input  -65.29 | X-H torsion
[ 10718 10713 10712 10709 ] final  -54.15 input   66.30 | X-H torsion
[ 10763 10752 10751 10750 ] final  177.03 input  -60.55 | X-H torsion
[ 11005 11000 10999 10996 ] final  117.89 input  -57.11 | X-H torsion

> <Gold.Protein.ActiveResidues>
 VAL166  LYS551  ARG553  GLY616  TRP617  ASP618  TYR619  PRO620  LYS621  CYS622 
 ASP623  PHE694  ASN695  SER759  ASP760  ASP761  ALA762  ILE779  LEU786  VAL792 
 PHE793  MET794  SER795  GLU796  ALA797  LYS798  CYS799  TRP800  GLU811  SER814 

> <Gold.Protein.RotatedAtoms>
  151.7457  135.0844  160.0322 H   0  0  0  0  0  0  0  0  0  0  0  0  # atno 6907 bound_to 6896
  152.3450  133.6107  159.5912 H   0  0  0  0  0  0  0  0  0  0  0  0  # atno 6908 bound_to 6896
  150.7503  133.9579  159.3548 H   0  0  0  0  0  0  0  0  0  0  0  0  # atno 6909 bound_to 6896
  145.9507  139.3969  143.0308 H   0  0  0  0  0  0  0  0  0  0  0  0  # atno 7974 bound_to 7965
  156.1227  140.3209  155.8232 H   0  0  0  0  0  0  0  0  0  0  0  0  # atno 8008 bound_to 7997
  155.4475  140.0530  157.3021 H   0  0  0  0  0  0  0  0  0  0  0  0  # atno 8009 bound_to 7997
  154.4839  140.2065  155.9712 H   0  0  0  0  0  0  0  0  0  0  0  0  # atno 8010 bound_to 7997
  140.7256  143.4936  150.9960 H   0  0  0  0  0  0  0  0  0  0  0  0  # atno 10167 bound_to 10162
  156.1475  130.4152  150.0000 H   0  0  0  0  0  0  0  0  0  0  0  0  # atno 10718 bound_to 10713
  154.4891  135.2778  155.1511 H   0  0  0  0  0  0  0  0  0  0  0  0  # atno 10763 bound_to 10752
  154.3190  135.6213  153.5503 H   0  0  0  0  0  0  0  0  0  0  0  0  # atno 10764 bound_to 10752
  152.9885  135.5738  154.5308 H   0  0  0  0  0  0  0  0  0  0  0  0  # atno 10765 bound_to 10752
  139.9090  134.9615  156.7419 H   0  0  0  0  0  0  0  0  0  0  0  0  # atno 11005 bound_to 11000
  145.8175  140.9695  143.0916 LP  0  0  0  0  0  0  0  0  0  0  0  0  # atno 17320 bound_to 7965
  144.6795  139.9999  143.7484 LP  0  0  0  0  0  0  0  0  0  0  0  0  # atno 17321 bound_to 7965
  139.8641  143.7276  152.3171 LP  0  0  0  0  0  0  0  0  0  0  0  0  # atno 17342 bound_to 10162
  139.7502  144.7536  151.0518 LP  0  0  0  0  0  0  0  0  0  0  0  0  # atno 17343 bound_to 10162
  156.7867  130.9241  151.3646 LP  0  0  0  0  0  0  0  0  0  0  0  0  # atno 17370 bound_to 10713
  157.6629  130.8982  149.9869 LP  0  0  0  0  0  0  0  0  0  0  0  0  # atno 17371 bound_to 10713
  140.6843  133.9447  155.7928 LP  0  0  0  0  0  0  0  0  0  0  0  0  # atno 17394 bound_to 11000
  141.0488  134.0515  157.3810 LP  0  0  0  0  0  0  0  0  0  0  0  0  # atno 17395 bound_to 11000

$$$$
