AV-unprocessed.smi:2823|AV-procd|sdf|10885|dock2
  -GOLD-   2272015323D 1   1.00000     0.00000
 Structure written by MMmdl.
 41 42  0  0  0  0  0  0  0  0  2 V2000
  145.7473  134.7943  161.5674 C   0  0  0  0  0  0  0  0  0  0  0  0
  146.7554  135.5176  160.7415 C   0  0  0  0  0  0  0  0  0  0  0  0
  146.9363  136.8241  160.8642 N   0  0  0  0  0  0  0  0  0  0  0  0
  147.9508  137.0927  159.9349 O   0  0  0  0  0  0  0  0  0  0  0  0
  148.2652  135.9083  159.3485 C   0  0  0  0  0  0  0  0  0  0  0  0
  149.2173  135.8269  158.4045 N   0  5  0  0  0  0  0  0  0  0  0  0
  149.2430  136.7263  157.3954 C   0  0  0  0  0  0  0  0  0  0  0  0
  149.2869  136.4681  156.1909 O   0  0  0  0  0  0  0  0  0  0  0  0
  149.2098  138.0016  157.8097 N   0  0  0  0  0  0  0  0  0  0  0  0
  149.2033  139.1987  156.9662 C   0  0  0  0  0  0  0  0  0  0  0  0
  150.4794  140.0785  157.1485 C   0  0  0  0  0  0  0  0  0  0  0  0
  151.7450  139.4464  156.4759 C   0  0  0  0  0  0  0  0  0  0  0  0
  152.7152  139.1886  157.1932 O   0  0  0  0  0  0  0  0  0  0  0  0
  151.8107  139.1974  155.1392 N   0  0  0  0  0  0  0  0  0  0  0  0
  150.6223  139.4137  154.3079 C   0  0  0  0  0  0  0  0  0  0  0  0
  152.9578  138.7109  154.3659 C   0  0  0  0  0  0  0  0  0  0  0  0
  150.1767  141.4872  156.5637 C   0  0  0  0  0  0  0  0  0  0  0  0
  151.1101  142.4823  157.2611 C   0  0  0  0  0  0  0  0  0  0  0  0
  151.4750  141.8321  158.5970 C   0  0  0  0  0  0  0  0  0  0  0  0
  150.7657  140.4710  158.6198 C   0  0  0  0  0  0  0  0  0  0  0  0
  147.5479  134.8924  159.8305 N   0  0  0  0  0  0  0  0  0  0  0  0
  144.9124  135.4498  161.8177 H   0  0  0  0  0  0  0  0  0  0  0  0
  146.2037  134.4431  162.4928 H   0  0  0  0  0  0  0  0  0  0  0  0
  145.3566  133.9333  161.0243 H   0  0  0  0  0  0  0  0  0  0  0  0
  149.1732  138.1552  158.8067 H   0  0  0  0  0  0  0  0  0  0  0  0
  149.1523  138.8474  155.9352 H   0  0  0  0  0  0  0  0  0  0  0  0
  148.2788  139.7547  157.0990 H   0  0  0  0  0  0  0  0  0  0  0  0
  150.3413  140.4679  154.3040 H   0  0  0  0  0  0  0  0  0  0  0  0
  149.7778  138.8342  154.6848 H   0  0  0  0  0  0  0  0  0  0  0  0
  150.7784  139.1118  153.2713 H   0  0  0  0  0  0  0  0  0  0  0  0
  153.9094  138.7107  154.8858 H   0  0  0  0  0  0  0  0  0  0  0  0
  153.0989  139.3302  153.4796 H   0  0  0  0  0  0  0  0  0  0  0  0
  152.7710  137.6917  154.0274 H   0  0  0  0  0  0  0  0  0  0  0  0
  150.2579  141.5416  155.4770 H   0  0  0  0  0  0  0  0  0  0  0  0
  149.1492  141.7702  156.7975 H   0  0  0  0  0  0  0  0  0  0  0  0
  152.0100  142.6425  156.6665 H   0  0  0  0  0  0  0  0  0  0  0  0
  150.6310  143.4526  157.3948 H   0  0  0  0  0  0  0  0  0  0  0  0
  152.5557  141.6958  158.6561 H   0  0  0  0  0  0  0  0  0  0  0  0
  151.1773  142.4485  159.4458 H   0  0  0  0  0  0  0  0  0  0  0  0
  149.8240  140.5685  159.1616 H   0  0  0  0  0  0  0  0  0  0  0  0
  151.3709  139.7579  159.1752 H   0  0  0  0  0  0  0  0  0  0  0  0
  1  2  1  0  0  0  0
  1 22  1  0  0  0  0
  1 23  1  0  0  0  0
  1 24  1  0  0  0  0
  2 21  1  0  0  0  0
  2  3  2  0  0  0  0
  3  4  1  0  0  0  0
  4  5  1  0  0  0  0
  5  6  1  0  0  0  0
  5 21  2  0  0  0  0
  6  7  1  0  0  0  0
  7  8  2  0  0  0  0
  7  9  1  0  0  0  0
  9 10  1  0  0  0  0
  9 25  1  0  0  0  0
 10 11  1  0  0  0  0
 10 26  1  0  0  0  0
 10 27  1  0  0  0  0
 11 20  1  0  0  0  0
 11 12  1  0  0  0  0
 11 17  1  0  0  0  0
 12 13  2  0  0  0  0
 12 14  1  0  0  0  0
 14 15  1  0  0  0  0
 14 16  1  0  0  0  0
 15 28  1  0  0  0  0
 15 29  1  0  0  0  0
 15 30  1  0  0  0  0
 16 31  1  0  0  0  0
 16 32  1  0  0  0  0
 16 33  1  0  0  0  0
 17 18  1  0  0  0  0
 17 34  1  0  0  0  0
 17 35  1  0  0  0  0
 18 19  1  0  0  0  0
 18 36  1  0  0  0  0
 18 37  1  0  0  0  0
 19 20  1  0  0  0  0
 19 38  1  0  0  0  0
 19 39  1  0  0  0  0
 20 40  1  0  0  0  0
 20 41  1  0  0  0  0
M  CHG  1   6  -1
M  END
> <s_m_source_file>
AV-unprocessed.smi

> <i_m_source_file_index>
2823

> <i_lp_mmshare_version>
43012

> <i_f3d_flags>
0

> <s_epik_input>
W0NIM11jMW5vYyhuMSlbTkhdQyg9TylbTkhdW0NIMl1DMihDKD1PKU4oW0NIM10pW0NIM10pW0NIMl1bQ0gyXVtDSDJdW0NIMl0y

> <s_epik_cmdline>
J2VwaWtfcHl0aG9uJywgJy1waCcsICc3LjAnLCAnLXRuJywgJzgnLCAnLW1hJywgJzIwMCcsICctbWV0YWxfYmluZGluZycsICctaW1hZScsICc8aW5maWxlLm1hZT4nLCAnLW9tYWUnLCAnPG91dGZpbGUubWFlPic=

> <r_lp_tautomer_probability>
1

> <r_epik_Ionization_Penalty>
6.03325

> <r_epik_Ionization_Penalty_Charging>
6.03318

> <r_epik_Ionization_Penalty_Neutral>
6.91426e-05

> <r_epik_State_Penalty>
6.03316

> <r_epik_Charging_Adjusted_Penalty>
12.0663

> <i_epik_Tot_Q>
-1

> <i_epik_Tot_abs_Q>
1

> <r_epik_Metal_State_Penalty>
1.98358

> <b_epik_Metal_Only>
1

> <s_lp_Force_Field>
OPLS_2005

> <r_lp_Energy>
29.6758

> <b_lp_Chiralities_Consistent>
1

> <s_lp_Variant>
AV-unprocessed.smi:2823-2

> <Gold.Version>
5.8.1

> <Gold.Id.Protein>
6NUR|6NUR_protein|mol2

> <Gold.PLP.Fitness>
43.2894

> <Gold.PLP.PLP>
-36.2260

> <Gold.PLP.part.hbond>
-6.0000

> <Gold.PLP.part.metal>
0.0000

> <Gold.PLP.part.buried>
-3.8663

> <Gold.PLP.part.nonpolar>
-26.1259

> <Gold.PLP.part.repulsive>
0.1228

> <Gold.PLP.ligand.clash>
0.0000

> <Gold.PLP.ligand.torsion>
1.0787

> <Gold.PLP.Chemscore.Hbond>
3.0000

> <Gold.PLP.Chemscore.CHOScore>
0.0000

> <Gold.PLP.Chemscore.Metal>
0.0000

> <Gold.Chemscore.Hbonds>
donor molecule, donor type, donor heavy atom, donor atom, acceptor molecule, acceptor atom, score
      P1  H  6896  6907       L1     6  0.85
      P1  H  7997  8009       L1    13  1.00

> <Gold.PLP.Chemscore.Internal.Correction>
0.2208

> <Gold.Rescore>
     Score         DG    S(hbond)    S(metal)    S(lipo)     H(rot)  DE(clash)    DE(int)     intcor
     11.85     -14.13       1.82        0.00      59.56       1.71       0.18       2.10       ----

> <Gold.Chemscore.Fitness>
11.8481

> <Gold.Chemscore.DG>
-14.1281

> <Gold.Chemscore.ZeroCoef>
-5.4800

> <Gold.Chemscore.Hbond>
1.8174

> <Gold.Chemscore.Metal>
0.0000

> <Gold.Chemscore.Lipo>
59.5576

> <Gold.Chemscore.Internal_Hbond>
0.0000

> <Gold.Chemscore.DEClash>
0.1828

> <Gold.Chemscore.DEInternal>
2.0973

> <Gold.Chemscore.Rot>
1.7149

> <Gold.Chemscore.Internal.Correction>
   9.000000E+99

> <Gold.Chemscore.Hbonds>
donor molecule, donor type, donor heavy atom, donor atom, acceptor molecule, acceptor atom, score
      P1  H  6896  6907       L1     6  0.09
      P1  H  7997  8009       L1    13  0.95

> <Gold.Chemscore.Hbond.Weighted>
-6.0700

> <Gold.Chemscore.Metal.Weighted>
-0.0000

> <Gold.Chemscore.Lipo.Weighted>
-6.9682

> <Gold.Chemscore.Internal_Hbond.Weighted>
0.0000

> <Gold.Chemscore.DEClash.Weighted>
0.1828

> <Gold.Chemscore.DEInternal.Weighted>
2.0973

> <Gold.Chemscore.Rot.Weighted>
4.3901

> <Gold.Chemscore.Internal.Correction.Weighted>
   9.000000E+99

> <Gold.Protein.RotatedTorsions>
[ 6907 6896 6895 6894 ] final  -74.35 input  -60.11 | X-H torsion
[ 7974 7965 7964 7962 ] final   46.54 input  175.53 | X-H torsion
[ 8008 7997 7996 7995 ] final  169.60 input   59.86 | X-H torsion
[ 10167 10162 10161 10158 ] final   73.54 input  -65.29 | X-H torsion
[ 10718 10713 10712 10709 ] final  118.50 input   66.30 | X-H torsion
[ 10763 10752 10751 10750 ] final   39.81 input  -60.55 | X-H torsion
[ 11005 11000 10999 10996 ] final   57.43 input  -57.11 | X-H torsion

> <Gold.Protein.ActiveResidues>
 VAL166  LYS551  ARG553  GLY616  TRP617  ASP618  TYR619  PRO620  LYS621  CYS622 
 ASP623  PHE694  ASN695  SER759  ASP760  ASP761  ALA762  ILE779  LEU786  VAL792 
 PHE793  MET794  SER795  GLU796  ALA797  LYS798  CYS799  TRP800  GLU811  SER814 

> <Gold.Protein.RotatedAtoms>
  150.7096  134.4881  159.5502 H   0  0  0  0  0  0  0  0  0  0  0  0  # atno 6907 bound_to 6896
  152.2504  134.8135  160.0456 H   0  0  0  0  0  0  0  0  0  0  0  0  # atno 6908 bound_to 6896
  151.8884  133.3475  159.3827 H   0  0  0  0  0  0  0  0  0  0  0  0  # atno 6909 bound_to 6896
  146.0380  139.4844  142.9796 H   0  0  0  0  0  0  0  0  0  0  0  0  # atno 7974 bound_to 7965
  156.1443  140.1560  156.8872 H   0  0  0  0  0  0  0  0  0  0  0  0  # atno 8008 bound_to 7997
  154.5014  140.0824  156.7843 H   0  0  0  0  0  0  0  0  0  0  0  0  # atno 8009 bound_to 7997
  155.4019  140.3415  155.4260 H   0  0  0  0  0  0  0  0  0  0  0  0  # atno 8010 bound_to 7997
  140.0234  144.5522  150.7563 H   0  0  0  0  0  0  0  0  0  0  0  0  # atno 10167 bound_to 10162
  157.6025  131.1048  150.7765 H   0  0  0  0  0  0  0  0  0  0  0  0  # atno 10718 bound_to 10713
  152.9955  135.6209  154.2525 H   0  0  0  0  0  0  0  0  0  0  0  0  # atno 10763 bound_to 10752
  154.2263  135.2794  155.2908 H   0  0  0  0  0  0  0  0  0  0  0  0  # atno 10764 bound_to 10752
  154.5486  135.5740  153.6960 H   0  0  0  0  0  0  0  0  0  0  0  0  # atno 10765 bound_to 10752
  140.0453  134.5815  155.9330 H   0  0  0  0  0  0  0  0  0  0  0  0  # atno 11005 bound_to 11000
  145.6932  141.0158  143.1544 LP  0  0  0  0  0  0  0  0  0  0  0  0  # atno 17320 bound_to 7965
  144.7061  139.8557  143.7429 LP  0  0  0  0  0  0  0  0  0  0  0  0  # atno 17321 bound_to 7965
  140.7333  143.2715  151.3873 LP  0  0  0  0  0  0  0  0  0  0  0  0  # atno 17342 bound_to 10162
  139.6124  144.1071  152.2312 LP  0  0  0  0  0  0  0  0  0  0  0  0  # atno 17343 bound_to 10162
  156.8161  130.4968  149.5349 LP  0  0  0  0  0  0  0  0  0  0  0  0  # atno 17370 bound_to 10713
  156.1103  130.6035  151.0036 LP  0  0  0  0  0  0  0  0  0  0  0  0  # atno 17371 bound_to 10713
  141.1904  133.6568  156.5409 LP  0  0  0  0  0  0  0  0  0  0  0  0  # atno 17394 bound_to 11000
  140.4004  134.7362  157.4776 LP  0  0  0  0  0  0  0  0  0  0  0  0  # atno 17395 bound_to 11000

$$$$
