AV-unprocessed.smi:205|AV-procd|sdf|1600|dock6
  -GOLD-   2262019513D 1   1.00000     0.00000
 Structure written by MMmdl.
 54 56  0  0  0  0  0  0  0  0  1 V2000
  148.2760  137.1783  162.7673 O   0  0  0  0  0  0  0  0  0  0  0  0
  147.5801  136.0119  162.3819 C   0  0  0  0  0  0  0  0  0  0  0  0
  147.1657  136.1089  160.9088 C   0  0  0  0  0  0  0  0  0  0  0  0
  146.3544  137.2578  160.7293 O   0  0  0  0  0  0  0  0  0  0  0  0
  145.5338  137.1733  159.5764 C   0  0  0  0  0  0  0  0  0  0  0  0
  146.4258  137.0619  158.3267 C   0  0  0  0  0  0  0  0  0  0  0  0
  145.7325  137.3641  157.0735 N   0  0  0  0  0  0  0  0  0  0  0  0
  145.8606  138.7170  156.5328 C   0  0  0  0  0  0  0  0  0  0  0  0
  146.8799  139.5841  157.2948 C   0  0  0  0  0  0  0  0  0  0  0  0
  146.2445  140.2871  158.3413 O   0  0  0  0  0  0  0  0  0  0  0  0
  145.5790  136.3897  156.1423 C   0  0  0  0  0  0  0  0  0  0  0  0
  145.9471  135.1320  156.4955 N   0  0  0  0  0  0  0  0  0  0  0  0
  145.8374  134.1273  155.6224 C   0  0  0  0  0  0  0  0  0  0  0  0
  145.3923  134.1600  154.3652 N   0  0  0  0  0  0  0  0  0  0  0  0
  145.0108  135.4195  154.0061 C   0  0  0  0  0  0  0  0  0  0  0  0
  145.0573  136.5808  154.8292 C   0  0  0  0  0  0  0  0  0  0  0  0
  144.5522  137.6713  154.1301 N   0  0  0  0  0  0  0  0  0  0  0  0
  144.2406  137.1866  152.9599 C   0  0  0  0  0  0  0  0  0  0  0  0
  144.5166  135.8496  152.7865 N   0  0  0  0  0  0  0  0  0  0  0  0
  144.2469  135.0666  151.6162 C   0  0  0  0  0  0  0  0  0  0  0  0
  143.6832  133.6470  151.7276 C   0  0  0  0  0  0  0  0  0  0  0  0
  144.5498  133.1915  150.5334 C   0  0  0  0  0  0  0  0  0  0  0  0
  145.3066  131.8714  150.7461 C   0  0  0  0  0  0  0  0  0  0  0  0
  146.3305  131.7066  149.7860 O   0  0  0  0  0  0  0  0  0  0  0  0
  143.8597  133.1030  149.1543 C   0  0  0  0  0  0  0  0  0  0  0  0
  142.8020  132.1664  149.1191 O   0  0  0  0  0  0  0  0  0  0  0  0
  145.3912  134.4603  150.7968 C   0  0  0  0  0  0  0  0  0  0  0  0
  147.9590  137.4516  163.6145 H   0  0  0  0  0  0  0  0  0  0  0  0
  148.1867  135.1248  162.5670 H   0  0  0  0  0  0  0  0  0  0  0  0
  146.6931  135.9344  163.0110 H   0  0  0  0  0  0  0  0  0  0  0  0
  148.0576  136.2159  160.2896 H   0  0  0  0  0  0  0  0  0  0  0  0
  146.6539  135.2002  160.5861 H   0  0  0  0  0  0  0  0  0  0  0  0
  144.9022  136.2866  159.6470 H   0  0  0  0  0  0  0  0  0  0  0  0
  144.8655  138.0327  159.5188 H   0  0  0  0  0  0  0  0  0  0  0  0
  147.2660  137.7491  158.4314 H   0  0  0  0  0  0  0  0  0  0  0  0
  146.8615  136.0648  158.2669 H   0  0  0  0  0  0  0  0  0  0  0  0
  146.1692  138.6500  155.4890 H   0  0  0  0  0  0  0  0  0  0  0  0
  144.8832  139.2005  156.5137 H   0  0  0  0  0  0  0  0  0  0  0  0
  147.7171  139.0002  157.6782 H   0  0  0  0  0  0  0  0  0  0  0  0
  147.2979  140.3284  156.6169 H   0  0  0  0  0  0  0  0  0  0  0  0
  145.7878  141.0277  157.9725 H   0  0  0  0  0  0  0  0  0  0  0  0
  146.1576  133.1599  155.9804 H   0  0  0  0  0  0  0  0  0  0  0  0
  143.8063  137.7991  152.1830 H   0  0  0  0  0  0  0  0  0  0  0  0
  143.6064  135.6852  150.9863 H   0  0  0  0  0  0  0  0  0  0  0  0
  143.9664  133.1622  152.6635 H   0  0  0  0  0  0  0  0  0  0  0  0
  142.6070  133.5779  151.5648 H   0  0  0  0  0  0  0  0  0  0  0  0
  145.7440  131.8216  151.7439 H   0  0  0  0  0  0  0  0  0  0  0  0
  144.6338  131.0173  150.6615 H   0  0  0  0  0  0  0  0  0  0  0  0
  147.0669  131.2861  150.2037 H   0  0  0  0  0  0  0  0  0  0  0  0
  143.4517  134.0719  148.8641 H   0  0  0  0  0  0  0  0  0  0  0  0
  144.5714  132.8197  148.3785 H   0  0  0  0  0  0  0  0  0  0  0  0
  141.9838  132.6355  149.1795 H   0  0  0  0  0  0  0  0  0  0  0  0
  145.6548  135.0300  149.9052 H   0  0  0  0  0  0  0  0  0  0  0  0
  146.2757  134.2640  151.4052 H   0  0  0  0  0  0  0  0  0  0  0  0
  1  2  1  0  0  0  0
  1 28  1  0  0  0  0
  2  3  1  0  0  0  0
  2 29  1  0  0  0  0
  2 30  1  0  0  0  0
  3  4  1  0  0  0  0
  3 31  1  0  0  0  0
  3 32  1  0  0  0  0
  4  5  1  0  0  0  0
  5  6  1  0  0  0  0
  5 33  1  0  0  0  0
  5 34  1  0  0  0  0
  6  7  1  0  0  0  0
  6 35  1  0  0  0  0
  6 36  1  0  0  0  0
  7  8  1  0  0  0  0
  7 11  1  0  0  0  0
  8  9  1  0  0  0  0
  8 37  1  0  0  0  0
  8 38  1  0  0  0  0
  9 10  1  0  0  0  0
  9 39  1  0  0  0  0
  9 40  1  0  0  0  0
 10 41  1  0  0  0  0
 11 16  1  0  0  0  0
 11 12  2  0  0  0  0
 12 13  1  0  0  0  0
 13 14  2  0  0  0  0
 13 42  1  0  0  0  0
 14 15  1  0  0  0  0
 15 19  1  0  0  0  0
 15 16  2  0  0  0  0
 16 17  1  0  0  0  0
 17 18  2  0  0  0  0
 18 19  1  0  0  0  0
 18 43  1  0  0  0  0
 19 20  1  0  0  0  0
 20 27  1  0  0  0  0
 20 21  1  0  0  0  0
 20 44  1  0  0  0  0
 21 22  1  0  0  0  0
 21 45  1  0  0  0  0
 21 46  1  0  0  0  0
 22 23  1  0  0  0  0
 22 25  1  0  0  0  0
 22 27  1  0  0  0  0
 23 24  1  0  0  0  0
 23 47  1  0  0  0  0
 23 48  1  0  0  0  0
 24 49  1  0  0  0  0
 25 26  1  0  0  0  0
 25 50  1  0  0  0  0
 25 51  1  0  0  0  0
 26 52  1  0  0  0  0
 27 53  1  0  0  0  0
 27 54  1  0  0  0  0
M  END
> <s_m_source_file>
AV-unprocessed.smi

> <i_m_source_file_index>
205

> <i_lp_mmshare_version>
43012

> <i_f3d_flags>
0

> <s_epik_input>
W09IXVtDSDJdW0NIMl1PW0NIMl1bQ0gyXU4oW0NIMl1bQ0gyXVtPSF0pYyhuW2NIXW4xKWMoYzEyKW5bY0hdbjJbQ0hdKFtDSDJdMylbQ0gyXUMzKFtDSDJdW09IXSlbQ0gyXVtPSF0=

> <s_epik_cmdline>
J2VwaWtfcHl0aG9uJywgJy1waCcsICc3LjAnLCAnLXRuJywgJzgnLCAnLW1hJywgJzIwMCcsICctbWV0YWxfYmluZGluZycsICctaW1hZScsICc8aW5maWxlLm1hZT4nLCAnLW9tYWUnLCAnPG91dGZpbGUubWFlPic=

> <r_lp_tautomer_probability>
1

> <r_epik_Ionization_Penalty>
0.00545557

> <r_epik_Ionization_Penalty_Charging>
0

> <r_epik_Ionization_Penalty_Neutral>
0.00545557

> <r_epik_State_Penalty>
0.00384469

> <r_epik_Charging_Adjusted_Penalty>
0.00384469

> <i_epik_Tot_Q>
0

> <i_epik_Tot_abs_Q>
0

> <r_epik_Metal_State_Penalty>
-0

> <b_epik_Metal_Only>
0

> <s_lp_Force_Field>
OPLS_2005

> <r_lp_Energy>
40.5801

> <b_lp_Chiralities_Consistent>
1

> <s_lp_Variant>
AV-unprocessed.smi:205-1

> <Gold.Version>
5.8.1

> <Gold.Id.Protein>
6NUR|6NUR_protein|mol2

> <Gold.PLP.Fitness>
52.7617

> <Gold.PLP.PLP>
-35.4447

> <Gold.PLP.part.hbond>
-6.5038

> <Gold.PLP.part.metal>
0.0000

> <Gold.PLP.part.buried>
-5.9773

> <Gold.PLP.part.nonpolar>
-22.2835

> <Gold.PLP.part.repulsive>
0.1920

> <Gold.PLP.ligand.clash>
0.0000

> <Gold.PLP.ligand.torsion>
1.3898

> <Gold.PLP.Chemscore.Hbond>
4.6200

> <Gold.PLP.Chemscore.CHOScore>
1.5837

> <Gold.PLP.Chemscore.Metal>
0.0000

> <Gold.Chemscore.Hbonds>
donor molecule, donor type, donor heavy atom, donor atom, acceptor molecule, acceptor atom, score
      L1  H    24    49       P1 10747  1.00
      L1  H    26    52       P1 10186  0.93
      P1  H  6931  6943       L1     1  0.82
      P1  H  6934  6947       L1     4  1.00
      P1  H 10785 10796       L1    26  0.84
      L1  C    18    43       P1 10171  1.00
      L1  C    18    43       P1 10175  0.58

> <Gold.PLP.Chemscore.Internal.Correction>
1.4855

> <Gold.Rescore>
     Score         DG    S(hbond)    S(metal)    S(lipo)     H(rot)  DE(clash)    DE(int)     intcor
      7.17      -9.81       4.24        0.00      63.97       6.76       0.01       2.63       ----

> <Gold.Chemscore.Fitness>
7.1696

> <Gold.Chemscore.DG>
-9.8113

> <Gold.Chemscore.ZeroCoef>
-5.4800

> <Gold.Chemscore.Hbond>
4.2371

> <Gold.Chemscore.Metal>
0.0000

> <Gold.Chemscore.Lipo>
63.9738

> <Gold.Chemscore.Internal_Hbond>
0.0000

> <Gold.Chemscore.DEClash>
0.0149

> <Gold.Chemscore.DEInternal>
2.6268

> <Gold.Chemscore.Rot>
6.7600

> <Gold.Chemscore.Internal.Correction>
   9.000000E+99

> <Gold.Chemscore.Hbonds>
donor molecule, donor type, donor heavy atom, donor atom, acceptor molecule, acceptor atom, score
      L1  H    24    49       P1 10747  0.93
      L1  H    26    52       P1 10186  0.84
      P1  H  6931  6943       L1     1  0.71
      P1  H  6934  6947       L1     4  0.79
      P1  H 10785 10796       L1    26  0.80

> <Gold.Chemscore.Hbond.Weighted>
-14.1518

> <Gold.Chemscore.Metal.Weighted>
-0.0000

> <Gold.Chemscore.Lipo.Weighted>
-7.4849

> <Gold.Chemscore.Internal_Hbond.Weighted>
0.0000

> <Gold.Chemscore.DEClash.Weighted>
0.0149

> <Gold.Chemscore.DEInternal.Weighted>
2.6268

> <Gold.Chemscore.Rot.Weighted>
17.3055

> <Gold.Chemscore.Internal.Correction.Weighted>
   9.000000E+99

> <Gold.Protein.RotatedTorsions>
[ 6907 6896 6895 6894 ] final -114.86 input  -60.11 | X-H torsion
[ 7974 7965 7964 7962 ] final -156.19 input  175.53 | X-H torsion
[ 8008 7997 7996 7995 ] final    8.89 input   59.86 | X-H torsion
[ 10167 10162 10161 10158 ] final  -93.20 input  -65.29 | X-H torsion
[ 10718 10713 10712 10709 ] final -169.84 input   66.30 | X-H torsion
[ 10763 10752 10751 10750 ] final  -47.88 input  -60.55 | X-H torsion
[ 11005 11000 10999 10996 ] final  -80.99 input  -57.11 | X-H torsion

> <Gold.Protein.ActiveResidues>
 VAL166  LYS551  ARG553  GLY616  TRP617  ASP618  TYR619  PRO620  LYS621  CYS622 
 ASP623  PHE694  ASN695  SER759  ASP760  ASP761  ALA762  ILE779  LEU786  VAL792 
 PHE793  MET794  SER795  GLU796  ALA797  LYS798  CYS799  TRP800  GLU811  SER814 

> <Gold.Protein.RotatedAtoms>
  150.7934  133.8741  159.3266 H   0  0  0  0  0  0  0  0  0  0  0  0  # atno 6907 bound_to 6896
  151.6573  135.0992  160.0182 H   0  0  0  0  0  0  0  0  0  0  0  0  # atno 6908 bound_to 6896
  152.4011  133.6781  159.6353 H   0  0  0  0  0  0  0  0  0  0  0  0  # atno 6909 bound_to 6896
  144.7605  140.4145  143.5980 H   0  0  0  0  0  0  0  0  0  0  0  0  # atno 7974 bound_to 7965
  154.7728  140.2805  155.6124 H   0  0  0  0  0  0  0  0  0  0  0  0  # atno 8008 bound_to 7997
  156.2936  140.2638  156.2462 H   0  0  0  0  0  0  0  0  0  0  0  0  # atno 8009 bound_to 7997
  154.9879  140.0374  157.2296 H   0  0  0  0  0  0  0  0  0  0  0  0  # atno 8010 bound_to 7997
  140.3271  143.3016  151.9983 H   0  0  0  0  0  0  0  0  0  0  0  0  # atno 10167 bound_to 10162
  156.7174  130.9257  151.3094 H   0  0  0  0  0  0  0  0  0  0  0  0  # atno 10718 bound_to 10713
  154.0686  135.6608  153.4821 H   0  0  0  0  0  0  0  0  0  0  0  0  # atno 10763 bound_to 10752
  153.0399  135.5152  154.7589 H   0  0  0  0  0  0  0  0  0  0  0  0  # atno 10764 bound_to 10752
  154.6647  135.3020  154.9787 H   0  0  0  0  0  0  0  0  0  0  0  0  # atno 10765 bound_to 10752
  141.1667  133.7176  156.8356 H   0  0  0  0  0  0  0  0  0  0  0  0  # atno 11005 bound_to 11000
  145.6636  139.1586  143.2794 LP  0  0  0  0  0  0  0  0  0  0  0  0  # atno 17320 bound_to 7965
  146.1662  140.6715  142.9254 LP  0  0  0  0  0  0  0  0  0  0  0  0  # atno 17321 bound_to 7965
  139.4863  144.6265  151.7154 LP  0  0  0  0  0  0  0  0  0  0  0  0  # atno 17342 bound_to 10162
  140.5431  144.0547  150.6096 LP  0  0  0  0  0  0  0  0  0  0  0  0  # atno 17343 bound_to 10162
  157.6912  130.9235  150.0519 LP  0  0  0  0  0  0  0  0  0  0  0  0  # atno 17370 bound_to 10713
  156.1619  130.3644  149.9288 LP  0  0  0  0  0  0  0  0  0  0  0  0  # atno 17371 bound_to 10713
  140.2020  134.8890  157.3179 LP  0  0  0  0  0  0  0  0  0  0  0  0  # atno 17394 bound_to 11000
  140.2178  134.4061  155.7581 LP  0  0  0  0  0  0  0  0  0  0  0  0  # atno 17395 bound_to 11000

$$$$
