AV-unprocessed.smi:3303|AV-procd|sdf|12676|dock2
  -GOLD-   2272019 13D 1   1.00000     0.00000
 Structure written by MMmdl.
 44 45  0  0  0  0  0  0  0  0  2 V2000
  149.2059  141.4862  154.5355 C   0  0  0  0  0  0  0  0  0  0  0  0
  149.9306  140.7341  155.6637 C   0  0  1  0  0  0  0  0  0  0  0  0
  151.3620  140.3268  155.2654 C   0  0  0  0  0  0  0  0  0  0  0  0
  151.9844  139.4997  156.3032 N   0  0  0  0  0  0  0  0  0  0  0  0
  153.2925  139.0877  155.8002 C   0  0  0  0  0  0  0  0  0  0  0  0
  152.0904  140.2381  157.5744 C   0  0  2  0  0  0  0  0  0  0  0  0
  152.7593  139.3934  158.6776 C   0  0  0  0  0  0  0  0  0  0  0  0
  150.6825  140.6717  158.0461 C   0  0  0  0  0  0  0  0  0  0  0  0
  149.9362  141.5071  156.9961 C   0  0  1  0  0  0  0  0  0  0  0  0
  150.5633  142.8429  156.8583 N   0  3  0  0  0  0  0  0  0  0  0  0
  150.7699  143.5676  158.1279 C   0  0  0  0  0  0  0  0  0  0  0  0
  152.2562  143.8791  158.3476 C   0  0  0  0  0  0  0  0  0  0  0  0
  152.6419  143.8300  159.8137 C   0  0  0  0  0  0  0  0  0  0  0  0
  153.5365  142.8491  160.2922 C   0  0  0  0  0  0  0  0  0  0  0  0
  153.8648  142.8523  161.6619 C   0  0  0  0  0  0  0  0  0  0  0  0
  153.2895  143.8311  162.4950 C   0  0  0  0  0  0  0  0  0  0  0  0
  152.4089  144.7685  161.9189 C   0  0  0  0  0  0  0  0  0  0  0  0
  152.0890  144.7754  160.6064 N   0  0  0  0  0  0  0  0  0  0  0  0
  149.7220  142.4079  154.2661 H   0  0  0  0  0  0  0  0  0  0  0  0
  148.1881  141.7458  154.8278 H   0  0  0  0  0  0  0  0  0  0  0  0
  149.1420  140.8722  153.6367 H   0  0  0  0  0  0  0  0  0  0  0  0
  149.3687  139.8124  155.8275 H   0  0  0  0  0  0  0  0  0  0  0  0
  151.3206  139.7591  154.3345 H   0  0  0  0  0  0  0  0  0  0  0  0
  151.9724  141.2099  155.0695 H   0  0  0  0  0  0  0  0  0  0  0  0
  153.7619  138.3573  156.4581 H   0  0  0  0  0  0  0  0  0  0  0  0
  153.9645  139.9409  155.6948 H   0  0  0  0  0  0  0  0  0  0  0  0
  153.1971  138.6091  154.8249 H   0  0  0  0  0  0  0  0  0  0  0  0
  152.6977  141.1299  157.4113 H   0  0  0  0  0  0  0  0  0  0  0  0
  152.7082  139.9023  159.6405 H   0  0  0  0  0  0  0  0  0  0  0  0
  153.8162  139.2172  158.4790 H   0  0  0  0  0  0  0  0  0  0  0  0
  152.2693  138.4257  158.7919 H   0  0  0  0  0  0  0  0  0  0  0  0
  150.0925  139.7830  158.2772 H   0  0  0  0  0  0  0  0  0  0  0  0
  150.7536  141.2338  158.9784 H   0  0  0  0  0  0  0  0  0  0  0  0
  148.9048  141.6303  157.3313 H   0  0  0  0  0  0  0  0  0  0  0  0
  151.4596  142.7277  156.4071 H   0  0  0  0  0  0  0  0  0  0  0  0
  150.1961  144.4953  158.1106 H   0  0  0  0  0  0  0  0  0  0  0  0
  150.3858  142.9623  158.9503 H   0  0  0  0  0  0  0  0  0  0  0  0
  152.8736  143.1676  157.7970 H   0  0  0  0  0  0  0  0  0  0  0  0
  152.4939  144.8657  157.9472 H   0  0  0  0  0  0  0  0  0  0  0  0
  153.9627  142.1108  159.6288 H   0  0  0  0  0  0  0  0  0  0  0  0
  154.5447  142.1169  162.0664 H   0  0  0  0  0  0  0  0  0  0  0  0
  153.5169  143.8629  163.5504 H   0  0  0  0  0  0  0  0  0  0  0  0
  151.9499  145.5330  162.5280 H   0  0  0  0  0  0  0  0  0  0  0  0
  149.9748  143.4058  156.2611 H   0  0  0  0  0  0  0  0  0  0  0  0
  1  2  1  0  0  0  0
  1 19  1  0  0  0  0
  1 20  1  0  0  0  0
  1 21  1  0  0  0  0
  2  9  1  0  0  0  0
  2  3  1  0  0  0  0
  2 22  1  0  0  0  0
  3  4  1  0  0  0  0
  3 23  1  0  0  0  0
  3 24  1  0  0  0  0
  4  5  1  0  0  0  0
  4  6  1  0  0  0  0
  5 25  1  0  0  0  0
  5 26  1  0  0  0  0
  5 27  1  0  0  0  0
  6  7  1  0  0  0  0
  6  8  1  0  0  0  0
  6 28  1  0  0  0  0
  7 29  1  0  0  0  0
  7 30  1  0  0  0  0
  7 31  1  0  0  0  0
  8  9  1  0  0  0  0
  8 32  1  0  0  0  0
  8 33  1  0  0  0  0
  9 10  1  0  0  0  0
  9 34  1  0  0  0  0
 10 11  1  0  0  0  0
 10 35  1  0  0  0  0
 10 44  1  0  0  0  0
 11 12  1  0  0  0  0
 11 36  1  0  0  0  0
 11 37  1  0  0  0  0
 12 13  1  0  0  0  0
 12 38  1  0  0  0  0
 12 39  1  0  0  0  0
 13 18  1  0  0  0  0
 13 14  2  0  0  0  0
 14 15  1  0  0  0  0
 14 40  1  0  0  0  0
 15 16  2  0  0  0  0
 15 41  1  0  0  0  0
 16 17  1  0  0  0  0
 16 42  1  0  0  0  0
 17 18  2  0  0  0  0
 17 43  1  0  0  0  0
M  CHG  1  10   1
M  END
> <s_m_source_file>
AV-unprocessed.smi

> <i_m_source_file_index>
3303

> <i_lp_mmshare_version>
43012

> <i_f3d_flags>
0

> <s_epik_input>
W0NIM11bQ0BASF0xW0NIMl1OKFtDSDNdKVtDQEBIXShbQ0gzXSlbQ0gyXVtDQEhdMVtOSF1bQ0gyXVtDSDJdYzJbY0hdW2NIXVtjSF1bY0hdbjI=

> <s_epik_cmdline>
J2VwaWtfcHl0aG9uJywgJy1waCcsICc3LjAnLCAnLXRuJywgJzgnLCAnLW1hJywgJzIwMCcsICctbWV0YWxfYmluZGluZycsICctaW1hZScsICc8aW5maWxlLm1hZT4nLCAnLW9tYWUnLCAnPG91dGZpbGUubWFlPic=

> <r_epik_Ionization_Penalty>
1.37325

> <r_epik_Ionization_Penalty_Charging>
0.000251572

> <r_epik_Ionization_Penalty_Neutral>
1.373

> <r_epik_State_Penalty>
1.46343

> <r_epik_Charging_Adjusted_Penalty>
1.46368

> <i_epik_Tot_Q>
1

> <i_epik_Tot_abs_Q>
1

> <r_epik_Metal_State_Penalty>
1.46331

> <b_epik_Metal_Only>
0

> <s_lp_Force_Field>
OPLS_2005

> <r_lp_Energy>
25.9316

> <b_lp_Chiralities_Consistent>
1

> <s_lp_Variant>
AV-unprocessed.smi:3303-20

> <Gold.Version>
5.8.1

> <Gold.Id.Protein>
6NUR|6NUR_protein|mol2

> <Gold.PLP.Fitness>
47.1051

> <Gold.PLP.PLP>
-42.4402

> <Gold.PLP.part.hbond>
-1.0000

> <Gold.PLP.part.metal>
0.0000

> <Gold.PLP.part.buried>
-2.3250

> <Gold.PLP.part.nonpolar>
-37.5667

> <Gold.PLP.part.repulsive>
0.1255

> <Gold.PLP.ligand.clash>
0.0000

> <Gold.PLP.ligand.torsion>
0.6723

> <Gold.PLP.Chemscore.Hbond>
2.0000

> <Gold.PLP.Chemscore.CHOScore>
0.0000

> <Gold.PLP.Chemscore.Metal>
0.0000

> <Gold.Chemscore.Hbonds>
donor molecule, donor type, donor heavy atom, donor atom, acceptor molecule, acceptor atom, score
      L1  H    10    44       P1  8028  2.00

> <Gold.PLP.Chemscore.Internal.Correction>
0.0095

> <Gold.Rescore>
     Score         DG    S(hbond)    S(metal)    S(lipo)     H(rot)  DE(clash)    DE(int)     intcor
     18.55     -19.00       1.00        0.00     116.14       1.33       0.01       0.45       ----

> <Gold.Chemscore.Fitness>
18.5453

> <Gold.Chemscore.DG>
-19.0009

> <Gold.Chemscore.ZeroCoef>
-5.4800

> <Gold.Chemscore.Hbond>
0.9992

> <Gold.Chemscore.Metal>
0.0000

> <Gold.Chemscore.Lipo>
116.1354

> <Gold.Chemscore.Internal_Hbond>
0.0000

> <Gold.Chemscore.DEClash>
0.0067

> <Gold.Chemscore.DEInternal>
0.4489

> <Gold.Chemscore.Rot>
1.3298

> <Gold.Chemscore.Internal.Correction>
   9.000000E+99

> <Gold.Chemscore.Hbonds>
donor molecule, donor type, donor heavy atom, donor atom, acceptor molecule, acceptor atom, score
      L1  H    10    44       P1  8028  1.00

> <Gold.Chemscore.Hbond.Weighted>
-3.3374

> <Gold.Chemscore.Metal.Weighted>
-0.0000

> <Gold.Chemscore.Lipo.Weighted>
-13.5878

> <Gold.Chemscore.Internal_Hbond.Weighted>
0.0000

> <Gold.Chemscore.DEClash.Weighted>
0.0067

> <Gold.Chemscore.DEInternal.Weighted>
0.4489

> <Gold.Chemscore.Rot.Weighted>
3.4043

> <Gold.Chemscore.Internal.Correction.Weighted>
   9.000000E+99

> <Gold.Protein.RotatedTorsions>
[ 6907 6896 6895 6894 ] final  118.28 input  -60.11 | X-H torsion
[ 7974 7965 7964 7962 ] final   70.01 input  175.53 | X-H torsion
[ 8008 7997 7996 7995 ] final   19.04 input   59.86 | X-H torsion
[ 10167 10162 10161 10158 ] final   46.46 input  -65.29 | X-H torsion
[ 10718 10713 10712 10709 ] final  156.87 input   66.30 | X-H torsion
[ 10763 10752 10751 10750 ] final -142.49 input  -60.55 | X-H torsion
[ 11005 11000 10999 10996 ] final  128.16 input  -57.11 | X-H torsion

> <Gold.Protein.ActiveResidues>
 VAL166  LYS551  ARG553  GLY616  TRP617  ASP618  TYR619  PRO620  LYS621  CYS622 
 ASP623  PHE694  ASN695  SER759  ASP760  ASP761  ALA762  ILE779  LEU786  VAL792 
 PHE793  MET794  SER795  GLU796  ALA797  LYS798  CYS799  TRP800  GLU811  SER814 

> <Gold.Protein.RotatedAtoms>
  152.4554  133.7712  159.6799 H   0  0  0  0  0  0  0  0  0  0  0  0  # atno 6907 bound_to 6896
  150.8478  133.7823  159.3042 H   0  0  0  0  0  0  0  0  0  0  0  0  # atno 6908 bound_to 6896
  151.5428  135.1071  159.9982 H   0  0  0  0  0  0  0  0  0  0  0  0  # atno 6909 bound_to 6896
  145.7834  139.2898  143.1252 H   0  0  0  0  0  0  0  0  0  0  0  0  # atno 7974 bound_to 7965
  154.9149  140.3019  155.5247 H   0  0  0  0  0  0  0  0  0  0  0  0  # atno 8008 bound_to 7997
  156.3013  140.2382  156.4128 H   0  0  0  0  0  0  0  0  0  0  0  0  # atno 8009 bound_to 7997
  154.8389  140.0415  157.1516 H   0  0  0  0  0  0  0  0  0  0  0  0  # atno 8010 bound_to 7997
  140.3137  144.2790  150.6195 H   0  0  0  0  0  0  0  0  0  0  0  0  # atno 10167 bound_to 10162
  157.1992  131.0672  151.2035 H   0  0  0  0  0  0  0  0  0  0  0  0  # atno 10718 bound_to 10713
  154.8507  135.3494  154.6037 H   0  0  0  0  0  0  0  0  0  0  0  0  # atno 10763 bound_to 10752
  153.6645  135.6988  153.5171 H   0  0  0  0  0  0  0  0  0  0  0  0  # atno 10764 bound_to 10752
  153.2791  135.4269  155.1018 H   0  0  0  0  0  0  0  0  0  0  0  0  # atno 10765 bound_to 10752
  139.9545  134.9615  156.8960 H   0  0  0  0  0  0  0  0  0  0  0  0  # atno 11005 bound_to 11000
  146.0051  140.8486  142.9999 LP  0  0  0  0  0  0  0  0  0  0  0  0  # atno 17320 bound_to 7965
  144.6793  140.2408  143.7344 LP  0  0  0  0  0  0  0  0  0  0  0  0  # atno 17321 bound_to 7965
  140.5545  143.2201  151.7870 LP  0  0  0  0  0  0  0  0  0  0  0  0  # atno 17342 bound_to 10162
  139.4888  144.4431  151.9741 LP  0  0  0  0  0  0  0  0  0  0  0  0  # atno 17343 bound_to 10162
  157.3784  130.7218  149.6613 LP  0  0  0  0  0  0  0  0  0  0  0  0  # atno 17370 bound_to 10713
  155.9702  130.4179  150.4302 LP  0  0  0  0  0  0  0  0  0  0  0  0  # atno 17371 bound_to 10713
  140.5640  134.0507  155.7408 LP  0  0  0  0  0  0  0  0  0  0  0  0  # atno 17394 bound_to 11000
  141.1215  133.9454  157.2721 LP  0  0  0  0  0  0  0  0  0  0  0  0  # atno 17395 bound_to 11000

$$$$
