AV-unprocessed.smi:155|AV-procd|sdf|1279|dock6
  -GOLD-   2262018553D 1   1.00000     0.00000
 Structure written by MMmdl.
 64 67  0  0  0  0  0  0  0  0  3 V2000
  145.2514  137.6438  153.6447 C   0  0  0  0  0  0  0  0  0  0  0  0
  145.9434  138.9266  153.3881 N   0  3  0  0  0  0  0  0  0  0  0  0
  146.8876  138.8165  152.2523 C   0  0  0  0  0  0  0  0  0  0  0  0
  146.5667  139.4796  154.6173 C   0  0  0  0  0  0  0  0  0  0  0  0
  147.7056  140.4755  154.3120 C   0  0  0  0  0  0  0  0  0  0  0  0
  148.6765  140.6003  155.4320 N   0  3  2  0  0  0  0  0  0  0  0  0
  148.4575  141.8206  156.2547 C   0  0  0  0  0  0  0  0  0  0  0  0
  148.5872  141.4963  157.7533 C   0  0  0  0  0  0  0  0  0  0  0  0
  150.0331  141.2442  158.2122 C   0  0  0  0  0  0  0  0  0  0  0  0
  150.6935  140.1927  157.4414 N   0  0  0  0  0  0  0  0  0  0  0  0
  150.5124  138.8662  157.7242 C   0  0  0  0  0  0  0  0  0  0  0  0
  150.1341  138.5360  158.9894 N   0  0  0  0  0  0  0  0  0  0  0  0
  149.9392  137.2646  159.3450 C   0  0  0  0  0  0  0  0  0  0  0  0
  150.0681  136.1663  158.6037 N   0  0  0  0  0  0  0  0  0  0  0  0
  150.4457  136.4738  157.3313 C   0  0  0  0  0  0  0  0  0  0  0  0
  150.6896  137.7795  156.8085 C   0  0  0  0  0  0  0  0  0  0  0  0
  151.0644  137.6673  155.4721 N   0  0  0  0  0  0  0  0  0  0  0  0
  151.0308  136.3884  155.2202 C   0  0  0  0  0  0  0  0  0  0  0  0
  150.6669  135.5982  156.2831 N   0  0  0  0  0  0  0  0  0  0  0  0
  150.5378  134.1515  156.2838 C   0  0  0  0  0  0  0  0  0  0  0  0
  149.3618  133.6689  155.4117 C   0  0  2  0  0  0  0  0  0  0  0  0
  148.2421  133.3392  156.2126 O   0  0  0  0  0  0  0  0  0  0  0  0
  149.7346  132.4824  154.4999 C   0  0  2  0  0  0  0  0  0  0  0  0
  148.6204  131.9781  153.5657 C   0  0  0  0  0  0  0  0  0  0  0  0
  148.4603  130.5183  153.9511 C   0  0  0  0  0  0  0  0  0  0  0  0
  149.8169  130.1819  154.5559 C   0  0  0  0  0  0  0  0  0  0  0  0
  150.1461  131.3592  155.2743 O   0  0  0  0  0  0  0  0  0  0  0  0
  151.1508  140.5904  156.1066 C   0  0  0  0  0  0  0  0  0  0  0  0
  150.0904  140.4166  154.9949 C   0  0  0  0  0  0  0  0  0  0  0  0
  145.9565  136.8762  153.9669 H   0  0  0  0  0  0  0  0  0  0  0  0
  144.7482  137.2891  152.7444 H   0  0  0  0  0  0  0  0  0  0  0  0
  144.4929  137.7593  154.4199 H   0  0  0  0  0  0  0  0  0  0  0  0
  147.7155  138.1485  152.4944 H   0  0  0  0  0  0  0  0  0  0  0  0
  147.2989  139.7886  151.9809 H   0  0  0  0  0  0  0  0  0  0  0  0
  146.3819  138.4228  151.3697 H   0  0  0  0  0  0  0  0  0  0  0  0
  145.7967  140.0067  155.1834 H   0  0  0  0  0  0  0  0  0  0  0  0
  146.9128  138.6604  155.2486 H   0  0  0  0  0  0  0  0  0  0  0  0
  148.2348  140.2064  153.3971 H   0  0  0  0  0  0  0  0  0  0  0  0
  147.2493  141.4508  154.1364 H   0  0  0  0  0  0  0  0  0  0  0  0
  149.1329  142.6238  155.9562 H   0  0  0  0  0  0  0  0  0  0  0  0
  147.4511  142.2090  156.0955 H   0  0  0  0  0  0  0  0  0  0  0  0
  148.1893  142.3315  158.3304 H   0  0  0  0  0  0  0  0  0  0  0  0
  147.9568  140.6406  157.9974 H   0  0  0  0  0  0  0  0  0  0  0  0
  150.6027  142.1661  158.0897 H   0  0  0  0  0  0  0  0  0  0  0  0
  150.0824  141.0411  159.2801 H   0  0  0  0  0  0  0  0  0  0  0  0
  149.6349  137.1047  160.3689 H   0  0  0  0  0  0  0  0  0  0  0  0
  151.2676  135.9842  154.2464 H   0  0  0  0  0  0  0  0  0  0  0  0
  151.4740  133.7240  155.9231 H   0  0  0  0  0  0  0  0  0  0  0  0
  150.4190  133.8130  157.3138 H   0  0  0  0  0  0  0  0  0  0  0  0
  149.0489  134.4946  154.7711 H   0  0  0  0  0  0  0  0  0  0  0  0
  148.5401  133.2035  157.0994 H   0  0  0  0  0  0  0  0  0  0  0  0
  150.5886  132.7719  153.8854 H   0  0  0  0  0  0  0  0  0  0  0  0
  147.6835  132.5277  153.6618 H   0  0  0  0  0  0  0  0  0  0  0  0
  148.9422  132.0614  152.5271 H   0  0  0  0  0  0  0  0  0  0  0  0
  147.6837  130.4178  154.7105 H   0  0  0  0  0  0  0  0  0  0  0  0
  148.1980  129.8786  153.1081 H   0  0  0  0  0  0  0  0  0  0  0  0
  149.7856  129.3081  155.2068 H   0  0  0  0  0  0  0  0  0  0  0  0
  150.5599  130.0076  153.7761 H   0  0  0  0  0  0  0  0  0  0  0  0
  151.4338  141.6427  156.1483 H   0  0  0  0  0  0  0  0  0  0  0  0
  152.0717  140.0701  155.8406 H   0  0  0  0  0  0  0  0  0  0  0  0
  150.1941  139.4075  154.5978 H   0  0  0  0  0  0  0  0  0  0  0  0
  150.3183  141.0940  154.1708 H   0  0  0  0  0  0  0  0  0  0  0  0
  145.2242  139.5781  153.1067 H   0  0  0  0  0  0  0  0  0  0  0  0
  148.4719  139.8310  156.0540 H   0  0  0  0  0  0  0  0  0  0  0  0
  1  2  1  0  0  0  0
  1 30  1  0  0  0  0
  1 31  1  0  0  0  0
  1 32  1  0  0  0  0
  2  3  1  0  0  0  0
  2  4  1  0  0  0  0
  2 63  1  0  0  0  0
  3 33  1  0  0  0  0
  3 34  1  0  0  0  0
  3 35  1  0  0  0  0
  4  5  1  0  0  0  0
  4 36  1  0  0  0  0
  4 37  1  0  0  0  0
  5  6  1  0  0  0  0
  5 38  1  0  0  0  0
  5 39  1  0  0  0  0
  6 29  1  0  0  0  0
  6  7  1  0  0  0  0
  6 64  1  0  0  0  0
  7  8  1  0  0  0  0
  7 40  1  0  0  0  0
  7 41  1  0  0  0  0
  8  9  1  0  0  0  0
  8 42  1  0  0  0  0
  8 43  1  0  0  0  0
  9 10  1  0  0  0  0
  9 44  1  0  0  0  0
  9 45  1  0  0  0  0
 10 11  1  0  0  0  0
 10 28  1  0  0  0  0
 11 16  1  0  0  0  0
 11 12  2  0  0  0  0
 12 13  1  0  0  0  0
 13 14  2  0  0  0  0
 13 46  1  0  0  0  0
 14 15  1  0  0  0  0
 15 19  1  0  0  0  0
 15 16  2  0  0  0  0
 16 17  1  0  0  0  0
 17 18  2  0  0  0  0
 18 19  1  0  0  0  0
 18 47  1  0  0  0  0
 19 20  1  0  0  0  0
 20 21  1  0  0  0  0
 20 48  1  0  0  0  0
 20 49  1  0  0  0  0
 21 22  1  0  0  0  0
 21 23  1  0  0  0  0
 21 50  1  0  0  0  0
 22 51  1  0  0  0  0
 23 27  1  0  0  0  0
 23 24  1  0  0  0  0
 23 52  1  0  0  0  0
 24 25  1  0  0  0  0
 24 53  1  0  0  0  0
 24 54  1  0  0  0  0
 25 26  1  0  0  0  0
 25 55  1  0  0  0  0
 25 56  1  0  0  0  0
 26 27  1  0  0  0  0
 26 57  1  0  0  0  0
 26 58  1  0  0  0  0
 28 29  1  0  0  0  0
 28 59  1  0  0  0  0
 28 60  1  0  0  0  0
 29 61  1  0  0  0  0
 29 62  1  0  0  0  0
M  CHG  1   2   1
M  CHG  1   6   1
M  END
> <s_m_source_file>
AV-unprocessed.smi

> <i_m_source_file_index>
155

> <i_lp_mmshare_version>
43012

> <i_f3d_flags>
0

> <s_epik_input>
W0NIM11OKFtDSDNdKVtDSDJdW0NIMl1OMVtDSDJdW0NIMl1bQ0gyXU4oW0NIMl1bQ0gyXTEpYyhuW2NIXW4yKWMoYzIzKW5bY0hdbjNbQ0gyXVtDQEhdKFtPSF0pW0NAQEhdNFtDSDJdW0NIMl1bQ0gyXU80

> <s_epik_cmdline>
J2VwaWtfcHl0aG9uJywgJy1waCcsICc3LjAnLCAnLXRuJywgJzgnLCAnLW1hJywgJzIwMCcsICctbWV0YWxfYmluZGluZycsICctaW1hZScsICc8aW5maWxlLm1hZT4nLCAnLW9tYWUnLCAnPG91dGZpbGUubWFlPic=

> <r_lp_tautomer_probability>
1

> <r_epik_Ionization_Penalty>
3.0333

> <r_epik_Ionization_Penalty_Charging>
3.03317

> <r_epik_Ionization_Penalty_Neutral>
0.000131872

> <r_epik_State_Penalty>
1.99939

> <r_epik_Charging_Adjusted_Penalty>
5.03256

> <i_epik_Tot_Q>
2

> <i_epik_Tot_abs_Q>
2

> <r_epik_Metal_State_Penalty>
2.00021

> <b_epik_Metal_Only>
0

> <s_lp_Force_Field>
OPLS_2005

> <r_lp_Energy>
62.7096

> <b_lp_Chiralities_Consistent>
1

> <s_lp_Variant>
AV-unprocessed.smi:155-13

> <Gold.Version>
5.8.1

> <Gold.Id.Protein>
6NUR|6NUR_protein|mol2

> <Gold.PLP.Fitness>
46.0694

> <Gold.PLP.PLP>
-37.4076

> <Gold.PLP.part.hbond>
-2.2310

> <Gold.PLP.part.metal>
0.0000

> <Gold.PLP.part.buried>
-1.7009

> <Gold.PLP.part.nonpolar>
-32.6932

> <Gold.PLP.part.repulsive>
0.1538

> <Gold.PLP.ligand.clash>
0.0000

> <Gold.PLP.ligand.torsion>
1.8649

> <Gold.PLP.Chemscore.Hbond>
3.0000

> <Gold.PLP.Chemscore.CHOScore>
1.0000

> <Gold.PLP.Chemscore.Metal>
0.0000

> <Gold.Chemscore.Hbonds>
donor molecule, donor type, donor heavy atom, donor atom, acceptor molecule, acceptor atom, score
      L1  H     2    63       P1 10175  2.00
      P1  H  6896  6908       L1    14  0.99
      L1  C    18    47       P1  7949  0.45

> <Gold.PLP.Chemscore.Internal.Correction>
0.3916

> <Gold.Rescore>
     Score         DG    S(hbond)    S(metal)    S(lipo)     H(rot)  DE(clash)    DE(int)     intcor
      9.16     -13.12       1.75        0.00      75.62       2.75       0.08       3.89       ----

> <Gold.Chemscore.Fitness>
9.1562

> <Gold.Chemscore.DG>
-13.1232

> <Gold.Chemscore.ZeroCoef>
-5.4800

> <Gold.Chemscore.Hbond>
1.7466

> <Gold.Chemscore.Metal>
0.0000

> <Gold.Chemscore.Lipo>
75.6225

> <Gold.Chemscore.Internal_Hbond>
0.0000

> <Gold.Chemscore.DEClash>
0.0777

> <Gold.Chemscore.DEInternal>
3.8893

> <Gold.Chemscore.Rot>
2.7493

> <Gold.Chemscore.Internal.Correction>
   9.000000E+99

> <Gold.Chemscore.Hbonds>
donor molecule, donor type, donor heavy atom, donor atom, acceptor molecule, acceptor atom, score
      L1  H     2    63       P1 10175  1.00
      P1  H  6896  6908       L1    14  0.80

> <Gold.Chemscore.Hbond.Weighted>
-5.8336

> <Gold.Chemscore.Metal.Weighted>
-0.0000

> <Gold.Chemscore.Lipo.Weighted>
-8.8478

> <Gold.Chemscore.Internal_Hbond.Weighted>
0.0000

> <Gold.Chemscore.DEClash.Weighted>
0.0777

> <Gold.Chemscore.DEInternal.Weighted>
3.8893

> <Gold.Chemscore.Rot.Weighted>
7.0383

> <Gold.Chemscore.Internal.Correction.Weighted>
   9.000000E+99

> <Gold.Protein.RotatedTorsions>
[ 6907 6896 6895 6894 ] final  175.36 input  -60.11 | X-H torsion
[ 7974 7965 7964 7962 ] final   -4.96 input  175.53 | X-H torsion
[ 8008 7997 7996 7995 ] final  -22.49 input   59.86 | X-H torsion
[ 10167 10162 10161 10158 ] final   73.86 input  -65.29 | X-H torsion
[ 10718 10713 10712 10709 ] final   40.07 input   66.30 | X-H torsion
[ 10763 10752 10751 10750 ] final  101.92 input  -60.55 | X-H torsion
[ 11005 11000 10999 10996 ] final  107.52 input  -57.11 | X-H torsion

> <Gold.Protein.ActiveResidues>
 VAL166  LYS551  ARG553  GLY616  TRP617  ASP618  TYR619  PRO620  LYS621  CYS622 
 ASP623  PHE694  ASN695  SER759  ASP760  ASP761  ALA762  ILE779  LEU786  VAL792 
 PHE793  MET794  SER795  GLU796  ALA797  LYS798  CYS799  TRP800  GLU811  SER814 

> <Gold.Protein.RotatedAtoms>
  151.7374  133.3320  159.3356 H   0  0  0  0  0  0  0  0  0  0  0  0  # atno 6907 bound_to 6896
  150.7587  134.6308  159.6195 H   0  0  0  0  0  0  0  0  0  0  0  0  # atno 6908 bound_to 6896
  152.3552  134.6952  160.0276 H   0  0  0  0  0  0  0  0  0  0  0  0  # atno 6909 bound_to 6896
  146.2362  140.1950  142.8333 H   0  0  0  0  0  0  0  0  0  0  0  0  # atno 7974 bound_to 7965
  154.4641  140.2006  156.0166 H   0  0  0  0  0  0  0  0  0  0  0  0  # atno 8008 bound_to 7997
  156.0894  140.3260  155.7767 H   0  0  0  0  0  0  0  0  0  0  0  0  # atno 8009 bound_to 7997
  155.4981  140.0551  157.2934 H   0  0  0  0  0  0  0  0  0  0  0  0  # atno 8010 bound_to 7997
  140.0199  144.5548  150.7590 H   0  0  0  0  0  0  0  0  0  0  0  0  # atno 10167 bound_to 10162
  157.3779  130.7737  149.7169 H   0  0  0  0  0  0  0  0  0  0  0  0  # atno 10718 bound_to 10713
  153.3329  135.4028  155.1510 H   0  0  0  0  0  0  0  0  0  0  0  0  # atno 10763 bound_to 10752
  154.8627  135.3615  154.5447 H   0  0  0  0  0  0  0  0  0  0  0  0  # atno 10764 bound_to 10752
  153.5886  135.7074  153.5492 H   0  0  0  0  0  0  0  0  0  0  0  0  # atno 10765 bound_to 10752
  139.8829  134.9403  156.5832 H   0  0  0  0  0  0  0  0  0  0  0  0  # atno 11005 bound_to 11000
  144.9827  140.8474  143.5387 LP  0  0  0  0  0  0  0  0  0  0  0  0  # atno 17320 bound_to 7965
  145.1945  139.2283  143.5225 LP  0  0  0  0  0  0  0  0  0  0  0  0  # atno 17321 bound_to 7965
  140.7347  143.2731  151.3825 LP  0  0  0  0  0  0  0  0  0  0  0  0  # atno 17342 bound_to 10162
  139.6147  144.1028  152.2333 LP  0  0  0  0  0  0  0  0  0  0  0  0  # atno 17343 bound_to 10162
  155.9769  130.4069  150.3747 LP  0  0  0  0  0  0  0  0  0  0  0  0  # atno 17370 bound_to 10713
  157.1847  131.0400  151.2731 LP  0  0  0  0  0  0  0  0  0  0  0  0  # atno 17371 bound_to 10713
  140.8011  133.8504  155.8727 LP  0  0  0  0  0  0  0  0  0  0  0  0  # atno 17394 bound_to 11000
  140.9592  134.1678  157.4668 LP  0  0  0  0  0  0  0  0  0  0  0  0  # atno 17395 bound_to 11000

$$$$
