AV-unprocessed.smi:2339|AV-procd|sdf|9339|dock2
  -GOLD-   2272012563D 1   1.00000     0.00000
 Structure written by MMmdl.
 49 52  0  0  0  0  0  0  0  0  1 V2000
  145.6981  143.0934  155.1856 C   0  0  0  0  0  0  0  0  0  0  0  0
  146.2120  142.5701  153.8397 C   0  0  0  0  0  0  0  0  0  0  0  0
  147.1972  141.5125  154.0133 N   0  0  0  0  0  0  0  0  0  0  0  0
  148.4378  141.7674  154.5876 C   0  0  0  0  0  0  0  0  0  0  0  0
  149.4017  140.8397  154.7428 C   0  0  0  0  0  0  0  0  0  0  0  0
  149.1584  139.4586  154.2804 C   0  0  0  0  0  0  0  0  0  0  0  0
  150.0140  138.5848  154.4192 O   0  0  0  0  0  0  0  0  0  0  0  0
  147.8395  139.1894  153.6481 C   0  0  0  0  0  0  0  0  0  0  0  0
  147.6255  137.8774  153.1928 N   0  0  0  0  0  0  0  0  0  0  0  0
  146.5315  137.0959  153.3033 C   0  0  0  0  0  0  0  0  0  0  0  0
  145.4922  137.4015  153.8829 O   0  0  0  0  0  0  0  0  0  0  0  0
  146.6533  135.9022  152.6982 N   0  0  0  0  0  0  0  0  0  0  0  0
  145.6668  134.8243  152.6252 C   0  0  1  0  0  0  0  0  0  0  0  0
  145.4294  134.3716  151.1840 C   0  0  2  0  0  0  0  0  0  0  0  0
  144.2867  134.4671  150.2374 C   0  0  0  0  0  0  0  0  0  0  0  0
  144.3026  132.9992  149.7353 C   0  0  0  0  0  0  0  0  0  0  0  0
  145.2103  132.2893  150.6125 O   0  0  0  0  0  0  0  0  0  0  0  0
  145.1618  133.0237  151.8189 C   0  0  1  0  0  0  0  0  0  0  0  0
  146.2593  133.3773  152.8414 C   0  0  0  0  0  0  0  0  0  0  0  0
  147.7247  133.0761  152.4900 C   0  0  0  0  0  0  0  0  0  0  0  0
  148.5037  133.0765  153.8032 C   0  0  0  0  0  0  0  0  0  0  0  0
  147.5052  132.6095  154.8604 C   0  0  0  0  0  0  0  0  0  0  0  0
  146.1129  132.7590  154.2333 C   0  0  0  0  0  0  0  0  0  0  0  0
  146.9584  140.2185  153.5544 C   0  0  0  0  0  0  0  0  0  0  0  0
  144.9602  143.8821  155.0384 H   0  0  0  0  0  0  0  0  0  0  0  0
  146.5111  143.5053  155.7845 H   0  0  0  0  0  0  0  0  0  0  0  0
  145.2251  142.2982  155.7628 H   0  0  0  0  0  0  0  0  0  0  0  0
  145.3777  142.1968  153.2446 H   0  0  0  0  0  0  0  0  0  0  0  0
  146.6522  143.3882  153.2681 H   0  0  0  0  0  0  0  0  0  0  0  0
  148.5762  142.7880  154.9141 H   0  0  0  0  0  0  0  0  0  0  0  0
  150.3505  141.0828  155.1979 H   0  0  0  0  0  0  0  0  0  0  0  0
  148.4051  137.4781  152.6902 H   0  0  0  0  0  0  0  0  0  0  0  0
  147.5317  135.7224  152.2338 H   0  0  0  0  0  0  0  0  0  0  0  0
  144.7387  135.0230  153.1692 H   0  0  0  0  0  0  0  0  0  0  0  0
  146.3676  134.3889  150.6213 H   0  0  0  0  0  0  0  0  0  0  0  0
  143.3542  134.7150  150.7465 H   0  0  0  0  0  0  0  0  0  0  0  0
  144.4586  135.1859  149.4361 H   0  0  0  0  0  0  0  0  0  0  0  0
  143.3049  132.5613  149.7834 H   0  0  0  0  0  0  0  0  0  0  0  0
  144.6571  132.9243  148.7070 H   0  0  0  0  0  0  0  0  0  0  0  0
  144.1740  132.9398  152.2865 H   0  0  0  0  0  0  0  0  0  0  0  0
  147.7969  132.0903  152.0286 H   0  0  0  0  0  0  0  0  0  0  0  0
  148.1628  133.7834  151.7861 H   0  0  0  0  0  0  0  0  0  0  0  0
  149.3930  132.4472  153.7602 H   0  0  0  0  0  0  0  0  0  0  0  0
  148.8318  134.0903  154.0345 H   0  0  0  0  0  0  0  0  0  0  0  0
  147.6858  131.5659  155.1204 H   0  0  0  0  0  0  0  0  0  0  0  0
  147.6003  133.1946  155.7760 H   0  0  0  0  0  0  0  0  0  0  0  0
  145.4641  133.3594  154.8698 H   0  0  0  0  0  0  0  0  0  0  0  0
  145.6427  131.7773  154.1623 H   0  0  0  0  0  0  0  0  0  0  0  0
  145.9803  140.1194  153.1129 H   0  0  0  0  0  0  0  0  0  0  0  0
  1  2  1  0  0  0  0
  1 25  1  0  0  0  0
  1 26  1  0  0  0  0
  1 27  1  0  0  0  0
  2  3  1  0  0  0  0
  2 28  1  0  0  0  0
  2 29  1  0  0  0  0
  3 24  1  0  0  0  0
  3  4  1  0  0  0  0
  4  5  2  0  0  0  0
  4 30  1  0  0  0  0
  5  6  1  0  0  0  0
  5 31  1  0  0  0  0
  6  7  2  0  0  0  0
  6  8  1  0  0  0  0
  8  9  1  0  0  0  0
  8 24  2  0  0  0  0
  9 10  1  0  0  0  0
  9 32  1  0  0  0  0
 10 11  2  0  0  0  0
 10 12  1  0  0  0  0
 12 13  1  0  0  0  0
 12 33  1  0  0  0  0
 13 19  1  0  0  0  0
 13 14  1  0  0  0  0
 13 34  1  0  0  0  0
 14 18  1  0  0  0  0
 14 15  1  0  0  0  0
 14 35  1  0  0  0  0
 15 16  1  0  0  0  0
 15 36  1  0  0  0  0
 15 37  1  0  0  0  0
 16 17  1  0  0  0  0
 16 38  1  0  0  0  0
 16 39  1  0  0  0  0
 17 18  1  0  0  0  0
 18 19  1  0  0  0  0
 18 40  1  0  0  0  0
 19 23  1  0  0  0  0
 19 20  1  0  0  0  0
 20 21  1  0  0  0  0
 20 41  1  0  0  0  0
 20 42  1  0  0  0  0
 21 22  1  0  0  0  0
 21 43  1  0  0  0  0
 21 44  1  0  0  0  0
 22 23  1  0  0  0  0
 22 45  1  0  0  0  0
 22 46  1  0  0  0  0
 23 47  1  0  0  0  0
 23 48  1  0  0  0  0
 24 49  1  0  0  0  0
M  END
> <s_m_source_file>
AV-unprocessed.smi

> <i_m_source_file_index>
2339

> <i_lp_mmshare_version>
43012

> <i_f3d_flags>
0

> <s_epik_input>
W0NIM11bQ0gyXW4xW2NIXVtjSF1jKD1PKWMoW2NIXTEpW05IXUMoPU8pW05IXVtDQEBIXTJbQ0BASF0oW0NIMl1bQ0gyXU8zKVtDQEBIXTNDMjRbQ0gyXVtDSDJdW0NIMl1bQ0gyXTQ=

> <s_epik_cmdline>
J2VwaWtfcHl0aG9uJywgJy1waCcsICc3LjAnLCAnLXRuJywgJzgnLCAnLW1hJywgJzIwMCcsICctbWV0YWxfYmluZGluZycsICctaW1hZScsICc8aW5maWxlLm1hZT4nLCAnLW9tYWUnLCAnPG91dGZpbGUubWFlPic=

> <r_lp_tautomer_probability>
1

> <r_epik_Ionization_Penalty>
0.00145966

> <r_epik_Ionization_Penalty_Charging>
0.00143969

> <r_epik_Ionization_Penalty_Neutral>
1.99697e-05

> <r_epik_State_Penalty>
0.000961843

> <r_epik_Charging_Adjusted_Penalty>
0.00240153

> <i_epik_Tot_Q>
0

> <i_epik_Tot_abs_Q>
0

> <r_epik_Metal_State_Penalty>
-0

> <b_epik_Metal_Only>
0

> <s_lp_Force_Field>
OPLS_2005

> <r_lp_Energy>
78.6826

> <b_lp_Chiralities_Consistent>
1

> <s_lp_Variant>
AV-unprocessed.smi:2339-4

> <Gold.Version>
5.8.1

> <Gold.Id.Protein>
6NUR|6NUR_protein|mol2

> <Gold.PLP.Fitness>
50.8731

> <Gold.PLP.PLP>
-39.7657

> <Gold.PLP.part.hbond>
-1.6014

> <Gold.PLP.part.metal>
0.0000

> <Gold.PLP.part.buried>
-3.0587

> <Gold.PLP.part.nonpolar>
-36.6324

> <Gold.PLP.part.repulsive>
0.4891

> <Gold.PLP.ligand.clash>
0.0000

> <Gold.PLP.ligand.torsion>
0.5199

> <Gold.PLP.Chemscore.Hbond>
1.9520

> <Gold.PLP.Chemscore.CHOScore>
2.0000

> <Gold.PLP.Chemscore.Metal>
0.0000

> <Gold.Chemscore.Hbonds>
donor molecule, donor type, donor heavy atom, donor atom, acceptor molecule, acceptor atom, score
      L1  H     9    32       P1  7948  0.96
      L1  H    12    33       P1  7948  0.99
      L1  C     4    30       P1  8028  1.00
      L1  C    24    49       P1 10175  1.00

> <Gold.PLP.Chemscore.Internal.Correction>
0.2913

> <Gold.Rescore>
     Score         DG    S(hbond)    S(metal)    S(lipo)     H(rot)  DE(clash)    DE(int)     intcor
     18.30     -19.26       1.88        0.00      89.50       1.17       0.21       0.75       ----

> <Gold.Chemscore.Fitness>
18.2973

> <Gold.Chemscore.DG>
-19.2571

> <Gold.Chemscore.ZeroCoef>
-5.4800

> <Gold.Chemscore.Hbond>
1.8843

> <Gold.Chemscore.Metal>
0.0000

> <Gold.Chemscore.Lipo>
89.4962

> <Gold.Chemscore.Internal_Hbond>
0.0000

> <Gold.Chemscore.DEClash>
0.2068

> <Gold.Chemscore.DEInternal>
0.7531

> <Gold.Chemscore.Rot>
1.1670

> <Gold.Chemscore.Internal.Correction>
   9.000000E+99

> <Gold.Chemscore.Hbonds>
donor molecule, donor type, donor heavy atom, donor atom, acceptor molecule, acceptor atom, score
      L1  H     9    32       P1  7948  0.90
      L1  H    12    33       P1  7948  0.88

> <Gold.Chemscore.Hbond.Weighted>
-6.2935

> <Gold.Chemscore.Metal.Weighted>
-0.0000

> <Gold.Chemscore.Lipo.Weighted>
-10.4711

> <Gold.Chemscore.Internal_Hbond.Weighted>
0.0000

> <Gold.Chemscore.DEClash.Weighted>
0.2068

> <Gold.Chemscore.DEInternal.Weighted>
0.7531

> <Gold.Chemscore.Rot.Weighted>
2.9874

> <Gold.Chemscore.Internal.Correction.Weighted>
   9.000000E+99

> <Gold.Protein.RotatedTorsions>
[ 6907 6896 6895 6894 ] final   45.78 input  -60.11 | X-H torsion
[ 7974 7965 7964 7962 ] final -161.62 input  175.53 | X-H torsion
[ 8008 7997 7996 7995 ] final   35.54 input   59.86 | X-H torsion
[ 10167 10162 10161 10158 ] final  127.28 input  -65.29 | X-H torsion
[ 10718 10713 10712 10709 ] final   59.91 input   66.30 | X-H torsion
[ 10763 10752 10751 10750 ] final   93.10 input  -60.55 | X-H torsion
[ 11005 11000 10999 10996 ] final  168.25 input  -57.11 | X-H torsion

> <Gold.Protein.ActiveResidues>
 VAL166  LYS551  ARG553  GLY616  TRP617  ASP618  TYR619  PRO620  LYS621  CYS622 
 ASP623  PHE694  ASN695  SER759  ASP760  ASP761  ALA762  ILE779  LEU786  VAL792 
 PHE793  MET794  SER795  GLU796  ALA797  LYS798  CYS799  TRP800  GLU811  SER814 

> <Gold.Protein.RotatedAtoms>
  152.2486  134.8156  160.0449 H   0  0  0  0  0  0  0  0  0  0  0  0  # atno 6907 bound_to 6896
  151.8844  133.3497  159.3785 H   0  0  0  0  0  0  0  0  0  0  0  0  # atno 6908 bound_to 6896
  150.7076  134.4913  159.5561 H   0  0  0  0  0  0  0  0  0  0  0  0  # atno 6909 bound_to 6896
  144.7385  140.3370  143.6142 H   0  0  0  0  0  0  0  0  0  0  0  0  # atno 7974 bound_to 7965
  155.1727  140.3293  155.4389 H   0  0  0  0  0  0  0  0  0  0  0  0  # atno 8008 bound_to 7997
  156.2504  140.1940  156.6780 H   0  0  0  0  0  0  0  0  0  0  0  0  # atno 8009 bound_to 7997
  154.6326  140.0580  156.9736 H   0  0  0  0  0  0  0  0  0  0  0  0  # atno 8010 bound_to 7997
  139.5586  144.6866  151.4108 H   0  0  0  0  0  0  0  0  0  0  0  0  # atno 10167 bound_to 10162
  157.5712  130.8909  149.9270 H   0  0  0  0  0  0  0  0  0  0  0  0  # atno 10718 bound_to 10713
  153.2265  135.4337  155.0548 H   0  0  0  0  0  0  0  0  0  0  0  0  # atno 10763 bound_to 10752
  154.8276  135.3369  154.6850 H   0  0  0  0  0  0  0  0  0  0  0  0  # atno 10764 bound_to 10752
  153.7279  135.7013  153.5052 H   0  0  0  0  0  0  0  0  0  0  0  0  # atno 10765 bound_to 10752
  140.2853  134.7717  157.3792 H   0  0  0  0  0  0  0  0  0  0  0  0  # atno 11005 bound_to 11000
  145.7413  139.1765  143.2374 LP  0  0  0  0  0  0  0  0  0  0  0  0  # atno 17320 bound_to 7965
  146.1132  140.7402  142.9493 LP  0  0  0  0  0  0  0  0  0  0  0  0  # atno 17321 bound_to 7965
  140.6863  143.7966  150.7191 LP  0  0  0  0  0  0  0  0  0  0  0  0  # atno 17342 bound_to 10162
  140.1435  143.4420  152.2178 LP  0  0  0  0  0  0  0  0  0  0  0  0  # atno 17343 bound_to 10162
  156.0757  130.3679  150.0682 LP  0  0  0  0  0  0  0  0  0  0  0  0  # atno 17370 bound_to 10713
  156.8835  130.9564  151.3597 LP  0  0  0  0  0  0  0  0  0  0  0  0  # atno 17371 bound_to 10713
  140.1246  134.5175  155.8155 LP  0  0  0  0  0  0  0  0  0  0  0  0  # atno 17394 bound_to 11000
  141.2156  133.6768  156.6928 LP  0  0  0  0  0  0  0  0  0  0  0  0  # atno 17395 bound_to 11000

$$$$
