AV-unprocessed.smi:2158|AV-procd|sdf|8787|dock1
  -GOLD-   2272011563D 1   1.00000     0.00000
 Structure written by MMmdl.
 31 31  0  0  0  0  0  0  0  0  1 V2000
  151.4158  145.5867  159.7078 C   0  0  0  0  0  0  0  0  0  0  0  0
  151.4679  144.6677  158.4787 C   0  0  0  0  0  0  0  0  0  0  0  0
  151.3242  143.1714  158.8154 C   0  0  2  0  0  0  0  0  0  0  0  0
  152.2948  142.7490  159.9300 C   0  0  0  0  0  0  0  0  0  0  0  0
  151.5539  142.3683  157.6184 N   0  0  0  0  0  0  0  0  0  0  0  0
  150.7054  141.4667  157.0956 C   0  0  0  0  0  0  0  0  0  0  0  0
  149.6128  141.2088  157.5995 O   0  0  0  0  0  0  0  0  0  0  0  0
  151.1274  140.7369  155.8083 C   0  0  0  0  0  0  0  0  0  0  0  0
  150.0092  140.2795  154.9661 N   0  0  0  0  0  0  0  0  0  0  0  0
  148.9146  141.1056  154.7532 C   0  0  0  0  0  0  0  0  0  0  0  0
  147.8594  140.7606  153.9781 C   0  0  0  0  0  0  0  0  0  0  0  0
  147.8256  139.4636  153.3111 C   0  0  0  0  0  0  0  0  0  0  0  0
  146.9167  139.0608  152.5890 O   0  0  0  0  0  0  0  0  0  0  0  0
  148.9447  138.6612  153.5494 N   0  0  0  0  0  0  0  0  0  0  0  0
  150.0358  139.0108  154.3462 C   0  0  0  0  0  0  0  0  0  0  0  0
  150.9779  138.2313  154.4812 O   0  0  0  0  0  0  0  0  0  0  0  0
  148.9668  137.7540  153.1066 H   0  0  0  0  0  0  0  0  0  0  0  0
  151.5677  146.6269  159.4185 H   0  0  0  0  0  0  0  0  0  0  0  0
  152.1927  145.3258  160.4269 H   0  0  0  0  0  0  0  0  0  0  0  0
  150.4530  145.5252  160.2160 H   0  0  0  0  0  0  0  0  0  0  0  0
  150.6881  144.9647  157.7763 H   0  0  0  0  0  0  0  0  0  0  0  0
  152.4157  144.8289  157.9637 H   0  0  0  0  0  0  0  0  0  0  0  0
  150.3042  143.0025  159.1654 H   0  0  0  0  0  0  0  0  0  0  0  0
  152.1303  143.3342  160.8348 H   0  0  0  0  0  0  0  0  0  0  0  0
  153.3326  142.8901  159.6262 H   0  0  0  0  0  0  0  0  0  0  0  0
  152.1649  141.6985  160.1928 H   0  0  0  0  0  0  0  0  0  0  0  0
  152.4323  142.5127  157.1415 H   0  0  0  0  0  0  0  0  0  0  0  0
  151.7921  141.3902  155.2403 H   0  0  0  0  0  0  0  0  0  0  0  0
  151.7465  139.8846  156.0924 H   0  0  0  0  0  0  0  0  0  0  0  0
  148.8991  142.0783  155.2241 H   0  0  0  0  0  0  0  0  0  0  0  0
  147.0362  141.4486  153.8495 H   0  0  0  0  0  0  0  0  0  0  0  0
  1  2  1  0  0  0  0
  1 18  1  0  0  0  0
  1 19  1  0  0  0  0
  1 20  1  0  0  0  0
  2  3  1  0  0  0  0
  2 21  1  0  0  0  0
  2 22  1  0  0  0  0
  3  4  1  0  0  0  0
  3  5  1  0  0  0  0
  3 23  1  0  0  0  0
  4 24  1  0  0  0  0
  4 25  1  0  0  0  0
  4 26  1  0  0  0  0
  5  6  1  0  0  0  0
  5 27  1  0  0  0  0
  6  7  2  0  0  0  0
  6  8  1  0  0  0  0
  8  9  1  0  0  0  0
  8 28  1  0  0  0  0
  8 29  1  0  0  0  0
  9 15  1  0  0  0  0
  9 10  1  0  0  0  0
 10 11  2  0  0  0  0
 10 30  1  0  0  0  0
 11 12  1  0  0  0  0
 11 31  1  0  0  0  0
 12 13  2  0  0  0  0
 12 14  1  0  0  0  0
 14 17  1  0  0  0  0
 14 15  1  0  0  0  0
 15 16  2  0  0  0  0
M  END
> <s_m_source_file>
AV-unprocessed.smi

> <i_m_source_file_index>
2158

> <i_lp_mmshare_version>
43012

> <i_f3d_flags>
0

> <s_epik_input>
W0NIM11bQ0gyXVtDQEhdKFtDSDNdKVtOSF1DKD1PKVtDSDJdbjFbY0hdW2NIXWMoPU8pW25IXWMxPU8=

> <s_epik_cmdline>
J2VwaWtfcHl0aG9uJywgJy1waCcsICc3LjAnLCAnLXRuJywgJzgnLCAnLW1hJywgJzIwMCcsICctbWV0YWxfYmluZGluZycsICctaW1hZScsICc8aW5maWxlLm1hZT4nLCAnLW9tYWUnLCAnPG91dGZpbGUubWFlPic=

> <r_lp_tautomer_probability>
0.999537

> <r_epik_Ionization_Penalty>
0.00326083

> <r_epik_Ionization_Penalty_Charging>
0.00326081

> <r_epik_Ionization_Penalty_Neutral>
1.93017e-08

> <r_epik_State_Penalty>
0.00230249

> <r_epik_Charging_Adjusted_Penalty>
0.0055633

> <i_epik_Tot_Q>
0

> <i_epik_Tot_abs_Q>
0

> <r_epik_Metal_State_Penalty>
0.364899

> <b_epik_Metal_Only>
0

> <s_lp_Force_Field>
OPLS_2005

> <r_lp_Energy>
3.24702

> <b_lp_Chiralities_Consistent>
1

> <s_lp_Variant>
AV-unprocessed.smi:2158-1

> <Gold.Version>
5.8.1

> <Gold.Id.Protein>
6NUR|6NUR_protein|mol2

> <Gold.PLP.Fitness>
39.1870

> <Gold.PLP.PLP>
-34.7377

> <Gold.PLP.part.hbond>
-1.9313

> <Gold.PLP.part.metal>
0.0000

> <Gold.PLP.part.buried>
-0.9035

> <Gold.PLP.part.nonpolar>
-33.2849

> <Gold.PLP.part.repulsive>
1.5249

> <Gold.PLP.ligand.clash>
0.0000

> <Gold.PLP.ligand.torsion>
0.6809

> <Gold.PLP.Chemscore.Hbond>
0.9263

> <Gold.PLP.Chemscore.CHOScore>
1.0000

> <Gold.PLP.Chemscore.Metal>
0.0000

> <Gold.Chemscore.Hbonds>
donor molecule, donor type, donor heavy atom, donor atom, acceptor molecule, acceptor atom, score
      L1  H    14    17       P1  7948  1.00
      L1  C    10    30       P1  8028  0.65

> <Gold.PLP.Chemscore.Internal.Correction>
0.0323

> <Gold.Rescore>
     Score         DG    S(hbond)    S(metal)    S(lipo)     H(rot)  DE(clash)    DE(int)     intcor
      9.02     -11.19       0.94        0.00      65.50       1.99       0.12       2.06       ----

> <Gold.Chemscore.Fitness>
9.0213

> <Gold.Chemscore.DG>
-11.1950

> <Gold.Chemscore.ZeroCoef>
-5.4800

> <Gold.Chemscore.Hbond>
0.9423

> <Gold.Chemscore.Metal>
0.0000

> <Gold.Chemscore.Lipo>
65.4971

> <Gold.Chemscore.Internal_Hbond>
0.0000

> <Gold.Chemscore.DEClash>
0.1162

> <Gold.Chemscore.DEInternal>
2.0574

> <Gold.Chemscore.Rot>
1.9904

> <Gold.Chemscore.Internal.Correction>
   9.000000E+99

> <Gold.Chemscore.Hbonds>
donor molecule, donor type, donor heavy atom, donor atom, acceptor molecule, acceptor atom, score
      L1  H    14    17       P1  7948  0.99

> <Gold.Chemscore.Hbond.Weighted>
-3.1473

> <Gold.Chemscore.Metal.Weighted>
-0.0000

> <Gold.Chemscore.Lipo.Weighted>
-7.6632

> <Gold.Chemscore.Internal_Hbond.Weighted>
0.0000

> <Gold.Chemscore.DEClash.Weighted>
0.1162

> <Gold.Chemscore.DEInternal.Weighted>
2.0574

> <Gold.Chemscore.Rot.Weighted>
5.0955

> <Gold.Chemscore.Internal.Correction.Weighted>
   9.000000E+99

> <Gold.Protein.RotatedTorsions>
[ 6907 6896 6895 6894 ] final  -67.45 input  -60.11 | X-H torsion
[ 7974 7965 7964 7962 ] final -144.10 input  175.53 | X-H torsion
[ 8008 7997 7996 7995 ] final -104.29 input   59.86 | X-H torsion
[ 10167 10162 10161 10158 ] final  157.62 input  -65.29 | X-H torsion
[ 10718 10713 10712 10709 ] final  -76.47 input   66.30 | X-H torsion
[ 10763 10752 10751 10750 ] final   91.45 input  -60.55 | X-H torsion
[ 11005 11000 10999 10996 ] final    2.44 input  -57.11 | X-H torsion

> <Gold.Protein.ActiveResidues>
 VAL166  LYS551  ARG553  GLY616  TRP617  ASP618  TYR619  PRO620  LYS621  CYS622 
 ASP623  PHE694  ASN695  SER759  ASP760  ASP761  ALA762  ILE779  LEU786  VAL792 
 PHE793  MET794  SER795  GLU796  ALA797  LYS798  CYS799  TRP800  GLU811  SER814 

> <Gold.Protein.RotatedAtoms>
  150.7409  134.5879  159.5971 H   0  0  0  0  0  0  0  0  0  0  0  0  # atno 6907 bound_to 6896
  152.3275  134.7299  160.0307 H   0  0  0  0  0  0  0  0  0  0  0  0  # atno 6908 bound_to 6896
  151.7794  133.3312  159.3504 H   0  0  0  0  0  0  0  0  0  0  0  0  # atno 6909 bound_to 6896
  144.8322  140.5753  143.5508 H   0  0  0  0  0  0  0  0  0  0  0  0  # atno 7974 bound_to 7965
  154.8832  140.0418  157.1795 H   0  0  0  0  0  0  0  0  0  0  0  0  # atno 8008 bound_to 7997
  154.8617  140.2945  155.5514 H   0  0  0  0  0  0  0  0  0  0  0  0  # atno 8009 bound_to 7997
  156.2998  140.2445  156.3592 H   0  0  0  0  0  0  0  0  0  0  0  0  # atno 8010 bound_to 7997
  139.4823  144.4900  151.8321 H   0  0  0  0  0  0  0  0  0  0  0  0  # atno 10167 bound_to 10162
  156.0174  130.4466  150.3199 H   0  0  0  0  0  0  0  0  0  0  0  0  # atno 10718 bound_to 10713
  153.2084  135.4397  155.0350 H   0  0  0  0  0  0  0  0  0  0  0  0  # atno 10763 bound_to 10752
  154.8186  135.3327  154.7106 H   0  0  0  0  0  0  0  0  0  0  0  0  # atno 10764 bound_to 10752
  153.7546  135.6996  153.4994 H   0  0  0  0  0  0  0  0  0  0  0  0  # atno 10765 bound_to 10752
  140.6043  133.9807  155.8146 H   0  0  0  0  0  0  0  0  0  0  0  0  # atno 11005 bound_to 11000
  145.4871  139.1491  143.3730 LP  0  0  0  0  0  0  0  0  0  0  0  0  # atno 17320 bound_to 7965
  146.2624  140.5009  142.8848 LP  0  0  0  0  0  0  0  0  0  0  0  0  # atno 17321 bound_to 7965
  140.4384  144.2020  150.5890 LP  0  0  0  0  0  0  0  0  0  0  0  0  # atno 17342 bound_to 10162
  140.4708  143.2413  151.9091 LP  0  0  0  0  0  0  0  0  0  0  0  0  # atno 17343 bound_to 10162
  157.1299  131.0269  151.2973 LP  0  0  0  0  0  0  0  0  0  0  0  0  # atno 17370 bound_to 10713
  157.4559  130.7625  149.7192 LP  0  0  0  0  0  0  0  0  0  0  0  0  # atno 17371 bound_to 10713
  141.0851  134.0003  157.3326 LP  0  0  0  0  0  0  0  0  0  0  0  0  # atno 17394 bound_to 11000
  139.9219  135.0200  156.8095 LP  0  0  0  0  0  0  0  0  0  0  0  0  # atno 17395 bound_to 11000

$$$$
