AV-unprocessed.smi:2190|AV-procd|sdf|8890|dock7
  -GOLD-   2272012 93D 1   1.00000     0.00000
 Structure written by MMmdl.
 47 49  0  0  0  0  0  0  0  0  2 V2000
  153.9544  139.9930  160.6724 C   0  0  0  0  0  0  0  0  0  0  0  0
  153.3793  141.1270  159.8490 C   0  0  0  0  0  0  0  0  0  0  0  0
  153.6476  142.4657  160.1946 C   0  0  0  0  0  0  0  0  0  0  0  0
  153.1065  143.5116  159.4254 C   0  0  0  0  0  0  0  0  0  0  0  0
  152.2956  143.2267  158.3072 C   0  0  0  0  0  0  0  0  0  0  0  0
  151.7182  144.3666  157.4885 C   0  0  0  0  0  0  0  0  0  0  0  0
  152.0206  141.8870  157.9480 C   0  0  0  0  0  0  0  0  0  0  0  0
  151.2204  141.6788  156.8442 O   0  0  0  0  0  0  0  0  0  0  0  0
  151.2656  140.4137  156.1988 C   0  0  0  0  0  0  0  0  0  0  0  0
  150.0736  140.3179  155.2363 C   0  0  2  0  0  0  0  0  0  0  0  0
  150.5263  139.7911  154.0053 O   0  0  0  0  0  0  0  0  0  0  0  0
  149.3901  141.6815  155.0102 C   0  0  0  0  0  0  0  0  0  0  0  0
  147.9299  141.5692  154.8723 N   0  0  0  0  0  0  0  0  0  0  0  0
  147.1886  141.0321  153.8610 C   0  0  0  0  0  0  0  0  0  0  0  0
  147.7049  140.4068  152.6068 C   0  0  0  0  0  0  0  0  0  0  0  0
  146.6683  139.9170  151.7854 O   0  0  0  0  0  0  0  0  0  0  0  0
  145.8774  141.1608  154.2089 N   0  3  0  0  0  0  0  0  0  0  0  0
  145.7777  141.7891  155.4509 C   0  0  0  0  0  0  0  0  0  0  0  0
  144.6632  142.1350  156.2089 C   0  0  0  0  0  0  0  0  0  0  0  0
  144.9096  142.7742  157.4417 C   0  0  0  0  0  0  0  0  0  0  0  0
  146.2226  143.0449  157.8784 C   0  0  0  0  0  0  0  0  0  0  0  0
  147.3448  142.6871  157.1024 C   0  0  0  0  0  0  0  0  0  0  0  0
  147.0932  142.0557  155.8840 C   0  0  0  0  0  0  0  0  0  0  0  0
  152.5704  140.8402  158.7310 C   0  0  0  0  0  0  0  0  0  0  0  0
  154.5388  140.3671  161.5135 H   0  0  0  0  0  0  0  0  0  0  0  0
  154.6042  139.3708  160.0565 H   0  0  0  0  0  0  0  0  0  0  0  0
  153.1525  139.3680  161.0664 H   0  0  0  0  0  0  0  0  0  0  0  0
  154.2668  142.6962  161.0493 H   0  0  0  0  0  0  0  0  0  0  0  0
  153.3171  144.5349  159.6991 H   0  0  0  0  0  0  0  0  0  0  0  0
  152.0010  144.2638  156.4401 H   0  0  0  0  0  0  0  0  0  0  0  0
  152.0764  145.3343  157.8416 H   0  0  0  0  0  0  0  0  0  0  0  0
  150.6297  144.3628  157.5529 H   0  0  0  0  0  0  0  0  0  0  0  0
  152.2017  140.2901  155.6509 H   0  0  0  0  0  0  0  0  0  0  0  0
  151.2006  139.6214  156.9466 H   0  0  0  0  0  0  0  0  0  0  0  0
  149.3507  139.6110  155.6449 H   0  0  0  0  0  0  0  0  0  0  0  0
  150.8098  138.9010  154.1461 H   0  0  0  0  0  0  0  0  0  0  0  0
  149.5770  142.3378  155.8610 H   0  0  0  0  0  0  0  0  0  0  0  0
  149.8010  142.1949  154.1410 H   0  0  0  0  0  0  0  0  0  0  0  0
  148.2867  141.1402  152.0477 H   0  0  0  0  0  0  0  0  0  0  0  0
  148.3784  139.5873  152.8571 H   0  0  0  0  0  0  0  0  0  0  0  0
  145.8400  140.1200  152.1929 H   0  0  0  0  0  0  0  0  0  0  0  0
  143.6565  141.9285  155.8767 H   0  0  0  0  0  0  0  0  0  0  0  0
  144.0752  143.0626  158.0645 H   0  0  0  0  0  0  0  0  0  0  0  0
  146.3728  143.5373  158.8282 H   0  0  0  0  0  0  0  0  0  0  0  0
  148.3449  142.9024  157.4474 H   0  0  0  0  0  0  0  0  0  0  0  0
  152.3823  139.8040  158.4939 H   0  0  0  0  0  0  0  0  0  0  0  0
  145.1084  140.8378  153.6361 H   0  0  0  0  0  0  0  0  0  0  0  0
  1  2  1  0  0  0  0
  1 25  1  0  0  0  0
  1 26  1  0  0  0  0
  1 27  1  0  0  0  0
  2 24  1  0  0  0  0
  2  3  2  0  0  0  0
  3  4  1  0  0  0  0
  3 28  1  0  0  0  0
  4  5  2  0  0  0  0
  4 29  1  0  0  0  0
  5  6  1  0  0  0  0
  5  7  1  0  0  0  0
  6 30  1  0  0  0  0
  6 31  1  0  0  0  0
  6 32  1  0  0  0  0
  7  8  1  0  0  0  0
  7 24  2  0  0  0  0
  8  9  1  0  0  0  0
  9 10  1  0  0  0  0
  9 33  1  0  0  0  0
  9 34  1  0  0  0  0
 10 11  1  0  0  0  0
 10 12  1  0  0  0  0
 10 35  1  0  0  0  0
 11 36  1  0  0  0  0
 12 13  1  0  0  0  0
 12 37  1  0  0  0  0
 12 38  1  0  0  0  0
 13 23  1  0  0  0  0
 13 14  1  0  0  0  0
 14 15  1  0  0  0  0
 14 17  2  0  0  0  0
 15 16  1  0  0  0  0
 15 39  1  0  0  0  0
 15 40  1  0  0  0  0
 16 41  1  0  0  0  0
 17 18  1  0  0  0  0
 17 47  1  0  0  0  0
 18 23  2  0  0  0  0
 18 19  1  0  0  0  0
 19 20  2  0  0  0  0
 19 42  1  0  0  0  0
 20 21  1  0  0  0  0
 20 43  1  0  0  0  0
 21 22  2  0  0  0  0
 21 44  1  0  0  0  0
 22 23  1  0  0  0  0
 22 45  1  0  0  0  0
 24 46  1  0  0  0  0
M  CHG  1  17   1
M  END
> <s_m_source_file>
AV-unprocessed.smi

> <i_m_source_file_index>
2190

> <i_lp_mmshare_version>
43012

> <i_f3d_flags>
0

> <s_epik_input>
W0NIM11jMVtjSF1bY0hdYyhbQ0gzXSljKFtjSF0xKU9bQ0gyXVtDQEhdKFtPSF0pW0NIMl1uKGMobjIpW0NIMl1bT0hdKWMoYzIzKVtjSF1bY0hdW2NIXVtjSF0z

> <s_epik_cmdline>
J2VwaWtfcHl0aG9uJywgJy1waCcsICc3LjAnLCAnLXRuJywgJzgnLCAnLW1hJywgJzIwMCcsICctbWV0YWxfYmluZGluZycsICctaW1hZScsICc8aW5maWxlLm1hZT4nLCAnLW9tYWUnLCAnPG91dGZpbGUubWFlPic=

> <r_lp_tautomer_probability>
1

> <r_epik_Ionization_Penalty>
1.43125

> <r_epik_Ionization_Penalty_Charging>
1.43039

> <r_epik_Ionization_Penalty_Neutral>
0.000858184

> <r_epik_State_Penalty>
1.51493

> <r_epik_Charging_Adjusted_Penalty>
2.94531

> <i_epik_Tot_Q>
1

> <i_epik_Tot_abs_Q>
1

> <r_epik_Metal_State_Penalty>
5.5599

> <b_epik_Metal_Only>
0

> <s_lp_Force_Field>
OPLS_2005

> <r_lp_Energy>
17.5717

> <b_lp_Chiralities_Consistent>
1

> <s_lp_Variant>
AV-unprocessed.smi:2190-3

> <Gold.Version>
5.8.1

> <Gold.Id.Protein>
6NUR|6NUR_protein|mol2

> <Gold.PLP.Fitness>
54.2733

> <Gold.PLP.PLP>
-45.2845

> <Gold.PLP.part.hbond>
-4.6180

> <Gold.PLP.part.metal>
0.0000

> <Gold.PLP.part.buried>
-1.5451

> <Gold.PLP.part.nonpolar>
-39.5729

> <Gold.PLP.part.repulsive>
0.0511

> <Gold.PLP.ligand.clash>
0.0000

> <Gold.PLP.ligand.torsion>
1.5558

> <Gold.PLP.Chemscore.Hbond>
4.0000

> <Gold.PLP.Chemscore.CHOScore>
0.0000

> <Gold.PLP.Chemscore.Metal>
0.0000

> <Gold.Chemscore.Hbonds>
donor molecule, donor type, donor heavy atom, donor atom, acceptor molecule, acceptor atom, score
      L1  H    16    41       P1 10175  0.60
      L1  H    17    47       P1 10175  2.00
      P1  H  7989  7998       L1    11  1.00

> <Gold.PLP.Chemscore.Internal.Correction>
0.1006

> <Gold.Rescore>
     Score         DG    S(hbond)    S(metal)    S(lipo)     H(rot)  DE(clash)    DE(int)     intcor
     18.12     -21.10       2.66        0.00     124.14       3.05       1.42       1.56       ----

> <Gold.Chemscore.Fitness>
18.1174

> <Gold.Chemscore.DG>
-21.0970

> <Gold.Chemscore.ZeroCoef>
-5.4800

> <Gold.Chemscore.Hbond>
2.6629

> <Gold.Chemscore.Metal>
0.0000

> <Gold.Chemscore.Lipo>
124.1423

> <Gold.Chemscore.Internal_Hbond>
0.0000

> <Gold.Chemscore.DEClash>
1.4193

> <Gold.Chemscore.DEInternal>
1.5603

> <Gold.Chemscore.Rot>
3.0476

> <Gold.Chemscore.Internal.Correction>
   9.000000E+99

> <Gold.Chemscore.Hbonds>
donor molecule, donor type, donor heavy atom, donor atom, acceptor molecule, acceptor atom, score
      L1  H    16    41       P1 10175  0.39
      L1  H    17    47       P1 10175  0.88
      P1  H  7989  7998       L1    11  0.47

> <Gold.Chemscore.Hbond.Weighted>
-8.8942

> <Gold.Chemscore.Metal.Weighted>
-0.0000

> <Gold.Chemscore.Lipo.Weighted>
-14.5246

> <Gold.Chemscore.Internal_Hbond.Weighted>
0.0000

> <Gold.Chemscore.DEClash.Weighted>
1.4193

> <Gold.Chemscore.DEInternal.Weighted>
1.5603

> <Gold.Chemscore.Rot.Weighted>
7.8018

> <Gold.Chemscore.Internal.Correction.Weighted>
   9.000000E+99

> <Gold.Protein.RotatedTorsions>
[ 6907 6896 6895 6894 ] final   78.98 input  -60.11 | X-H torsion
[ 7974 7965 7964 7962 ] final   92.42 input  175.53 | X-H torsion
[ 8008 7997 7996 7995 ] final -178.29 input   59.86 | X-H torsion
[ 10167 10162 10161 10158 ] final   69.45 input  -65.29 | X-H torsion
[ 10718 10713 10712 10709 ] final -153.49 input   66.30 | X-H torsion
[ 10763 10752 10751 10750 ] final   -0.21 input  -60.55 | X-H torsion
[ 11005 11000 10999 10996 ] final   54.48 input  -57.11 | X-H torsion

> <Gold.Protein.ActiveResidues>
 VAL166  LYS551  ARG553  GLY616  TRP617  ASP618  TYR619  PRO620  LYS621  CYS622 
 ASP623  PHE694  ASN695  SER759  ASP760  ASP761  ALA762  ILE779  LEU786  VAL792 
 PHE793  MET794  SER795  GLU796  ALA797  LYS798  CYS799  TRP800  GLU811  SER814 

> <Gold.Protein.RotatedAtoms>
  152.5181  134.3581  159.9274 H   0  0  0  0  0  0  0  0  0  0  0  0  # atno 6907 bound_to 6896
  151.3533  133.3911  159.2690 H   0  0  0  0  0  0  0  0  0  0  0  0  # atno 6908 bound_to 6896
  150.9710  134.9101  159.7846 H   0  0  0  0  0  0  0  0  0  0  0  0  # atno 6909 bound_to 6896
  145.4925  139.2276  143.2822 H   0  0  0  0  0  0  0  0  0  0  0  0  # atno 7974 bound_to 7965
  156.0171  140.1253  157.0395 H   0  0  0  0  0  0  0  0  0  0  0  0  # atno 8008 bound_to 7997
  154.4297  140.1076  156.5981 H   0  0  0  0  0  0  0  0  0  0  0  0  # atno 8009 bound_to 7997
  155.5998  140.3470  155.4592 H   0  0  0  0  0  0  0  0  0  0  0  0  # atno 8010 bound_to 7997
  140.0677  144.5179  150.7249 H   0  0  0  0  0  0  0  0  0  0  0  0  # atno 10167 bound_to 10162
  156.4865  130.8327  151.2552 H   0  0  0  0  0  0  0  0  0  0  0  0  # atno 10718 bound_to 10713
  153.3290  135.6974  153.6964 H   0  0  0  0  0  0  0  0  0  0  0  0  # atno 10763 bound_to 10752
  153.5774  135.3504  155.2862 H   0  0  0  0  0  0  0  0  0  0  0  0  # atno 10764 bound_to 10752
  154.8614  135.4287  154.2474 H   0  0  0  0  0  0  0  0  0  0  0  0  # atno 10765 bound_to 10752
  140.0683  134.5505  155.9074 H   0  0  0  0  0  0  0  0  0  0  0  0  # atno 11005 bound_to 11000
  146.2275  140.5720  142.8990 LP  0  0  0  0  0  0  0  0  0  0  0  0  # atno 17320 bound_to 7965
  144.7826  140.5871  143.6595 LP  0  0  0  0  0  0  0  0  0  0  0  0  # atno 17321 bound_to 7965
  140.7141  143.2529  151.4489 LP  0  0  0  0  0  0  0  0  0  0  0  0  # atno 17342 bound_to 10162
  139.5855  144.1614  152.2023 LP  0  0  0  0  0  0  0  0  0  0  0  0  # atno 17343 bound_to 10162
  157.7478  131.0027  150.3012 LP  0  0  0  0  0  0  0  0  0  0  0  0  # atno 17370 bound_to 10713
  156.3469  130.3824  149.7361 LP  0  0  0  0  0  0  0  0  0  0  0  0  # atno 17371 bound_to 10713
  141.2002  133.6611  156.5882 LP  0  0  0  0  0  0  0  0  0  0  0  0  # atno 17394 bound_to 11000
  140.3665  134.7642  157.4570 LP  0  0  0  0  0  0  0  0  0  0  0  0  # atno 17395 bound_to 11000

$$$$
