AV-unprocessed.smi:693|AV-procd|sdf|3374|dock5
  -GOLD-   22720 0353D 1   1.00000     0.00000
 Structure written by MMmdl.
 47 48  0  0  0  0  0  0  0  0  2 V2000
  153.5687  142.9225  163.6124 C   0  0  0  0  0  0  0  0  0  0  0  0
  153.0307  142.9516  162.1976 C   0  0  0  0  0  0  0  0  0  0  0  0
  153.4819  142.0593  161.2015 C   0  0  0  0  0  0  0  0  0  0  0  0
  152.9386  142.1451  159.9028 C   0  0  0  0  0  0  0  0  0  0  0  0
  151.9567  143.1215  159.6258 C   0  0  0  0  0  0  0  0  0  0  0  0
  151.3515  143.2400  158.2410 C   0  0  0  0  0  0  0  0  0  0  0  0
  149.9730  142.5648  158.1510 C   0  0  0  0  0  0  0  0  0  0  0  0
  149.6285  142.2313  156.7742 N   0  0  0  0  0  0  0  0  0  0  0  0
  149.4203  140.9897  156.3032 C   0  0  0  0  0  0  0  0  0  0  0  0
  149.5242  139.9939  157.0215 O   0  0  0  0  0  0  0  0  0  0  0  0
  149.1126  140.9269  154.9826 N   0  0  0  0  0  0  0  0  0  0  0  0
  148.8160  142.0701  154.1043 C   0  0  0  0  0  0  0  0  0  0  0  0
  147.2979  142.1165  153.8677 C   0  0  0  0  0  0  0  0  0  0  0  0
  146.7921  140.7885  153.2726 C   0  0  0  0  0  0  0  0  0  0  0  0
  147.2800  139.5551  154.0758 C   0  0  1  0  0  0  0  0  0  0  0  0
  146.9246  138.2078  153.4053 C   0  0  0  0  0  0  0  0  0  0  0  0
  146.1627  138.3519  152.0835 C   0  0  0  0  0  0  0  0  0  0  0  0
  144.8997  137.9190  152.0606 N   0  0  0  0  0  0  0  0  0  0  0  0
  146.7097  138.8248  151.0897 O   0  0  0  0  0  0  0  0  0  0  0  0
  148.8040  139.6558  154.3151 C   0  0  0  0  0  0  0  0  0  0  0  0
  151.5437  143.9864  160.6618 C   0  0  0  0  0  0  0  0  0  0  0  0
  152.0882  143.8719  161.8930 N   0  3  0  0  0  0  0  0  0  0  0  0
  154.1557  142.0206  163.7891 H   0  0  0  0  0  0  0  0  0  0  0  0
  152.7521  142.9421  164.3347 H   0  0  0  0  0  0  0  0  0  0  0  0
  154.2085  143.7869  163.7908 H   0  0  0  0  0  0  0  0  0  0  0  0
  154.2351  141.3181  161.4267 H   0  0  0  0  0  0  0  0  0  0  0  0
  153.2734  141.4681  159.1303 H   0  0  0  0  0  0  0  0  0  0  0  0
  151.2732  144.2977  157.9862 H   0  0  0  0  0  0  0  0  0  0  0  0
  152.0329  142.7989  157.5120 H   0  0  0  0  0  0  0  0  0  0  0  0
  149.9723  141.6415  158.7308 H   0  0  0  0  0  0  0  0  0  0  0  0
  149.2014  143.2044  158.5830 H   0  0  0  0  0  0  0  0  0  0  0  0
  149.5376  143.0006  156.1267 H   0  0  0  0  0  0  0  0  0  0  0  0
  149.1617  143.0293  154.4895 H   0  0  0  0  0  0  0  0  0  0  0  0
  149.3362  141.9385  153.1543 H   0  0  0  0  0  0  0  0  0  0  0  0
  146.7877  142.3128  154.8117 H   0  0  0  0  0  0  0  0  0  0  0  0
  147.0461  142.9422  153.2019 H   0  0  0  0  0  0  0  0  0  0  0  0
  145.7039  140.8156  153.2247 H   0  0  0  0  0  0  0  0  0  0  0  0
  147.1432  140.7076  152.2429 H   0  0  0  0  0  0  0  0  0  0  0  0
  146.7959  139.5803  155.0539 H   0  0  0  0  0  0  0  0  0  0  0  0
  147.8333  137.6331  153.2213 H   0  0  0  0  0  0  0  0  0  0  0  0
  146.3240  137.6058  154.0888 H   0  0  0  0  0  0  0  0  0  0  0  0
  144.3568  137.9917  151.2124 H   0  0  0  0  0  0  0  0  0  0  0  0
  144.4921  137.5191  152.8932 H   0  0  0  0  0  0  0  0  0  0  0  0
  149.3385  139.6076  153.3652 H   0  0  0  0  0  0  0  0  0  0  0  0
  149.1541  138.7959  154.8884 H   0  0  0  0  0  0  0  0  0  0  0  0
  150.7987  144.7601  160.5439 H   0  0  0  0  0  0  0  0  0  0  0  0
  151.7741  144.5090  162.6256 H   0  0  0  0  0  0  0  0  0  0  0  0
  1  2  1  0  0  0  0
  1 23  1  0  0  0  0
  1 24  1  0  0  0  0
  1 25  1  0  0  0  0
  2 22  1  0  0  0  0
  2  3  2  0  0  0  0
  3  4  1  0  0  0  0
  3 26  1  0  0  0  0
  4  5  2  0  0  0  0
  4 27  1  0  0  0  0
  5  6  1  0  0  0  0
  5 21  1  0  0  0  0
  6  7  1  0  0  0  0
  6 28  1  0  0  0  0
  6 29  1  0  0  0  0
  7  8  1  0  0  0  0
  7 30  1  0  0  0  0
  7 31  1  0  0  0  0
  8  9  1  0  0  0  0
  8 32  1  0  0  0  0
  9 10  2  0  0  0  0
  9 11  1  0  0  0  0
 11 20  1  0  0  0  0
 11 12  1  0  0  0  0
 12 13  1  0  0  0  0
 12 33  1  0  0  0  0
 12 34  1  0  0  0  0
 13 14  1  0  0  0  0
 13 35  1  0  0  0  0
 13 36  1  0  0  0  0
 14 15  1  0  0  0  0
 14 37  1  0  0  0  0
 14 38  1  0  0  0  0
 15 16  1  0  0  0  0
 15 20  1  0  0  0  0
 15 39  1  0  0  0  0
 16 17  1  0  0  0  0
 16 40  1  0  0  0  0
 16 41  1  0  0  0  0
 17 18  1  0  0  0  0
 17 19  2  0  0  0  0
 18 42  1  0  0  0  0
 18 43  1  0  0  0  0
 20 44  1  0  0  0  0
 20 45  1  0  0  0  0
 21 22  2  0  0  0  0
 21 46  1  0  0  0  0
 22 47  1  0  0  0  0
M  CHG  1  22   1
M  END
> <s_m_source_file>
AV-unprocessed.smi

> <i_m_source_file_index>
693

> <i_lp_mmshare_version>
43012

> <i_f3d_flags>
0

> <s_epik_input>
W0NIM11jMVtjSF1bY0hdYyhbY0hdbjEpW0NIMl1bQ0gyXVtOSF1DKD1PKU4yW0NIMl1bQ0gyXVtDSDJdW0NASF0oW0NIMl0yKVtDSDJdQyg9TylbTkgyXQ==

> <s_epik_cmdline>
J2VwaWtfcHl0aG9uJywgJy1waCcsICc3LjAnLCAnLXRuJywgJzgnLCAnLW1hJywgJzIwMCcsICctbWV0YWxfYmluZGluZycsICctaW1hZScsICc8aW5maWxlLm1hZT4nLCAnLW9tYWUnLCAnPG91dGZpbGUubWFlPic=

> <r_epik_Ionization_Penalty>
1.41666

> <r_epik_Ionization_Penalty_Charging>
1.4166

> <r_epik_Ionization_Penalty_Neutral>
5.77403e-05

> <r_epik_State_Penalty>
1.50002

> <r_epik_Charging_Adjusted_Penalty>
2.91662

> <i_epik_Tot_Q>
1

> <i_epik_Tot_abs_Q>
1

> <r_epik_Metal_State_Penalty>
1.55252

> <b_epik_Metal_Only>
0

> <s_lp_Force_Field>
OPLS_2005

> <r_lp_Energy>
32.8943

> <b_lp_Chiralities_Consistent>
1

> <s_lp_Variant>
AV-unprocessed.smi:693-3

> <Gold.Version>
5.8.1

> <Gold.Id.Protein>
6NUR|6NUR_protein|mol2

> <Gold.PLP.Fitness>
55.2335

> <Gold.PLP.PLP>
-48.5986

> <Gold.PLP.part.hbond>
-5.3412

> <Gold.PLP.part.metal>
0.0000

> <Gold.PLP.part.buried>
-3.4892

> <Gold.PLP.part.nonpolar>
-41.3297

> <Gold.PLP.part.repulsive>
0.9275

> <Gold.PLP.ligand.clash>
0.0000

> <Gold.PLP.ligand.torsion>
1.2058

> <Gold.PLP.Chemscore.Hbond>
2.9920

> <Gold.PLP.Chemscore.CHOScore>
0.0000

> <Gold.PLP.Chemscore.Metal>
0.0000

> <Gold.Chemscore.Hbonds>
donor molecule, donor type, donor heavy atom, donor atom, acceptor molecule, acceptor atom, score
      L1  H     8    32       P1  8028  1.00
      L1  H    18    42       P1 10171  1.00
      P1  H  7954  7966       L1    19  0.74

> <Gold.PLP.Chemscore.Internal.Correction>
0.0704

> <Gold.Rescore>
     Score         DG    S(hbond)    S(metal)    S(lipo)     H(rot)  DE(clash)    DE(int)     intcor
     20.29     -23.51       2.89        0.00     122.68       2.34       2.03       1.19       ----

> <Gold.Chemscore.Fitness>
20.2924

> <Gold.Chemscore.DG>
-23.5071

> <Gold.Chemscore.ZeroCoef>
-5.4800

> <Gold.Chemscore.Hbond>
2.8898

> <Gold.Chemscore.Metal>
0.0000

> <Gold.Chemscore.Lipo>
122.6811

> <Gold.Chemscore.Internal_Hbond>
0.0000

> <Gold.Chemscore.DEClash>
2.0251

> <Gold.Chemscore.DEInternal>
1.1896

> <Gold.Chemscore.Rot>
2.3354

> <Gold.Chemscore.Internal.Correction>
   9.000000E+99

> <Gold.Chemscore.Hbonds>
donor molecule, donor type, donor heavy atom, donor atom, acceptor molecule, acceptor atom, score
      L1  H     8    32       P1  8028  0.96
      L1  H    18    42       P1 10171  0.97
      P1  H  7954  7966       L1    19  0.72

> <Gold.Chemscore.Hbond.Weighted>
-9.6519

> <Gold.Chemscore.Metal.Weighted>
-0.0000

> <Gold.Chemscore.Lipo.Weighted>
-14.3537

> <Gold.Chemscore.Internal_Hbond.Weighted>
0.0000

> <Gold.Chemscore.DEClash.Weighted>
2.0251

> <Gold.Chemscore.DEInternal.Weighted>
1.1896

> <Gold.Chemscore.Rot.Weighted>
5.9785

> <Gold.Chemscore.Internal.Correction.Weighted>
   9.000000E+99

> <Gold.Protein.RotatedTorsions>
[ 6907 6896 6895 6894 ] final  173.38 input  -60.11 | X-H torsion
[ 7974 7965 7964 7962 ] final   21.68 input  175.53 | X-H torsion
[ 8008 7997 7996 7995 ] final -150.23 input   59.86 | X-H torsion
[ 10167 10162 10161 10158 ] final  165.63 input  -65.29 | X-H torsion
[ 10718 10713 10712 10709 ] final  -35.59 input   66.30 | X-H torsion
[ 10763 10752 10751 10750 ] final   29.64 input  -60.55 | X-H torsion
[ 11005 11000 10999 10996 ] final  -27.98 input  -57.11 | X-H torsion

> <Gold.Protein.ActiveResidues>
 VAL166  LYS551  ARG553  GLY616  TRP617  ASP618  TYR619  PRO620  LYS621  CYS622 
 ASP623  PHE694  ASN695  SER759  ASP760  ASP761  ALA762  ILE779  LEU786  VAL792 
 PHE793  MET794  SER795  GLU796  ALA797  LYS798  CYS799  TRP800  GLU811  SER814 

> <Gold.Protein.RotatedAtoms>
  151.7693  133.3340  159.3439 H   0  0  0  0  0  0  0  0  0  0  0  0  # atno 6907 bound_to 6896
  150.7468  134.6034  159.6057 H   0  0  0  0  0  0  0  0  0  0  0  0  # atno 6908 bound_to 6896
  152.3352  134.7209  160.0330 H   0  0  0  0  0  0  0  0  0  0  0  0  # atno 6909 bound_to 6896
  146.2061  139.7992  142.8725 H   0  0  0  0  0  0  0  0  0  0  0  0  # atno 7974 bound_to 7965
  155.6203  140.0681  157.2680 H   0  0  0  0  0  0  0  0  0  0  0  0  # atno 8008 bound_to 7997
  154.4231  140.1785  156.1413 H   0  0  0  0  0  0  0  0  0  0  0  0  # atno 8009 bound_to 7997
  156.0014  140.3335  155.6853 H   0  0  0  0  0  0  0  0  0  0  0  0  # atno 8010 bound_to 7997
  139.4909  144.4112  151.9297 H   0  0  0  0  0  0  0  0  0  0  0  0  # atno 10167 bound_to 10162
  156.3368  130.4287  149.7823 H   0  0  0  0  0  0  0  0  0  0  0  0  # atno 10718 bound_to 10713
  153.0418  135.6484  154.0922 H   0  0  0  0  0  0  0  0  0  0  0  0  # atno 10763 bound_to 10752
  154.0627  135.2886  155.3323 H   0  0  0  0  0  0  0  0  0  0  0  0  # atno 10764 bound_to 10752
  154.6646  135.5378  153.8126 H   0  0  0  0  0  0  0  0  0  0  0  0  # atno 10765 bound_to 10752
  140.9168  133.7425  156.0745 H   0  0  0  0  0  0  0  0  0  0  0  0  # atno 11005 bound_to 11000
  145.3314  141.0267  143.3444 LP  0  0  0  0  0  0  0  0  0  0  0  0  # atno 17320 bound_to 7965
  144.8796  139.4923  143.6729 LP  0  0  0  0  0  0  0  0  0  0  0  0  # atno 17321 bound_to 7965
  140.3553  144.3038  150.5942 LP  0  0  0  0  0  0  0  0  0  0  0  0  # atno 17342 bound_to 10162
  140.5449  143.2216  151.8023 LP  0  0  0  0  0  0  0  0  0  0  0  0  # atno 17343 bound_to 10162
  156.5074  130.8156  151.3156 LP  0  0  0  0  0  0  0  0  0  0  0  0  # atno 17370 bound_to 10713
  157.7440  130.9925  150.2638 LP  0  0  0  0  0  0  0  0  0  0  0  0  # atno 17371 bound_to 10713
  140.8040  134.3476  157.5431 LP  0  0  0  0  0  0  0  0  0  0  0  0  # atno 17394 bound_to 11000
  139.8767  134.9214  156.3276 LP  0  0  0  0  0  0  0  0  0  0  0  0  # atno 17395 bound_to 11000

$$$$
