AV-unprocessed.smi:91|AV-procd|sdf|838|dock7
  -GOLD-   2262017273D 1   1.00000     0.00000
 Structure written by MMmdl.
 60 63  0  0  0  0  0  0  0  0  1 V2000
  147.9213  127.3440  151.2029 C   0  0  0  0  0  0  0  0  0  0  0  0
  147.7094  128.0491  152.4157 O   0  0  0  0  0  0  0  0  0  0  0  0
  146.3640  128.4586  152.6267 C   0  0  0  0  0  0  0  0  0  0  0  0
  146.2204  129.9869  152.7353 C   0  0  1  0  0  0  0  0  0  0  0  0
  147.4222  130.6284  153.4522 C   0  0  0  0  0  0  0  0  0  0  0  0
  147.3241  132.0774  153.3845 N   0  0  0  0  0  0  0  0  0  0  0  0
  148.1853  132.7128  154.2077 C   0  0  0  0  0  0  0  0  0  0  0  0
  149.2244  131.9827  154.6826 N   0  0  0  0  0  0  0  0  0  0  0  0
  150.1249  132.5472  155.4925 C   0  0  0  0  0  0  0  0  0  0  0  0
  150.1776  133.8054  155.9338 N   0  0  0  0  0  0  0  0  0  0  0  0
  149.1423  134.5467  155.4453 C   0  0  0  0  0  0  0  0  0  0  0  0
  148.1070  134.0847  154.5837 C   0  0  0  0  0  0  0  0  0  0  0  0
  147.2390  135.1298  154.2888 N   0  0  0  0  0  0  0  0  0  0  0  0
  147.7302  136.1485  154.9397 C   0  0  0  0  0  0  0  0  0  0  0  0
  148.8766  135.8888  155.6542 N   0  0  0  0  0  0  0  0  0  0  0  0
  149.6323  136.8396  156.4513 C   0  0  0  0  0  0  0  0  0  0  0  0
  150.1576  138.0412  155.6268 C   0  0  2  0  0  0  0  0  0  0  0  0
  151.5187  137.7506  154.9481 C   0  0  0  0  0  0  0  0  0  0  0  0
  151.5757  136.4302  154.4490 O   0  0  0  0  0  0  0  0  0  0  0  0
  150.1843  139.3410  156.4701 C   0  0  1  0  0  0  0  0  0  0  0  0
  151.2303  139.3702  157.5707 C   0  0  0  0  0  0  0  0  0  0  0  0
  151.3306  140.8600  157.8766 C   0  0  0  0  0  0  0  0  0  0  0  0
  151.1051  141.5193  156.6362 O   0  0  0  0  0  0  0  0  0  0  0  0
  150.5679  140.6022  155.6878 C   0  0  0  0  0  0  0  0  0  0  0  0
  147.2271  132.5748  152.0190 C   0  0  0  0  0  0  0  0  0  0  0  0
  146.0271  131.9302  151.2913 C   0  0  0  0  0  0  0  0  0  0  0  0
  144.6757  132.4416  151.8348 C   0  0  0  0  0  0  0  0  0  0  0  0
  146.1104  132.2280  149.7863 C   0  0  0  0  0  0  0  0  0  0  0  0
  146.1268  130.5049  151.4060 O   0  0  0  0  0  0  0  0  0  0  0  0
  148.9838  127.1266  151.0931 H   0  0  0  0  0  0  0  0  0  0  0  0
  147.6114  127.9358  150.3407 H   0  0  0  0  0  0  0  0  0  0  0  0
  147.3885  126.3935  151.1864 H   0  0  0  0  0  0  0  0  0  0  0  0
  145.7764  128.1052  151.7789 H   0  0  0  0  0  0  0  0  0  0  0  0
  145.9518  127.9670  153.5093 H   0  0  0  0  0  0  0  0  0  0  0  0
  145.3024  130.2212  153.2718 H   0  0  0  0  0  0  0  0  0  0  0  0
  147.4546  130.3010  154.4924 H   0  0  0  0  0  0  0  0  0  0  0  0
  148.3558  130.3108  152.9852 H   0  0  0  0  0  0  0  0  0  0  0  0
  150.9177  131.8984  155.8342 H   0  0  0  0  0  0  0  0  0  0  0  0
  147.2719  137.1263  154.9097 H   0  0  0  0  0  0  0  0  0  0  0  0
  148.9815  137.1813  157.2562 H   0  0  0  0  0  0  0  0  0  0  0  0
  150.4611  136.3162  156.9293 H   0  0  0  0  0  0  0  0  0  0  0  0
  149.4432  138.2009  154.8177 H   0  0  0  0  0  0  0  0  0  0  0  0
  151.7035  138.4431  154.1271 H   0  0  0  0  0  0  0  0  0  0  0  0
  152.3410  137.8948  155.6484 H   0  0  0  0  0  0  0  0  0  0  0  0
  151.5937  136.4656  153.5046 H   0  0  0  0  0  0  0  0  0  0  0  0
  149.2047  139.5031  156.9232 H   0  0  0  0  0  0  0  0  0  0  0  0
  150.9513  138.7847  158.4472 H   0  0  0  0  0  0  0  0  0  0  0  0
  152.1868  138.9987  157.2000 H   0  0  0  0  0  0  0  0  0  0  0  0
  150.5478  141.1579  158.5752 H   0  0  0  0  0  0  0  0  0  0  0  0
  152.2933  141.1353  158.3077 H   0  0  0  0  0  0  0  0  0  0  0  0
  151.3432  140.3821  154.9528 H   0  0  0  0  0  0  0  0  0  0  0  0
  149.7193  141.0388  155.1605 H   0  0  0  0  0  0  0  0  0  0  0  0
  147.1376  133.6621  152.0196 H   0  0  0  0  0  0  0  0  0  0  0  0
  148.1429  132.3272  151.4820 H   0  0  0  0  0  0  0  0  0  0  0  0
  144.5540  133.5066  151.6352 H   0  0  0  0  0  0  0  0  0  0  0  0
  144.5812  132.3107  152.9124 H   0  0  0  0  0  0  0  0  0  0  0  0
  143.8413  131.9212  151.3640 H   0  0  0  0  0  0  0  0  0  0  0  0
  146.0654  133.2999  149.5903 H   0  0  0  0  0  0  0  0  0  0  0  0
  145.2890  131.7572  149.2450 H   0  0  0  0  0  0  0  0  0  0  0  0
  147.0411  131.8524  149.3598 H   0  0  0  0  0  0  0  0  0  0  0  0
  1  2  1  0  0  0  0
  1 30  1  0  0  0  0
  1 31  1  0  0  0  0
  1 32  1  0  0  0  0
  2  3  1  0  0  0  0
  3  4  1  0  0  0  0
  3 33  1  0  0  0  0
  3 34  1  0  0  0  0
  4 29  1  0  0  0  0
  4  5  1  0  0  0  0
  4 35  1  0  0  0  0
  5  6  1  0  0  0  0
  5 36  1  0  0  0  0
  5 37  1  0  0  0  0
  6  7  1  0  0  0  0
  6 25  1  0  0  0  0
  7 12  1  0  0  0  0
  7  8  2  0  0  0  0
  8  9  1  0  0  0  0
  9 10  2  0  0  0  0
  9 38  1  0  0  0  0
 10 11  1  0  0  0  0
 11 15  1  0  0  0  0
 11 12  2  0  0  0  0
 12 13  1  0  0  0  0
 13 14  2  0  0  0  0
 14 15  1  0  0  0  0
 14 39  1  0  0  0  0
 15 16  1  0  0  0  0
 16 17  1  0  0  0  0
 16 40  1  0  0  0  0
 16 41  1  0  0  0  0
 17 18  1  0  0  0  0
 17 20  1  0  0  0  0
 17 42  1  0  0  0  0
 18 19  1  0  0  0  0
 18 43  1  0  0  0  0
 18 44  1  0  0  0  0
 19 45  1  0  0  0  0
 20 24  1  0  0  0  0
 20 21  1  0  0  0  0
 20 46  1  0  0  0  0
 21 22  1  0  0  0  0
 21 47  1  0  0  0  0
 21 48  1  0  0  0  0
 22 23  1  0  0  0  0
 22 49  1  0  0  0  0
 22 50  1  0  0  0  0
 23 24  1  0  0  0  0
 24 51  1  0  0  0  0
 24 52  1  0  0  0  0
 25 26  1  0  0  0  0
 25 53  1  0  0  0  0
 25 54  1  0  0  0  0
 26 27  1  0  0  0  0
 26 28  1  0  0  0  0
 26 29  1  0  0  0  0
 27 55  1  0  0  0  0
 27 56  1  0  0  0  0
 27 57  1  0  0  0  0
 28 58  1  0  0  0  0
 28 59  1  0  0  0  0
 28 60  1  0  0  0  0
M  END
> <s_m_source_file>
AV-unprocessed.smi

> <i_m_source_file_index>
91

> <i_lp_mmshare_version>
43012

> <i_f3d_flags>
0

> <s_epik_input>
W0NIM11PW0NIMl1bQ0BASF0oTzEpW0NIMl1OKFtDSDJdQzEoW0NIM10pW0NIM10pYyhuW2NIXW4yKWMoYzIzKW5bY0hdbjNbQ0gyXVtDQEhdKFtDSDJdW09IXSlbQ0BASF00W0NIMl1bQ0gyXU9bQ0gyXTQ=

> <s_epik_cmdline>
J2VwaWtfcHl0aG9uJywgJy1waCcsICc3LjAnLCAnLXRuJywgJzgnLCAnLW1hJywgJzIwMCcsICctbWV0YWxfYmluZGluZycsICctaW1hZScsICc8aW5maWxlLm1hZT4nLCAnLW9tYWUnLCAnPG91dGZpbGUubWFlPic=

> <r_lp_tautomer_probability>
1

> <r_epik_Ionization_Penalty>
8.63591e-05

> <r_epik_Ionization_Penalty_Charging>
0

> <r_epik_Ionization_Penalty_Neutral>
8.63591e-05

> <r_epik_State_Penalty>
-0

> <r_epik_Charging_Adjusted_Penalty>
0

> <i_epik_Tot_Q>
0

> <i_epik_Tot_abs_Q>
0

> <r_epik_Metal_State_Penalty>
-0

> <b_epik_Metal_Only>
0

> <s_lp_Force_Field>
OPLS_2005

> <r_lp_Energy>
49.535

> <b_lp_Chiralities_Consistent>
1

> <s_lp_Variant>
AV-unprocessed.smi:91-6

> <Gold.Version>
5.8.1

> <Gold.Id.Protein>
6NUR|6NUR_protein|mol2

> <Gold.PLP.Fitness>
46.8295

> <Gold.PLP.PLP>
-43.2053

> <Gold.PLP.part.hbond>
-2.0000

> <Gold.PLP.part.metal>
0.0000

> <Gold.PLP.part.buried>
-7.6756

> <Gold.PLP.part.nonpolar>
-34.9613

> <Gold.PLP.part.repulsive>
1.1553

> <Gold.PLP.ligand.clash>
0.0000

> <Gold.PLP.ligand.torsion>
1.4138

> <Gold.PLP.Chemscore.Hbond>
2.0000

> <Gold.PLP.Chemscore.CHOScore>
0.0000

> <Gold.PLP.Chemscore.Metal>
0.0000

> <Gold.Chemscore.Hbonds>
donor molecule, donor type, donor heavy atom, donor atom, acceptor molecule, acceptor atom, score
      L1  H    19    45       P1  7949  0.80
      P1  H 10752 10764       L1    19  0.20

> <Gold.PLP.Chemscore.Internal.Correction>
0.4519

> <Gold.Rescore>
     Score         DG    S(hbond)    S(metal)    S(lipo)     H(rot)  DE(clash)    DE(int)     intcor
     13.57     -15.24       1.76        0.00      99.55       3.03       0.02       1.65       ----

> <Gold.Chemscore.Fitness>
13.5732

> <Gold.Chemscore.DG>
-15.2405

> <Gold.Chemscore.ZeroCoef>
-5.4800

> <Gold.Chemscore.Hbond>
1.7564

> <Gold.Chemscore.Metal>
0.0000

> <Gold.Chemscore.Lipo>
99.5462

> <Gold.Chemscore.Internal_Hbond>
0.0000

> <Gold.Chemscore.DEClash>
0.0215

> <Gold.Chemscore.DEInternal>
1.6458

> <Gold.Chemscore.Rot>
3.0284

> <Gold.Chemscore.Internal.Correction>
   9.000000E+99

> <Gold.Chemscore.Hbonds>
donor molecule, donor type, donor heavy atom, donor atom, acceptor molecule, acceptor atom, score
      L1  H    19    45       P1  7949  0.71

> <Gold.Chemscore.Hbond.Weighted>
-5.8664

> <Gold.Chemscore.Metal.Weighted>
-0.0000

> <Gold.Chemscore.Lipo.Weighted>
-11.6469

> <Gold.Chemscore.Internal_Hbond.Weighted>
0.0000

> <Gold.Chemscore.DEClash.Weighted>
0.0215

> <Gold.Chemscore.DEInternal.Weighted>
1.6458

> <Gold.Chemscore.Rot.Weighted>
7.7528

> <Gold.Chemscore.Internal.Correction.Weighted>
   9.000000E+99

> <Gold.Protein.RotatedTorsions>
[ 6907 6896 6895 6894 ] final   -9.19 input  -60.11 | X-H torsion
[ 7974 7965 7964 7962 ] final   47.47 input  175.53 | X-H torsion
[ 8008 7997 7996 7995 ] final -144.24 input   59.86 | X-H torsion
[ 10167 10162 10161 10158 ] final  -66.11 input  -65.29 | X-H torsion
[ 10718 10713 10712 10709 ] final  131.87 input   66.30 | X-H torsion
[ 10763 10752 10751 10750 ] final  -77.70 input  -60.55 | X-H torsion
[ 11005 11000 10999 10996 ] final    4.57 input  -57.11 | X-H torsion

> <Gold.Protein.ActiveResidues>
 VAL166  LYS551  ARG553  GLY616  TRP617  ASP618  TYR619  PRO620  LYS621  CYS622 
 ASP623  PHE694  ASN695  SER759  ASP760  ASP761  ALA762  ILE779  LEU786  VAL792 
 PHE793  MET794  SER795  GLU796  ALA797  LYS798  CYS799  TRP800  GLU811  SER814 

> <Gold.Protein.RotatedAtoms>
  151.4216  135.0998  159.9615 H   0  0  0  0  0  0  0  0  0  0  0  0  # atno 6907 bound_to 6896
  152.4986  133.8701  159.7304 H   0  0  0  0  0  0  0  0  0  0  0  0  # atno 6908 bound_to 6896
  150.9219  133.6813  159.2858 H   0  0  0  0  0  0  0  0  0  0  0  0  # atno 6909 bound_to 6896
  146.0295  139.4746  142.9847 H   0  0  0  0  0  0  0  0  0  0  0  0  # atno 7974 bound_to 7965
  155.5237  140.0593  157.2902 H   0  0  0  0  0  0  0  0  0  0  0  0  # atno 8008 bound_to 7997
  154.4508  140.1948  156.0470 H   0  0  0  0  0  0  0  0  0  0  0  0  # atno 8009 bound_to 7997
  156.0701  140.3261  155.7569 H   0  0  0  0  0  0  0  0  0  0  0  0  # atno 8010 bound_to 7997
  140.5681  143.2316  151.6595 H   0  0  0  0  0  0  0  0  0  0  0  0  # atno 10167 bound_to 10162
  157.4926  131.1091  150.9536 H   0  0  0  0  0  0  0  0  0  0  0  0  # atno 10718 bound_to 10713
  154.5163  135.5755  153.6645 H   0  0  0  0  0  0  0  0  0  0  0  0  # atno 10763 bound_to 10752
  152.9907  135.6171  154.2813 H   0  0  0  0  0  0  0  0  0  0  0  0  # atno 10764 bound_to 10752
  154.2731  135.2853  155.2709 H   0  0  0  0  0  0  0  0  0  0  0  0  # atno 10765 bound_to 10752
  140.5804  134.0018  155.8045 H   0  0  0  0  0  0  0  0  0  0  0  0  # atno 11005 bound_to 11000
  145.7064  141.0120  143.1477 LP  0  0  0  0  0  0  0  0  0  0  0  0  # atno 17320 bound_to 7965
  144.7024  139.8705  143.7440 LP  0  0  0  0  0  0  0  0  0  0  0  0  # atno 17321 bound_to 7965
  139.5103  144.3547  152.0619 LP  0  0  0  0  0  0  0  0  0  0  0  0  # atno 17342 bound_to 10162
  140.2681  144.3994  150.6161 LP  0  0  0  0  0  0  0  0  0  0  0  0  # atno 17343 bound_to 10162
  157.0233  130.5682  149.5334 LP  0  0  0  0  0  0  0  0  0  0  0  0  # atno 17370 bound_to 10713
  156.0182  130.5276  150.8197 LP  0  0  0  0  0  0  0  0  0  0  0  0  # atno 17371 bound_to 10713
  141.0999  133.9784  157.3096 LP  0  0  0  0  0  0  0  0  0  0  0  0  # atno 17394 bound_to 11000
  139.9320  135.0199  156.8430 LP  0  0  0  0  0  0  0  0  0  0  0  0  # atno 17395 bound_to 11000

$$$$
