AV-unprocessed.smi:1807|AV-procd|sdf|7301|dock3
  -GOLD-   22720 8553D 1   1.00000     0.00000
 Structure written by MMmdl.
 44 45  0  0  0  0  0  0  0  0  1 V2000
  151.4492  144.5037  158.0686 C   0  0  0  0  0  0  0  0  0  0  0  0
  151.6297  143.3794  159.1040 C   0  0  2  0  0  0  0  0  0  0  0  0
  152.3961  143.8963  160.3386 C   0  0  0  0  0  0  0  0  0  0  0  0
  152.5776  142.8004  161.3997 C   0  0  0  0  0  0  0  0  0  0  0  0
  153.2842  141.5727  160.8096 C   0  0  0  0  0  0  0  0  0  0  0  0
  152.5269  141.0406  159.5855 C   0  0  0  0  0  0  0  0  0  0  0  0
  152.3320  142.1324  158.5118 C   0  0  1  0  0  0  0  0  0  0  0  0
  151.5525  141.5837  157.4053 N   0  0  0  0  0  0  0  0  0  0  0  0
  151.9043  140.5302  156.6534 C   0  0  0  0  0  0  0  0  0  0  0  0
  152.9813  139.9434  156.7664 O   0  0  0  0  0  0  0  0  0  0  0  0
  150.8716  140.0690  155.6183 C   0  0  0  0  0  0  0  0  0  0  0  0
  149.7942  141.0375  155.4423 N   0  0  0  0  0  0  0  0  0  0  0  0
  148.6677  140.6914  154.6833 C   0  0  0  0  0  0  0  0  0  0  0  0
  147.5958  141.5984  154.4624 C   0  0  0  0  0  0  0  0  0  0  0  0
  146.7471  140.8893  153.6600 C   0  0  0  0  0  0  0  0  0  0  0  0
  147.3161  139.6490  153.4449 N   0  0  0  0  0  0  0  0  0  0  0  0
  146.8109  138.5489  152.6424 C   0  0  0  0  0  0  0  0  0  0  0  0
  146.5690  137.2955  153.4888 C   0  0  0  0  0  0  0  0  0  0  0  0
  147.2989  136.2128  153.2059 N   0  0  0  0  0  0  0  0  0  0  0  0
  145.7243  137.3010  154.3814 O   0  0  0  0  0  0  0  0  0  0  0  0
  148.4941  139.5185  154.0924 N   0  0  0  0  0  0  0  0  0  0  0  0
  152.4092  144.8287  157.6670 H   0  0  0  0  0  0  0  0  0  0  0  0
  150.9648  145.3726  158.5148 H   0  0  0  0  0  0  0  0  0  0  0  0
  150.8290  144.1846  157.2306 H   0  0  0  0  0  0  0  0  0  0  0  0
  150.6346  143.0801  159.4374 H   0  0  0  0  0  0  0  0  0  0  0  0
  153.3745  144.2706  160.0340 H   0  0  0  0  0  0  0  0  0  0  0  0
  151.8674  144.7424  160.7789 H   0  0  0  0  0  0  0  0  0  0  0  0
  153.1498  143.1892  162.2424 H   0  0  0  0  0  0  0  0  0  0  0  0
  151.6038  142.5078  161.7945 H   0  0  0  0  0  0  0  0  0  0  0  0
  154.3037  141.8361  160.5244 H   0  0  0  0  0  0  0  0  0  0  0  0
  153.3650  140.7904  161.5648 H   0  0  0  0  0  0  0  0  0  0  0  0
  153.0638  140.1883  159.1672 H   0  0  0  0  0  0  0  0  0  0  0  0
  151.5540  140.6636  159.9030 H   0  0  0  0  0  0  0  0  0  0  0  0
  153.3129  142.4392  158.1430 H   0  0  0  0  0  0  0  0  0  0  0  0
  150.6512  142.0048  157.2329 H   0  0  0  0  0  0  0  0  0  0  0  0
  151.3478  139.8641  154.6579 H   0  0  0  0  0  0  0  0  0  0  0  0
  150.4378  139.1285  155.9581 H   0  0  0  0  0  0  0  0  0  0  0  0
  149.9912  142.0126  155.6142 H   0  0  0  0  0  0  0  0  0  0  0  0
  147.4737  142.6095  154.8220 H   0  0  0  0  0  0  0  0  0  0  0  0
  145.7991  141.1636  153.2216 H   0  0  0  0  0  0  0  0  0  0  0  0
  145.8837  138.8595  152.1580 H   0  0  0  0  0  0  0  0  0  0  0  0
  147.5277  138.3264  151.8511 H   0  0  0  0  0  0  0  0  0  0  0  0
  147.1686  135.3627  153.7344 H   0  0  0  0  0  0  0  0  0  0  0  0
  147.9762  136.2481  152.4579 H   0  0  0  0  0  0  0  0  0  0  0  0
  1  2  1  0  0  0  0
  1 22  1  0  0  0  0
  1 23  1  0  0  0  0
  1 24  1  0  0  0  0
  2  7  1  0  0  0  0
  2  3  1  0  0  0  0
  2 25  1  0  0  0  0
  3  4  1  0  0  0  0
  3 26  1  0  0  0  0
  3 27  1  0  0  0  0
  4  5  1  0  0  0  0
  4 28  1  0  0  0  0
  4 29  1  0  0  0  0
  5  6  1  0  0  0  0
  5 30  1  0  0  0  0
  5 31  1  0  0  0  0
  6  7  1  0  0  0  0
  6 32  1  0  0  0  0
  6 33  1  0  0  0  0
  7  8  1  0  0  0  0
  7 34  1  0  0  0  0
  8  9  1  0  0  0  0
  8 35  1  0  0  0  0
  9 10  2  0  0  0  0
  9 11  1  0  0  0  0
 11 12  1  0  0  0  0
 11 36  1  0  0  0  0
 11 37  1  0  0  0  0
 12 13  1  0  0  0  0
 12 38  1  0  0  0  0
 13 21  2  0  0  0  0
 13 14  1  0  0  0  0
 14 15  2  0  0  0  0
 14 39  1  0  0  0  0
 15 16  1  0  0  0  0
 15 40  1  0  0  0  0
 16 17  1  0  0  0  0
 16 21  1  0  0  0  0
 17 18  1  0  0  0  0
 17 41  1  0  0  0  0
 17 42  1  0  0  0  0
 18 19  1  0  0  0  0
 18 20  2  0  0  0  0
 19 43  1  0  0  0  0
 19 44  1  0  0  0  0
M  END
> <s_m_source_file>
AV-unprocessed.smi

> <i_m_source_file_index>
1807

> <i_lp_mmshare_version>
43012

> <i_f3d_flags>
0

> <s_epik_input>
W0NIM11bQ0BASF0xW0NIMl1bQ0gyXVtDSDJdW0NIMl1bQ0BIXTFbTkhdQyg9TylbQ0gyXVtOSF1jMltjSF1bY0hdbihuMilbQ0gyXUMoPU8pW05IMl0=

> <s_epik_cmdline>
J2VwaWtfcHl0aG9uJywgJy1waCcsICc3LjAnLCAnLXRuJywgJzgnLCAnLW1hJywgJzIwMCcsICctbWV0YWxfYmluZGluZycsICctaW1hZScsICc8aW5maWxlLm1hZT4nLCAnLW9tYWUnLCAnPG91dGZpbGUubWFlPic=

> <r_lp_tautomer_probability>
1

> <r_epik_Ionization_Penalty>
0.000167642

> <r_epik_Ionization_Penalty_Charging>
0

> <r_epik_Ionization_Penalty_Neutral>
0.000167642

> <r_epik_State_Penalty>
-0

> <r_epik_Charging_Adjusted_Penalty>
0

> <i_epik_Tot_Q>
0

> <i_epik_Tot_abs_Q>
0

> <r_epik_Metal_State_Penalty>
-0

> <b_epik_Metal_Only>
0

> <s_lp_Force_Field>
OPLS_2005

> <r_lp_Energy>
5.76299

> <b_lp_Chiralities_Consistent>
1

> <s_lp_Variant>
AV-unprocessed.smi:1807-1

> <Gold.Version>
5.8.1

> <Gold.Id.Protein>
6NUR|6NUR_protein|mol2

> <Gold.PLP.Fitness>
50.7171

> <Gold.PLP.PLP>
-43.2261

> <Gold.PLP.part.hbond>
-1.9645

> <Gold.PLP.part.metal>
0.0000

> <Gold.PLP.part.buried>
-5.5353

> <Gold.PLP.part.nonpolar>
-37.1598

> <Gold.PLP.part.repulsive>
0.4451

> <Gold.PLP.ligand.clash>
0.0000

> <Gold.PLP.ligand.torsion>
0.1850

> <Gold.PLP.Chemscore.Hbond>
1.9913

> <Gold.PLP.Chemscore.CHOScore>
0.6142

> <Gold.PLP.Chemscore.Metal>
0.0000

> <Gold.Chemscore.Hbonds>
donor molecule, donor type, donor heavy atom, donor atom, acceptor molecule, acceptor atom, score
      L1  H    19    44       P1  7948  0.02
      P1  H  7997  8010       L1    10  0.68
      L1  C    15    40       P1 10175  1.00

> <Gold.PLP.Chemscore.Internal.Correction>
0.0448

> <Gold.Rescore>
     Score         DG    S(hbond)    S(metal)    S(lipo)     H(rot)  DE(clash)    DE(int)     intcor
     17.61     -18.01       1.97        0.00     108.54       2.64       0.07       0.33       ----

> <Gold.Chemscore.Fitness>
17.6098

> <Gold.Chemscore.DG>
-18.0108

> <Gold.Chemscore.ZeroCoef>
-5.4800

> <Gold.Chemscore.Hbond>
1.9706

> <Gold.Chemscore.Metal>
0.0000

> <Gold.Chemscore.Lipo>
108.5405

> <Gold.Chemscore.Internal_Hbond>
0.0000

> <Gold.Chemscore.DEClash>
0.0734

> <Gold.Chemscore.DEInternal>
0.3276

> <Gold.Chemscore.Rot>
2.6369

> <Gold.Chemscore.Internal.Correction>
   9.000000E+99

> <Gold.Chemscore.Hbonds>
donor molecule, donor type, donor heavy atom, donor atom, acceptor molecule, acceptor atom, score
      L1  H    19    44       P1  7948  0.09
      P1  H  7997  8010       L1    10  0.68

> <Gold.Chemscore.Hbond.Weighted>
-6.5819

> <Gold.Chemscore.Metal.Weighted>
-0.0000

> <Gold.Chemscore.Lipo.Weighted>
-12.6992

> <Gold.Chemscore.Internal_Hbond.Weighted>
0.0000

> <Gold.Chemscore.DEClash.Weighted>
0.0734

> <Gold.Chemscore.DEInternal.Weighted>
0.3276

> <Gold.Chemscore.Rot.Weighted>
6.7504

> <Gold.Chemscore.Internal.Correction.Weighted>
   9.000000E+99

> <Gold.Protein.RotatedTorsions>
[ 6907 6896 6895 6894 ] final  -78.24 input  -60.11 | X-H torsion
[ 7974 7965 7964 7962 ] final  -22.25 input  175.53 | X-H torsion
[ 8008 7997 7996 7995 ] final   72.17 input   59.86 | X-H torsion
[ 10167 10162 10161 10158 ] final  117.83 input  -65.29 | X-H torsion
[ 10718 10713 10712 10709 ] final   53.48 input   66.30 | X-H torsion
[ 10763 10752 10751 10750 ] final  137.14 input  -60.55 | X-H torsion
[ 11005 11000 10999 10996 ] final   15.54 input  -57.11 | X-H torsion

> <Gold.Protein.ActiveResidues>
 VAL166  LYS551  ARG553  GLY616  TRP617  ASP618  TYR619  PRO620  LYS621  CYS622 
 ASP623  PHE694  ASN695  SER759  ASP760  ASP761  ALA762  ILE779  LEU786  VAL792 
 PHE793  MET794  SER795  GLU796  ALA797  LYS798  CYS799  TRP800  GLU811  SER814 

> <Gold.Protein.RotatedAtoms>
  150.6978  134.4301  159.5244 H   0  0  0  0  0  0  0  0  0  0  0  0  # atno 6907 bound_to 6896
  152.2029  134.8568  160.0515 H   0  0  0  0  0  0  0  0  0  0  0  0  # atno 6908 bound_to 6896
  151.9482  133.3623  159.4027 H   0  0  0  0  0  0  0  0  0  0  0  0  # atno 6909 bound_to 6896
  146.1686  140.4453  142.8541 H   0  0  0  0  0  0  0  0  0  0  0  0  # atno 7974 bound_to 7965
  155.7648  140.3486  155.5216 H   0  0  0  0  0  0  0  0  0  0  0  0  # atno 8008 bound_to 7997
  155.8879  140.1013  157.1460 H   0  0  0  0  0  0  0  0  0  0  0  0  # atno 8009 bound_to 7997
  154.4030  140.1310  156.4265 H   0  0  0  0  0  0  0  0  0  0  0  0  # atno 8010 bound_to 7997
  139.6152  144.7090  151.2756 H   0  0  0  0  0  0  0  0  0  0  0  0  # atno 10167 bound_to 10162
  157.5170  130.8539  149.8509 H   0  0  0  0  0  0  0  0  0  0  0  0  # atno 10718 bound_to 10713
  153.8681  135.3059  155.3441 H   0  0  0  0  0  0  0  0  0  0  0  0  # atno 10763 bound_to 10752
  154.7818  135.4831  153.9864 H   0  0  0  0  0  0  0  0  0  0  0  0  # atno 10764 bound_to 10752
  153.1422  135.6826  153.9105 H   0  0  0  0  0  0  0  0  0  0  0  0  # atno 10765 bound_to 10752
  140.4571  134.1165  155.7711 H   0  0  0  0  0  0  0  0  0  0  0  0  # atno 11005 bound_to 11000
  144.8130  140.6418  143.6403 LP  0  0  0  0  0  0  0  0  0  0  0  0  # atno 17320 bound_to 7965
  145.4400  139.1537  143.3975 LP  0  0  0  0  0  0  0  0  0  0  0  0  # atno 17321 bound_to 7965
  140.7346  143.6761  150.8040 LP  0  0  0  0  0  0  0  0  0  0  0  0  # atno 17342 bound_to 10162
  140.0363  143.5392  152.2738 LP  0  0  0  0  0  0  0  0  0  0  0  0  # atno 17343 bound_to 10162
  156.0327  130.3760  150.1643 LP  0  0  0  0  0  0  0  0  0  0  0  0  # atno 17370 bound_to 10713
  156.9831  130.9870  151.3432 LP  0  0  0  0  0  0  0  0  0  0  0  0  # atno 17371 bound_to 10713
  141.1638  133.8742  157.1773 LP  0  0  0  0  0  0  0  0  0  0  0  0  # atno 17394 bound_to 11000
  139.9969  135.0043  157.0102 LP  0  0  0  0  0  0  0  0  0  0  0  0  # atno 17395 bound_to 11000

$$$$
