AV-unprocessed.smi:3199|AV-procd|sdf|12232|dock1
  -GOLD-   2272018 63D 1   1.00000     0.00000
 Structure written by MMmdl.
 35 36  0  0  0  0  0  0  0  0  1 V2000
  150.8350  145.2357  160.2572 C   0  0  0  0  0  0  0  0  0  0  0  0
  151.7648  144.0629  160.4884 C   0  0  0  0  0  0  0  0  0  0  0  0
  152.0919  143.1797  159.4378 C   0  0  0  0  0  0  0  0  0  0  0  0
  152.9633  142.1077  159.7099 C   0  0  0  0  0  0  0  0  0  0  0  0
  153.4722  141.9600  161.0163 C   0  0  0  0  0  0  0  0  0  0  0  0
  154.4207  140.8281  161.3584 C   0  0  0  0  0  0  0  0  0  0  0  0
  153.7527  139.4539  161.2174 C   0  0  0  0  0  0  0  0  0  0  0  0
  154.5688  138.4204  161.8383 N   0  0  0  0  0  0  0  0  0  0  0  0
  154.2411  137.1211  161.8841 C   0  0  0  0  0  0  0  0  0  0  0  0
  153.2067  136.6694  161.3910 O   0  0  0  0  0  0  0  0  0  0  0  0
  155.2433  136.1934  162.5808 C   0  0  1  0  0  0  0  0  0  0  0  0
  155.4874  136.5162  164.0682 C   0  0  0  0  0  0  0  0  0  0  0  0
  154.9496  135.2995  164.7985 C   0  0  0  0  0  0  0  0  0  0  0  0
  155.0927  134.2059  163.7497 C   0  0  0  0  0  0  0  0  0  0  0  0
  154.7163  134.8693  162.5546 O   0  0  0  0  0  0  0  0  0  0  0  0
  153.0826  142.8984  161.9952 C   0  0  0  0  0  0  0  0  0  0  0  0
  152.2472  143.9292  161.7436 N   0  0  0  0  0  0  0  0  0  0  0  0
  150.5188  145.2907  159.2151 H   0  0  0  0  0  0  0  0  0  0  0  0
  151.3345  146.1714  160.5103 H   0  0  0  0  0  0  0  0  0  0  0  0
  149.9443  145.1413  160.8790 H   0  0  0  0  0  0  0  0  0  0  0  0
  151.6873  143.3182  158.4460 H   0  0  0  0  0  0  0  0  0  0  0  0
  153.2366  141.4145  158.9279 H   0  0  0  0  0  0  0  0  0  0  0  0
  155.2944  140.8892  160.7076 H   0  0  0  0  0  0  0  0  0  0  0  0
  154.7849  140.9658  162.3775 H   0  0  0  0  0  0  0  0  0  0  0  0
  152.7687  139.4635  161.6891 H   0  0  0  0  0  0  0  0  0  0  0  0
  153.6041  139.2180  160.1622 H   0  0  0  0  0  0  0  0  0  0  0  0
  155.4399  138.7098  162.2592 H   0  0  0  0  0  0  0  0  0  0  0  0
  156.1955  136.2016  162.0475 H   0  0  0  0  0  0  0  0  0  0  0  0
  156.5581  136.6178  164.2497 H   0  0  0  0  0  0  0  0  0  0  0  0
  155.0135  137.4364  164.4130 H   0  0  0  0  0  0  0  0  0  0  0  0
  155.4886  135.0804  165.7206 H   0  0  0  0  0  0  0  0  0  0  0  0
  153.8963  135.4449  165.0422 H   0  0  0  0  0  0  0  0  0  0  0  0
  156.1275  133.8678  163.6736 H   0  0  0  0  0  0  0  0  0  0  0  0
  154.4576  133.3425  163.9486 H   0  0  0  0  0  0  0  0  0  0  0  0
  153.4530  142.8230  163.0072 H   0  0  0  0  0  0  0  0  0  0  0  0
  1  2  1  0  0  0  0
  1 18  1  0  0  0  0
  1 19  1  0  0  0  0
  1 20  1  0  0  0  0
  2 17  1  0  0  0  0
  2  3  2  0  0  0  0
  3  4  1  0  0  0  0
  3 21  1  0  0  0  0
  4  5  2  0  0  0  0
  4 22  1  0  0  0  0
  5  6  1  0  0  0  0
  5 16  1  0  0  0  0
  6  7  1  0  0  0  0
  6 23  1  0  0  0  0
  6 24  1  0  0  0  0
  7  8  1  0  0  0  0
  7 25  1  0  0  0  0
  7 26  1  0  0  0  0
  8  9  1  0  0  0  0
  8 27  1  0  0  0  0
  9 10  2  0  0  0  0
  9 11  1  0  0  0  0
 11 15  1  0  0  0  0
 11 12  1  0  0  0  0
 11 28  1  0  0  0  0
 12 13  1  0  0  0  0
 12 29  1  0  0  0  0
 12 30  1  0  0  0  0
 13 14  1  0  0  0  0
 13 31  1  0  0  0  0
 13 32  1  0  0  0  0
 14 15  1  0  0  0  0
 14 33  1  0  0  0  0
 14 34  1  0  0  0  0
 16 17  2  0  0  0  0
 16 35  1  0  0  0  0
M  END
> <s_m_source_file>
AV-unprocessed.smi

> <i_m_source_file_index>
3199

> <i_lp_mmshare_version>
43012

> <i_f3d_flags>
0

> <s_epik_input>
W0NIM11jMVtjSF1bY0hdYyhbY0hdbjEpW0NIMl1bQ0gyXVtOSF1DKD1PKVtDQEBIXTJbQ0gyXVtDSDJdW0NIMl1PMg==

> <s_epik_cmdline>
J2VwaWtfcHl0aG9uJywgJy1waCcsICc3LjAnLCAnLXRuJywgJzgnLCAnLW1hJywgJzIwMCcsICctbWV0YWxfYmluZGluZycsICctaW1hZScsICc8aW5maWxlLm1hZT4nLCAnLW9tYWUnLCAnPG91dGZpbGUubWFlPic=

> <r_epik_Ionization_Penalty>
0.0519155

> <r_epik_Ionization_Penalty_Charging>
0

> <r_epik_Ionization_Penalty_Neutral>
0.0519155

> <r_epik_State_Penalty>
0.0445047

> <r_epik_Charging_Adjusted_Penalty>
0.0445047

> <i_epik_Tot_Q>
0

> <i_epik_Tot_abs_Q>
0

> <r_epik_Metal_State_Penalty>
0.0408967

> <b_epik_Metal_Only>
0

> <s_lp_Force_Field>
OPLS_2005

> <r_lp_Energy>
16.9644

> <b_lp_Chiralities_Consistent>
1

> <s_lp_Variant>
AV-unprocessed.smi:3199-2

> <Gold.Version>
5.8.1

> <Gold.Id.Protein>
6NUR|6NUR_protein|mol2

> <Gold.PLP.Fitness>
42.0945

> <Gold.PLP.PLP>
-40.1612

> <Gold.PLP.part.hbond>
-0.5718

> <Gold.PLP.part.metal>
0.0000

> <Gold.PLP.part.buried>
-5.7496

> <Gold.PLP.part.nonpolar>
-34.9240

> <Gold.PLP.part.repulsive>
0.1483

> <Gold.PLP.ligand.clash>
0.0000

> <Gold.PLP.ligand.torsion>
0.0653

> <Gold.PLP.Chemscore.Hbond>
0.6825

> <Gold.PLP.Chemscore.CHOScore>
0.0000

> <Gold.PLP.Chemscore.Metal>
0.0000

> <Gold.Chemscore.Hbonds>
donor molecule, donor type, donor heavy atom, donor atom, acceptor molecule, acceptor atom, score
      P1  H  6896  6909       L1    10  0.11

> <Gold.PLP.Chemscore.Internal.Correction>
0.0163

> <Gold.Rescore>
     Score         DG    S(hbond)    S(metal)    S(lipo)     H(rot)  DE(clash)    DE(int)     intcor
     18.37     -18.52       0.98        0.00     115.88       1.49       0.01       0.13       ----

> <Gold.Chemscore.Fitness>
18.3749

> <Gold.Chemscore.DG>
-18.5158

> <Gold.Chemscore.ZeroCoef>
-5.4800

> <Gold.Chemscore.Hbond>
0.9824

> <Gold.Chemscore.Metal>
0.0000

> <Gold.Chemscore.Lipo>
115.8837

> <Gold.Chemscore.Internal_Hbond>
0.0000

> <Gold.Chemscore.DEClash>
0.0141

> <Gold.Chemscore.DEInternal>
0.1268

> <Gold.Chemscore.Rot>
1.4859

> <Gold.Chemscore.Internal.Correction>
   9.000000E+99

> <Gold.Chemscore.Hbonds>
donor molecule, donor type, donor heavy atom, donor atom, acceptor molecule, acceptor atom, score
      P1  H  6896  6909       L1    10  0.14

> <Gold.Chemscore.Hbond.Weighted>
-3.2813

> <Gold.Chemscore.Metal.Weighted>
-0.0000

> <Gold.Chemscore.Lipo.Weighted>
-13.5584

> <Gold.Chemscore.Internal_Hbond.Weighted>
0.0000

> <Gold.Chemscore.DEClash.Weighted>
0.0141

> <Gold.Chemscore.DEInternal.Weighted>
0.1268

> <Gold.Chemscore.Rot.Weighted>
3.8039

> <Gold.Chemscore.Internal.Correction.Weighted>
   9.000000E+99

> <Gold.Protein.RotatedTorsions>
[ 6907 6896 6895 6894 ] final  158.02 input  -60.11 | X-H torsion
[ 7974 7965 7964 7962 ] final   82.30 input  175.53 | X-H torsion
[ 8008 7997 7996 7995 ] final   63.90 input   59.86 | X-H torsion
[ 10167 10162 10161 10158 ] final   28.54 input  -65.29 | X-H torsion
[ 10718 10713 10712 10709 ] final   83.21 input   66.30 | X-H torsion
[ 10763 10752 10751 10750 ] final  137.69 input  -60.55 | X-H torsion
[ 11005 11000 10999 10996 ] final -160.66 input  -57.11 | X-H torsion

> <Gold.Protein.ActiveResidues>
 VAL166  LYS551  ARG553  GLY616  TRP617  ASP618  TYR619  PRO620  LYS621  CYS622 
 ASP623  PHE694  ASN695  SER759  ASP760  ASP761  ALA762  ILE779  LEU786  VAL792 
 PHE793  MET794  SER795  GLU796  ALA797  LYS798  CYS799  TRP800  GLU811  SER814 

> <Gold.Protein.RotatedAtoms>
  152.0066  133.3845  159.4202 H   0  0  0  0  0  0  0  0  0  0  0  0  # atno 6907 bound_to 6896
  150.6904  134.3776  159.5029 H   0  0  0  0  0  0  0  0  0  0  0  0  # atno 6908 bound_to 6896
  152.1531  134.8972  160.0597 H   0  0  0  0  0  0  0  0  0  0  0  0  # atno 6909 bound_to 6896
  145.6268  139.2397  143.2107 H   0  0  0  0  0  0  0  0  0  0  0  0  # atno 7974 bound_to 7965
  155.6375  140.3496  155.4703 H   0  0  0  0  0  0  0  0  0  0  0  0  # atno 8008 bound_to 7997
  155.9953  140.1202  157.0623 H   0  0  0  0  0  0  0  0  0  0  0  0  # atno 8009 bound_to 7997
  154.4231  140.1111  156.5608 H   0  0  0  0  0  0  0  0  0  0  0  0  # atno 8010 bound_to 7997
  140.4844  144.0566  150.6275 H   0  0  0  0  0  0  0  0  0  0  0  0  # atno 10167 bound_to 10162
  157.6874  131.0081  150.2489 H   0  0  0  0  0  0  0  0  0  0  0  0  # atno 10718 bound_to 10713
  153.8772  135.3048  155.3444 H   0  0  0  0  0  0  0  0  0  0  0  0  # atno 10763 bound_to 10752
  154.7778  135.4852  153.9784 H   0  0  0  0  0  0  0  0  0  0  0  0  # atno 10764 bound_to 10752
  153.1372  135.6816  153.9180 H   0  0  0  0  0  0  0  0  0  0  0  0  # atno 10765 bound_to 10752
  140.6291  134.4670  157.5228 H   0  0  0  0  0  0  0  0  0  0  0  0  # atno 11005 bound_to 11000
  146.1388  140.7086  142.9377 LP  0  0  0  0  0  0  0  0  0  0  0  0  # atno 17320 bound_to 7965
  144.7209  140.4369  143.7009 LP  0  0  0  0  0  0  0  0  0  0  0  0  # atno 17321 bound_to 7965
  140.3817  143.2799  152.0163 LP  0  0  0  0  0  0  0  0  0  0  0  0  # atno 17342 bound_to 10162
  139.4839  144.6149  151.7364 LP  0  0  0  0  0  0  0  0  0  0  0  0  # atno 17343 bound_to 10162
  156.3089  130.3769  149.7680 LP  0  0  0  0  0  0  0  0  0  0  0  0  # atno 17370 bound_to 10713
  156.5286  130.8247  151.3229 LP  0  0  0  0  0  0  0  0  0  0  0  0  # atno 17371 bound_to 10713
  139.9123  134.8318  156.1485 LP  0  0  0  0  0  0  0  0  0  0  0  0  # atno 17394 bound_to 11000
  141.0688  133.6806  156.2099 LP  0  0  0  0  0  0  0  0  0  0  0  0  # atno 17395 bound_to 11000

$$$$
