AV-unprocessed.smi:283|AV-procd|sdf|2152|dock10
  -GOLD-   2262021493D 1   1.00000     0.00000
 Structure written by MMmdl.
 48 51  0  0  0  0  0  0  0  0  1 V2000
  153.5161  140.0345  159.9957 C   0  0  0  0  0  0  0  0  0  0  0  0
  152.8539  140.9691  158.9643 C   0  0  1  0  0  0  0  0  0  0  0  0
  151.7211  140.3344  158.2933 N   0  0  0  0  0  0  0  0  0  0  0  0
  151.8912  139.3227  157.4138 C   0  0  0  0  0  0  0  0  0  0  0  0
  153.1017  139.0718  156.8507 N   0  0  0  0  0  0  0  0  0  0  0  0
  153.2381  138.0655  155.9828 C   0  0  0  0  0  0  0  0  0  0  0  0
  152.3126  137.2079  155.5479 N   0  0  0  0  0  0  0  0  0  0  0  0
  151.0923  137.4578  156.1050 C   0  0  0  0  0  0  0  0  0  0  0  0
  150.8038  138.4926  157.0385 C   0  0  0  0  0  0  0  0  0  0  0  0
  149.4610  138.4520  157.3872 N   0  0  0  0  0  0  0  0  0  0  0  0
  148.9870  137.4500  156.6973 C   0  0  0  0  0  0  0  0  0  0  0  0
  149.9000  136.7894  155.9048 N   0  0  0  0  0  0  0  0  0  0  0  0
  149.6360  135.6182  155.0108 C   0  0  1  0  0  0  0  0  0  0  0  0
  150.4537  134.5610  155.4247 O   0  0  0  0  0  0  0  0  0  0  0  0
  149.6487  133.4420  155.7804 C   0  0  2  0  0  0  0  0  0  0  0  0
  150.4047  132.0989  155.6988 C   0  0  0  0  0  0  0  0  0  0  0  0
  151.6159  132.0852  156.4253 O   0  0  0  0  0  0  0  0  0  0  0  0
  148.3165  133.6337  155.0421 C   0  0  2  0  0  0  0  0  0  0  0  0
  148.3767  133.1654  153.7048 O   0  0  0  0  0  0  0  0  0  0  0  0
  148.1713  135.1525  155.1067 C   0  0  2  0  0  0  0  0  0  0  0  0
  147.3528  135.6443  154.0624 O   0  0  0  0  0  0  0  0  0  0  0  0
  152.4905  142.3138  159.5928 C   0  0  0  0  0  0  0  0  0  0  0  0
  152.7271  142.4848  160.9754 C   0  0  0  0  0  0  0  0  0  0  0  0
  152.4179  143.6993  161.6159 C   0  0  0  0  0  0  0  0  0  0  0  0
  151.8621  144.7596  160.8790 C   0  0  0  0  0  0  0  0  0  0  0  0
  151.6153  144.6012  159.5033 C   0  0  0  0  0  0  0  0  0  0  0  0
  151.9239  143.3884  158.8540 C   0  0  0  0  0  0  0  0  0  0  0  0
  151.5832  143.2713  157.1616 Cl  0  0  0  0  0  0  0  0  0  0  0  0
  149.9310  135.9397  154.0108 H   0  0  0  0  0  0  0  0  0  0  0  0
  149.4243  133.5766  156.8382 H   0  0  0  0  0  0  0  0  0  0  0  0
  147.4965  133.1243  155.5493 H   0  0  0  0  0  0  0  0  0  0  0  0
  147.7519  135.4414  156.0710 H   0  0  0  0  0  0  0  0  0  0  0  0
  154.3863  140.5114  160.4473 H   0  0  0  0  0  0  0  0  0  0  0  0
  153.8592  139.1067  159.5388 H   0  0  0  0  0  0  0  0  0  0  0  0
  152.8332  139.7660  160.8010 H   0  0  0  0  0  0  0  0  0  0  0  0
  153.5977  141.1838  158.1960 H   0  0  0  0  0  0  0  0  0  0  0  0
  150.8104  140.6081  158.6340 H   0  0  0  0  0  0  0  0  0  0  0  0
  154.2302  137.9277  155.5791 H   0  0  0  0  0  0  0  0  0  0  0  0
  147.9474  137.1608  156.7508 H   0  0  0  0  0  0  0  0  0  0  0  0
  149.7683  131.2918  156.0627 H   0  0  0  0  0  0  0  0  0  0  0  0
  150.6357  131.8728  154.6575 H   0  0  0  0  0  0  0  0  0  0  0  0
  152.3327  132.0199  155.8129 H   0  0  0  0  0  0  0  0  0  0  0  0
  149.1814  132.6812  153.5939 H   0  0  0  0  0  0  0  0  0  0  0  0
  147.9125  136.0361  153.4090 H   0  0  0  0  0  0  0  0  0  0  0  0
  153.1534  141.6800  161.5565 H   0  0  0  0  0  0  0  0  0  0  0  0
  152.6081  143.8166  162.6727 H   0  0  0  0  0  0  0  0  0  0  0  0
  151.6243  145.6929  161.3677 H   0  0  0  0  0  0  0  0  0  0  0  0
  151.1848  145.4175  158.9419 H   0  0  0  0  0  0  0  0  0  0  0  0
  1  2  1  0  0  0  0
  1 33  1  0  0  0  0
  1 34  1  0  0  0  0
  1 35  1  0  0  0  0
  2  3  1  0  0  0  0
  2 22  1  0  0  0  0
  2 36  1  0  0  0  0
  3  4  1  0  0  0  0
  3 37  1  0  0  0  0
  4  9  1  0  0  0  0
  4  5  2  0  0  0  0
  5  6  1  0  0  0  0
  6  7  2  0  0  0  0
  6 38  1  0  0  0  0
  7  8  1  0  0  0  0
  8 12  1  0  0  0  0
  8  9  2  0  0  0  0
  9 10  1  0  0  0  0
 10 11  2  0  0  0  0
 11 12  1  0  0  0  0
 11 39  1  0  0  0  0
 12 13  1  0  0  0  0
 13 29  1  0  0  0  0
 13 20  1  0  0  0  0
 13 14  1  0  0  0  0
 14 15  1  0  0  0  0
 15 30  1  0  0  0  0
 15 16  1  0  0  0  0
 15 18  1  0  0  0  0
 16 17  1  0  0  0  0
 16 40  1  0  0  0  0
 16 41  1  0  0  0  0
 17 42  1  0  0  0  0
 18 31  1  0  0  0  0
 18 19  1  0  0  0  0
 18 20  1  0  0  0  0
 19 43  1  0  0  0  0
 20 32  1  0  0  0  0
 20 21  1  0  0  0  0
 21 44  1  0  0  0  0
 22 27  1  0  0  0  0
 22 23  2  0  0  0  0
 23 24  1  0  0  0  0
 23 45  1  0  0  0  0
 24 25  2  0  0  0  0
 24 46  1  0  0  0  0
 25 26  1  0  0  0  0
 25 47  1  0  0  0  0
 26 27  2  0  0  0  0
 26 48  1  0  0  0  0
 27 28  1  0  0  0  0
M  END
> <s_m_source_file>
AV-unprocessed.smi

> <i_m_source_file_index>
283

> <i_lp_mmshare_version>
43012

> <i_f3d_flags>
0

> <s_epik_input>
Q2xjMVtjSF1bY0hdW2NIXVtjSF1jMVtDQEhdKFtDSDNdKVtOSF1jKG5bY0hdbjIpYyhjMjMpbltjSF1uM1tDQEBIXTRPW0NASF0oW0NIMl1bT0hdKVtDQEBIXShbT0hdKVtDQEhdNFtPSF0=

> <s_epik_cmdline>
J2VwaWtfcHl0aG9uJywgJy1waCcsICc3LjAnLCAnLXRuJywgJzgnLCAnLW1hJywgJzIwMCcsICctbWV0YWxfYmluZGluZycsICctaW1hZScsICc8aW5maWxlLm1hZT4nLCAnLW9tYWUnLCAnPG91dGZpbGUubWFlPic=

> <r_lp_tautomer_probability>
1

> <r_epik_Ionization_Penalty>
0.000266407

> <r_epik_Ionization_Penalty_Charging>
0

> <r_epik_Ionization_Penalty_Neutral>
0.000266407

> <r_epik_State_Penalty>
-0

> <r_epik_Charging_Adjusted_Penalty>
0

> <i_epik_Tot_Q>
0

> <i_epik_Tot_abs_Q>
0

> <r_epik_Metal_State_Penalty>
-0

> <b_epik_Metal_Only>
0

> <s_epik_Chemistry_Notes>
This compound contains an acetal/aminal-like group ( X-CH(R)-Y where X, Y are N, S, or O) that may be acid/base labile, releasing an aldehyde.

> <s_lp_Force_Field>
OPLS_2005

> <r_lp_Energy>
54.2889

> <b_lp_Chiralities_Consistent>
1

> <s_lp_Variant>
AV-unprocessed.smi:283-28

> <Gold.Version>
5.8.1

> <Gold.Id.Protein>
6NUR|6NUR_protein|mol2

> <Gold.PLP.Fitness>
51.6285

> <Gold.PLP.PLP>
-43.8184

> <Gold.PLP.part.hbond>
-2.9936

> <Gold.PLP.part.metal>
0.0000

> <Gold.PLP.part.buried>
-5.7641

> <Gold.PLP.part.nonpolar>
-35.2459

> <Gold.PLP.part.repulsive>
0.2172

> <Gold.PLP.ligand.clash>
0.0000

> <Gold.PLP.ligand.torsion>
0.2558

> <Gold.PLP.Chemscore.Hbond>
2.7360

> <Gold.PLP.Chemscore.CHOScore>
0.0000

> <Gold.PLP.Chemscore.Metal>
0.0000

> <Gold.Chemscore.Hbonds>
donor molecule, donor type, donor heavy atom, donor atom, acceptor molecule, acceptor atom, score
      L1  H    21    44       P1  7948  1.00
      P1  H  7997  8009       L1     5  1.00
      P1  H 10752 10765       L1     7  0.80

> <Gold.PLP.Chemscore.Internal.Correction>
0.1136

> <Gold.Rescore>
     Score         DG    S(hbond)    S(metal)    S(lipo)     H(rot)  DE(clash)    DE(int)     intcor
     17.22     -17.49       2.61        0.00     117.71       4.10       0.10       0.17       ----

> <Gold.Chemscore.Fitness>
17.2195

> <Gold.Chemscore.DG>
-17.4912

> <Gold.Chemscore.ZeroCoef>
-5.4800

> <Gold.Chemscore.Hbond>
2.6130

> <Gold.Chemscore.Metal>
0.0000

> <Gold.Chemscore.Lipo>
117.7080

> <Gold.Chemscore.Internal_Hbond>
0.0000

> <Gold.Chemscore.DEClash>
0.1002

> <Gold.Chemscore.DEInternal>
0.1716

> <Gold.Chemscore.Rot>
4.0968

> <Gold.Chemscore.Internal.Correction>
   9.000000E+99

> <Gold.Chemscore.Hbonds>
donor molecule, donor type, donor heavy atom, donor atom, acceptor molecule, acceptor atom, score
      L1  H    21    44       P1  7948  1.00
      P1  H  7997  8009       L1     5  0.65
      P1  H 10752 10765       L1     7  0.67

> <Gold.Chemscore.Hbond.Weighted>
-8.7273

> <Gold.Chemscore.Metal.Weighted>
-0.0000

> <Gold.Chemscore.Lipo.Weighted>
-13.7718

> <Gold.Chemscore.Internal_Hbond.Weighted>
0.0000

> <Gold.Chemscore.DEClash.Weighted>
0.1002

> <Gold.Chemscore.DEInternal.Weighted>
0.1716

> <Gold.Chemscore.Rot.Weighted>
10.4879

> <Gold.Chemscore.Internal.Correction.Weighted>
   9.000000E+99

> <Gold.Protein.RotatedTorsions>
[ 6907 6896 6895 6894 ] final    4.13 input  -60.11 | X-H torsion
[ 7974 7965 7964 7962 ] final  -71.59 input  175.53 | X-H torsion
[ 8008 7997 7996 7995 ] final  174.49 input   59.86 | X-H torsion
[ 10167 10162 10161 10158 ] final -129.96 input  -65.29 | X-H torsion
[ 10718 10713 10712 10709 ] final   47.90 input   66.30 | X-H torsion
[ 10763 10752 10751 10750 ] final -160.94 input  -60.55 | X-H torsion
[ 11005 11000 10999 10996 ] final   70.99 input  -57.11 | X-H torsion

> <Gold.Protein.ActiveResidues>
 VAL166  LYS551  ARG553  GLY616  TRP617  ASP618  TYR619  PRO620  LYS621  CYS622 
 ASP623  PHE694  ASN695  SER759  ASP760  ASP761  ALA762  ILE779  LEU786  VAL792 
 PHE793  MET794  SER795  GLU796  ALA797  LYS798  CYS799  TRP800  GLU811  SER814 

> <Gold.Protein.RotatedAtoms>
  151.6364  135.1017  160.0132 H   0  0  0  0  0  0  0  0  0  0  0  0  # atno 6907 bound_to 6896
  152.4078  133.6912  159.6380 H   0  0  0  0  0  0  0  0  0  0  0  0  # atno 6908 bound_to 6896
  150.7971  133.8594  159.3268 H   0  0  0  0  0  0  0  0  0  0  0  0  # atno 6909 bound_to 6896
  145.6761  140.9204  143.0857 H   0  0  0  0  0  0  0  0  0  0  0  0  # atno 7974 bound_to 7965
  156.0968  140.1433  156.9520 H   0  0  0  0  0  0  0  0  0  0  0  0  # atno 8008 bound_to 7997
  154.4677  140.0920  156.7109 H   0  0  0  0  0  0  0  0  0  0  0  0  # atno 8009 bound_to 7997
  155.4827  140.3445  155.4344 H   0  0  0  0  0  0  0  0  0  0  0  0  # atno 8010 bound_to 7997
  139.9343  143.6236  152.2521 H   0  0  0  0  0  0  0  0  0  0  0  0  # atno 10167 bound_to 10162
  157.4632  130.8209  149.7908 H   0  0  0  0  0  0  0  0  0  0  0  0  # atno 10718 bound_to 10713
  154.7347  135.3054  154.8832 H   0  0  0  0  0  0  0  0  0  0  0  0  # atno 10763 bound_to 10752
  153.9665  135.6747  153.4750 H   0  0  0  0  0  0  0  0  0  0  0  0  # atno 10764 bound_to 10752
  153.0951  135.4940  154.8685 H   0  0  0  0  0  0  0  0  0  0  0  0  # atno 10765 bound_to 10752
  139.9567  134.7131  156.0736 H   0  0  0  0  0  0  0  0  0  0  0  0  # atno 11005 bound_to 11000
  144.7041  139.8636  143.7435 LP  0  0  0  0  0  0  0  0  0  0  0  0  # atno 17320 bound_to 7965
  146.1004  139.3999  143.0350 LP  0  0  0  0  0  0  0  0  0  0  0  0  # atno 17321 bound_to 7965
  139.6756  144.7659  151.1702 LP  0  0  0  0  0  0  0  0  0  0  0  0  # atno 17342 bound_to 10162
  140.7629  143.5800  150.8905 LP  0  0  0  0  0  0  0  0  0  0  0  0  # atno 17343 bound_to 10162
  156.0038  130.3866  150.2506 LP  0  0  0  0  0  0  0  0  0  0  0  0  # atno 17370 bound_to 10713
  157.0685  131.0110  151.3198 LP  0  0  0  0  0  0  0  0  0  0  0  0  # atno 17371 bound_to 10713
  141.1240  133.6604  156.3288 LP  0  0  0  0  0  0  0  0  0  0  0  0  # atno 17394 bound_to 11000
  140.5592  134.5951  157.5429 LP  0  0  0  0  0  0  0  0  0  0  0  0  # atno 17395 bound_to 11000

$$$$
