AV-unprocessed.smi:72|AV-procd|sdf|670|dock9
  -GOLD-   2262016573D 1   1.00000     0.00000
 Structure written by MMmdl.
 29 30  0  0  0  0  0  0  0  0  1 V2000
  145.4511  142.1663  156.0742 N   0  0  0  0  0  0  0  0  0  0  0  0
  146.5631  141.7331  155.5968 C   0  0  0  0  0  0  0  0  0  0  0  0
  147.0555  142.0079  154.3117 N   0  0  0  0  0  0  0  0  0  0  0  0
  148.1955  141.4979  153.9603 C   0  0  0  0  0  0  0  0  0  0  0  0
  148.9723  140.6495  154.8511 N   0  0  0  0  0  0  0  0  0  0  0  0
  150.2993  140.0689  154.4089 C   0  0  1  0  0  0  0  0  0  0  0  0
  151.1494  140.0186  155.5130 O   0  0  0  0  0  0  0  0  0  0  0  0
  151.9579  138.8546  155.4246 C   0  0  1  0  0  0  0  0  0  0  0  0
  152.4824  138.4750  156.8180 C   0  0  0  0  0  0  0  0  0  0  0  0
  153.1463  139.5744  157.4038 O   0  0  0  0  0  0  0  0  0  0  0  0
  150.9958  137.8214  154.8299 C   0  0  2  0  0  0  0  0  0  0  0  0
  151.7119  136.7973  154.1699 O   0  0  0  0  0  0  0  0  0  0  0  0
  150.1864  138.6395  153.8311 C   0  0  1  0  0  0  0  0  0  0  0  0
  148.8638  138.1422  153.7296 O   0  0  0  0  0  0  0  0  0  0  0  0
  148.5004  140.3783  156.1580 C   0  0  0  0  0  0  0  0  0  0  0  0
  149.1337  139.6972  156.9639 O   0  0  0  0  0  0  0  0  0  0  0  0
  147.3070  140.9283  156.4711 N   0  0  0  0  0  0  0  0  0  0  0  0
  150.7298  140.7722  153.6947 H   0  0  0  0  0  0  0  0  0  0  0  0
  152.7782  139.0420  154.7280 H   0  0  0  0  0  0  0  0  0  0  0  0
  150.3535  137.4078  155.6095 H   0  0  0  0  0  0  0  0  0  0  0  0
  150.6568  138.6424  152.8464 H   0  0  0  0  0  0  0  0  0  0  0  0
  144.9704  142.7362  155.3938 H   0  0  0  0  0  0  0  0  0  0  0  0
  148.6472  141.6743  152.9830 H   0  0  0  0  0  0  0  0  0  0  0  0
  151.6760  138.1274  157.4647 H   0  0  0  0  0  0  0  0  0  0  0  0
  153.2058  137.6632  156.7377 H   0  0  0  0  0  0  0  0  0  0  0  0
  152.9805  139.5651  158.3342 H   0  0  0  0  0  0  0  0  0  0  0  0
  151.4274  136.7693  153.2689 H   0  0  0  0  0  0  0  0  0  0  0  0
  148.8400  137.4940  153.0422 H   0  0  0  0  0  0  0  0  0  0  0  0
  146.9413  140.7498  157.3947 H   0  0  0  0  0  0  0  0  0  0  0  0
  1  2  2  0  0  0  0
  1 22  1  0  0  0  0
  2 17  1  0  0  0  0
  2  3  1  0  0  0  0
  3  4  2  0  0  0  0
  4  5  1  0  0  0  0
  4 23  1  0  0  0  0
  5  6  1  0  0  0  0
  5 15  1  0  0  0  0
  6 18  1  0  0  0  0
  6 13  1  0  0  0  0
  6  7  1  0  0  0  0
  7  8  1  0  0  0  0
  8 19  1  0  0  0  0
  8  9  1  0  0  0  0
  8 11  1  0  0  0  0
  9 10  1  0  0  0  0
  9 24  1  0  0  0  0
  9 25  1  0  0  0  0
 10 26  1  0  0  0  0
 11 20  1  0  0  0  0
 11 12  1  0  0  0  0
 11 13  1  0  0  0  0
 12 27  1  0  0  0  0
 13 21  1  0  0  0  0
 13 14  1  0  0  0  0
 14 28  1  0  0  0  0
 15 16  2  0  0  0  0
 15 17  1  0  0  0  0
 17 29  1  0  0  0  0
M  END
> <s_m_source_file>
AV-unprocessed.smi

> <i_m_source_file_index>
72

> <i_lp_mmshare_version>
43012

> <i_f3d_flags>
0

> <s_epik_input>
W05IMl1jMW5bY0hdbihjKD1PKW4xKVtDQEBIXTJPW0NASF0oW0NIMl1bT0hdKVtDQEBIXShbT0hdKVtDQEhdMltPSF0=

> <s_epik_cmdline>
J2VwaWtfcHl0aG9uJywgJy1waCcsICc3LjAnLCAnLXRuJywgJzgnLCAnLW1hJywgJzIwMCcsICctbWV0YWxfYmluZGluZycsICctaW1hZScsICc8aW5maWxlLm1hZT4nLCAnLW9tYWUnLCAnPG91dGZpbGUubWFlPic=

> <r_lp_tautomer_probability>
7.17554e-07

> <r_epik_Ionization_Penalty>
0.0066451

> <r_epik_Ionization_Penalty_Charging>
0.00663793

> <r_epik_Ionization_Penalty_Neutral>
7.17052e-06

> <r_epik_State_Penalty>
0.419231

> <r_epik_Charging_Adjusted_Penalty>
0.425868

> <i_epik_Tot_Q>
0

> <i_epik_Tot_abs_Q>
0

> <r_epik_Metal_State_Penalty>
1.44144

> <b_epik_Metal_Only>
0

> <s_epik_Chemistry_Notes>
This compound contains an acetal/aminal-like group ( X-CH(R)-Y where X, Y are N, S, or O) that may be acid/base labile, releasing an aldehyde.

> <s_lp_Force_Field>
OPLS_2005

> <r_lp_Energy>
43.9506

> <b_lp_Chiralities_Consistent>
1

> <s_lp_Variant>
AV-unprocessed.smi:72-8

> <Gold.Version>
5.8.1

> <Gold.Id.Protein>
6NUR|6NUR_protein|mol2

> <Gold.PLP.Fitness>
36.1438

> <Gold.PLP.PLP>
-22.5224

> <Gold.PLP.part.hbond>
-4.4010

> <Gold.PLP.part.metal>
0.0000

> <Gold.PLP.part.buried>
-0.7417

> <Gold.PLP.part.nonpolar>
-17.9386

> <Gold.PLP.part.repulsive>
0.1910

> <Gold.PLP.ligand.clash>
0.0000

> <Gold.PLP.ligand.torsion>
0.7526

> <Gold.PLP.Chemscore.Hbond>
4.0000

> <Gold.PLP.Chemscore.CHOScore>
1.0000

> <Gold.PLP.Chemscore.Metal>
0.0000

> <Gold.Chemscore.Hbonds>
donor molecule, donor type, donor heavy atom, donor atom, acceptor molecule, acceptor atom, score
      L1  H    12    27       P1  7949  1.00
      L1  H    14    28       P1  7948  1.00
      P1  H  7997  8008       L1    10  1.00
      P1  H 10752 10764       L1    12  0.90
      L1  C     4    23       P1  7957  0.79

> <Gold.PLP.Chemscore.Internal.Correction>
0.1266

> <Gold.Rescore>
     Score         DG    S(hbond)    S(metal)    S(lipo)     H(rot)  DE(clash)    DE(int)     intcor
      8.37     -10.60       3.69        0.00      27.19       4.06       0.42       1.82       ----

> <Gold.Chemscore.Fitness>
8.3661

> <Gold.Chemscore.DG>
-10.5992

> <Gold.Chemscore.ZeroCoef>
-5.4800

> <Gold.Chemscore.Hbond>
3.6922

> <Gold.Chemscore.Metal>
0.0000

> <Gold.Chemscore.Lipo>
27.1872

> <Gold.Chemscore.Internal_Hbond>
0.0000

> <Gold.Chemscore.DEClash>
0.4162

> <Gold.Chemscore.DEInternal>
1.8169

> <Gold.Chemscore.Rot>
4.0600

> <Gold.Chemscore.Internal.Correction>
   9.000000E+99

> <Gold.Chemscore.Hbonds>
donor molecule, donor type, donor heavy atom, donor atom, acceptor molecule, acceptor atom, score
      L1  H    12    27       P1  7949  0.80
      L1  H    14    28       P1  7948  1.00
      P1  H  7997  8008       L1    10  0.83
      P1  H 10752 10764       L1    12  0.78

> <Gold.Chemscore.Hbond.Weighted>
-12.3319

> <Gold.Chemscore.Metal.Weighted>
-0.0000

> <Gold.Chemscore.Lipo.Weighted>
-3.1809

> <Gold.Chemscore.Internal_Hbond.Weighted>
0.0000

> <Gold.Chemscore.DEClash.Weighted>
0.4162

> <Gold.Chemscore.DEInternal.Weighted>
1.8169

> <Gold.Chemscore.Rot.Weighted>
10.3936

> <Gold.Chemscore.Internal.Correction.Weighted>
   9.000000E+99

> <Gold.Protein.RotatedTorsions>
[ 6907 6896 6895 6894 ] final   10.46 input  -60.11 | X-H torsion
[ 7974 7965 7964 7962 ] final   83.97 input  175.53 | X-H torsion
[ 8008 7997 7996 7995 ] final  -55.86 input   59.86 | X-H torsion
[ 10167 10162 10161 10158 ] final   46.14 input  -65.29 | X-H torsion
[ 10718 10713 10712 10709 ] final   73.51 input   66.30 | X-H torsion
[ 10763 10752 10751 10750 ] final  -57.88 input  -60.55 | X-H torsion
[ 11005 11000 10999 10996 ] final   21.88 input  -57.11 | X-H torsion

> <Gold.Protein.ActiveResidues>
 VAL166  LYS551  ARG553  GLY616  TRP617  ASP618  TYR619  PRO620  LYS621  CYS622 
 ASP623  PHE694  ASN695  SER759  ASP760  ASP761  ALA762  ILE779  LEU786  VAL792 
 PHE793  MET794  SER795  GLU796  ALA797  LYS798  CYS799  TRP800  GLU811  SER814 

> <Gold.Protein.RotatedAtoms>
  151.7386  135.0859  160.0311 H   0  0  0  0  0  0  0  0  0  0  0  0  # atno 6907 bound_to 6896
  152.3494  133.6157  159.5942 H   0  0  0  0  0  0  0  0  0  0  0  0  # atno 6908 bound_to 6896
  150.7530  133.9514  159.3528 H   0  0  0  0  0  0  0  0  0  0  0  0  # atno 6909 bound_to 6896
  145.6049  139.2358  143.2225 H   0  0  0  0  0  0  0  0  0  0  0  0  # atno 7974 bound_to 7965
  154.4209  140.1143  156.5545 H   0  0  0  0  0  0  0  0  0  0  0  0  # atno 8008 bound_to 7997
  155.6376  140.3496  155.4685 H   0  0  0  0  0  0  0  0  0  0  0  0  # atno 8009 bound_to 7997
  155.9897  140.1177  157.0639 H   0  0  0  0  0  0  0  0  0  0  0  0  # atno 8010 bound_to 7997
  140.3170  144.2751  150.6189 H   0  0  0  0  0  0  0  0  0  0  0  0  # atno 10167 bound_to 10162
  157.6551  130.9632  150.1079 H   0  0  0  0  0  0  0  0  0  0  0  0  # atno 10718 bound_to 10713
  154.2294  135.6363  153.5170 H   0  0  0  0  0  0  0  0  0  0  0  0  # atno 10763 bound_to 10752
  152.9952  135.5515  154.6029 H   0  0  0  0  0  0  0  0  0  0  0  0  # atno 10764 bound_to 10752
  154.5508  135.2901  155.0984 H   0  0  0  0  0  0  0  0  0  0  0  0  # atno 10765 bound_to 10752
  140.3867  134.1862  155.7663 H   0  0  0  0  0  0  0  0  0  0  0  0  # atno 11005 bound_to 11000
  146.1548  140.6874  142.9305 LP  0  0  0  0  0  0  0  0  0  0  0  0  # atno 17320 bound_to 7965
  144.7294  140.4625  143.6949 LP  0  0  0  0  0  0  0  0  0  0  0  0  # atno 17321 bound_to 7965
  140.5517  143.2205  151.7915 LP  0  0  0  0  0  0  0  0  0  0  0  0  # atno 17342 bound_to 10162
  139.4882  144.4467  151.9702 LP  0  0  0  0  0  0  0  0  0  0  0  0  # atno 17343 bound_to 10162
  156.1984  130.3659  149.8819 LP  0  0  0  0  0  0  0  0  0  0  0  0  # atno 17370 bound_to 10713
  156.6730  130.8828  151.3565 LP  0  0  0  0  0  0  0  0  0  0  0  0  # atno 17371 bound_to 10713
  141.1905  133.8216  157.0917 LP  0  0  0  0  0  0  0  0  0  0  0  0  # atno 17394 bound_to 11000
  140.0437  134.9841  157.1009 LP  0  0  0  0  0  0  0  0  0  0  0  0  # atno 17395 bound_to 11000

$$$$
