AV-unprocessed.smi:380|AV-procd|sdf|2460|dock2
  -GOLD-   2262022403D 1   1.00000     0.00000
 Structure written by MMmdl.
 39 40  0  0  0  0  0  0  0  0  1 V2000
  152.5541  143.2688  161.6859 C   0  0  0  0  0  0  0  0  0  0  0  0
  152.6440  143.2826  160.1499 C   0  0  0  0  0  0  0  0  0  0  0  0
  151.8374  144.4529  159.5688 C   0  0  0  0  0  0  0  0  0  0  0  0
  152.1948  141.9457  159.5209 C   0  0  0  0  0  0  0  0  0  0  0  0
  151.8375  142.0772  158.1122 N   0  0  0  0  0  0  0  0  0  0  0  0
  150.6161  141.8618  157.6020 C   0  0  0  0  0  0  0  0  0  0  0  0
  149.6546  141.5043  158.2843 O   0  0  0  0  0  0  0  0  0  0  0  0
  150.4740  142.0813  156.0883 C   0  0  0  0  0  0  0  0  0  0  0  0
  149.9456  140.8983  155.3739 N   0  0  0  0  0  0  0  0  0  0  0  0
  150.7125  139.7052  155.3853 C   0  0  0  0  0  0  0  0  0  0  0  0
  151.7936  139.6511  155.9744 O   0  0  0  0  0  0  0  0  0  0  0  0
  150.1315  138.5770  154.6613 C   0  0  0  0  0  0  0  0  0  0  0  0
  150.8511  137.3468  154.6877 C   0  0  0  0  0  0  0  0  0  0  0  0
  151.4303  136.3458  154.7333 N   0  0  0  0  0  0  0  0  0  0  0  0
  148.9617  138.7030  154.0018 C   0  0  0  0  0  0  0  0  0  0  0  0
  148.2603  139.8881  153.9566 N   0  0  0  0  0  0  0  0  0  0  0  0
  146.9531  139.9635  153.3674 C   0  0  0  0  0  0  0  0  0  0  0  0
  146.3727  138.7313  152.7075 C   0  0  0  0  0  0  0  0  0  0  0  0
  146.7889  139.9088  151.8608 C   0  0  0  0  0  0  0  0  0  0  0  0
  148.7133  141.0096  154.6852 C   0  0  0  0  0  0  0  0  0  0  0  0
  148.0574  142.0536  154.7218 O   0  0  0  0  0  0  0  0  0  0  0  0
  151.5347  143.0742  162.0202 H   0  0  0  0  0  0  0  0  0  0  0  0
  152.8641  144.2263  162.1051 H   0  0  0  0  0  0  0  0  0  0  0  0
  153.1994  142.5042  162.1191 H   0  0  0  0  0  0  0  0  0  0  0  0
  153.6885  143.4505  159.8836 H   0  0  0  0  0  0  0  0  0  0  0  0
  150.7762  144.3572  159.8008 H   0  0  0  0  0  0  0  0  0  0  0  0
  151.9384  144.4991  158.4841 H   0  0  0  0  0  0  0  0  0  0  0  0
  152.1816  145.4063  159.9706 H   0  0  0  0  0  0  0  0  0  0  0  0
  152.9983  141.2123  159.5957 H   0  0  0  0  0  0  0  0  0  0  0  0
  151.3501  141.5300  160.0730 H   0  0  0  0  0  0  0  0  0  0  0  0
  152.5712  142.3651  157.4810 H   0  0  0  0  0  0  0  0  0  0  0  0
  149.8362  142.9497  155.9142 H   0  0  0  0  0  0  0  0  0  0  0  0
  151.4452  142.3861  155.6961 H   0  0  0  0  0  0  0  0  0  0  0  0
  148.5607  137.8454  153.4807 H   0  0  0  0  0  0  0  0  0  0  0  0
  146.2420  140.5945  153.8976 H   0  0  0  0  0  0  0  0  0  0  0  0
  146.9915  137.8375  152.6535 H   0  0  0  0  0  0  0  0  0  0  0  0
  145.3065  138.5522  152.8294 H   0  0  0  0  0  0  0  0  0  0  0  0
  146.0012  140.5170  151.4210 H   0  0  0  0  0  0  0  0  0  0  0  0
  147.6809  139.7887  151.2487 H   0  0  0  0  0  0  0  0  0  0  0  0
  1  2  1  0  0  0  0
  1 22  1  0  0  0  0
  1 23  1  0  0  0  0
  1 24  1  0  0  0  0
  2  3  1  0  0  0  0
  2  4  1  0  0  0  0
  2 25  1  0  0  0  0
  3 26  1  0  0  0  0
  3 27  1  0  0  0  0
  3 28  1  0  0  0  0
  4  5  1  0  0  0  0
  4 29  1  0  0  0  0
  4 30  1  0  0  0  0
  5  6  1  0  0  0  0
  5 31  1  0  0  0  0
  6  7  2  0  0  0  0
  6  8  1  0  0  0  0
  8  9  1  0  0  0  0
  8 32  1  0  0  0  0
  8 33  1  0  0  0  0
  9 20  1  0  0  0  0
  9 10  1  0  0  0  0
 10 11  2  0  0  0  0
 10 12  1  0  0  0  0
 12 13  1  0  0  0  0
 12 15  2  0  0  0  0
 13 14  3  0  0  0  0
 15 16  1  0  0  0  0
 15 34  1  0  0  0  0
 16 17  1  0  0  0  0
 16 20  1  0  0  0  0
 17 19  1  0  0  0  0
 17 18  1  0  0  0  0
 17 35  1  0  0  0  0
 18 19  1  0  0  0  0
 18 36  1  0  0  0  0
 18 37  1  0  0  0  0
 19 38  1  0  0  0  0
 19 39  1  0  0  0  0
 20 21  2  0  0  0  0
M  END
> <s_m_source_file>
AV-unprocessed.smi

> <i_m_source_file_index>
380

> <i_lp_mmshare_version>
43012

> <i_f3d_flags>
0

> <s_epik_input>
W0NIM11bQ0hdKFtDSDNdKVtDSDJdW05IXUMoPU8pW0NIMl1uMWMoPU8pYyhDI04pW2NIXW4oYzE9TylbQ0hdMltDSDJdW0NIMl0y

> <s_epik_cmdline>
J2VwaWtfcHl0aG9uJywgJy1waCcsICc3LjAnLCAnLXRuJywgJzgnLCAnLW1hJywgJzIwMCcsICctbWV0YWxfYmluZGluZycsICctaW1hZScsICc8aW5maWxlLm1hZT4nLCAnLW9tYWUnLCAnPG91dGZpbGUubWFlPic=

> <r_lp_tautomer_probability>
1

> <r_epik_Ionization_Penalty>
1.93825e-08

> <r_epik_Ionization_Penalty_Charging>
8.0817e-11

> <r_epik_Ionization_Penalty_Neutral>
1.93017e-08

> <r_epik_State_Penalty>
-0

> <r_epik_Charging_Adjusted_Penalty>
8.0817e-11

> <i_epik_Tot_Q>
0

> <i_epik_Tot_abs_Q>
0

> <r_epik_Metal_State_Penalty>
-0

> <b_epik_Metal_Only>
0

> <s_lp_Force_Field>
OPLS_2005

> <r_lp_Energy>
29.2237

> <b_lp_Chiralities_Consistent>
1

> <s_lp_Variant>
AV-unprocessed.smi:380-1

> <Gold.Version>
5.8.1

> <Gold.Id.Protein>
6NUR|6NUR_protein|mol2

> <Gold.PLP.Fitness>
48.2299

> <Gold.PLP.PLP>
-42.7224

> <Gold.PLP.part.hbond>
-1.2441

> <Gold.PLP.part.metal>
0.0000

> <Gold.PLP.part.buried>
2.5814

> <Gold.PLP.part.nonpolar>
-44.2527

> <Gold.PLP.part.repulsive>
1.6157

> <Gold.PLP.ligand.clash>
0.0000

> <Gold.PLP.ligand.torsion>
0.3689

> <Gold.PLP.Chemscore.Hbond>
1.0000

> <Gold.PLP.Chemscore.CHOScore>
1.0000

> <Gold.PLP.Chemscore.Metal>
0.0000

> <Gold.Chemscore.Hbonds>
donor molecule, donor type, donor heavy atom, donor atom, acceptor molecule, acceptor atom, score
      P1  H 10752 10763       L1    14  1.00
      L1  C    15    34       P1  7948  1.00

> <Gold.PLP.Chemscore.Internal.Correction>
0.2452

> <Gold.Rescore>
     Score         DG    S(hbond)    S(metal)    S(lipo)     H(rot)  DE(clash)    DE(int)     intcor
     13.20     -13.59       1.00        0.00      84.36       1.99       0.13       0.25       ----

> <Gold.Chemscore.Fitness>
13.1983

> <Gold.Chemscore.DG>
-13.5862

> <Gold.Chemscore.ZeroCoef>
-5.4800

> <Gold.Chemscore.Hbond>
0.9995

> <Gold.Chemscore.Metal>
0.0000

> <Gold.Chemscore.Lipo>
84.3563

> <Gold.Chemscore.Internal_Hbond>
0.0000

> <Gold.Chemscore.DEClash>
0.1345

> <Gold.Chemscore.DEInternal>
0.2534

> <Gold.Chemscore.Rot>
1.9930

> <Gold.Chemscore.Internal.Correction>
   9.000000E+99

> <Gold.Chemscore.Hbonds>
donor molecule, donor type, donor heavy atom, donor atom, acceptor molecule, acceptor atom, score
      P1  H 10752 10763       L1    14  1.00

> <Gold.Chemscore.Hbond.Weighted>
-3.3385

> <Gold.Chemscore.Metal.Weighted>
-0.0000

> <Gold.Chemscore.Lipo.Weighted>
-9.8697

> <Gold.Chemscore.Internal_Hbond.Weighted>
0.0000

> <Gold.Chemscore.DEClash.Weighted>
0.1345

> <Gold.Chemscore.DEInternal.Weighted>
0.2534

> <Gold.Chemscore.Rot.Weighted>
5.1020

> <Gold.Chemscore.Internal.Correction.Weighted>
   9.000000E+99

> <Gold.Protein.RotatedTorsions>
[ 6907 6896 6895 6894 ] final -123.40 input  -60.11 | X-H torsion
[ 7974 7965 7964 7962 ] final  158.74 input  175.53 | X-H torsion
[ 8008 7997 7996 7995 ] final -133.05 input   59.86 | X-H torsion
[ 10167 10162 10161 10158 ] final   78.52 input  -65.29 | X-H torsion
[ 10718 10713 10712 10709 ] final   33.16 input   66.30 | X-H torsion
[ 10763 10752 10751 10750 ] final   66.50 input  -60.55 | X-H torsion
[ 11005 11000 10999 10996 ] final -100.45 input  -57.11 | X-H torsion

> <Gold.Protein.ActiveResidues>
 VAL166  LYS551  ARG553  GLY616  TRP617  ASP618  TYR619  PRO620  LYS621  CYS622 
 ASP623  PHE694  ASN695  SER759  ASP760  ASP761  ALA762  ILE779  LEU786  VAL792 
 PHE793  MET794  SER795  GLU796  ALA797  LYS798  CYS799  TRP800  GLU811  SER814 

> <Gold.Protein.RotatedAtoms>
  150.8667  133.7564  159.2974 H   0  0  0  0  0  0  0  0  0  0  0  0  # atno 6907 bound_to 6896
  151.5188  135.1065  159.9883 H   0  0  0  0  0  0  0  0  0  0  0  0  # atno 6908 bound_to 6896
  152.4666  133.7892  159.6948 H   0  0  0  0  0  0  0  0  0  0  0  0  # atno 6909 bound_to 6896
  144.7829  139.7520  143.6252 H   0  0  0  0  0  0  0  0  0  0  0  0  # atno 7974 bound_to 7965
  155.3391  140.0471  157.3044 H   0  0  0  0  0  0  0  0  0  0  0  0  # atno 8008 bound_to 7997
  154.5287  140.2250  155.8808 H   0  0  0  0  0  0  0  0  0  0  0  0  # atno 8009 bound_to 7997
  156.1766  140.3083  155.9077 H   0  0  0  0  0  0  0  0  0  0  0  0  # atno 8010 bound_to 7997
  139.9701  144.5900  150.7993 H   0  0  0  0  0  0  0  0  0  0  0  0  # atno 10167 bound_to 10162
  157.2944  130.7319  149.6629 H   0  0  0  0  0  0  0  0  0  0  0  0  # atno 10718 bound_to 10713
  153.0143  135.5318  154.6833 H   0  0  0  0  0  0  0  0  0  0  0  0  # atno 10763 bound_to 10752
  154.5987  135.2866  155.0560 H   0  0  0  0  0  0  0  0  0  0  0  0  # atno 10764 bound_to 10752
  154.1626  135.6545  153.5042 H   0  0  0  0  0  0  0  0  0  0  0  0  # atno 10765 bound_to 10752
  141.1270  133.8400  157.1104 H   0  0  0  0  0  0  0  0  0  0  0  0  # atno 11005 bound_to 11000
  146.2046  139.5362  142.9721 LP  0  0  0  0  0  0  0  0  0  0  0  0  # atno 17320 bound_to 7965
  145.6001  141.0356  143.2023 LP  0  0  0  0  0  0  0  0  0  0  0  0  # atno 17321 bound_to 7965
  140.7525  143.2991  151.3127 LP  0  0  0  0  0  0  0  0  0  0  0  0  # atno 17342 bound_to 10162
  139.6488  144.0402  152.2610 LP  0  0  0  0  0  0  0  0  0  0  0  0  # atno 17343 bound_to 10162
  155.9668  130.4299  150.4853 LP  0  0  0  0  0  0  0  0  0  0  0  0  # atno 17370 bound_to 10713
  157.2822  131.0609  151.2190 LP  0  0  0  0  0  0  0  0  0  0  0  0  # atno 17371 bound_to 10713
  140.0279  134.9915  157.0722 LP  0  0  0  0  0  0  0  0  0  0  0  0  # atno 17394 bound_to 11000
  140.4333  134.1757  155.7169 LP  0  0  0  0  0  0  0  0  0  0  0  0  # atno 17395 bound_to 11000

$$$$
