AV-unprocessed.smi:21|AV-procd|sdf|152|dock6
  -GOLD-   2262015373D 1   1.00000     0.00000
 Structure written by MMmdl.
 62 65  0  0  0  0  0  0  0  0  2 V2000
  144.4607  132.2895  149.3689 C   0  0  0  0  0  0  0  0  0  0  0  0
  145.1763  132.9764  150.3829 O   0  0  0  0  0  0  0  0  0  0  0  0
  144.3872  133.9212  151.0903 C   0  0  2  0  0  0  0  0  0  0  0  0
  145.1565  134.4739  152.2818 C   0  0  0  0  0  0  0  0  0  0  0  0
  144.0453  134.9863  153.2032 C   0  0  2  0  0  0  0  0  0  0  0  0
  144.4591  135.0954  154.6842 C   0  0  0  0  0  0  0  0  0  0  0  0
  145.1442  136.3551  154.9845 N   0  0  0  0  0  0  0  0  0  0  0  0
  144.4509  137.5982  154.6698 C   0  0  0  0  0  0  0  0  0  0  0  0
  146.4786  136.3693  155.2718 C   0  0  0  0  0  0  0  0  0  0  0  0
  146.9828  135.3584  156.0294 N   0  0  0  0  0  0  0  0  0  0  0  0
  148.2792  135.3156  156.3462 C   0  0  0  0  0  0  0  0  0  0  0  0
  149.2447  136.1718  156.0152 N   0  0  0  0  0  0  0  0  0  0  0  0
  148.7576  137.1915  155.2542 C   0  0  0  0  0  0  0  0  0  0  0  0
  147.4050  137.3691  154.8379 C   0  0  0  0  0  0  0  0  0  0  0  0
  147.3130  138.5227  154.0639 N   0  0  0  0  0  0  0  0  0  0  0  0
  148.5271  138.9979  154.0326 C   0  0  0  0  0  0  0  0  0  0  0  0
  149.4570  138.2633  154.7295 N   0  0  0  0  0  0  0  0  0  0  0  0
  150.8731  138.5571  154.8679 C   0  0  0  0  0  0  0  0  0  0  0  0
  151.3425  138.6582  156.3411 C   0  0  1  0  0  0  0  0  0  0  0  0
  152.5645  137.7402  156.5796 C   0  0  0  0  0  0  0  0  0  0  0  0
  153.6475  138.1288  155.7606 O   0  0  0  0  0  0  0  0  0  0  0  0
  151.5730  140.1271  156.7954 C   0  0  1  0  0  0  0  0  0  0  0  0
  150.4124  141.0923  156.5493 C   0  0  0  0  0  0  0  0  0  0  0  0
  150.2808  141.8645  157.8635 C   0  0  0  0  0  0  0  0  0  0  0  0
  151.5260  141.6708  158.5154 O   0  0  0  0  0  0  0  0  0  0  0  0
  151.9023  140.3250  158.2791 C   0  0  0  0  0  0  0  0  0  0  0  0
  142.9290  134.0283  153.0204 N   0  3  1  0  0  0  0  0  0  0  0  0
  141.5850  134.6344  153.1420 C   0  0  0  0  0  0  0  0  0  0  0  0
  143.1447  133.3038  151.7450 C   0  0  0  0  0  0  0  0  0  0  0  0
  144.0989  134.7518  150.4430 H   0  0  0  0  0  0  0  0  0  0  0  0
  143.7233  135.9625  152.8349 H   0  0  0  0  0  0  0  0  0  0  0  0
  145.1272  131.5917  148.8619 H   0  0  0  0  0  0  0  0  0  0  0  0
  144.0718  132.9835  148.6228 H   0  0  0  0  0  0  0  0  0  0  0  0
  143.6297  131.7167  149.7815 H   0  0  0  0  0  0  0  0  0  0  0  0
  145.7090  133.6683  152.7682 H   0  0  0  0  0  0  0  0  0  0  0  0
  145.8702  135.2496  152.0018 H   0  0  0  0  0  0  0  0  0  0  0  0
  143.5663  135.0546  155.3087 H   0  0  0  0  0  0  0  0  0  0  0  0
  145.0458  134.2258  154.9805 H   0  0  0  0  0  0  0  0  0  0  0  0
  144.7735  137.9864  153.7035 H   0  0  0  0  0  0  0  0  0  0  0  0
  144.6382  138.3519  155.4353 H   0  0  0  0  0  0  0  0  0  0  0  0
  143.3729  137.4417  154.6217 H   0  0  0  0  0  0  0  0  0  0  0  0
  148.5862  134.4761  156.9524 H   0  0  0  0  0  0  0  0  0  0  0  0
  148.7765  139.9063  153.5033 H   0  0  0  0  0  0  0  0  0  0  0  0
  151.4254  137.7766  154.3436 H   0  0  0  0  0  0  0  0  0  0  0  0
  151.0847  139.4889  154.3418 H   0  0  0  0  0  0  0  0  0  0  0  0
  150.5313  138.2783  156.9644 H   0  0  0  0  0  0  0  0  0  0  0  0
  152.8858  137.7737  157.6207 H   0  0  0  0  0  0  0  0  0  0  0  0
  152.3389  136.6997  156.3516 H   0  0  0  0  0  0  0  0  0  0  0  0
  153.3082  138.3999  154.9212 H   0  0  0  0  0  0  0  0  0  0  0  0
  152.4085  140.5409  156.2299 H   0  0  0  0  0  0  0  0  0  0  0  0
  150.6615  141.7698  155.7316 H   0  0  0  0  0  0  0  0  0  0  0  0
  149.4762  140.6033  156.2830 H   0  0  0  0  0  0  0  0  0  0  0  0
  150.0688  142.9229  157.7106 H   0  0  0  0  0  0  0  0  0  0  0  0
  149.4848  141.4420  158.4786 H   0  0  0  0  0  0  0  0  0  0  0  0
  151.3122  139.6765  158.9266 H   0  0  0  0  0  0  0  0  0  0  0  0
  152.9569  140.1598  158.5004 H   0  0  0  0  0  0  0  0  0  0  0  0
  141.4163  135.3769  152.3609 H   0  0  0  0  0  0  0  0  0  0  0  0
  141.4683  135.1226  154.1098 H   0  0  0  0  0  0  0  0  0  0  0  0
  140.8135  133.8684  153.0588 H   0  0  0  0  0  0  0  0  0  0  0  0
  142.2803  133.3423  151.0802 H   0  0  0  0  0  0  0  0  0  0  0  0
  143.3248  132.2558  151.9880 H   0  0  0  0  0  0  0  0  0  0  0  0
  143.0148  133.3380  153.7530 H   0  0  0  0  0  0  0  0  0  0  0  0
  1  2  1  0  0  0  0
  1 32  1  0  0  0  0
  1 33  1  0  0  0  0
  1 34  1  0  0  0  0
  2  3  1  0  0  0  0
  3 30  1  0  0  0  0
  3 29  1  0  0  0  0
  3  4  1  0  0  0  0
  4  5  1  0  0  0  0
  4 35  1  0  0  0  0
  4 36  1  0  0  0  0
  5 31  1  0  0  0  0
  5  6  1  0  0  0  0
  5 27  1  0  0  0  0
  6  7  1  0  0  0  0
  6 37  1  0  0  0  0
  6 38  1  0  0  0  0
  7  8  1  0  0  0  0
  7  9  1  0  0  0  0
  8 39  1  0  0  0  0
  8 40  1  0  0  0  0
  8 41  1  0  0  0  0
  9 14  1  0  0  0  0
  9 10  2  0  0  0  0
 10 11  1  0  0  0  0
 11 12  2  0  0  0  0
 11 42  1  0  0  0  0
 12 13  1  0  0  0  0
 13 17  1  0  0  0  0
 13 14  2  0  0  0  0
 14 15  1  0  0  0  0
 15 16  2  0  0  0  0
 16 17  1  0  0  0  0
 16 43  1  0  0  0  0
 17 18  1  0  0  0  0
 18 19  1  0  0  0  0
 18 44  1  0  0  0  0
 18 45  1  0  0  0  0
 19 20  1  0  0  0  0
 19 22  1  0  0  0  0
 19 46  1  0  0  0  0
 20 21  1  0  0  0  0
 20 47  1  0  0  0  0
 20 48  1  0  0  0  0
 21 49  1  0  0  0  0
 22 26  1  0  0  0  0
 22 23  1  0  0  0  0
 22 50  1  0  0  0  0
 23 24  1  0  0  0  0
 23 51  1  0  0  0  0
 23 52  1  0  0  0  0
 24 25  1  0  0  0  0
 24 53  1  0  0  0  0
 24 54  1  0  0  0  0
 25 26  1  0  0  0  0
 26 55  1  0  0  0  0
 26 56  1  0  0  0  0
 27 28  1  0  0  0  0
 27 29  1  0  0  0  0
 27 62  1  0  0  0  0
 28 57  1  0  0  0  0
 28 58  1  0  0  0  0
 28 59  1  0  0  0  0
 29 60  1  0  0  0  0
 29 61  1  0  0  0  0
M  CHG  1  27   1
M  END
> <s_m_source_file>
AV-unprocessed.smi

> <i_m_source_file_index>
21

> <i_lp_mmshare_version>
43012

> <i_f3d_flags>
0

> <s_epik_input>
W0NIM11PW0NASF0xW0NIMl1bQ0BIXShOKFtDSDNdKVtDSDJdMSlbQ0gyXU4oW0NIM10pYyhuW2NIXW4yKWMoYzIzKW5bY0hdbjNbQ0gyXVtDQEhdKFtDSDJdW09IXSlbQ0BASF00W0NIMl1bQ0gyXU9bQ0gyXTQ=

> <s_epik_cmdline>
J2VwaWtfcHl0aG9uJywgJy1waCcsICc3LjAnLCAnLXRuJywgJzgnLCAnLW1hJywgJzIwMCcsICctbWV0YWxfYmluZGluZycsICctaW1hZScsICc8aW5maWxlLm1hZT4nLCAnLW9tYWUnLCAnPG91dGZpbGUubWFlPic=

> <r_lp_tautomer_probability>
1

> <r_epik_Ionization_Penalty>
0.0157465

> <r_epik_Ionization_Penalty_Charging>
0.015354

> <r_epik_Ionization_Penalty_Neutral>
0.000392529

> <r_epik_State_Penalty>
0.0120612

> <r_epik_Charging_Adjusted_Penalty>
0.0274152

> <i_epik_Tot_Q>
1

> <i_epik_Tot_abs_Q>
1

> <r_epik_Metal_State_Penalty>
0.0121253

> <b_epik_Metal_Only>
0

> <s_lp_Force_Field>
OPLS_2005

> <r_lp_Energy>
58.5761

> <b_lp_Chiralities_Consistent>
1

> <s_lp_Variant>
AV-unprocessed.smi:21-32

> <Gold.Version>
5.8.1

> <Gold.Id.Protein>
6NUR|6NUR_protein|mol2

> <Gold.PLP.Fitness>
46.4811

> <Gold.PLP.PLP>
-38.2112

> <Gold.PLP.part.hbond>
-2.0000

> <Gold.PLP.part.metal>
0.0000

> <Gold.PLP.part.buried>
-4.4879

> <Gold.PLP.part.nonpolar>
-32.8937

> <Gold.PLP.part.repulsive>
0.4946

> <Gold.PLP.ligand.clash>
0.0000

> <Gold.PLP.ligand.torsion>
1.4738

> <Gold.PLP.Chemscore.Hbond>
2.8480

> <Gold.PLP.Chemscore.CHOScore>
0.7145

> <Gold.PLP.Chemscore.Metal>
0.0000

> <Gold.Chemscore.Hbonds>
donor molecule, donor type, donor heavy atom, donor atom, acceptor molecule, acceptor atom, score
      L1  H    27    62       P1 10957  2.00
      P1  H  7997  8010       L1    21  0.19
      L1  C    16    43       P1  7957  0.91

> <Gold.PLP.Chemscore.Internal.Correction>
0.5301

> <Gold.Rescore>
     Score         DG    S(hbond)    S(metal)    S(lipo)     H(rot)  DE(clash)    DE(int)     intcor
     11.49     -13.78       1.92        0.00      83.48       3.08       0.04       2.24       ----

> <Gold.Chemscore.Fitness>
11.4904

> <Gold.Chemscore.DG>
-13.7776

> <Gold.Chemscore.ZeroCoef>
-5.4800

> <Gold.Chemscore.Hbond>
1.9175

> <Gold.Chemscore.Metal>
0.0000

> <Gold.Chemscore.Lipo>
83.4816

> <Gold.Chemscore.Internal_Hbond>
0.0000

> <Gold.Chemscore.DEClash>
0.0449

> <Gold.Chemscore.DEInternal>
2.2423

> <Gold.Chemscore.Rot>
3.0758

> <Gold.Chemscore.Internal.Correction>
   9.000000E+99

> <Gold.Chemscore.Hbonds>
donor molecule, donor type, donor heavy atom, donor atom, acceptor molecule, acceptor atom, score
      L1  H    27    62       P1 10957  0.99
      P1  H  7997  8010       L1    21  0.01

> <Gold.Chemscore.Hbond.Weighted>
-6.4044

> <Gold.Chemscore.Metal.Weighted>
-0.0000

> <Gold.Chemscore.Lipo.Weighted>
-9.7673

> <Gold.Chemscore.Internal_Hbond.Weighted>
0.0000

> <Gold.Chemscore.DEClash.Weighted>
0.0449

> <Gold.Chemscore.DEInternal.Weighted>
2.2423

> <Gold.Chemscore.Rot.Weighted>
7.8741

> <Gold.Chemscore.Internal.Correction.Weighted>
   9.000000E+99

> <Gold.Protein.RotatedTorsions>
[ 6907 6896 6895 6894 ] final   43.44 input  -60.11 | X-H torsion
[ 7974 7965 7964 7962 ] final   54.28 input  175.53 | X-H torsion
[ 8008 7997 7996 7995 ] final   94.48 input   59.86 | X-H torsion
[ 10167 10162 10161 10158 ] final -175.39 input  -65.29 | X-H torsion
[ 10718 10713 10712 10709 ] final   95.11 input   66.30 | X-H torsion
[ 10763 10752 10751 10750 ] final -163.91 input  -60.55 | X-H torsion
[ 11005 11000 10999 10996 ] final  -13.96 input  -57.11 | X-H torsion

> <Gold.Protein.ActiveResidues>
 VAL166  LYS551  ARG553  GLY616  TRP617  ASP618  TYR619  PRO620  LYS621  CYS622 
 ASP623  PHE694  ASN695  SER759  ASP760  ASP761  ALA762  ILE779  LEU786  VAL792 
 PHE793  MET794  SER795  GLU796  ALA797  LYS798  CYS799  TRP800  GLU811  SER814 

> <Gold.Protein.RotatedAtoms>
  152.2203  134.8419  160.0486 H   0  0  0  0  0  0  0  0  0  0  0  0  # atno 6907 bound_to 6896
  151.9205  133.3579  159.3903 H   0  0  0  0  0  0  0  0  0  0  0  0  # atno 6908 bound_to 6896
  150.6998  134.4565  159.5405 H   0  0  0  0  0  0  0  0  0  0  0  0  # atno 6909 bound_to 6896
  145.9625  139.4073  143.0239 H   0  0  0  0  0  0  0  0  0  0  0  0  # atno 7974 bound_to 7965
  156.0584  140.3299  155.7432 H   0  0  0  0  0  0  0  0  0  0  0  0  # atno 8008 bound_to 7997
  155.5493  140.0609  157.2871 H   0  0  0  0  0  0  0  0  0  0  0  0  # atno 8009 bound_to 7997
  154.4469  140.1897  156.0659 H   0  0  0  0  0  0  0  0  0  0  0  0  # atno 8010 bound_to 7997
  139.5583  144.1933  152.1197 H   0  0  0  0  0  0  0  0  0  0  0  0  # atno 10167 bound_to 10162
  157.6942  131.0535  150.4289 H   0  0  0  0  0  0  0  0  0  0  0  0  # atno 10718 bound_to 10713
  154.7079  135.3000  154.9243 H   0  0  0  0  0  0  0  0  0  0  0  0  # atno 10763 bound_to 10752
  154.0154  135.6689  153.4772 H   0  0  0  0  0  0  0  0  0  0  0  0  # atno 10764 bound_to 10752
  153.0731  135.5049  154.8260 H   0  0  0  0  0  0  0  0  0  0  0  0  # atno 10765 bound_to 10752
  140.7815  133.8359  155.9297 H   0  0  0  0  0  0  0  0  0  0  0  0  # atno 11005 bound_to 11000
  145.8019  140.9767  143.0994 LP  0  0  0  0  0  0  0  0  0  0  0  0  # atno 17320 bound_to 7965
  144.6818  139.9813  143.7483 LP  0  0  0  0  0  0  0  0  0  0  0  0  # atno 17321 bound_to 7965
  140.1441  144.5175  150.6726 LP  0  0  0  0  0  0  0  0  0  0  0  0  # atno 17342 bound_to 10162
  140.6860  143.2350  151.5260 LP  0  0  0  0  0  0  0  0  0  0  0  0  # atno 17343 bound_to 10162
  156.4657  130.4042  149.6548 LP  0  0  0  0  0  0  0  0  0  0  0  0  # atno 17370 bound_to 10713
  156.3647  130.7499  151.2476 LP  0  0  0  0  0  0  0  0  0  0  0  0  # atno 17371 bound_to 10713
  140.9477  134.1819  157.4751 LP  0  0  0  0  0  0  0  0  0  0  0  0  # atno 17394 bound_to 11000
  139.8742  134.9897  156.5469 LP  0  0  0  0  0  0  0  0  0  0  0  0  # atno 17395 bound_to 11000

$$$$
