AV-unprocessed.smi:2807|AV-procd|sdf|10821|dock5
  -GOLD-   2272015263D 1   1.00000     0.00000
 Structure written by MMmdl.
 31 32  0  0  0  0  0  0  0  0  2 V2000
  151.4362  140.2158  155.2070 O   0  0  0  0  0  0  0  0  0  0  0  0
  150.7195  140.7466  156.0636 C   0  0  0  0  0  0  0  0  0  0  0  0
  149.5326  141.4031  155.9219 N   0  5  0  0  0  0  0  0  0  0  0  0
  148.2371  140.7419  155.7286 C   0  0  1  0  0  0  0  0  0  0  0  0
  147.1150  141.7876  155.8119 C   0  0  0  0  0  0  0  0  0  0  0  0
  146.9306  142.3556  154.3920 C   0  0  0  0  0  0  0  0  0  0  0  0
  147.6864  141.4173  153.4386 C   0  0  0  0  0  0  0  0  0  0  0  0
  148.0767  140.2043  154.2920 C   0  0  1  0  0  0  0  0  0  0  0  0
  149.2064  139.5224  153.7802 O   0  0  0  0  0  0  0  0  0  0  0  0
  151.1912  140.7305  157.5327 C   0  0  0  0  0  0  0  0  0  0  0  0
  150.2523  140.1636  158.2981 F   0  0  0  0  0  0  0  0  0  0  0  0
  152.2916  139.9798  157.6263 F   0  0  0  0  0  0  0  0  0  0  0  0
  151.5227  142.1440  158.0109 C   0  0  0  0  0  0  0  0  0  0  0  0
  152.0977  142.3537  159.2850 C   0  0  0  0  0  0  0  0  0  0  0  0
  152.4089  143.6690  159.6786 C   0  0  0  0  0  0  0  0  0  0  0  0
  152.1334  144.7260  158.7909 C   0  0  0  0  0  0  0  0  0  0  0  0
  151.5568  144.4177  157.5432 C   0  0  0  0  0  0  0  0  0  0  0  0
  151.2530  143.1609  157.1569 N   0  0  0  0  0  0  0  0  0  0  0  0
  148.0664  139.9468  156.4563 H   0  0  0  0  0  0  0  0  0  0  0  0
  146.1923  141.2910  156.1144 H   0  0  0  0  0  0  0  0  0  0  0  0
  147.3083  142.5674  156.5502 H   0  0  0  0  0  0  0  0  0  0  0  0
  145.8718  142.4108  154.1361 H   0  0  0  0  0  0  0  0  0  0  0  0
  147.3324  143.3675  154.3208 H   0  0  0  0  0  0  0  0  0  0  0  0
  147.0850  141.1314  152.5753 H   0  0  0  0  0  0  0  0  0  0  0  0
  148.5761  141.9248  153.0579 H   0  0  0  0  0  0  0  0  0  0  0  0
  147.2428  139.5009  154.2902 H   0  0  0  0  0  0  0  0  0  0  0  0
  149.3003  139.7573  152.8698 H   0  0  0  0  0  0  0  0  0  0  0  0
  152.3056  141.5209  159.9403 H   0  0  0  0  0  0  0  0  0  0  0  0
  152.8531  143.8628  160.6435 H   0  0  0  0  0  0  0  0  0  0  0  0
  152.3602  145.7474  159.0578 H   0  0  0  0  0  0  0  0  0  0  0  0
  151.3318  145.2030  156.8366 H   0  0  0  0  0  0  0  0  0  0  0  0
  1  2  2  0  0  0  0
  2  3  1  0  0  0  0
  2 10  1  0  0  0  0
  3  4  1  0  0  0  0
  4  8  1  0  0  0  0
  4  5  1  0  0  0  0
  4 19  1  0  0  0  0
  5  6  1  0  0  0  0
  5 20  1  0  0  0  0
  5 21  1  0  0  0  0
  6  7  1  0  0  0  0
  6 22  1  0  0  0  0
  6 23  1  0  0  0  0
  7  8  1  0  0  0  0
  7 24  1  0  0  0  0
  7 25  1  0  0  0  0
  8  9  1  0  0  0  0
  8 26  1  0  0  0  0
  9 27  1  0  0  0  0
 10 11  1  0  0  0  0
 10 12  1  0  0  0  0
 10 13  1  0  0  0  0
 13 18  1  0  0  0  0
 13 14  2  0  0  0  0
 14 15  1  0  0  0  0
 14 28  1  0  0  0  0
 15 16  2  0  0  0  0
 15 29  1  0  0  0  0
 16 17  1  0  0  0  0
 16 30  1  0  0  0  0
 17 18  2  0  0  0  0
 17 31  1  0  0  0  0
M  CHG  1   3  -1
M  END
> <s_m_source_file>
AV-unprocessed.smi

> <i_m_source_file_index>
2807

> <i_lp_mmshare_version>
43012

> <i_f3d_flags>
0

> <s_epik_input>
bjFbY0hdW2NIXVtjSF1bY0hdYzFDKEYpKEYpQyg9TylbTkhdW0NAQEhdMltDSDJdW0NIMl1bQ0gyXVtDQEhdMltPSF0=

> <s_epik_cmdline>
J2VwaWtfcHl0aG9uJywgJy1waCcsICc3LjAnLCAnLXRuJywgJzgnLCAnLW1hJywgJzIwMCcsICctbWV0YWxfYmluZGluZycsICctaW1hZScsICc8aW5maWxlLm1hZT4nLCAnLW9tYWUnLCAnPG91dGZpbGUubWFlPic=

> <r_lp_tautomer_probability>
1

> <r_epik_Ionization_Penalty>
5.72231

> <r_epik_Ionization_Penalty_Charging>
5.72231

> <r_epik_Ionization_Penalty_Neutral>
5.49816e-06

> <r_epik_State_Penalty>
5.72227

> <r_epik_Charging_Adjusted_Penalty>
11.4446

> <i_epik_Tot_Q>
-1

> <i_epik_Tot_abs_Q>
1

> <r_epik_Metal_State_Penalty>
1.70075

> <b_epik_Metal_Only>
1

> <s_lp_Force_Field>
OPLS_2005

> <r_lp_Energy>
37.2022

> <b_lp_Chiralities_Consistent>
1

> <s_lp_Variant>
AV-unprocessed.smi:2807-6

> <Gold.Version>
5.8.1

> <Gold.Id.Protein>
6NUR|6NUR_protein|mol2

> <Gold.PLP.Fitness>
42.3405

> <Gold.PLP.PLP>
-37.3141

> <Gold.PLP.part.hbond>
-2.0000

> <Gold.PLP.part.metal>
0.0000

> <Gold.PLP.part.buried>
-4.7815

> <Gold.PLP.part.nonpolar>
-30.5322

> <Gold.PLP.part.repulsive>
0.2419

> <Gold.PLP.ligand.clash>
0.0000

> <Gold.PLP.ligand.torsion>
1.0076

> <Gold.PLP.Chemscore.Hbond>
2.0000

> <Gold.PLP.Chemscore.CHOScore>
0.3245

> <Gold.PLP.Chemscore.Metal>
0.0000

> <Gold.Chemscore.Hbonds>
donor molecule, donor type, donor heavy atom, donor atom, acceptor molecule, acceptor atom, score
      L1  H     9    27       P1  7957  1.00
      P1  H  7989  7998       L1     1  1.00
      L1  C    17    31       P1  8028  0.35

> <Gold.PLP.Chemscore.Internal.Correction>
0.0681

> <Gold.Rescore>
     Score         DG    S(hbond)    S(metal)    S(lipo)     H(rot)  DE(clash)    DE(int)     intcor
     13.89     -17.32       1.95        0.00      89.21       2.00       0.11       3.32       ----

> <Gold.Chemscore.Fitness>
13.8925

> <Gold.Chemscore.DG>
-17.3225

> <Gold.Chemscore.ZeroCoef>
-5.4800

> <Gold.Chemscore.Hbond>
1.9508

> <Gold.Chemscore.Metal>
0.0000

> <Gold.Chemscore.Lipo>
89.2101

> <Gold.Chemscore.Internal_Hbond>
0.0000

> <Gold.Chemscore.DEClash>
0.1133

> <Gold.Chemscore.DEInternal>
3.3167

> <Gold.Chemscore.Rot>
1.9964

> <Gold.Chemscore.Internal.Correction>
   9.000000E+99

> <Gold.Chemscore.Hbonds>
donor molecule, donor type, donor heavy atom, donor atom, acceptor molecule, acceptor atom, score
      L1  H     9    27       P1  7957  1.00
      P1  H  7989  7998       L1     1  0.95

> <Gold.Chemscore.Hbond.Weighted>
-6.5157

> <Gold.Chemscore.Metal.Weighted>
-0.0000

> <Gold.Chemscore.Lipo.Weighted>
-10.4376

> <Gold.Chemscore.Internal_Hbond.Weighted>
0.0000

> <Gold.Chemscore.DEClash.Weighted>
0.1133

> <Gold.Chemscore.DEInternal.Weighted>
3.3167

> <Gold.Chemscore.Rot.Weighted>
5.1108

> <Gold.Chemscore.Internal.Correction.Weighted>
   9.000000E+99

> <Gold.Protein.RotatedTorsions>
[ 6907 6896 6895 6894 ] final -147.49 input  -60.11 | X-H torsion
[ 7974 7965 7964 7962 ] final   63.99 input  175.53 | X-H torsion
[ 8008 7997 7996 7995 ] final  107.97 input   59.86 | X-H torsion
[ 10167 10162 10161 10158 ] final  179.38 input  -65.29 | X-H torsion
[ 10718 10713 10712 10709 ] final   42.70 input   66.30 | X-H torsion
[ 10763 10752 10751 10750 ] final   73.38 input  -60.55 | X-H torsion
[ 11005 11000 10999 10996 ] final -102.59 input  -57.11 | X-H torsion

> <Gold.Protein.ActiveResidues>
 VAL166  LYS551  ARG553  GLY616  TRP617  ASP618  TYR619  PRO620  LYS621  CYS622 
 ASP623  PHE694  ASN695  SER759  ASP760  ASP761  ALA762  ILE779  LEU786  VAL792 
 PHE793  MET794  SER795  GLU796  ALA797  LYS798  CYS799  TRP800  GLU811  SER814 

> <Gold.Protein.RotatedAtoms>
  151.1564  133.4874  159.2594 H   0  0  0  0  0  0  0  0  0  0  0  0  # atno 6907 bound_to 6896
  151.1500  135.0222  159.8674 H   0  0  0  0  0  0  0  0  0  0  0  0  # atno 6908 bound_to 6896
  152.5463  134.1449  159.8547 H   0  0  0  0  0  0  0  0  0  0  0  0  # atno 6909 bound_to 6896
  145.8554  139.3281  143.0850 H   0  0  0  0  0  0  0  0  0  0  0  0  # atno 7974 bound_to 7965
  156.1867  140.3085  155.9252 H   0  0  0  0  0  0  0  0  0  0  0  0  # atno 8008 bound_to 7997
  155.3266  140.0458  157.3058 H   0  0  0  0  0  0  0  0  0  0  0  0  # atno 8009 bound_to 7997
  154.5404  140.2259  155.8661 H   0  0  0  0  0  0  0  0  0  0  0  0  # atno 8010 bound_to 7997
  139.5334  144.2567  152.0740 H   0  0  0  0  0  0  0  0  0  0  0  0  # atno 10167 bound_to 10162
  157.4077  130.7896  149.7403 H   0  0  0  0  0  0  0  0  0  0  0  0  # atno 10718 bound_to 10713
  153.0518  135.5065  154.7885 H   0  0  0  0  0  0  0  0  0  0  0  0  # atno 10763 bound_to 10752
  154.6742  135.2958  154.9704 H   0  0  0  0  0  0  0  0  0  0  0  0  # atno 10764 bound_to 10752
  154.0512  135.6704  153.4853 H   0  0  0  0  0  0  0  0  0  0  0  0  # atno 10765 bound_to 10752
  141.1182  133.8571  157.1379 H   0  0  0  0  0  0  0  0  0  0  0  0  # atno 11005 bound_to 11000
  145.9309  140.9049  143.0356 LP  0  0  0  0  0  0  0  0  0  0  0  0  # atno 17320 bound_to 7965
  144.6728  140.1417  143.7436 LP  0  0  0  0  0  0  0  0  0  0  0  0  # atno 17321 bound_to 7965
  140.2034  144.4635  150.6420 LP  0  0  0  0  0  0  0  0  0  0  0  0  # atno 17342 bound_to 10162
  140.6526  143.2229  151.6042 LP  0  0  0  0  0  0  0  0  0  0  0  0  # atno 17343 bound_to 10162
  155.9841  130.3994  150.3327 LP  0  0  0  0  0  0  0  0  0  0  0  0  # atno 17370 bound_to 10713
  157.1462  131.0309  151.2906 LP  0  0  0  0  0  0  0  0  0  0  0  0  # atno 17371 bound_to 10713
  140.0120  134.9984  157.0414 LP  0  0  0  0  0  0  0  0  0  0  0  0  # atno 17394 bound_to 11000
  140.4584  134.1510  155.7188 LP  0  0  0  0  0  0  0  0  0  0  0  0  # atno 17395 bound_to 11000

$$$$
