AV-unprocessed.smi:1047|AV-procd|sdf|4563|dock8
  -GOLD-   22720 3 13D 1   1.00000     0.00000
 Structure written by MMmdl.
 57 59  0  0  0  0  0  0  0  0  3 V2000
  148.1885  132.9750  152.6212 C   0  0  0  0  0  0  0  0  0  0  0  0
  148.9763  132.2994  153.7526 C   0  0  0  0  0  0  0  0  0  0  0  0
  149.9508  133.2169  154.3949 N   0  3  2  0  0  0  0  0  0  0  0  0
  150.5131  132.6555  155.6465 C   0  0  0  0  0  0  0  0  0  0  0  0
  151.5603  133.6099  156.2448 C   0  0  0  0  0  0  0  0  0  0  0  0
  150.9731  134.8854  156.4738 O   0  0  0  0  0  0  0  0  0  0  0  0
  150.4936  135.4808  155.2728 C   0  0  2  0  0  0  0  0  0  0  0  0
  150.0018  136.9057  155.5809 C   0  0  0  0  0  0  0  0  0  0  0  0
  149.5145  137.6051  154.3732 N   0  3  0  0  0  0  0  0  0  0  0  0
  150.1534  138.9158  154.1411 C   0  0  0  0  0  0  0  0  0  0  0  0
  149.3438  140.0584  154.7848 C   0  0  2  0  0  0  0  0  0  0  0  0
  148.3622  140.4969  153.8668 O   0  0  0  0  0  0  0  0  0  0  0  0
  150.1949  141.2828  155.1793 C   0  0  0  0  0  0  0  0  0  0  0  0
  151.1391  140.9923  156.2429 N   0  0  0  0  0  0  0  0  0  0  0  0
  151.9628  139.9298  156.3256 C   0  0  0  0  0  0  0  0  0  0  0  0
  152.7610  139.8601  157.3868 N   0  0  0  0  0  0  0  0  0  0  0  0
  152.4105  141.0077  158.0769 C   0  0  0  0  0  0  0  0  0  0  0  0
  152.8963  141.5299  159.2954 C   0  0  0  0  0  0  0  0  0  0  0  0
  152.3908  142.7419  159.8174 C   0  0  0  0  0  0  0  0  0  0  0  0
  152.9450  143.2688  161.1294 C   0  0  0  0  0  0  0  0  0  0  0  0
  151.3801  143.4500  159.1187 C   0  0  0  0  0  0  0  0  0  0  0  0
  150.8227  144.7543  159.6604 C   0  0  0  0  0  0  0  0  0  0  0  0
  150.8813  142.9409  157.9015 C   0  0  0  0  0  0  0  0  0  0  0  0
  151.3952  141.7359  157.3904 C   0  0  0  0  0  0  0  0  0  0  0  0
  149.4144  134.5799  154.6359 C   0  0  0  0  0  0  0  0  0  0  0  0
  147.5493  132.2509  152.1152 H   0  0  0  0  0  0  0  0  0  0  0  0
  148.8584  133.4007  151.8736 H   0  0  0  0  0  0  0  0  0  0  0  0
  147.5427  133.7717  152.9894 H   0  0  0  0  0  0  0  0  0  0  0  0
  148.2979  131.8875  154.5012 H   0  0  0  0  0  0  0  0  0  0  0  0
  149.5142  131.4526  153.3241 H   0  0  0  0  0  0  0  0  0  0  0  0
  149.7098  132.4831  156.3646 H   0  0  0  0  0  0  0  0  0  0  0  0
  150.9753  131.6883  155.4447 H   0  0  0  0  0  0  0  0  0  0  0  0
  151.9286  133.2160  157.1923 H   0  0  0  0  0  0  0  0  0  0  0  0
  152.4234  133.7058  155.5840 H   0  0  0  0  0  0  0  0  0  0  0  0
  151.3290  135.5685  154.5754 H   0  0  0  0  0  0  0  0  0  0  0  0
  149.1957  136.8643  156.3146 H   0  0  0  0  0  0  0  0  0  0  0  0
  150.8094  137.4845  156.0307 H   0  0  0  0  0  0  0  0  0  0  0  0
  149.6885  137.0243  153.5651 H   0  0  0  0  0  0  0  0  0  0  0  0
  151.1549  138.8744  154.5696 H   0  0  0  0  0  0  0  0  0  0  0  0
  150.2697  139.0874  153.0699 H   0  0  0  0  0  0  0  0  0  0  0  0
  148.8326  139.6821  155.6721 H   0  0  0  0  0  0  0  0  0  0  0  0
  148.7085  140.4168  152.9907 H   0  0  0  0  0  0  0  0  0  0  0  0
  150.7501  141.6567  154.3179 H   0  0  0  0  0  0  0  0  0  0  0  0
  149.5512  142.0993  155.5100 H   0  0  0  0  0  0  0  0  0  0  0  0
  151.9810  139.1674  155.5606 H   0  0  0  0  0  0  0  0  0  0  0  0
  153.6661  140.9903  159.8277 H   0  0  0  0  0  0  0  0  0  0  0  0
  152.1520  143.3534  161.8726 H   0  0  0  0  0  0  0  0  0  0  0  0
  153.3942  144.2520  160.9876 H   0  0  0  0  0  0  0  0  0  0  0  0
  153.7119  142.6069  161.5330 H   0  0  0  0  0  0  0  0  0  0  0  0
  150.0678  145.1725  158.9941 H   0  0  0  0  0  0  0  0  0  0  0  0
  151.6166  145.4932  159.7707 H   0  0  0  0  0  0  0  0  0  0  0  0
  150.3592  144.5957  160.6342 H   0  0  0  0  0  0  0  0  0  0  0  0
  150.1115  143.4708  157.3604 H   0  0  0  0  0  0  0  0  0  0  0  0
  149.0814  135.0256  153.6990 H   0  0  0  0  0  0  0  0  0  0  0  0
  148.5404  134.5110  155.2855 H   0  0  0  0  0  0  0  0  0  0  0  0
  148.5178  137.7453  154.4602 H   0  0  0  0  0  0  0  0  0  0  0  0
  150.7252  133.3089  153.7526 H   0  0  0  0  0  0  0  0  0  0  0  0
  1  2  1  0  0  0  0
  1 26  1  0  0  0  0
  1 27  1  0  0  0  0
  1 28  1  0  0  0  0
  2  3  1  0  0  0  0
  2 29  1  0  0  0  0
  2 30  1  0  0  0  0
  3 25  1  0  0  0  0
  3  4  1  0  0  0  0
  3 57  1  0  0  0  0
  4  5  1  0  0  0  0
  4 31  1  0  0  0  0
  4 32  1  0  0  0  0
  5  6  1  0  0  0  0
  5 33  1  0  0  0  0
  5 34  1  0  0  0  0
  6  7  1  0  0  0  0
  7  8  1  0  0  0  0
  7 25  1  0  0  0  0
  7 35  1  0  0  0  0
  8  9  1  0  0  0  0
  8 36  1  0  0  0  0
  8 37  1  0  0  0  0
  9 10  1  0  0  0  0
  9 38  1  0  0  0  0
  9 56  1  0  0  0  0
 10 11  1  0  0  0  0
 10 39  1  0  0  0  0
 10 40  1  0  0  0  0
 11 12  1  0  0  0  0
 11 13  1  0  0  0  0
 11 41  1  0  0  0  0
 12 42  1  0  0  0  0
 13 14  1  0  0  0  0
 13 43  1  0  0  0  0
 13 44  1  0  0  0  0
 14 24  1  0  0  0  0
 14 15  1  0  0  0  0
 15 16  2  0  0  0  0
 15 45  1  0  0  0  0
 16 17  1  0  0  0  0
 17 24  2  0  0  0  0
 17 18  1  0  0  0  0
 18 19  2  0  0  0  0
 18 46  1  0  0  0  0
 19 20  1  0  0  0  0
 19 21  1  0  0  0  0
 20 47  1  0  0  0  0
 20 48  1  0  0  0  0
 20 49  1  0  0  0  0
 21 22  1  0  0  0  0
 21 23  2  0  0  0  0
 22 50  1  0  0  0  0
 22 51  1  0  0  0  0
 22 52  1  0  0  0  0
 23 24  1  0  0  0  0
 23 53  1  0  0  0  0
 25 54  1  0  0  0  0
 25 55  1  0  0  0  0
M  CHG  1   3   1
M  CHG  1   9   1
M  END
> <s_m_source_file>
AV-unprocessed.smi

> <i_m_source_file_index>
1047

> <i_lp_mmshare_version>
43012

> <i_f3d_flags>
0

> <s_epik_input>
W0NIM11bQ0gyXU4xW0NIMl1bQ0gyXU9bQ0BIXShbQ0gyXTEpW0NIMl1bTkhdW0NIMl1bQ0BIXShbT0hdKVtDSDJdbihbY0hdbjIpYyhjMjMpW2NIXWMoW0NIM10pYyhbY0hdMylbQ0gzXQ==

> <s_epik_cmdline>
J2VwaWtfcHl0aG9uJywgJy1waCcsICc3LjAnLCAnLXRuJywgJzgnLCAnLW1hJywgJzIwMCcsICctbWV0YWxfYmluZGluZycsICctaW1hZScsICc8aW5maWxlLm1hZT4nLCAnLW9tYWUnLCAnPG91dGZpbGUubWFlPic=

> <r_epik_Ionization_Penalty>
0.528991

> <r_epik_Ionization_Penalty_Charging>
0.438567

> <r_epik_Ionization_Penalty_Neutral>
0.0904237

> <r_epik_State_Penalty>
0.533036

> <r_epik_Charging_Adjusted_Penalty>
0.971603

> <i_epik_Tot_Q>
2

> <i_epik_Tot_abs_Q>
2

> <r_epik_Metal_State_Penalty>
0.448985

> <b_epik_Metal_Only>
0

> <s_lp_Force_Field>
OPLS_2005

> <r_lp_Energy>
33.7981

> <b_lp_Chiralities_Consistent>
1

> <s_lp_Variant>
AV-unprocessed.smi:1047-4

> <Gold.Version>
5.8.1

> <Gold.Id.Protein>
6NUR|6NUR_protein|mol2

> <Gold.PLP.Fitness>
60.2495

> <Gold.PLP.PLP>
-50.6897

> <Gold.PLP.part.hbond>
-3.0000

> <Gold.PLP.part.metal>
0.0000

> <Gold.PLP.part.buried>
-5.5032

> <Gold.PLP.part.nonpolar>
-41.8968

> <Gold.PLP.part.repulsive>
0.0229

> <Gold.PLP.ligand.clash>
0.0000

> <Gold.PLP.ligand.torsion>
1.1821

> <Gold.PLP.Chemscore.Hbond>
3.9520

> <Gold.PLP.Chemscore.CHOScore>
0.0000

> <Gold.PLP.Chemscore.Metal>
0.0000

> <Gold.Chemscore.Hbonds>
donor molecule, donor type, donor heavy atom, donor atom, acceptor molecule, acceptor atom, score
      L1  H     9    38       P1  7948  1.95
      L1  H    12    42       P1  7957  0.89
      P1  H  7997  8009       L1    16  1.00

> <Gold.PLP.Chemscore.Internal.Correction>
0.0679

> <Gold.Rescore>
     Score         DG    S(hbond)    S(metal)    S(lipo)     H(rot)  DE(clash)    DE(int)     intcor
     19.44     -21.65       2.33        0.00     130.80       2.70       0.15       2.06       ----

> <Gold.Chemscore.Fitness>
19.4388

> <Gold.Chemscore.DG>
-21.6510

> <Gold.Chemscore.ZeroCoef>
-5.4800

> <Gold.Chemscore.Hbond>
2.3281

> <Gold.Chemscore.Metal>
0.0000

> <Gold.Chemscore.Lipo>
130.7987

> <Gold.Chemscore.Internal_Hbond>
0.0000

> <Gold.Chemscore.DEClash>
0.1532

> <Gold.Chemscore.DEInternal>
2.0590

> <Gold.Chemscore.Rot>
2.6985

> <Gold.Chemscore.Internal.Correction>
   9.000000E+99

> <Gold.Chemscore.Hbonds>
donor molecule, donor type, donor heavy atom, donor atom, acceptor molecule, acceptor atom, score
      L1  H     9    38       P1  7948  0.63
      L1  H    12    42       P1  7957  0.87
      P1  H  7997  8009       L1    16  0.42

> <Gold.Chemscore.Hbond.Weighted>
-7.7757

> <Gold.Chemscore.Metal.Weighted>
-0.0000

> <Gold.Chemscore.Lipo.Weighted>
-15.3034

> <Gold.Chemscore.Internal_Hbond.Weighted>
0.0000

> <Gold.Chemscore.DEClash.Weighted>
0.1532

> <Gold.Chemscore.DEInternal.Weighted>
2.0590

> <Gold.Chemscore.Rot.Weighted>
6.9081

> <Gold.Chemscore.Internal.Correction.Weighted>
   9.000000E+99

> <Gold.Protein.RotatedTorsions>
[ 6907 6896 6895 6894 ] final   80.92 input  -60.11 | X-H torsion
[ 7974 7965 7964 7962 ] final  130.07 input  175.53 | X-H torsion
[ 8008 7997 7996 7995 ] final  166.81 input   59.86 | X-H torsion
[ 10167 10162 10161 10158 ] final  -36.60 input  -65.29 | X-H torsion
[ 10718 10713 10712 10709 ] final  147.56 input   66.30 | X-H torsion
[ 10763 10752 10751 10750 ] final   40.86 input  -60.55 | X-H torsion
[ 11005 11000 10999 10996 ] final   -2.70 input  -57.11 | X-H torsion

> <Gold.Protein.ActiveResidues>
 VAL166  LYS551  ARG553  GLY616  TRP617  ASP618  TYR619  PRO620  LYS621  CYS622 
 ASP623  PHE694  ASN695  SER759  ASP760  ASP761  ALA762  ILE779  LEU786  VAL792 
 PHE793  MET794  SER795  GLU796  ALA797  LYS798  CYS799  TRP800  GLU811  SER814 

> <Gold.Protein.RotatedAtoms>
  152.5251  134.3283  159.9173 H   0  0  0  0  0  0  0  0  0  0  0  0  # atno 6907 bound_to 6896
  151.3232  133.4024  159.2664 H   0  0  0  0  0  0  0  0  0  0  0  0  # atno 6908 bound_to 6896
  150.9941  134.9286  159.7974 H   0  0  0  0  0  0  0  0  0  0  0  0  # atno 6909 bound_to 6896
  145.0218  139.4125  143.5193 H   0  0  0  0  0  0  0  0  0  0  0  0  # atno 7974 bound_to 7965
  156.1687  140.1633  156.8486 H   0  0  0  0  0  0  0  0  0  0  0  0  # atno 8008 bound_to 7997
  154.5234  140.0773  156.8248 H   0  0  0  0  0  0  0  0  0  0  0  0  # atno 8009 bound_to 7997
  155.3558  140.3392  155.4242 H   0  0  0  0  0  0  0  0  0  0  0  0  # atno 8010 bound_to 7997
  140.7139  143.3398  151.2383 H   0  0  0  0  0  0  0  0  0  0  0  0  # atno 10167 bound_to 10162
  157.3195  131.0902  151.1252 H   0  0  0  0  0  0  0  0  0  0  0  0  # atno 10718 bound_to 10713
  152.9924  135.6179  154.2694 H   0  0  0  0  0  0  0  0  0  0  0  0  # atno 10763 bound_to 10752
  154.2427  135.2788  155.2849 H   0  0  0  0  0  0  0  0  0  0  0  0  # atno 10764 bound_to 10752
  154.5355  135.5776  153.6853 H   0  0  0  0  0  0  0  0  0  0  0  0  # atno 10765 bound_to 10752
  140.6613  133.9318  155.8438 H   0  0  0  0  0  0  0  0  0  0  0  0  # atno 11005 bound_to 11000
  146.3486  139.9720  142.8705 LP  0  0  0  0  0  0  0  0  0  0  0  0  # atno 17320 bound_to 7965
  145.1886  140.9801  143.4224 LP  0  0  0  0  0  0  0  0  0  0  0  0  # atno 17321 bound_to 7965
  139.6902  143.9705  152.2855 LP  0  0  0  0  0  0  0  0  0  0  0  0  # atno 17342 bound_to 10162
  139.9364  144.6709  150.8311 LP  0  0  0  0  0  0  0  0  0  0  0  0  # atno 17343 bound_to 10162
  157.2542  130.6628  149.5945 LP  0  0  0  0  0  0  0  0  0  0  0  0  # atno 17370 bound_to 10713
  155.9684  130.4529  150.5790 LP  0  0  0  0  0  0  0  0  0  0  0  0  # atno 17371 bound_to 10713
  141.0463  134.0549  157.3840 LP  0  0  0  0  0  0  0  0  0  0  0  0  # atno 17394 bound_to 11000
  139.9012  135.0165  156.7277 LP  0  0  0  0  0  0  0  0  0  0  0  0  # atno 17395 bound_to 11000

$$$$
