AV-unprocessed.smi:2106|AV-procd|sdf|8595|dock6
  -GOLD-   2272011333D 1   1.00000     0.00000
 Structure written by MMmdl.
 47 48  0  0  0  0  0  0  0  0  1 V2000
  154.0441  140.9994  160.5660 C   0  0  0  0  0  0  0  0  0  0  0  0
  153.1233  141.9855  159.9099 C   0  0  0  0  0  0  0  0  0  0  0  0
  152.8653  143.3340  160.2834 C   0  0  0  0  0  0  0  0  0  0  0  0
  151.9548  143.7712  159.3631 C   0  0  0  0  0  0  0  0  0  0  0  0
  151.2920  145.1023  159.2240 C   0  0  0  0  0  0  0  0  0  0  0  0
  151.7112  142.7125  158.5053 N   0  0  0  0  0  0  0  0  0  0  0  0
  150.8175  142.6434  157.3602 C   0  0  0  0  0  0  0  0  0  0  0  0
  149.5839  141.7972  157.6755 C   0  0  0  0  0  0  0  0  0  0  0  0
  149.7187  140.6457  158.0885 O   0  0  0  0  0  0  0  0  0  0  0  0
  148.3921  142.3811  157.4757 N   0  0  0  0  0  0  0  0  0  0  0  0
  147.0938  141.7672  157.7337 C   0  0  0  0  0  0  0  0  0  0  0  0
  146.0511  142.1757  156.6742 C   0  0  0  0  0  0  0  0  0  0  0  0
  145.2613  143.3659  156.9905 N   0  0  0  0  0  0  0  0  0  0  0  0
  144.4931  143.8134  155.8367 C   0  0  0  0  0  0  0  0  0  0  0  0
  143.7049  145.1009  156.1383 C   0  0  1  0  0  0  0  0  0  0  0  0
  142.8269  145.5297  154.9581 C   0  0  0  0  0  0  0  0  0  0  0  0
  142.8572  144.8859  157.2654 O   0  0  0  0  0  0  0  0  0  0  0  0
  143.5145  144.4082  158.4405 C   0  0  2  0  0  0  0  0  0  0  0  0
  144.3276  145.5162  159.1315 C   0  0  0  0  0  0  0  0  0  0  0  0
  144.3496  143.1547  158.1127 C   0  0  0  0  0  0  0  0  0  0  0  0
  152.4309  141.6198  158.8438 N   0  0  0  0  0  0  0  0  0  0  0  0
  154.5663  141.4499  161.4105 H   0  0  0  0  0  0  0  0  0  0  0  0
  154.7970  140.6381  159.8654 H   0  0  0  0  0  0  0  0  0  0  0  0
  153.4923  140.1364  160.9394 H   0  0  0  0  0  0  0  0  0  0  0  0
  153.2841  143.8954  161.1054 H   0  0  0  0  0  0  0  0  0  0  0  0
  151.6604  145.8008  159.9755 H   0  0  0  0  0  0  0  0  0  0  0  0
  150.2130  145.0145  159.3493 H   0  0  0  0  0  0  0  0  0  0  0  0
  151.4872  145.5353  158.2428 H   0  0  0  0  0  0  0  0  0  0  0  0
  150.5118  143.6515  157.0788 H   0  0  0  0  0  0  0  0  0  0  0  0
  151.3557  142.2288  156.5060 H   0  0  0  0  0  0  0  0  0  0  0  0
  148.3853  143.3281  157.1259 H   0  0  0  0  0  0  0  0  0  0  0  0
  147.2356  140.6875  157.6877 H   0  0  0  0  0  0  0  0  0  0  0  0
  146.7490  141.9737  158.7474 H   0  0  0  0  0  0  0  0  0  0  0  0
  146.5812  142.3387  155.7348 H   0  0  0  0  0  0  0  0  0  0  0  0
  145.3801  141.3352  156.4913 H   0  0  0  0  0  0  0  0  0  0  0  0
  145.1635  143.9941  154.9955 H   0  0  0  0  0  0  0  0  0  0  0  0
  143.8052  143.0265  155.5232 H   0  0  0  0  0  0  0  0  0  0  0  0
  144.4013  145.9105  156.3589 H   0  0  0  0  0  0  0  0  0  0  0  0
  143.4289  145.7186  154.0688 H   0  0  0  0  0  0  0  0  0  0  0  0
  142.2822  146.4449  155.1913 H   0  0  0  0  0  0  0  0  0  0  0  0
  142.0952  144.7603  154.7103 H   0  0  0  0  0  0  0  0  0  0  0  0
  142.7263  144.1131  159.1335 H   0  0  0  0  0  0  0  0  0  0  0  0
  144.7292  145.1650  160.0821 H   0  0  0  0  0  0  0  0  0  0  0  0
  143.7042  146.3861  159.3379 H   0  0  0  0  0  0  0  0  0  0  0  0
  145.1714  145.8449  158.5252 H   0  0  0  0  0  0  0  0  0  0  0  0
  143.6724  142.3319  157.8780 H   0  0  0  0  0  0  0  0  0  0  0  0
  144.8983  142.8539  159.0040 H   0  0  0  0  0  0  0  0  0  0  0  0
  1  2  1  0  0  0  0
  1 22  1  0  0  0  0
  1 23  1  0  0  0  0
  1 24  1  0  0  0  0
  2 21  2  0  0  0  0
  2  3  1  0  0  0  0
  3  4  2  0  0  0  0
  3 25  1  0  0  0  0
  4  5  1  0  0  0  0
  4  6  1  0  0  0  0
  5 26  1  0  0  0  0
  5 27  1  0  0  0  0
  5 28  1  0  0  0  0
  6  7  1  0  0  0  0
  6 21  1  0  0  0  0
  7  8  1  0  0  0  0
  7 29  1  0  0  0  0
  7 30  1  0  0  0  0
  8  9  2  0  0  0  0
  8 10  1  0  0  0  0
 10 11  1  0  0  0  0
 10 31  1  0  0  0  0
 11 12  1  0  0  0  0
 11 32  1  0  0  0  0
 11 33  1  0  0  0  0
 12 13  1  0  0  0  0
 12 34  1  0  0  0  0
 12 35  1  0  0  0  0
 13 20  1  0  0  0  0
 13 14  1  0  0  0  0
 14 15  1  0  0  0  0
 14 36  1  0  0  0  0
 14 37  1  0  0  0  0
 15 16  1  0  0  0  0
 15 17  1  0  0  0  0
 15 38  1  0  0  0  0
 16 39  1  0  0  0  0
 16 40  1  0  0  0  0
 16 41  1  0  0  0  0
 17 18  1  0  0  0  0
 18 19  1  0  0  0  0
 18 20  1  0  0  0  0
 18 42  1  0  0  0  0
 19 43  1  0  0  0  0
 19 44  1  0  0  0  0
 19 45  1  0  0  0  0
 20 46  1  0  0  0  0
 20 47  1  0  0  0  0
M  END
> <s_m_source_file>
AV-unprocessed.smi

> <i_m_source_file_index>
2106

> <i_lp_mmshare_version>
43012

> <i_f3d_flags>
0

> <s_epik_input>
W0NIM11jMVtjSF1jKFtDSDNdKW4objEpW0NIMl1DKD1PKVtOSF1bQ0gyXVtDSDJdTjJbQ0gyXVtDQEBIXShbQ0gzXSlPW0NAQEhdKFtDSDNdKVtDSDJdMg==

> <s_epik_cmdline>
J2VwaWtfcHl0aG9uJywgJy1waCcsICc3LjAnLCAnLXRuJywgJzgnLCAnLW1hJywgJzIwMCcsICctbWV0YWxfYmluZGluZycsICctaW1hZScsICc8aW5maWxlLm1hZT4nLCAnLW9tYWUnLCAnPG91dGZpbGUubWFlPic=

> <r_lp_tautomer_probability>
1

> <r_epik_Ionization_Penalty>
0.197284

> <r_epik_Ionization_Penalty_Charging>
0

> <r_epik_Ionization_Penalty_Neutral>
0.197284

> <r_epik_State_Penalty>
0.186684

> <r_epik_Charging_Adjusted_Penalty>
0.186684

> <i_epik_Tot_Q>
0

> <i_epik_Tot_abs_Q>
0

> <r_epik_Metal_State_Penalty>
0.186634

> <b_epik_Metal_Only>
0

> <s_lp_Force_Field>
OPLS_2005

> <r_lp_Energy>
25.1516

> <b_lp_Chiralities_Consistent>
1

> <s_lp_Variant>
AV-unprocessed.smi:2106-3

> <Gold.Version>
5.8.1

> <Gold.Id.Protein>
6NUR|6NUR_protein|mol2

> <Gold.PLP.Fitness>
40.2733

> <Gold.PLP.PLP>
-38.4214

> <Gold.PLP.part.hbond>
-1.0000

> <Gold.PLP.part.metal>
0.0000

> <Gold.PLP.part.buried>
-5.5746

> <Gold.PLP.part.nonpolar>
-32.0186

> <Gold.PLP.part.repulsive>
0.2208

> <Gold.PLP.ligand.clash>
0.0000

> <Gold.PLP.ligand.torsion>
0.5825

> <Gold.PLP.Chemscore.Hbond>
1.0000

> <Gold.PLP.Chemscore.CHOScore>
0.0000

> <Gold.PLP.Chemscore.Metal>
0.0000

> <Gold.Chemscore.Hbonds>
donor molecule, donor type, donor heavy atom, donor atom, acceptor molecule, acceptor atom, score
      L1  H    10    31       P1  8028  0.79

> <Gold.PLP.Chemscore.Internal.Correction>
0.0169

> <Gold.Rescore>
     Score         DG    S(hbond)    S(metal)    S(lipo)     H(rot)  DE(clash)    DE(int)     intcor
     14.26     -15.22       0.74        0.00      98.47       1.67       0.17       0.80       ----

> <Gold.Chemscore.Fitness>
14.2571

> <Gold.Chemscore.DG>
-15.2215

> <Gold.Chemscore.ZeroCoef>
-5.4800

> <Gold.Chemscore.Hbond>
0.7440

> <Gold.Chemscore.Metal>
0.0000

> <Gold.Chemscore.Lipo>
98.4660

> <Gold.Chemscore.Internal_Hbond>
0.0000

> <Gold.Chemscore.DEClash>
0.1664

> <Gold.Chemscore.DEInternal>
0.7979

> <Gold.Chemscore.Rot>
1.6657

> <Gold.Chemscore.Internal.Correction>
   9.000000E+99

> <Gold.Chemscore.Hbonds>
donor molecule, donor type, donor heavy atom, donor atom, acceptor molecule, acceptor atom, score
      L1  H    10    31       P1  8028  0.12

> <Gold.Chemscore.Hbond.Weighted>
-2.4850

> <Gold.Chemscore.Metal.Weighted>
-0.0000

> <Gold.Chemscore.Lipo.Weighted>
-11.5205

> <Gold.Chemscore.Internal_Hbond.Weighted>
0.0000

> <Gold.Chemscore.DEClash.Weighted>
0.1664

> <Gold.Chemscore.DEInternal.Weighted>
0.7979

> <Gold.Chemscore.Rot.Weighted>
4.2641

> <Gold.Chemscore.Internal.Correction.Weighted>
   9.000000E+99

> <Gold.Protein.RotatedTorsions>
[ 6907 6896 6895 6894 ] final  163.59 input  -60.11 | X-H torsion
[ 7974 7965 7964 7962 ] final  -71.60 input  175.53 | X-H torsion
[ 8008 7997 7996 7995 ] final -103.75 input   59.86 | X-H torsion
[ 10167 10162 10161 10158 ] final  -99.70 input  -65.29 | X-H torsion
[ 10718 10713 10712 10709 ] final   12.68 input   66.30 | X-H torsion
[ 10763 10752 10751 10750 ] final  114.74 input  -60.55 | X-H torsion
[ 11005 11000 10999 10996 ] final  -94.56 input  -57.11 | X-H torsion

> <Gold.Protein.ActiveResidues>
 VAL166  LYS551  ARG553  GLY616  TRP617  ASP618  TYR619  PRO620  LYS621  CYS622 
 ASP623  PHE694  ASN695  SER759  ASP760  ASP761  ALA762  ILE779  LEU786  VAL792 
 PHE793  MET794  SER795  GLU796  ALA797  LYS798  CYS799  TRP800  GLU811  SER814 

> <Gold.Protein.RotatedAtoms>
  151.9228  133.3590  159.3902 H   0  0  0  0  0  0  0  0  0  0  0  0  # atno 6907 bound_to 6896
  150.7033  134.4617  159.5393 H   0  0  0  0  0  0  0  0  0  0  0  0  # atno 6908 bound_to 6896
  152.2244  134.8382  160.0532 H   0  0  0  0  0  0  0  0  0  0  0  0  # atno 6909 bound_to 6896
  145.6760  140.9204  143.0857 H   0  0  0  0  0  0  0  0  0  0  0  0  # atno 7974 bound_to 7965
  154.8753  140.0421  157.1750 H   0  0  0  0  0  0  0  0  0  0  0  0  # atno 8008 bound_to 7997
  154.8695  140.2956  155.5469 H   0  0  0  0  0  0  0  0  0  0  0  0  # atno 8009 bound_to 7997
  156.2999  140.2431  156.3682 H   0  0  0  0  0  0  0  0  0  0  0  0  # atno 8010 bound_to 7997
  140.2597  143.3416  152.0637 H   0  0  0  0  0  0  0  0  0  0  0  0  # atno 10167 bound_to 10162
  157.0137  130.6127  149.5711 H   0  0  0  0  0  0  0  0  0  0  0  0  # atno 10718 bound_to 10713
  153.5118  135.3616  155.2590 H   0  0  0  0  0  0  0  0  0  0  0  0  # atno 10763 bound_to 10752
  154.8741  135.4024  154.3360 H   0  0  0  0  0  0  0  0  0  0  0  0  # atno 10764 bound_to 10752
  153.4015  135.7075  153.6489 H   0  0  0  0  0  0  0  0  0  0  0  0  # atno 10765 bound_to 10752
  141.1467  133.7965  157.0315 H   0  0  0  0  0  0  0  0  0  0  0  0  # atno 11005 bound_to 11000
  144.7041  139.8634  143.7435 LP  0  0  0  0  0  0  0  0  0  0  0  0  # atno 17320 bound_to 7965
  146.1005  139.4000  143.0350 LP  0  0  0  0  0  0  0  0  0  0  0  0  # atno 17321 bound_to 7965
  139.5020  144.6727  151.6204 LP  0  0  0  0  0  0  0  0  0  0  0  0  # atno 17342 bound_to 10162
  140.5976  143.9668  150.6364 LP  0  0  0  0  0  0  0  0  0  0  0  0  # atno 17343 bound_to 10162
  156.0127  130.5219  150.8038 LP  0  0  0  0  0  0  0  0  0  0  0  0  # atno 17370 bound_to 10713
  157.5301  131.0936  150.9966 LP  0  0  0  0  0  0  0  0  0  0  0  0  # atno 17371 bound_to 10713
  140.0751  134.9680  157.1531 LP  0  0  0  0  0  0  0  0  0  0  0  0  # atno 17394 bound_to 11000
  140.3656  134.2446  155.7182 LP  0  0  0  0  0  0  0  0  0  0  0  0  # atno 17395 bound_to 11000

$$$$
