AV-unprocessed.smi:675|AV-procd|sdf|3303|dock2
  -GOLD-   22720 0263D 1   1.00000     0.00000
 Structure written by MMmdl.
 29 30  0  0  0  0  0  0  0  0  1 V2000
  155.9325  135.6381  161.4574 O   0  0  0  0  0  0  0  0  0  0  0  0
  155.5620  136.8036  161.3317 C   0  0  0  0  0  0  0  0  0  0  0  0
  155.8922  137.5181  160.1764 N   0  0  0  0  0  0  0  0  0  0  0  0
  155.5383  138.8408  159.9089 C   0  0  0  0  0  0  0  0  0  0  0  0
  155.9012  139.3677  158.8573 O   0  0  0  0  0  0  0  0  0  0  0  0
  154.7759  139.5082  160.8975 N   0  0  0  0  0  0  0  0  0  0  0  0
  154.4182  140.8925  160.6887 C   0  0  0  0  0  0  0  0  0  0  0  0
  153.0515  141.0814  159.9912 C   0  0  2  0  0  0  0  0  0  0  0  0
  153.1615  140.5790  158.6744 O   0  0  0  0  0  0  0  0  0  0  0  0
  152.5519  142.5260  160.0234 C   0  0  0  0  0  0  0  0  0  0  0  0
  152.2919  143.1917  158.8034 C   0  0  0  0  0  0  0  0  0  0  0  0
  151.8482  144.5272  158.7928 C   0  0  0  0  0  0  0  0  0  0  0  0
  151.6629  145.2151  160.0051 C   0  0  0  0  0  0  0  0  0  0  0  0
  151.9231  144.5655  161.2255 C   0  0  0  0  0  0  0  0  0  0  0  0
  152.3669  143.2279  161.2431 C   0  0  0  0  0  0  0  0  0  0  0  0
  152.6863  142.4955  162.7769 Cl  0  0  0  0  0  0  0  0  0  0  0  0
  154.4276  138.8374  162.0594 C   0  0  0  0  0  0  0  0  0  0  0  0
  154.7778  137.5535  162.3116 C   0  0  0  0  0  0  0  0  0  0  0  0
  154.3128  136.7924  163.7905 Cl  0  0  0  0  0  0  0  0  0  0  0  0
  156.4375  137.0361  159.4766 H   0  0  0  0  0  0  0  0  0  0  0  0
  154.4820  141.4261  161.6390 H   0  0  0  0  0  0  0  0  0  0  0  0
  155.2216  141.2982  160.0710 H   0  0  0  0  0  0  0  0  0  0  0  0
  152.3230  140.4329  160.4754 H   0  0  0  0  0  0  0  0  0  0  0  0
  152.9307  141.2686  158.0708 H   0  0  0  0  0  0  0  0  0  0  0  0
  152.4402  142.6801  157.8638 H   0  0  0  0  0  0  0  0  0  0  0  0
  151.6536  145.0246  157.8540 H   0  0  0  0  0  0  0  0  0  0  0  0
  151.3251  146.2410  159.9992 H   0  0  0  0  0  0  0  0  0  0  0  0
  151.7849  145.0990  162.1542 H   0  0  0  0  0  0  0  0  0  0  0  0
  153.8552  139.3681  162.8070 H   0  0  0  0  0  0  0  0  0  0  0  0
  1  2  2  0  0  0  0
  2 18  1  0  0  0  0
  2  3  1  0  0  0  0
  3 20  1  0  0  0  0
  3  4  1  0  0  0  0
  4  5  2  0  0  0  0
  4  6  1  0  0  0  0
  6  7  1  0  0  0  0
  6 17  1  0  0  0  0
  7  8  1  0  0  0  0
  7 21  1  0  0  0  0
  7 22  1  0  0  0  0
  8  9  1  0  0  0  0
  8 10  1  0  0  0  0
  8 23  1  0  0  0  0
  9 24  1  0  0  0  0
 10 15  1  0  0  0  0
 10 11  2  0  0  0  0
 11 12  1  0  0  0  0
 11 25  1  0  0  0  0
 12 13  2  0  0  0  0
 12 26  1  0  0  0  0
 13 14  1  0  0  0  0
 13 27  1  0  0  0  0
 14 15  2  0  0  0  0
 14 28  1  0  0  0  0
 15 16  1  0  0  0  0
 17 18  2  0  0  0  0
 17 29  1  0  0  0  0
 18 19  1  0  0  0  0
M  END
> <s_m_source_file>
AV-unprocessed.smi

> <i_m_source_file_index>
675

> <i_lp_mmshare_version>
43012

> <i_f3d_flags>
0

> <s_epik_input>
Tz1jMVtuSF1jKD1PKW4oW2NIXWMxQ2wpW0NIMl1bQ0BIXShbT0hdKWMyW2NIXVtjSF1bY0hdW2NIXWMyQ2w=

> <s_epik_cmdline>
J2VwaWtfcHl0aG9uJywgJy1waCcsICc3LjAnLCAnLXRuJywgJzgnLCAnLW1hJywgJzIwMCcsICctbWV0YWxfYmluZGluZycsICctaW1hZScsICc8aW5maWxlLm1hZT4nLCAnLW9tYWUnLCAnPG91dGZpbGUubWFlPic=

> <r_lp_tautomer_probability>
0.999537

> <r_epik_Ionization_Penalty>
0.029206

> <r_epik_Ionization_Penalty_Charging>
0.0292057

> <r_epik_Ionization_Penalty_Neutral>
2.68278e-07

> <r_epik_State_Penalty>
0.0240115

> <r_epik_Charging_Adjusted_Penalty>
0.0532172

> <i_epik_Tot_Q>
0

> <i_epik_Tot_abs_Q>
0

> <r_epik_Metal_State_Penalty>
2.21956

> <b_epik_Metal_Only>
0

> <s_lp_Force_Field>
OPLS_2005

> <r_lp_Energy>
11.7134

> <b_lp_Chiralities_Consistent>
1

> <s_lp_Variant>
AV-unprocessed.smi:675-1

> <Gold.Version>
5.8.1

> <Gold.Id.Protein>
6NUR|6NUR_protein|mol2

> <Gold.PLP.Fitness>
48.7379

> <Gold.PLP.PLP>
-46.5432

> <Gold.PLP.part.hbond>
-2.0000

> <Gold.PLP.part.metal>
0.0000

> <Gold.PLP.part.buried>
-3.9005

> <Gold.PLP.part.nonpolar>
-40.6840

> <Gold.PLP.part.repulsive>
0.0287

> <Gold.PLP.ligand.clash>
0.0000

> <Gold.PLP.ligand.torsion>
0.4220

> <Gold.PLP.Chemscore.Hbond>
1.0000

> <Gold.PLP.Chemscore.CHOScore>
0.0000

> <Gold.PLP.Chemscore.Metal>
0.0000

> <Gold.Chemscore.Hbonds>
donor molecule, donor type, donor heavy atom, donor atom, acceptor molecule, acceptor atom, score
      P1  H  7997  8009       L1     5  1.00

> <Gold.PLP.Chemscore.Internal.Correction>
0.0388

> <Gold.Rescore>
     Score         DG    S(hbond)    S(metal)    S(lipo)     H(rot)  DE(clash)    DE(int)     intcor
     17.76     -18.15       1.00        0.00     127.42       2.18       0.11       0.28       ----

> <Gold.Chemscore.Fitness>
17.7571

> <Gold.Chemscore.DG>
-18.1525

> <Gold.Chemscore.ZeroCoef>
-5.4800

> <Gold.Chemscore.Hbond>
0.9995

> <Gold.Chemscore.Metal>
0.0000

> <Gold.Chemscore.Lipo>
127.4241

> <Gold.Chemscore.Internal_Hbond>
0.0000

> <Gold.Chemscore.DEClash>
0.1147

> <Gold.Chemscore.DEInternal>
0.2807

> <Gold.Chemscore.Rot>
2.1775

> <Gold.Chemscore.Internal.Correction>
   9.000000E+99

> <Gold.Chemscore.Hbonds>
donor molecule, donor type, donor heavy atom, donor atom, acceptor molecule, acceptor atom, score
      P1  H  7997  8009       L1     5  1.00

> <Gold.Chemscore.Hbond.Weighted>
-3.3383

> <Gold.Chemscore.Metal.Weighted>
-0.0000

> <Gold.Chemscore.Lipo.Weighted>
-14.9086

> <Gold.Chemscore.Internal_Hbond.Weighted>
0.0000

> <Gold.Chemscore.DEClash.Weighted>
0.1147

> <Gold.Chemscore.DEInternal.Weighted>
0.2807

> <Gold.Chemscore.Rot.Weighted>
5.5745

> <Gold.Chemscore.Internal.Correction.Weighted>
   9.000000E+99

> <Gold.Protein.RotatedTorsions>
[ 6907 6896 6895 6894 ] final -152.18 input  -60.11 | X-H torsion
[ 7974 7965 7964 7962 ] final -130.67 input  175.53 | X-H torsion
[ 8008 7997 7996 7995 ] final   90.95 input   59.86 | X-H torsion
[ 10167 10162 10161 10158 ] final  149.31 input  -65.29 | X-H torsion
[ 10718 10713 10712 10709 ] final -136.51 input   66.30 | X-H torsion
[ 10763 10752 10751 10750 ] final    8.81 input  -60.55 | X-H torsion
[ 11005 11000 10999 10996 ] final  -90.47 input  -57.11 | X-H torsion

> <Gold.Protein.ActiveResidues>
 VAL166  LYS551  ARG553  GLY616  TRP617  ASP618  TYR619  PRO620  LYS621  CYS622 
 ASP623  PHE694  ASN695  SER759  ASP760  ASP761  ALA762  ILE779  LEU786  VAL792 
 PHE793  MET794  SER795  GLU796  ALA797  LYS798  CYS799  TRP800  GLU811  SER814 

> <Gold.Protein.RotatedAtoms>
  151.2240  133.4487  159.2601 H   0  0  0  0  0  0  0  0  0  0  0  0  # atno 6907 bound_to 6896
  151.0858  134.9886  159.8388 H   0  0  0  0  0  0  0  0  0  0  0  0  # atno 6908 bound_to 6896
  152.5429  134.2177  159.8828 H   0  0  0  0  0  0  0  0  0  0  0  0  # atno 6909 bound_to 6896
  144.9453  140.7284  143.4821 H   0  0  0  0  0  0  0  0  0  0  0  0  # atno 7974 bound_to 7965
  156.0180  140.3343  155.7009 H   0  0  0  0  0  0  0  0  0  0  0  0  # atno 8008 bound_to 7997
  155.6063  140.0660  157.2736 H   0  0  0  0  0  0  0  0  0  0  0  0  # atno 8009 bound_to 7997
  154.4305  140.1801  156.1213 H   0  0  0  0  0  0  0  0  0  0  0  0  # atno 8010 bound_to 7997
  139.4863  144.5612  151.7228 H   0  0  0  0  0  0  0  0  0  0  0  0  # atno 10167 bound_to 10162
  156.2778  130.7303  151.1291 H   0  0  0  0  0  0  0  0  0  0  0  0  # atno 10718 bound_to 10713
  153.2209  135.6881  153.8001 H   0  0  0  0  0  0  0  0  0  0  0  0  # atno 10763 bound_to 10752
  153.7200  135.3269  155.3265 H   0  0  0  0  0  0  0  0  0  0  0  0  # atno 10764 bound_to 10752
  154.8269  135.4611  154.1056 H   0  0  0  0  0  0  0  0  0  0  0  0  # atno 10765 bound_to 10752
  141.1565  133.7694  156.9742 H   0  0  0  0  0  0  0  0  0  0  0  0  # atno 11005 bound_to 11000
  145.2928  139.1877  143.4731 LP  0  0  0  0  0  0  0  0  0  0  0  0  # atno 17320 bound_to 7965
  146.3301  140.2907  142.8615 LP  0  0  0  0  0  0  0  0  0  0  0  0  # atno 17321 bound_to 7965
  140.5182  144.0920  150.6014 LP  0  0  0  0  0  0  0  0  0  0  0  0  # atno 17342 bound_to 10162
  140.3869  143.2773  152.0106 LP  0  0  0  0  0  0  0  0  0  0  0  0  # atno 17343 bound_to 10162
  157.7305  131.0616  150.5724 LP  0  0  0  0  0  0  0  0  0  0  0  0  # atno 17370 bound_to 10713
  156.5827  130.4308  149.5970 LP  0  0  0  0  0  0  0  0  0  0  0  0  # atno 17371 bound_to 10713
  140.1109  134.9477  157.2063 LP  0  0  0  0  0  0  0  0  0  0  0  0  # atno 17394 bound_to 11000
  140.3195  134.2932  155.7249 LP  0  0  0  0  0  0  0  0  0  0  0  0  # atno 17395 bound_to 11000

$$$$
