AV-unprocessed.smi:2835|AV-procd|sdf|10918|dock9
  -GOLD-   2272015363D 1   1.00000     0.00000
 Structure written by MMmdl.
 34 35  0  0  0  0  0  0  0  0  2 V2000
  150.9959  141.0468  158.7848 O   0  0  0  0  0  0  0  0  0  0  0  0
  152.1772  140.8222  159.0422 C   0  0  0  0  0  0  0  0  0  0  0  0
  152.9034  141.7779  160.0040 C   0  0  0  0  0  0  0  0  0  0  0  0
  152.5086  143.1734  159.8693 N   0  0  0  0  0  0  0  0  0  0  0  0
  152.0433  144.0306  160.8451 C   0  0  0  0  0  0  0  0  0  0  0  0
  151.7824  145.2282  160.2434 C   0  0  0  0  0  0  0  0  0  0  0  0
  152.1251  145.0035  158.8808 C   0  0  0  0  0  0  0  0  0  0  0  0
  152.5639  143.7749  158.6609 N   0  0  0  0  0  0  0  0  0  0  0  0
  152.8872  139.7931  158.5362 N   0  0  0  0  0  0  0  0  0  0  0  0
  152.5413  138.6983  157.6165 C   0  0  0  0  0  0  0  0  0  0  0  0
  153.8347  137.8500  157.5066 C   0  0  0  0  0  0  0  0  0  0  0  0
  153.8171  136.8439  156.7626 O   0  0  0  0  0  0  0  0  0  0  0  0
  154.8166  138.1909  158.2042 O   0  5  0  0  0  0  0  0  0  0  0  0
  151.3265  137.8234  158.0637 C   0  0  0  0  0  0  0  0  0  0  0  0
  150.8946  136.7942  157.0004 C   0  0  0  0  0  0  0  0  0  0  0  0
  150.5683  137.4794  155.6658 C   0  0  0  0  0  0  0  0  0  0  0  0
  151.7456  138.3363  155.1786 C   0  0  0  0  0  0  0  0  0  0  0  0
  152.1811  139.3533  156.2520 C   0  0  0  0  0  0  0  0  0  0  0  0
  152.7096  141.4627  161.0298 H   0  0  0  0  0  0  0  0  0  0  0  0
  153.9797  141.6959  159.8456 H   0  0  0  0  0  0  0  0  0  0  0  0
  151.9314  143.7173  161.8728 H   0  0  0  0  0  0  0  0  0  0  0  0
  151.4008  146.1267  160.7052 H   0  0  0  0  0  0  0  0  0  0  0  0
  152.0686  145.6923  158.0508 H   0  0  0  0  0  0  0  0  0  0  0  0
  153.8383  139.7392  158.8714 H   0  0  0  0  0  0  0  0  0  0  0  0
  151.5331  137.3086  159.0032 H   0  0  0  0  0  0  0  0  0  0  0  0
  150.4672  138.4667  158.2560 H   0  0  0  0  0  0  0  0  0  0  0  0
  151.6786  136.0511  156.8511 H   0  0  0  0  0  0  0  0  0  0  0  0
  150.0215  136.2458  157.3544 H   0  0  0  0  0  0  0  0  0  0  0  0
  150.3159  136.7308  154.9143 H   0  0  0  0  0  0  0  0  0  0  0  0
  149.6853  138.1083  155.7856 H   0  0  0  0  0  0  0  0  0  0  0  0
  152.5829  137.6914  154.9099 H   0  0  0  0  0  0  0  0  0  0  0  0
  151.4637  138.8629  154.2665 H   0  0  0  0  0  0  0  0  0  0  0  0
  151.3667  140.0631  156.4049 H   0  0  0  0  0  0  0  0  0  0  0  0
  153.0114  139.9500  155.8711 H   0  0  0  0  0  0  0  0  0  0  0  0
  1  2  2  0  0  0  0
  2  3  1  0  0  0  0
  2  9  1  0  0  0  0
  3  4  1  0  0  0  0
  3 19  1  0  0  0  0
  3 20  1  0  0  0  0
  4  8  1  0  0  0  0
  4  5  1  0  0  0  0
  5  6  2  0  0  0  0
  5 21  1  0  0  0  0
  6  7  1  0  0  0  0
  6 22  1  0  0  0  0
  7  8  2  0  0  0  0
  7 23  1  0  0  0  0
  9 10  1  0  0  0  0
  9 24  1  0  0  0  0
 10 18  1  0  0  0  0
 10 11  1  0  0  0  0
 10 14  1  0  0  0  0
 11 12  2  0  0  0  0
 11 13  1  0  0  0  0
 14 15  1  0  0  0  0
 14 25  1  0  0  0  0
 14 26  1  0  0  0  0
 15 16  1  0  0  0  0
 15 27  1  0  0  0  0
 15 28  1  0  0  0  0
 16 17  1  0  0  0  0
 16 29  1  0  0  0  0
 16 30  1  0  0  0  0
 17 18  1  0  0  0  0
 17 31  1  0  0  0  0
 17 32  1  0  0  0  0
 18 33  1  0  0  0  0
 18 34  1  0  0  0  0
M  CHG  1  13  -1
M  END
> <s_m_source_file>
AV-unprocessed.smi

> <i_m_source_file_index>
2835

> <i_lp_mmshare_version>
43012

> <i_f3d_flags>
0

> <s_epik_input>
bjFbY0hdW2NIXVtjSF1uMVtDSDJdQyg9TylbTkhdQzIoQyg9TylbT0hdKVtDSDJdW0NIMl1bQ0gyXVtDSDJdW0NIMl0y

> <s_epik_cmdline>
J2VwaWtfcHl0aG9uJywgJy1waCcsICc3LjAnLCAnLXRuJywgJzgnLCAnLW1hJywgJzIwMCcsICctbWV0YWxfYmluZGluZycsICctaW1hZScsICc8aW5maWxlLm1hZT4nLCAnLW9tYWUnLCAnPG91dGZpbGUubWFlPic=

> <r_lp_tautomer_probability>
1

> <r_epik_Ionization_Penalty>
0.000342313

> <r_epik_Ionization_Penalty_Charging>
0.000323848

> <r_epik_Ionization_Penalty_Neutral>
1.84652e-05

> <r_epik_State_Penalty>
0.000195685

> <r_epik_Charging_Adjusted_Penalty>
0.000519533

> <i_epik_Tot_Q>
-1

> <i_epik_Tot_abs_Q>
1

> <r_epik_Metal_State_Penalty>
-0

> <b_epik_Metal_Only>
0

> <s_lp_Force_Field>
OPLS_2005

> <r_lp_Energy>
5.56985

> <b_lp_Chiralities_Consistent>
1

> <s_lp_Variant>
AV-unprocessed.smi:2835-1

> <Gold.Version>
5.8.1

> <Gold.Id.Protein>
6NUR|6NUR_protein|mol2

> <Gold.PLP.Fitness>
44.8190

> <Gold.PLP.PLP>
-35.1287

> <Gold.PLP.part.hbond>
-2.0000

> <Gold.PLP.part.metal>
0.0000

> <Gold.PLP.part.buried>
-5.2661

> <Gold.PLP.part.nonpolar>
-28.0544

> <Gold.PLP.part.repulsive>
0.1043

> <Gold.PLP.ligand.clash>
0.0000

> <Gold.PLP.ligand.torsion>
0.4114

> <Gold.PLP.Chemscore.Hbond>
3.4880

> <Gold.PLP.Chemscore.CHOScore>
0.0000

> <Gold.PLP.Chemscore.Metal>
0.0000

> <Gold.Chemscore.Hbonds>
donor molecule, donor type, donor heavy atom, donor atom, acceptor molecule, acceptor atom, score
      P1  H  7997  8010       L1    13  1.69
      P1  H 10752 10765       L1    12  1.66

> <Gold.PLP.Chemscore.Internal.Correction>
0.0492

> <Gold.Rescore>
     Score         DG    S(hbond)    S(metal)    S(lipo)     H(rot)  DE(clash)    DE(int)     intcor
     11.52     -14.21       1.57        0.00      74.23       2.03       0.04       2.65       ----

> <Gold.Chemscore.Fitness>
11.5194

> <Gold.Chemscore.DG>
-14.2057

> <Gold.Chemscore.ZeroCoef>
-5.4800

> <Gold.Chemscore.Hbond>
1.5712

> <Gold.Chemscore.Metal>
0.0000

> <Gold.Chemscore.Lipo>
74.2251

> <Gold.Chemscore.Internal_Hbond>
0.0000

> <Gold.Chemscore.DEClash>
0.0361

> <Gold.Chemscore.DEInternal>
2.6502

> <Gold.Chemscore.Rot>
2.0338

> <Gold.Chemscore.Internal.Correction>
   9.000000E+99

> <Gold.Chemscore.Hbonds>
donor molecule, donor type, donor heavy atom, donor atom, acceptor molecule, acceptor atom, score
      P1  H  7997  8010       L1    13  0.17
      P1  H 10752 10765       L1    12  0.77

> <Gold.Chemscore.Hbond.Weighted>
-5.2479

> <Gold.Chemscore.Metal.Weighted>
-0.0000

> <Gold.Chemscore.Lipo.Weighted>
-8.6843

> <Gold.Chemscore.Internal_Hbond.Weighted>
0.0000

> <Gold.Chemscore.DEClash.Weighted>
0.0361

> <Gold.Chemscore.DEInternal.Weighted>
2.6502

> <Gold.Chemscore.Rot.Weighted>
5.2066

> <Gold.Chemscore.Internal.Correction.Weighted>
   9.000000E+99

> <Gold.Protein.RotatedTorsions>
[ 6907 6896 6895 6894 ] final  105.58 input  -60.11 | X-H torsion
[ 7974 7965 7964 7962 ] final  136.75 input  175.53 | X-H torsion
[ 8008 7997 7996 7995 ] final   -7.73 input   59.86 | X-H torsion
[ 10167 10162 10161 10158 ] final  -79.20 input  -65.29 | X-H torsion
[ 10718 10713 10712 10709 ] final  115.91 input   66.30 | X-H torsion
[ 10763 10752 10751 10750 ] final -113.03 input  -60.55 | X-H torsion
[ 11005 11000 10999 10996 ] final  101.55 input  -57.11 | X-H torsion

> <Gold.Protein.ActiveResidues>
 VAL166  LYS551  ARG553  GLY616  TRP617  ASP618  TYR619  PRO620  LYS621  CYS622 
 ASP623  PHE694  ASN695  SER759  ASP760  ASP761  ALA762  ILE779  LEU786  VAL792 
 PHE793  MET794  SER795  GLU796  ALA797  LYS798  CYS799  TRP800  GLU811  SER814 

> <Gold.Protein.RotatedAtoms>
  152.5225  133.9507  159.7670 H   0  0  0  0  0  0  0  0  0  0  0  0  # atno 6907 bound_to 6896
  150.9818  133.6230  159.2728 H   0  0  0  0  0  0  0  0  0  0  0  0  # atno 6908 bound_to 6896
  151.3405  135.0868  159.9422 H   0  0  0  0  0  0  0  0  0  0  0  0  # atno 6909 bound_to 6896
  144.9534  139.4792  143.5515 H   0  0  0  0  0  0  0  0  0  0  0  0  # atno 7974 bound_to 7965
  154.5810  140.2399  155.8054 H   0  0  0  0  0  0  0  0  0  0  0  0  # atno 8008 bound_to 7997
  156.2179  140.3006  155.9838 H   0  0  0  0  0  0  0  0  0  0  0  0  # atno 8009 bound_to 7997
  155.2542  140.0412  157.2980 H   0  0  0  0  0  0  0  0  0  0  0  0  # atno 8010 bound_to 7997
  140.4614  143.2452  151.8343 H   0  0  0  0  0  0  0  0  0  0  0  0  # atno 10167 bound_to 10162
  157.6193  131.1018  150.7397 H   0  0  0  0  0  0  0  0  0  0  0  0  # atno 10718 bound_to 10713
  154.8377  135.4469  154.1286 H   0  0  0  0  0  0  0  0  0  0  0  0  # atno 10763 bound_to 10752
  153.2502  135.6926  153.7693 H   0  0  0  0  0  0  0  0  0  0  0  0  # atno 10764 bound_to 10752
  153.7008  135.3372  155.3200 H   0  0  0  0  0  0  0  0  0  0  0  0  # atno 10765 bound_to 10752
  139.8774  134.9188  156.4924 H   0  0  0  0  0  0  0  0  0  0  0  0  # atno 11005 bound_to 11000
  146.3329  139.8635  142.8852 LP  0  0  0  0  0  0  0  0  0  0  0  0  # atno 17320 bound_to 7965
  145.2809  141.0138  143.3718 LP  0  0  0  0  0  0  0  0  0  0  0  0  # atno 17321 bound_to 7965
  139.4807  144.5003  151.9069 LP  0  0  0  0  0  0  0  0  0  0  0  0  # atno 17342 bound_to 10162
  140.4089  144.2395  150.5889 LP  0  0  0  0  0  0  0  0  0  0  0  0  # atno 17343 bound_to 10162
  156.7757  130.4843  149.5410 LP  0  0  0  0  0  0  0  0  0  0  0  0  # atno 17370 bound_to 10713
  156.1331  130.6192  151.0361 LP  0  0  0  0  0  0  0  0  0  0  0  0  # atno 17371 bound_to 10713
  140.8649  133.8032  155.9303 LP  0  0  0  0  0  0  0  0  0  0  0  0  # atno 17394 bound_to 11000
  140.9012  134.2376  157.5040 LP  0  0  0  0  0  0  0  0  0  0  0  0  # atno 17395 bound_to 11000

$$$$
