AV-unprocessed.smi:3260|AV-procd|sdf|12476|dock1
  -GOLD-   2272018373D 1   1.00000     0.00000
 Structure written by MMmdl.
 38 39  0  0  0  0  0  0  0  0  1 V2000
  144.4275  145.4735  153.3267 C   0  0  0  0  0  0  0  0  0  0  0  0
  144.9630  144.2843  153.9538 N   0  0  0  0  0  0  0  0  0  0  0  0
  145.8483  143.3643  153.4362 C   0  0  0  0  0  0  0  0  0  0  0  0
  146.0503  142.4067  154.3901 C   0  0  0  0  0  0  0  0  0  0  0  0
  146.9118  141.1726  154.3098 C   0  0  0  0  0  0  0  0  0  0  0  0
  148.3768  141.4777  153.9280 C   0  0  0  0  0  0  0  0  0  0  0  0
  149.1103  142.1986  154.9654 N   0  0  0  0  0  0  0  0  0  0  0  0
  150.1778  141.7316  155.6267 C   0  0  0  0  0  0  0  0  0  0  0  0
  150.7184  140.6507  155.3929 O   0  0  0  0  0  0  0  0  0  0  0  0
  150.5538  142.5640  156.6066 N   0  0  0  0  0  0  0  0  0  0  0  0
  151.5713  142.2642  157.6072 C   0  0  0  0  0  0  0  0  0  0  0  0
  151.9615  143.5190  158.4087 C   0  0  2  0  0  0  0  0  0  0  0  0
  152.1235  143.2915  159.9108 C   0  0  0  0  0  0  0  0  0  0  0  0
  151.9664  144.6973  160.4423 C   0  0  0  0  0  0  0  0  0  0  0  0
  150.8924  145.2726  159.5195 C   0  0  0  0  0  0  0  0  0  0  0  0
  150.9478  144.5131  158.3129 O   0  0  0  0  0  0  0  0  0  0  0  0
  145.2381  142.8444  155.4746 C   0  0  0  0  0  0  0  0  0  0  0  0
  144.5867  143.9655  155.2094 N   0  0  0  0  0  0  0  0  0  0  0  0
  144.9511  145.6698  152.3908 H   0  0  0  0  0  0  0  0  0  0  0  0
  144.5517  146.3312  153.9885 H   0  0  0  0  0  0  0  0  0  0  0  0
  143.3669  145.3320  153.1169 H   0  0  0  0  0  0  0  0  0  0  0  0
  146.2489  143.4578  152.4374 H   0  0  0  0  0  0  0  0  0  0  0  0
  146.9000  140.6470  155.2652 H   0  0  0  0  0  0  0  0  0  0  0  0
  146.5008  140.4634  153.5908 H   0  0  0  0  0  0  0  0  0  0  0  0
  148.9031  140.5601  153.6615 H   0  0  0  0  0  0  0  0  0  0  0  0
  148.3887  142.1095  153.0393 H   0  0  0  0  0  0  0  0  0  0  0  0
  148.7407  143.0973  155.2386 H   0  0  0  0  0  0  0  0  0  0  0  0
  150.0495  143.4316  156.7156 H   0  0  0  0  0  0  0  0  0  0  0  0
  151.2204  141.4787  158.2782 H   0  0  0  0  0  0  0  0  0  0  0  0
  152.4456  141.8647  157.0929 H   0  0  0  0  0  0  0  0  0  0  0  0
  152.8825  143.9488  158.0107 H   0  0  0  0  0  0  0  0  0  0  0  0
  151.3245  142.6545  160.2925 H   0  0  0  0  0  0  0  0  0  0  0  0
  153.0790  142.8382  160.1735 H   0  0  0  0  0  0  0  0  0  0  0  0
  151.6877  144.7297  161.4959 H   0  0  0  0  0  0  0  0  0  0  0  0
  152.9009  145.2466  160.3190 H   0  0  0  0  0  0  0  0  0  0  0  0
  149.9016  145.1518  159.9589 H   0  0  0  0  0  0  0  0  0  0  0  0
  151.0484  146.3339  159.3247 H   0  0  0  0  0  0  0  0  0  0  0  0
  145.0975  142.3776  156.4384 H   0  0  0  0  0  0  0  0  0  0  0  0
  1  2  1  0  0  0  0
  1 19  1  0  0  0  0
  1 20  1  0  0  0  0
  1 21  1  0  0  0  0
  2 18  1  0  0  0  0
  2  3  1  0  0  0  0
  3  4  2  0  0  0  0
  3 22  1  0  0  0  0
  4  5  1  0  0  0  0
  4 17  1  0  0  0  0
  5  6  1  0  0  0  0
  5 23  1  0  0  0  0
  5 24  1  0  0  0  0
  6  7  1  0  0  0  0
  6 25  1  0  0  0  0
  6 26  1  0  0  0  0
  7  8  1  0  0  0  0
  7 27  1  0  0  0  0
  8  9  2  0  0  0  0
  8 10  1  0  0  0  0
 10 11  1  0  0  0  0
 10 28  1  0  0  0  0
 11 12  1  0  0  0  0
 11 29  1  0  0  0  0
 11 30  1  0  0  0  0
 12 16  1  0  0  0  0
 12 13  1  0  0  0  0
 12 31  1  0  0  0  0
 13 14  1  0  0  0  0
 13 32  1  0  0  0  0
 13 33  1  0  0  0  0
 14 15  1  0  0  0  0
 14 34  1  0  0  0  0
 14 35  1  0  0  0  0
 15 16  1  0  0  0  0
 15 36  1  0  0  0  0
 15 37  1  0  0  0  0
 17 18  2  0  0  0  0
 17 38  1  0  0  0  0
M  END
> <s_m_source_file>
AV-unprocessed.smi

> <i_m_source_file_index>
3260

> <i_lp_mmshare_version>
43012

> <i_f3d_flags>
0

> <s_epik_input>
W0NIM11uMVtjSF1jKFtjSF1uMSlbQ0gyXVtDSDJdW05IXUMoPU8pW05IXVtDSDJdW0NAQEhdMltDSDJdW0NIMl1bQ0gyXU8y

> <s_epik_cmdline>
J2VwaWtfcHl0aG9uJywgJy1waCcsICc3LjAnLCAnLXRuJywgJzgnLCAnLW1hJywgJzIwMCcsICctbWV0YWxfYmluZGluZycsICctaW1hZScsICc8aW5maWxlLm1hZT4nLCAnLW9tYWUnLCAnPG91dGZpbGUubWFlPic=

> <r_lp_tautomer_probability>
1

> <r_epik_Ionization_Penalty>
0.000550106

> <r_epik_Ionization_Penalty_Charging>
0

> <r_epik_Ionization_Penalty_Neutral>
0.000550106

> <r_epik_State_Penalty>
-0

> <r_epik_Charging_Adjusted_Penalty>
0

> <i_epik_Tot_Q>
0

> <i_epik_Tot_abs_Q>
0

> <r_epik_Metal_State_Penalty>
-0

> <b_epik_Metal_Only>
0

> <s_lp_Force_Field>
OPLS_2005

> <r_lp_Energy>
10.4749

> <b_lp_Chiralities_Consistent>
1

> <s_lp_Variant>
AV-unprocessed.smi:3260-1

> <Gold.Version>
5.8.1

> <Gold.Id.Protein>
6NUR|6NUR_protein|mol2

> <Gold.PLP.Fitness>
49.5978

> <Gold.PLP.PLP>
-42.8750

> <Gold.PLP.part.hbond>
-3.0000

> <Gold.PLP.part.metal>
0.0000

> <Gold.PLP.part.buried>
-6.8896

> <Gold.PLP.part.nonpolar>
-32.0269

> <Gold.PLP.part.repulsive>
0.6633

> <Gold.PLP.ligand.clash>
0.0000

> <Gold.PLP.ligand.torsion>
0.6923

> <Gold.PLP.Chemscore.Hbond>
2.6896

> <Gold.PLP.Chemscore.CHOScore>
0.0000

> <Gold.PLP.Chemscore.Metal>
0.0000

> <Gold.Chemscore.Hbonds>
donor molecule, donor type, donor heavy atom, donor atom, acceptor molecule, acceptor atom, score
      L1  H     7    27       P1  8028  1.00
      L1  H    10    28       P1  8028  0.83
      P1  H  7989  7998       L1     9  0.71

> <Gold.PLP.Chemscore.Internal.Correction>
0.0386

> <Gold.Rescore>
     Score         DG    S(hbond)    S(metal)    S(lipo)     H(rot)  DE(clash)    DE(int)     intcor
     18.49     -19.61       2.32        0.00      94.98       1.85       0.51       0.61       ----

> <Gold.Chemscore.Fitness>
18.4892

> <Gold.Chemscore.DG>
-19.6131

> <Gold.Chemscore.ZeroCoef>
-5.4800

> <Gold.Chemscore.Hbond>
2.3245

> <Gold.Chemscore.Metal>
0.0000

> <Gold.Chemscore.Lipo>
94.9794

> <Gold.Chemscore.Internal_Hbond>
0.0000

> <Gold.Chemscore.DEClash>
0.5117

> <Gold.Chemscore.DEInternal>
0.6123

> <Gold.Chemscore.Rot>
1.8528

> <Gold.Chemscore.Internal.Correction>
   9.000000E+99

> <Gold.Chemscore.Hbonds>
donor molecule, donor type, donor heavy atom, donor atom, acceptor molecule, acceptor atom, score
      L1  H     7    27       P1  8028  0.97
      L1  H    10    28       P1  8028  0.78
      P1  H  7989  7998       L1     9  0.35

> <Gold.Chemscore.Hbond.Weighted>
-7.7638

> <Gold.Chemscore.Metal.Weighted>
-0.0000

> <Gold.Chemscore.Lipo.Weighted>
-11.1126

> <Gold.Chemscore.Internal_Hbond.Weighted>
0.0000

> <Gold.Chemscore.DEClash.Weighted>
0.5117

> <Gold.Chemscore.DEInternal.Weighted>
0.6123

> <Gold.Chemscore.Rot.Weighted>
4.7433

> <Gold.Chemscore.Internal.Correction.Weighted>
   9.000000E+99

> <Gold.Protein.RotatedTorsions>
[ 6907 6896 6895 6894 ] final  177.77 input  -60.11 | X-H torsion
[ 7974 7965 7964 7962 ] final  114.93 input  175.53 | X-H torsion
[ 8008 7997 7996 7995 ] final -107.09 input   59.86 | X-H torsion
[ 10167 10162 10161 10158 ] final -175.45 input  -65.29 | X-H torsion
[ 10718 10713 10712 10709 ] final  -89.53 input   66.30 | X-H torsion
[ 10763 10752 10751 10750 ] final  -70.01 input  -60.55 | X-H torsion
[ 11005 11000 10999 10996 ] final   20.21 input  -57.11 | X-H torsion

> <Gold.Protein.ActiveResidues>
 VAL166  LYS551  ARG553  GLY616  TRP617  ASP618  TYR619  PRO620  LYS621  CYS622 
 ASP623  PHE694  ASN695  SER759  ASP760  ASP761  ALA762  ILE779  LEU786  VAL792 
 PHE793  MET794  SER795  GLU796  ALA797  LYS798  CYS799  TRP800  GLU811  SER814 

> <Gold.Protein.RotatedAtoms>
  151.6986  133.3311  159.3260 H   0  0  0  0  0  0  0  0  0  0  0  0  # atno 6907 bound_to 6896
  150.7746  134.6636  159.6362 H   0  0  0  0  0  0  0  0  0  0  0  0  # atno 6908 bound_to 6896
  152.3784  134.6632  160.0204 H   0  0  0  0  0  0  0  0  0  0  0  0  # atno 6909 bound_to 6896
  145.1983  139.2965  143.4332 H   0  0  0  0  0  0  0  0  0  0  0  0  # atno 7974 bound_to 7965
  154.9242  140.0406  157.2014 H   0  0  0  0  0  0  0  0  0  0  0  0  # atno 8008 bound_to 7997
  154.8224  140.2886  155.5756 H   0  0  0  0  0  0  0  0  0  0  0  0  # atno 8009 bound_to 7997
  156.2981  140.2516  156.3133 H   0  0  0  0  0  0  0  0  0  0  0  0  # atno 8010 bound_to 7997
  139.5580  144.1940  152.1192 H   0  0  0  0  0  0  0  0  0  0  0  0  # atno 10167 bound_to 10162
  155.9984  130.4876  150.5185 H   0  0  0  0  0  0  0  0  0  0  0  0  # atno 10718 bound_to 10713
  154.4116  135.6007  153.5956 H   0  0  0  0  0  0  0  0  0  0  0  0  # atno 10763 bound_to 10752
  152.9790  135.5930  154.4064 H   0  0  0  0  0  0  0  0  0  0  0  0  # atno 10764 bound_to 10752
  154.3876  135.2841  155.2152 H   0  0  0  0  0  0  0  0  0  0  0  0  # atno 10765 bound_to 10752
  140.4051  134.1677  155.7665 H   0  0  0  0  0  0  0  0  0  0  0  0  # atno 11005 bound_to 11000
  146.3423  140.2219  142.8591 LP  0  0  0  0  0  0  0  0  0  0  0  0  # atno 17320 bound_to 7965
  144.9973  140.8600  143.5303 LP  0  0  0  0  0  0  0  0  0  0  0  0  # atno 17321 bound_to 7965
  140.1448  144.5169  150.6722 LP  0  0  0  0  0  0  0  0  0  0  0  0  # atno 17342 bound_to 10162
  140.6856  143.2348  151.5268 LP  0  0  0  0  0  0  0  0  0  0  0  0  # atno 17343 bound_to 10162
  157.3150  131.0671  151.1974 LP  0  0  0  0  0  0  0  0  0  0  0  0  # atno 17370 bound_to 10713
  157.2907  130.6794  149.6112 LP  0  0  0  0  0  0  0  0  0  0  0  0  # atno 17371 bound_to 10713
  141.1842  133.8349  157.1148 LP  0  0  0  0  0  0  0  0  0  0  0  0  # atno 17394 bound_to 11000
  140.0308  134.9902  157.0776 LP  0  0  0  0  0  0  0  0  0  0  0  0  # atno 17395 bound_to 11000

$$$$
