AV-unprocessed.smi:273|AV-procd|sdf|2054|dock2
  -GOLD-   2262021293D 1   1.00000     0.00000
 Structure written by MMmdl.
 59 62  0  0  0  0  0  0  0  0  1 V2000
  147.2010  128.7676  152.0279 C   0  0  0  0  0  0  0  0  0  0  0  0
  148.5482  128.6014  152.7373 C   0  0  0  0  0  0  0  0  0  0  0  0
  149.0480  129.8901  153.1949 N   0  0  0  0  0  0  0  0  0  0  0  0
  149.5085  130.1341  154.4320 C   0  0  0  0  0  0  0  0  0  0  0  0
  149.5512  129.2654  155.3035 O   0  0  0  0  0  0  0  0  0  0  0  0
  150.0077  131.5550  154.7560 C   0  0  0  0  0  0  0  0  0  0  0  0
  150.3925  131.6813  156.2454 C   0  0  0  0  0  0  0  0  0  0  0  0
  150.9207  133.0880  156.5718 C   0  0  0  0  0  0  0  0  0  0  0  0
  149.9688  134.1171  156.1509 N   0  0  0  0  0  0  0  0  0  0  0  0
  150.1205  135.3677  156.6579 C   0  0  0  0  0  0  0  0  0  0  0  0
  149.8254  135.6098  157.9635 N   0  0  0  0  0  0  0  0  0  0  0  0
  149.9757  136.8349  158.4752 C   0  0  0  0  0  0  0  0  0  0  0  0
  150.3971  137.9458  157.8689 N   0  0  0  0  0  0  0  0  0  0  0  0
  150.6878  137.7137  156.5572 C   0  0  0  0  0  0  0  0  0  0  0  0
  150.5794  136.4673  155.8775 C   0  0  0  0  0  0  0  0  0  0  0  0
  150.9514  136.6231  154.5470 N   0  0  0  0  0  0  0  0  0  0  0  0
  151.2738  137.8837  154.4497 C   0  0  0  0  0  0  0  0  0  0  0  0
  151.1260  138.6178  155.6046 N   0  0  0  0  0  0  0  0  0  0  0  0
  151.4134  140.0315  155.7805 C   0  0  0  0  0  0  0  0  0  0  0  0
  150.1875  140.8894  156.1882 C   0  0  2  0  0  0  0  0  0  0  0  0
  149.7625  141.7763  154.9946 C   0  0  0  0  0  0  0  0  0  0  0  0
  149.5937  141.0175  153.8144 O   0  0  0  0  0  0  0  0  0  0  0  0
  150.3854  141.7149  157.4935 C   0  0  2  0  0  0  0  0  0  0  0  0
  151.2769  142.9419  157.3805 C   0  0  0  0  0  0  0  0  0  0  0  0
  151.6703  143.2129  158.8286 C   0  0  0  0  0  0  0  0  0  0  0  0
  151.6500  141.9508  159.4832 O   0  0  0  0  0  0  0  0  0  0  0  0
  151.1206  140.9619  158.6087 C   0  0  0  0  0  0  0  0  0  0  0  0
  149.5879  134.0627  154.7405 C   0  0  0  0  0  0  0  0  0  0  0  0
  149.0158  132.6823  154.3827 C   0  0  0  0  0  0  0  0  0  0  0  0
  146.8269  127.8058  151.6769 H   0  0  0  0  0  0  0  0  0  0  0  0
  147.2886  129.4257  151.1627 H   0  0  0  0  0  0  0  0  0  0  0  0
  146.4521  129.1910  152.6981 H   0  0  0  0  0  0  0  0  0  0  0  0
  148.4383  127.9261  153.5873 H   0  0  0  0  0  0  0  0  0  0  0  0
  149.2744  128.1522  152.0585 H   0  0  0  0  0  0  0  0  0  0  0  0
  149.0409  130.6498  152.5297 H   0  0  0  0  0  0  0  0  0  0  0  0
  150.9117  131.6987  154.1621 H   0  0  0  0  0  0  0  0  0  0  0  0
  149.5224  131.4709  156.8696 H   0  0  0  0  0  0  0  0  0  0  0  0
  151.1502  130.9435  156.5125 H   0  0  0  0  0  0  0  0  0  0  0  0
  151.1043  133.1611  157.6447 H   0  0  0  0  0  0  0  0  0  0  0  0
  151.8747  133.2531  156.0690 H   0  0  0  0  0  0  0  0  0  0  0  0
  149.7210  136.9397  159.5196 H   0  0  0  0  0  0  0  0  0  0  0  0
  151.6208  138.3172  153.5231 H   0  0  0  0  0  0  0  0  0  0  0  0
  152.2096  140.1428  156.5173 H   0  0  0  0  0  0  0  0  0  0  0  0
  151.8221  140.3912  154.8355 H   0  0  0  0  0  0  0  0  0  0  0  0
  149.3535  140.2077  156.3588 H   0  0  0  0  0  0  0  0  0  0  0  0
  148.8241  142.2859  155.2156 H   0  0  0  0  0  0  0  0  0  0  0  0
  150.4945  142.5615  154.8063 H   0  0  0  0  0  0  0  0  0  0  0  0
  148.7210  140.6543  153.8119 H   0  0  0  0  0  0  0  0  0  0  0  0
  149.4132  142.0310  157.8749 H   0  0  0  0  0  0  0  0  0  0  0  0
  152.1647  142.7163  156.7881 H   0  0  0  0  0  0  0  0  0  0  0  0
  150.7790  143.8034  156.9388 H   0  0  0  0  0  0  0  0  0  0  0  0
  152.6481  143.6878  158.9092 H   0  0  0  0  0  0  0  0  0  0  0  0
  150.9372  143.8627  159.3077 H   0  0  0  0  0  0  0  0  0  0  0  0
  150.4698  140.2758  159.1511 H   0  0  0  0  0  0  0  0  0  0  0  0
  151.9535  140.3870  158.2014 H   0  0  0  0  0  0  0  0  0  0  0  0
  148.8565  134.8295  154.4894 H   0  0  0  0  0  0  0  0  0  0  0  0
  150.4706  134.2665  154.1328 H   0  0  0  0  0  0  0  0  0  0  0  0
  148.7877  132.6554  153.3164 H   0  0  0  0  0  0  0  0  0  0  0  0
  148.0707  132.5442  154.9108 H   0  0  0  0  0  0  0  0  0  0  0  0
  1  2  1  0  0  0  0
  1 30  1  0  0  0  0
  1 31  1  0  0  0  0
  1 32  1  0  0  0  0
  2  3  1  0  0  0  0
  2 33  1  0  0  0  0
  2 34  1  0  0  0  0
  3  4  1  0  0  0  0
  3 35  1  0  0  0  0
  4  5  2  0  0  0  0
  4  6  1  0  0  0  0
  6 29  1  0  0  0  0
  6  7  1  0  0  0  0
  6 36  1  0  0  0  0
  7  8  1  0  0  0  0
  7 37  1  0  0  0  0
  7 38  1  0  0  0  0
  8  9  1  0  0  0  0
  8 39  1  0  0  0  0
  8 40  1  0  0  0  0
  9 10  1  0  0  0  0
  9 28  1  0  0  0  0
 10 15  1  0  0  0  0
 10 11  2  0  0  0  0
 11 12  1  0  0  0  0
 12 13  2  0  0  0  0
 12 41  1  0  0  0  0
 13 14  1  0  0  0  0
 14 18  1  0  0  0  0
 14 15  2  0  0  0  0
 15 16  1  0  0  0  0
 16 17  2  0  0  0  0
 17 18  1  0  0  0  0
 17 42  1  0  0  0  0
 18 19  1  0  0  0  0
 19 20  1  0  0  0  0
 19 43  1  0  0  0  0
 19 44  1  0  0  0  0
 20 21  1  0  0  0  0
 20 23  1  0  0  0  0
 20 45  1  0  0  0  0
 21 22  1  0  0  0  0
 21 46  1  0  0  0  0
 21 47  1  0  0  0  0
 22 48  1  0  0  0  0
 23 27  1  0  0  0  0
 23 24  1  0  0  0  0
 23 49  1  0  0  0  0
 24 25  1  0  0  0  0
 24 50  1  0  0  0  0
 24 51  1  0  0  0  0
 25 26  1  0  0  0  0
 25 52  1  0  0  0  0
 25 53  1  0  0  0  0
 26 27  1  0  0  0  0
 27 54  1  0  0  0  0
 27 55  1  0  0  0  0
 28 29  1  0  0  0  0
 28 56  1  0  0  0  0
 28 57  1  0  0  0  0
 29 58  1  0  0  0  0
 29 59  1  0  0  0  0
M  END
> <s_m_source_file>
AV-unprocessed.smi

> <i_m_source_file_index>
273

> <i_lp_mmshare_version>
43012

> <i_f3d_flags>
0

> <s_epik_input>
W0NIM11bQ0gyXVtOSF1DKD1PKVtDSF0xW0NIMl1bQ0gyXU4oW0NIMl1bQ0gyXTEpYyhuW2NIXW4yKWMoYzIzKW5bY0hdbjNbQ0gyXVtDQEhdKFtDSDJdW09IXSlbQ0BASF00W0NIMl1bQ0gyXU9bQ0gyXTQ=

> <s_epik_cmdline>
J2VwaWtfcHl0aG9uJywgJy1waCcsICc3LjAnLCAnLXRuJywgJzgnLCAnLW1hJywgJzIwMCcsICctbWV0YWxfYmluZGluZycsICctaW1hZScsICc8aW5maWxlLm1hZT4nLCAnLW9tYWUnLCAnPG91dGZpbGUubWFlPic=

> <r_lp_tautomer_probability>
1

> <r_epik_Ionization_Penalty>
0.00226556

> <r_epik_Ionization_Penalty_Charging>
0

> <r_epik_Ionization_Penalty_Neutral>
0.00226556

> <r_epik_State_Penalty>
0.00139883

> <r_epik_Charging_Adjusted_Penalty>
0.00139883

> <i_epik_Tot_Q>
0

> <i_epik_Tot_abs_Q>
0

> <r_epik_Metal_State_Penalty>
-0

> <b_epik_Metal_Only>
0

> <s_lp_Force_Field>
OPLS_2005

> <r_lp_Energy>
46.1121

> <b_lp_Chiralities_Consistent>
1

> <s_lp_Variant>
AV-unprocessed.smi:273-1

> <Gold.Version>
5.8.1

> <Gold.Id.Protein>
6NUR|6NUR_protein|mol2

> <Gold.PLP.Fitness>
52.5256

> <Gold.PLP.PLP>
-46.3997

> <Gold.PLP.part.hbond>
-5.3391

> <Gold.PLP.part.metal>
0.0000

> <Gold.PLP.part.buried>
-2.6639

> <Gold.PLP.part.nonpolar>
-38.0395

> <Gold.PLP.part.repulsive>
0.6755

> <Gold.PLP.ligand.clash>
0.0000

> <Gold.PLP.ligand.torsion>
1.5937

> <Gold.PLP.Chemscore.Hbond>
2.8410

> <Gold.PLP.Chemscore.CHOScore>
0.0000

> <Gold.PLP.Chemscore.Metal>
0.0000

> <Gold.Chemscore.Hbonds>
donor molecule, donor type, donor heavy atom, donor atom, acceptor molecule, acceptor atom, score
      L1  H     3    35       P1 10747  0.36
      P1  H  6896  6909       L1    11  0.79
      P1  H  7989  7998       L1    22  0.24
      P1  H  8011  8017       L1    22  0.91
      P1  H 10752 10763       L1    16  0.55

> <Gold.PLP.Chemscore.Internal.Correction>
0.7903

> <Gold.Rescore>
     Score         DG    S(hbond)    S(metal)    S(lipo)     H(rot)  DE(clash)    DE(int)     intcor
     10.35     -13.26       1.45        0.00      95.74       3.22       0.27       2.63       ----

> <Gold.Chemscore.Fitness>
10.3549

> <Gold.Chemscore.DG>
-13.2569

> <Gold.Chemscore.ZeroCoef>
-5.4800

> <Gold.Chemscore.Hbond>
1.4459

> <Gold.Chemscore.Metal>
0.0000

> <Gold.Chemscore.Lipo>
95.7434

> <Gold.Chemscore.Internal_Hbond>
0.0000

> <Gold.Chemscore.DEClash>
0.2706

> <Gold.Chemscore.DEInternal>
2.6314

> <Gold.Chemscore.Rot>
3.2244

> <Gold.Chemscore.Internal.Correction>
   9.000000E+99

> <Gold.Chemscore.Hbonds>
donor molecule, donor type, donor heavy atom, donor atom, acceptor molecule, acceptor atom, score
      L1  H     3    35       P1 10747  0.09
      P1  H  6896  6909       L1    11  0.14
      P1  H  7989  7998       L1    22  0.02
      P1  H  8011  8017       L1    22  0.26
      P1  H 10752 10763       L1    16  0.09

> <Gold.Chemscore.Hbond.Weighted>
-4.8294

> <Gold.Chemscore.Metal.Weighted>
-0.0000

> <Gold.Chemscore.Lipo.Weighted>
-11.2020

> <Gold.Chemscore.Internal_Hbond.Weighted>
0.0000

> <Gold.Chemscore.DEClash.Weighted>
0.2706

> <Gold.Chemscore.DEInternal.Weighted>
2.6314

> <Gold.Chemscore.Rot.Weighted>
8.2545

> <Gold.Chemscore.Internal.Correction.Weighted>
   9.000000E+99

> <Gold.Protein.RotatedTorsions>
[ 6907 6896 6895 6894 ] final   47.77 input  -60.11 | X-H torsion
[ 7974 7965 7964 7962 ] final  112.81 input  175.53 | X-H torsion
[ 8008 7997 7996 7995 ] final  124.69 input   59.86 | X-H torsion
[ 10167 10162 10161 10158 ] final   31.09 input  -65.29 | X-H torsion
[ 10718 10713 10712 10709 ] final  -69.51 input   66.30 | X-H torsion
[ 10763 10752 10751 10750 ] final   47.12 input  -60.55 | X-H torsion
[ 11005 11000 10999 10996 ] final  161.99 input  -57.11 | X-H torsion

> <Gold.Protein.ActiveResidues>
 VAL166  LYS551  ARG553  GLY616  TRP617  ASP618  TYR619  PRO620  LYS621  CYS622 
 ASP623  PHE694  ASN695  SER759  ASP760  ASP761  ALA762  ILE779  LEU786  VAL792 
 PHE793  MET794  SER795  GLU796  ALA797  LYS798  CYS799  TRP800  GLU811  SER814 

> <Gold.Protein.RotatedAtoms>
  152.2719  134.7924  160.0412 H   0  0  0  0  0  0  0  0  0  0  0  0  # atno 6907 bound_to 6896
  151.8534  133.3438  159.3688 H   0  0  0  0  0  0  0  0  0  0  0  0  # atno 6908 bound_to 6896
  150.7155  134.5205  159.5695 H   0  0  0  0  0  0  0  0  0  0  0  0  # atno 6909 bound_to 6896
  145.2249  139.2845  143.4199 H   0  0  0  0  0  0  0  0  0  0  0  0  # atno 7974 bound_to 7965
  156.2810  140.2733  156.1830 H   0  0  0  0  0  0  0  0  0  0  0  0  # atno 8008 bound_to 7997
  155.0537  140.0386  157.2570 H   0  0  0  0  0  0  0  0  0  0  0  0  # atno 8009 bound_to 7997
  154.7174  140.2681  155.6578 H   0  0  0  0  0  0  0  0  0  0  0  0  # atno 8010 bound_to 7997
  140.4619  144.0893  150.6215 H   0  0  0  0  0  0  0  0  0  0  0  0  # atno 10167 bound_to 10162
  156.0452  130.4314  150.2158 H   0  0  0  0  0  0  0  0  0  0  0  0  # atno 10718 bound_to 10713
  152.9803  135.5986  154.3711 H   0  0  0  0  0  0  0  0  0  0  0  0  # atno 10763 bound_to 10752
  154.3384  135.2768  155.2437 H   0  0  0  0  0  0  0  0  0  0  0  0  # atno 10764 bound_to 10752
  154.4530  135.5985  153.6259 H   0  0  0  0  0  0  0  0  0  0  0  0  # atno 10765 bound_to 10752
  140.2213  134.8194  157.3223 H   0  0  0  0  0  0  0  0  0  0  0  0  # atno 11005 bound_to 11000
  146.3367  140.2566  142.8600 LP  0  0  0  0  0  0  0  0  0  0  0  0  # atno 17320 bound_to 7965
  144.9731  140.8388  143.5443 LP  0  0  0  0  0  0  0  0  0  0  0  0  # atno 17321 bound_to 7965
  140.4082  143.2669  151.9865 LP  0  0  0  0  0  0  0  0  0  0  0  0  # atno 17342 bound_to 10162
  139.4807  144.5938  151.7725 LP  0  0  0  0  0  0  0  0  0  0  0  0  # atno 17343 bound_to 10162
  157.0249  130.9990  151.3329 LP  0  0  0  0  0  0  0  0  0  0  0  0  # atno 17370 bound_to 10713
  157.5318  130.8063  149.7926 LP  0  0  0  0  0  0  0  0  0  0  0  0  # atno 17371 bound_to 10713
  140.1847  134.4446  155.7751 LP  0  0  0  0  0  0  0  0  0  0  0  0  # atno 17394 bound_to 11000
  141.2223  133.6999  156.7927 LP  0  0  0  0  0  0  0  0  0  0  0  0  # atno 17395 bound_to 11000

$$$$
