AV-unprocessed.smi:910|AV-procd|sdf|4124|dock4
  -GOLD-   22720 2 23D 1   1.00000     0.00000
 Structure written by MMmdl.
 46 47  0  0  0  0  0  0  0  0  1 V2000
  146.4919  133.7920  162.3890 C   0  0  0  0  0  0  0  0  0  0  0  0
  146.6446  135.1801  161.8071 C   0  0  0  0  0  0  0  0  0  0  0  0
  147.7079  135.5240  161.0191 N   0  0  0  0  0  0  0  0  0  0  0  0
  147.5602  136.8574  160.6442 C   0  0  0  0  0  0  0  0  0  0  0  0
  148.2758  137.6543  159.9110 N   0  0  0  0  0  0  0  0  0  0  0  0
  149.4596  137.2004  159.3471 C   0  0  0  0  0  0  0  0  0  0  0  0
  149.6960  136.0976  158.8436 O   0  0  0  0  0  0  0  0  0  0  0  0
  150.3903  138.1652  159.3922 N   0  0  0  0  0  0  0  0  0  0  0  0
  151.7495  138.0609  158.8706 C   0  0  0  0  0  0  0  0  0  0  0  0
  152.5005  139.3968  158.9652 C   0  0  0  0  0  0  0  0  0  0  0  0
  151.5792  140.4561  158.7520 O   0  0  0  0  0  0  0  0  0  0  0  0
  152.1552  141.7554  158.7852 C   0  0  2  0  0  0  0  0  0  0  0  0
  152.6127  142.0786  160.2230 C   0  0  0  0  0  0  0  0  0  0  0  0
  153.1128  143.5254  160.3452 C   0  0  0  0  0  0  0  0  0  0  0  0
  152.0429  144.5199  159.8734 C   0  0  0  0  0  0  0  0  0  0  0  0
  151.5936  144.2066  158.4380 C   0  0  0  0  0  0  0  0  0  0  0  0
  151.0837  142.7578  158.3009 C   0  0  1  0  0  0  0  0  0  0  0  0
  150.6477  142.4694  156.8544 C   0  0  0  0  0  0  0  0  0  0  0  0
  146.3941  137.2901  161.2241 O   0  0  0  0  0  0  0  0  0  0  0  0
  145.8623  136.2497  161.9247 C   0  0  0  0  0  0  0  0  0  0  0  0
  144.5625  136.4614  162.6675 C   0  0  0  0  0  0  0  0  0  0  0  0
  145.5687  133.3340  162.0336 H   0  0  0  0  0  0  0  0  0  0  0  0
  146.4552  133.8412  163.4773 H   0  0  0  0  0  0  0  0  0  0  0  0
  147.3264  133.1519  162.1008 H   0  0  0  0  0  0  0  0  0  0  0  0
  148.4529  134.8868  160.7766 H   0  0  0  0  0  0  0  0  0  0  0  0
  150.1317  139.0480  159.8085 H   0  0  0  0  0  0  0  0  0  0  0  0
  152.2791  137.2972  159.4407 H   0  0  0  0  0  0  0  0  0  0  0  0
  151.7245  137.7141  157.8365 H   0  0  0  0  0  0  0  0  0  0  0  0
  152.9613  139.4882  159.9486 H   0  0  0  0  0  0  0  0  0  0  0  0
  153.3026  139.4326  158.2266 H   0  0  0  0  0  0  0  0  0  0  0  0
  153.0088  141.8117  158.1068 H   0  0  0  0  0  0  0  0  0  0  0  0
  151.7823  141.9235  160.9132 H   0  0  0  0  0  0  0  0  0  0  0  0
  153.4038  141.3973  160.5352 H   0  0  0  0  0  0  0  0  0  0  0  0
  153.3882  143.7374  161.3787 H   0  0  0  0  0  0  0  0  0  0  0  0
  154.0188  143.6512  159.7509 H   0  0  0  0  0  0  0  0  0  0  0  0
  151.1832  144.4792  160.5434 H   0  0  0  0  0  0  0  0  0  0  0  0
  152.4307  145.5375  159.9284 H   0  0  0  0  0  0  0  0  0  0  0  0
  150.8122  144.9067  158.1407 H   0  0  0  0  0  0  0  0  0  0  0  0
  152.4283  144.3695  157.7548 H   0  0  0  0  0  0  0  0  0  0  0  0
  150.2055  142.6501  158.9396 H   0  0  0  0  0  0  0  0  0  0  0  0
  151.4851  142.5610  156.1621 H   0  0  0  0  0  0  0  0  0  0  0  0
  149.8723  143.1652  156.5334 H   0  0  0  0  0  0  0  0  0  0  0  0
  150.2429  141.4620  156.7526 H   0  0  0  0  0  0  0  0  0  0  0  0
  144.5896  135.9584  163.6343 H   0  0  0  0  0  0  0  0  0  0  0  0
  143.7291  136.0602  162.0907 H   0  0  0  0  0  0  0  0  0  0  0  0
  144.3876  137.5240  162.8369 H   0  0  0  0  0  0  0  0  0  0  0  0
  1 22  1  0  0  0  0
  1 23  1  0  0  0  0
  1 24  1  0  0  0  0
  1  2  1  0  0  0  0
  2  3  1  0  0  0  0
  2 20  2  0  0  0  0
  3 25  1  0  0  0  0
  3  4  1  0  0  0  0
  4 19  1  0  0  0  0
  4  5  2  0  0  0  0
  5  6  1  0  0  0  0
  6  8  1  0  0  0  0
  6  7  2  0  0  0  0
  8  9  1  0  0  0  0
  8 26  1  0  0  0  0
  9 10  1  0  0  0  0
  9 27  1  0  0  0  0
  9 28  1  0  0  0  0
 10 11  1  0  0  0  0
 10 29  1  0  0  0  0
 10 30  1  0  0  0  0
 11 12  1  0  0  0  0
 12 17  1  0  0  0  0
 12 13  1  0  0  0  0
 12 31  1  0  0  0  0
 13 14  1  0  0  0  0
 13 32  1  0  0  0  0
 13 33  1  0  0  0  0
 14 15  1  0  0  0  0
 14 34  1  0  0  0  0
 14 35  1  0  0  0  0
 15 16  1  0  0  0  0
 15 36  1  0  0  0  0
 15 37  1  0  0  0  0
 16 17  1  0  0  0  0
 16 38  1  0  0  0  0
 16 39  1  0  0  0  0
 17 18  1  0  0  0  0
 17 40  1  0  0  0  0
 18 41  1  0  0  0  0
 18 42  1  0  0  0  0
 18 43  1  0  0  0  0
 19 20  1  0  0  0  0
 20 21  1  0  0  0  0
 21 44  1  0  0  0  0
 21 45  1  0  0  0  0
 21 46  1  0  0  0  0
M  END
> <s_m_source_file>
AV-unprocessed.smi

> <i_m_source_file_index>
910

> <i_lp_mmshare_version>
43012

> <i_f3d_flags>
0

> <s_epik_input>
W0NIM11jMW5jKG9jMVtDSDNdKVtOSF1DKD1PKVtOSF1bQ0gyXVtDSDJdT1tDQEBIXTJbQ0gyXVtDSDJdW0NIMl1bQ0gyXVtDQEhdMltDSDNd

> <s_epik_cmdline>
J2VwaWtfcHl0aG9uJywgJy1waCcsICc3LjAnLCAnLXRuJywgJzgnLCAnLW1hJywgJzIwMCcsICctbWV0YWxfYmluZGluZycsICctaW1hZScsICc8aW5maWxlLm1hZT4nLCAnLW9tYWUnLCAnPG91dGZpbGUubWFlPic=

> <r_lp_tautomer_probability>
0.107061

> <r_epik_Ionization_Penalty>
0.727192

> <r_epik_Ionization_Penalty_Charging>
0.726719

> <r_epik_Ionization_Penalty_Neutral>
0.000473387

> <r_epik_State_Penalty>
2.53712

> <r_epik_Charging_Adjusted_Penalty>
3.26383

> <i_epik_Tot_Q>
0

> <i_epik_Tot_abs_Q>
0

> <r_epik_Metal_State_Penalty>
3.71015

> <b_epik_Metal_Only>
0

> <s_lp_Force_Field>
OPLS_2005

> <r_lp_Energy>
31.238

> <b_lp_Chiralities_Consistent>
1

> <s_lp_Variant>
AV-unprocessed.smi:910-9

> <Gold.Version>
5.8.1

> <Gold.Id.Protein>
6NUR|6NUR_protein|mol2

> <Gold.PLP.Fitness>
47.3922

> <Gold.PLP.PLP>
-43.7113

> <Gold.PLP.part.hbond>
-4.0000

> <Gold.PLP.part.metal>
0.0000

> <Gold.PLP.part.buried>
-5.9072

> <Gold.PLP.part.nonpolar>
-35.0349

> <Gold.PLP.part.repulsive>
0.3342

> <Gold.PLP.ligand.clash>
0.0000

> <Gold.PLP.ligand.torsion>
0.5015

> <Gold.PLP.Chemscore.Hbond>
1.5500

> <Gold.PLP.Chemscore.CHOScore>
0.0000

> <Gold.PLP.Chemscore.Metal>
0.0000

> <Gold.Chemscore.Hbonds>
donor molecule, donor type, donor heavy atom, donor atom, acceptor molecule, acceptor atom, score
      P1  H  6896  6908       L1     7  1.00
      P1  H  6931  6943       L1     5  0.02
      P1  H  6934  6947       L1    19  0.20

> <Gold.PLP.Chemscore.Internal.Correction>
0.0339

> <Gold.Rescore>
     Score         DG    S(hbond)    S(metal)    S(lipo)     H(rot)  DE(clash)    DE(int)     intcor
     16.58     -17.94       1.02        0.00     113.59       1.66       0.12       1.24       ----

> <Gold.Chemscore.Fitness>
16.5810

> <Gold.Chemscore.DG>
-17.9428

> <Gold.Chemscore.ZeroCoef>
-5.4800

> <Gold.Chemscore.Hbond>
1.0227

> <Gold.Chemscore.Metal>
0.0000

> <Gold.Chemscore.Lipo>
113.5927

> <Gold.Chemscore.Internal_Hbond>
0.0000

> <Gold.Chemscore.DEClash>
0.1220

> <Gold.Chemscore.DEInternal>
1.2397

> <Gold.Chemscore.Rot>
1.6576

> <Gold.Chemscore.Internal.Correction>
   9.000000E+99

> <Gold.Chemscore.Hbonds>
donor molecule, donor type, donor heavy atom, donor atom, acceptor molecule, acceptor atom, score
      P1  H  6896  6908       L1     7  0.94

> <Gold.Chemscore.Hbond.Weighted>
-3.4160

> <Gold.Chemscore.Metal.Weighted>
-0.0000

> <Gold.Chemscore.Lipo.Weighted>
-13.2903

> <Gold.Chemscore.Internal_Hbond.Weighted>
0.0000

> <Gold.Chemscore.DEClash.Weighted>
0.1220

> <Gold.Chemscore.DEInternal.Weighted>
1.2397

> <Gold.Chemscore.Rot.Weighted>
4.2436

> <Gold.Chemscore.Internal.Correction.Weighted>
   9.000000E+99

> <Gold.Protein.RotatedTorsions>
[ 6907 6896 6895 6894 ] final  166.24 input  -60.11 | X-H torsion
[ 7974 7965 7964 7962 ] final -144.36 input  175.53 | X-H torsion
[ 8008 7997 7996 7995 ] final  -86.53 input   59.86 | X-H torsion
[ 10167 10162 10161 10158 ] final -115.86 input  -65.29 | X-H torsion
[ 10718 10713 10712 10709 ] final   -5.82 input   66.30 | X-H torsion
[ 10763 10752 10751 10750 ] final -143.43 input  -60.55 | X-H torsion
[ 11005 11000 10999 10996 ] final  133.58 input  -57.11 | X-H torsion

> <Gold.Protein.ActiveResidues>
 VAL166  LYS551  ARG553  GLY616  TRP617  ASP618  TYR619  PRO620  LYS621  CYS622 
 ASP623  PHE694  ASN695  SER759  ASP760  ASP761  ALA762  ILE779  LEU786  VAL792 
 PHE793  MET794  SER795  GLU796  ALA797  LYS798  CYS799  TRP800  GLU811  SER814 

> <Gold.Protein.RotatedAtoms>
  151.8820  133.3497  159.3769 H   0  0  0  0  0  0  0  0  0  0  0  0  # atno 6907 bound_to 6896
  150.7125  134.5009  159.5570 H   0  0  0  0  0  0  0  0  0  0  0  0  # atno 6908 bound_to 6896
  152.2562  134.8081  160.0489 H   0  0  0  0  0  0  0  0  0  0  0  0  # atno 6909 bound_to 6896
  144.8303  140.5720  143.5519 H   0  0  0  0  0  0  0  0  0  0  0  0  # atno 7974 bound_to 7965
  154.6529  140.0577  156.9976 H   0  0  0  0  0  0  0  0  0  0  0  0  # atno 8008 bound_to 7997
  155.1343  140.3259  155.4448 H   0  0  0  0  0  0  0  0  0  0  0  0  # atno 8009 bound_to 7997
  156.2584  140.1975  156.6461 H   0  0  0  0  0  0  0  0  0  0  0  0  # atno 8010 bound_to 7997
  140.0855  143.4748  152.1901 H   0  0  0  0  0  0  0  0  0  0  0  0  # atno 10167 bound_to 10162
  156.7409  130.5209  149.5824 H   0  0  0  0  0  0  0  0  0  0  0  0  # atno 10718 bound_to 10713
  154.8470  135.3468  154.6186 H   0  0  0  0  0  0  0  0  0  0  0  0  # atno 10763 bound_to 10752
  153.6795  135.6981  153.5127 H   0  0  0  0  0  0  0  0  0  0  0  0  # atno 10764 bound_to 10752
  153.2679  135.4302  155.0915 H   0  0  0  0  0  0  0  0  0  0  0  0  # atno 10765 bound_to 10752
  139.9860  134.9532  156.9745 H   0  0  0  0  0  0  0  0  0  0  0  0  # atno 11005 bound_to 11000
  145.4910  139.1489  143.3710 LP  0  0  0  0  0  0  0  0  0  0  0  0  # atno 17320 bound_to 7965
  146.2606  140.5048  142.8855 LP  0  0  0  0  0  0  0  0  0  0  0  0  # atno 17321 bound_to 7965
  139.5755  144.7485  151.3777 LP  0  0  0  0  0  0  0  0  0  0  0  0  # atno 17342 bound_to 10162
  140.7056  143.7523  150.7476 LP  0  0  0  0  0  0  0  0  0  0  0  0  # atno 17343 bound_to 10162
  156.1465  130.6280  151.0538 LP  0  0  0  0  0  0  0  0  0  0  0  0  # atno 17370 bound_to 10713
  157.6819  131.0836  150.7348 LP  0  0  0  0  0  0  0  0  0  0  0  0  # atno 17371 bound_to 10713
  140.5001  134.1106  155.7249 LP  0  0  0  0  0  0  0  0  0  0  0  0  # atno 17394 bound_to 11000
  141.1525  133.8942  157.2061 LP  0  0  0  0  0  0  0  0  0  0  0  0  # atno 17395 bound_to 11000

$$$$
