AV-unprocessed.smi:109|AV-procd|sdf|1062|dock8
  -GOLD-   2262018143D 1   1.00000     0.00000
 Structure written by MMmdl.
 58 61  0  0  0  0  0  0  0  0  1 V2000
  152.9860  139.2160  155.4099 O   0  0  0  0  0  0  0  0  0  0  0  0
  151.9339  139.3928  156.3338 C   0  0  0  0  0  0  0  0  0  0  0  0
  151.1213  140.6466  155.9674 C   0  0  0  0  0  0  0  0  0  0  0  0
  150.1966  141.1614  157.0988 C   0  0  1  0  0  0  0  0  0  0  0  0
  149.6028  140.0226  157.8031 N   0  0  0  0  0  0  0  0  0  0  0  0
  148.4187  139.4821  157.4387 C   0  0  0  0  0  0  0  0  0  0  0  0
  147.4855  139.1250  158.3590 N   0  0  0  0  0  0  0  0  0  0  0  0
  146.3212  138.6025  157.9635 C   0  0  0  0  0  0  0  0  0  0  0  0
  145.8963  138.3578  156.7224 N   0  0  0  0  0  0  0  0  0  0  0  0
  146.8307  138.7112  155.7933 C   0  0  0  0  0  0  0  0  0  0  0  0
  148.1071  139.2749  156.0704 C   0  0  0  0  0  0  0  0  0  0  0  0
  148.7881  139.5056  154.8824 N   0  0  0  0  0  0  0  0  0  0  0  0
  147.9593  139.0970  153.9594 C   0  0  0  0  0  0  0  0  0  0  0  0
  146.7550  138.6119  154.4187 N   0  0  0  0  0  0  0  0  0  0  0  0
  145.6215  138.0773  153.6065 C   0  0  1  0  0  0  0  0  0  0  0  0
  146.0889  136.9804  152.8896 O   0  0  0  0  0  0  0  0  0  0  0  0
  145.0571  136.0050  152.7278 C   0  0  1  0  0  0  0  0  0  0  0  0
  145.5954  134.6449  153.2047 C   0  0  0  0  0  0  0  0  0  0  0  0
  146.6535  134.2219  152.3715 O   0  0  0  0  0  0  0  0  0  0  0  0
  143.8718  136.5067  153.5769 C   0  0  2  0  0  0  0  0  0  0  0  0
  142.8895  137.0491  152.7092 O   0  0  0  0  0  0  0  0  0  0  0  0
  144.4914  137.5605  154.4910 C   0  0  2  0  0  0  0  0  0  0  0  0
  143.5627  138.5625  154.8606 O   0  0  0  0  0  0  0  0  0  0  0  0
  150.9230  142.0760  158.1270 C   0  0  0  0  0  0  0  0  0  0  0  0
  151.3793  143.4038  157.4684 C   0  0  0  0  0  0  0  0  0  0  0  0
  152.0960  144.3357  158.4577 C   0  0  0  0  0  0  0  0  0  0  0  0
  153.3021  143.6393  159.0984 C   0  0  0  0  0  0  0  0  0  0  0  0
  152.8719  142.3334  159.7769 C   0  0  0  0  0  0  0  0  0  0  0  0
  152.1467  141.3990  158.7943 C   0  0  0  0  0  0  0  0  0  0  0  0
  145.3242  138.8790  152.9285 H   0  0  0  0  0  0  0  0  0  0  0  0
  144.7747  135.9385  151.6751 H   0  0  0  0  0  0  0  0  0  0  0  0
  143.3999  135.7104  154.1537 H   0  0  0  0  0  0  0  0  0  0  0  0
  144.9036  137.0795  155.3782 H   0  0  0  0  0  0  0  0  0  0  0  0
  153.0301  138.3014  155.1760 H   0  0  0  0  0  0  0  0  0  0  0  0
  151.2993  138.5062  156.3213 H   0  0  0  0  0  0  0  0  0  0  0  0
  152.3630  139.4761  157.3322 H   0  0  0  0  0  0  0  0  0  0  0  0
  151.7965  141.4439  155.6532 H   0  0  0  0  0  0  0  0  0  0  0  0
  150.5258  140.3862  155.0942 H   0  0  0  0  0  0  0  0  0  0  0  0
  149.4205  141.7721  156.6379 H   0  0  0  0  0  0  0  0  0  0  0  0
  150.1275  139.6870  158.5983 H   0  0  0  0  0  0  0  0  0  0  0  0
  145.6315  138.3456  158.7537 H   0  0  0  0  0  0  0  0  0  0  0  0
  148.2052  139.1428  152.9083 H   0  0  0  0  0  0  0  0  0  0  0  0
  145.9208  134.6811  154.2437 H   0  0  0  0  0  0  0  0  0  0  0  0
  144.8146  133.8867  153.1400 H   0  0  0  0  0  0  0  0  0  0  0  0
  147.4441  134.6635  152.6421 H   0  0  0  0  0  0  0  0  0  0  0  0
  142.9852  137.9889  152.6958 H   0  0  0  0  0  0  0  0  0  0  0  0
  143.3591  139.0781  154.0952 H   0  0  0  0  0  0  0  0  0  0  0  0
  150.2124  142.3212  158.9183 H   0  0  0  0  0  0  0  0  0  0  0  0
  152.0435  143.1862  156.6308 H   0  0  0  0  0  0  0  0  0  0  0  0
  150.5290  143.9419  157.0491 H   0  0  0  0  0  0  0  0  0  0  0  0
  152.4200  145.2422  157.9455 H   0  0  0  0  0  0  0  0  0  0  0  0
  151.3985  144.6517  159.2345 H   0  0  0  0  0  0  0  0  0  0  0  0
  154.0535  143.4282  158.3364 H   0  0  0  0  0  0  0  0  0  0  0  0
  153.7731  144.3012  159.8258 H   0  0  0  0  0  0  0  0  0  0  0  0
  153.7432  141.8280  160.1944 H   0  0  0  0  0  0  0  0  0  0  0  0
  152.2141  142.5588  160.6174 H   0  0  0  0  0  0  0  0  0  0  0  0
  151.8448  140.5145  159.3528 H   0  0  0  0  0  0  0  0  0  0  0  0
  152.8447  141.0617  158.0272 H   0  0  0  0  0  0  0  0  0  0  0  0
  1  2  1  0  0  0  0
  1 34  1  0  0  0  0
  2  3  1  0  0  0  0
  2 35  1  0  0  0  0
  2 36  1  0  0  0  0
  3  4  1  0  0  0  0
  3 37  1  0  0  0  0
  3 38  1  0  0  0  0
  4  5  1  0  0  0  0
  4 24  1  0  0  0  0
  4 39  1  0  0  0  0
  5  6  1  0  0  0  0
  5 40  1  0  0  0  0
  6 11  1  0  0  0  0
  6  7  2  0  0  0  0
  7  8  1  0  0  0  0
  8  9  2  0  0  0  0
  8 41  1  0  0  0  0
  9 10  1  0  0  0  0
 10 14  1  0  0  0  0
 10 11  2  0  0  0  0
 11 12  1  0  0  0  0
 12 13  2  0  0  0  0
 13 14  1  0  0  0  0
 13 42  1  0  0  0  0
 14 15  1  0  0  0  0
 15 30  1  0  0  0  0
 15 22  1  0  0  0  0
 15 16  1  0  0  0  0
 16 17  1  0  0  0  0
 17 31  1  0  0  0  0
 17 18  1  0  0  0  0
 17 20  1  0  0  0  0
 18 19  1  0  0  0  0
 18 43  1  0  0  0  0
 18 44  1  0  0  0  0
 19 45  1  0  0  0  0
 20 32  1  0  0  0  0
 20 21  1  0  0  0  0
 20 22  1  0  0  0  0
 21 46  1  0  0  0  0
 22 33  1  0  0  0  0
 22 23  1  0  0  0  0
 23 47  1  0  0  0  0
 24 29  1  0  0  0  0
 24 25  1  0  0  0  0
 24 48  1  0  0  0  0
 25 26  1  0  0  0  0
 25 49  1  0  0  0  0
 25 50  1  0  0  0  0
 26 27  1  0  0  0  0
 26 51  1  0  0  0  0
 26 52  1  0  0  0  0
 27 28  1  0  0  0  0
 27 53  1  0  0  0  0
 27 54  1  0  0  0  0
 28 29  1  0  0  0  0
 28 55  1  0  0  0  0
 28 56  1  0  0  0  0
 29 57  1  0  0  0  0
 29 58  1  0  0  0  0
M  END
> <s_m_source_file>
AV-unprocessed.smi

> <i_m_source_file_index>
109

> <i_lp_mmshare_version>
43012

> <i_f3d_flags>
0

> <s_epik_input>
W0NIMl0xW0NIMl1bQ0gyXVtDSDJdW0NIMl1bQ0hdMVtDQEhdKFtDSDJdW0NIMl1bT0hdKVtOSF1jKG5bY0hdbjIpYyhjMjMpbltjSF1uM1tDQEBIXTRPW0NASF0oW0NIMl1bT0hdKVtDQEBIXShbT0hdKVtDQEhdNFtPSF0=

> <s_epik_cmdline>
J2VwaWtfcHl0aG9uJywgJy1waCcsICc3LjAnLCAnLXRuJywgJzgnLCAnLW1hJywgJzIwMCcsICctbWV0YWxfYmluZGluZycsICctaW1hZScsICc8aW5maWxlLm1hZT4nLCAnLW9tYWUnLCAnPG91dGZpbGUubWFlPic=

> <r_lp_tautomer_probability>
1

> <r_epik_Ionization_Penalty>
0.000793976

> <r_epik_Ionization_Penalty_Charging>
0

> <r_epik_Ionization_Penalty_Neutral>
0.000793976

> <r_epik_State_Penalty>
-0

> <r_epik_Charging_Adjusted_Penalty>
0

> <i_epik_Tot_Q>
0

> <i_epik_Tot_abs_Q>
0

> <r_epik_Metal_State_Penalty>
-0

> <b_epik_Metal_Only>
0

> <s_epik_Chemistry_Notes>
This compound contains an acetal/aminal-like group ( X-CH(R)-Y where X, Y are N, S, or O) that may be acid/base labile, releasing an aldehyde.

> <s_lp_Force_Field>
OPLS_2005

> <r_lp_Energy>
55.705

> <b_lp_Chiralities_Consistent>
1

> <s_lp_Variant>
AV-unprocessed.smi:109-32

> <Gold.Version>
5.8.1

> <Gold.Id.Protein>
6NUR|6NUR_protein|mol2

> <Gold.PLP.Fitness>
52.3848

> <Gold.PLP.PLP>
-39.3522

> <Gold.PLP.part.hbond>
-6.0741

> <Gold.PLP.part.metal>
0.0000

> <Gold.PLP.part.buried>
-1.7127

> <Gold.PLP.part.nonpolar>
-31.4414

> <Gold.PLP.part.repulsive>
0.9818

> <Gold.PLP.ligand.clash>
0.0000

> <Gold.PLP.ligand.torsion>
1.0539

> <Gold.PLP.Chemscore.Hbond>
4.0000

> <Gold.PLP.Chemscore.CHOScore>
1.0000

> <Gold.PLP.Chemscore.Metal>
0.0000

> <Gold.Chemscore.Hbonds>
donor molecule, donor type, donor heavy atom, donor atom, acceptor molecule, acceptor atom, score
      L1  H    19    45       P1  7948  0.29
      L1  H    23    47       P1 10175  0.76
      P1  H  7997  8010       L1     1  1.00
      L1  C    13    42       P1  7957  1.00

> <Gold.PLP.Chemscore.Internal.Correction>
0.1404

> <Gold.Rescore>
     Score         DG    S(hbond)    S(metal)    S(lipo)     H(rot)  DE(clash)    DE(int)     intcor
      9.88     -14.99       3.81        0.00      92.20       5.47       0.46       4.65       ----

> <Gold.Chemscore.Fitness>
9.8770

> <Gold.Chemscore.DG>
-14.9925

> <Gold.Chemscore.ZeroCoef>
-5.4800

> <Gold.Chemscore.Hbond>
3.8078

> <Gold.Chemscore.Metal>
0.0000

> <Gold.Chemscore.Lipo>
92.2043

> <Gold.Chemscore.Internal_Hbond>
0.0000

> <Gold.Chemscore.DEClash>
0.4641

> <Gold.Chemscore.DEInternal>
4.6514

> <Gold.Chemscore.Rot>
5.4662

> <Gold.Chemscore.Internal.Correction>
   9.000000E+99

> <Gold.Chemscore.Hbonds>
donor molecule, donor type, donor heavy atom, donor atom, acceptor molecule, acceptor atom, score
      L1  H    19    45       P1  7948  0.27
      L1  H    23    47       P1 10175  0.74
      P1  H  7997  8010       L1     1  0.39

> <Gold.Chemscore.Hbond.Weighted>
-12.7181

> <Gold.Chemscore.Metal.Weighted>
-0.0000

> <Gold.Chemscore.Lipo.Weighted>
-10.7879

> <Gold.Chemscore.Internal_Hbond.Weighted>
0.0000

> <Gold.Chemscore.DEClash.Weighted>
0.4641

> <Gold.Chemscore.DEInternal.Weighted>
4.6514

> <Gold.Chemscore.Rot.Weighted>
13.9935

> <Gold.Chemscore.Internal.Correction.Weighted>
   9.000000E+99

> <Gold.Protein.RotatedTorsions>
[ 6907 6896 6895 6894 ] final -158.32 input  -60.11 | X-H torsion
[ 7974 7965 7964 7962 ] final  145.65 input  175.53 | X-H torsion
[ 8008 7997 7996 7995 ] final   86.57 input   59.86 | X-H torsion
[ 10167 10162 10161 10158 ] final   45.93 input  -65.29 | X-H torsion
[ 10718 10713 10712 10709 ] final -156.05 input   66.30 | X-H torsion
[ 10763 10752 10751 10750 ] final  154.53 input  -60.55 | X-H torsion
[ 11005 11000 10999 10996 ] final -158.37 input  -57.11 | X-H torsion

> <Gold.Protein.ActiveResidues>
 VAL166  LYS551  ARG553  GLY616  TRP617  ASP618  TYR619  PRO620  LYS621  CYS622 
 ASP623  PHE694  ASN695  SER759  ASP760  ASP761  ALA762  ILE779  LEU786  VAL792 
 PHE793  MET794  SER795  GLU796  ALA797  LYS798  CYS799  TRP800  GLU811  SER814 

> <Gold.Protein.RotatedAtoms>
  151.3164  133.4058  159.2650 H   0  0  0  0  0  0  0  0  0  0  0  0  # atno 6907 bound_to 6896
  151.0071  134.9368  159.7996 H   0  0  0  0  0  0  0  0  0  0  0  0  # atno 6908 bound_to 6896
  152.5291  134.3129  159.9172 H   0  0  0  0  0  0  0  0  0  0  0  0  # atno 6909 bound_to 6896
  144.8735  139.5808  143.5876 H   0  0  0  0  0  0  0  0  0  0  0  0  # atno 7974 bound_to 7965
  155.9644  140.3391  155.6519 H   0  0  0  0  0  0  0  0  0  0  0  0  # atno 8008 bound_to 7997
  155.6756  140.0732  157.2522 H   0  0  0  0  0  0  0  0  0  0  0  0  # atno 8009 bound_to 7997
  154.4151  140.1683  156.1914 H   0  0  0  0  0  0  0  0  0  0  0  0  # atno 8010 bound_to 7997
  140.3191  144.2727  150.6186 H   0  0  0  0  0  0  0  0  0  0  0  0  # atno 10167 bound_to 10162
  156.5212  130.8479  151.2682 H   0  0  0  0  0  0  0  0  0  0  0  0  # atno 10718 bound_to 10713
  154.1539  135.2813  155.3128 H   0  0  0  0  0  0  0  0  0  0  0  0  # atno 10763 bound_to 10752
  154.6197  135.5471  153.7565 H   0  0  0  0  0  0  0  0  0  0  0  0  # atno 10764 bound_to 10752
  153.0213  135.6436  154.1682 H   0  0  0  0  0  0  0  0  0  0  0  0  # atno 10765 bound_to 10752
  140.6544  134.4416  157.5235 H   0  0  0  0  0  0  0  0  0  0  0  0  # atno 11005 bound_to 11000
  146.2947  139.7242  142.9135 LP  0  0  0  0  0  0  0  0  0  0  0  0  # atno 17320 bound_to 7965
  145.4085  141.0394  143.3030 LP  0  0  0  0  0  0  0  0  0  0  0  0  # atno 17321 bound_to 7965
  140.5500  143.2208  151.7943 LP  0  0  0  0  0  0  0  0  0  0  0  0  # atno 17342 bound_to 10162
  139.4878  144.4489  151.9677 LP  0  0  0  0  0  0  0  0  0  0  0  0  # atno 17343 bound_to 10162
  157.7436  130.9917  150.2609 LP  0  0  0  0  0  0  0  0  0  0  0  0  # atno 17370 bound_to 10713
  156.3148  130.3777  149.7629 LP  0  0  0  0  0  0  0  0  0  0  0  0  # atno 17371 bound_to 10713
  139.9034  134.8503  156.1801 LP  0  0  0  0  0  0  0  0  0  0  0  0  # atno 17394 bound_to 11000
  141.0512  133.6887  156.1776 LP  0  0  0  0  0  0  0  0  0  0  0  0  # atno 17395 bound_to 11000

$$$$
