AV-unprocessed.smi:2880|AV-procd|sdf|11054|dock8
  -GOLD-   2272015523D 1   1.00000     0.00000
 Structure written by MMmdl.
 47 48  0  0  0  0  0  0  0  0  1 V2000
  144.9543  140.3416  156.7733 C   0  0  0  0  0  0  0  0  0  0  0  0
  145.6442  141.3586  155.8429 C   0  0  0  0  0  0  0  0  0  0  0  0
  144.6047  142.4283  155.4313 C   0  0  0  0  0  0  0  0  0  0  0  0
  146.7930  142.0574  156.5955 C   0  0  0  0  0  0  0  0  0  0  0  0
  146.1979  140.6462  154.6835 N   0  0  0  0  0  0  0  0  0  0  0  0
  146.8587  141.1844  153.5919 C   0  0  0  0  0  0  0  0  0  0  0  0
  147.1962  140.1612  152.7529 C   0  0  0  0  0  0  0  0  0  0  0  0
  146.6916  139.0140  153.4209 C   0  0  0  0  0  0  0  0  0  0  0  0
  146.8496  137.7210  152.8606 N   0  0  0  0  0  0  0  0  0  0  0  0
  145.9053  136.7802  152.6896 C   0  0  0  0  0  0  0  0  0  0  0  0
  144.7143  136.9116  152.9742 O   0  0  0  0  0  0  0  0  0  0  0  0
  146.4295  135.6599  152.1699 N   0  0  0  0  0  0  0  0  0  0  0  0
  145.7041  134.4216  151.8887 C   0  0  1  0  0  0  0  0  0  0  0  0
  144.8614  134.6254  150.6138 C   0  0  0  0  0  0  0  0  0  0  0  0
  144.0926  133.3532  150.2317 C   0  0  0  0  0  0  0  0  0  0  0  0
  145.0506  132.1671  150.0673 C   0  0  0  0  0  0  0  0  0  0  0  0
  145.8830  131.9523  151.3401 C   0  0  0  0  0  0  0  0  0  0  0  0
  146.6750  133.2160  151.7410 C   0  0  2  0  0  0  0  0  0  0  0  0
  147.5056  132.9315  153.0142 C   0  0  0  0  0  0  0  0  0  0  0  0
  148.2323  134.0678  153.4357 O   0  0  0  0  0  0  0  0  0  0  0  0
  146.0948  139.3000  154.5682 N   0  0  0  0  0  0  0  0  0  0  0  0
  144.5203  140.8333  157.6444 H   0  0  0  0  0  0  0  0  0  0  0  0
  145.6523  139.5891  157.1411 H   0  0  0  0  0  0  0  0  0  0  0  0
  144.1487  139.8183  156.2567 H   0  0  0  0  0  0  0  0  0  0  0  0
  143.7611  141.9865  154.8997 H   0  0  0  0  0  0  0  0  0  0  0  0
  145.0436  143.1903  154.7858 H   0  0  0  0  0  0  0  0  0  0  0  0
  144.2010  142.9414  156.3050 H   0  0  0  0  0  0  0  0  0  0  0  0
  146.4227  142.6083  157.4608 H   0  0  0  0  0  0  0  0  0  0  0  0
  147.3120  142.7683  155.9514 H   0  0  0  0  0  0  0  0  0  0  0  0
  147.5328  141.3436  156.9589 H   0  0  0  0  0  0  0  0  0  0  0  0
  147.0345  142.2460  153.5021 H   0  0  0  0  0  0  0  0  0  0  0  0
  147.7212  140.2260  151.8116 H   0  0  0  0  0  0  0  0  0  0  0  0
  147.7875  137.4776  152.5779 H   0  0  0  0  0  0  0  0  0  0  0  0
  147.4200  135.6516  151.9760 H   0  0  0  0  0  0  0  0  0  0  0  0
  145.0158  134.1987  152.7062 H   0  0  0  0  0  0  0  0  0  0  0  0
  144.1577  135.4463  150.7582 H   0  0  0  0  0  0  0  0  0  0  0  0
  145.5093  134.9169  149.7856 H   0  0  0  0  0  0  0  0  0  0  0  0
  143.3534  133.1254  151.0008 H   0  0  0  0  0  0  0  0  0  0  0  0
  143.5380  133.5157  149.3072 H   0  0  0  0  0  0  0  0  0  0  0  0
  144.4871  131.2632  149.8339 H   0  0  0  0  0  0  0  0  0  0  0  0
  145.7147  132.3451  149.2206 H   0  0  0  0  0  0  0  0  0  0  0  0
  145.2242  131.6572  152.1581 H   0  0  0  0  0  0  0  0  0  0  0  0
  146.5673  131.1181  151.1812 H   0  0  0  0  0  0  0  0  0  0  0  0
  147.3691  133.4275  150.9256 H   0  0  0  0  0  0  0  0  0  0  0  0
  146.8658  132.5836  153.8258 H   0  0  0  0  0  0  0  0  0  0  0  0
  148.2341  132.1425  152.8256 H   0  0  0  0  0  0  0  0  0  0  0  0
  148.3596  134.6355  152.6908 H   0  0  0  0  0  0  0  0  0  0  0  0
  1  2  1  0  0  0  0
  1 22  1  0  0  0  0
  1 23  1  0  0  0  0
  1 24  1  0  0  0  0
  2  3  1  0  0  0  0
  2  4  1  0  0  0  0
  2  5  1  0  0  0  0
  3 25  1  0  0  0  0
  3 26  1  0  0  0  0
  3 27  1  0  0  0  0
  4 28  1  0  0  0  0
  4 29  1  0  0  0  0
  4 30  1  0  0  0  0
  5 21  1  0  0  0  0
  5  6  1  0  0  0  0
  6  7  2  0  0  0  0
  6 31  1  0  0  0  0
  7  8  1  0  0  0  0
  7 32  1  0  0  0  0
  8  9  1  0  0  0  0
  8 21  2  0  0  0  0
  9 10  1  0  0  0  0
  9 33  1  0  0  0  0
 10 11  2  0  0  0  0
 10 12  1  0  0  0  0
 12 13  1  0  0  0  0
 12 34  1  0  0  0  0
 13 18  1  0  0  0  0
 13 14  1  0  0  0  0
 13 35  1  0  0  0  0
 14 15  1  0  0  0  0
 14 36  1  0  0  0  0
 14 37  1  0  0  0  0
 15 16  1  0  0  0  0
 15 38  1  0  0  0  0
 15 39  1  0  0  0  0
 16 17  1  0  0  0  0
 16 40  1  0  0  0  0
 16 41  1  0  0  0  0
 17 18  1  0  0  0  0
 17 42  1  0  0  0  0
 17 43  1  0  0  0  0
 18 19  1  0  0  0  0
 18 44  1  0  0  0  0
 19 20  1  0  0  0  0
 19 45  1  0  0  0  0
 19 46  1  0  0  0  0
 20 47  1  0  0  0  0
M  END
> <s_m_source_file>
AV-unprocessed.smi

> <i_m_source_file_index>
2880

> <i_lp_mmshare_version>
43012

> <i_f3d_flags>
0

> <s_epik_input>
W0NIM11DKFtDSDNdKShbQ0gzXSluMVtjSF1bY0hdYyhuMSlbTkhdQyg9TylbTkhdW0NAQEhdMltDSDJdW0NIMl1bQ0gyXVtDSDJdW0NASF0yW0NIMl1bT0hd

> <s_epik_cmdline>
J2VwaWtfcHl0aG9uJywgJy1waCcsICc3LjAnLCAnLXRuJywgJzgnLCAnLW1hJywgJzIwMCcsICctbWV0YWxfYmluZGluZycsICctaW1hZScsICc8aW5maWxlLm1hZT4nLCAnLW9tYWUnLCAnPG91dGZpbGUubWFlPic=

> <r_lp_tautomer_probability>
1

> <r_epik_Ionization_Penalty>
3.89283e-05

> <r_epik_Ionization_Penalty_Charging>
0

> <r_epik_Ionization_Penalty_Neutral>
3.89283e-05

> <r_epik_State_Penalty>
-0

> <r_epik_Charging_Adjusted_Penalty>
0

> <i_epik_Tot_Q>
0

> <i_epik_Tot_abs_Q>
0

> <r_epik_Metal_State_Penalty>
-0

> <b_epik_Metal_Only>
0

> <s_lp_Force_Field>
OPLS_2005

> <r_lp_Energy>
21.9333

> <b_lp_Chiralities_Consistent>
1

> <s_lp_Variant>
AV-unprocessed.smi:2880-4

> <Gold.Version>
5.8.1

> <Gold.Id.Protein>
6NUR|6NUR_protein|mol2

> <Gold.PLP.Fitness>
38.9687

> <Gold.PLP.PLP>
-31.3368

> <Gold.PLP.part.hbond>
-3.0000

> <Gold.PLP.part.metal>
0.0000

> <Gold.PLP.part.buried>
-3.2347

> <Gold.PLP.part.nonpolar>
-26.2338

> <Gold.PLP.part.repulsive>
0.3211

> <Gold.PLP.ligand.clash>
0.0000

> <Gold.PLP.ligand.torsion>
0.6787

> <Gold.PLP.Chemscore.Hbond>
2.9920

> <Gold.PLP.Chemscore.CHOScore>
0.0000

> <Gold.PLP.Chemscore.Metal>
0.0000

> <Gold.Chemscore.Hbonds>
donor molecule, donor type, donor heavy atom, donor atom, acceptor molecule, acceptor atom, score
      L1  H     9    33       P1  7948  0.99
      L1  H    12    34       P1  7948  1.00
      L1  H    20    47       P1  7948  1.00

> <Gold.PLP.Chemscore.Internal.Correction>
0.0133

> <Gold.Rescore>
     Score         DG    S(hbond)    S(metal)    S(lipo)     H(rot)  DE(clash)    DE(int)     intcor
     15.51     -17.78       2.73        0.00      70.38       1.97       0.02       2.25       ----

> <Gold.Chemscore.Fitness>
15.5081

> <Gold.Chemscore.DG>
-17.7844

> <Gold.Chemscore.ZeroCoef>
-5.4800

> <Gold.Chemscore.Hbond>
2.7264

> <Gold.Chemscore.Metal>
0.0000

> <Gold.Chemscore.Lipo>
70.3798

> <Gold.Chemscore.Internal_Hbond>
0.0000

> <Gold.Chemscore.DEClash>
0.0222

> <Gold.Chemscore.DEInternal>
2.2542

> <Gold.Chemscore.Rot>
1.9672

> <Gold.Chemscore.Internal.Correction>
   9.000000E+99

> <Gold.Chemscore.Hbonds>
donor molecule, donor type, donor heavy atom, donor atom, acceptor molecule, acceptor atom, score
      L1  H     9    33       P1  7948  0.93
      L1  H    12    34       P1  7948  0.98
      L1  H    20    47       P1  7948  0.29

> <Gold.Chemscore.Hbond.Weighted>
-9.1060

> <Gold.Chemscore.Metal.Weighted>
-0.0000

> <Gold.Chemscore.Lipo.Weighted>
-8.2344

> <Gold.Chemscore.Internal_Hbond.Weighted>
0.0000

> <Gold.Chemscore.DEClash.Weighted>
0.0222

> <Gold.Chemscore.DEInternal.Weighted>
2.2542

> <Gold.Chemscore.Rot.Weighted>
5.0360

> <Gold.Chemscore.Internal.Correction.Weighted>
   9.000000E+99

> <Gold.Protein.RotatedTorsions>
[ 6907 6896 6895 6894 ] final  156.22 input  -60.11 | X-H torsion
[ 7974 7965 7964 7962 ] final   55.33 input  175.53 | X-H torsion
[ 8008 7997 7996 7995 ] final    2.01 input   59.86 | X-H torsion
[ 10167 10162 10161 10158 ] final  143.20 input  -65.29 | X-H torsion
[ 10718 10713 10712 10709 ] final -129.13 input   66.30 | X-H torsion
[ 10763 10752 10751 10750 ] final  -23.82 input  -60.55 | X-H torsion
[ 11005 11000 10999 10996 ] final   12.32 input  -57.11 | X-H torsion

> <Gold.Protein.ActiveResidues>
 VAL166  LYS551  ARG553  GLY616  TRP617  ASP618  TYR619  PRO620  LYS621  CYS622 
 ASP623  PHE694  ASN695  SER759  ASP760  ASP761  ALA762  ILE779  LEU786  VAL792 
 PHE793  MET794  SER795  GLU796  ALA797  LYS798  CYS799  TRP800  GLU811  SER814 

> <Gold.Protein.RotatedAtoms>
  152.0329  133.3944  159.4304 H   0  0  0  0  0  0  0  0  0  0  0  0  # atno 6907 bound_to 6896
  150.6881  134.3501  159.4914 H   0  0  0  0  0  0  0  0  0  0  0  0  # atno 6908 bound_to 6896
  152.1290  134.9149  160.0610 H   0  0  0  0  0  0  0  0  0  0  0  0  # atno 6909 bound_to 6896
  145.9515  139.3976  143.0303 H   0  0  0  0  0  0  0  0  0  0  0  0  # atno 7974 bound_to 7965
  154.6865  140.2644  155.6855 H   0  0  0  0  0  0  0  0  0  0  0  0  # atno 8008 bound_to 7997
  156.2716  140.2799  156.1351 H   0  0  0  0  0  0  0  0  0  0  0  0  # atno 8009 bound_to 7997
  155.0957  140.0374  157.2672 H   0  0  0  0  0  0  0  0  0  0  0  0  # atno 8010 bound_to 7997
  139.4975  144.6056  151.6385 H   0  0  0  0  0  0  0  0  0  0  0  0  # atno 10167 bound_to 10162
  156.2017  130.6861  151.0546 H   0  0  0  0  0  0  0  0  0  0  0  0  # atno 10718 bound_to 10713
  153.6739  135.6970  153.5138 H   0  0  0  0  0  0  0  0  0  0  0  0  # atno 10763 bound_to 10752
  153.2536  135.4267  155.0822 H   0  0  0  0  0  0  0  0  0  0  0  0  # atno 10764 bound_to 10752
  154.8419  135.3537  154.6283 H   0  0  0  0  0  0  0  0  0  0  0  0  # atno 10765 bound_to 10752
  140.4933  134.0818  155.7776 H   0  0  0  0  0  0  0  0  0  0  0  0  # atno 11005 bound_to 11000
  145.8164  140.9700  143.0921 LP  0  0  0  0  0  0  0  0  0  0  0  0  # atno 17320 bound_to 7965
  144.6797  139.9986  143.7484 LP  0  0  0  0  0  0  0  0  0  0  0  0  # atno 17321 bound_to 7965
  140.5717  144.0097  150.6220 LP  0  0  0  0  0  0  0  0  0  0  0  0  # atno 17342 bound_to 10162
  140.3217  143.3133  152.0777 LP  0  0  0  0  0  0  0  0  0  0  0  0  # atno 17343 bound_to 10162
  157.6989  131.0783  150.6882 LP  0  0  0  0  0  0  0  0  0  0  0  0  # atno 17370 bound_to 10713
  156.6940  130.4603  149.5591 LP  0  0  0  0  0  0  0  0  0  0  0  0  # atno 17371 bound_to 10713
  141.1473  133.9032  157.2185 LP  0  0  0  0  0  0  0  0  0  0  0  0  # atno 17394 bound_to 11000
  139.9756  135.0115  156.9623 LP  0  0  0  0  0  0  0  0  0  0  0  0  # atno 17395 bound_to 11000

$$$$
