AV-unprocessed.smi:2451|AV-procd|sdf|9670|dock4
  -GOLD-   2272013313D 1   1.00000     0.00000
 Structure written by MMmdl.
 38 39  0  0  0  0  0  0  0  0  1 V2000
  153.1196  142.3811  162.5066 C   0  0  0  0  0  0  0  0  0  0  0  0
  152.2596  143.0239  161.4060 C   0  0  1  0  0  0  0  0  0  0  0  0
  152.4382  144.5566  161.3610 C   0  0  0  0  0  0  0  0  0  0  0  0
  151.5036  145.2088  160.3278 C   0  0  0  0  0  0  0  0  0  0  0  0
  151.6652  144.5785  158.9358 C   0  0  0  0  0  0  0  0  0  0  0  0
  151.4857  143.0515  159.0043 C   0  0  1  0  0  0  0  0  0  0  0  0
  151.6038  142.4598  157.6687 N   0  0  0  0  0  0  0  0  0  0  0  0
  151.6100  140.7424  157.5218 S   0  0  0  0  0  0  0  0  0  0  0  0
  152.8304  140.2452  158.1759 O   0  0  0  0  0  0  0  0  0  0  0  0
  150.2926  140.2582  157.9618 O   0  0  0  0  0  0  0  0  0  0  0  0
  151.7732  140.4960  155.7038 C   0  0  0  0  0  0  0  0  0  0  0  0
  151.5266  139.0531  155.3669 C   0  0  0  0  0  0  0  0  0  0  0  0
  150.5347  138.5014  154.5095 C   0  0  0  0  0  0  0  0  0  0  0  0
  150.7701  137.1581  154.5727 C   0  0  0  0  0  0  0  0  0  0  0  0
  151.8131  136.8971  155.4005 O   0  0  0  0  0  0  0  0  0  0  0  0
  152.2885  138.1132  155.9039 N   0  0  0  0  0  0  0  0  0  0  0  0
  152.4618  142.3847  160.0057 C   0  0  1  0  0  0  0  0  0  0  0  0
  153.9332  142.4121  159.5293 C   0  0  0  0  0  0  0  0  0  0  0  0
  154.1796  142.5973  162.3731 H   0  0  0  0  0  0  0  0  0  0  0  0
  152.9950  141.2982  162.5222 H   0  0  0  0  0  0  0  0  0  0  0  0
  152.8342  142.7575  163.4894 H   0  0  0  0  0  0  0  0  0  0  0  0
  151.2229  142.8348  161.6897 H   0  0  0  0  0  0  0  0  0  0  0  0
  152.2366  144.9815  162.3448 H   0  0  0  0  0  0  0  0  0  0  0  0
  153.4738  144.8089  161.1304 H   0  0  0  0  0  0  0  0  0  0  0  0
  150.4694  145.0976  160.6558 H   0  0  0  0  0  0  0  0  0  0  0  0
  151.6966  146.2806  160.2759 H   0  0  0  0  0  0  0  0  0  0  0  0
  150.9316  145.0101  158.2539 H   0  0  0  0  0  0  0  0  0  0  0  0
  152.6453  144.8283  158.5289 H   0  0  0  0  0  0  0  0  0  0  0  0
  150.4713  142.8640  159.3605 H   0  0  0  0  0  0  0  0  0  0  0  0
  150.9469  142.8864  157.0158 H   0  0  0  0  0  0  0  0  0  0  0  0
  151.0578  141.1495  155.2038 H   0  0  0  0  0  0  0  0  0  0  0  0
  152.7738  140.8050  155.4023 H   0  0  0  0  0  0  0  0  0  0  0  0
  149.7755  139.0114  153.9353 H   0  0  0  0  0  0  0  0  0  0  0  0
  150.3050  136.3003  154.1099 H   0  0  0  0  0  0  0  0  0  0  0  0
  152.1778  141.3340  160.0824 H   0  0  0  0  0  0  0  0  0  0  0  0
  154.3203  143.4265  159.4402 H   0  0  0  0  0  0  0  0  0  0  0  0
  154.0468  141.9330  158.5568 H   0  0  0  0  0  0  0  0  0  0  0  0
  154.5843  141.8700  160.2141 H   0  0  0  0  0  0  0  0  0  0  0  0
  1  2  1  0  0  0  0
  1 19  1  0  0  0  0
  1 20  1  0  0  0  0
  1 21  1  0  0  0  0
  2 17  1  0  0  0  0
  2  3  1  0  0  0  0
  2 22  1  0  0  0  0
  3  4  1  0  0  0  0
  3 23  1  0  0  0  0
  3 24  1  0  0  0  0
  4  5  1  0  0  0  0
  4 25  1  0  0  0  0
  4 26  1  0  0  0  0
  5  6  1  0  0  0  0
  5 27  1  0  0  0  0
  5 28  1  0  0  0  0
  6  7  1  0  0  0  0
  6 17  1  0  0  0  0
  6 29  1  0  0  0  0
  7  8  1  0  0  0  0
  7 30  1  0  0  0  0
  8  9  2  0  0  0  0
  8 10  2  0  0  0  0
  8 11  1  0  0  0  0
 11 12  1  0  0  0  0
 11 31  1  0  0  0  0
 11 32  1  0  0  0  0
 12 16  2  0  0  0  0
 12 13  1  0  0  0  0
 13 14  2  0  0  0  0
 13 33  1  0  0  0  0
 14 15  1  0  0  0  0
 14 34  1  0  0  0  0
 15 16  1  0  0  0  0
 17 18  1  0  0  0  0
 17 35  1  0  0  0  0
 18 36  1  0  0  0  0
 18 37  1  0  0  0  0
 18 38  1  0  0  0  0
M  END
> <s_m_source_file>
AV-unprocessed.smi

> <i_m_source_file_index>
2451

> <i_lp_mmshare_version>
43012

> <i_f3d_flags>
0

> <s_epik_input>
W0NIM11bQ0BASF0xW0NIMl1bQ0gyXVtDSDJdW0NASF0oW0NASF0xW0NIM10pW05IXVMoPU8pKD1PKVtDSDJdYzJbY0hdW2NIXW9uMg==

> <s_epik_cmdline>
J2VwaWtfcHl0aG9uJywgJy1waCcsICc3LjAnLCAnLXRuJywgJzgnLCAnLW1hJywgJzIwMCcsICctbWV0YWxfYmluZGluZycsICctaW1hZScsICc8aW5maWxlLm1hZT4nLCAnLW9tYWUnLCAnPG91dGZpbGUubWFlPic=

> <r_lp_tautomer_probability>
1

> <r_epik_Ionization_Penalty>
8.73668e-05

> <r_epik_Ionization_Penalty_Charging>
0

> <r_epik_Ionization_Penalty_Neutral>
8.73668e-05

> <r_epik_State_Penalty>
-0

> <r_epik_Charging_Adjusted_Penalty>
0

> <i_epik_Tot_Q>
0

> <i_epik_Tot_abs_Q>
0

> <r_epik_Metal_State_Penalty>
0.0716439

> <b_epik_Metal_Only>
0

> <s_lp_Force_Field>
OPLS_2005

> <r_lp_Energy>
8.89421

> <b_lp_Chiralities_Consistent>
1

> <s_lp_Variant>
AV-unprocessed.smi:2451-2

> <Gold.Version>
5.8.1

> <Gold.Id.Protein>
6NUR|6NUR_protein|mol2

> <Gold.PLP.Fitness>
46.6190

> <Gold.PLP.PLP>
-39.1276

> <Gold.PLP.part.hbond>
-2.0000

> <Gold.PLP.part.metal>
0.0000

> <Gold.PLP.part.buried>
-2.8649

> <Gold.PLP.part.nonpolar>
-33.8186

> <Gold.PLP.part.repulsive>
0.0756

> <Gold.PLP.ligand.clash>
0.0000

> <Gold.PLP.ligand.torsion>
0.2589

> <Gold.PLP.Chemscore.Hbond>
1.8268

> <Gold.PLP.Chemscore.CHOScore>
0.7940

> <Gold.PLP.Chemscore.Metal>
0.0000

> <Gold.Chemscore.Hbonds>
donor molecule, donor type, donor heavy atom, donor atom, acceptor molecule, acceptor atom, score
      P1  H  7997  8010       L1     9  0.80
      P1  H 10752 10763       L1    15  1.00
      L1  C    14    34       P1  7948  0.61
      L1  C    14    34       P1  7949  0.08

> <Gold.PLP.Chemscore.Internal.Correction>
0.1469

> <Gold.Rescore>
     Score         DG    S(hbond)    S(metal)    S(lipo)     H(rot)  DE(clash)    DE(int)     intcor
     17.39     -21.09       1.65        0.00     122.45       1.66       0.75       2.95       ----

> <Gold.Chemscore.Fitness>
17.3923

> <Gold.Chemscore.DG>
-21.0878

> <Gold.Chemscore.ZeroCoef>
-5.4800

> <Gold.Chemscore.Hbond>
1.6549

> <Gold.Chemscore.Metal>
0.0000

> <Gold.Chemscore.Lipo>
122.4533

> <Gold.Chemscore.Internal_Hbond>
0.0000

> <Gold.Chemscore.DEClash>
0.7454

> <Gold.Chemscore.DEInternal>
2.9500

> <Gold.Chemscore.Rot>
1.6588

> <Gold.Chemscore.Internal.Correction>
   9.000000E+99

> <Gold.Chemscore.Hbonds>
donor molecule, donor type, donor heavy atom, donor atom, acceptor molecule, acceptor atom, score
      P1  H  7997  8010       L1     9  0.65
      P1  H 10752 10763       L1    15  0.67

> <Gold.Chemscore.Hbond.Weighted>
-5.5274

> <Gold.Chemscore.Metal.Weighted>
-0.0000

> <Gold.Chemscore.Lipo.Weighted>
-14.3270

> <Gold.Chemscore.Internal_Hbond.Weighted>
0.0000

> <Gold.Chemscore.DEClash.Weighted>
0.7454

> <Gold.Chemscore.DEInternal.Weighted>
2.9500

> <Gold.Chemscore.Rot.Weighted>
4.2466

> <Gold.Chemscore.Internal.Correction.Weighted>
   9.000000E+99

> <Gold.Protein.RotatedTorsions>
[ 6907 6896 6895 6894 ] final  115.21 input  -60.11 | X-H torsion
[ 7974 7965 7964 7962 ] final  -93.32 input  175.53 | X-H torsion
[ 8008 7997 7996 7995 ] final   44.23 input   59.86 | X-H torsion
[ 10167 10162 10161 10158 ] final  -12.77 input  -65.29 | X-H torsion
[ 10718 10713 10712 10709 ] final   -5.34 input   66.30 | X-H torsion
[ 10763 10752 10751 10750 ] final   57.09 input  -60.55 | X-H torsion
[ 11005 11000 10999 10996 ] final   28.58 input  -57.11 | X-H torsion

> <Gold.Protein.ActiveResidues>
 VAL166  LYS551  ARG553  GLY616  TRP617  ASP618  TYR619  PRO620  LYS621  CYS622 
 ASP623  PHE694  ASN695  SER759  ASP760  ASP761  ALA762  ILE779  LEU786  VAL792 
 PHE793  MET794  SER795  GLU796  ALA797  LYS798  CYS799  TRP800  GLU811  SER814 

> <Gold.Protein.RotatedAtoms>
  152.4756  133.8130  159.7012 H   0  0  0  0  0  0  0  0  0  0  0  0  # atno 6907 bound_to 6896
  150.8770  133.7415  159.2950 H   0  0  0  0  0  0  0  0  0  0  0  0  # atno 6908 bound_to 6896
  151.4931  135.1062  159.9861 H   0  0  0  0  0  0  0  0  0  0  0  0  # atno 6909 bound_to 6896
  145.3880  140.9525  143.2356 H   0  0  0  0  0  0  0  0  0  0  0  0  # atno 7974 bound_to 7965
  155.3158  140.3394  155.4242 H   0  0  0  0  0  0  0  0  0  0  0  0  # atno 8008 bound_to 7997
  156.1933  140.1705  156.8086 H   0  0  0  0  0  0  0  0  0  0  0  0  # atno 8009 bound_to 7997
  154.5468  140.0713  156.8586 H   0  0  0  0  0  0  0  0  0  0  0  0  # atno 8010 bound_to 7997
  140.7168  143.5496  150.9316 H   0  0  0  0  0  0  0  0  0  0  0  0  # atno 10167 bound_to 10162
  156.7480  130.5230  149.5810 H   0  0  0  0  0  0  0  0  0  0  0  0  # atno 10718 bound_to 10713
  152.9843  135.5654  154.5334 H   0  0  0  0  0  0  0  0  0  0  0  0  # atno 10763 bound_to 10752
  154.4802  135.2788  155.1579 H   0  0  0  0  0  0  0  0  0  0  0  0  # atno 10764 bound_to 10752
  154.3090  135.6292  153.5511 H   0  0  0  0  0  0  0  0  0  0  0  0  # atno 10765 bound_to 10752
  140.3141  134.2617  155.7729 H   0  0  0  0  0  0  0  0  0  0  0  0  # atno 11005 bound_to 11000
  144.8460  139.5396  143.6878 LP  0  0  0  0  0  0  0  0  0  0  0  0  # atno 17320 bound_to 7965
  146.2811  139.6879  142.9228 LP  0  0  0  0  0  0  0  0  0  0  0  0  # atno 17321 bound_to 7965
  139.9221  143.6594  152.3094 LP  0  0  0  0  0  0  0  0  0  0  0  0  # atno 17342 bound_to 10162
  139.7014  144.7634  151.1266 LP  0  0  0  0  0  0  0  0  0  0  0  0  # atno 17343 bound_to 10162
  156.1420  130.6251  151.0480 LP  0  0  0  0  0  0  0  0  0  0  0  0  # atno 17370 bound_to 10713
  157.6790  131.0843  150.7420 LP  0  0  0  0  0  0  0  0  0  0  0  0  # atno 17371 bound_to 10713
  141.2101  133.7728  156.9950 LP  0  0  0  0  0  0  0  0  0  0  0  0  # atno 17394 bound_to 11000
  140.0999  134.9541  157.1907 LP  0  0  0  0  0  0  0  0  0  0  0  0  # atno 17395 bound_to 11000

$$$$
