AV-unprocessed.smi:777|AV-procd|sdf|3702|dock3
  -GOLD-   22720 1123D 1   1.00000     0.00000
 Structure written by MMmdl.
 37 38  0  0  0  0  0  0  0  0  2 V2000
  153.5087  141.2632  160.4556 C   0  0  0  0  0  0  0  0  0  0  0  0
  152.9375  141.8222  159.1358 C   0  0  1  0  0  0  0  0  0  0  0  0
  151.7865  140.9763  158.5655 C   0  0  0  0  0  0  0  0  0  0  0  0
  150.6940  141.4919  158.3311 O   0  0  0  0  0  0  0  0  0  0  0  0
  152.0810  139.6786  158.3608 N   0  0  0  0  0  0  0  0  0  0  0  0
  151.3524  138.5901  157.6889 C   0  0  0  0  0  0  0  0  0  0  0  0
  150.9000  137.6292  158.8157 C   0  0  0  0  0  0  0  0  0  0  0  0
  151.7803  137.1360  159.5560 O   0  0  0  0  0  0  0  0  0  0  0  0
  149.6795  137.3629  158.9014 O   0  5  0  0  0  0  0  0  0  0  0  0
  150.1270  139.0165  156.8155 C   0  0  0  0  0  0  0  0  0  0  0  0
  150.5091  139.7835  155.5332 C   0  0  0  0  0  0  0  0  0  0  0  0
  151.5227  139.0011  154.6908 C   0  0  0  0  0  0  0  0  0  0  0  0
  152.7605  138.6489  155.5232 C   0  0  0  0  0  0  0  0  0  0  0  0
  152.3745  137.8483  156.7792 C   0  0  0  0  0  0  0  0  0  0  0  0
  152.5209  143.2152  159.2648 N   0  0  0  0  0  0  0  0  0  0  0  0
  152.1663  144.0902  158.2576 C   0  0  0  0  0  0  0  0  0  0  0  0
  151.7958  145.2655  158.8451 C   0  0  0  0  0  0  0  0  0  0  0  0
  151.9448  145.0090  160.2359 C   0  0  0  0  0  0  0  0  0  0  0  0
  152.3715  143.7822  160.4848 N   0  0  0  0  0  0  0  0  0  0  0  0
  153.8804  140.2464  160.3241 H   0  0  0  0  0  0  0  0  0  0  0  0
  152.7605  141.2412  161.2491 H   0  0  0  0  0  0  0  0  0  0  0  0
  154.3431  141.8713  160.8060 H   0  0  0  0  0  0  0  0  0  0  0  0
  153.7428  141.7954  158.3999 H   0  0  0  0  0  0  0  0  0  0  0  0
  153.0043  139.4062  158.6635 H   0  0  0  0  0  0  0  0  0  0  0  0
  149.5886  138.1185  156.5078 H   0  0  0  0  0  0  0  0  0  0  0  0
  149.4008  139.5910  157.3901 H   0  0  0  0  0  0  0  0  0  0  0  0
  149.6135  139.9799  154.9436 H   0  0  0  0  0  0  0  0  0  0  0  0
  150.9269  140.7587  155.7808 H   0  0  0  0  0  0  0  0  0  0  0  0
  151.0611  138.0877  154.3134 H   0  0  0  0  0  0  0  0  0  0  0  0
  151.8132  139.5872  153.8185 H   0  0  0  0  0  0  0  0  0  0  0  0
  153.4587  138.0705  154.9179 H   0  0  0  0  0  0  0  0  0  0  0  0
  153.2847  139.5617  155.8100 H   0  0  0  0  0  0  0  0  0  0  0  0
  153.2848  137.6114  157.3328 H   0  0  0  0  0  0  0  0  0  0  0  0
  151.9586  136.8900  156.4624 H   0  0  0  0  0  0  0  0  0  0  0  0
  152.2026  143.8042  157.2168 H   0  0  0  0  0  0  0  0  0  0  0  0
  151.4614  146.1682  158.3558 H   0  0  0  0  0  0  0  0  0  0  0  0
  151.7519  145.6714  161.0668 H   0  0  0  0  0  0  0  0  0  0  0  0
  1  2  1  0  0  0  0
  1 20  1  0  0  0  0
  1 21  1  0  0  0  0
  1 22  1  0  0  0  0
  2  3  1  0  0  0  0
  2 15  1  0  0  0  0
  2 23  1  0  0  0  0
  3  4  2  0  0  0  0
  3  5  1  0  0  0  0
  5  6  1  0  0  0  0
  5 24  1  0  0  0  0
  6 14  1  0  0  0  0
  6  7  1  0  0  0  0
  6 10  1  0  0  0  0
  7  8  2  0  0  0  0
  7  9  1  0  0  0  0
 10 11  1  0  0  0  0
 10 25  1  0  0  0  0
 10 26  1  0  0  0  0
 11 12  1  0  0  0  0
 11 27  1  0  0  0  0
 11 28  1  0  0  0  0
 12 13  1  0  0  0  0
 12 29  1  0  0  0  0
 12 30  1  0  0  0  0
 13 14  1  0  0  0  0
 13 31  1  0  0  0  0
 13 32  1  0  0  0  0
 14 33  1  0  0  0  0
 14 34  1  0  0  0  0
 15 19  1  0  0  0  0
 15 16  1  0  0  0  0
 16 17  2  0  0  0  0
 16 35  1  0  0  0  0
 17 18  1  0  0  0  0
 17 36  1  0  0  0  0
 18 19  2  0  0  0  0
 18 37  1  0  0  0  0
M  CHG  1   9  -1
M  END
> <s_m_source_file>
AV-unprocessed.smi

> <i_m_source_file_index>
777

> <i_lp_mmshare_version>
43012

> <i_f3d_flags>
0

> <s_epik_input>
bjFbY0hdW2NIXVtjSF1uMVtDQEhdKFtDSDNdKUMoPU8pW05IXUMyKEMoPU8pW09IXSlbQ0gyXVtDSDJdW0NIMl1bQ0gyXVtDSDJdMg==

> <s_epik_cmdline>
J2VwaWtfcHl0aG9uJywgJy1waCcsICc3LjAnLCAnLXRuJywgJzgnLCAnLW1hJywgJzIwMCcsICctbWV0YWxfYmluZGluZycsICctaW1hZScsICc8aW5maWxlLm1hZT4nLCAnLW9tYWUnLCAnPG91dGZpbGUubWFlPic=

> <r_lp_tautomer_probability>
1

> <r_epik_Ionization_Penalty>
0.000371068

> <r_epik_Ionization_Penalty_Charging>
0.000323848

> <r_epik_Ionization_Penalty_Neutral>
4.72198e-05

> <r_epik_State_Penalty>
0.000195685

> <r_epik_Charging_Adjusted_Penalty>
0.000519533

> <i_epik_Tot_Q>
-1

> <i_epik_Tot_abs_Q>
1

> <r_epik_Metal_State_Penalty>
-0

> <b_epik_Metal_Only>
0

> <s_lp_Force_Field>
OPLS_2005

> <r_lp_Energy>
12.5044

> <b_lp_Chiralities_Consistent>
1

> <s_lp_Variant>
AV-unprocessed.smi:777-2

> <Gold.Version>
5.8.1

> <Gold.Id.Protein>
6NUR|6NUR_protein|mol2

> <Gold.PLP.Fitness>
45.8140

> <Gold.PLP.PLP>
-40.5202

> <Gold.PLP.part.hbond>
-1.0000

> <Gold.PLP.part.metal>
0.0000

> <Gold.PLP.part.buried>
-5.0470

> <Gold.PLP.part.nonpolar>
-34.5020

> <Gold.PLP.part.repulsive>
0.1807

> <Gold.PLP.ligand.clash>
0.0000

> <Gold.PLP.ligand.torsion>
0.4465

> <Gold.PLP.Chemscore.Hbond>
2.0000

> <Gold.PLP.Chemscore.CHOScore>
0.0000

> <Gold.PLP.Chemscore.Metal>
0.0000

> <Gold.Chemscore.Hbonds>
donor molecule, donor type, donor heavy atom, donor atom, acceptor molecule, acceptor atom, score
      P1  H  6896  6908       L1     8  1.89

> <Gold.PLP.Chemscore.Internal.Correction>
0.1869

> <Gold.Rescore>
     Score         DG    S(hbond)    S(metal)    S(lipo)     H(rot)  DE(clash)    DE(int)     intcor
     12.22     -14.97       1.00        0.00      96.00       1.98       0.02       2.73       ----

> <Gold.Chemscore.Fitness>
12.2246

> <Gold.Chemscore.DG>
-14.9735

> <Gold.Chemscore.ZeroCoef>
-5.4800

> <Gold.Chemscore.Hbond>
0.9950

> <Gold.Chemscore.Metal>
0.0000

> <Gold.Chemscore.Lipo>
96.0016

> <Gold.Chemscore.Internal_Hbond>
0.0000

> <Gold.Chemscore.DEClash>
0.0193

> <Gold.Chemscore.DEInternal>
2.7296

> <Gold.Chemscore.Rot>
1.9774

> <Gold.Chemscore.Internal.Correction>
   9.000000E+99

> <Gold.Chemscore.Hbonds>
donor molecule, donor type, donor heavy atom, donor atom, acceptor molecule, acceptor atom, score
      P1  H  6896  6908       L1     8  0.70

> <Gold.Chemscore.Hbond.Weighted>
-3.3234

> <Gold.Chemscore.Metal.Weighted>
-0.0000

> <Gold.Chemscore.Lipo.Weighted>
-11.2322

> <Gold.Chemscore.Internal_Hbond.Weighted>
0.0000

> <Gold.Chemscore.DEClash.Weighted>
0.0193

> <Gold.Chemscore.DEInternal.Weighted>
2.7296

> <Gold.Chemscore.Rot.Weighted>
5.0620

> <Gold.Chemscore.Internal.Correction.Weighted>
   9.000000E+99

> <Gold.Protein.RotatedTorsions>
[ 6907 6896 6895 6894 ] final -132.61 input  -60.11 | X-H torsion
[ 7974 7965 7964 7962 ] final -156.87 input  175.53 | X-H torsion
[ 8008 7997 7996 7995 ] final    0.53 input   59.86 | X-H torsion
[ 10167 10162 10161 10158 ] final  -88.35 input  -65.29 | X-H torsion
[ 10718 10713 10712 10709 ] final   43.50 input   66.30 | X-H torsion
[ 10763 10752 10751 10750 ] final   16.29 input  -60.55 | X-H torsion
[ 11005 11000 10999 10996 ] final -157.54 input  -57.11 | X-H torsion

> <Gold.Protein.ActiveResidues>
 VAL166  LYS551  ARG553  GLY616  TRP617  ASP618  TYR619  PRO620  LYS621  CYS622 
 ASP623  PHE694  ASN695  SER759  ASP760  ASP761  ALA762  ILE779  LEU786  VAL792 
 PHE793  MET794  SER795  GLU796  ALA797  LYS798  CYS799  TRP800  GLU811  SER814 

> <Gold.Protein.RotatedAtoms>
  150.9644  133.6411  159.2748 H   0  0  0  0  0  0  0  0  0  0  0  0  # atno 6907 bound_to 6896
  151.3722  135.0923  159.9479 H   0  0  0  0  0  0  0  0  0  0  0  0  # atno 6908 bound_to 6896
  152.5160  133.9195  159.7582 H   0  0  0  0  0  0  0  0  0  0  0  0  # atno 6909 bound_to 6896
  144.7573  140.4049  143.6002 H   0  0  0  0  0  0  0  0  0  0  0  0  # atno 7974 bound_to 7965
  154.6692  140.2608  155.7026 H   0  0  0  0  0  0  0  0  0  0  0  0  # atno 8008 bound_to 7997
  156.2651  140.2833  156.1116 H   0  0  0  0  0  0  0  0  0  0  0  0  # atno 8009 bound_to 7997
  155.1194  140.0377  157.2736 H   0  0  0  0  0  0  0  0  0  0  0  0  # atno 8010 bound_to 7997
  140.3755  143.2773  151.9448 H   0  0  0  0  0  0  0  0  0  0  0  0  # atno 10167 bound_to 10162
  157.4165  130.7944  149.7477 H   0  0  0  0  0  0  0  0  0  0  0  0  # atno 10718 bound_to 10713
  153.1445  135.6766  153.8976 H   0  0  0  0  0  0  0  0  0  0  0  0  # atno 10763 bound_to 10752
  153.8422  135.3104  155.3428 H   0  0  0  0  0  0  0  0  0  0  0  0  # atno 10764 bound_to 10752
  154.7814  135.4886  153.9937 H   0  0  0  0  0  0  0  0  0  0  0  0  # atno 10765 bound_to 10752
  140.6635  134.4324  157.5234 H   0  0  0  0  0  0  0  0  0  0  0  0  # atno 11005 bound_to 11000
  145.6735  139.1604  143.2741 LP  0  0  0  0  0  0  0  0  0  0  0  0  # atno 17320 bound_to 7965
  146.1598  140.6804  142.9282 LP  0  0  0  0  0  0  0  0  0  0  0  0  # atno 17321 bound_to 7965
  139.4800  144.5867  151.7841 LP  0  0  0  0  0  0  0  0  0  0  0  0  # atno 17342 bound_to 10162
  140.4990  144.1197  150.5967 LP  0  0  0  0  0  0  0  0  0  0  0  0  # atno 17343 bound_to 10162
  155.9867  130.3973  150.3201 LP  0  0  0  0  0  0  0  0  0  0  0  0  # atno 17370 bound_to 10713
  157.1344  131.0280  151.2955 LP  0  0  0  0  0  0  0  0  0  0  0  0  # atno 17371 bound_to 10713
  139.9005  134.8567  156.1916 LP  0  0  0  0  0  0  0  0  0  0  0  0  # atno 17394 bound_to 11000
  141.0447  133.6919  156.1662 LP  0  0  0  0  0  0  0  0  0  0  0  0  # atno 17395 bound_to 11000

$$$$
