AV-unprocessed.smi:2355|AV-procd|sdf|9387|dock6
  -GOLD-   2272013 23D 1   1.00000     0.00000
 Structure written by MMmdl.
 48 49  0  0  0  0  0  0  0  0  1 V2000
  145.4000  132.2886  149.8964 C   0  0  0  0  0  0  0  0  0  0  0  0
  144.9870  133.3759  150.8661 C   0  0  0  0  0  0  0  0  0  0  0  0
  143.6920  133.3982  151.4184 C   0  0  0  0  0  0  0  0  0  0  0  0
  143.3689  134.4362  152.3140 C   0  0  0  0  0  0  0  0  0  0  0  0
  141.9930  134.5232  152.9404 C   0  0  0  0  0  0  0  0  0  0  0  0
  144.2409  135.4059  152.6634 N   0  0  0  0  0  0  0  0  0  0  0  0
  145.4912  135.3941  152.1384 C   0  0  0  0  0  0  0  0  0  0  0  0
  146.4813  136.3660  152.4412 N   0  0  0  0  0  0  0  0  0  0  0  0
  146.3801  137.4274  153.2603 C   0  0  0  0  0  0  0  0  0  0  0  0
  145.3791  137.7362  153.9080 O   0  0  0  0  0  0  0  0  0  0  0  0
  147.5255  138.1247  153.2921 N   0  0  0  0  0  0  0  0  0  0  0  0
  147.7609  139.3308  154.0848 C   0  0  2  0  0  0  0  0  0  0  0  0
  146.9728  140.4968  153.4625 C   0  0  0  0  0  0  0  0  0  0  0  0
  149.2868  139.6312  154.2521 C   0  0  1  0  0  0  0  0  0  0  0  0
  149.4976  141.1305  154.5902 C   0  0  0  0  0  0  0  0  0  0  0  0
  149.9797  138.7217  155.1956 N   0  0  0  0  0  0  0  0  0  0  0  0
  151.3432  139.1651  155.5081 C   0  0  0  0  0  0  0  0  0  0  0  0
  152.0732  138.2133  156.4713 C   0  0  0  0  0  0  0  0  0  0  0  0
  152.1027  136.9044  155.9191 O   0  0  0  0  0  0  0  0  0  0  0  0
  150.7976  136.4020  155.6680 C   0  0  0  0  0  0  0  0  0  0  0  0
  150.0552  137.3416  154.7025 C   0  0  0  0  0  0  0  0  0  0  0  0
  145.8970  134.3875  151.2336 C   0  0  0  0  0  0  0  0  0  0  0  0
  144.5621  131.6336  149.6556 H   0  0  0  0  0  0  0  0  0  0  0  0
  146.1959  131.6810  150.3273 H   0  0  0  0  0  0  0  0  0  0  0  0
  145.7654  132.7281  148.9681 H   0  0  0  0  0  0  0  0  0  0  0  0
  142.9653  132.6412  151.1617 H   0  0  0  0  0  0  0  0  0  0  0  0
  141.4533  133.5815  152.8358 H   0  0  0  0  0  0  0  0  0  0  0  0
  141.4094  135.3079  152.4585 H   0  0  0  0  0  0  0  0  0  0  0  0
  142.0684  134.7538  154.0037 H   0  0  0  0  0  0  0  0  0  0  0  0
  147.3686  136.2395  151.9776 H   0  0  0  0  0  0  0  0  0  0  0  0
  148.2962  137.7979  152.7281 H   0  0  0  0  0  0  0  0  0  0  0  0
  147.3142  139.1252  155.0568 H   0  0  0  0  0  0  0  0  0  0  0  0
  147.0803  141.4074  154.0521 H   0  0  0  0  0  0  0  0  0  0  0  0
  145.9081  140.2654  153.4154 H   0  0  0  0  0  0  0  0  0  0  0  0
  147.3045  140.7158  152.4475 H   0  0  0  0  0  0  0  0  0  0  0  0
  149.7390  139.4781  153.2708 H   0  0  0  0  0  0  0  0  0  0  0  0
  148.9100  141.7905  153.9533 H   0  0  0  0  0  0  0  0  0  0  0  0
  150.5324  141.4374  154.4432 H   0  0  0  0  0  0  0  0  0  0  0  0
  149.2294  141.3479  155.6242 H   0  0  0  0  0  0  0  0  0  0  0  0
  151.9212  139.2617  154.5879 H   0  0  0  0  0  0  0  0  0  0  0  0
  151.3291  140.1473  155.9776 H   0  0  0  0  0  0  0  0  0  0  0  0
  153.0960  138.5525  156.6358 H   0  0  0  0  0  0  0  0  0  0  0  0
  151.5807  138.1959  157.4449 H   0  0  0  0  0  0  0  0  0  0  0  0
  150.8774  135.4039  155.2371 H   0  0  0  0  0  0  0  0  0  0  0  0
  150.2501  136.3022  156.6065 H   0  0  0  0  0  0  0  0  0  0  0  0
  149.0597  136.9254  154.5639 H   0  0  0  0  0  0  0  0  0  0  0  0
  150.5468  137.3232  153.7287 H   0  0  0  0  0  0  0  0  0  0  0  0
  146.8966  134.3898  150.8226 H   0  0  0  0  0  0  0  0  0  0  0  0
  1  2  1  0  0  0  0
  1 23  1  0  0  0  0
  1 24  1  0  0  0  0
  1 25  1  0  0  0  0
  2 22  1  0  0  0  0
  2  3  2  0  0  0  0
  3  4  1  0  0  0  0
  3 26  1  0  0  0  0
  4  5  1  0  0  0  0
  4  6  2  0  0  0  0
  5 27  1  0  0  0  0
  5 28  1  0  0  0  0
  5 29  1  0  0  0  0
  6  7  1  0  0  0  0
  7  8  1  0  0  0  0
  7 22  2  0  0  0  0
  8  9  1  0  0  0  0
  8 30  1  0  0  0  0
  9 10  2  0  0  0  0
  9 11  1  0  0  0  0
 11 12  1  0  0  0  0
 11 31  1  0  0  0  0
 12 13  1  0  0  0  0
 12 14  1  0  0  0  0
 12 32  1  0  0  0  0
 13 33  1  0  0  0  0
 13 34  1  0  0  0  0
 13 35  1  0  0  0  0
 14 15  1  0  0  0  0
 14 16  1  0  0  0  0
 14 36  1  0  0  0  0
 15 37  1  0  0  0  0
 15 38  1  0  0  0  0
 15 39  1  0  0  0  0
 16 21  1  0  0  0  0
 16 17  1  0  0  0  0
 17 18  1  0  0  0  0
 17 40  1  0  0  0  0
 17 41  1  0  0  0  0
 18 19  1  0  0  0  0
 18 42  1  0  0  0  0
 18 43  1  0  0  0  0
 19 20  1  0  0  0  0
 20 21  1  0  0  0  0
 20 44  1  0  0  0  0
 20 45  1  0  0  0  0
 21 46  1  0  0  0  0
 21 47  1  0  0  0  0
 22 48  1  0  0  0  0
M  END
> <s_m_source_file>
AV-unprocessed.smi

> <i_m_source_file_index>
2355

> <i_lp_mmshare_version>
43012

> <i_f3d_flags>
0

> <s_epik_input>
W0NIM11jMVtjSF1jKFtDSDNdKW5jKFtjSF0xKVtOSF1DKD1PKVtOSF1bQ0BIXShbQ0gzXSlbQ0BIXShbQ0gzXSlOMltDSDJdW0NIMl1PW0NIMl1bQ0gyXTI=

> <s_epik_cmdline>
J2VwaWtfcHl0aG9uJywgJy1waCcsICc3LjAnLCAnLXRuJywgJzgnLCAnLW1hJywgJzIwMCcsICctbWV0YWxfYmluZGluZycsICctaW1hZScsICc8aW5maWxlLm1hZT4nLCAnLW9tYWUnLCAnPG91dGZpbGUubWFlPic=

> <r_epik_Ionization_Penalty>
0.266238

> <r_epik_Ionization_Penalty_Charging>
0

> <r_epik_Ionization_Penalty_Neutral>
0.266238

> <r_epik_State_Penalty>
0.257924

> <r_epik_Charging_Adjusted_Penalty>
0.257924

> <i_epik_Tot_Q>
0

> <i_epik_Tot_abs_Q>
0

> <r_epik_Metal_State_Penalty>
0.257904

> <b_epik_Metal_Only>
0

> <s_lp_Force_Field>
OPLS_2005

> <r_lp_Energy>
33.2304

> <b_lp_Chiralities_Consistent>
1

> <s_lp_Variant>
AV-unprocessed.smi:2355-3

> <Gold.Version>
5.8.1

> <Gold.Id.Protein>
6NUR|6NUR_protein|mol2

> <Gold.PLP.Fitness>
41.8047

> <Gold.PLP.PLP>
-34.5867

> <Gold.PLP.part.hbond>
-3.0000

> <Gold.PLP.part.metal>
0.0000

> <Gold.PLP.part.buried>
-3.7989

> <Gold.PLP.part.nonpolar>
-29.2252

> <Gold.PLP.part.repulsive>
0.3950

> <Gold.PLP.ligand.clash>
0.0000

> <Gold.PLP.ligand.torsion>
0.7076

> <Gold.PLP.Chemscore.Hbond>
2.8480

> <Gold.PLP.Chemscore.CHOScore>
0.0000

> <Gold.PLP.Chemscore.Metal>
0.0000

> <Gold.Chemscore.Hbonds>
donor molecule, donor type, donor heavy atom, donor atom, acceptor molecule, acceptor atom, score
      L1  H     8    30       P1  7948  1.00
      L1  H    11    31       P1  7948  0.85
      P1  H 10752 10764       L1    19  0.95

> <Gold.PLP.Chemscore.Internal.Correction>
0.0891

> <Gold.Rescore>
     Score         DG    S(hbond)    S(metal)    S(lipo)     H(rot)  DE(clash)    DE(int)     intcor
     18.74     -21.95       2.89        0.00      88.80       1.40       0.10       3.11       ----

> <Gold.Chemscore.Fitness>
18.7407

> <Gold.Chemscore.DG>
-21.9489

> <Gold.Chemscore.ZeroCoef>
-5.4800

> <Gold.Chemscore.Hbond>
2.8942

> <Gold.Chemscore.Metal>
0.0000

> <Gold.Chemscore.Lipo>
88.8040

> <Gold.Chemscore.Internal_Hbond>
0.0000

> <Gold.Chemscore.DEClash>
0.0965

> <Gold.Chemscore.DEInternal>
3.1117

> <Gold.Chemscore.Rot>
1.4015

> <Gold.Chemscore.Internal.Correction>
   9.000000E+99

> <Gold.Chemscore.Hbonds>
donor molecule, donor type, donor heavy atom, donor atom, acceptor molecule, acceptor atom, score
      L1  H     8    30       P1  7948  0.96
      L1  H    11    31       P1  7948  0.85
      P1  H 10752 10764       L1    19  0.20

> <Gold.Chemscore.Hbond.Weighted>
-9.6666

> <Gold.Chemscore.Metal.Weighted>
-0.0000

> <Gold.Chemscore.Lipo.Weighted>
-10.3901

> <Gold.Chemscore.Internal_Hbond.Weighted>
0.0000

> <Gold.Chemscore.DEClash.Weighted>
0.0965

> <Gold.Chemscore.DEInternal.Weighted>
3.1117

> <Gold.Chemscore.Rot.Weighted>
3.5878

> <Gold.Chemscore.Internal.Correction.Weighted>
   9.000000E+99

> <Gold.Protein.RotatedTorsions>
[ 6907 6896 6895 6894 ] final  -47.67 input  -60.11 | X-H torsion
[ 7974 7965 7964 7962 ] final  143.75 input  175.53 | X-H torsion
[ 8008 7997 7996 7995 ] final   15.13 input   59.86 | X-H torsion
[ 10167 10162 10161 10158 ] final -133.48 input  -65.29 | X-H torsion
[ 10718 10713 10712 10709 ] final  -21.82 input   66.30 | X-H torsion
[ 10763 10752 10751 10750 ] final  -30.12 input  -60.55 | X-H torsion
[ 11005 11000 10999 10996 ] final  -96.19 input  -57.11 | X-H torsion

> <Gold.Protein.ActiveResidues>
 VAL166  LYS551  ARG553  GLY616  TRP617  ASP618  TYR619  PRO620  LYS621  CYS622 
 ASP623  PHE694  ASN695  SER759  ASP760  ASP761  ALA762  ILE779  LEU786  VAL792 
 PHE793  MET794  SER795  GLU796  ALA797  LYS798  CYS799  TRP800  GLU811  SER814 

> <Gold.Protein.RotatedAtoms>
  150.8984  134.8394  159.7342 H   0  0  0  0  0  0  0  0  0  0  0  0  # atno 6907 bound_to 6896
  152.4878  134.4541  159.9594 H   0  0  0  0  0  0  0  0  0  0  0  0  # atno 6908 bound_to 6896
  151.4595  133.3557  159.2842 H   0  0  0  0  0  0  0  0  0  0  0  0  # atno 6909 bound_to 6896
  144.8894  139.5581  143.5806 H   0  0  0  0  0  0  0  0  0  0  0  0  # atno 7974 bound_to 7965
  154.8582  140.2940  155.5555 H   0  0  0  0  0  0  0  0  0  0  0  0  # atno 8008 bound_to 7997
  156.3019  140.2483  156.3485 H   0  0  0  0  0  0  0  0  0  0  0  0  # atno 8009 bound_to 7997
  154.8947  140.0393  157.1848 H   0  0  0  0  0  0  0  0  0  0  0  0  # atno 8010 bound_to 7997
  139.8978  143.6644  152.2600 H   0  0  0  0  0  0  0  0  0  0  0  0  # atno 10167 bound_to 10162
  156.5129  130.4614  149.6638 H   0  0  0  0  0  0  0  0  0  0  0  0  # atno 10718 bound_to 10713
  153.7758  135.6909  153.4898 H   0  0  0  0  0  0  0  0  0  0  0  0  # atno 10763 bound_to 10752
  153.1844  135.4494  155.0068 H   0  0  0  0  0  0  0  0  0  0  0  0  # atno 10764 bound_to 10752
  154.8100  135.3373  154.7264 H   0  0  0  0  0  0  0  0  0  0  0  0  # atno 10765 bound_to 10752
  141.1419  133.8080  157.0538 H   0  0  0  0  0  0  0  0  0  0  0  0  # atno 11005 bound_to 11000
  146.3044  139.7532  142.9067 LP  0  0  0  0  0  0  0  0  0  0  0  0  # atno 17320 bound_to 7965
  145.3811  141.0358  143.3177 LP  0  0  0  0  0  0  0  0  0  0  0  0  # atno 17321 bound_to 7965
  139.7052  144.7629  151.1205 LP  0  0  0  0  0  0  0  0  0  0  0  0  # atno 17342 bound_to 10162
  140.7713  143.5404  150.9319 LP  0  0  0  0  0  0  0  0  0  0  0  0  # atno 17343 bound_to 10162
  156.3223  130.7287  151.2201 LP  0  0  0  0  0  0  0  0  0  0  0  0  # atno 17370 bound_to 10713
  157.7448  131.0452  150.4833 LP  0  0  0  0  0  0  0  0  0  0  0  0  # atno 17371 bound_to 10713
  140.0615  134.9752  157.1312 LP  0  0  0  0  0  0  0  0  0  0  0  0  # atno 17394 bound_to 11000
  140.3842  134.2254  155.7169 LP  0  0  0  0  0  0  0  0  0  0  0  0  # atno 17395 bound_to 11000

$$$$
