AV-unprocessed.smi:21|AV-procd|sdf|163|dock2
  -GOLD-   2262015403D 1   1.00000     0.00000
 Structure written by MMmdl.
 61 64  0  0  0  0  0  0  0  0  1 V2000
  153.5666  141.9810  161.4775 C   0  0  0  0  0  0  0  0  0  0  0  0
  154.1639  141.5554  160.2631 O   0  0  0  0  0  0  0  0  0  0  0  0
  153.5495  142.1064  159.1066 C   0  0  1  0  0  0  0  0  0  0  0  0
  152.1338  141.5352  158.9281 C   0  0  0  0  0  0  0  0  0  0  0  0
  151.2045  142.7542  159.0443 C   0  0  2  0  0  0  0  0  0  0  0  0
  149.8815  142.6008  158.2633 C   0  0  0  0  0  0  0  0  0  0  0  0
  150.0660  141.9229  156.9767 N   0  0  0  0  0  0  0  0  0  0  0  0
  150.8863  142.5904  155.9733 C   0  0  0  0  0  0  0  0  0  0  0  0
  149.3028  140.8437  156.6334 C   0  0  0  0  0  0  0  0  0  0  0  0
  148.4336  140.3490  157.5556 N   0  0  0  0  0  0  0  0  0  0  0  0
  147.6599  139.2966  157.2815 C   0  0  0  0  0  0  0  0  0  0  0  0
  147.5922  138.5845  156.1577 N   0  0  0  0  0  0  0  0  0  0  0  0
  148.4590  139.0626  155.2214 C   0  0  0  0  0  0  0  0  0  0  0  0
  149.3419  140.1739  155.3693 C   0  0  0  0  0  0  0  0  0  0  0  0
  150.0554  140.3487  154.1863 N   0  0  0  0  0  0  0  0  0  0  0  0
  149.6259  139.4038  153.3968 C   0  0  0  0  0  0  0  0  0  0  0  0
  148.6615  138.5878  153.9374 N   0  0  0  0  0  0  0  0  0  0  0  0
  148.0139  137.4630  153.2840 C   0  0  0  0  0  0  0  0  0  0  0  0
  147.1660  137.8700  152.0522 C   0  0  2  0  0  0  0  0  0  0  0  0
  146.1675  139.0018  152.4083 C   0  0  0  0  0  0  0  0  0  0  0  0
  145.6733  139.6475  151.2537 O   0  0  0  0  0  0  0  0  0  0  0  0
  146.4568  136.6226  151.4554 C   0  0  1  0  0  0  0  0  0  0  0  0
  145.7046  136.8470  150.1544 C   0  0  0  0  0  0  0  0  0  0  0  0
  145.5475  135.4291  149.6190 C   0  0  0  0  0  0  0  0  0  0  0  0
  146.7160  134.7350  150.0365 O   0  0  0  0  0  0  0  0  0  0  0  0
  147.4022  135.4920  151.0286 C   0  0  0  0  0  0  0  0  0  0  0  0
  152.0264  143.8799  158.6295 N   0  0  0  0  0  0  0  0  0  0  0  0
  151.4886  145.1774  159.0171 C   0  0  0  0  0  0  0  0  0  0  0  0
  153.3110  143.6160  159.2469 C   0  0  0  0  0  0  0  0  0  0  0  0
  154.1378  141.8870  158.2135 H   0  0  0  0  0  0  0  0  0  0  0  0
  150.9669  142.8823  160.1022 H   0  0  0  0  0  0  0  0  0  0  0  0
  154.0930  141.5312  162.3194 H   0  0  0  0  0  0  0  0  0  0  0  0
  152.5208  141.6788  161.5388 H   0  0  0  0  0  0  0  0  0  0  0  0
  153.6247  143.0646  161.5870 H   0  0  0  0  0  0  0  0  0  0  0  0
  152.0529  141.0790  157.9410 H   0  0  0  0  0  0  0  0  0  0  0  0
  151.8893  140.7696  159.6655 H   0  0  0  0  0  0  0  0  0  0  0  0
  149.1847  141.9950  158.8419 H   0  0  0  0  0  0  0  0  0  0  0  0
  149.3896  143.5678  158.1614 H   0  0  0  0  0  0  0  0  0  0  0  0
  151.5425  141.8786  155.4718 H   0  0  0  0  0  0  0  0  0  0  0  0
  151.5179  143.3524  156.4305 H   0  0  0  0  0  0  0  0  0  0  0  0
  150.2596  143.0829  155.2293 H   0  0  0  0  0  0  0  0  0  0  0  0
  147.0013  138.9811  158.0770 H   0  0  0  0  0  0  0  0  0  0  0  0
  150.0000  139.2773  152.3911 H   0  0  0  0  0  0  0  0  0  0  0  0
  148.8013  136.7651  152.9998 H   0  0  0  0  0  0  0  0  0  0  0  0
  147.3921  136.9422  154.0129 H   0  0  0  0  0  0  0  0  0  0  0  0
  147.8576  138.2589  151.3031 H   0  0  0  0  0  0  0  0  0  0  0  0
  145.3357  138.6142  152.9975 H   0  0  0  0  0  0  0  0  0  0  0  0
  146.6378  139.7802  153.0071 H   0  0  0  0  0  0  0  0  0  0  0  0
  144.8827  140.1118  151.4838 H   0  0  0  0  0  0  0  0  0  0  0  0
  145.7549  136.2237  152.1900 H   0  0  0  0  0  0  0  0  0  0  0  0
  144.7430  137.3419  150.2906 H   0  0  0  0  0  0  0  0  0  0  0  0
  146.3037  137.4427  149.4643 H   0  0  0  0  0  0  0  0  0  0  0  0
  144.6778  134.9475  150.0676 H   0  0  0  0  0  0  0  0  0  0  0  0
  145.4303  135.4012  148.5356 H   0  0  0  0  0  0  0  0  0  0  0  0
  148.3103  135.8960  150.5789 H   0  0  0  0  0  0  0  0  0  0  0  0
  147.6946  134.8560  151.8645 H   0  0  0  0  0  0  0  0  0  0  0  0
  152.1758  145.9760  158.7358 H   0  0  0  0  0  0  0  0  0  0  0  0
  151.3267  145.2341  160.0942 H   0  0  0  0  0  0  0  0  0  0  0  0
  150.5390  145.3729  158.5193 H   0  0  0  0  0  0  0  0  0  0  0  0
  153.2707  143.8782  160.3057 H   0  0  0  0  0  0  0  0  0  0  0  0
  154.1057  144.2070  158.7902 H   0  0  0  0  0  0  0  0  0  0  0  0
  1  2  1  0  0  0  0
  1 32  1  0  0  0  0
  1 33  1  0  0  0  0
  1 34  1  0  0  0  0
  2  3  1  0  0  0  0
  3 30  1  0  0  0  0
  3 29  1  0  0  0  0
  3  4  1  0  0  0  0
  4  5  1  0  0  0  0
  4 35  1  0  0  0  0
  4 36  1  0  0  0  0
  5 31  1  0  0  0  0
  5  6  1  0  0  0  0
  5 27  1  0  0  0  0
  6  7  1  0  0  0  0
  6 37  1  0  0  0  0
  6 38  1  0  0  0  0
  7  8  1  0  0  0  0
  7  9  1  0  0  0  0
  8 39  1  0  0  0  0
  8 40  1  0  0  0  0
  8 41  1  0  0  0  0
  9 14  1  0  0  0  0
  9 10  2  0  0  0  0
 10 11  1  0  0  0  0
 11 12  2  0  0  0  0
 11 42  1  0  0  0  0
 12 13  1  0  0  0  0
 13 17  1  0  0  0  0
 13 14  2  0  0  0  0
 14 15  1  0  0  0  0
 15 16  2  0  0  0  0
 16 17  1  0  0  0  0
 16 43  1  0  0  0  0
 17 18  1  0  0  0  0
 18 19  1  0  0  0  0
 18 44  1  0  0  0  0
 18 45  1  0  0  0  0
 19 20  1  0  0  0  0
 19 22  1  0  0  0  0
 19 46  1  0  0  0  0
 20 21  1  0  0  0  0
 20 47  1  0  0  0  0
 20 48  1  0  0  0  0
 21 49  1  0  0  0  0
 22 26  1  0  0  0  0
 22 23  1  0  0  0  0
 22 50  1  0  0  0  0
 23 24  1  0  0  0  0
 23 51  1  0  0  0  0
 23 52  1  0  0  0  0
 24 25  1  0  0  0  0
 24 53  1  0  0  0  0
 24 54  1  0  0  0  0
 25 26  1  0  0  0  0
 26 55  1  0  0  0  0
 26 56  1  0  0  0  0
 27 28  1  0  0  0  0
 27 29  1  0  0  0  0
 28 57  1  0  0  0  0
 28 58  1  0  0  0  0
 28 59  1  0  0  0  0
 29 60  1  0  0  0  0
 29 61  1  0  0  0  0
M  END
> <s_m_source_file>
AV-unprocessed.smi

> <i_m_source_file_index>
21

> <i_lp_mmshare_version>
43012

> <i_f3d_flags>
0

> <s_epik_input>
W0NIM11PW0NASF0xW0NIMl1bQ0BIXShOKFtDSDNdKVtDSDJdMSlbQ0gyXU4oW0NIM10pYyhuW2NIXW4yKWMoYzIzKW5bY0hdbjNbQ0gyXVtDQEhdKFtDSDJdW09IXSlbQ0BASF00W0NIMl1bQ0gyXU9bQ0gyXTQ=

> <s_epik_cmdline>
J2VwaWtfcHl0aG9uJywgJy1waCcsICc3LjAnLCAnLXRuJywgJzgnLCAnLW1hJywgJzIwMCcsICctbWV0YWxfYmluZGluZycsICctaW1hZScsICc8aW5maWxlLm1hZT4nLCAnLW9tYWUnLCAnPG91dGZpbGUubWFlPic=

> <r_lp_tautomer_probability>
1

> <r_epik_Ionization_Penalty>
2.17574

> <r_epik_Ionization_Penalty_Charging>
0

> <r_epik_Ionization_Penalty_Neutral>
2.17574

> <r_epik_State_Penalty>
2.31336

> <r_epik_Charging_Adjusted_Penalty>
2.31336

> <i_epik_Tot_Q>
0

> <i_epik_Tot_abs_Q>
0

> <r_epik_Metal_State_Penalty>
2.31025

> <b_epik_Metal_Only>
0

> <s_lp_Force_Field>
OPLS_2005

> <r_lp_Energy>
69.6605

> <b_lp_Chiralities_Consistent>
1

> <s_lp_Variant>
AV-unprocessed.smi:21-43

> <Gold.Version>
5.8.1

> <Gold.Id.Protein>
6NUR|6NUR_protein|mol2

> <Gold.PLP.Fitness>
44.3713

> <Gold.PLP.PLP>
-38.5442

> <Gold.PLP.part.hbond>
-2.8177

> <Gold.PLP.part.metal>
0.0000

> <Gold.PLP.part.buried>
-4.0326

> <Gold.PLP.part.nonpolar>
-31.7945

> <Gold.PLP.part.repulsive>
0.2171

> <Gold.PLP.ligand.clash>
0.0000

> <Gold.PLP.ligand.torsion>
0.4984

> <Gold.PLP.Chemscore.Hbond>
1.0000

> <Gold.PLP.Chemscore.CHOScore>
1.0000

> <Gold.PLP.Chemscore.Metal>
0.0000

> <Gold.Chemscore.Hbonds>
donor molecule, donor type, donor heavy atom, donor atom, acceptor molecule, acceptor atom, score
      L1  H    21    49       P1 10175  0.60
      P1  H  7989  7998       L1    15  0.86

> <Gold.PLP.Chemscore.Internal.Correction>
0.8239

> <Gold.Rescore>
     Score         DG    S(hbond)    S(metal)    S(lipo)     H(rot)  DE(clash)    DE(int)     intcor
     10.45     -13.15       0.99        0.00     103.14       3.00       0.53       2.18       ----

> <Gold.Chemscore.Fitness>
10.4469

> <Gold.Chemscore.DG>
-13.1534

> <Gold.Chemscore.ZeroCoef>
-5.4800

> <Gold.Chemscore.Hbond>
0.9863

> <Gold.Chemscore.Metal>
0.0000

> <Gold.Chemscore.Lipo>
103.1366

> <Gold.Chemscore.Internal_Hbond>
0.0000

> <Gold.Chemscore.DEClash>
0.5307

> <Gold.Chemscore.DEInternal>
2.1758

> <Gold.Chemscore.Rot>
3.0031

> <Gold.Chemscore.Internal.Correction>
   9.000000E+99

> <Gold.Chemscore.Hbonds>
donor molecule, donor type, donor heavy atom, donor atom, acceptor molecule, acceptor atom, score
      L1  H    21    49       P1 10175  0.04
      P1  H  7989  7998       L1    15  0.42

> <Gold.Chemscore.Hbond.Weighted>
-3.2944

> <Gold.Chemscore.Metal.Weighted>
-0.0000

> <Gold.Chemscore.Lipo.Weighted>
-12.0670

> <Gold.Chemscore.Internal_Hbond.Weighted>
0.0000

> <Gold.Chemscore.DEClash.Weighted>
0.5307

> <Gold.Chemscore.DEInternal.Weighted>
2.1758

> <Gold.Chemscore.Rot.Weighted>
7.6880

> <Gold.Chemscore.Internal.Correction.Weighted>
   9.000000E+99

> <Gold.Protein.RotatedTorsions>
[ 6907 6896 6895 6894 ] final -127.37 input  -60.11 | X-H torsion
[ 7974 7965 7964 7962 ] final    2.09 input  175.53 | X-H torsion
[ 8008 7997 7996 7995 ] final    4.12 input   59.86 | X-H torsion
[ 10167 10162 10161 10158 ] final  154.30 input  -65.29 | X-H torsion
[ 10718 10713 10712 10709 ] final  -63.43 input   66.30 | X-H torsion
[ 10763 10752 10751 10750 ] final   52.44 input  -60.55 | X-H torsion
[ 11005 11000 10999 10996 ] final   46.13 input  -57.11 | X-H torsion

> <Gold.Protein.ActiveResidues>
 VAL166  LYS551  ARG553  GLY616  TRP617  ASP618  TYR619  PRO620  LYS621  CYS622 
 ASP623  PHE694  ASN695  SER759  ASP760  ASP761  ALA762  ILE779  LEU786  VAL792 
 PHE793  MET794  SER795  GLU796  ALA797  LYS798  CYS799  TRP800  GLU811  SER814 

> <Gold.Protein.RotatedAtoms>
  150.9066  133.7051  159.2865 H   0  0  0  0  0  0  0  0  0  0  0  0  # atno 6907 bound_to 6896
  151.4551  135.1032  159.9718 H   0  0  0  0  0  0  0  0  0  0  0  0  # atno 6908 bound_to 6896
  152.4907  133.8442  159.7223 H   0  0  0  0  0  0  0  0  0  0  0  0  # atno 6909 bound_to 6896
  146.2443  140.0888  142.8353 H   0  0  0  0  0  0  0  0  0  0  0  0  # atno 7974 bound_to 7965
  154.7120  140.2694  155.6620 H   0  0  0  0  0  0  0  0  0  0  0  0  # atno 8008 bound_to 7997
  156.2798  140.2751  156.1689 H   0  0  0  0  0  0  0  0  0  0  0  0  # atno 8009 bound_to 7997
  155.0622  140.0371  157.2570 H   0  0  0  0  0  0  0  0  0  0  0  0  # atno 8010 bound_to 7997
  139.4824  144.5199  151.7893 H   0  0  0  0  0  0  0  0  0  0  0  0  # atno 10167 bound_to 10162
  156.0791  130.4220  150.1276 H   0  0  0  0  0  0  0  0  0  0  0  0  # atno 10718 bound_to 10713
  152.9789  135.5812  154.4579 H   0  0  0  0  0  0  0  0  0  0  0  0  # atno 10763 bound_to 10752
  154.4159  135.2771  155.2009 H   0  0  0  0  0  0  0  0  0  0  0  0  # atno 10764 bound_to 10752
  154.3779  135.6153  153.5829 H   0  0  0  0  0  0  0  0  0  0  0  0  # atno 10765 bound_to 10752
  140.1396  134.4600  155.8459 H   0  0  0  0  0  0  0  0  0  0  0  0  # atno 11005 bound_to 11000
  145.0669  140.9127  143.4905 LP  0  0  0  0  0  0  0  0  0  0  0  0  # atno 17320 bound_to 7965
  145.1014  139.2820  143.5684 LP  0  0  0  0  0  0  0  0  0  0  0  0  # atno 17321 bound_to 7965
  140.4711  144.1585  150.5918 LP  0  0  0  0  0  0  0  0  0  0  0  0  # atno 17342 bound_to 10162
  140.4381  143.2538  151.9509 LP  0  0  0  0  0  0  0  0  0  0  0  0  # atno 17343 bound_to 10162
  156.9311  130.9714  151.3533 LP  0  0  0  0  0  0  0  0  0  0  0  0  # atno 17370 bound_to 10713
  157.5901  130.8437  149.8646 LP  0  0  0  0  0  0  0  0  0  0  0  0  # atno 17371 bound_to 10713
  141.2184  133.6828  156.7223 LP  0  0  0  0  0  0  0  0  0  0  0  0  # atno 17394 bound_to 11000
  140.2738  134.8371  157.3872 LP  0  0  0  0  0  0  0  0  0  0  0  0  # atno 17395 bound_to 11000

$$$$
