AV-unprocessed.smi:1373|AV-procd|sdf|5586|dock4
  -GOLD-   22720 5183D 1   1.00000     0.00000
 Structure written by MMmdl.
 42 43  0  0  0  0  0  0  0  0  1 V2000
  151.4580  145.2081  159.7568 C   0  0  0  0  0  0  0  0  0  0  0  0
  151.7277  143.8628  159.0736 C   0  0  0  0  0  0  0  0  0  0  0  0
  151.0258  143.7411  157.7141 C   0  0  0  0  0  0  0  0  0  0  0  0
  150.7854  142.2792  157.3058 C   0  0  0  0  0  0  0  0  0  0  0  0
  149.9942  142.1910  156.0846 N   0  0  0  0  0  0  0  0  0  0  0  0
  149.9538  141.1297  155.2621 C   0  0  0  0  0  0  0  0  0  0  0  0
  150.5855  140.0931  155.4663 O   0  0  0  0  0  0  0  0  0  0  0  0
  149.0502  141.2415  154.0299 C   0  0  0  0  0  0  0  0  0  0  0  0
  147.6557  141.6277  154.4115 C   0  0  0  0  0  0  0  0  0  0  0  0
  146.8894  140.8253  155.1419 N   0  0  0  0  0  0  0  0  0  0  0  0
  145.6819  141.5316  155.2410 O   0  0  0  0  0  0  0  0  0  0  0  0
  145.8725  142.6857  154.5581 C   0  0  0  0  0  0  0  0  0  0  0  0
  144.7424  143.6568  154.4458 C   0  0  0  0  0  0  0  0  0  0  0  0
  145.0981  144.8865  153.7398 N   0  0  0  0  0  0  0  0  0  0  0  0
  145.6203  144.5970  152.4094 C   0  0  0  0  0  0  0  0  0  0  0  0
  146.0032  145.8804  151.6521 C   0  0  0  0  0  0  0  0  0  0  0  0
  144.8731  146.7436  151.5753 O   0  0  0  0  0  0  0  0  0  0  0  0
  144.3582  147.0895  152.8571 C   0  0  0  0  0  0  0  0  0  0  0  0
  143.9717  145.8111  153.6210 C   0  0  0  0  0  0  0  0  0  0  0  0
  147.0883  142.8066  154.0318 N   0  0  0  0  0  0  0  0  0  0  0  0
  151.9634  145.2627  160.7214 H   0  0  0  0  0  0  0  0  0  0  0  0
  150.3916  145.3542  159.9316 H   0  0  0  0  0  0  0  0  0  0  0  0
  151.8151  146.0381  159.1465 H   0  0  0  0  0  0  0  0  0  0  0  0
  152.8031  143.7354  158.9443 H   0  0  0  0  0  0  0  0  0  0  0  0
  151.3976  143.0552  159.7280 H   0  0  0  0  0  0  0  0  0  0  0  0
  150.0739  144.2727  157.7523 H   0  0  0  0  0  0  0  0  0  0  0  0
  151.6259  144.2369  156.9500 H   0  0  0  0  0  0  0  0  0  0  0  0
  151.7391  141.7819  157.1262 H   0  0  0  0  0  0  0  0  0  0  0  0
  150.2971  141.7303  158.1130 H   0  0  0  0  0  0  0  0  0  0  0  0
  149.4399  142.9996  155.8415 H   0  0  0  0  0  0  0  0  0  0  0  0
  149.4575  141.9791  153.3366 H   0  0  0  0  0  0  0  0  0  0  0  0
  149.0370  140.2857  153.5046 H   0  0  0  0  0  0  0  0  0  0  0  0
  143.9285  143.1547  153.9214 H   0  0  0  0  0  0  0  0  0  0  0  0
  144.3728  143.8875  155.4462 H   0  0  0  0  0  0  0  0  0  0  0  0
  146.4947  143.9503  152.4875 H   0  0  0  0  0  0  0  0  0  0  0  0
  144.8761  144.0470  151.8310 H   0  0  0  0  0  0  0  0  0  0  0  0
  146.8276  146.3920  152.1514 H   0  0  0  0  0  0  0  0  0  0  0  0
  146.3384  145.6400  150.6432 H   0  0  0  0  0  0  0  0  0  0  0  0
  145.1024  147.6612  153.4138 H   0  0  0  0  0  0  0  0  0  0  0  0
  143.4877  147.7332  152.7311 H   0  0  0  0  0  0  0  0  0  0  0  0
  143.1428  145.3206  153.1083 H   0  0  0  0  0  0  0  0  0  0  0  0
  143.6055  146.0909  154.6090 H   0  0  0  0  0  0  0  0  0  0  0  0
  1  2  1  0  0  0  0
  1 21  1  0  0  0  0
  1 22  1  0  0  0  0
  1 23  1  0  0  0  0
  2  3  1  0  0  0  0
  2 24  1  0  0  0  0
  2 25  1  0  0  0  0
  3  4  1  0  0  0  0
  3 26  1  0  0  0  0
  3 27  1  0  0  0  0
  4  5  1  0  0  0  0
  4 28  1  0  0  0  0
  4 29  1  0  0  0  0
  5  6  1  0  0  0  0
  5 30  1  0  0  0  0
  6  7  2  0  0  0  0
  6  8  1  0  0  0  0
  8  9  1  0  0  0  0
  8 31  1  0  0  0  0
  8 32  1  0  0  0  0
  9 20  1  0  0  0  0
  9 10  2  0  0  0  0
 10 11  1  0  0  0  0
 11 12  1  0  0  0  0
 12 13  1  0  0  0  0
 12 20  2  0  0  0  0
 13 14  1  0  0  0  0
 13 33  1  0  0  0  0
 13 34  1  0  0  0  0
 14 19  1  0  0  0  0
 14 15  1  0  0  0  0
 15 16  1  0  0  0  0
 15 35  1  0  0  0  0
 15 36  1  0  0  0  0
 16 17  1  0  0  0  0
 16 37  1  0  0  0  0
 16 38  1  0  0  0  0
 17 18  1  0  0  0  0
 18 19  1  0  0  0  0
 18 39  1  0  0  0  0
 18 40  1  0  0  0  0
 19 41  1  0  0  0  0
 19 42  1  0  0  0  0
M  END
> <s_m_source_file>
AV-unprocessed.smi

> <i_m_source_file_index>
1373

> <i_lp_mmshare_version>
43012

> <i_f3d_flags>
0

> <s_epik_input>
W0NIM11bQ0gyXVtDSDJdW0NIMl1bTkhdQyg9TylbQ0gyXWMxbm9jKG4xKVtDSDJdTjJbQ0gyXVtDSDJdT1tDSDJdW0NIMl0y

> <s_epik_cmdline>
J2VwaWtfcHl0aG9uJywgJy1waCcsICc3LjAnLCAnLXRuJywgJzgnLCAnLW1hJywgJzIwMCcsICctbWV0YWxfYmluZGluZycsICctaW1hZScsICc8aW5maWxlLm1hZT4nLCAnLW9tYWUnLCAnPG91dGZpbGUubWFlPic=

> <r_lp_tautomer_probability>
1

> <r_epik_Ionization_Penalty>
0.0010147

> <r_epik_Ionization_Penalty_Charging>
0

> <r_epik_Ionization_Penalty_Neutral>
0.0010147

> <r_epik_State_Penalty>
0.00066205

> <r_epik_Charging_Adjusted_Penalty>
0.00066205

> <i_epik_Tot_Q>
0

> <i_epik_Tot_abs_Q>
0

> <r_epik_Metal_State_Penalty>
-0

> <b_epik_Metal_Only>
0

> <s_lp_Force_Field>
OPLS_2005

> <r_lp_Energy>
19.0751

> <b_lp_Chiralities_Consistent>
1

> <s_lp_Variant>
AV-unprocessed.smi:1373-1

> <Gold.Version>
5.8.1

> <Gold.Id.Protein>
6NUR|6NUR_protein|mol2

> <Gold.PLP.Fitness>
43.9044

> <Gold.PLP.PLP>
-40.1384

> <Gold.PLP.part.hbond>
-4.0000

> <Gold.PLP.part.metal>
0.0000

> <Gold.PLP.part.buried>
-2.6951

> <Gold.PLP.part.nonpolar>
-33.6852

> <Gold.PLP.part.repulsive>
1.8386

> <Gold.PLP.ligand.clash>
0.0000

> <Gold.PLP.ligand.torsion>
0.3700

> <Gold.PLP.Chemscore.Hbond>
1.4809

> <Gold.PLP.Chemscore.CHOScore>
0.0000

> <Gold.PLP.Chemscore.Metal>
0.0000

> <Gold.Chemscore.Hbonds>
donor molecule, donor type, donor heavy atom, donor atom, acceptor molecule, acceptor atom, score
      L1  H     5    30       P1  8028  1.00

> <Gold.PLP.Chemscore.Internal.Correction>
0.0632

> <Gold.Rescore>
     Score         DG    S(hbond)    S(metal)    S(lipo)     H(rot)  DE(clash)    DE(int)     intcor
     11.22     -12.43       1.00        0.00      81.07       2.29       0.21       1.01       ----

> <Gold.Chemscore.Fitness>
11.2164

> <Gold.Chemscore.DG>
-12.4327

> <Gold.Chemscore.ZeroCoef>
-5.4800

> <Gold.Chemscore.Hbond>
0.9979

> <Gold.Chemscore.Metal>
0.0000

> <Gold.Chemscore.Lipo>
81.0707

> <Gold.Chemscore.Internal_Hbond>
0.0000

> <Gold.Chemscore.DEClash>
0.2081

> <Gold.Chemscore.DEInternal>
1.0082

> <Gold.Chemscore.Rot>
2.2912

> <Gold.Chemscore.Internal.Correction>
   9.000000E+99

> <Gold.Chemscore.Hbonds>
donor molecule, donor type, donor heavy atom, donor atom, acceptor molecule, acceptor atom, score
      L1  H     5    30       P1  8028  1.00
      P1  H  8022  8030       L1    20  0.01

> <Gold.Chemscore.Hbond.Weighted>
-3.3329

> <Gold.Chemscore.Metal.Weighted>
-0.0000

> <Gold.Chemscore.Lipo.Weighted>
-9.4853

> <Gold.Chemscore.Internal_Hbond.Weighted>
0.0000

> <Gold.Chemscore.DEClash.Weighted>
0.2081

> <Gold.Chemscore.DEInternal.Weighted>
1.0082

> <Gold.Chemscore.Rot.Weighted>
5.8654

> <Gold.Chemscore.Internal.Correction.Weighted>
   9.000000E+99

> <Gold.Protein.RotatedTorsions>
[ 6907 6896 6895 6894 ] final  141.70 input  -60.11 | X-H torsion
[ 7974 7965 7964 7962 ] final   27.30 input  175.53 | X-H torsion
[ 8008 7997 7996 7995 ] final -163.49 input   59.86 | X-H torsion
[ 10167 10162 10161 10158 ] final   99.47 input  -65.29 | X-H torsion
[ 10718 10713 10712 10709 ] final  -21.55 input   66.30 | X-H torsion
[ 10763 10752 10751 10750 ] final -160.23 input  -60.55 | X-H torsion
[ 11005 11000 10999 10996 ] final -128.77 input  -57.11 | X-H torsion

> <Gold.Protein.ActiveResidues>
 VAL166  LYS551  ARG553  GLY616  TRP617  ASP618  TYR619  PRO620  LYS621  CYS622 
 ASP623  PHE694  ASN695  SER759  ASP760  ASP761  ALA762  ILE779  LEU786  VAL792 
 PHE793  MET794  SER795  GLU796  ALA797  LYS798  CYS799  TRP800  GLU811  SER814 

> <Gold.Protein.RotatedAtoms>
  152.2277  133.5033  159.5198 H   0  0  0  0  0  0  0  0  0  0  0  0  # atno 6907 bound_to 6896
  150.7029  134.1257  159.4060 H   0  0  0  0  0  0  0  0  0  0  0  0  # atno 6908 bound_to 6896
  151.9179  135.0311  160.0570 H   0  0  0  0  0  0  0  0  0  0  0  0  # atno 6909 bound_to 6896
  146.1791  139.7210  142.8913 H   0  0  0  0  0  0  0  0  0  0  0  0  # atno 7974 bound_to 7965
  155.8221  140.0921  157.1843 H   0  0  0  0  0  0  0  0  0  0  0  0  # atno 8008 bound_to 7997
  154.3979  140.1435  156.3572 H   0  0  0  0  0  0  0  0  0  0  0  0  # atno 8009 bound_to 7997
  155.8255  140.3444  155.5543 H   0  0  0  0  0  0  0  0  0  0  0  0  # atno 8010 bound_to 7997
  139.7614  144.6953  151.0287 H   0  0  0  0  0  0  0  0  0  0  0  0  # atno 10167 bound_to 10162
  156.5166  130.4622  149.6619 H   0  0  0  0  0  0  0  0  0  0  0  0  # atno 10718 bound_to 10713
  154.7408  135.3068  154.8731 H   0  0  0  0  0  0  0  0  0  0  0  0  # atno 10763 bound_to 10752
  153.9546  135.6760  153.4748 H   0  0  0  0  0  0  0  0  0  0  0  0  # atno 10764 bound_to 10752
  153.1007  135.4913  154.8786 H   0  0  0  0  0  0  0  0  0  0  0  0  # atno 10765 bound_to 10752
  140.9488  134.1094  157.4082 H   0  0  0  0  0  0  0  0  0  0  0  0  # atno 11005 bound_to 11000
  145.4126  141.0398  143.3008 LP  0  0  0  0  0  0  0  0  0  0  0  0  # atno 17320 bound_to 7965
  144.8285  139.5668  143.6954 LP  0  0  0  0  0  0  0  0  0  0  0  0  # atno 17321 bound_to 7965
  140.7807  143.4692  151.0169 LP  0  0  0  0  0  0  0  0  0  0  0  0  # atno 17342 bound_to 10162
  139.8378  143.7604  152.3180 LP  0  0  0  0  0  0  0  0  0  0  0  0  # atno 17343 bound_to 10162
  156.3189  130.7269  151.2177 LP  0  0  0  0  0  0  0  0  0  0  0  0  # atno 17370 bound_to 10713
  157.7443  131.0461  150.4876 LP  0  0  0  0  0  0  0  0  0  0  0  0  # atno 17371 bound_to 10713
  139.8841  135.0059  156.6347 LP  0  0  0  0  0  0  0  0  0  0  0  0  # atno 17394 bound_to 11000
  140.7632  133.8800  155.8434 LP  0  0  0  0  0  0  0  0  0  0  0  0  # atno 17395 bound_to 11000

$$$$
