AV-unprocessed.smi:2774|AV-procd|sdf|10683|dock8
  -GOLD-   2272015123D 1   1.00000     0.00000
 Structure written by MMmdl.
 35 36  0  0  0  0  0  0  0  0  2 V2000
  148.4988  141.0997  155.5837 O   0  0  0  0  0  0  0  0  0  0  0  0
  149.8800  141.4028  155.5940 C   0  0  1  0  0  0  0  0  0  0  0  0
  150.2414  142.0093  156.9614 C   0  0  0  0  0  0  0  0  0  0  0  0
  151.0853  143.2149  156.8116 N   0  3  0  0  0  0  0  0  0  0  0  0
  151.8819  143.5808  158.0037 C   0  0  1  0  0  0  0  0  0  0  0  0
  151.1048  144.6188  158.8370 C   0  0  0  0  0  0  0  0  0  0  0  0
  151.8979  145.1247  160.0535 C   0  0  0  0  0  0  0  0  0  0  0  0
  152.2475  143.9980  161.0347 C   0  0  0  0  0  0  0  0  0  0  0  0
  153.2980  142.7491  160.2461 S   0  0  0  0  0  0  0  0  0  0  0  0
  152.2238  142.3337  158.8452 C   0  0  0  0  0  0  0  0  0  0  0  0
  150.7222  140.1727  155.2955 C   0  0  0  0  0  0  0  0  0  0  0  0
  150.3553  139.2846  154.2626 C   0  0  0  0  0  0  0  0  0  0  0  0
  151.1700  138.1604  154.0195 C   0  0  0  0  0  0  0  0  0  0  0  0
  152.2890  137.8892  154.7246 N   0  0  0  0  0  0  0  0  0  0  0  0
  152.6360  138.7422  155.7118 C   0  0  0  0  0  0  0  0  0  0  0  0
  151.8911  139.8935  156.0363 C   0  0  0  0  0  0  0  0  0  0  0  0
  148.0298  141.8277  155.9636 H   0  0  0  0  0  0  0  0  0  0  0  0
  150.0581  142.1438  154.8131 H   0  0  0  0  0  0  0  0  0  0  0  0
  149.3341  142.2497  157.5154 H   0  0  0  0  0  0  0  0  0  0  0  0
  150.7902  141.2747  157.5524 H   0  0  0  0  0  0  0  0  0  0  0  0
  151.7281  143.0374  156.0533 H   0  0  0  0  0  0  0  0  0  0  0  0
  152.8069  144.0476  157.6611 H   0  0  0  0  0  0  0  0  0  0  0  0
  150.8492  145.4721  158.2073 H   0  0  0  0  0  0  0  0  0  0  0  0
  150.1575  144.1938  159.1719 H   0  0  0  0  0  0  0  0  0  0  0  0
  152.8112  145.6192  159.7204 H   0  0  0  0  0  0  0  0  0  0  0  0
  151.3130  145.8839  160.5735 H   0  0  0  0  0  0  0  0  0  0  0  0
  152.7729  144.4007  161.9010 H   0  0  0  0  0  0  0  0  0  0  0  0
  151.3404  143.5191  161.4048 H   0  0  0  0  0  0  0  0  0  0  0  0
  151.3144  141.8657  159.2242 H   0  0  0  0  0  0  0  0  0  0  0  0
  152.7414  141.5832  158.2488 H   0  0  0  0  0  0  0  0  0  0  0  0
  149.4704  139.4541  153.6669 H   0  0  0  0  0  0  0  0  0  0  0  0
  150.9166  137.4612  153.2364 H   0  0  0  0  0  0  0  0  0  0  0  0
  153.5353  138.5013  156.2592 H   0  0  0  0  0  0  0  0  0  0  0  0
  152.2141  140.5448  156.8353 H   0  0  0  0  0  0  0  0  0  0  0  0
  150.4993  143.9972  156.5561 H   0  0  0  0  0  0  0  0  0  0  0  0
  1  2  1  0  0  0  0
  1 17  1  0  0  0  0
  2  3  1  0  0  0  0
  2 11  1  0  0  0  0
  2 18  1  0  0  0  0
  3  4  1  0  0  0  0
  3 19  1  0  0  0  0
  3 20  1  0  0  0  0
  4  5  1  0  0  0  0
  4 21  1  0  0  0  0
  4 35  1  0  0  0  0
  5 10  1  0  0  0  0
  5  6  1  0  0  0  0
  5 22  1  0  0  0  0
  6  7  1  0  0  0  0
  6 23  1  0  0  0  0
  6 24  1  0  0  0  0
  7  8  1  0  0  0  0
  7 25  1  0  0  0  0
  7 26  1  0  0  0  0
  8  9  1  0  0  0  0
  8 27  1  0  0  0  0
  8 28  1  0  0  0  0
  9 10  1  0  0  0  0
 10 29  1  0  0  0  0
 10 30  1  0  0  0  0
 11 16  1  0  0  0  0
 11 12  2  0  0  0  0
 12 13  1  0  0  0  0
 12 31  1  0  0  0  0
 13 14  2  0  0  0  0
 13 32  1  0  0  0  0
 14 15  1  0  0  0  0
 15 16  2  0  0  0  0
 15 33  1  0  0  0  0
 16 34  1  0  0  0  0
M  CHG  1   4   1
M  END
> <s_m_source_file>
AV-unprocessed.smi

> <i_m_source_file_index>
2774

> <i_lp_mmshare_version>
43012

> <i_f3d_flags>
0

> <s_epik_input>
W2NIXTFbY0hdbltjSF1bY0hdYzFbQ0BIXShbT0hdKVtDSDJdW05IXVtDQEBIXTJbQ0gyXVtDSDJdW0NIMl1TW0NIMl0y

> <s_epik_cmdline>
J2VwaWtfcHl0aG9uJywgJy1waCcsICc3LjAnLCAnLXRuJywgJzgnLCAnLW1hJywgJzIwMCcsICctbWV0YWxfYmluZGluZycsICctaW1hZScsICc8aW5maWxlLm1hZT4nLCAnLW9tYWUnLCAnPG91dGZpbGUubWFlPic=

> <r_epik_Ionization_Penalty>
0.0205977

> <r_epik_Ionization_Penalty_Charging>
0.0185619

> <r_epik_Ionization_Penalty_Neutral>
0.00203589

> <r_epik_State_Penalty>
0.0147768

> <r_epik_Charging_Adjusted_Penalty>
0.0333386

> <i_epik_Tot_Q>
1

> <i_epik_Tot_abs_Q>
1

> <r_epik_Metal_State_Penalty>
0.0152254

> <b_epik_Metal_Only>
0

> <s_lp_Force_Field>
OPLS_2005

> <r_lp_Energy>
9.96731

> <b_lp_Chiralities_Consistent>
1

> <s_lp_Variant>
AV-unprocessed.smi:2774-4

> <Gold.Version>
5.8.1

> <Gold.Id.Protein>
6NUR|6NUR_protein|mol2

> <Gold.PLP.Fitness>
49.3714

> <Gold.PLP.PLP>
-42.4120

> <Gold.PLP.part.hbond>
-1.8732

> <Gold.PLP.part.metal>
0.0000

> <Gold.PLP.part.buried>
-3.9084

> <Gold.PLP.part.nonpolar>
-36.8174

> <Gold.PLP.part.repulsive>
0.1029

> <Gold.PLP.ligand.clash>
0.0000

> <Gold.PLP.ligand.torsion>
1.5764

> <Gold.PLP.Chemscore.Hbond>
2.2402

> <Gold.PLP.Chemscore.CHOScore>
1.1267

> <Gold.PLP.Chemscore.Metal>
0.0000

> <Gold.Chemscore.Hbonds>
donor molecule, donor type, donor heavy atom, donor atom, acceptor molecule, acceptor atom, score
      L1  H     4    35       P1  8028  2.00
      P1  H 10752 10765       L1    14  0.14
      L1  C    13    32       P1  7948  0.14
      L1  C    13    32       P1  7949  0.96

> <Gold.PLP.Chemscore.Internal.Correction>
0.0112

> <Gold.Rescore>
     Score         DG    S(hbond)    S(metal)    S(lipo)     H(rot)  DE(clash)    DE(int)     intcor
     18.75     -20.08       1.80        0.00     116.42       1.97       0.04       1.29       ----

> <Gold.Chemscore.Fitness>
18.7496

> <Gold.Chemscore.DG>
-20.0797

> <Gold.Chemscore.ZeroCoef>
-5.4800

> <Gold.Chemscore.Hbond>
1.8019

> <Gold.Chemscore.Metal>
0.0000

> <Gold.Chemscore.Lipo>
116.4171

> <Gold.Chemscore.Internal_Hbond>
0.0000

> <Gold.Chemscore.DEClash>
0.0376

> <Gold.Chemscore.DEInternal>
1.2924

> <Gold.Chemscore.Rot>
1.9686

> <Gold.Chemscore.Internal.Correction>
   9.000000E+99

> <Gold.Chemscore.Hbonds>
donor molecule, donor type, donor heavy atom, donor atom, acceptor molecule, acceptor atom, score
      L1  H     4    35       P1  8028  0.95
      P1  H 10752 10765       L1    14  0.12

> <Gold.Chemscore.Hbond.Weighted>
-6.0185

> <Gold.Chemscore.Metal.Weighted>
-0.0000

> <Gold.Chemscore.Lipo.Weighted>
-13.6208

> <Gold.Chemscore.Internal_Hbond.Weighted>
0.0000

> <Gold.Chemscore.DEClash.Weighted>
0.0376

> <Gold.Chemscore.DEInternal.Weighted>
1.2924

> <Gold.Chemscore.Rot.Weighted>
5.0396

> <Gold.Chemscore.Internal.Correction.Weighted>
   9.000000E+99

> <Gold.Protein.RotatedTorsions>
[ 6907 6896 6895 6894 ] final  -53.96 input  -60.11 | X-H torsion
[ 7974 7965 7964 7962 ] final  -27.20 input  175.53 | X-H torsion
[ 8008 7997 7996 7995 ] final  -31.25 input   59.86 | X-H torsion
[ 10167 10162 10161 10158 ] final   41.06 input  -65.29 | X-H torsion
[ 10718 10713 10712 10709 ] final  -57.29 input   66.30 | X-H torsion
[ 10763 10752 10751 10750 ] final  167.50 input  -60.55 | X-H torsion
[ 11005 11000 10999 10996 ] final  -33.23 input  -57.11 | X-H torsion

> <Gold.Protein.ActiveResidues>
 VAL166  LYS551  ARG553  GLY616  TRP617  ASP618  TYR619  PRO620  LYS621  CYS622 
 ASP623  PHE694  ASN695  SER759  ASP760  ASP761  ALA762  ILE779  LEU786  VAL792 
 PHE793  MET794  SER795  GLU796  ALA797  LYS798  CYS799  TRP800  GLU811  SER814 

> <Gold.Protein.RotatedAtoms>
  150.8380  134.7661  159.6908 H   0  0  0  0  0  0  0  0  0  0  0  0  # atno 6907 bound_to 6896
  152.4473  134.5464  159.9864 H   0  0  0  0  0  0  0  0  0  0  0  0  # atno 6908 bound_to 6896
  151.5610  133.3365  159.3007 H   0  0  0  0  0  0  0  0  0  0  0  0  # atno 6909 bound_to 6896
  146.1374  140.5121  142.8667 H   0  0  0  0  0  0  0  0  0  0  0  0  # atno 7974 bound_to 7965
  154.4220  140.1769  156.1536 H   0  0  0  0  0  0  0  0  0  0  0  0  # atno 8008 bound_to 7997
  155.9895  140.3370  155.6715 H   0  0  0  0  0  0  0  0  0  0  0  0  # atno 8009 bound_to 7997
  155.6392  140.0678  157.2615 H   0  0  0  0  0  0  0  0  0  0  0  0  # atno 8010 bound_to 7997
  140.3681  144.2141  150.6134 H   0  0  0  0  0  0  0  0  0  0  0  0  # atno 10167 bound_to 10162
  156.1222  130.4165  150.0421 H   0  0  0  0  0  0  0  0  0  0  0  0  # atno 10718 bound_to 10713
  154.3548  135.2753  155.2352 H   0  0  0  0  0  0  0  0  0  0  0  0  # atno 10763 bound_to 10752
  154.4566  135.5917  153.6231 H   0  0  0  0  0  0  0  0  0  0  0  0  # atno 10764 bound_to 10752
  152.9847  135.6055  154.3762 H   0  0  0  0  0  0  0  0  0  0  0  0  # atno 10765 bound_to 10752
  140.9617  133.7160  156.1380 H   0  0  0  0  0  0  0  0  0  0  0  0  # atno 11005 bound_to 11000
  144.7754  140.5728  143.6641 LP  0  0  0  0  0  0  0  0  0  0  0  0  # atno 17320 bound_to 7965
  145.5126  139.1479  143.3596 LP  0  0  0  0  0  0  0  0  0  0  0  0  # atno 17321 bound_to 7965
  140.5061  143.2304  151.8606 LP  0  0  0  0  0  0  0  0  0  0  0  0  # atno 17342 bound_to 10162
  139.4806  144.5004  151.9068 LP  0  0  0  0  0  0  0  0  0  0  0  0  # atno 17343 bound_to 10162
  156.8356  130.9408  151.3635 LP  0  0  0  0  0  0  0  0  0  0  0  0  # atno 17370 bound_to 10713
  157.6405  130.8801  149.9439 LP  0  0  0  0  0  0  0  0  0  0  0  0  # atno 17371 bound_to 10713
  140.7457  134.4100  157.5548 LP  0  0  0  0  0  0  0  0  0  0  0  0  # atno 17394 bound_to 11000
  139.8880  134.8866  156.2495 LP  0  0  0  0  0  0  0  0  0  0  0  0  # atno 17395 bound_to 11000

$$$$
