AV-unprocessed.smi:576|AV-procd|sdf|2979|dock5
  -GOLD-   2262023493D 1   1.00000     0.00000
 Structure written by MMmdl.
 35 36  0  0  0  0  0  0  0  0  1 V2000
  147.6611  139.7451  153.4929 C   0  0  0  0  0  0  0  0  0  0  0  0
  147.9141  140.4982  154.8064 C   0  0  1  0  0  0  0  0  0  0  0  0
  149.2901  140.2546  155.2266 N   0  0  0  0  0  0  0  0  0  0  0  0
  149.7587  140.3931  156.4762 C   0  0  0  0  0  0  0  0  0  0  0  0
  149.0530  140.7206  157.4312 O   0  0  0  0  0  0  0  0  0  0  0  0
  151.2521  140.0960  156.6711 C   0  0  0  0  0  0  0  0  0  0  0  0
  151.8211  140.7505  157.8612 N   0  0  0  0  0  0  0  0  0  0  0  0
  151.6316  142.1412  157.9831 C   0  0  0  0  0  0  0  0  0  0  0  0
  152.1177  142.8598  159.0134 C   0  0  0  0  0  0  0  0  0  0  0  0
  151.8530  144.3519  159.1417 C   0  0  0  0  0  0  0  0  0  0  0  0
  152.5098  145.0394  158.2070 F   0  0  0  0  0  0  0  0  0  0  0  0
  150.5511  144.5951  158.9986 F   0  0  0  0  0  0  0  0  0  0  0  0
  152.2306  144.8055  160.3375 F   0  0  0  0  0  0  0  0  0  0  0  0
  152.8322  142.1203  160.0356 C   0  0  0  0  0  0  0  0  0  0  0  0
  153.0171  140.7891  159.9376 C   0  0  0  0  0  0  0  0  0  0  0  0
  152.5041  140.0256  158.7977 C   0  0  0  0  0  0  0  0  0  0  0  0
  152.6758  138.8109  158.6920 O   0  0  0  0  0  0  0  0  0  0  0  0
  147.5819  141.9737  154.6570 C   0  0  0  0  0  0  0  0  0  0  0  0
  146.3363  142.5678  155.2718 C   0  0  0  0  0  0  0  0  0  0  0  0
  146.4464  142.4283  153.7708 C   0  0  0  0  0  0  0  0  0  0  0  0
  146.6258  139.8567  153.1696 H   0  0  0  0  0  0  0  0  0  0  0  0
  147.8550  138.6778  153.6062 H   0  0  0  0  0  0  0  0  0  0  0  0
  148.3007  140.1177  152.6918 H   0  0  0  0  0  0  0  0  0  0  0  0
  147.2427  140.0750  155.5562 H   0  0  0  0  0  0  0  0  0  0  0  0
  149.9408  139.9744  154.5070 H   0  0  0  0  0  0  0  0  0  0  0  0
  151.3767  139.0139  156.7295 H   0  0  0  0  0  0  0  0  0  0  0  0
  151.8045  140.3985  155.7793 H   0  0  0  0  0  0  0  0  0  0  0  0
  151.0678  142.5905  157.1785 H   0  0  0  0  0  0  0  0  0  0  0  0
  153.2309  142.6426  160.8927 H   0  0  0  0  0  0  0  0  0  0  0  0
  153.5567  140.2707  160.7166 H   0  0  0  0  0  0  0  0  0  0  0  0
  148.4604  142.6168  154.6538 H   0  0  0  0  0  0  0  0  0  0  0  0
  145.6516  141.8970  155.7869 H   0  0  0  0  0  0  0  0  0  0  0  0
  146.4142  143.5680  155.6933 H   0  0  0  0  0  0  0  0  0  0  0  0
  146.5958  143.3361  153.1899 H   0  0  0  0  0  0  0  0  0  0  0  0
  145.8372  141.6633  153.2932 H   0  0  0  0  0  0  0  0  0  0  0  0
  1  2  1  0  0  0  0
  1 21  1  0  0  0  0
  1 22  1  0  0  0  0
  1 23  1  0  0  0  0
  2  3  1  0  0  0  0
  2 18  1  0  0  0  0
  2 24  1  0  0  0  0
  3  4  1  0  0  0  0
  3 25  1  0  0  0  0
  4  5  2  0  0  0  0
  4  6  1  0  0  0  0
  6  7  1  0  0  0  0
  6 26  1  0  0  0  0
  6 27  1  0  0  0  0
  7 16  1  0  0  0  0
  7  8  1  0  0  0  0
  8  9  2  0  0  0  0
  8 28  1  0  0  0  0
  9 10  1  0  0  0  0
  9 14  1  0  0  0  0
 10 11  1  0  0  0  0
 10 12  1  0  0  0  0
 10 13  1  0  0  0  0
 14 15  2  0  0  0  0
 14 29  1  0  0  0  0
 15 16  1  0  0  0  0
 15 30  1  0  0  0  0
 16 17  2  0  0  0  0
 18 20  1  0  0  0  0
 18 19  1  0  0  0  0
 18 31  1  0  0  0  0
 19 20  1  0  0  0  0
 19 32  1  0  0  0  0
 19 33  1  0  0  0  0
 20 34  1  0  0  0  0
 20 35  1  0  0  0  0
M  END
> <s_m_source_file>
AV-unprocessed.smi

> <i_m_source_file_index>
576

> <i_lp_mmshare_version>
43012

> <i_f3d_flags>
0

> <s_epik_input>
W0NIMl0xW0NIMl1bQ0hdMVtDQEhdKFtDSDNdKVtOSF1DKD1PKVtDSDJdbjJbY0hdYyhDKEYpKEYpRilbY0hdW2NIXWMyPU8=

> <s_epik_cmdline>
J2VwaWtfcHl0aG9uJywgJy1waCcsICc3LjAnLCAnLXRuJywgJzgnLCAnLW1hJywgJzIwMCcsICctbWV0YWxfYmluZGluZycsICctaW1hZScsICc8aW5maWxlLm1hZT4nLCAnLW9tYWUnLCAnPG91dGZpbGUubWFlPic=

> <r_lp_tautomer_probability>
1

> <r_epik_Ionization_Penalty>
3.84201e-08

> <r_epik_Ionization_Penalty_Charging>
1.91184e-08

> <r_epik_Ionization_Penalty_Neutral>
1.93017e-08

> <r_epik_State_Penalty>
-0

> <r_epik_Charging_Adjusted_Penalty>
1.91184e-08

> <i_epik_Tot_Q>
0

> <i_epik_Tot_abs_Q>
0

> <r_epik_Metal_State_Penalty>
-0

> <b_epik_Metal_Only>
0

> <s_lp_Force_Field>
OPLS_2005

> <r_lp_Energy>
24.3329

> <b_lp_Chiralities_Consistent>
1

> <s_lp_Variant>
AV-unprocessed.smi:576-2

> <Gold.Version>
5.8.1

> <Gold.Id.Protein>
6NUR|6NUR_protein|mol2

> <Gold.PLP.Fitness>
40.9200

> <Gold.PLP.PLP>
-43.3643

> <Gold.PLP.part.hbond>
0.0000

> <Gold.PLP.part.metal>
0.0000

> <Gold.PLP.part.buried>
-4.4488

> <Gold.PLP.part.nonpolar>
-38.2166

> <Gold.PLP.part.repulsive>
0.1169

> <Gold.PLP.ligand.clash>
0.0000

> <Gold.PLP.ligand.torsion>
1.7840

> <Gold.PLP.Chemscore.Hbond>
0.0000

> <Gold.PLP.Chemscore.CHOScore>
0.0000

> <Gold.PLP.Chemscore.Metal>
0.0000

> <Gold.PLP.Chemscore.Internal.Correction>
1.1237

> <Gold.Rescore>
     Score         DG    S(hbond)    S(metal)    S(lipo)     H(rot)  DE(clash)    DE(int)     intcor
      8.28     -10.92       0.00        0.00      85.13       1.77       0.07       2.57       ----

> <Gold.Chemscore.Fitness>
8.2793

> <Gold.Chemscore.DG>
-10.9216

> <Gold.Chemscore.ZeroCoef>
-5.4800

> <Gold.Chemscore.Hbond>
0.0000

> <Gold.Chemscore.Metal>
0.0000

> <Gold.Chemscore.Lipo>
85.1348

> <Gold.Chemscore.Internal_Hbond>
0.0000

> <Gold.Chemscore.DEClash>
0.0691

> <Gold.Chemscore.DEInternal>
2.5732

> <Gold.Chemscore.Rot>
1.7653

> <Gold.Chemscore.Internal.Correction>
   9.000000E+99

> <Gold.Chemscore.Hbond.Weighted>
-0.0000

> <Gold.Chemscore.Metal.Weighted>
-0.0000

> <Gold.Chemscore.Lipo.Weighted>
-9.9608

> <Gold.Chemscore.Internal_Hbond.Weighted>
0.0000

> <Gold.Chemscore.DEClash.Weighted>
0.0691

> <Gold.Chemscore.DEInternal.Weighted>
2.5732

> <Gold.Chemscore.Rot.Weighted>
4.5191

> <Gold.Chemscore.Internal.Correction.Weighted>
   9.000000E+99

> <Gold.Protein.RotatedTorsions>
[ 6907 6896 6895 6894 ] final  -17.16 input  -60.11 | X-H torsion
[ 7974 7965 7964 7962 ] final  -28.72 input  175.53 | X-H torsion
[ 8008 7997 7996 7995 ] final   28.77 input   59.86 | X-H torsion
[ 10167 10162 10161 10158 ] final  -24.13 input  -65.29 | X-H torsion
[ 10718 10713 10712 10709 ] final  -23.45 input   66.30 | X-H torsion
[ 10763 10752 10751 10750 ] final   61.46 input  -60.55 | X-H torsion
[ 11005 11000 10999 10996 ] final   94.05 input  -57.11 | X-H torsion

> <Gold.Protein.ActiveResidues>
 VAL166  LYS551  ARG553  GLY616  TRP617  ASP618  TYR619  PRO620  LYS621  CYS622 
 ASP623  PHE694  ASN695  SER759  ASP760  ASP761  ALA762  ILE779  LEU786  VAL792 
 PHE793  MET794  SER795  GLU796  ALA797  LYS798  CYS799  TRP800  GLU811  SER814 

> <Gold.Protein.RotatedAtoms>
  151.2975  135.0759  159.9226 H   0  0  0  0  0  0  0  0  0  0  0  0  # atno 6907 bound_to 6896
  152.5304  133.9867  159.7842 H   0  0  0  0  0  0  0  0  0  0  0  0  # atno 6908 bound_to 6896
  151.0148  133.5880  159.2708 H   0  0  0  0  0  0  0  0  0  0  0  0  # atno 6909 bound_to 6896
  146.1268  140.5319  142.8711 H   0  0  0  0  0  0  0  0  0  0  0  0  # atno 7974 bound_to 7965
  155.0639  140.3193  155.4651 H   0  0  0  0  0  0  0  0  0  0  0  0  # atno 8008 bound_to 7997
  156.2806  140.2124  156.5711 H   0  0  0  0  0  0  0  0  0  0  0  0  # atno 8009 bound_to 7997
  154.7109  140.0498  157.0537 H   0  0  0  0  0  0  0  0  0  0  0  0  # atno 8010 bound_to 7997
  140.7288  143.4380  151.0699 H   0  0  0  0  0  0  0  0  0  0  0  0  # atno 10167 bound_to 10162
  156.4909  130.4566  149.6756 H   0  0  0  0  0  0  0  0  0  0  0  0  # atno 10718 bound_to 10713
  152.9951  135.5500  154.6037 H   0  0  0  0  0  0  0  0  0  0  0  0  # atno 10763 bound_to 10752
  154.5372  135.2817  155.1129 H   0  0  0  0  0  0  0  0  0  0  0  0  # atno 10764 bound_to 10752
  154.2421  135.6414  153.5263 H   0  0  0  0  0  0  0  0  0  0  0  0  # atno 10765 bound_to 10752
  139.8803  134.8824  156.3807 H   0  0  0  0  0  0  0  0  0  0  0  0  # atno 11005 bound_to 11000
  144.7650  140.5510  143.6709 LP  0  0  0  0  0  0  0  0  0  0  0  0  # atno 17320 bound_to 7965
  145.5348  139.1475  143.3480 LP  0  0  0  0  0  0  0  0  0  0  0  0  # atno 17321 bound_to 7965
  139.8044  143.8038  152.3166 LP  0  0  0  0  0  0  0  0  0  0  0  0  # atno 17342 bound_to 10162
  139.8066  144.7353  150.9753 LP  0  0  0  0  0  0  0  0  0  0  0  0  # atno 17343 bound_to 10162
  156.3427  130.7390  151.2338 LP  0  0  0  0  0  0  0  0  0  0  0  0  # atno 17370 bound_to 10713
  157.7474  131.0399  150.4572 LP  0  0  0  0  0  0  0  0  0  0  0  0  # atno 17371 bound_to 10713
  140.9401  133.7521  156.0135 LP  0  0  0  0  0  0  0  0  0  0  0  0  # atno 17394 bound_to 11000
  140.8230  134.3267  157.5375 LP  0  0  0  0  0  0  0  0  0  0  0  0  # atno 17395 bound_to 11000

$$$$
