AV-unprocessed.smi:265|AV-procd|sdf|2020|dock5
  -GOLD-   2262021223D 1   1.00000     0.00000
 Structure written by MMmdl.
 52 56  0  0  0  0  0  0  0  0  1 V2000
  150.4822  136.5923  155.6651 C   0  0  0  0  0  0  0  0  0  0  0  0
  150.0986  138.0742  155.8177 C   0  0  1  0  0  0  0  0  0  0  0  0
  150.9558  138.6211  156.8213 O   0  0  0  0  0  0  0  0  0  0  0  0
  151.5331  139.8369  156.3701 C   0  0  0  0  0  0  0  0  0  0  0  0
  151.6088  139.6571  154.8625 C   0  0  0  0  0  0  0  0  0  0  0  0
  150.2896  138.9558  154.5558 C   0  0  1  0  0  0  0  0  0  0  0  0
  150.4425  138.1939  153.3710 O   0  0  0  0  0  0  0  0  0  0  0  0
  149.0883  139.9212  154.3655 C   0  0  0  0  0  0  0  0  0  0  0  0
  147.8206  139.2585  154.0964 N   0  0  0  0  0  0  0  0  0  0  0  0
  147.1178  139.2812  152.9128 C   0  0  0  0  0  0  0  0  0  0  0  0
  145.9999  138.6082  152.9155 N   0  0  0  0  0  0  0  0  0  0  0  0
  145.9133  138.0983  154.2057 C   0  0  0  0  0  0  0  0  0  0  0  0
  144.9640  137.2864  154.8888 C   0  0  0  0  0  0  0  0  0  0  0  0
  143.8253  136.8390  154.3011 N   0  0  0  0  0  0  0  0  0  0  0  0
  143.2434  135.5955  154.8060 C   0  0  0  0  0  0  0  0  0  0  0  0
  142.2230  135.0279  153.8078 C   0  0  0  0  0  0  0  0  0  0  0  0
  141.1563  136.0676  153.4269 C   0  0  1  0  0  0  0  0  0  0  0  0
  140.3215  136.3488  154.5430 O   0  0  0  0  0  0  0  0  0  0  0  0
  139.1936  137.1666  154.2262 C   0  0  0  0  0  0  0  0  0  0  0  0
  139.5862  138.4186  153.4198 C   0  0  0  0  0  0  0  0  0  0  0  0
  138.7986  139.3571  153.3231 O   0  0  0  0  0  0  0  0  0  0  0  0
  140.7792  138.4256  152.8034 N   0  0  0  0  0  0  0  0  0  0  0  0
  141.7999  137.3977  152.9782 C   0  0  1  0  0  0  0  0  0  0  0  0
  142.8546  137.8869  153.9913 C   0  0  0  0  0  0  0  0  0  0  0  0
  145.2324  136.9666  156.1834 N   0  0  0  0  0  0  0  0  0  0  0  0
  146.3432  137.4165  156.7742 C   0  0  0  0  0  0  0  0  0  0  0  0
  147.3074  138.1838  156.2630 N   0  0  0  0  0  0  0  0  0  0  0  0
  147.0515  138.4992  154.9614 C   0  0  0  0  0  0  0  0  0  0  0  0
  140.5417  135.6554  152.6240 H   0  0  0  0  0  0  0  0  0  0  0  0
  142.2885  137.2434  152.0153 H   0  0  0  0  0  0  0  0  0  0  0  0
  149.8400  136.0882  154.9424 H   0  0  0  0  0  0  0  0  0  0  0  0
  150.3798  136.0664  156.6146 H   0  0  0  0  0  0  0  0  0  0  0  0
  151.5159  136.4808  155.3353 H   0  0  0  0  0  0  0  0  0  0  0  0
  149.0683  138.1307  156.1712 H   0  0  0  0  0  0  0  0  0  0  0  0
  150.8815  140.6711  156.6329 H   0  0  0  0  0  0  0  0  0  0  0  0
  152.5091  140.0085  156.8240 H   0  0  0  0  0  0  0  0  0  0  0  0
  151.7675  140.5912  154.3254 H   0  0  0  0  0  0  0  0  0  0  0  0
  152.4502  139.0022  154.6288 H   0  0  0  0  0  0  0  0  0  0  0  0
  150.3586  138.7726  152.6285 H   0  0  0  0  0  0  0  0  0  0  0  0
  148.9651  140.5450  155.2520 H   0  0  0  0  0  0  0  0  0  0  0  0
  149.2839  140.6096  153.5425 H   0  0  0  0  0  0  0  0  0  0  0  0
  147.4683  139.8089  152.0377 H   0  0  0  0  0  0  0  0  0  0  0  0
  144.0267  134.8563  154.9799 H   0  0  0  0  0  0  0  0  0  0  0  0
  142.7606  135.7858  155.7658 H   0  0  0  0  0  0  0  0  0  0  0  0
  142.7477  134.7090  152.9062 H   0  0  0  0  0  0  0  0  0  0  0  0
  141.7495  134.1366  154.2201 H   0  0  0  0  0  0  0  0  0  0  0  0
  138.4758  136.5847  153.6468 H   0  0  0  0  0  0  0  0  0  0  0  0
  138.6986  137.4629  155.1512 H   0  0  0  0  0  0  0  0  0  0  0  0
  141.0228  139.2286  152.2420 H   0  0  0  0  0  0  0  0  0  0  0  0
  142.3691  138.1859  154.9216 H   0  0  0  0  0  0  0  0  0  0  0  0
  143.3426  138.7788  153.5993 H   0  0  0  0  0  0  0  0  0  0  0  0
  146.4784  137.1194  157.8037 H   0  0  0  0  0  0  0  0  0  0  0  0
  1  2  1  0  0  0  0
  1 31  1  0  0  0  0
  1 32  1  0  0  0  0
  1 33  1  0  0  0  0
  2  6  1  0  0  0  0
  2  3  1  0  0  0  0
  2 34  1  0  0  0  0
  3  4  1  0  0  0  0
  4  5  1  0  0  0  0
  4 35  1  0  0  0  0
  4 36  1  0  0  0  0
  5  6  1  0  0  0  0
  5 37  1  0  0  0  0
  5 38  1  0  0  0  0
  6  7  1  0  0  0  0
  6  8  1  0  0  0  0
  7 39  1  0  0  0  0
  8  9  1  0  0  0  0
  8 40  1  0  0  0  0
  8 41  1  0  0  0  0
  9 28  1  0  0  0  0
  9 10  1  0  0  0  0
 10 11  2  0  0  0  0
 10 42  1  0  0  0  0
 11 12  1  0  0  0  0
 12 28  2  0  0  0  0
 12 13  1  0  0  0  0
 13 14  1  0  0  0  0
 13 25  2  0  0  0  0
 14 24  1  0  0  0  0
 14 15  1  0  0  0  0
 15 16  1  0  0  0  0
 15 43  1  0  0  0  0
 15 44  1  0  0  0  0
 16 17  1  0  0  0  0
 16 45  1  0  0  0  0
 16 46  1  0  0  0  0
 17 29  1  0  0  0  0
 17 23  1  0  0  0  0
 17 18  1  0  0  0  0
 18 19  1  0  0  0  0
 19 20  1  0  0  0  0
 19 47  1  0  0  0  0
 19 48  1  0  0  0  0
 20 21  2  0  0  0  0
 20 22  1  0  0  0  0
 22 23  1  0  0  0  0
 22 49  1  0  0  0  0
 23 30  1  0  0  0  0
 23 24  1  0  0  0  0
 24 50  1  0  0  0  0
 24 51  1  0  0  0  0
 25 26  1  0  0  0  0
 26 27  2  0  0  0  0
 26 52  1  0  0  0  0
 27 28  1  0  0  0  0
M  END
> <s_m_source_file>
AV-unprocessed.smi

> <i_m_source_file_index>
265

> <i_lp_mmshare_version>
43012

> <i_f3d_flags>
0

> <s_epik_input>
W0NIMl0xW0NIMl1PW0NAQEhdKFtDSDNdKVtDQEBdMShbT0hdKVtDSDJdbihbY0hdbjIpYyhjMjMpbltjSF1uYzNOKFtDSDJdW0NIMl00KVtDSDJdW0NAQEhdKFtDQEhdNDUpW05IXUMoPU8pW0NIMl1PNQ==

> <s_epik_cmdline>
J2VwaWtfcHl0aG9uJywgJy1waCcsICc3LjAnLCAnLXRuJywgJzgnLCAnLW1hJywgJzIwMCcsICctbWV0YWxfYmluZGluZycsICctaW1hZScsICc8aW5maWxlLm1hZT4nLCAnLW9tYWUnLCAnPG91dGZpbGUubWFlPic=

> <r_lp_tautomer_probability>
1

> <r_epik_Ionization_Penalty>
0.00221504

> <r_epik_Ionization_Penalty_Charging>
0

> <r_epik_Ionization_Penalty_Neutral>
0.00221504

> <r_epik_State_Penalty>
-0

> <r_epik_Charging_Adjusted_Penalty>
0

> <i_epik_Tot_Q>
0

> <i_epik_Tot_abs_Q>
0

> <r_epik_Metal_State_Penalty>
-0

> <b_epik_Metal_Only>
0

> <s_lp_Force_Field>
OPLS_2005

> <r_lp_Energy>
44.9484

> <b_lp_Chiralities_Consistent>
1

> <s_lp_Variant>
AV-unprocessed.smi:265-6

> <Gold.Version>
5.8.1

> <Gold.Id.Protein>
6NUR|6NUR_protein|mol2

> <Gold.PLP.Fitness>
42.4569

> <Gold.PLP.PLP>
-31.7856

> <Gold.PLP.part.hbond>
-5.0000

> <Gold.PLP.part.metal>
0.0000

> <Gold.PLP.part.buried>
-2.2748

> <Gold.PLP.part.nonpolar>
-26.1806

> <Gold.PLP.part.repulsive>
1.4391

> <Gold.PLP.ligand.clash>
0.0000

> <Gold.PLP.ligand.torsion>
0.5191

> <Gold.PLP.Chemscore.Hbond>
2.7821

> <Gold.PLP.Chemscore.CHOScore>
1.0000

> <Gold.PLP.Chemscore.Metal>
0.0000

> <Gold.Chemscore.Hbonds>
donor molecule, donor type, donor heavy atom, donor atom, acceptor molecule, acceptor atom, score
      L1  H     7    39       P1  7957  0.90
      L1  H    22    49       P1 10160  0.96
      P1  H 11000 11005       L1    18  0.60
      L1  C    10    42       P1  7957  1.00

> <Gold.PLP.Chemscore.Internal.Correction>
0.3632

> <Gold.Rescore>
     Score         DG    S(hbond)    S(metal)    S(lipo)     H(rot)  DE(clash)    DE(int)     intcor
     11.44     -13.94       2.06        0.00      62.56       2.25       0.76       1.73       ----

> <Gold.Chemscore.Fitness>
11.4422

> <Gold.Chemscore.DG>
-13.9388

> <Gold.Chemscore.ZeroCoef>
-5.4800

> <Gold.Chemscore.Hbond>
2.0620

> <Gold.Chemscore.Metal>
0.0000

> <Gold.Chemscore.Lipo>
62.5608

> <Gold.Chemscore.Internal_Hbond>
0.0000

> <Gold.Chemscore.DEClash>
0.7631

> <Gold.Chemscore.DEInternal>
1.7335

> <Gold.Chemscore.Rot>
2.2453

> <Gold.Chemscore.Internal.Correction>
   9.000000E+99

> <Gold.Chemscore.Hbonds>
donor molecule, donor type, donor heavy atom, donor atom, acceptor molecule, acceptor atom, score
      L1  H     7    39       P1  7957  0.19
      L1  H    22    49       P1 10160  0.91
      P1  H 11000 11005       L1    18  0.49

> <Gold.Chemscore.Hbond.Weighted>
-6.8871

> <Gold.Chemscore.Metal.Weighted>
-0.0000

> <Gold.Chemscore.Lipo.Weighted>
-7.3196

> <Gold.Chemscore.Internal_Hbond.Weighted>
0.0000

> <Gold.Chemscore.DEClash.Weighted>
0.7631

> <Gold.Chemscore.DEInternal.Weighted>
1.7335

> <Gold.Chemscore.Rot.Weighted>
5.7479

> <Gold.Chemscore.Internal.Correction.Weighted>
   9.000000E+99

> <Gold.Protein.RotatedTorsions>
[ 6907 6896 6895 6894 ] final  -52.30 input  -60.11 | X-H torsion
[ 7974 7965 7964 7962 ] final  -19.51 input  175.53 | X-H torsion
[ 8008 7997 7996 7995 ] final  146.42 input   59.86 | X-H torsion
[ 10167 10162 10161 10158 ] final  -49.19 input  -65.29 | X-H torsion
[ 10718 10713 10712 10709 ] final   85.72 input   66.30 | X-H torsion
[ 10763 10752 10751 10750 ] final   23.09 input  -60.55 | X-H torsion
[ 11005 11000 10999 10996 ] final   66.56 input  -57.11 | X-H torsion

> <Gold.Protein.ActiveResidues>
 VAL166  LYS551  ARG553  GLY616  TRP617  ASP618  TYR619  PRO620  LYS621  CYS622 
 ASP623  PHE694  ASN695  SER759  ASP760  ASP761  ALA762  ILE779  LEU786  VAL792 
 PHE793  MET794  SER795  GLU796  ALA797  LYS798  CYS799  TRP800  GLU811  SER814 

> <Gold.Protein.RotatedAtoms>
  150.8531  134.7862  159.7023 H   0  0  0  0  0  0  0  0  0  0  0  0  # atno 6907 bound_to 6896
  152.4590  134.5223  159.9796 H   0  0  0  0  0  0  0  0  0  0  0  0  # atno 6908 bound_to 6896
  151.5341  133.3406  159.2959 H   0  0  0  0  0  0  0  0  0  0  0  0  # atno 6909 bound_to 6896
  146.1837  140.4071  142.8484 H   0  0  0  0  0  0  0  0  0  0  0  0  # atno 7974 bound_to 7965
  156.2856  140.2183  156.5374 H   0  0  0  0  0  0  0  0  0  0  0  0  # atno 8008 bound_to 7997
  154.7398  140.0488  157.0823 H   0  0  0  0  0  0  0  0  0  0  0  0  # atno 8009 bound_to 7997
  155.0245  140.3128  155.4784 H   0  0  0  0  0  0  0  0  0  0  0  0  # atno 8010 bound_to 7997
  140.6697  143.2708  151.4179 H   0  0  0  0  0  0  0  0  0  0  0  0  # atno 10167 bound_to 10162
  157.6919  131.0186  150.2864 H   0  0  0  0  0  0  0  0  0  0  0  0  # atno 10718 bound_to 10713
  153.0865  135.6634  153.9939 H   0  0  0  0  0  0  0  0  0  0  0  0  # atno 10763 bound_to 10752
  153.9547  135.2980  155.3438 H   0  0  0  0  0  0  0  0  0  0  0  0  # atno 10764 bound_to 10752
  154.7273  135.5138  153.8980 H   0  0  0  0  0  0  0  0  0  0  0  0  # atno 10765 bound_to 10752
  139.9824  134.6722  156.0237 H   0  0  0  0  0  0  0  0  0  0  0  0  # atno 11005 bound_to 11000
  144.8360  140.6783  143.6260 LP  0  0  0  0  0  0  0  0  0  0  0  0  # atno 17320 bound_to 7965
  145.4000  139.1599  143.4182 LP  0  0  0  0  0  0  0  0  0  0  0  0  # atno 17321 bound_to 7965
  139.5959  144.1398  152.2143 LP  0  0  0  0  0  0  0  0  0  0  0  0  # atno 17342 bound_to 10162
  140.0767  144.5734  150.7152 LP  0  0  0  0  0  0  0  0  0  0  0  0  # atno 17343 bound_to 10162
  156.3402  130.3814  149.7415 LP  0  0  0  0  0  0  0  0  0  0  0  0  # atno 17370 bound_to 10713
  156.4926  130.8092  151.3101 LP  0  0  0  0  0  0  0  0  0  0  0  0  # atno 17371 bound_to 10713
  141.1494  133.6551  156.3968 LP  0  0  0  0  0  0  0  0  0  0  0  0  # atno 17394 bound_to 11000
  140.5069  134.6432  157.5270 LP  0  0  0  0  0  0  0  0  0  0  0  0  # atno 17395 bound_to 11000

$$$$
