AV-unprocessed.smi:1145|AV-procd|sdf|4883|dock4
  -GOLD-   22720 3453D 1   1.00000     0.00000
 Structure written by MMmdl.
 36 37  0  0  0  0  0  0  0  0  1 V2000
  149.3637  141.6728  157.2244 C   0  0  0  0  0  0  0  0  0  0  0  0
  150.8861  141.8527  157.1511 C   0  0  1  0  0  0  0  0  0  0  0  0
  151.2681  143.3389  156.9805 C   0  0  0  0  0  0  0  0  0  0  0  0
  151.5015  144.0101  158.2471 N   0  0  0  0  0  0  0  0  0  0  0  0
  150.8890  145.1421  158.7425 C   0  0  0  0  0  0  0  0  0  0  0  0
  151.4218  145.3856  159.9756 C   0  0  0  0  0  0  0  0  0  0  0  0
  152.3686  144.3372  160.1472 C   0  0  0  0  0  0  0  0  0  0  0  0
  152.4172  143.5180  159.1091 N   0  0  0  0  0  0  0  0  0  0  0  0
  151.4882  141.2985  158.3634 N   0  0  0  0  0  0  0  0  0  0  0  0
  152.4327  140.3449  158.4054 C   0  0  0  0  0  0  0  0  0  0  0  0
  152.8844  139.7940  157.4009 O   0  0  0  0  0  0  0  0  0  0  0  0
  152.9635  139.9727  159.7957 C   0  0  2  0  0  0  0  0  0  0  0  0
  153.6467  141.1800  160.4582 C   0  0  0  0  0  0  0  0  0  0  0  0
  154.1267  140.8329  161.8765 C   0  0  0  0  0  0  0  0  0  0  0  0
  154.8643  139.4882  161.9597 C   0  0  0  0  0  0  0  0  0  0  0  0
  155.5656  139.2434  162.9387 O   0  0  0  0  0  0  0  0  0  0  0  0
  154.6965  138.5898  160.9734 N   0  0  0  0  0  0  0  0  0  0  0  0
  153.9619  138.7974  159.7251 C   0  0  0  0  0  0  0  0  0  0  0  0
  148.8807  142.0481  156.3217 H   0  0  0  0  0  0  0  0  0  0  0  0
  148.9397  142.2079  158.0749 H   0  0  0  0  0  0  0  0  0  0  0  0
  149.0971  140.6203  157.3255 H   0  0  0  0  0  0  0  0  0  0  0  0
  151.2325  141.2980  156.2771 H   0  0  0  0  0  0  0  0  0  0  0  0
  152.1756  143.4268  156.3812 H   0  0  0  0  0  0  0  0  0  0  0  0
  150.4866  143.8750  156.4401 H   0  0  0  0  0  0  0  0  0  0  0  0
  150.1278  145.6687  158.1860 H   0  0  0  0  0  0  0  0  0  0  0  0
  151.1726  146.1889  160.6530 H   0  0  0  0  0  0  0  0  0  0  0  0
  153.0180  144.1485  160.9893 H   0  0  0  0  0  0  0  0  0  0  0  0
  151.1791  141.6913  159.2408 H   0  0  0  0  0  0  0  0  0  0  0  0
  152.1215  139.6722  160.4225 H   0  0  0  0  0  0  0  0  0  0  0  0
  154.4973  141.5086  159.8585 H   0  0  0  0  0  0  0  0  0  0  0  0
  152.9596  142.0261  160.5049 H   0  0  0  0  0  0  0  0  0  0  0  0
  154.7708  141.6262  162.2574 H   0  0  0  0  0  0  0  0  0  0  0  0
  153.2688  140.7788  162.5473 H   0  0  0  0  0  0  0  0  0  0  0  0
  155.1698  137.7031  161.0720 H   0  0  0  0  0  0  0  0  0  0  0  0
  153.4390  137.8747  159.4717 H   0  0  0  0  0  0  0  0  0  0  0  0
  154.7010  138.9625  158.9396 H   0  0  0  0  0  0  0  0  0  0  0  0
  1  2  1  0  0  0  0
  1 19  1  0  0  0  0
  1 20  1  0  0  0  0
  1 21  1  0  0  0  0
  2  3  1  0  0  0  0
  2  9  1  0  0  0  0
  2 22  1  0  0  0  0
  3  4  1  0  0  0  0
  3 23  1  0  0  0  0
  3 24  1  0  0  0  0
  4  8  1  0  0  0  0
  4  5  1  0  0  0  0
  5  6  2  0  0  0  0
  5 25  1  0  0  0  0
  6  7  1  0  0  0  0
  6 26  1  0  0  0  0
  7  8  2  0  0  0  0
  7 27  1  0  0  0  0
  9 10  1  0  0  0  0
  9 28  1  0  0  0  0
 10 11  2  0  0  0  0
 10 12  1  0  0  0  0
 12 18  1  0  0  0  0
 12 13  1  0  0  0  0
 12 29  1  0  0  0  0
 13 14  1  0  0  0  0
 13 30  1  0  0  0  0
 13 31  1  0  0  0  0
 14 15  1  0  0  0  0
 14 32  1  0  0  0  0
 14 33  1  0  0  0  0
 15 16  2  0  0  0  0
 15 17  1  0  0  0  0
 17 18  1  0  0  0  0
 17 34  1  0  0  0  0
 18 35  1  0  0  0  0
 18 36  1  0  0  0  0
M  END
> <s_m_source_file>
AV-unprocessed.smi

> <i_m_source_file_index>
1145

> <i_lp_mmshare_version>
43012

> <i_f3d_flags>
0

> <s_epik_input>
bjFbY0hdW2NIXVtjSF1uMVtDSDJdW0NAQEhdKFtDSDNdKVtOSF1DKD1PKVtDQEBIXTJbQ0gyXVtDSDJdQyg9TylbTkhdW0NIMl0y

> <s_epik_cmdline>
J2VwaWtfcHl0aG9uJywgJy1waCcsICc3LjAnLCAnLXRuJywgJzgnLCAnLW1hJywgJzIwMCcsICctbWV0YWxfYmluZGluZycsICctaW1hZScsICc8aW5maWxlLm1hZT4nLCAnLW9tYWUnLCAnPG91dGZpbGUubWFlPic=

> <r_lp_tautomer_probability>
1

> <r_epik_Ionization_Penalty>
0.000314064

> <r_epik_Ionization_Penalty_Charging>
0

> <r_epik_Ionization_Penalty_Neutral>
0.000314064

> <r_epik_State_Penalty>
-0

> <r_epik_Charging_Adjusted_Penalty>
0

> <i_epik_Tot_Q>
0

> <i_epik_Tot_abs_Q>
0

> <r_epik_Metal_State_Penalty>
-0

> <b_epik_Metal_Only>
0

> <s_lp_Force_Field>
OPLS_2005

> <r_lp_Energy>
11.8785

> <b_lp_Chiralities_Consistent>
1

> <s_lp_Variant>
AV-unprocessed.smi:1145-2

> <Gold.Version>
5.8.1

> <Gold.Id.Protein>
6NUR|6NUR_protein|mol2

> <Gold.PLP.Fitness>
40.3329

> <Gold.PLP.PLP>
-35.2694

> <Gold.PLP.part.hbond>
-1.0000

> <Gold.PLP.part.metal>
0.0000

> <Gold.PLP.part.buried>
-4.7903

> <Gold.PLP.part.nonpolar>
-29.5112

> <Gold.PLP.part.repulsive>
0.0991

> <Gold.PLP.ligand.clash>
0.0000

> <Gold.PLP.ligand.torsion>
0.4751

> <Gold.PLP.Chemscore.Hbond>
1.0000

> <Gold.PLP.Chemscore.CHOScore>
1.0000

> <Gold.PLP.Chemscore.Metal>
0.0000

> <Gold.Chemscore.Hbonds>
donor molecule, donor type, donor heavy atom, donor atom, acceptor molecule, acceptor atom, score
      P1  H  7997  8008       L1    11  1.00
      L1  C     5    25       P1  8029  1.00

> <Gold.PLP.Chemscore.Internal.Correction>
0.0137

> <Gold.Rescore>
     Score         DG    S(hbond)    S(metal)    S(lipo)     H(rot)  DE(clash)    DE(int)     intcor
     14.06     -14.55       1.00        0.00      88.42       1.80       0.03       0.47       ----

> <Gold.Chemscore.Fitness>
14.0611

> <Gold.Chemscore.DG>
-14.5536

> <Gold.Chemscore.ZeroCoef>
-5.4800

> <Gold.Chemscore.Hbond>
0.9976

> <Gold.Chemscore.Metal>
0.0000

> <Gold.Chemscore.Lipo>
88.4183

> <Gold.Chemscore.Internal_Hbond>
0.0000

> <Gold.Chemscore.DEClash>
0.0256

> <Gold.Chemscore.DEInternal>
0.4669

> <Gold.Chemscore.Rot>
1.7982

> <Gold.Chemscore.Internal.Correction>
   9.000000E+99

> <Gold.Chemscore.Hbonds>
donor molecule, donor type, donor heavy atom, donor atom, acceptor molecule, acceptor atom, score
      P1  H  7997  8008       L1    11  0.99

> <Gold.Chemscore.Hbond.Weighted>
-3.3321

> <Gold.Chemscore.Metal.Weighted>
-0.0000

> <Gold.Chemscore.Lipo.Weighted>
-10.3449

> <Gold.Chemscore.Internal_Hbond.Weighted>
0.0000

> <Gold.Chemscore.DEClash.Weighted>
0.0256

> <Gold.Chemscore.DEInternal.Weighted>
0.4669

> <Gold.Chemscore.Rot.Weighted>
4.6035

> <Gold.Chemscore.Internal.Correction.Weighted>
   9.000000E+99

> <Gold.Protein.RotatedTorsions>
[ 6907 6896 6895 6894 ] final -137.02 input  -60.11 | X-H torsion
[ 7974 7965 7964 7962 ] final  134.66 input  175.53 | X-H torsion
[ 8008 7997 7996 7995 ] final  -56.16 input   59.86 | X-H torsion
[ 10167 10162 10161 10158 ] final   44.04 input  -65.29 | X-H torsion
[ 10718 10713 10712 10709 ] final  -30.51 input   66.30 | X-H torsion
[ 10763 10752 10751 10750 ] final  123.07 input  -60.55 | X-H torsion
[ 11005 11000 10999 10996 ] final -126.01 input  -57.11 | X-H torsion

> <Gold.Protein.ActiveResidues>
 VAL166  LYS551  ARG553  GLY616  TRP617  ASP618  TYR619  PRO620  LYS621  CYS622 
 ASP623  PHE694  ASN695  SER759  ASP760  ASP761  ALA762  ILE779  LEU786  VAL792 
 PHE793  MET794  SER795  GLU796  ALA797  LYS798  CYS799  TRP800  GLU811  SER814 

> <Gold.Protein.RotatedAtoms>
  151.0173  133.5909  159.2675 H   0  0  0  0  0  0  0  0  0  0  0  0  # atno 6907 bound_to 6896
  151.3038  135.0775  159.9258 H   0  0  0  0  0  0  0  0  0  0  0  0  # atno 6908 bound_to 6896
  152.5314  133.9850  159.7878 H   0  0  0  0  0  0  0  0  0  0  0  0  # atno 6909 bound_to 6896
  144.9742  139.4573  143.5418 H   0  0  0  0  0  0  0  0  0  0  0  0  # atno 7974 bound_to 7965
  154.4220  140.1136  156.5592 H   0  0  0  0  0  0  0  0  0  0  0  0  # atno 8008 bound_to 7997
  155.6329  140.3496  155.4670 H   0  0  0  0  0  0  0  0  0  0  0  0  # atno 8009 bound_to 7997
  155.9933  140.1184  157.0607 H   0  0  0  0  0  0  0  0  0  0  0  0  # atno 8010 bound_to 7997
  140.3383  144.2502  150.6159 H   0  0  0  0  0  0  0  0  0  0  0  0  # atno 10167 bound_to 10162
  156.3989  130.4386  149.7337 H   0  0  0  0  0  0  0  0  0  0  0  0  # atno 10718 bound_to 10713
  153.6398  135.3381  155.3068 H   0  0  0  0  0  0  0  0  0  0  0  0  # atno 10763 bound_to 10752
  154.8562  135.4315  154.2017 H   0  0  0  0  0  0  0  0  0  0  0  0  # atno 10764 bound_to 10752
  153.2933  135.7019  153.7346 H   0  0  0  0  0  0  0  0  0  0  0  0  # atno 10765 bound_to 10752
  140.9716  134.0798  157.3863 H   0  0  0  0  0  0  0  0  0  0  0  0  # atno 11005 bound_to 11000
  146.3390  139.8973  142.8800 LP  0  0  0  0  0  0  0  0  0  0  0  0  # atno 17320 bound_to 7965
  145.2515  141.0045  143.3878 LP  0  0  0  0  0  0  0  0  0  0  0  0  # atno 17321 bound_to 7965
  140.5333  143.2238  151.8204 LP  0  0  0  0  0  0  0  0  0  0  0  0  # atno 17342 bound_to 10162
  139.4844  144.4693  151.9445 LP  0  0  0  0  0  0  0  0  0  0  0  0  # atno 17343 bound_to 10162
  156.4361  130.7838  151.2859 LP  0  0  0  0  0  0  0  0  0  0  0  0  # atno 17370 bound_to 10713
  157.7503  131.0139  150.3443 LP  0  0  0  0  0  0  0  0  0  0  0  0  # atno 17371 bound_to 10713
  139.8914  135.0118  156.6791 LP  0  0  0  0  0  0  0  0  0  0  0  0  # atno 17394 bound_to 11000
  140.7321  133.9050  155.8218 LP  0  0  0  0  0  0  0  0  0  0  0  0  # atno 17395 bound_to 11000

$$$$
