AV-unprocessed.smi:1524|AV-procd|sdf|6140|dock9
  -GOLD-   22720 6283D 1   1.00000     0.00000
 Structure written by MMmdl.
 34 35  0  0  0  0  0  0  0  0  2 V2000
  150.3594  136.2421  158.8230 O   0  0  0  0  0  0  0  0  0  0  0  0
  149.2991  136.8549  158.7176 C   0  0  0  0  0  0  0  0  0  0  0  0
  148.1862  136.6200  159.4424 N   0  0  0  0  0  0  0  0  0  0  0  0
  147.9343  135.6299  160.4067 C   0  0  0  0  0  0  0  0  0  0  0  0
  147.9644  134.2887  160.1720 C   0  0  0  0  0  0  0  0  0  0  0  0
  147.6753  133.3102  161.2132 C   0  0  0  0  0  0  0  0  0  0  0  0
  147.6993  131.8068  161.0061 C   0  0  0  0  0  0  0  0  0  0  0  0
  148.0126  131.5216  159.7428 F   0  0  0  0  0  0  0  0  0  0  0  0
  148.6162  131.2469  161.7946 F   0  0  0  0  0  0  0  0  0  0  0  0
  146.5162  131.2573  161.2805 F   0  0  0  0  0  0  0  0  0  0  0  0
  147.3623  133.9029  162.4201 C   0  0  0  0  0  0  0  0  0  0  0  0
  147.3010  135.2159  162.7326 N   0  5  0  0  0  0  0  0  0  0  0  0
  147.5790  136.1230  161.7538 C   0  0  0  0  0  0  0  0  0  0  0  0
  147.5393  137.3351  161.9687 O   0  0  0  0  0  0  0  0  0  0  0  0
  149.1760  137.8712  157.8438 N   0  0  0  0  0  0  0  0  0  0  0  0
  150.1748  138.3938  156.9079 C   0  0  0  0  0  0  0  0  0  0  0  0
  150.4571  139.8836  157.1755 C   0  0  0  0  0  0  0  0  0  0  0  0
  151.3672  140.4715  156.0850 C   0  0  0  0  0  0  0  0  0  0  0  0
  150.7827  140.2755  154.8017 O   0  0  0  0  0  0  0  0  0  0  0  0
  150.6253  138.9002  154.4707 C   0  0  0  0  0  0  0  0  0  0  0  0
  149.6681  138.2264  155.4673 C   0  0  0  0  0  0  0  0  0  0  0  0
  147.4181  137.2589  159.2972 H   0  0  0  0  0  0  0  0  0  0  0  0
  148.1865  133.9056  159.1900 H   0  0  0  0  0  0  0  0  0  0  0  0
  147.1253  133.2155  163.2601 H   0  0  0  0  0  0  0  0  0  0  0  0
  148.2916  138.3582  157.8515 H   0  0  0  0  0  0  0  0  0  0  0  0
  151.1033  137.8277  157.0026 H   0  0  0  0  0  0  0  0  0  0  0  0
  149.5188  140.4399  157.1960 H   0  0  0  0  0  0  0  0  0  0  0  0
  150.9204  140.0181  158.1536 H   0  0  0  0  0  0  0  0  0  0  0  0
  151.5047  141.5404  156.2493 H   0  0  0  0  0  0  0  0  0  0  0  0
  152.3577  140.0152  156.1186 H   0  0  0  0  0  0  0  0  0  0  0  0
  150.2260  138.8252  153.4592 H   0  0  0  0  0  0  0  0  0  0  0  0
  151.5963  138.4023  154.4665 H   0  0  0  0  0  0  0  0  0  0  0  0
  149.5606  137.1686  155.2243 H   0  0  0  0  0  0  0  0  0  0  0  0
  148.6771  138.6721  155.3669 H   0  0  0  0  0  0  0  0  0  0  0  0
  1  2  2  0  0  0  0
  2  3  1  0  0  0  0
  2 15  1  0  0  0  0
  3  4  1  0  0  0  0
  3 22  1  0  0  0  0
  4 13  1  0  0  0  0
  4  5  2  0  0  0  0
  5  6  1  0  0  0  0
  5 23  1  0  0  0  0
  6  7  1  0  0  0  0
  6 11  2  0  0  0  0
  7  8  1  0  0  0  0
  7  9  1  0  0  0  0
  7 10  1  0  0  0  0
 11 12  1  0  0  0  0
 11 24  1  0  0  0  0
 12 13  1  0  0  0  0
 13 14  2  0  0  0  0
 15 16  1  0  0  0  0
 15 25  1  0  0  0  0
 16 21  1  0  0  0  0
 16 17  1  0  0  0  0
 16 26  1  0  0  0  0
 17 18  1  0  0  0  0
 17 27  1  0  0  0  0
 17 28  1  0  0  0  0
 18 19  1  0  0  0  0
 18 29  1  0  0  0  0
 18 30  1  0  0  0  0
 19 20  1  0  0  0  0
 20 21  1  0  0  0  0
 20 31  1  0  0  0  0
 20 32  1  0  0  0  0
 21 33  1  0  0  0  0
 21 34  1  0  0  0  0
M  CHG  1  12  -1
M  END
> <s_m_source_file>
AV-unprocessed.smi

> <i_m_source_file_index>
1524

> <i_lp_mmshare_version>
43012

> <i_f3d_flags>
0

> <s_epik_input>
W0NIMl0xW0NIMl1PW0NIMl1bQ0gyXVtDSF0xW05IXUMoPU8pW05IXWMyW2NIXWMoQyhGKShGKUYpW2NIXVtuSF1jMj1P

> <s_epik_cmdline>
J2VwaWtfcHl0aG9uJywgJy1waCcsICc3LjAnLCAnLXRuJywgJzgnLCAnLW1hJywgJzIwMCcsICctbWV0YWxfYmluZGluZycsICctaW1hZScsICc8aW5maWxlLm1hZT4nLCAnLW9tYWUnLCAnPG91dGZpbGUubWFlPic=

> <r_lp_tautomer_probability>
1

> <r_epik_Ionization_Penalty>
3.17101

> <r_epik_Ionization_Penalty_Charging>
0.175581

> <r_epik_Ionization_Penalty_Neutral>
2.99543

> <r_epik_State_Penalty>
2.99161

> <r_epik_Charging_Adjusted_Penalty>
3.16719

> <i_epik_Tot_Q>
-1

> <i_epik_Tot_abs_Q>
1

> <r_epik_Metal_State_Penalty>
0.453119

> <b_epik_Metal_Only>
1

> <s_lp_Force_Field>
OPLS_2005

> <r_lp_Energy>
32.5819

> <b_lp_Chiralities_Consistent>
1

> <s_lp_Variant>
AV-unprocessed.smi:1524-2

> <Gold.Version>
5.8.1

> <Gold.Id.Protein>
6NUR|6NUR_protein|mol2

> <Gold.PLP.Fitness>
43.8854

> <Gold.PLP.PLP>
-34.3230

> <Gold.PLP.part.hbond>
-4.0000

> <Gold.PLP.part.metal>
0.0000

> <Gold.PLP.part.buried>
-5.7497

> <Gold.PLP.part.nonpolar>
-24.8631

> <Gold.PLP.part.repulsive>
0.3102

> <Gold.PLP.ligand.clash>
0.0000

> <Gold.PLP.ligand.torsion>
0.5726

> <Gold.PLP.Chemscore.Hbond>
3.5680

> <Gold.PLP.Chemscore.CHOScore>
0.0000

> <Gold.PLP.Chemscore.Metal>
0.0000

> <Gold.Chemscore.Hbonds>
donor molecule, donor type, donor heavy atom, donor atom, acceptor molecule, acceptor atom, score
      P1  H  6896  6908       L1     1  1.00
      P1  H  6931  6943       L1    14  0.88
      P1  H  6934  6947       L1    14  0.64
      P1  H  7989  7998       L1    19  1.00

> <Gold.PLP.Chemscore.Internal.Correction>
0.0036

> <Gold.Rescore>
     Score         DG    S(hbond)    S(metal)    S(lipo)     H(rot)  DE(clash)    DE(int)     intcor
     20.51     -21.12       3.54        0.00      54.59       1.00       0.00       0.61       ----

> <Gold.Chemscore.Fitness>
20.5141

> <Gold.Chemscore.DG>
-21.1221

> <Gold.Chemscore.ZeroCoef>
-5.4800

> <Gold.Chemscore.Hbond>
3.5374

> <Gold.Chemscore.Metal>
0.0000

> <Gold.Chemscore.Lipo>
54.5911

> <Gold.Chemscore.Internal_Hbond>
0.0000

> <Gold.Chemscore.DEClash>
0.0000

> <Gold.Chemscore.DEInternal>
0.6080

> <Gold.Chemscore.Rot>
1.0000

> <Gold.Chemscore.Internal.Correction>
   9.000000E+99

> <Gold.Chemscore.Hbonds>
donor molecule, donor type, donor heavy atom, donor atom, acceptor molecule, acceptor atom, score
      P1  H  6896  6908       L1     1  0.97
      P1  H  6931  6943       L1    14  0.84
      P1  H  6934  6947       L1    14  0.61
      P1  H  7989  7998       L1    19  0.37

> <Gold.Chemscore.Hbond.Weighted>
-11.8149

> <Gold.Chemscore.Metal.Weighted>
-0.0000

> <Gold.Chemscore.Lipo.Weighted>
-6.3872

> <Gold.Chemscore.Internal_Hbond.Weighted>
0.0000

> <Gold.Chemscore.DEClash.Weighted>
0.0000

> <Gold.Chemscore.DEInternal.Weighted>
0.6080

> <Gold.Chemscore.Rot.Weighted>
2.5600

> <Gold.Chemscore.Internal.Correction.Weighted>
   9.000000E+99

> <Gold.Protein.RotatedTorsions>
[ 6907 6896 6895 6894 ] final -170.61 input  -60.11 | X-H torsion
[ 7974 7965 7964 7962 ] final   37.04 input  175.53 | X-H torsion
[ 8008 7997 7996 7995 ] final   68.08 input   59.86 | X-H torsion
[ 10167 10162 10161 10158 ] final    3.40 input  -65.29 | X-H torsion
[ 10718 10713 10712 10709 ] final -139.45 input   66.30 | X-H torsion
[ 10763 10752 10751 10750 ] final  -26.80 input  -60.55 | X-H torsion
[ 11005 11000 10999 10996 ] final -105.43 input  -57.11 | X-H torsion

> <Gold.Protein.ActiveResidues>
 VAL166  LYS551  ARG553  GLY616  TRP617  ASP618  TYR619  PRO620  LYS621  CYS622 
 ASP623  PHE694  ASN695  SER759  ASP760  ASP761  ALA762  ILE779  LEU786  VAL792 
 PHE793  MET794  SER795  GLU796  ALA797  LYS798  CYS799  TRP800  GLU811  SER814 

> <Gold.Protein.RotatedAtoms>
  151.5104  133.3486  159.2883 H   0  0  0  0  0  0  0  0  0  0  0  0  # atno 6907 bound_to 6896
  150.8716  134.8093  159.7170 H   0  0  0  0  0  0  0  0  0  0  0  0  # atno 6908 bound_to 6896
  152.4702  134.4989  159.9770 H   0  0  0  0  0  0  0  0  0  0  0  0  # atno 6909 bound_to 6896
  146.1167  139.5943  142.9316 H   0  0  0  0  0  0  0  0  0  0  0  0  # atno 7974 bound_to 7965
  155.7029  140.3495  155.4940 H   0  0  0  0  0  0  0  0  0  0  0  0  # atno 8008 bound_to 7997
  155.9425  140.1104  157.1066 H   0  0  0  0  0  0  0  0  0  0  0  0  # atno 8009 bound_to 7997
  154.4105  140.1210  156.4932 H   0  0  0  0  0  0  0  0  0  0  0  0  # atno 8010 bound_to 7997
  140.6587  143.7359  150.7700 H   0  0  0  0  0  0  0  0  0  0  0  0  # atno 10167 bound_to 10162
  156.3109  130.7481  151.1556 H   0  0  0  0  0  0  0  0  0  0  0  0  # atno 10718 bound_to 10713
  153.7218  135.6944  153.5011 H   0  0  0  0  0  0  0  0  0  0  0  0  # atno 10763 bound_to 10752
  153.2199  135.4373  155.0476 H   0  0  0  0  0  0  0  0  0  0  0  0  # atno 10764 bound_to 10752
  154.8282  135.3458  154.6751 H   0  0  0  0  0  0  0  0  0  0  0  0  # atno 10765 bound_to 10752
  141.1053  133.8807  157.1734 H   0  0  0  0  0  0  0  0  0  0  0  0  # atno 11005 bound_to 11000
  145.5551  141.0410  143.2257 LP  0  0  0  0  0  0  0  0  0  0  0  0  # atno 17320 bound_to 7965
  144.7560  139.7074  143.7254 LP  0  0  0  0  0  0  0  0  0  0  0  0  # atno 17321 bound_to 7965
  140.1024  143.4775  152.2418 LP  0  0  0  0  0  0  0  0  0  0  0  0  # atno 17342 bound_to 10162
  139.5816  144.7513  151.3625 LP  0  0  0  0  0  0  0  0  0  0  0  0  # atno 17343 bound_to 10162
  157.7391  131.0533  150.5256 LP  0  0  0  0  0  0  0  0  0  0  0  0  # atno 17370 bound_to 10713
  156.5395  130.4204  149.6161 LP  0  0  0  0  0  0  0  0  0  0  0  0  # atno 17371 bound_to 10713
  139.9921  135.0060  156.9999 LP  0  0  0  0  0  0  0  0  0  0  0  0  # atno 17394 bound_to 11000
  140.4917  134.1186  155.7234 LP  0  0  0  0  0  0  0  0  0  0  0  0  # atno 17395 bound_to 11000

$$$$
