AV-unprocessed.smi:3004|AV-procd|sdf|11441|dock3
  -GOLD-   2272016373D 1   1.00000     0.00000
 Structure written by MMmdl.
 47 48  0  0  0  0  0  0  0  0  2 V2000
  151.3133  141.8451  157.3292 C   0  0  0  0  0  0  0  0  0  0  0  0
  150.6196  141.0876  156.2360 C   0  0  0  0  0  0  0  0  0  0  0  0
  149.3049  141.2801  155.7272 C   0  0  0  0  0  0  0  0  0  0  0  0
  149.1784  140.3333  154.7502 C   0  0  0  0  0  0  0  0  0  0  0  0
  148.0285  140.0288  153.8474 C   0  0  0  0  0  0  0  0  0  0  0  0
  150.3721  139.6344  154.7119 N   0  0  0  0  0  0  0  0  0  0  0  0
  150.7623  138.5297  153.8495 C   0  0  0  0  0  0  0  0  0  0  0  0
  151.0869  137.2770  154.6647 C   0  0  0  0  0  0  0  0  0  0  0  0
  151.9926  137.3002  155.4982 O   0  0  0  0  0  0  0  0  0  0  0  0
  150.3405  136.1895  154.4161 N   0  0  0  0  0  0  0  0  0  0  0  0
  150.4887  134.9039  155.0857 C   0  0  0  0  0  0  0  0  0  0  0  0
  149.9765  133.7490  154.2018 C   0  0  0  0  0  0  0  0  0  0  0  0
  148.6437  134.0117  153.5939 N   0  3  2  0  0  0  0  0  0  0  0  0
  147.6420  134.4249  154.6140 C   0  0  0  0  0  0  0  0  0  0  0  0
  146.3354  134.9006  153.9595 C   0  0  0  0  0  0  0  0  0  0  0  0
  145.7575  133.8224  153.0370 C   0  0  0  0  0  0  0  0  0  0  0  0
  146.8131  133.4017  152.0057 C   0  0  0  0  0  0  0  0  0  0  0  0
  148.1319  132.9503  152.6693 C   0  0  2  0  0  0  0  0  0  0  0  0
  148.0081  131.5603  153.3296 C   0  0  0  0  0  0  0  0  0  0  0  0
  151.2543  140.1023  155.6224 N   0  0  0  0  0  0  0  0  0  0  0  0
  150.6367  142.5533  157.8079 H   0  0  0  0  0  0  0  0  0  0  0  0
  152.1609  142.4088  156.9387 H   0  0  0  0  0  0  0  0  0  0  0  0
  151.6863  141.1708  158.1005 H   0  0  0  0  0  0  0  0  0  0  0  0
  148.5653  142.0047  156.0342 H   0  0  0  0  0  0  0  0  0  0  0  0
  147.2011  140.7159  154.0257 H   0  0  0  0  0  0  0  0  0  0  0  0
  147.6628  139.0150  154.0114 H   0  0  0  0  0  0  0  0  0  0  0  0
  148.3198  140.1210  152.8011 H   0  0  0  0  0  0  0  0  0  0  0  0
  149.9567  138.3153  153.1453 H   0  0  0  0  0  0  0  0  0  0  0  0
  151.6284  138.8275  153.2574 H   0  0  0  0  0  0  0  0  0  0  0  0
  149.6156  136.2638  153.7163 H   0  0  0  0  0  0  0  0  0  0  0  0
  151.5443  134.7591  155.3165 H   0  0  0  0  0  0  0  0  0  0  0  0
  149.9605  134.9474  156.0383 H   0  0  0  0  0  0  0  0  0  0  0  0
  150.6988  133.5005  153.4239 H   0  0  0  0  0  0  0  0  0  0  0  0
  149.8983  132.8590  154.8281 H   0  0  0  0  0  0  0  0  0  0  0  0
  147.4455  133.6014  155.3013 H   0  0  0  0  0  0  0  0  0  0  0  0
  148.0478  135.2390  155.2158 H   0  0  0  0  0  0  0  0  0  0  0  0
  145.6073  135.1639  154.7272 H   0  0  0  0  0  0  0  0  0  0  0  0
  146.5233  135.8100  153.3869 H   0  0  0  0  0  0  0  0  0  0  0  0
  145.4385  132.9604  153.6240 H   0  0  0  0  0  0  0  0  0  0  0  0
  144.8682  134.1991  152.5311 H   0  0  0  0  0  0  0  0  0  0  0  0
  146.4183  132.6102  151.3677 H   0  0  0  0  0  0  0  0  0  0  0  0
  147.0166  134.2457  151.3451 H   0  0  0  0  0  0  0  0  0  0  0  0
  148.8452  132.8484  151.8526 H   0  0  0  0  0  0  0  0  0  0  0  0
  147.6103  130.8331  152.6215 H   0  0  0  0  0  0  0  0  0  0  0  0
  147.3433  131.5675  154.1928 H   0  0  0  0  0  0  0  0  0  0  0  0
  148.9754  131.1791  153.6561 H   0  0  0  0  0  0  0  0  0  0  0  0
  148.7746  134.8275  153.0129 H   0  0  0  0  0  0  0  0  0  0  0  0
  1  2  1  0  0  0  0
  1 21  1  0  0  0  0
  1 22  1  0  0  0  0
  1 23  1  0  0  0  0
  2 20  2  0  0  0  0
  2  3  1  0  0  0  0
  3  4  2  0  0  0  0
  3 24  1  0  0  0  0
  4  5  1  0  0  0  0
  4  6  1  0  0  0  0
  5 25  1  0  0  0  0
  5 26  1  0  0  0  0
  5 27  1  0  0  0  0
  6  7  1  0  0  0  0
  6 20  1  0  0  0  0
  7  8  1  0  0  0  0
  7 28  1  0  0  0  0
  7 29  1  0  0  0  0
  8  9  2  0  0  0  0
  8 10  1  0  0  0  0
 10 11  1  0  0  0  0
 10 30  1  0  0  0  0
 11 12  1  0  0  0  0
 11 31  1  0  0  0  0
 11 32  1  0  0  0  0
 12 13  1  0  0  0  0
 12 33  1  0  0  0  0
 12 34  1  0  0  0  0
 13 18  1  0  0  0  0
 13 14  1  0  0  0  0
 13 47  1  0  0  0  0
 14 15  1  0  0  0  0
 14 35  1  0  0  0  0
 14 36  1  0  0  0  0
 15 16  1  0  0  0  0
 15 37  1  0  0  0  0
 15 38  1  0  0  0  0
 16 17  1  0  0  0  0
 16 39  1  0  0  0  0
 16 40  1  0  0  0  0
 17 18  1  0  0  0  0
 17 41  1  0  0  0  0
 17 42  1  0  0  0  0
 18 19  1  0  0  0  0
 18 43  1  0  0  0  0
 19 44  1  0  0  0  0
 19 45  1  0  0  0  0
 19 46  1  0  0  0  0
M  CHG  1  13   1
M  END
> <s_m_source_file>
AV-unprocessed.smi

> <i_m_source_file_index>
3004

> <i_lp_mmshare_version>
43012

> <i_f3d_flags>
0

> <s_epik_input>
W0NIM11jMVtjSF1jKFtDSDNdKW4objEpW0NIMl1DKD1PKVtOSF1bQ0gyXVtDSDJdTjJbQ0gyXVtDSDJdW0NIMl1bQ0gyXVtDQEhdMltDSDNd

> <s_epik_cmdline>
J2VwaWtfcHl0aG9uJywgJy1waCcsICc3LjAnLCAnLXRuJywgJzgnLCAnLW1hJywgJzIwMCcsICctbWV0YWxfYmluZGluZycsICctaW1hZScsICc8aW5maWxlLm1hZT4nLCAnLW9tYWUnLCAnPG91dGZpbGUubWFlPic=

> <r_lp_tautomer_probability>
1

> <r_epik_Ionization_Penalty>
0.00303644

> <r_epik_Ionization_Penalty_Charging>
0.00284254

> <r_epik_Ionization_Penalty_Neutral>
0.000193908

> <r_epik_State_Penalty>
-0

> <r_epik_Charging_Adjusted_Penalty>
0.00284254

> <i_epik_Tot_Q>
1

> <i_epik_Tot_abs_Q>
1

> <r_epik_Metal_State_Penalty>
-0

> <b_epik_Metal_Only>
0

> <s_lp_Force_Field>
OPLS_2005

> <r_lp_Energy>
17.6316

> <b_lp_Chiralities_Consistent>
1

> <s_lp_Variant>
AV-unprocessed.smi:3004-3

> <Gold.Version>
5.8.1

> <Gold.Id.Protein>
6NUR|6NUR_protein|mol2

> <Gold.PLP.Fitness>
46.8450

> <Gold.PLP.PLP>
-35.4028

> <Gold.PLP.part.hbond>
-3.9172

> <Gold.PLP.part.metal>
0.0000

> <Gold.PLP.part.buried>
-1.0932

> <Gold.PLP.part.nonpolar>
-29.4645

> <Gold.PLP.part.repulsive>
0.1110

> <Gold.PLP.ligand.clash>
0.0000

> <Gold.PLP.ligand.torsion>
0.2379

> <Gold.PLP.Chemscore.Hbond>
3.9516

> <Gold.PLP.Chemscore.CHOScore>
0.0000

> <Gold.PLP.Chemscore.Metal>
0.0000

> <Gold.Chemscore.Hbonds>
donor molecule, donor type, donor heavy atom, donor atom, acceptor molecule, acceptor atom, score
      L1  H    10    30       P1  7948  1.00
      L1  H    13    47       P1  7948  1.90
      P1  H 10752 10765       L1     9  0.57

> <Gold.PLP.Chemscore.Internal.Correction>
0.0632

> <Gold.Rescore>
     Score         DG    S(hbond)    S(metal)    S(lipo)     H(rot)  DE(clash)    DE(int)     intcor
     16.87     -18.30       2.58        0.00      72.39       1.67       0.07       1.37       ----

> <Gold.Chemscore.Fitness>
16.8660

> <Gold.Chemscore.DG>
-18.3047

> <Gold.Chemscore.ZeroCoef>
-5.4800

> <Gold.Chemscore.Hbond>
2.5808

> <Gold.Chemscore.Metal>
0.0000

> <Gold.Chemscore.Lipo>
72.3851

> <Gold.Chemscore.Internal_Hbond>
0.0000

> <Gold.Chemscore.DEClash>
0.0656

> <Gold.Chemscore.DEInternal>
1.3731

> <Gold.Chemscore.Rot>
1.6657

> <Gold.Chemscore.Internal.Correction>
   9.000000E+99

> <Gold.Chemscore.Hbonds>
donor molecule, donor type, donor heavy atom, donor atom, acceptor molecule, acceptor atom, score
      L1  H    10    30       P1  7948  0.47
      L1  H    13    47       P1  7948  0.22
      P1  H 10752 10765       L1     9  0.17

> <Gold.Chemscore.Hbond.Weighted>
-8.6198

> <Gold.Chemscore.Metal.Weighted>
-0.0000

> <Gold.Chemscore.Lipo.Weighted>
-8.4691

> <Gold.Chemscore.Internal_Hbond.Weighted>
0.0000

> <Gold.Chemscore.DEClash.Weighted>
0.0656

> <Gold.Chemscore.DEInternal.Weighted>
1.3731

> <Gold.Chemscore.Rot.Weighted>
4.2641

> <Gold.Chemscore.Internal.Correction.Weighted>
   9.000000E+99

> <Gold.Protein.RotatedTorsions>
[ 6907 6896 6895 6894 ] final   84.97 input  -60.11 | X-H torsion
[ 7974 7965 7964 7962 ] final  -41.30 input  175.53 | X-H torsion
[ 8008 7997 7996 7995 ] final  -60.03 input   59.86 | X-H torsion
[ 10167 10162 10161 10158 ] final  158.22 input  -65.29 | X-H torsion
[ 10718 10713 10712 10709 ] final -110.83 input   66.30 | X-H torsion
[ 10763 10752 10751 10750 ] final -156.34 input  -60.55 | X-H torsion
[ 11005 11000 10999 10996 ] final  -28.12 input  -57.11 | X-H torsion

> <Gold.Protein.ActiveResidues>
 VAL166  LYS551  ARG553  GLY616  TRP617  ASP618  TYR619  PRO620  LYS621  CYS622 
 ASP623  PHE694  ASN695  SER759  ASP760  ASP761  ALA762  ILE779  LEU786  VAL792 
 PHE793  MET794  SER795  GLU796  ALA797  LYS798  CYS799  TRP800  GLU811  SER814 

> <Gold.Protein.RotatedAtoms>
  152.5364  134.2658  159.8952 H   0  0  0  0  0  0  0  0  0  0  0  0  # atno 6907 bound_to 6896
  151.2617  133.4292  159.2624 H   0  0  0  0  0  0  0  0  0  0  0  0  # atno 6908 bound_to 6896
  151.0447  134.9646  159.8236 H   0  0  0  0  0  0  0  0  0  0  0  0  # atno 6909 bound_to 6896
  146.0224  140.6833  142.9172 H   0  0  0  0  0  0  0  0  0  0  0  0  # atno 7974 bound_to 7965
  154.4379  140.1048  156.6209 H   0  0  0  0  0  0  0  0  0  0  0  0  # atno 8008 bound_to 7997
  155.5708  140.3489  155.4496 H   0  0  0  0  0  0  0  0  0  0  0  0  # atno 8009 bound_to 7997
  156.0391  140.1278  157.0165 H   0  0  0  0  0  0  0  0  0  0  0  0  # atno 8010 bound_to 7997
  139.4826  144.4845  151.8397 H   0  0  0  0  0  0  0  0  0  0  0  0  # atno 10167 bound_to 10162
  156.0613  130.5836  150.8291 H   0  0  0  0  0  0  0  0  0  0  0  0  # atno 10718 bound_to 10713
  154.7720  135.3148  154.8170 H   0  0  0  0  0  0  0  0  0  0  0  0  # atno 10763 bound_to 10752
  153.8903  135.6826  153.4765 H   0  0  0  0  0  0  0  0  0  0  0  0  # atno 10764 bound_to 10752
  153.1335  135.4769  154.9321 H   0  0  0  0  0  0  0  0  0  0  0  0  # atno 10765 bound_to 10752
  140.9180  133.7417  156.0761 H   0  0  0  0  0  0  0  0  0  0  0  0  # atno 11005 bound_to 11000
  144.6995  140.3590  143.7167 LP  0  0  0  0  0  0  0  0  0  0  0  0  # atno 17320 bound_to 7965
  145.7172  139.1700  143.2505 LP  0  0  0  0  0  0  0  0  0  0  0  0  # atno 17321 bound_to 7965
  140.4324  144.2098  150.5888 LP  0  0  0  0  0  0  0  0  0  0  0  0  # atno 17342 bound_to 10162
  140.4766  143.2394  151.9014 LP  0  0  0  0  0  0  0  0  0  0  0  0  # atno 17343 bound_to 10162
  157.5623  131.0946  150.9540 LP  0  0  0  0  0  0  0  0  0  0  0  0  # atno 17370 bound_to 10713
  156.9775  130.5514  149.5294 LP  0  0  0  0  0  0  0  0  0  0  0  0  # atno 17371 bound_to 10713
  140.8025  134.3492  157.5435 LP  0  0  0  0  0  0  0  0  0  0  0  0  # atno 17394 bound_to 11000
  139.8770  134.9206  156.3255 LP  0  0  0  0  0  0  0  0  0  0  0  0  # atno 17395 bound_to 11000

$$$$
