AV-unprocessed.smi:415|AV-procd|sdf|2522|dock8
  -GOLD-   2262022473D 1   1.00000     0.00000
 Structure written by MMmdl.
 53 54  0  0  0  0  0  0  0  0  1 V2000
  147.6814  141.8065  153.8794 C   0  0  0  0  0  0  0  0  0  0  0  0
  148.8226  142.3638  154.5066 O   0  0  0  0  0  0  0  0  0  0  0  0
  149.6167  141.3888  155.1618 C   0  0  0  0  0  0  0  0  0  0  0  0
  149.3610  141.4323  156.6775 C   0  0  0  0  0  0  0  0  0  0  0  0
  149.6580  140.1760  157.3405 N   0  0  0  0  0  0  0  0  0  0  0  0
  150.9536  139.6956  157.5086 C   0  0  0  0  0  0  0  0  0  0  0  0
  152.0241  140.4419  157.0493 N   0  0  0  0  0  0  0  0  0  0  0  0
  151.1942  138.5157  158.1220 C   0  0  0  0  0  0  0  0  0  0  0  0
  150.1167  137.6850  158.6400 C   0  0  0  0  0  0  0  0  0  0  0  0
  150.3121  136.5894  159.1667 O   0  0  0  0  0  0  0  0  0  0  0  0
  148.8111  138.2050  158.4850 N   0  0  0  0  0  0  0  0  0  0  0  0
  147.6633  137.3882  158.9491 C   0  0  0  0  0  0  0  0  0  0  0  0
  147.7202  137.0052  160.4395 C   0  0  0  0  0  0  0  0  0  0  0  0
  148.7694  137.1532  161.0642 O   0  0  0  0  0  0  0  0  0  0  0  0
  146.6004  136.5153  160.9945 N   0  0  0  0  0  0  0  0  0  0  0  0
  146.4161  136.0878  162.3775 C   0  0  2  0  0  0  0  0  0  0  0  0
  147.4756  135.0370  162.7626 C   0  0  0  0  0  0  0  0  0  0  0  0
  147.2707  133.7195  162.0003 C   0  0  0  0  0  0  0  0  0  0  0  0
  145.8517  133.1758  162.2158 C   0  0  0  0  0  0  0  0  0  0  0  0
  144.7669  134.2009  161.8241 C   0  0  1  0  0  0  0  0  0  0  0  0
  143.3708  133.5954  162.0539 C   0  0  0  0  0  0  0  0  0  0  0  0
  144.9785  135.5430  162.5819 C   0  0  2  0  0  0  0  0  0  0  0  0
  143.9232  136.6089  162.2202 C   0  0  0  0  0  0  0  0  0  0  0  0
  148.5557  139.4420  157.8491 C   0  0  0  0  0  0  0  0  0  0  0  0
  147.3973  139.8504  157.7308 O   0  0  0  0  0  0  0  0  0  0  0  0
  147.1053  142.5974  153.3989 H   0  0  0  0  0  0  0  0  0  0  0  0
  147.0342  141.3116  154.6046 H   0  0  0  0  0  0  0  0  0  0  0  0
  147.9661  141.0844  153.1131 H   0  0  0  0  0  0  0  0  0  0  0  0
  149.3574  140.3998  154.7811 H   0  0  0  0  0  0  0  0  0  0  0  0
  150.6747  141.5505  154.9492 H   0  0  0  0  0  0  0  0  0  0  0  0
  149.9096  142.2360  157.1712 H   0  0  0  0  0  0  0  0  0  0  0  0
  148.3127  141.6446  156.8858 H   0  0  0  0  0  0  0  0  0  0  0  0
  151.8962  141.3331  156.5912 H   0  0  0  0  0  0  0  0  0  0  0  0
  152.9778  140.1258  157.1529 H   0  0  0  0  0  0  0  0  0  0  0  0
  152.2114  138.1680  158.2328 H   0  0  0  0  0  0  0  0  0  0  0  0
  146.7178  137.9013  158.7668 H   0  0  0  0  0  0  0  0  0  0  0  0
  147.5774  136.4708  158.3650 H   0  0  0  0  0  0  0  0  0  0  0  0
  145.7911  136.4332  160.3964 H   0  0  0  0  0  0  0  0  0  0  0  0
  146.5448  136.9566  163.0255 H   0  0  0  0  0  0  0  0  0  0  0  0
  148.4793  135.4223  162.5785 H   0  0  0  0  0  0  0  0  0  0  0  0
  147.4179  134.8444  163.8345 H   0  0  0  0  0  0  0  0  0  0  0  0
  147.4487  133.8728  160.9351 H   0  0  0  0  0  0  0  0  0  0  0  0
  148.0039  132.9833  162.3303 H   0  0  0  0  0  0  0  0  0  0  0  0
  145.7264  132.2605  161.6362 H   0  0  0  0  0  0  0  0  0  0  0  0
  145.7295  132.8940  163.2629 H   0  0  0  0  0  0  0  0  0  0  0  0
  144.8618  134.3914  160.7537 H   0  0  0  0  0  0  0  0  0  0  0  0
  143.1738  133.4434  163.1155 H   0  0  0  0  0  0  0  0  0  0  0  0
  143.2778  132.6286  161.5583 H   0  0  0  0  0  0  0  0  0  0  0  0
  142.5828  134.2320  161.6525 H   0  0  0  0  0  0  0  0  0  0  0  0
  144.8668  135.3388  163.6481 H   0  0  0  0  0  0  0  0  0  0  0  0
  143.8714  136.7780  161.1439 H   0  0  0  0  0  0  0  0  0  0  0  0
  144.1532  137.5633  162.6944 H   0  0  0  0  0  0  0  0  0  0  0  0
  142.9285  136.3208  162.5589 H   0  0  0  0  0  0  0  0  0  0  0  0
  1  2  1  0  0  0  0
  1 26  1  0  0  0  0
  1 27  1  0  0  0  0
  1 28  1  0  0  0  0
  2  3  1  0  0  0  0
  3  4  1  0  0  0  0
  3 29  1  0  0  0  0
  3 30  1  0  0  0  0
  4  5  1  0  0  0  0
  4 31  1  0  0  0  0
  4 32  1  0  0  0  0
  5 24  1  0  0  0  0
  5  6  1  0  0  0  0
  6  7  1  0  0  0  0
  6  8  2  0  0  0  0
  7 33  1  0  0  0  0
  7 34  1  0  0  0  0
  8  9  1  0  0  0  0
  8 35  1  0  0  0  0
  9 10  2  0  0  0  0
  9 11  1  0  0  0  0
 11 12  1  0  0  0  0
 11 24  1  0  0  0  0
 12 13  1  0  0  0  0
 12 36  1  0  0  0  0
 12 37  1  0  0  0  0
 13 14  2  0  0  0  0
 13 15  1  0  0  0  0
 15 16  1  0  0  0  0
 15 38  1  0  0  0  0
 16 22  1  0  0  0  0
 16 17  1  0  0  0  0
 16 39  1  0  0  0  0
 17 18  1  0  0  0  0
 17 40  1  0  0  0  0
 17 41  1  0  0  0  0
 18 19  1  0  0  0  0
 18 42  1  0  0  0  0
 18 43  1  0  0  0  0
 19 20  1  0  0  0  0
 19 44  1  0  0  0  0
 19 45  1  0  0  0  0
 20 21  1  0  0  0  0
 20 22  1  0  0  0  0
 20 46  1  0  0  0  0
 21 47  1  0  0  0  0
 21 48  1  0  0  0  0
 21 49  1  0  0  0  0
 22 23  1  0  0  0  0
 22 50  1  0  0  0  0
 23 51  1  0  0  0  0
 23 52  1  0  0  0  0
 23 53  1  0  0  0  0
 24 25  2  0  0  0  0
M  END
> <s_m_source_file>
AV-unprocessed.smi

> <i_m_source_file_index>
415

> <i_lp_mmshare_version>
43012

> <i_f3d_flags>
0

> <s_epik_input>
W0NIM11PW0NIMl1bQ0gyXW4xYyhbTkgyXSlbY0hdYyg9TyluKGMxPU8pW0NIMl1DKD1PKVtOSF1bQ0BASF0yW0NIMl1bQ0gyXVtDSDJdW0NAQEhdKFtDSDNdKVtDQEhdMltDSDNd

> <s_epik_cmdline>
J2VwaWtfcHl0aG9uJywgJy1waCcsICc3LjAnLCAnLXRuJywgJzgnLCAnLW1hJywgJzIwMCcsICctbWV0YWxfYmluZGluZycsICctaW1hZScsICc8aW5maWxlLm1hZT4nLCAnLW9tYWUnLCAnPG91dGZpbGUubWFlPic=

> <r_lp_tautomer_probability>
1

> <r_epik_Ionization_Penalty>
8.6647e-06

> <r_epik_Ionization_Penalty_Charging>
1.81162e-08

> <r_epik_Ionization_Penalty_Neutral>
8.64658e-06

> <r_epik_State_Penalty>
-0

> <r_epik_Charging_Adjusted_Penalty>
1.81162e-08

> <i_epik_Tot_Q>
0

> <i_epik_Tot_abs_Q>
0

> <r_epik_Metal_State_Penalty>
-0

> <b_epik_Metal_Only>
0

> <s_lp_Force_Field>
OPLS_2005

> <r_lp_Energy>
19.7433

> <b_lp_Chiralities_Consistent>
1

> <s_lp_Variant>
AV-unprocessed.smi:415-5

> <Gold.Version>
5.8.1

> <Gold.Id.Protein>
6NUR|6NUR_protein|mol2

> <Gold.PLP.Fitness>
45.6365

> <Gold.PLP.PLP>
-39.5571

> <Gold.PLP.part.hbond>
-3.2986

> <Gold.PLP.part.metal>
0.0000

> <Gold.PLP.part.buried>
-6.1852

> <Gold.PLP.part.nonpolar>
-30.4984

> <Gold.PLP.part.repulsive>
0.4467

> <Gold.PLP.ligand.clash>
0.0000

> <Gold.PLP.ligand.torsion>
0.7180

> <Gold.PLP.Chemscore.Hbond>
2.4856

> <Gold.PLP.Chemscore.CHOScore>
0.0000

> <Gold.PLP.Chemscore.Metal>
0.0000

> <Gold.Chemscore.Hbonds>
donor molecule, donor type, donor heavy atom, donor atom, acceptor molecule, acceptor atom, score
      P1  H  6896  6909       L1    10  0.99
      P1  H  6931  6943       L1    14  0.65
      P1  H  8011  8017       L1     2  0.01

> <Gold.PLP.Chemscore.Internal.Correction>
0.0586

> <Gold.Rescore>
     Score         DG    S(hbond)    S(metal)    S(lipo)     H(rot)  DE(clash)    DE(int)     intcor
     14.34     -15.18       1.95        0.00      76.67       2.26       0.11       0.73       ----

> <Gold.Chemscore.Fitness>
14.3357

> <Gold.Chemscore.DG>
-15.1810

> <Gold.Chemscore.ZeroCoef>
-5.4800

> <Gold.Chemscore.Hbond>
1.9543

> <Gold.Chemscore.Metal>
0.0000

> <Gold.Chemscore.Lipo>
76.6722

> <Gold.Chemscore.Internal_Hbond>
0.0000

> <Gold.Chemscore.DEClash>
0.1129

> <Gold.Chemscore.DEInternal>
0.7325

> <Gold.Chemscore.Rot>
2.2645

> <Gold.Chemscore.Internal.Correction>
   9.000000E+99

> <Gold.Chemscore.Hbonds>
donor molecule, donor type, donor heavy atom, donor atom, acceptor molecule, acceptor atom, score
      P1  H  6896  6909       L1    10  0.94
      P1  H  6931  6943       L1    14  0.62

> <Gold.Chemscore.Hbond.Weighted>
-6.5275

> <Gold.Chemscore.Metal.Weighted>
-0.0000

> <Gold.Chemscore.Lipo.Weighted>
-8.9707

> <Gold.Chemscore.Internal_Hbond.Weighted>
0.0000

> <Gold.Chemscore.DEClash.Weighted>
0.1129

> <Gold.Chemscore.DEInternal.Weighted>
0.7325

> <Gold.Chemscore.Rot.Weighted>
5.7972

> <Gold.Chemscore.Internal.Correction.Weighted>
   9.000000E+99

> <Gold.Protein.RotatedTorsions>
[ 6907 6896 6895 6894 ] final   65.10 input  -60.11 | X-H torsion
[ 7974 7965 7964 7962 ] final  176.12 input  175.53 | X-H torsion
[ 8008 7997 7996 7995 ] final -152.38 input   59.86 | X-H torsion
[ 10167 10162 10161 10158 ] final -148.28 input  -65.29 | X-H torsion
[ 10718 10713 10712 10709 ] final  -34.27 input   66.30 | X-H torsion
[ 10763 10752 10751 10750 ] final  -75.55 input  -60.55 | X-H torsion
[ 11005 11000 10999 10996 ] final   37.38 input  -57.11 | X-H torsion

> <Gold.Protein.ActiveResidues>
 VAL166  LYS551  ARG553  GLY616  TRP617  ASP618  TYR619  PRO620  LYS621  CYS622 
 ASP623  PHE694  ASN695  SER759  ASP760  ASP761  ALA762  ILE779  LEU786  VAL792 
 PHE793  MET794  SER795  GLU796  ALA797  LYS798  CYS799  TRP800  GLU811  SER814 

> <Gold.Protein.RotatedAtoms>
  152.4382  134.5644  159.9903 H   0  0  0  0  0  0  0  0  0  0  0  0  # atno 6907 bound_to 6896
  151.5749  133.3379  159.3005 H   0  0  0  0  0  0  0  0  0  0  0  0  # atno 6908 bound_to 6896
  150.8284  134.7560  159.6896 H   0  0  0  0  0  0  0  0  0  0  0  0  # atno 6909 bound_to 6896
  144.7190  140.0048  143.6440 H   0  0  0  0  0  0  0  0  0  0  0  0  # atno 7974 bound_to 7965
  155.6542  140.0715  157.2576 H   0  0  0  0  0  0  0  0  0  0  0  0  # atno 8008 bound_to 7997
  154.4156  140.1728  156.1757 H   0  0  0  0  0  0  0  0  0  0  0  0  # atno 8009 bound_to 7997
  155.9752  140.3358  155.6615 H   0  0  0  0  0  0  0  0  0  0  0  0  # atno 8010 bound_to 7997
  139.7546  143.8468  152.2594 H   0  0  0  0  0  0  0  0  0  0  0  0  # atno 10167 bound_to 10162
  156.3526  130.4311  149.7691 H   0  0  0  0  0  0  0  0  0  0  0  0  # atno 10718 bound_to 10713
  154.4880  135.5827  153.6438 H   0  0  0  0  0  0  0  0  0  0  0  0  # atno 10763 bound_to 10752
  152.9857  135.6106  154.3162 H   0  0  0  0  0  0  0  0  0  0  0  0  # atno 10764 bound_to 10752
  154.3059  135.2846  155.2568 H   0  0  0  0  0  0  0  0  0  0  0  0  # atno 10765 bound_to 10752
  140.2232  134.3616  155.7996 H   0  0  0  0  0  0  0  0  0  0  0  0  # atno 11005 bound_to 11000
  146.0306  139.3331  143.0757 LP  0  0  0  0  0  0  0  0  0  0  0  0  # atno 17320 bound_to 7965
  145.8457  140.9556  143.0776 LP  0  0  0  0  0  0  0  0  0  0  0  0  # atno 17321 bound_to 7965
  139.8456  144.7189  150.9277 LP  0  0  0  0  0  0  0  0  0  0  0  0  # atno 17342 bound_to 10162
  140.7801  143.3944  151.1254 LP  0  0  0  0  0  0  0  0  0  0  0  0  # atno 17343 bound_to 10162
  156.4886  130.8074  151.3085 LP  0  0  0  0  0  0  0  0  0  0  0  0  # atno 17370 bound_to 10713
  157.7463  130.9983  150.2846 LP  0  0  0  0  0  0  0  0  0  0  0  0  # atno 17371 bound_to 10713
  141.2222  133.7204  156.8609 LP  0  0  0  0  0  0  0  0  0  0  0  0  # atno 17394 bound_to 11000
  140.1828  134.9021  157.2969 LP  0  0  0  0  0  0  0  0  0  0  0  0  # atno 17395 bound_to 11000

$$$$
