AV-unprocessed.smi:447|AV-procd|sdf|2597|dock6
  -GOLD-   2262022593D 1   1.00000     0.00000
 Structure written by MMmdl.
 45 47  0  0  0  0  0  0  0  0  1 V2000
  151.6987  137.1080  159.1707 C   0  0  0  0  0  0  0  0  0  0  0  0
  151.7838  136.8130  157.6772 C   0  0  0  0  0  0  0  0  0  0  0  0
  152.2474  135.7429  157.2858 O   0  0  0  0  0  0  0  0  0  0  0  0
  151.3298  137.7736  156.8575 N   0  0  0  0  0  0  0  0  0  0  0  0
  151.2957  137.7030  155.3962 C   0  0  2  0  0  0  0  0  0  0  0  0
  152.6779  138.0593  154.8327 C   0  0  0  0  0  0  0  0  0  0  0  0
  150.2219  138.6274  154.8725 C   0  0  0  0  0  0  0  0  0  0  0  0
  149.1936  138.1909  154.1378 N   0  0  0  0  0  0  0  0  0  0  0  0
  148.4715  139.3423  153.8996 C   0  0  0  0  0  0  0  0  0  0  0  0
  147.2806  139.5446  153.1659 C   0  0  0  0  0  0  0  0  0  0  0  0
  146.7159  140.8328  153.0634 C   0  0  0  0  0  0  0  0  0  0  0  0
  147.3314  141.9339  153.6934 C   0  0  0  0  0  0  0  0  0  0  0  0
  148.5174  141.7529  154.4309 C   0  0  0  0  0  0  0  0  0  0  0  0
  149.0783  140.4652  154.5271 C   0  0  0  0  0  0  0  0  0  0  0  0
  150.2066  139.9558  155.1614 N   0  0  0  0  0  0  0  0  0  0  0  0
  151.1428  140.7292  155.9684 C   0  0  0  0  0  0  0  0  0  0  0  0
  150.6417  140.9625  157.4074 C   0  0  2  0  0  0  0  0  0  0  0  0
  149.2813  141.3466  157.3930 O   0  0  0  0  0  0  0  0  0  0  0  0
  151.5148  141.9714  158.1366 C   0  0  0  0  0  0  0  0  0  0  0  0
  151.6017  143.2998  157.6668 C   0  0  0  0  0  0  0  0  0  0  0  0
  152.4029  144.2408  158.3430 C   0  0  0  0  0  0  0  0  0  0  0  0
  153.1198  143.8593  159.4933 C   0  0  0  0  0  0  0  0  0  0  0  0
  153.0337  142.5369  159.9691 C   0  0  0  0  0  0  0  0  0  0  0  0
  152.2325  141.5958  159.2938 C   0  0  0  0  0  0  0  0  0  0  0  0
  150.6970  137.4458  159.4385 H   0  0  0  0  0  0  0  0  0  0  0  0
  152.4124  137.8856  159.4448 H   0  0  0  0  0  0  0  0  0  0  0  0
  151.9241  136.2153  159.7553 H   0  0  0  0  0  0  0  0  0  0  0  0
  150.9591  138.6137  157.2770 H   0  0  0  0  0  0  0  0  0  0  0  0
  151.0638  136.6752  155.1160 H   0  0  0  0  0  0  0  0  0  0  0  0
  152.6861  137.9926  153.7444 H   0  0  0  0  0  0  0  0  0  0  0  0
  153.4426  137.3799  155.2098 H   0  0  0  0  0  0  0  0  0  0  0  0
  152.9685  139.0748  155.1046 H   0  0  0  0  0  0  0  0  0  0  0  0
  146.8014  138.7071  152.6811 H   0  0  0  0  0  0  0  0  0  0  0  0
  145.8057  140.9763  152.4997 H   0  0  0  0  0  0  0  0  0  0  0  0
  146.8921  142.9173  153.6108 H   0  0  0  0  0  0  0  0  0  0  0  0
  148.9912  142.5937  154.9152 H   0  0  0  0  0  0  0  0  0  0  0  0
  152.0877  140.1849  155.9952 H   0  0  0  0  0  0  0  0  0  0  0  0
  151.3642  141.6746  155.4746 H   0  0  0  0  0  0  0  0  0  0  0  0
  150.6874  140.0177  157.9508 H   0  0  0  0  0  0  0  0  0  0  0  0
  148.8196  140.8436  158.0462 H   0  0  0  0  0  0  0  0  0  0  0  0
  151.0535  143.6026  156.7867 H   0  0  0  0  0  0  0  0  0  0  0  0
  152.4667  145.2559  157.9794 H   0  0  0  0  0  0  0  0  0  0  0  0
  153.7339  144.5810  160.0119 H   0  0  0  0  0  0  0  0  0  0  0  0
  153.5813  142.2442  160.8530 H   0  0  0  0  0  0  0  0  0  0  0  0
  152.1691  140.5845  159.6685 H   0  0  0  0  0  0  0  0  0  0  0  0
  1  2  1  0  0  0  0
  1 25  1  0  0  0  0
  1 26  1  0  0  0  0
  1 27  1  0  0  0  0
  2  3  2  0  0  0  0
  2  4  1  0  0  0  0
  4  5  1  0  0  0  0
  4 28  1  0  0  0  0
  5  6  1  0  0  0  0
  5  7  1  0  0  0  0
  5 29  1  0  0  0  0
  6 30  1  0  0  0  0
  6 31  1  0  0  0  0
  6 32  1  0  0  0  0
  7 15  1  0  0  0  0
  7  8  2  0  0  0  0
  8  9  1  0  0  0  0
  9 14  2  0  0  0  0
  9 10  1  0  0  0  0
 10 11  2  0  0  0  0
 10 33  1  0  0  0  0
 11 12  1  0  0  0  0
 11 34  1  0  0  0  0
 12 13  2  0  0  0  0
 12 35  1  0  0  0  0
 13 14  1  0  0  0  0
 13 36  1  0  0  0  0
 14 15  1  0  0  0  0
 15 16  1  0  0  0  0
 16 17  1  0  0  0  0
 16 37  1  0  0  0  0
 16 38  1  0  0  0  0
 17 18  1  0  0  0  0
 17 19  1  0  0  0  0
 17 39  1  0  0  0  0
 18 40  1  0  0  0  0
 19 24  1  0  0  0  0
 19 20  2  0  0  0  0
 20 21  1  0  0  0  0
 20 41  1  0  0  0  0
 21 22  2  0  0  0  0
 21 42  1  0  0  0  0
 22 23  1  0  0  0  0
 22 43  1  0  0  0  0
 23 24  2  0  0  0  0
 23 44  1  0  0  0  0
 24 45  1  0  0  0  0
M  END
> <s_m_source_file>
AV-unprocessed.smi

> <i_m_source_file_index>
447

> <i_lp_mmshare_version>
43012

> <i_f3d_flags>
0

> <s_epik_input>
W0NIM11DKD1PKVtOSF1bQ0BIXShbQ0gzXSljKG4xKW4oYyhjMTIpW2NIXVtjSF1bY0hdW2NIXTIpW0NIMl1bQ0BIXShbT0hdKWMzW2NIXVtjSF1bY0hdW2NIXVtjSF0z

> <s_epik_cmdline>
J2VwaWtfcHl0aG9uJywgJy1waCcsICc3LjAnLCAnLXRuJywgJzgnLCAnLW1hJywgJzIwMCcsICctbWV0YWxfYmluZGluZycsICctaW1hZScsICc8aW5maWxlLm1hZT4nLCAnLW9tYWUnLCAnPG91dGZpbGUubWFlPic=

> <r_epik_Ionization_Penalty>
0.13301

> <r_epik_Ionization_Penalty_Charging>
0

> <r_epik_Ionization_Penalty_Neutral>
0.13301

> <r_epik_State_Penalty>
0.122384

> <r_epik_Charging_Adjusted_Penalty>
0.122384

> <i_epik_Tot_Q>
0

> <i_epik_Tot_abs_Q>
0

> <r_epik_Metal_State_Penalty>
0.0997374

> <b_epik_Metal_Only>
0

> <s_lp_Force_Field>
OPLS_2005

> <r_lp_Energy>
7.61604

> <b_lp_Chiralities_Consistent>
1

> <s_lp_Variant>
AV-unprocessed.smi:447-1

> <Gold.Version>
5.8.1

> <Gold.Id.Protein>
6NUR|6NUR_protein|mol2

> <Gold.PLP.Fitness>
51.6520

> <Gold.PLP.PLP>
-50.0724

> <Gold.PLP.part.hbond>
-1.0000

> <Gold.PLP.part.metal>
0.0000

> <Gold.PLP.part.buried>
-0.6198

> <Gold.PLP.part.nonpolar>
-47.8754

> <Gold.PLP.part.repulsive>
0.6199

> <Gold.PLP.ligand.clash>
0.0000

> <Gold.PLP.ligand.torsion>
0.7361

> <Gold.PLP.Chemscore.Hbond>
1.0000

> <Gold.PLP.Chemscore.CHOScore>
0.0000

> <Gold.PLP.Chemscore.Metal>
0.0000

> <Gold.Chemscore.Hbonds>
donor molecule, donor type, donor heavy atom, donor atom, acceptor molecule, acceptor atom, score
      P1  H 10752 10765       L1     3  0.21

> <Gold.PLP.Chemscore.Internal.Correction>
0.0519

> <Gold.Rescore>
     Score         DG    S(hbond)    S(metal)    S(lipo)     H(rot)  DE(clash)    DE(int)     intcor
     18.31     -19.28       0.97        0.00     141.68       2.35       0.53       0.44       ----

> <Gold.Chemscore.Fitness>
18.3076

> <Gold.Chemscore.DG>
-19.2844

> <Gold.Chemscore.ZeroCoef>
-5.4800

> <Gold.Chemscore.Hbond>
0.9734

> <Gold.Chemscore.Metal>
0.0000

> <Gold.Chemscore.Lipo>
141.6787

> <Gold.Chemscore.Internal_Hbond>
0.0000

> <Gold.Chemscore.DEClash>
0.5350

> <Gold.Chemscore.DEInternal>
0.4418

> <Gold.Chemscore.Rot>
2.3528

> <Gold.Chemscore.Internal.Correction>
   9.000000E+99

> <Gold.Chemscore.Hbonds>
donor molecule, donor type, donor heavy atom, donor atom, acceptor molecule, acceptor atom, score
      P1  H 10752 10765       L1     3  0.21

> <Gold.Chemscore.Hbond.Weighted>
-3.2511

> <Gold.Chemscore.Metal.Weighted>
-0.0000

> <Gold.Chemscore.Lipo.Weighted>
-16.5764

> <Gold.Chemscore.Internal_Hbond.Weighted>
0.0000

> <Gold.Chemscore.DEClash.Weighted>
0.5350

> <Gold.Chemscore.DEInternal.Weighted>
0.4418

> <Gold.Chemscore.Rot.Weighted>
6.0231

> <Gold.Chemscore.Internal.Correction.Weighted>
   9.000000E+99

> <Gold.Protein.RotatedTorsions>
[ 6907 6896 6895 6894 ] final -141.33 input  -60.11 | X-H torsion
[ 7974 7965 7964 7962 ] final  -57.28 input  175.53 | X-H torsion
[ 8008 7997 7996 7995 ] final   81.69 input   59.86 | X-H torsion
[ 10167 10162 10161 10158 ] final   86.58 input  -65.29 | X-H torsion
[ 10718 10713 10712 10709 ] final  137.70 input   66.30 | X-H torsion
[ 10763 10752 10751 10750 ] final -126.83 input  -60.55 | X-H torsion
[ 11005 11000 10999 10996 ] final  -23.35 input  -57.11 | X-H torsion

> <Gold.Protein.ActiveResidues>
 VAL166  LYS551  ARG553  GLY616  TRP617  ASP618  TYR619  PRO620  LYS621  CYS622 
 ASP623  PHE694  ASN695  SER759  ASP760  ASP761  ALA762  ILE779  LEU786  VAL792 
 PHE793  MET794  SER795  GLU796  ALA797  LYS798  CYS799  TRP800  GLU811  SER814 

> <Gold.Protein.RotatedAtoms>
  151.0724  133.5455  159.2625 H   0  0  0  0  0  0  0  0  0  0  0  0  # atno 6907 bound_to 6896
  151.2389  135.0581  159.9027 H   0  0  0  0  0  0  0  0  0  0  0  0  # atno 6908 bound_to 6896
  152.5413  134.0502  159.8160 H   0  0  0  0  0  0  0  0  0  0  0  0  # atno 6909 bound_to 6896
  145.8529  140.8340  142.9976 H   0  0  0  0  0  0  0  0  0  0  0  0  # atno 7974 bound_to 7965
  155.9005  140.3433  155.6023 H   0  0  0  0  0  0  0  0  0  0  0  0  # atno 8008 bound_to 7997
  155.7506  140.0819  157.2222 H   0  0  0  0  0  0  0  0  0  0  0  0  # atno 8009 bound_to 7997
  154.4043  140.1554  156.2706 H   0  0  0  0  0  0  0  0  0  0  0  0  # atno 8010 bound_to 7997
  139.8861  144.6412  150.8789 H   0  0  0  0  0  0  0  0  0  0  0  0  # atno 10167 bound_to 10162
  157.4332  131.1050  151.0226 H   0  0  0  0  0  0  0  0  0  0  0  0  # atno 10718 bound_to 10713
  154.8748  135.3982  154.3495 H   0  0  0  0  0  0  0  0  0  0  0  0  # atno 10763 bound_to 10752
  153.4282  135.7024  153.6253 H   0  0  0  0  0  0  0  0  0  0  0  0  # atno 10764 bound_to 10752
  153.4886  135.3753  155.2450 H   0  0  0  0  0  0  0  0  0  0  0  0  # atno 10765 bound_to 10752
  140.8744  133.7698  156.0225 H   0  0  0  0  0  0  0  0  0  0  0  0  # atno 11005 bound_to 11000
  144.6728  140.0980  143.7462 LP  0  0  0  0  0  0  0  0  0  0  0  0  # atno 17320 bound_to 7965
  145.9337  139.2623  143.1310 LP  0  0  0  0  0  0  0  0  0  0  0  0  # atno 17321 bound_to 7965
  140.7735  143.3547  151.1945 LP  0  0  0  0  0  0  0  0  0  0  0  0  # atno 17342 bound_to 10162
  139.7152  143.9312  152.2963 LP  0  0  0  0  0  0  0  0  0  0  0  0  # atno 17343 bound_to 10162
  157.1115  130.6023  149.5483 LP  0  0  0  0  0  0  0  0  0  0  0  0  # atno 17370 bound_to 10713
  155.9921  130.4978  150.7326 LP  0  0  0  0  0  0  0  0  0  0  0  0  # atno 17371 bound_to 10713
  140.8536  134.2925  157.5265 LP  0  0  0  0  0  0  0  0  0  0  0  0  # atno 17394 bound_to 11000
  139.8714  134.9481  156.3986 LP  0  0  0  0  0  0  0  0  0  0  0  0  # atno 17395 bound_to 11000

$$$$
