AV-unprocessed.smi:2693|AV-procd|sdf|10403|dock2
  -GOLD-   2272014433D 1   1.00000     0.00000
 Structure written by MMmdl.
 45 47  0  0  0  0  0  0  0  0  1 V2000
  144.4986  132.6051  148.8238 C   0  0  0  0  0  0  0  0  0  0  0  0
  145.2538  132.9170  150.0340 N   0  0  0  0  0  0  0  0  0  0  0  0
  145.8615  131.8041  150.7579 C   0  0  0  0  0  0  0  0  0  0  0  0
  145.3887  134.2338  150.4839 C   0  0  0  0  0  0  0  0  0  0  0  0
  144.5930  135.1598  149.9325 N   0  0  0  0  0  0  0  0  0  0  0  0
  144.7239  136.4330  150.3613 C   0  0  0  0  0  0  0  0  0  0  0  0
  145.6525  136.7939  151.3580 C   0  0  0  0  0  0  0  0  0  0  0  0
  145.7560  138.1567  151.7452 N   0  0  0  0  0  0  0  0  0  0  0  0
  146.7716  138.7662  152.3794 C   0  0  0  0  0  0  0  0  0  0  0  0
  147.7685  138.2036  152.8312 O   0  0  0  0  0  0  0  0  0  0  0  0
  146.5612  140.0849  152.4784 N   0  0  0  0  0  0  0  0  0  0  0  0
  147.4988  141.0225  153.0853 C   0  0  2  0  0  0  0  0  0  0  0  0
  148.1243  140.4768  154.3694 C   0  0  1  0  0  0  0  0  0  0  0  0
  149.4974  140.0743  154.7743 C   0  0  0  0  0  0  0  0  0  0  0  0
  149.5410  140.8122  156.1394 C   0  0  0  0  0  0  0  0  0  0  0  0
  148.3794  141.6778  156.1610 O   0  0  0  0  0  0  0  0  0  0  0  0
  148.1256  141.9325  154.7948 C   0  0  2  0  0  0  0  0  0  0  0  0
  146.8086  142.0957  154.0103 C   0  0  0  0  0  0  0  0  0  0  0  0
  146.5957  143.4693  153.3733 C   0  0  0  0  0  0  0  0  0  0  0  0
  145.4928  141.7477  154.7361 C   0  0  0  0  0  0  0  0  0  0  0  0
  146.4479  135.7399  151.8674 C   0  0  0  0  0  0  0  0  0  0  0  0
  146.3084  134.4709  151.4285 N   0  0  0  0  0  0  0  0  0  0  0  0
  143.4799  132.9865  148.9002 H   0  0  0  0  0  0  0  0  0  0  0  0
  144.4369  131.5315  148.6465 H   0  0  0  0  0  0  0  0  0  0  0  0
  144.9724  133.0614  147.9541 H   0  0  0  0  0  0  0  0  0  0  0  0
  145.4319  131.7222  151.7566 H   0  0  0  0  0  0  0  0  0  0  0  0
  146.9370  131.9550  150.8566 H   0  0  0  0  0  0  0  0  0  0  0  0
  145.7063  130.8530  150.2483 H   0  0  0  0  0  0  0  0  0  0  0  0
  144.0794  137.1688  149.9027 H   0  0  0  0  0  0  0  0  0  0  0  0
  144.9604  138.7347  151.5168 H   0  0  0  0  0  0  0  0  0  0  0  0
  145.7124  140.4690  152.0899 H   0  0  0  0  0  0  0  0  0  0  0  0
  148.2360  141.4341  152.3898 H   0  0  0  0  0  0  0  0  0  0  0  0
  147.3985  139.8711  154.9174 H   0  0  0  0  0  0  0  0  0  0  0  0
  149.6107  138.9950  154.8776 H   0  0  0  0  0  0  0  0  0  0  0  0
  150.2534  140.4484  154.0826 H   0  0  0  0  0  0  0  0  0  0  0  0
  149.4942  140.1189  156.9796 H   0  0  0  0  0  0  0  0  0  0  0  0
  150.4556  141.3988  156.2344 H   0  0  0  0  0  0  0  0  0  0  0  0
  148.9386  142.5217  154.3551 H   0  0  0  0  0  0  0  0  0  0  0  0
  146.3967  144.2328  154.1262 H   0  0  0  0  0  0  0  0  0  0  0  0
  145.7554  143.4637  152.6784 H   0  0  0  0  0  0  0  0  0  0  0  0
  147.4731  143.7905  152.8115 H   0  0  0  0  0  0  0  0  0  0  0  0
  145.2739  142.4744  155.5191 H   0  0  0  0  0  0  0  0  0  0  0  0
  145.4991  140.7697  155.2132 H   0  0  0  0  0  0  0  0  0  0  0  0
  144.6475  141.7523  154.0472 H   0  0  0  0  0  0  0  0  0  0  0  0
  147.2162  135.8913  152.6090 H   0  0  0  0  0  0  0  0  0  0  0  0
  1  2  1  0  0  0  0
  1 23  1  0  0  0  0
  1 24  1  0  0  0  0
  1 25  1  0  0  0  0
  2  3  1  0  0  0  0
  2  4  1  0  0  0  0
  3 26  1  0  0  0  0
  3 27  1  0  0  0  0
  3 28  1  0  0  0  0
  4 22  1  0  0  0  0
  4  5  2  0  0  0  0
  5  6  1  0  0  0  0
  6  7  2  0  0  0  0
  6 29  1  0  0  0  0
  7  8  1  0  0  0  0
  7 21  1  0  0  0  0
  8  9  1  0  0  0  0
  8 30  1  0  0  0  0
  9 10  2  0  0  0  0
  9 11  1  0  0  0  0
 11 12  1  0  0  0  0
 11 31  1  0  0  0  0
 12 18  1  0  0  0  0
 12 13  1  0  0  0  0
 12 32  1  0  0  0  0
 13 17  1  0  0  0  0
 13 14  1  0  0  0  0
 13 33  1  0  0  0  0
 14 15  1  0  0  0  0
 14 34  1  0  0  0  0
 14 35  1  0  0  0  0
 15 16  1  0  0  0  0
 15 36  1  0  0  0  0
 15 37  1  0  0  0  0
 16 17  1  0  0  0  0
 17 18  1  0  0  0  0
 17 38  1  0  0  0  0
 18 19  1  0  0  0  0
 18 20  1  0  0  0  0
 19 39  1  0  0  0  0
 19 40  1  0  0  0  0
 19 41  1  0  0  0  0
 20 42  1  0  0  0  0
 20 43  1  0  0  0  0
 20 44  1  0  0  0  0
 21 22  2  0  0  0  0
 21 45  1  0  0  0  0
M  END
> <s_m_source_file>
AV-unprocessed.smi

> <i_m_source_file_index>
2693

> <i_lp_mmshare_version>
43012

> <i_f3d_flags>
0

> <s_epik_input>
W0NIM11OKFtDSDNdKWMxbltjSF1jKFtjSF1uMSlbTkhdQyg9TylbTkhdW0NASF0yQyhbQ0gzXSkoW0NIM10pW0NAQEhdKFtDQEhdMjMpT1tDSDJdW0NIMl0z

> <s_epik_cmdline>
J2VwaWtfcHl0aG9uJywgJy1waCcsICc3LjAnLCAnLXRuJywgJzgnLCAnLW1hJywgJzIwMCcsICctbWV0YWxfYmluZGluZycsICctaW1hZScsICc8aW5maWxlLm1hZT4nLCAnLW9tYWUnLCAnPG91dGZpbGUubWFlPic=

> <r_lp_tautomer_probability>
1

> <r_epik_Ionization_Penalty>
0.00031779

> <r_epik_Ionization_Penalty_Charging>
0

> <r_epik_Ionization_Penalty_Neutral>
0.00031779

> <r_epik_State_Penalty>
-0

> <r_epik_Charging_Adjusted_Penalty>
0

> <i_epik_Tot_Q>
0

> <i_epik_Tot_abs_Q>
0

> <r_epik_Metal_State_Penalty>
-0

> <b_epik_Metal_Only>
0

> <s_lp_Force_Field>
OPLS_2005

> <r_lp_Energy>
52.7661

> <b_lp_Chiralities_Consistent>
1

> <s_lp_Variant>
AV-unprocessed.smi:2693-7

> <Gold.Version>
5.8.1

> <Gold.Id.Protein>
6NUR|6NUR_protein|mol2

> <Gold.PLP.Fitness>
43.3283

> <Gold.PLP.PLP>
-33.6407

> <Gold.PLP.part.hbond>
-3.0000

> <Gold.PLP.part.metal>
0.0000

> <Gold.PLP.part.buried>
1.0890

> <Gold.PLP.part.nonpolar>
-35.2952

> <Gold.PLP.part.repulsive>
4.4468

> <Gold.PLP.ligand.clash>
0.0000

> <Gold.PLP.ligand.torsion>
0.3967

> <Gold.PLP.Chemscore.Hbond>
1.7280

> <Gold.PLP.Chemscore.CHOScore>
1.6740

> <Gold.PLP.Chemscore.Metal>
0.0000

> <Gold.Chemscore.Hbonds>
donor molecule, donor type, donor heavy atom, donor atom, acceptor molecule, acceptor atom, score
      L1  H     8    30       P1 10171  0.51
      L1  H    11    31       P1 10175  0.74
      L1  C    21    45       P1  7948  0.45

> <Gold.PLP.Chemscore.Internal.Correction>
0.2747

> <Gold.Rescore>
     Score         DG    S(hbond)    S(metal)    S(lipo)     H(rot)  DE(clash)    DE(int)     intcor
     10.82     -19.21       1.79        0.00      88.09       1.00       5.50       2.89       ----

> <Gold.Chemscore.Fitness>
10.8207

> <Gold.Chemscore.DG>
-19.2103

> <Gold.Chemscore.ZeroCoef>
-5.4800

> <Gold.Chemscore.Hbond>
1.7914

> <Gold.Chemscore.Metal>
0.0000

> <Gold.Chemscore.Lipo>
88.0942

> <Gold.Chemscore.Internal_Hbond>
0.0000

> <Gold.Chemscore.DEClash>
5.4979

> <Gold.Chemscore.DEInternal>
2.8917

> <Gold.Chemscore.Rot>
1.0000

> <Gold.Chemscore.Internal.Correction>
   9.000000E+99

> <Gold.Chemscore.Hbonds>
donor molecule, donor type, donor heavy atom, donor atom, acceptor molecule, acceptor atom, score
      L1  H     8    30       P1 10171  0.49
      L1  H    11    31       P1 10175  0.16

> <Gold.Chemscore.Hbond.Weighted>
-5.9833

> <Gold.Chemscore.Metal.Weighted>
-0.0000

> <Gold.Chemscore.Lipo.Weighted>
-10.3070

> <Gold.Chemscore.Internal_Hbond.Weighted>
0.0000

> <Gold.Chemscore.DEClash.Weighted>
5.4979

> <Gold.Chemscore.DEInternal.Weighted>
2.8917

> <Gold.Chemscore.Rot.Weighted>
2.5600

> <Gold.Chemscore.Internal.Correction.Weighted>
   9.000000E+99

> <Gold.Protein.RotatedTorsions>
[ 6907 6896 6895 6894 ] final  137.80 input  -60.11 | X-H torsion
[ 7974 7965 7964 7962 ] final  148.61 input  175.53 | X-H torsion
[ 8008 7997 7996 7995 ] final  129.50 input   59.86 | X-H torsion
[ 10167 10162 10161 10158 ] final   -0.46 input  -65.29 | X-H torsion
[ 10718 10713 10712 10709 ] final  109.03 input   66.30 | X-H torsion
[ 10763 10752 10751 10750 ] final -177.56 input  -60.55 | X-H torsion
[ 11005 11000 10999 10996 ] final   75.08 input  -57.11 | X-H torsion

> <Gold.Protein.ActiveResidues>
 VAL166  LYS551  ARG553  GLY616  TRP617  ASP618  TYR619  PRO620  LYS621  CYS622 
 ASP623  PHE694  ASN695  SER759  ASP760  ASP761  ALA762  ILE779  LEU786  VAL792 
 PHE793  MET794  SER795  GLU796  ALA797  LYS798  CYS799  TRP800  GLU811  SER814 

> <Gold.Protein.RotatedAtoms>
  152.2739  133.5407  159.5455 H   0  0  0  0  0  0  0  0  0  0  0  0  # atno 6907 bound_to 6896
  150.7169  134.0659  159.3856 H   0  0  0  0  0  0  0  0  0  0  0  0  # atno 6908 bound_to 6896
  151.8573  135.0537  160.0516 H   0  0  0  0  0  0  0  0  0  0  0  0  # atno 6909 bound_to 6896
  144.8501  139.6175  143.5978 H   0  0  0  0  0  0  0  0  0  0  0  0  # atno 7974 bound_to 7965
  156.2937  140.2619  156.2609 H   0  0  0  0  0  0  0  0  0  0  0  0  # atno 8008 bound_to 7997
  154.9789  140.0390  157.2287 H   0  0  0  0  0  0  0  0  0  0  0  0  # atno 8009 bound_to 7997
  154.7790  140.2791  155.6083 H   0  0  0  0  0  0  0  0  0  0  0  0  # atno 8010 bound_to 7997
  140.6768  143.6891  150.8042 H   0  0  0  0  0  0  0  0  0  0  0  0  # atno 10167 bound_to 10162
  157.6560  131.0906  150.6394 H   0  0  0  0  0  0  0  0  0  0  0  0  # atno 10718 bound_to 10713
  154.5586  135.2818  155.0941 H   0  0  0  0  0  0  0  0  0  0  0  0  # atno 10763 bound_to 10752
  154.2358  135.6366  153.5194 H   0  0  0  0  0  0  0  0  0  0  0  0  # atno 10764 bound_to 10752
  153.0023  135.5548  154.6173 H   0  0  0  0  0  0  0  0  0  0  0  0  # atno 10765 bound_to 10752
  139.9360  134.7487  156.1227 H   0  0  0  0  0  0  0  0  0  0  0  0  # atno 11005 bound_to 11000
  146.2777  139.6796  142.9251 LP  0  0  0  0  0  0  0  0  0  0  0  0  # atno 17320 bound_to 7965
  145.4518  141.0428  143.2800 LP  0  0  0  0  0  0  0  0  0  0  0  0  # atno 17321 bound_to 7965
  140.0585  143.5178  152.2639 LP  0  0  0  0  0  0  0  0  0  0  0  0  # atno 17342 bound_to 10162
  139.6066  144.7598  151.3048 LP  0  0  0  0  0  0  0  0  0  0  0  0  # atno 17343 bound_to 10162
  156.6700  130.4537  149.5660 LP  0  0  0  0  0  0  0  0  0  0  0  0  # atno 17370 bound_to 10713
  156.2004  130.6616  151.1161 LP  0  0  0  0  0  0  0  0  0  0  0  0  # atno 17371 bound_to 10713
  141.0974  133.6690  156.2676 LP  0  0  0  0  0  0  0  0  0  0  0  0  # atno 17394 bound_to 11000
  140.6074  134.5493  157.5528 LP  0  0  0  0  0  0  0  0  0  0  0  0  # atno 17395 bound_to 11000

$$$$
