AV-unprocessed.smi:188|AV-procd|sdf|1474|dock1
  -GOLD-   2262019293D 1   1.00000     0.00000
 Structure written by MMmdl.
 48 52  0  0  0  0  0  0  0  0  2 V2000
  156.6924  139.8724  164.0514 O   0  0  0  0  0  0  0  0  0  0  0  0
  156.2254  139.8978  162.9150 C   0  0  0  0  0  0  0  0  0  0  0  0
  156.9885  140.1622  161.8507 N   0  0  0  0  0  0  0  0  0  0  0  0
  156.2870  140.1411  160.7221 C   0  0  0  0  0  0  0  0  0  0  0  0
  156.7123  140.3433  159.5853 O   0  0  0  0  0  0  0  0  0  0  0  0
  154.8427  139.8165  161.0954 C   0  0  0  0  0  0  0  0  0  0  0  0
  153.8583  140.9566  160.7375 C   0  0  0  0  0  0  0  0  0  0  0  0
  153.5699  141.0355  159.2269 C   0  0  0  0  0  0  0  0  0  0  0  0
  153.1292  139.7395  158.7071 N   0  0  0  0  0  0  0  0  0  0  0  0
  152.5492  139.7217  157.4797 C   0  0  0  0  0  0  0  0  0  0  0  0
  152.9656  138.8257  156.5444 N   0  0  0  0  0  0  0  0  0  0  0  0
  152.3928  138.7917  155.3381 C   0  0  0  0  0  0  0  0  0  0  0  0
  151.4066  139.5530  154.8611 N   0  0  0  0  0  0  0  0  0  0  0  0
  150.9915  140.4629  155.7876 C   0  0  0  0  0  0  0  0  0  0  0  0
  151.5011  140.6118  157.1093 C   0  0  0  0  0  0  0  0  0  0  0  0
  150.8349  141.6454  157.7573 N   0  0  0  0  0  0  0  0  0  0  0  0
  149.9757  142.0750  156.8748 C   0  0  0  0  0  0  0  0  0  0  0  0
  150.0079  141.4288  155.6592 N   0  0  0  0  0  0  0  0  0  0  0  0
  149.1658  141.7115  154.5059 C   0  0  0  0  0  0  0  0  0  0  0  0
  147.6940  141.2788  154.6655 C   0  0  0  0  0  0  0  0  0  0  0  0
  147.1069  140.9555  153.2754 C   0  0  0  0  0  0  0  0  0  0  0  0
  147.5046  139.6845  152.8011 O   0  0  0  0  0  0  0  0  0  0  0  0
  147.4016  140.2549  155.7726 C   0  0  0  0  0  0  0  0  0  0  0  0
  146.3946  141.1013  156.3693 O   0  0  0  0  0  0  0  0  0  0  0  0
  146.8517  142.2041  155.5564 C   0  0  0  0  0  0  0  0  0  0  0  0
  154.0384  138.6232  158.9649 C   0  0  0  0  0  0  0  0  0  0  0  0
  154.3429  138.4914  160.4694 C   0  0  0  0  0  0  0  0  0  0  0  0
  154.9428  139.6803  162.5408 N   0  5  0  0  0  0  0  0  0  0  0  0
  157.9778  140.3538  161.8990 H   0  0  0  0  0  0  0  0  0  0  0  0
  152.9152  140.7997  161.2638 H   0  0  0  0  0  0  0  0  0  0  0  0
  154.2390  141.9183  161.0852 H   0  0  0  0  0  0  0  0  0  0  0  0
  152.7992  141.7869  159.0499 H   0  0  0  0  0  0  0  0  0  0  0  0
  154.4595  141.3602  158.6866 H   0  0  0  0  0  0  0  0  0  0  0  0
  152.7820  138.0486  154.6580 H   0  0  0  0  0  0  0  0  0  0  0  0
  149.2960  142.8881  157.0849 H   0  0  0  0  0  0  0  0  0  0  0  0
  149.2325  142.7804  154.2998 H   0  0  0  0  0  0  0  0  0  0  0  0
  149.6069  141.2188  153.6384 H   0  0  0  0  0  0  0  0  0  0  0  0
  146.0170  140.9820  153.2989 H   0  0  0  0  0  0  0  0  0  0  0  0
  147.4267  141.6865  152.5324 H   0  0  0  0  0  0  0  0  0  0  0  0
  148.3061  139.7825  152.3103 H   0  0  0  0  0  0  0  0  0  0  0  0
  146.9977  139.3082  155.4118 H   0  0  0  0  0  0  0  0  0  0  0  0
  148.2327  140.0857  156.4580 H   0  0  0  0  0  0  0  0  0  0  0  0
  147.4413  142.9147  156.1380 H   0  0  0  0  0  0  0  0  0  0  0  0
  146.0378  142.7130  155.0389 H   0  0  0  0  0  0  0  0  0  0  0  0
  153.6219  137.6828  158.6061 H   0  0  0  0  0  0  0  0  0  0  0  0
  154.9587  138.7829  158.4028 H   0  0  0  0  0  0  0  0  0  0  0  0
  155.0722  137.6944  160.6231 H   0  0  0  0  0  0  0  0  0  0  0  0
  153.4345  138.1685  160.9806 H   0  0  0  0  0  0  0  0  0  0  0  0
  1  2  2  0  0  0  0
  2 28  1  0  0  0  0
  2  3  1  0  0  0  0
  3  4  1  0  0  0  0
  3 29  1  0  0  0  0
  4  5  2  0  0  0  0
  4  6  1  0  0  0  0
  6 27  1  0  0  0  0
  6  7  1  0  0  0  0
  6 28  1  0  0  0  0
  7  8  1  0  0  0  0
  7 30  1  0  0  0  0
  7 31  1  0  0  0  0
  8  9  1  0  0  0  0
  8 32  1  0  0  0  0
  8 33  1  0  0  0  0
  9 10  1  0  0  0  0
  9 26  1  0  0  0  0
 10 15  1  0  0  0  0
 10 11  2  0  0  0  0
 11 12  1  0  0  0  0
 12 13  2  0  0  0  0
 12 34  1  0  0  0  0
 13 14  1  0  0  0  0
 14 18  1  0  0  0  0
 14 15  2  0  0  0  0
 15 16  1  0  0  0  0
 16 17  2  0  0  0  0
 17 18  1  0  0  0  0
 17 35  1  0  0  0  0
 18 19  1  0  0  0  0
 19 20  1  0  0  0  0
 19 36  1  0  0  0  0
 19 37  1  0  0  0  0
 20 25  1  0  0  0  0
 20 21  1  0  0  0  0
 20 23  1  0  0  0  0
 21 22  1  0  0  0  0
 21 38  1  0  0  0  0
 21 39  1  0  0  0  0
 22 40  1  0  0  0  0
 23 24  1  0  0  0  0
 23 41  1  0  0  0  0
 23 42  1  0  0  0  0
 24 25  1  0  0  0  0
 25 43  1  0  0  0  0
 25 44  1  0  0  0  0
 26 27  1  0  0  0  0
 26 45  1  0  0  0  0
 26 46  1  0  0  0  0
 27 47  1  0  0  0  0
 27 48  1  0  0  0  0
M  CHG  1  28  -1
M  END
> <s_m_source_file>
AV-unprocessed.smi

> <i_m_source_file_index>
188

> <i_lp_mmshare_version>
43012

> <i_f3d_flags>
0

> <s_epik_input>
Tz1DKFtOSF0xKVtOSF1DKD1PKUMxMltDSDJdW0NIMl1OKFtDSDJdW0NIMl0yKWMobltjSF1uMyljKGMzNCluW2NIXW40W0NIMl1DNShbQ0gyXVtPSF0pW0NIMl1PW0NIMl01

> <s_epik_cmdline>
J2VwaWtfcHl0aG9uJywgJy1waCcsICc3LjAnLCAnLXRuJywgJzgnLCAnLW1hJywgJzIwMCcsICctbWV0YWxfYmluZGluZycsICctaW1hZScsICc8aW5maWxlLm1hZT4nLCAnLW9tYWUnLCAnPG91dGZpbGUubWFlPic=

> <r_lp_tautomer_probability>
1

> <r_epik_Ionization_Penalty>
5.87904

> <r_epik_Ionization_Penalty_Charging>
5.87677

> <r_epik_Ionization_Penalty_Neutral>
0.00227107

> <r_epik_State_Penalty>
5.88193

> <r_epik_Charging_Adjusted_Penalty>
11.7587

> <i_epik_Tot_Q>
-1

> <i_epik_Tot_abs_Q>
1

> <r_epik_Metal_State_Penalty>
2.21794

> <b_epik_Metal_Only>
1

> <s_lp_Force_Field>
OPLS_2005

> <r_lp_Energy>
46.2215

> <b_lp_Chiralities_Consistent>
1

> <s_lp_Variant>
AV-unprocessed.smi:188-3

> <Gold.Version>
5.8.1

> <Gold.Id.Protein>
6NUR|6NUR_protein|mol2

> <Gold.PLP.Fitness>
47.1560

> <Gold.PLP.PLP>
-39.2569

> <Gold.PLP.part.hbond>
-4.3535

> <Gold.PLP.part.metal>
0.0000

> <Gold.PLP.part.buried>
-2.7860

> <Gold.PLP.part.nonpolar>
-31.9423

> <Gold.PLP.part.repulsive>
0.1444

> <Gold.PLP.ligand.clash>
0.0000

> <Gold.PLP.ligand.torsion>
1.1145

> <Gold.PLP.Chemscore.Hbond>
2.3500

> <Gold.PLP.Chemscore.CHOScore>
0.7715

> <Gold.PLP.Chemscore.Metal>
0.0000

> <Gold.Chemscore.Hbonds>
donor molecule, donor type, donor heavy atom, donor atom, acceptor molecule, acceptor atom, score
      L1  H    22    40       P1  7957  1.00
      P1  H  7989  7998       L1    13  0.70
      P1  H  7997  8010       L1    11  0.15
      L1  C    17    35       P1  8028  0.92

> <Gold.PLP.Chemscore.Internal.Correction>
0.7637

> <Gold.Rescore>
     Score         DG    S(hbond)    S(metal)    S(lipo)     H(rot)  DE(clash)    DE(int)     intcor
     11.07     -12.41       2.01        0.00      64.16       2.84       0.20       1.14       ----

> <Gold.Chemscore.Fitness>
11.0656

> <Gold.Chemscore.DG>
-12.4130

> <Gold.Chemscore.ZeroCoef>
-5.4800

> <Gold.Chemscore.Hbond>
2.0088

> <Gold.Chemscore.Metal>
0.0000

> <Gold.Chemscore.Lipo>
64.1598

> <Gold.Chemscore.Internal_Hbond>
0.0000

> <Gold.Chemscore.DEClash>
0.2039

> <Gold.Chemscore.DEInternal>
1.1434

> <Gold.Chemscore.Rot>
2.8450

> <Gold.Chemscore.Internal.Correction>
   9.000000E+99

> <Gold.Chemscore.Hbonds>
donor molecule, donor type, donor heavy atom, donor atom, acceptor molecule, acceptor atom, score
      L1  H    22    40       P1  7957  1.00
      P1  H  7989  7998       L1    13  0.07
      P1  H  7997  8009       L1     5  0.02

> <Gold.Chemscore.Hbond.Weighted>
-6.7093

> <Gold.Chemscore.Metal.Weighted>
-0.0000

> <Gold.Chemscore.Lipo.Weighted>
-7.5067

> <Gold.Chemscore.Internal_Hbond.Weighted>
0.0000

> <Gold.Chemscore.DEClash.Weighted>
0.2039

> <Gold.Chemscore.DEInternal.Weighted>
1.1434

> <Gold.Chemscore.Rot.Weighted>
7.2831

> <Gold.Chemscore.Internal.Correction.Weighted>
   9.000000E+99

> <Gold.Protein.RotatedTorsions>
[ 6907 6896 6895 6894 ] final   70.67 input  -60.11 | X-H torsion
[ 7974 7965 7964 7962 ] final  -27.86 input  175.53 | X-H torsion
[ 8008 7997 7996 7995 ] final   81.27 input   59.86 | X-H torsion
[ 10167 10162 10161 10158 ] final  147.09 input  -65.29 | X-H torsion
[ 10718 10713 10712 10709 ] final   81.25 input   66.30 | X-H torsion
[ 10763 10752 10751 10750 ] final   -1.92 input  -60.55 | X-H torsion
[ 11005 11000 10999 10996 ] final -139.84 input  -57.11 | X-H torsion

> <Gold.Protein.ActiveResidues>
 VAL166  LYS551  ARG553  GLY616  TRP617  ASP618  TYR619  PRO620  LYS621  CYS622 
 ASP623  PHE694  ASN695  SER759  ASP760  ASP761  ALA762  ILE779  LEU786  VAL792 
 PHE793  MET794  SER795  GLU796  ALA797  LYS798  CYS799  TRP800  GLU811  SER814 

> <Gold.Protein.RotatedAtoms>
  152.4764  134.4834  159.9672 H   0  0  0  0  0  0  0  0  0  0  0  0  # atno 6907 bound_to 6896
  151.4849  133.3532  159.2852 H   0  0  0  0  0  0  0  0  0  0  0  0  # atno 6908 bound_to 6896
  150.8805  134.8222  159.7282 H   0  0  0  0  0  0  0  0  0  0  0  0  # atno 6909 bound_to 6896
  146.1329  140.5207  142.8685 H   0  0  0  0  0  0  0  0  0  0  0  0  # atno 7974 bound_to 7965
  155.8949  140.3436  155.5983 H   0  0  0  0  0  0  0  0  0  0  0  0  # atno 8008 bound_to 7997
  155.7568  140.0827  157.2194 H   0  0  0  0  0  0  0  0  0  0  0  0  # atno 8009 bound_to 7997
  154.4037  140.1543  156.2774 H   0  0  0  0  0  0  0  0  0  0  0  0  # atno 8010 bound_to 7997
  139.4896  144.5781  151.6925 H   0  0  0  0  0  0  0  0  0  0  0  0  # atno 10167 bound_to 10162
  157.6828  130.9995  150.2199 H   0  0  0  0  0  0  0  0  0  0  0  0  # atno 10718 bound_to 10713
  153.3511  135.6985  153.6788 H   0  0  0  0  0  0  0  0  0  0  0  0  # atno 10763 bound_to 10752
  153.5514  135.3553  155.2761 H   0  0  0  0  0  0  0  0  0  0  0  0  # atno 10764 bound_to 10752
  154.8653  135.4227  154.2747 H   0  0  0  0  0  0  0  0  0  0  0  0  # atno 10765 bound_to 10752
  140.8481  134.2320  157.4775 H   0  0  0  0  0  0  0  0  0  0  0  0  # atno 11005 bound_to 11000
  144.7709  140.5635  143.6671 LP  0  0  0  0  0  0  0  0  0  0  0  0  # atno 17320 bound_to 7965
  145.5221  139.1476  143.3546 LP  0  0  0  0  0  0  0  0  0  0  0  0  # atno 17321 bound_to 7965
  140.5381  144.0622  150.6078 LP  0  0  0  0  0  0  0  0  0  0  0  0  # atno 17342 bound_to 10162
  140.3635  143.2894  152.0357 LP  0  0  0  0  0  0  0  0  0  0  0  0  # atno 17343 bound_to 10162
  156.2852  130.3738  149.7895 LP  0  0  0  0  0  0  0  0  0  0  0  0  # atno 17370 bound_to 10713
  156.5571  130.8367  151.3317 LP  0  0  0  0  0  0  0  0  0  0  0  0  # atno 17371 bound_to 10713
  139.8704  134.9669  156.4579 LP  0  0  0  0  0  0  0  0  0  0  0  0  # atno 17394 bound_to 11000
  140.8821  133.7910  155.9478 LP  0  0  0  0  0  0  0  0  0  0  0  0  # atno 17395 bound_to 11000

$$$$
