AV-unprocessed.smi:2236|AV-procd|sdf|9045|dock1
  -GOLD-   2272012253D 1   1.00000     0.00000
 Structure written by MMmdl.
 37 38  0  0  0  0  0  0  0  0  1 V2000
  146.3338  142.1425  154.1676 C   0  0  0  0  0  0  0  0  0  0  0  0
  147.5461  142.1118  154.9066 O   0  0  0  0  0  0  0  0  0  0  0  0
  148.3896  141.0314  154.7346 C   0  0  0  0  0  0  0  0  0  0  0  0
  148.0352  139.8681  154.0050 C   0  0  0  0  0  0  0  0  0  0  0  0
  148.9626  138.8187  153.8843 C   0  0  0  0  0  0  0  0  0  0  0  0
  150.2180  138.9674  154.4999 C   0  0  0  0  0  0  0  0  0  0  0  0
  151.2665  137.8789  154.4078 C   0  0  0  0  0  0  0  0  0  0  0  0
  150.5665  140.0685  155.1952 N   0  0  0  0  0  0  0  0  0  0  0  0
  149.6812  141.0887  155.3194 C   0  0  0  0  0  0  0  0  0  0  0  0
  149.9758  142.2831  156.0336 N   0  0  0  0  0  0  0  0  0  0  0  0
  150.9137  142.4845  156.9754 C   0  0  0  0  0  0  0  0  0  0  0  0
  151.6825  141.6263  157.4101 O   0  0  0  0  0  0  0  0  0  0  0  0
  150.9118  143.7605  157.3941 N   0  0  0  0  0  0  0  0  0  0  0  0
  151.7992  144.3456  158.4021 C   0  0  0  0  0  0  0  0  0  0  0  0
  153.1054  144.8061  157.7467 C   0  0  0  0  0  0  0  0  0  0  0  0
  151.0555  145.3209  159.3401 C   0  0  0  0  0  0  0  0  0  0  0  0
  151.7719  144.6528  160.5161 C   0  0  0  0  0  0  0  0  0  0  0  0
  151.9008  143.4142  159.6248 C   0  0  0  0  0  0  0  0  0  0  0  0
  145.7845  143.0506  154.4159 H   0  0  0  0  0  0  0  0  0  0  0  0
  145.6942  141.2938  154.4133 H   0  0  0  0  0  0  0  0  0  0  0  0
  146.5222  142.1551  153.0933 H   0  0  0  0  0  0  0  0  0  0  0  0
  147.0704  139.7584  153.5342 H   0  0  0  0  0  0  0  0  0  0  0  0
  148.7135  137.9248  153.3317 H   0  0  0  0  0  0  0  0  0  0  0  0
  150.8480  136.9624  153.9909 H   0  0  0  0  0  0  0  0  0  0  0  0
  151.6678  137.6494  155.3953 H   0  0  0  0  0  0  0  0  0  0  0  0
  152.0889  138.2008  153.7686 H   0  0  0  0  0  0  0  0  0  0  0  0
  149.4107  143.0814  155.7837 H   0  0  0  0  0  0  0  0  0  0  0  0
  150.2404  144.3874  156.9754 H   0  0  0  0  0  0  0  0  0  0  0  0
  153.8218  145.1612  158.4877 H   0  0  0  0  0  0  0  0  0  0  0  0
  152.9390  145.6240  157.0457 H   0  0  0  0  0  0  0  0  0  0  0  0
  153.5838  143.9939  157.1989 H   0  0  0  0  0  0  0  0  0  0  0  0
  151.3044  146.3727  159.1967 H   0  0  0  0  0  0  0  0  0  0  0  0
  149.9747  145.1676  159.3717 H   0  0  0  0  0  0  0  0  0  0  0  0
  152.7323  145.1145  160.7511 H   0  0  0  0  0  0  0  0  0  0  0  0
  151.1575  144.5146  161.4062 H   0  0  0  0  0  0  0  0  0  0  0  0
  151.0530  142.7346  159.7342 H   0  0  0  0  0  0  0  0  0  0  0  0
  152.8497  142.8858  159.7213 H   0  0  0  0  0  0  0  0  0  0  0  0
  1  2  1  0  0  0  0
  1 19  1  0  0  0  0
  1 20  1  0  0  0  0
  1 21  1  0  0  0  0
  2  3  1  0  0  0  0
  3  9  1  0  0  0  0
  3  4  2  0  0  0  0
  4  5  1  0  0  0  0
  4 22  1  0  0  0  0
  5  6  2  0  0  0  0
  5 23  1  0  0  0  0
  6  7  1  0  0  0  0
  6  8  1  0  0  0  0
  7 24  1  0  0  0  0
  7 25  1  0  0  0  0
  7 26  1  0  0  0  0
  8  9  2  0  0  0  0
  9 10  1  0  0  0  0
 10 11  1  0  0  0  0
 10 27  1  0  0  0  0
 11 12  2  0  0  0  0
 11 13  1  0  0  0  0
 13 14  1  0  0  0  0
 13 28  1  0  0  0  0
 14 18  1  0  0  0  0
 14 15  1  0  0  0  0
 14 16  1  0  0  0  0
 15 29  1  0  0  0  0
 15 30  1  0  0  0  0
 15 31  1  0  0  0  0
 16 17  1  0  0  0  0
 16 32  1  0  0  0  0
 16 33  1  0  0  0  0
 17 18  1  0  0  0  0
 17 34  1  0  0  0  0
 17 35  1  0  0  0  0
 18 36  1  0  0  0  0
 18 37  1  0  0  0  0
M  END
> <s_m_source_file>
AV-unprocessed.smi

> <i_m_source_file_index>
2236

> <i_lp_mmshare_version>
43012

> <i_f3d_flags>
0

> <s_epik_input>
W0NIM11PYzFbY0hdW2NIXWMoW0NIM10pbmMxW05IXUMoPU8pW05IXUMyKFtDSDNdKVtDSDJdW0NIMl1bQ0gyXTI=

> <s_epik_cmdline>
J2VwaWtfcHl0aG9uJywgJy1waCcsICc3LjAnLCAnLXRuJywgJzgnLCAnLW1hJywgJzIwMCcsICctbWV0YWxfYmluZGluZycsICctaW1hZScsICc8aW5maWxlLm1hZT4nLCAnLW9tYWUnLCAnPG91dGZpbGUubWFlPic=

> <r_lp_tautomer_probability>
1

> <r_epik_Ionization_Penalty>
6.75542e-05

> <r_epik_Ionization_Penalty_Charging>
0

> <r_epik_Ionization_Penalty_Neutral>
6.75542e-05

> <r_epik_State_Penalty>
-0

> <r_epik_Charging_Adjusted_Penalty>
0

> <i_epik_Tot_Q>
0

> <i_epik_Tot_abs_Q>
0

> <r_epik_Metal_State_Penalty>
-0

> <b_epik_Metal_Only>
0

> <s_lp_Force_Field>
OPLS_2005

> <r_lp_Energy>
20.3098

> <b_lp_Chiralities_Consistent>
1

> <s_lp_Variant>
AV-unprocessed.smi:2236-1

> <Gold.Version>
5.8.1

> <Gold.Id.Protein>
6NUR|6NUR_protein|mol2

> <Gold.PLP.Fitness>
47.4824

> <Gold.PLP.PLP>
-40.9053

> <Gold.PLP.part.hbond>
-3.0000

> <Gold.PLP.part.metal>
0.0000

> <Gold.PLP.part.buried>
-3.0237

> <Gold.PLP.part.nonpolar>
-36.4575

> <Gold.PLP.part.repulsive>
1.2746

> <Gold.PLP.ligand.clash>
0.0000

> <Gold.PLP.ligand.torsion>
0.5721

> <Gold.PLP.Chemscore.Hbond>
2.4746

> <Gold.PLP.Chemscore.CHOScore>
0.0000

> <Gold.PLP.Chemscore.Metal>
0.0000

> <Gold.Chemscore.Hbonds>
donor molecule, donor type, donor heavy atom, donor atom, acceptor molecule, acceptor atom, score
      L1  H    10    27       P1  8028  1.00
      L1  H    13    28       P1  8028  1.00
      P1  H  7989  7998       L1     8  0.33

> <Gold.PLP.Chemscore.Internal.Correction>
0.2975

> <Gold.Rescore>
     Score         DG    S(hbond)    S(metal)    S(lipo)     H(rot)  DE(clash)    DE(int)     intcor
     17.41     -20.54       1.82        0.00     103.32       1.21       0.16       2.96       ----

> <Gold.Chemscore.Fitness>
17.4147

> <Gold.Chemscore.DG>
-20.5353

> <Gold.Chemscore.ZeroCoef>
-5.4800

> <Gold.Chemscore.Hbond>
1.8158

> <Gold.Chemscore.Metal>
0.0000

> <Gold.Chemscore.Lipo>
103.3242

> <Gold.Chemscore.Internal_Hbond>
0.0000

> <Gold.Chemscore.DEClash>
0.1618

> <Gold.Chemscore.DEInternal>
2.9588

> <Gold.Chemscore.Rot>
1.2103

> <Gold.Chemscore.Internal.Correction>
   9.000000E+99

> <Gold.Chemscore.Hbonds>
donor molecule, donor type, donor heavy atom, donor atom, acceptor molecule, acceptor atom, score
      L1  H    10    27       P1  8028  1.00
      L1  H    13    28       P1  8028  0.81

> <Gold.Chemscore.Hbond.Weighted>
-6.0648

> <Gold.Chemscore.Metal.Weighted>
-0.0000

> <Gold.Chemscore.Lipo.Weighted>
-12.0889

> <Gold.Chemscore.Internal_Hbond.Weighted>
0.0000

> <Gold.Chemscore.DEClash.Weighted>
0.1618

> <Gold.Chemscore.DEInternal.Weighted>
2.9588

> <Gold.Chemscore.Rot.Weighted>
3.0984

> <Gold.Chemscore.Internal.Correction.Weighted>
   9.000000E+99

> <Gold.Protein.RotatedTorsions>
[ 6907 6896 6895 6894 ] final  112.58 input  -60.11 | X-H torsion
[ 7974 7965 7964 7962 ] final -123.09 input  175.53 | X-H torsion
[ 8008 7997 7996 7995 ] final -146.43 input   59.86 | X-H torsion
[ 10167 10162 10161 10158 ] final  177.01 input  -65.29 | X-H torsion
[ 10718 10713 10712 10709 ] final  -79.76 input   66.30 | X-H torsion
[ 10763 10752 10751 10750 ] final -126.25 input  -60.55 | X-H torsion
[ 11005 11000 10999 10996 ] final  139.64 input  -57.11 | X-H torsion

> <Gold.Protein.ActiveResidues>
 VAL166  LYS551  ARG553  GLY616  TRP617  ASP618  TYR619  PRO620  LYS621  CYS622 
 ASP623  PHE694  ASN695  SER759  ASP760  ASP761  ALA762  ILE779  LEU786  VAL792 
 PHE793  MET794  SER795  GLU796  ALA797  LYS798  CYS799  TRP800  GLU811  SER814 

> <Gold.Protein.RotatedAtoms>
  152.4908  133.8496  159.7194 H   0  0  0  0  0  0  0  0  0  0  0  0  # atno 6907 bound_to 6896
  150.9036  133.7077  159.2879 H   0  0  0  0  0  0  0  0  0  0  0  0  # atno 6908 bound_to 6896
  151.4510  135.1034  159.9750 H   0  0  0  0  0  0  0  0  0  0  0  0  # atno 6909 bound_to 6896
  145.0224  140.7999  143.4373 H   0  0  0  0  0  0  0  0  0  0  0  0  # atno 7974 bound_to 7965
  155.5593  140.0624  157.2832 H   0  0  0  0  0  0  0  0  0  0  0  0  # atno 8008 bound_to 7997
  154.4395  140.1888  156.0811 H   0  0  0  0  0  0  0  0  0  0  0  0  # atno 8009 bound_to 7997
  156.0459  140.3290  155.7299 H   0  0  0  0  0  0  0  0  0  0  0  0  # atno 8010 bound_to 7997
  139.5236  144.2848  152.0515 H   0  0  0  0  0  0  0  0  0  0  0  0  # atno 10167 bound_to 10162
  156.0085  130.4555  150.3697 H   0  0  0  0  0  0  0  0  0  0  0  0  # atno 10718 bound_to 10713
  154.8744  135.4002  154.3401 H   0  0  0  0  0  0  0  0  0  0  0  0  # atno 10763 bound_to 10752
  153.4201  135.7023  153.6305 H   0  0  0  0  0  0  0  0  0  0  0  0  # atno 10764 bound_to 10752
  153.4971  135.3736  155.2491 H   0  0  0  0  0  0  0  0  0  0  0  0  # atno 10765 bound_to 10752
  140.0269  134.9370  157.0587 H   0  0  0  0  0  0  0  0  0  0  0  0  # atno 11005 bound_to 11000
  145.1878  139.2317  143.5258 LP  0  0  0  0  0  0  0  0  0  0  0  0  # atno 17320 bound_to 7965
  146.3487  140.1667  142.8590 LP  0  0  0  0  0  0  0  0  0  0  0  0  # atno 17321 bound_to 7965
  140.2302  144.4377  150.6303 LP  0  0  0  0  0  0  0  0  0  0  0  0  # atno 17342 bound_to 10162
  140.6361  143.2195  151.6393 LP  0  0  0  0  0  0  0  0  0  0  0  0  # atno 17343 bound_to 10162
  157.1782  131.0385  151.2761 LP  0  0  0  0  0  0  0  0  0  0  0  0  # atno 17370 bound_to 10713
  157.4169  130.7416  149.6882 LP  0  0  0  0  0  0  0  0  0  0  0  0  # atno 17371 bound_to 10713
  140.4291  134.1800  155.7167 LP  0  0  0  0  0  0  0  0  0  0  0  0  # atno 17394 bound_to 11000
  141.1808  133.8417  157.1264 LP  0  0  0  0  0  0  0  0  0  0  0  0  # atno 17395 bound_to 11000

$$$$
