AV-unprocessed.smi:2421|AV-procd|sdf|9556|dock10
  -GOLD-   2272013193D 1   1.00000     0.00000
 Structure written by MMmdl.
 44 46  0  0  0  0  0  0  0  0  1 V2000
  154.0556  136.1598  164.3018 C   0  0  0  0  0  0  0  0  0  0  0  0
  154.5659  135.7446  162.9522 C   0  0  0  0  0  0  0  0  0  0  0  0
  154.7881  134.4660  162.6870 N   0  0  0  0  0  0  0  0  0  0  0  0
  155.2639  134.4097  161.3655 O   0  0  0  0  0  0  0  0  0  0  0  0
  155.3187  135.6714  160.8600 C   0  0  0  0  0  0  0  0  0  0  0  0
  155.8091  135.8288  159.4609 C   0  0  0  0  0  0  0  0  0  0  0  0
  154.8805  136.5359  161.8177 C   0  0  0  0  0  0  0  0  0  0  0  0
  154.8016  137.9400  161.7169 N   0  0  0  0  0  0  0  0  0  0  0  0
  154.0874  138.5860  160.7806 C   0  0  0  0  0  0  0  0  0  0  0  0
  153.4950  138.0159  159.8660 O   0  0  0  0  0  0  0  0  0  0  0  0
  154.0745  139.9252  160.9083 N   0  0  0  0  0  0  0  0  0  0  0  0
  153.3970  140.9084  160.0603 C   0  0  1  0  0  0  0  0  0  0  0  0
  152.0551  140.3423  159.5800 C   0  0  0  0  0  0  0  0  0  0  0  0
  151.2907  141.3925  158.7616 C   0  0  0  0  0  0  0  0  0  0  0  0
  151.1158  142.5901  159.5166 O   0  0  0  0  0  0  0  0  0  0  0  0
  152.3137  143.2171  159.9903 C   0  0  0  0  0  0  0  0  0  0  0  0
  153.0995  143.8839  158.8469 C   0  0  0  0  0  0  0  0  0  0  0  0
  152.3170  145.1571  158.5122 C   0  0  0  0  0  0  0  0  0  0  0  0
  151.5505  145.5297  159.7890 C   0  0  0  0  0  0  0  0  0  0  0  0
  151.8657  144.4317  160.8123 C   0  0  0  0  0  0  0  0  0  0  0  0
  153.1362  142.2154  160.8294 C   0  0  0  0  0  0  0  0  0  0  0  0
  153.8917  137.2364  164.3508 H   0  0  0  0  0  0  0  0  0  0  0  0
  154.7650  135.8970  165.0868 H   0  0  0  0  0  0  0  0  0  0  0  0
  153.1082  135.6710  164.5293 H   0  0  0  0  0  0  0  0  0  0  0  0
  155.7556  136.8701  159.1425 H   0  0  0  0  0  0  0  0  0  0  0  0
  155.2079  135.2348  158.7727 H   0  0  0  0  0  0  0  0  0  0  0  0
  156.8452  135.5014  159.3762 H   0  0  0  0  0  0  0  0  0  0  0  0
  155.2740  138.4832  162.4247 H   0  0  0  0  0  0  0  0  0  0  0  0
  154.6207  140.3065  161.6674 H   0  0  0  0  0  0  0  0  0  0  0  0
  154.0096  141.1153  159.1811 H   0  0  0  0  0  0  0  0  0  0  0  0
  152.2134  139.4462  158.9789 H   0  0  0  0  0  0  0  0  0  0  0  0
  151.4484  140.0423  160.4358 H   0  0  0  0  0  0  0  0  0  0  0  0
  151.8010  141.5969  157.8211 H   0  0  0  0  0  0  0  0  0  0  0  0
  150.3057  141.0082  158.4960 H   0  0  0  0  0  0  0  0  0  0  0  0
  154.0896  144.1668  159.2073 H   0  0  0  0  0  0  0  0  0  0  0  0
  153.2555  143.2495  157.9757 H   0  0  0  0  0  0  0  0  0  0  0  0
  152.9773  145.9585  158.1794 H   0  0  0  0  0  0  0  0  0  0  0  0
  151.6109  144.9583  157.7050 H   0  0  0  0  0  0  0  0  0  0  0  0
  151.8359  146.5132  160.1636 H   0  0  0  0  0  0  0  0  0  0  0  0
  150.4797  145.5569  159.5825 H   0  0  0  0  0  0  0  0  0  0  0  0
  151.0190  144.2120  161.4639 H   0  0  0  0  0  0  0  0  0  0  0  0
  152.6856  144.7669  161.4496 H   0  0  0  0  0  0  0  0  0  0  0  0
  152.5888  141.9866  161.7453 H   0  0  0  0  0  0  0  0  0  0  0  0
  154.0756  142.6714  161.1443 H   0  0  0  0  0  0  0  0  0  0  0  0
  1  2  1  0  0  0  0
  1 22  1  0  0  0  0
  1 23  1  0  0  0  0
  1 24  1  0  0  0  0
  2  7  1  0  0  0  0
  2  3  2  0  0  0  0
  3  4  1  0  0  0  0
  4  5  1  0  0  0  0
  5  6  1  0  0  0  0
  5  7  2  0  0  0  0
  6 25  1  0  0  0  0
  6 26  1  0  0  0  0
  6 27  1  0  0  0  0
  7  8  1  0  0  0  0
  8  9  1  0  0  0  0
  8 28  1  0  0  0  0
  9 10  2  0  0  0  0
  9 11  1  0  0  0  0
 11 12  1  0  0  0  0
 11 29  1  0  0  0  0
 12 21  1  0  0  0  0
 12 13  1  0  0  0  0
 12 30  1  0  0  0  0
 13 14  1  0  0  0  0
 13 31  1  0  0  0  0
 13 32  1  0  0  0  0
 14 15  1  0  0  0  0
 14 33  1  0  0  0  0
 14 34  1  0  0  0  0
 15 16  1  0  0  0  0
 16 20  1  0  0  0  0
 16 17  1  0  0  0  0
 16 21  1  0  0  0  0
 17 18  1  0  0  0  0
 17 35  1  0  0  0  0
 17 36  1  0  0  0  0
 18 19  1  0  0  0  0
 18 37  1  0  0  0  0
 18 38  1  0  0  0  0
 19 20  1  0  0  0  0
 19 39  1  0  0  0  0
 19 40  1  0  0  0  0
 20 41  1  0  0  0  0
 20 42  1  0  0  0  0
 21 43  1  0  0  0  0
 21 44  1  0  0  0  0
M  END
> <s_m_source_file>
AV-unprocessed.smi

> <i_m_source_file_index>
2421

> <i_lp_mmshare_version>
43012

> <i_f3d_flags>
0

> <s_epik_input>
W0NIM11jMW5vYyhbQ0gzXSljMVtOSF1DKD1PKVtOSF1bQ0BASF0oW0NIMl0yKVtDSDJdW0NIMl1PQzIzW0NIMl1bQ0gyXVtDSDJdW0NIMl0z

> <s_epik_cmdline>
J2VwaWtfcHl0aG9uJywgJy1waCcsICc3LjAnLCAnLXRuJywgJzgnLCAnLW1hJywgJzIwMCcsICctbWV0YWxfYmluZGluZycsICctaW1hZScsICc8aW5maWxlLm1hZT4nLCAnLW9tYWUnLCAnPG91dGZpbGUubWFlPic=

> <r_lp_tautomer_probability>
1

> <r_epik_Ionization_Penalty>
3.59808e-05

> <r_epik_Ionization_Penalty_Charging>
0

> <r_epik_Ionization_Penalty_Neutral>
3.59808e-05

> <r_epik_State_Penalty>
-0

> <r_epik_Charging_Adjusted_Penalty>
0

> <i_epik_Tot_Q>
0

> <i_epik_Tot_abs_Q>
0

> <r_epik_Metal_State_Penalty>
-0

> <b_epik_Metal_Only>
0

> <s_lp_Force_Field>
OPLS_2005

> <r_lp_Energy>
43.4187

> <b_lp_Chiralities_Consistent>
1

> <s_lp_Variant>
AV-unprocessed.smi:2421-2

> <Gold.Version>
5.8.1

> <Gold.Id.Protein>
6NUR|6NUR_protein|mol2

> <Gold.PLP.Fitness>
42.6155

> <Gold.PLP.PLP>
-43.8488

> <Gold.PLP.part.hbond>
-0.6266

> <Gold.PLP.part.metal>
0.0000

> <Gold.PLP.part.buried>
-6.2920

> <Gold.PLP.part.nonpolar>
-36.8144

> <Gold.PLP.part.repulsive>
0.0280

> <Gold.PLP.ligand.clash>
0.0000

> <Gold.PLP.ligand.torsion>
0.8643

> <Gold.PLP.Chemscore.Hbond>
0.0000

> <Gold.PLP.Chemscore.CHOScore>
0.0000

> <Gold.PLP.Chemscore.Metal>
0.0000

> <Gold.PLP.Chemscore.Internal.Correction>
0.4952

> <Gold.Rescore>
     Score         DG    S(hbond)    S(metal)    S(lipo)     H(rot)  DE(clash)    DE(int)     intcor
     15.95     -18.39       0.00        0.00     132.23       1.00       0.11       2.33       ----

> <Gold.Chemscore.Fitness>
15.9470

> <Gold.Chemscore.DG>
-18.3909

> <Gold.Chemscore.ZeroCoef>
-5.4800

> <Gold.Chemscore.Hbond>
0.0000

> <Gold.Chemscore.Metal>
0.0000

> <Gold.Chemscore.Lipo>
132.2299

> <Gold.Chemscore.Internal_Hbond>
0.0000

> <Gold.Chemscore.DEClash>
0.1144

> <Gold.Chemscore.DEInternal>
2.3295

> <Gold.Chemscore.Rot>
1.0000

> <Gold.Chemscore.Internal.Correction>
   9.000000E+99

> <Gold.Chemscore.Hbond.Weighted>
-0.0000

> <Gold.Chemscore.Metal.Weighted>
-0.0000

> <Gold.Chemscore.Lipo.Weighted>
-15.4709

> <Gold.Chemscore.Internal_Hbond.Weighted>
0.0000

> <Gold.Chemscore.DEClash.Weighted>
0.1144

> <Gold.Chemscore.DEInternal.Weighted>
2.3295

> <Gold.Chemscore.Rot.Weighted>
2.5600

> <Gold.Chemscore.Internal.Correction.Weighted>
   9.000000E+99

> <Gold.Protein.RotatedTorsions>
[ 6907 6896 6895 6894 ] final   79.09 input  -60.11 | X-H torsion
[ 7974 7965 7964 7962 ] final   81.02 input  175.53 | X-H torsion
[ 8008 7997 7996 7995 ] final -149.57 input   59.86 | X-H torsion
[ 10167 10162 10161 10158 ] final -118.39 input  -65.29 | X-H torsion
[ 10718 10713 10712 10709 ] final   97.87 input   66.30 | X-H torsion
[ 10763 10752 10751 10750 ] final  104.35 input  -60.55 | X-H torsion
[ 11005 11000 10999 10996 ] final -147.63 input  -57.11 | X-H torsion

> <Gold.Protein.ActiveResidues>
 VAL166  LYS551  ARG553  GLY616  TRP617  ASP618  TYR619  PRO620  LYS621  CYS622 
 ASP623  PHE694  ASN695  SER759  ASP760  ASP761  ALA762  ILE779  LEU786  VAL792 
 PHE793  MET794  SER795  GLU796  ALA797  LYS798  CYS799  TRP800  GLU811  SER814 

> <Gold.Protein.RotatedAtoms>
  152.5185  134.3564  159.9268 H   0  0  0  0  0  0  0  0  0  0  0  0  # atno 6907 bound_to 6896
  151.3515  133.3917  159.2688 H   0  0  0  0  0  0  0  0  0  0  0  0  # atno 6908 bound_to 6896
  150.9723  134.9112  159.7853 H   0  0  0  0  0  0  0  0  0  0  0  0  # atno 6909 bound_to 6896
  145.6436  139.2431  143.2017 H   0  0  0  0  0  0  0  0  0  0  0  0  # atno 7974 bound_to 7965
  155.6097  140.0670  157.2709 H   0  0  0  0  0  0  0  0  0  0  0  0  # atno 8008 bound_to 7997
  154.4256  140.1803  156.1307 H   0  0  0  0  0  0  0  0  0  0  0  0  # atno 8009 bound_to 7997
  156.0094  140.3328  155.6929 H   0  0  0  0  0  0  0  0  0  0  0  0  # atno 8010 bound_to 7997
  140.0580  143.4996  152.2047 H   0  0  0  0  0  0  0  0  0  0  0  0  # atno 10167 bound_to 10162
  157.6905  131.0623  150.4710 H   0  0  0  0  0  0  0  0  0  0  0  0  # atno 10718 bound_to 10713
  153.3647  135.3946  155.1745 H   0  0  0  0  0  0  0  0  0  0  0  0  # atno 10763 bound_to 10752
  154.8685  135.3688  154.5054 H   0  0  0  0  0  0  0  0  0  0  0  0  # atno 10764 bound_to 10752
  153.5516  135.7083  153.5649 H   0  0  0  0  0  0  0  0  0  0  0  0  # atno 10765 bound_to 10752
  140.7696  134.3204  157.5078 H   0  0  0  0  0  0  0  0  0  0  0  0  # atno 11005 bound_to 11000
  146.1261  140.7246  142.9434 LP  0  0  0  0  0  0  0  0  0  0  0  0  # atno 17320 bound_to 7965
  144.7148  140.4171  143.7052 LP  0  0  0  0  0  0  0  0  0  0  0  0  # atno 17321 bound_to 7965
  139.5912  144.7550  151.3397 LP  0  0  0  0  0  0  0  0  0  0  0  0  # atno 17342 bound_to 10162
  140.7185  143.7199  150.7703 LP  0  0  0  0  0  0  0  0  0  0  0  0  # atno 17343 bound_to 10162
  156.5048  130.4125  149.6333 LP  0  0  0  0  0  0  0  0  0  0  0  0  # atno 17370 bound_to 10713
  156.3295  130.7324  151.2250 LP  0  0  0  0  0  0  0  0  0  0  0  0  # atno 17371 bound_to 10713
  139.8758  134.9253  156.3370 LP  0  0  0  0  0  0  0  0  0  0  0  0  # atno 17394 bound_to 11000
  140.9586  133.7403  156.0370 LP  0  0  0  0  0  0  0  0  0  0  0  0  # atno 17395 bound_to 11000

$$$$
