AV-unprocessed.smi:1005|AV-procd|sdf|4366|dock9
  -GOLD-   22720 2273D 1   1.00000     0.00000
 Structure written by MMmdl.
 57 59  0  0  0  0  0  0  0  0  3 V2000
  152.5716  142.9984  161.5431 C   0  0  0  0  0  0  0  0  0  0  0  0
  152.0601  142.5546  160.1838 C   0  0  0  0  0  0  0  0  0  0  0  0
  152.6404  141.4232  159.5671 C   0  0  0  0  0  0  0  0  0  0  0  0
  152.1952  140.9795  158.3029 C   0  0  0  0  0  0  0  0  0  0  0  0
  152.6155  139.9144  157.5247 N   0  0  0  0  0  0  0  0  0  0  0  0
  151.8210  140.0266  156.4647 C   0  0  0  0  0  0  0  0  0  0  0  0
  150.9371  141.0430  156.4611 N   0  0  0  0  0  0  0  0  0  0  0  0
  149.9818  141.3652  155.4160 C   0  0  0  0  0  0  0  0  0  0  0  0
  149.3681  140.1064  154.7745 C   0  0  2  0  0  0  0  0  0  0  0  0
  150.2419  139.6127  153.7767 O   0  0  0  0  0  0  0  0  0  0  0  0
  148.0025  140.4019  154.1244 C   0  0  0  0  0  0  0  0  0  0  0  0
  147.3077  141.5469  154.7662 N   0  3  1  0  0  0  0  0  0  0  0  0
  146.0863  141.9813  154.0453 C   0  0  0  0  0  0  0  0  0  0  0  0
  145.4612  143.1995  154.7433 C   0  0  0  0  0  0  0  0  0  0  0  0
  145.1817  142.8789  156.1008 O   0  0  0  0  0  0  0  0  0  0  0  0
  146.3568  142.5501  156.8356 C   0  0  1  0  0  0  0  0  0  0  0  0
  145.9495  142.2905  158.2988 C   0  0  0  0  0  0  0  0  0  0  0  0
  145.8559  143.5349  159.1053 N   0  3  0  0  0  0  0  0  0  0  0  0
  145.9739  143.3045  160.5641 C   0  0  0  0  0  0  0  0  0  0  0  0
  144.6423  144.3168  158.7793 C   0  0  0  0  0  0  0  0  0  0  0  0
  147.0026  141.3037  156.1962 C   0  0  0  0  0  0  0  0  0  0  0  0
  151.1452  141.7044  157.6669 C   0  0  0  0  0  0  0  0  0  0  0  0
  150.5592  142.8308  158.2707 C   0  0  0  0  0  0  0  0  0  0  0  0
  151.0153  143.2601  159.5345 C   0  0  0  0  0  0  0  0  0  0  0  0
  150.3748  144.4763  160.1792 C   0  0  0  0  0  0  0  0  0  0  0  0
  153.3792  142.3554  161.8944 H   0  0  0  0  0  0  0  0  0  0  0  0
  151.7711  142.9643  162.2824 H   0  0  0  0  0  0  0  0  0  0  0  0
  152.9544  144.0179  161.4929 H   0  0  0  0  0  0  0  0  0  0  0  0
  153.4361  140.8855  160.0615 H   0  0  0  0  0  0  0  0  0  0  0  0
  151.8883  139.3324  155.6395 H   0  0  0  0  0  0  0  0  0  0  0  0
  149.1977  141.9856  155.8526 H   0  0  0  0  0  0  0  0  0  0  0  0
  150.4790  141.9781  154.6630 H   0  0  0  0  0  0  0  0  0  0  0  0
  149.2653  139.3426  155.5450 H   0  0  0  0  0  0  0  0  0  0  0  0
  149.7996  139.6567  152.9417 H   0  0  0  0  0  0  0  0  0  0  0  0
  148.1186  140.6012  153.0579 H   0  0  0  0  0  0  0  0  0  0  0  0
  147.3837  139.5059  154.1991 H   0  0  0  0  0  0  0  0  0  0  0  0
  146.3205  142.2369  153.0124 H   0  0  0  0  0  0  0  0  0  0  0  0
  145.3664  141.1615  154.0157 H   0  0  0  0  0  0  0  0  0  0  0  0
  146.1242  144.0645  154.6879 H   0  0  0  0  0  0  0  0  0  0  0  0
  144.5312  143.4790  154.2480 H   0  0  0  0  0  0  0  0  0  0  0  0
  147.0644  143.3782  156.7841 H   0  0  0  0  0  0  0  0  0  0  0  0
  144.9813  141.7868  158.2980 H   0  0  0  0  0  0  0  0  0  0  0  0
  146.6505  141.6037  158.7760 H   0  0  0  0  0  0  0  0  0  0  0  0
  145.1715  142.6594  160.9250 H   0  0  0  0  0  0  0  0  0  0  0  0
  145.9164  144.2493  161.1061 H   0  0  0  0  0  0  0  0  0  0  0  0
  146.9263  142.8443  160.8238 H   0  0  0  0  0  0  0  0  0  0  0  0
  143.7388  143.7585  159.0283 H   0  0  0  0  0  0  0  0  0  0  0  0
  144.6117  144.5628  157.7173 H   0  0  0  0  0  0  0  0  0  0  0  0
  144.6275  145.2562  159.3335 H   0  0  0  0  0  0  0  0  0  0  0  0
  146.3380  140.4424  156.2840 H   0  0  0  0  0  0  0  0  0  0  0  0
  147.9218  141.0558  156.7287 H   0  0  0  0  0  0  0  0  0  0  0  0
  149.7654  143.3608  157.7654 H   0  0  0  0  0  0  0  0  0  0  0  0
  149.5896  144.8939  159.5484 H   0  0  0  0  0  0  0  0  0  0  0  0
  151.1181  145.2557  160.3481 H   0  0  0  0  0  0  0  0  0  0  0  0
  149.9279  144.2099  161.1372 H   0  0  0  0  0  0  0  0  0  0  0  0
  146.6381  144.1143  158.8348 H   0  0  0  0  0  0  0  0  0  0  0  0
  147.9601  142.3184  154.7420 H   0  0  0  0  0  0  0  0  0  0  0  0
  1  2  1  0  0  0  0
  1 26  1  0  0  0  0
  1 27  1  0  0  0  0
  1 28  1  0  0  0  0
  2 24  1  0  0  0  0
  2  3  2  0  0  0  0
  3  4  1  0  0  0  0
  3 29  1  0  0  0  0
  4 22  2  0  0  0  0
  4  5  1  0  0  0  0
  5  6  2  0  0  0  0
  6  7  1  0  0  0  0
  6 30  1  0  0  0  0
  7  8  1  0  0  0  0
  7 22  1  0  0  0  0
  8  9  1  0  0  0  0
  8 31  1  0  0  0  0
  8 32  1  0  0  0  0
  9 10  1  0  0  0  0
  9 11  1  0  0  0  0
  9 33  1  0  0  0  0
 10 34  1  0  0  0  0
 11 12  1  0  0  0  0
 11 35  1  0  0  0  0
 11 36  1  0  0  0  0
 12 21  1  0  0  0  0
 12 13  1  0  0  0  0
 12 57  1  0  0  0  0
 13 14  1  0  0  0  0
 13 37  1  0  0  0  0
 13 38  1  0  0  0  0
 14 15  1  0  0  0  0
 14 39  1  0  0  0  0
 14 40  1  0  0  0  0
 15 16  1  0  0  0  0
 16 17  1  0  0  0  0
 16 21  1  0  0  0  0
 16 41  1  0  0  0  0
 17 18  1  0  0  0  0
 17 42  1  0  0  0  0
 17 43  1  0  0  0  0
 18 19  1  0  0  0  0
 18 20  1  0  0  0  0
 18 56  1  0  0  0  0
 19 44  1  0  0  0  0
 19 45  1  0  0  0  0
 19 46  1  0  0  0  0
 20 47  1  0  0  0  0
 20 48  1  0  0  0  0
 20 49  1  0  0  0  0
 21 50  1  0  0  0  0
 21 51  1  0  0  0  0
 22 23  1  0  0  0  0
 23 24  2  0  0  0  0
 23 52  1  0  0  0  0
 24 25  1  0  0  0  0
 25 53  1  0  0  0  0
 25 54  1  0  0  0  0
 25 55  1  0  0  0  0
M  CHG  1  12   1
M  CHG  1  18   1
M  END
> <s_m_source_file>
AV-unprocessed.smi

> <i_m_source_file_index>
1005

> <i_lp_mmshare_version>
43012

> <i_f3d_flags>
0

> <s_epik_input>
W0NIM11jKFtjSF0xKWMoW0NIM10pW2NIXWMoYzEyKW4oW2NIXW4yKVtDSDJdW0NASF0oW09IXSlbQ0gyXU4zW0NIMl1bQ0gyXU9bQ0BIXShbQ0gyXTMpW0NIMl1OKFtDSDNdKVtDSDNd

> <s_epik_cmdline>
J2VwaWtfcHl0aG9uJywgJy1waCcsICc3LjAnLCAnLXRuJywgJzgnLCAnLW1hJywgJzIwMCcsICctbWV0YWxfYmluZGluZycsICctaW1hZScsICc8aW5maWxlLm1hZT4nLCAnLW9tYWUnLCAnPG91dGZpbGUubWFlPic=

> <r_epik_Ionization_Penalty>
1.0968

> <r_epik_Ionization_Penalty_Charging>
1.0096

> <r_epik_Ionization_Penalty_Neutral>
0.0871956

> <r_epik_State_Penalty>
1.31185

> <r_epik_Charging_Adjusted_Penalty>
2.32145

> <i_epik_Tot_Q>
2

> <i_epik_Tot_abs_Q>
2

> <r_epik_Metal_State_Penalty>
1.22442

> <b_epik_Metal_Only>
0

> <s_lp_Force_Field>
OPLS_2005

> <r_lp_Energy>
32.7622

> <b_lp_Chiralities_Consistent>
1

> <s_lp_Variant>
AV-unprocessed.smi:1005-5

> <Gold.Version>
5.8.1

> <Gold.Id.Protein>
6NUR|6NUR_protein|mol2

> <Gold.PLP.Fitness>
59.3592

> <Gold.PLP.PLP>
-47.0725

> <Gold.PLP.part.hbond>
-4.0000

> <Gold.PLP.part.metal>
0.0000

> <Gold.PLP.part.buried>
-5.1992

> <Gold.PLP.part.nonpolar>
-36.4765

> <Gold.PLP.part.repulsive>
0.2487

> <Gold.PLP.ligand.clash>
0.0000

> <Gold.PLP.ligand.torsion>
1.4232

> <Gold.PLP.Chemscore.Hbond>
4.9760

> <Gold.PLP.Chemscore.CHOScore>
0.0000

> <Gold.PLP.Chemscore.Metal>
0.0000

> <Gold.Chemscore.Hbonds>
donor molecule, donor type, donor heavy atom, donor atom, acceptor molecule, acceptor atom, score
      L1  H    10    34       P1  7957  1.00
      P1  H  7989  7998       L1    10  0.90
      P1  H  7997  8008       L1     5  1.00

> <Gold.PLP.Chemscore.Internal.Correction>
0.2050

> <Gold.Rescore>
     Score         DG    S(hbond)    S(metal)    S(lipo)     H(rot)  DE(clash)    DE(int)     intcor
     20.46     -22.22       2.73        0.00     119.50       2.48       0.35       1.41       ----

> <Gold.Chemscore.Fitness>
20.4588

> <Gold.Chemscore.DG>
-22.2209

> <Gold.Chemscore.ZeroCoef>
-5.4800

> <Gold.Chemscore.Hbond>
2.7279

> <Gold.Chemscore.Metal>
0.0000

> <Gold.Chemscore.Lipo>
119.5046

> <Gold.Chemscore.Internal_Hbond>
0.0000

> <Gold.Chemscore.DEClash>
0.3477

> <Gold.Chemscore.DEInternal>
1.4143

> <Gold.Chemscore.Rot>
2.4814

> <Gold.Chemscore.Internal.Correction>
   9.000000E+99

> <Gold.Chemscore.Hbonds>
donor molecule, donor type, donor heavy atom, donor atom, acceptor molecule, acceptor atom, score
      L1  H    10    34       P1  7957  0.98
      P1  H  7989  7998       L1    10  0.15
      P1  H  7997  8008       L1     5  0.23

> <Gold.Chemscore.Hbond.Weighted>
-9.1112

> <Gold.Chemscore.Metal.Weighted>
-0.0000

> <Gold.Chemscore.Lipo.Weighted>
-13.9820

> <Gold.Chemscore.Internal_Hbond.Weighted>
0.0000

> <Gold.Chemscore.DEClash.Weighted>
0.3477

> <Gold.Chemscore.DEInternal.Weighted>
1.4143

> <Gold.Chemscore.Rot.Weighted>
6.3524

> <Gold.Chemscore.Internal.Correction.Weighted>
   9.000000E+99

> <Gold.Protein.RotatedTorsions>
[ 6907 6896 6895 6894 ] final -113.11 input  -60.11 | X-H torsion
[ 7974 7965 7964 7962 ] final  160.91 input  175.53 | X-H torsion
[ 8008 7997 7996 7995 ] final  -59.53 input   59.86 | X-H torsion
[ 10167 10162 10161 10158 ] final  -84.74 input  -65.29 | X-H torsion
[ 10718 10713 10712 10709 ] final -164.11 input   66.30 | X-H torsion
[ 10763 10752 10751 10750 ] final  141.23 input  -60.55 | X-H torsion
[ 11005 11000 10999 10996 ] final  144.50 input  -57.11 | X-H torsion

> <Gold.Protein.ActiveResidues>
 VAL166  LYS551  ARG553  GLY616  TRP617  ASP618  TYR619  PRO620  LYS621  CYS622 
 ASP623  PHE694  ASN695  SER759  ASP760  ASP761  ALA762  ILE779  LEU786  VAL792 
 PHE793  MET794  SER795  GLU796  ALA797  LYS798  CYS799  TRP800  GLU811  SER814 

> <Gold.Protein.RotatedAtoms>
  150.7806  133.8992  159.3335 H   0  0  0  0  0  0  0  0  0  0  0  0  # atno 6907 bound_to 6896
  151.6856  135.0953  160.0233 H   0  0  0  0  0  0  0  0  0  0  0  0  # atno 6908 bound_to 6896
  152.3856  133.6568  159.6231 H   0  0  0  0  0  0  0  0  0  0  0  0  # atno 6909 bound_to 6896
  144.7713  139.7823  143.6296 H   0  0  0  0  0  0  0  0  0  0  0  0  # atno 7974 bound_to 7965
  154.4357  140.1059  156.6131 H   0  0  0  0  0  0  0  0  0  0  0  0  # atno 8008 bound_to 7997
  155.5788  140.3490  155.4516 H   0  0  0  0  0  0  0  0  0  0  0  0  # atno 8009 bound_to 7997
  156.0334  140.1265  157.0223 H   0  0  0  0  0  0  0  0  0  0  0  0  # atno 8010 bound_to 7997
  140.4104  143.2625  151.9025 H   0  0  0  0  0  0  0  0  0  0  0  0  # atno 10167 bound_to 10162
  156.6344  130.8943  151.2984 H   0  0  0  0  0  0  0  0  0  0  0  0  # atno 10718 bound_to 10713
  153.9358  135.2985  155.3444 H   0  0  0  0  0  0  0  0  0  0  0  0  # atno 10763 bound_to 10752
  154.7503  135.4983  153.9280 H   0  0  0  0  0  0  0  0  0  0  0  0  # atno 10764 bound_to 10752
  153.1068  135.6749  153.9678 H   0  0  0  0  0  0  0  0  0  0  0  0  # atno 10765 bound_to 10752
  140.0637  134.9190  157.1228 H   0  0  0  0  0  0  0  0  0  0  0  0  # atno 11005 bound_to 11000
  146.1861  139.5077  142.9835 LP  0  0  0  0  0  0  0  0  0  0  0  0  # atno 17320 bound_to 7965
  145.6317  141.0303  143.1860 LP  0  0  0  0  0  0  0  0  0  0  0  0  # atno 17321 bound_to 7965
  139.4782  144.5542  151.8338 LP  0  0  0  0  0  0  0  0  0  0  0  0  # atno 17342 bound_to 10162
  140.4644  144.1676  150.5910 LP  0  0  0  0  0  0  0  0  0  0  0  0  # atno 17343 bound_to 10162
  157.7190  130.9534  150.1365 LP  0  0  0  0  0  0  0  0  0  0  0  0  # atno 17370 bound_to 10713
  156.2209  130.3674  149.8557 LP  0  0  0  0  0  0  0  0  0  0  0  0  # atno 17371 bound_to 10713
  140.3731  134.2368  155.7176 LP  0  0  0  0  0  0  0  0  0  0  0  0  # atno 17394 bound_to 11000
  141.1984  133.8037  157.0585 LP  0  0  0  0  0  0  0  0  0  0  0  0  # atno 17395 bound_to 11000

$$$$
