AV-unprocessed.smi:1846|AV-procd|sdf|7514|dock3
  -GOLD-   22720 9223D 1   1.00000     0.00000
 Structure written by MMmdl.
 37 38  0  0  0  0  0  0  0  0  1 V2000
  147.1876  141.1470  154.0679 C   0  0  0  0  0  0  0  0  0  0  0  0
  147.7699  139.7460  153.8307 C   0  0  0  0  0  0  0  0  0  0  0  0
  148.8534  139.4376  154.7754 N   0  0  0  0  0  0  0  0  0  0  0  0
  148.5765  138.3055  155.6707 C   0  0  0  0  0  0  0  0  0  0  0  0
  149.6071  137.1790  155.4975 C   0  0  0  0  0  0  0  0  0  0  0  0
  150.0045  140.1571  154.7825 C   0  0  0  0  0  0  0  0  0  0  0  0
  150.1798  141.1070  154.0157 O   0  0  0  0  0  0  0  0  0  0  0  0
  151.1340  139.7598  155.7556 C   0  0  0  0  0  0  0  0  0  0  0  0
  151.4989  140.8810  156.6884 C   0  0  0  0  0  0  0  0  0  0  0  0
  151.0934  142.1908  156.6040 C   0  0  0  0  0  0  0  0  0  0  0  0
  151.7406  143.1598  157.8991 S   0  0  0  0  0  0  0  0  0  0  0  0
  152.5642  141.7245  158.5159 C   0  0  0  0  0  0  0  0  0  0  0  0
  153.3962  141.6568  159.6724 N   0  0  0  0  0  0  0  0  0  0  0  0
  153.2213  142.5703  160.7971 C   0  0  0  0  0  0  0  0  0  0  0  0
  154.2966  142.1391  161.7894 C   0  0  0  0  0  0  0  0  0  0  0  0
  154.9360  141.0495  161.0900 N   0  0  0  0  0  0  0  0  0  0  0  0
  154.4095  140.7951  159.8901 C   0  0  0  0  0  0  0  0  0  0  0  0
  154.8125  139.9112  159.1365 O   0  0  0  0  0  0  0  0  0  0  0  0
  152.3438  140.6332  157.7753 N   0  0  0  0  0  0  0  0  0  0  0  0
  146.3963  141.3624  153.3499 H   0  0  0  0  0  0  0  0  0  0  0  0
  147.9539  141.9146  153.9570 H   0  0  0  0  0  0  0  0  0  0  0  0
  146.7606  141.2410  155.0666 H   0  0  0  0  0  0  0  0  0  0  0  0
  146.9784  138.9985  153.9059 H   0  0  0  0  0  0  0  0  0  0  0  0
  148.1306  139.6735  152.8037 H   0  0  0  0  0  0  0  0  0  0  0  0
  148.5872  138.6451  156.7076 H   0  0  0  0  0  0  0  0  0  0  0  0
  147.5683  137.9197  155.5196 H   0  0  0  0  0  0  0  0  0  0  0  0
  149.3854  136.3480  156.1674 H   0  0  0  0  0  0  0  0  0  0  0  0
  150.6133  137.5294  155.7290 H   0  0  0  0  0  0  0  0  0  0  0  0
  149.6203  136.7883  154.4806 H   0  0  0  0  0  0  0  0  0  0  0  0
  150.8418  138.8891  156.3407 H   0  0  0  0  0  0  0  0  0  0  0  0
  152.0044  139.4628  155.1699 H   0  0  0  0  0  0  0  0  0  0  0  0
  150.4480  142.6410  155.8645 H   0  0  0  0  0  0  0  0  0  0  0  0
  153.3637  143.6044  160.4798 H   0  0  0  0  0  0  0  0  0  0  0  0
  152.2221  142.4710  161.2234 H   0  0  0  0  0  0  0  0  0  0  0  0
  155.0109  142.9375  161.9929 H   0  0  0  0  0  0  0  0  0  0  0  0
  153.8704  141.7931  162.7318 H   0  0  0  0  0  0  0  0  0  0  0  0
  155.7122  140.5363  161.4822 H   0  0  0  0  0  0  0  0  0  0  0  0
  1  2  1  0  0  0  0
  1 20  1  0  0  0  0
  1 21  1  0  0  0  0
  1 22  1  0  0  0  0
  2  3  1  0  0  0  0
  2 23  1  0  0  0  0
  2 24  1  0  0  0  0
  3  4  1  0  0  0  0
  3  6  1  0  0  0  0
  4  5  1  0  0  0  0
  4 25  1  0  0  0  0
  4 26  1  0  0  0  0
  5 27  1  0  0  0  0
  5 28  1  0  0  0  0
  5 29  1  0  0  0  0
  6  7  2  0  0  0  0
  6  8  1  0  0  0  0
  8  9  1  0  0  0  0
  8 30  1  0  0  0  0
  8 31  1  0  0  0  0
  9 19  1  0  0  0  0
  9 10  2  0  0  0  0
 10 11  1  0  0  0  0
 10 32  1  0  0  0  0
 11 12  1  0  0  0  0
 12 13  1  0  0  0  0
 12 19  2  0  0  0  0
 13 17  1  0  0  0  0
 13 14  1  0  0  0  0
 14 15  1  0  0  0  0
 14 33  1  0  0  0  0
 14 34  1  0  0  0  0
 15 16  1  0  0  0  0
 15 35  1  0  0  0  0
 15 36  1  0  0  0  0
 16 17  1  0  0  0  0
 16 37  1  0  0  0  0
 17 18  2  0  0  0  0
M  END
> <s_m_source_file>
AV-unprocessed.smi

> <i_m_source_file_index>
1846

> <i_lp_mmshare_version>
43012

> <i_f3d_flags>
0

> <s_epik_input>
W0NIM11bQ0gyXU4oW0NIMl1bQ0gzXSlDKD1PKVtDSDJdYzFbY0hdc2MobjEpTjJbQ0gyXVtDSDJdW05IXUMyPU8=

> <s_epik_cmdline>
J2VwaWtfcHl0aG9uJywgJy1waCcsICc3LjAnLCAnLXRuJywgJzgnLCAnLW1hJywgJzIwMCcsICctbWV0YWxfYmluZGluZycsICctaW1hZScsICc8aW5maWxlLm1hZT4nLCAnLW9tYWUnLCAnPG91dGZpbGUubWFlPic=

> <r_lp_tautomer_probability>
1

> <r_epik_Ionization_Penalty>
0.000125664

> <r_epik_Ionization_Penalty_Charging>
0

> <r_epik_Ionization_Penalty_Neutral>
0.000125664

> <r_epik_State_Penalty>
-0

> <r_epik_Charging_Adjusted_Penalty>
0

> <i_epik_Tot_Q>
0

> <i_epik_Tot_abs_Q>
0

> <r_epik_Metal_State_Penalty>
-0

> <b_epik_Metal_Only>
0

> <s_lp_Force_Field>
OPLS_2005

> <r_lp_Energy>
40.7708

> <b_lp_Chiralities_Consistent>
1

> <s_lp_Variant>
AV-unprocessed.smi:1846-1

> <Gold.Version>
5.8.1

> <Gold.Id.Protein>
6NUR|6NUR_protein|mol2

> <Gold.PLP.Fitness>
43.6962

> <Gold.PLP.PLP>
-35.0262

> <Gold.PLP.part.hbond>
-2.7828

> <Gold.PLP.part.metal>
0.0000

> <Gold.PLP.part.buried>
-3.2866

> <Gold.PLP.part.nonpolar>
-31.1527

> <Gold.PLP.part.repulsive>
1.4933

> <Gold.PLP.ligand.clash>
0.0000

> <Gold.PLP.ligand.torsion>
0.4354

> <Gold.PLP.Chemscore.Hbond>
2.1520

> <Gold.PLP.Chemscore.CHOScore>
1.0000

> <Gold.PLP.Chemscore.Metal>
0.0000

> <Gold.Chemscore.Hbonds>
donor molecule, donor type, donor heavy atom, donor atom, acceptor molecule, acceptor atom, score
      P1  H  7989  7998       L1     7  0.43
      P1  H  7997  8008       L1    18  1.00
      P1  H  8011  8017       L1     7  0.49
      L1  C    10    32       P1  8028  0.81

> <Gold.PLP.Chemscore.Internal.Correction>
0.0849

> <Gold.Rescore>
     Score         DG    S(hbond)    S(metal)    S(lipo)     H(rot)  DE(clash)    DE(int)     intcor
     11.40     -16.14       2.08        0.00      67.95       1.66       2.26       2.48       ----

> <Gold.Chemscore.Fitness>
11.3969

> <Gold.Chemscore.DG>
-16.1403

> <Gold.Chemscore.ZeroCoef>
-5.4800

> <Gold.Chemscore.Hbond>
2.0823

> <Gold.Chemscore.Metal>
0.0000

> <Gold.Chemscore.Lipo>
67.9510

> <Gold.Chemscore.Internal_Hbond>
0.0000

> <Gold.Chemscore.DEClash>
2.2600

> <Gold.Chemscore.DEInternal>
2.4834

> <Gold.Chemscore.Rot>
1.6581

> <Gold.Chemscore.Internal.Correction>
   9.000000E+99

> <Gold.Chemscore.Hbonds>
donor molecule, donor type, donor heavy atom, donor atom, acceptor molecule, acceptor atom, score
      P1  H  7989  7998       L1     7  0.20
      P1  H  7997  8008       L1    18  0.97
      P1  H  8011  8017       L1     7  0.49

> <Gold.Chemscore.Hbond.Weighted>
-6.9547

> <Gold.Chemscore.Metal.Weighted>
-0.0000

> <Gold.Chemscore.Lipo.Weighted>
-7.9503

> <Gold.Chemscore.Internal_Hbond.Weighted>
0.0000

> <Gold.Chemscore.DEClash.Weighted>
2.2600

> <Gold.Chemscore.DEInternal.Weighted>
2.4834

> <Gold.Chemscore.Rot.Weighted>
4.2447

> <Gold.Chemscore.Internal.Correction.Weighted>
   9.000000E+99

> <Gold.Protein.RotatedTorsions>
[ 6907 6896 6895 6894 ] final   26.47 input  -60.11 | X-H torsion
[ 7974 7965 7964 7962 ] final -141.28 input  175.53 | X-H torsion
[ 8008 7997 7996 7995 ] final -115.74 input   59.86 | X-H torsion
[ 10167 10162 10161 10158 ] final -151.39 input  -65.29 | X-H torsion
[ 10718 10713 10712 10709 ] final   41.21 input   66.30 | X-H torsion
[ 10763 10752 10751 10750 ] final  -19.66 input  -60.55 | X-H torsion
[ 11005 11000 10999 10996 ] final   33.89 input  -57.11 | X-H torsion

> <Gold.Protein.ActiveResidues>
 VAL166  LYS551  ARG553  GLY616  TRP617  ASP618  TYR619  PRO620  LYS621  CYS622 
 ASP623  PHE694  ASN695  SER759  ASP760  ASP761  ALA762  ILE779  LEU786  VAL792 
 PHE793  MET794  SER795  GLU796  ALA797  LYS798  CYS799  TRP800  GLU811  SER814 

> <Gold.Protein.RotatedAtoms>
  151.9880  134.9994  160.0560 H   0  0  0  0  0  0  0  0  0  0  0  0  # atno 6907 bound_to 6896
  152.1635  133.4592  159.4881 H   0  0  0  0  0  0  0  0  0  0  0  0  # atno 6908 bound_to 6896
  150.6891  134.1960  159.4346 H   0  0  0  0  0  0  0  0  0  0  0  0  # atno 6909 bound_to 6896
  144.8531  140.6098  143.5377 H   0  0  0  0  0  0  0  0  0  0  0  0  # atno 7974 bound_to 7965
  155.0568  140.0393  157.2563 H   0  0  0  0  0  0  0  0  0  0  0  0  # atno 8008 bound_to 7997
  154.7092  140.2689  155.6621 H   0  0  0  0  0  0  0  0  0  0  0  0  # atno 8009 bound_to 7997
  156.2784  140.2725  156.1728 H   0  0  0  0  0  0  0  0  0  0  0  0  # atno 8010 bound_to 7997
  139.7271  143.8865  152.2523 H   0  0  0  0  0  0  0  0  0  0  0  0  # atno 10167 bound_to 10162
  157.3910  130.7806  149.7269 H   0  0  0  0  0  0  0  0  0  0  0  0  # atno 10718 bound_to 10713
  153.6082  135.6997  153.5357 H   0  0  0  0  0  0  0  0  0  0  0  0  # atno 10763 bound_to 10752
  153.3039  135.4121  155.1276 H   0  0  0  0  0  0  0  0  0  0  0  0  # atno 10764 bound_to 10752
  154.8569  135.3655  154.5620 H   0  0  0  0  0  0  0  0  0  0  0  0  # atno 10765 bound_to 10752
  140.2585  134.3220  155.7866 H   0  0  0  0  0  0  0  0  0  0  0  0  # atno 11005 bound_to 11000
  145.4459  139.1529  143.3945 LP  0  0  0  0  0  0  0  0  0  0  0  0  # atno 17320 bound_to 7965
  146.2801  140.4583  142.8779 LP  0  0  0  0  0  0  0  0  0  0  0  0  # atno 17321 bound_to 7965
  139.8778  144.7034  150.8912 LP  0  0  0  0  0  0  0  0  0  0  0  0  # atno 17342 bound_to 10162
  140.7765  143.3685  151.1693 LP  0  0  0  0  0  0  0  0  0  0  0  0  # atno 17343 bound_to 10162
  155.9798  130.4036  150.3564 LP  0  0  0  0  0  0  0  0  0  0  0  0  # atno 17370 bound_to 10713
  157.1680  131.0361  151.2809 LP  0  0  0  0  0  0  0  0  0  0  0  0  # atno 17371 bound_to 10713
  141.2193  133.7395  156.9149 LP  0  0  0  0  0  0  0  0  0  0  0  0  # atno 17394 bound_to 11000
  140.1488  134.9244  157.2565 LP  0  0  0  0  0  0  0  0  0  0  0  0  # atno 17395 bound_to 11000

$$$$
