AV-unprocessed.smi:109|AV-procd|sdf|1056|dock10
  -GOLD-   2262018123D 1   1.00000     0.00000
 Structure written by MMmdl.
 58 61  0  0  0  0  0  0  0  0  1 V2000
  149.6147  140.7167  153.7464 O   0  0  0  0  0  0  0  0  0  0  0  0
  149.3418  141.3541  154.9756 C   0  0  0  0  0  0  0  0  0  0  0  0
  150.5575  141.2323  155.9082 C   0  0  0  0  0  0  0  0  0  0  0  0
  150.1679  140.8978  157.3653 C   0  0  1  0  0  0  0  0  0  0  0  0
  150.2396  139.4524  157.5785 N   0  0  0  0  0  0  0  0  0  0  0  0
  149.1241  138.6987  157.6969 C   0  0  0  0  0  0  0  0  0  0  0  0
  148.6509  138.3210  158.9133 N   0  0  0  0  0  0  0  0  0  0  0  0
  147.5431  137.5782  158.9996 C   0  0  0  0  0  0  0  0  0  0  0  0
  146.7704  137.1136  158.0148 N   0  0  0  0  0  0  0  0  0  0  0  0
  147.2426  137.4922  156.7916 C   0  0  0  0  0  0  0  0  0  0  0  0
  148.4031  138.2780  156.5501 C   0  0  0  0  0  0  0  0  0  0  0  0
  148.5729  138.4585  155.1838 N   0  0  0  0  0  0  0  0  0  0  0  0
  147.5662  137.8166  154.6538 C   0  0  0  0  0  0  0  0  0  0  0  0
  146.7121  137.2108  155.5515 N   0  0  0  0  0  0  0  0  0  0  0  0
  145.4746  136.4068  155.2907 C   0  0  2  0  0  0  0  0  0  0  0  0
  145.7791  135.4793  154.2906 O   0  0  0  0  0  0  0  0  0  0  0  0
  144.9827  135.7026  153.1281 C   0  0  2  0  0  0  0  0  0  0  0  0
  145.7672  135.3568  151.8501 C   0  0  0  0  0  0  0  0  0  0  0  0
  145.1029  135.8659  150.7133 O   0  0  0  0  0  0  0  0  0  0  0  0
  144.4434  137.1362  153.2547 C   0  0  2  0  0  0  0  0  0  0  0  0
  145.3243  138.0870  152.6803 O   0  0  0  0  0  0  0  0  0  0  0  0
  144.3194  137.2804  154.7659 C   0  0  2  0  0  0  0  0  0  0  0  0
  144.3170  138.6274  155.2067 O   0  0  0  0  0  0  0  0  0  0  0  0
  151.0057  141.6531  158.4340 C   0  0  0  0  0  0  0  0  0  0  0  0
  151.0967  143.1702  158.1625 C   0  0  0  0  0  0  0  0  0  0  0  0
  151.8429  143.8988  159.2922 C   0  0  0  0  0  0  0  0  0  0  0  0
  153.2418  143.3019  159.5109 C   0  0  0  0  0  0  0  0  0  0  0  0
  153.1643  141.7909  159.7797 C   0  0  0  0  0  0  0  0  0  0  0  0
  152.4172  141.0614  158.6514 C   0  0  0  0  0  0  0  0  0  0  0  0
  145.2586  135.9146  156.2395 H   0  0  0  0  0  0  0  0  0  0  0  0
  144.1369  135.0181  153.2150 H   0  0  0  0  0  0  0  0  0  0  0  0
  143.4755  137.2417  152.7633 H   0  0  0  0  0  0  0  0  0  0  0  0
  143.3902  136.8086  155.0881 H   0  0  0  0  0  0  0  0  0  0  0  0
  149.5133  139.7842  153.8627 H   0  0  0  0  0  0  0  0  0  0  0  0
  149.1050  142.4017  154.7867 H   0  0  0  0  0  0  0  0  0  0  0  0
  148.4590  140.8945  155.4208 H   0  0  0  0  0  0  0  0  0  0  0  0
  151.2392  140.4756  155.5179 H   0  0  0  0  0  0  0  0  0  0  0  0
  151.1004  142.1760  155.8765 H   0  0  0  0  0  0  0  0  0  0  0  0
  149.1295  141.2094  157.4837 H   0  0  0  0  0  0  0  0  0  0  0  0
  151.1640  139.0838  157.7505 H   0  0  0  0  0  0  0  0  0  0  0  0
  147.2301  137.3202  160.0005 H   0  0  0  0  0  0  0  0  0  0  0  0
  147.4213  137.7708  153.5849 H   0  0  0  0  0  0  0  0  0  0  0  0
  146.7865  135.7418  151.8851 H   0  0  0  0  0  0  0  0  0  0  0  0
  145.8430  134.2744  151.7443 H   0  0  0  0  0  0  0  0  0  0  0  0
  145.5693  135.5830  149.9417 H   0  0  0  0  0  0  0  0  0  0  0  0
  144.8855  138.9237  152.6544 H   0  0  0  0  0  0  0  0  0  0  0  0
  144.0432  139.1772  154.4890 H   0  0  0  0  0  0  0  0  0  0  0  0
  150.4743  141.5544  159.3818 H   0  0  0  0  0  0  0  0  0  0  0  0
  151.6114  143.3617  157.2215 H   0  0  0  0  0  0  0  0  0  0  0  0
  150.0957  143.5905  158.0588 H   0  0  0  0  0  0  0  0  0  0  0  0
  151.9243  144.9607  159.0589 H   0  0  0  0  0  0  0  0  0  0  0  0
  151.2668  143.8288  160.2158 H   0  0  0  0  0  0  0  0  0  0  0  0
  153.8588  143.4850  158.6302 H   0  0  0  0  0  0  0  0  0  0  0  0
  153.7349  143.8036  160.3440 H   0  0  0  0  0  0  0  0  0  0  0  0
  154.1689  141.3803  159.8852 H   0  0  0  0  0  0  0  0  0  0  0  0
  152.6566  141.6133  160.7286 H   0  0  0  0  0  0  0  0  0  0  0  0
  152.3497  139.9999  158.8914 H   0  0  0  0  0  0  0  0  0  0  0  0
  153.0027  141.1354  157.7348 H   0  0  0  0  0  0  0  0  0  0  0  0
  1  2  1  0  0  0  0
  1 34  1  0  0  0  0
  2  3  1  0  0  0  0
  2 35  1  0  0  0  0
  2 36  1  0  0  0  0
  3  4  1  0  0  0  0
  3 37  1  0  0  0  0
  3 38  1  0  0  0  0
  4  5  1  0  0  0  0
  4 24  1  0  0  0  0
  4 39  1  0  0  0  0
  5  6  1  0  0  0  0
  5 40  1  0  0  0  0
  6 11  1  0  0  0  0
  6  7  2  0  0  0  0
  7  8  1  0  0  0  0
  8  9  2  0  0  0  0
  8 41  1  0  0  0  0
  9 10  1  0  0  0  0
 10 14  1  0  0  0  0
 10 11  2  0  0  0  0
 11 12  1  0  0  0  0
 12 13  2  0  0  0  0
 13 14  1  0  0  0  0
 13 42  1  0  0  0  0
 14 15  1  0  0  0  0
 15 30  1  0  0  0  0
 15 22  1  0  0  0  0
 15 16  1  0  0  0  0
 16 17  1  0  0  0  0
 17 31  1  0  0  0  0
 17 18  1  0  0  0  0
 17 20  1  0  0  0  0
 18 19  1  0  0  0  0
 18 43  1  0  0  0  0
 18 44  1  0  0  0  0
 19 45  1  0  0  0  0
 20 32  1  0  0  0  0
 20 21  1  0  0  0  0
 20 22  1  0  0  0  0
 21 46  1  0  0  0  0
 22 33  1  0  0  0  0
 22 23  1  0  0  0  0
 23 47  1  0  0  0  0
 24 29  1  0  0  0  0
 24 25  1  0  0  0  0
 24 48  1  0  0  0  0
 25 26  1  0  0  0  0
 25 49  1  0  0  0  0
 25 50  1  0  0  0  0
 26 27  1  0  0  0  0
 26 51  1  0  0  0  0
 26 52  1  0  0  0  0
 27 28  1  0  0  0  0
 27 53  1  0  0  0  0
 27 54  1  0  0  0  0
 28 29  1  0  0  0  0
 28 55  1  0  0  0  0
 28 56  1  0  0  0  0
 29 57  1  0  0  0  0
 29 58  1  0  0  0  0
M  END
> <s_m_source_file>
AV-unprocessed.smi

> <i_m_source_file_index>
109

> <i_lp_mmshare_version>
43012

> <i_f3d_flags>
0

> <s_epik_input>
W0NIMl0xW0NIMl1bQ0gyXVtDSDJdW0NIMl1bQ0hdMVtDQEhdKFtDSDJdW0NIMl1bT0hdKVtOSF1jKG5bY0hdbjIpYyhjMjMpbltjSF1uM1tDQEBIXTRPW0NASF0oW0NIMl1bT0hdKVtDQEBIXShbT0hdKVtDQEhdNFtPSF0=

> <s_epik_cmdline>
J2VwaWtfcHl0aG9uJywgJy1waCcsICc3LjAnLCAnLXRuJywgJzgnLCAnLW1hJywgJzIwMCcsICctbWV0YWxfYmluZGluZycsICctaW1hZScsICc8aW5maWxlLm1hZT4nLCAnLW9tYWUnLCAnPG91dGZpbGUubWFlPic=

> <r_lp_tautomer_probability>
1

> <r_epik_Ionization_Penalty>
0.000793976

> <r_epik_Ionization_Penalty_Charging>
0

> <r_epik_Ionization_Penalty_Neutral>
0.000793976

> <r_epik_State_Penalty>
-0

> <r_epik_Charging_Adjusted_Penalty>
0

> <i_epik_Tot_Q>
0

> <i_epik_Tot_abs_Q>
0

> <r_epik_Metal_State_Penalty>
-0

> <b_epik_Metal_Only>
0

> <s_epik_Chemistry_Notes>
This compound contains an acetal/aminal-like group ( X-CH(R)-Y where X, Y are N, S, or O) that may be acid/base labile, releasing an aldehyde.

> <s_lp_Force_Field>
OPLS_2005

> <r_lp_Energy>
58.3807

> <b_lp_Chiralities_Consistent>
1

> <s_lp_Variant>
AV-unprocessed.smi:109-26

> <Gold.Version>
5.8.1

> <Gold.Id.Protein>
6NUR|6NUR_protein|mol2

> <Gold.PLP.Fitness>
52.8942

> <Gold.PLP.PLP>
-41.1631

> <Gold.PLP.part.hbond>
-8.3700

> <Gold.PLP.part.metal>
0.0000

> <Gold.PLP.part.buried>
-4.6787

> <Gold.PLP.part.nonpolar>
-28.3425

> <Gold.PLP.part.repulsive>
0.2145

> <Gold.PLP.ligand.clash>
0.0339

> <Gold.PLP.ligand.torsion>
2.1331

> <Gold.PLP.Chemscore.Hbond>
4.3520

> <Gold.PLP.Chemscore.CHOScore>
0.7411

> <Gold.PLP.Chemscore.Metal>
0.0000

> <Gold.Chemscore.Hbonds>
donor molecule, donor type, donor heavy atom, donor atom, acceptor molecule, acceptor atom, score
      L1  H    21    46       P1 10175  1.00
      L1  H    23    47       P1 10175  0.06
      P1  H  7989  7998       L1     1  0.46
      P1  H  8011  8017       L1     1  0.54
      L1  C    13    42       P1  7948  0.36

> <Gold.PLP.Chemscore.Internal.Correction>
0.7520

> <Gold.Rescore>
     Score         DG    S(hbond)    S(metal)    S(lipo)     H(rot)  DE(clash)    DE(int)     intcor
     11.04     -14.51       3.78        0.00      88.96       5.47       0.29       3.18       ----

> <Gold.Chemscore.Fitness>
11.0432

> <Gold.Chemscore.DG>
-14.5128

> <Gold.Chemscore.ZeroCoef>
-5.4800

> <Gold.Chemscore.Hbond>
3.7779

> <Gold.Chemscore.Metal>
0.0000

> <Gold.Chemscore.Lipo>
88.9572

> <Gold.Chemscore.Internal_Hbond>
0.0000

> <Gold.Chemscore.DEClash>
0.2925

> <Gold.Chemscore.DEInternal>
3.1770

> <Gold.Chemscore.Rot>
5.4662

> <Gold.Chemscore.Internal.Correction>
   9.000000E+99

> <Gold.Chemscore.Hbonds>
donor molecule, donor type, donor heavy atom, donor atom, acceptor molecule, acceptor atom, score
      L1  H    19    45       P1  7921  0.02
      L1  H    21    46       P1 10175  0.99
      L1  H    23    47       P1 10175  0.11
      P1  H  7989  7998       L1     1  0.09
      P1  H  8011  8017       L1     1  0.21

> <Gold.Chemscore.Hbond.Weighted>
-12.6183

> <Gold.Chemscore.Metal.Weighted>
-0.0000

> <Gold.Chemscore.Lipo.Weighted>
-10.4080

> <Gold.Chemscore.Internal_Hbond.Weighted>
0.0000

> <Gold.Chemscore.DEClash.Weighted>
0.2925

> <Gold.Chemscore.DEInternal.Weighted>
3.1770

> <Gold.Chemscore.Rot.Weighted>
13.9935

> <Gold.Chemscore.Internal.Correction.Weighted>
   9.000000E+99

> <Gold.Protein.RotatedTorsions>
[ 6907 6896 6895 6894 ] final   86.44 input  -60.11 | X-H torsion
[ 7974 7965 7964 7962 ] final   31.47 input  175.53 | X-H torsion
[ 8008 7997 7996 7995 ] final   41.89 input   59.86 | X-H torsion
[ 10167 10162 10161 10158 ] final -103.25 input  -65.29 | X-H torsion
[ 10718 10713 10712 10709 ] final  -26.02 input   66.30 | X-H torsion
[ 10763 10752 10751 10750 ] final  138.16 input  -60.55 | X-H torsion
[ 11005 11000 10999 10996 ] final   42.87 input  -57.11 | X-H torsion

> <Gold.Protein.ActiveResidues>
 VAL166  LYS551  ARG553  GLY616  TRP617  ASP618  TYR619  PRO620  LYS621  CYS622 
 ASP623  PHE694  ASN695  SER759  ASP760  ASP761  ALA762  ILE779  LEU786  VAL792 
 PHE793  MET794  SER795  GLU796  ALA797  LYS798  CYS799  TRP800  GLU811  SER814 

> <Gold.Protein.RotatedAtoms>
  152.5394  134.2431  159.8869 H   0  0  0  0  0  0  0  0  0  0  0  0  # atno 6907 bound_to 6896
  151.2397  133.4399  159.2614 H   0  0  0  0  0  0  0  0  0  0  0  0  # atno 6908 bound_to 6896
  151.0638  134.9767  159.8330 H   0  0  0  0  0  0  0  0  0  0  0  0  # atno 6909 bound_to 6896
  146.1548  139.6652  142.9074 H   0  0  0  0  0  0  0  0  0  0  0  0  # atno 7974 bound_to 7965
  155.2771  140.3370  155.4261 H   0  0  0  0  0  0  0  0  0  0  0  0  # atno 8008 bound_to 7997
  156.2106  140.1768  156.7743 H   0  0  0  0  0  0  0  0  0  0  0  0  # atno 8009 bound_to 7997
  154.5682  140.0675  156.8908 H   0  0  0  0  0  0  0  0  0  0  0  0  # atno 8010 bound_to 7997
  140.2219  143.3669  152.0962 H   0  0  0  0  0  0  0  0  0  0  0  0  # atno 10167 bound_to 10162
  156.4567  130.4495  149.6955 H   0  0  0  0  0  0  0  0  0  0  0  0  # atno 10718 bound_to 10713
  153.8850  135.3040  155.3446 H   0  0  0  0  0  0  0  0  0  0  0  0  # atno 10763 bound_to 10752
  154.7743  135.4869  153.9716 H   0  0  0  0  0  0  0  0  0  0  0  0  # atno 10764 bound_to 10752
  153.1330  135.6808  153.9246 H   0  0  0  0  0  0  0  0  0  0  0  0  # atno 10765 bound_to 10752
  140.1698  134.4236  155.8264 H   0  0  0  0  0  0  0  0  0  0  0  0  # atno 11005 bound_to 11000
  145.4735  141.0436  143.2685 LP  0  0  0  0  0  0  0  0  0  0  0  0  # atno 17320 bound_to 7965
  144.7949  139.6254  143.7097 LP  0  0  0  0  0  0  0  0  0  0  0  0  # atno 17321 bound_to 7965
  139.5141  144.6942  151.5675 LP  0  0  0  0  0  0  0  0  0  0  0  0  # atno 17342 bound_to 10162
  140.6248  143.9189  150.6556 LP  0  0  0  0  0  0  0  0  0  0  0  0  # atno 17343 bound_to 10162
  156.3759  130.7554  151.2542 LP  0  0  0  0  0  0  0  0  0  0  0  0  # atno 17370 bound_to 10713
  157.7500  131.0309  150.4160 LP  0  0  0  0  0  0  0  0  0  0  0  0  # atno 17371 bound_to 10713
  141.2216  133.6951  156.7743 LP  0  0  0  0  0  0  0  0  0  0  0  0  # atno 17394 bound_to 11000
  140.2391  134.8628  157.3555 LP  0  0  0  0  0  0  0  0  0  0  0  0  # atno 17395 bound_to 11000

$$$$
