AV-unprocessed.smi:1952|AV-procd|sdf|7891|dock3
  -GOLD-   2272010 43D 1   1.00000     0.00000
 Structure written by MMmdl.
 39 40  0  0  0  0  0  0  0  0  3 V2000
  147.7429  136.0355  162.8210 C   0  0  0  0  0  0  0  0  0  0  0  0
  147.8284  135.9528  161.3352 C   0  0  0  0  0  0  0  0  0  0  0  0
  147.7462  134.9078  160.4587 C   0  0  0  0  0  0  0  0  0  0  0  0
  147.9102  135.5343  159.1948 C   0  0  0  0  0  0  0  0  0  0  0  0
  147.8969  134.7681  157.9998 N   0  0  0  0  0  0  0  0  0  0  0  0
  148.5079  133.5977  157.7445 C   0  0  0  0  0  0  0  0  0  0  0  0
  149.2490  133.0815  158.5895 O   0  0  0  0  0  0  0  0  0  0  0  0
  148.1936  133.1066  156.5133 N   0  5  0  0  0  0  0  0  0  0  0  0
  149.1543  132.8346  155.4359 C   0  0  2  0  0  0  0  0  0  0  0  0
  150.4799  132.3784  156.0613 C   0  0  0  0  0  0  0  0  0  0  0  0
  149.3503  134.0987  154.5627 C   0  0  0  0  0  0  0  0  0  0  0  0
  148.2731  134.2548  153.5490 N   0  3  0  0  0  0  0  0  0  0  0  0
  148.0441  133.0420  152.7305 C   0  0  0  0  0  0  0  0  0  0  0  0
  147.0198  133.3419  151.6234 C   0  0  0  0  0  0  0  0  0  0  0  0
  145.8097  133.8141  152.2041 O   0  0  0  0  0  0  0  0  0  0  0  0
  146.0032  135.0200  152.9347 C   0  0  0  0  0  0  0  0  0  0  0  0
  146.9892  134.7705  154.0870 C   0  0  0  0  0  0  0  0  0  0  0  0
  148.0821  136.8443  159.2921 N   0  0  0  0  0  0  0  0  0  0  0  0
  148.0278  137.1193  160.6635 O   0  0  0  0  0  0  0  0  0  0  0  0
  148.3791  135.2830  163.2868 H   0  0  0  0  0  0  0  0  0  0  0  0
  146.7195  135.8687  163.1573 H   0  0  0  0  0  0  0  0  0  0  0  0
  148.0612  137.0145  163.1798 H   0  0  0  0  0  0  0  0  0  0  0  0
  147.5934  133.8636  160.6869 H   0  0  0  0  0  0  0  0  0  0  0  0
  147.3345  135.1410  157.2493 H   0  0  0  0  0  0  0  0  0  0  0  0
  148.8120  132.0266  154.7878 H   0  0  0  0  0  0  0  0  0  0  0  0
  151.2190  132.1562  155.2912 H   0  0  0  0  0  0  0  0  0  0  0  0
  150.3447  131.4736  156.6550 H   0  0  0  0  0  0  0  0  0  0  0  0
  150.9005  133.1454  156.7127 H   0  0  0  0  0  0  0  0  0  0  0  0
  149.3754  134.9714  155.2178 H   0  0  0  0  0  0  0  0  0  0  0  0
  150.3205  134.0758  154.0643 H   0  0  0  0  0  0  0  0  0  0  0  0
  148.9828  132.7184  152.2791 H   0  0  0  0  0  0  0  0  0  0  0  0
  147.6914  132.2289  153.3667 H   0  0  0  0  0  0  0  0  0  0  0  0
  147.4122  134.0796  150.9212 H   0  0  0  0  0  0  0  0  0  0  0  0
  146.8091  132.4381  151.0514 H   0  0  0  0  0  0  0  0  0  0  0  0
  146.3695  135.8065  152.2728 H   0  0  0  0  0  0  0  0  0  0  0  0
  145.0429  135.3547  153.3268 H   0  0  0  0  0  0  0  0  0  0  0  0
  146.5702  134.0520  154.7931 H   0  0  0  0  0  0  0  0  0  0  0  0
  147.1544  135.6993  154.6336 H   0  0  0  0  0  0  0  0  0  0  0  0
  148.6216  134.9560  152.9089 H   0  0  0  0  0  0  0  0  0  0  0  0
  1  2  1  0  0  0  0
  1 20  1  0  0  0  0
  1 21  1  0  0  0  0
  1 22  1  0  0  0  0
  2 19  1  0  0  0  0
  2  3  2  0  0  0  0
  3  4  1  0  0  0  0
  3 23  1  0  0  0  0
  4  5  1  0  0  0  0
  4 18  2  0  0  0  0
  5  6  1  0  0  0  0
  5 24  1  0  0  0  0
  6  7  2  0  0  0  0
  6  8  1  0  0  0  0
  8  9  1  0  0  0  0
  9 10  1  0  0  0  0
  9 11  1  0  0  0  0
  9 25  1  0  0  0  0
 10 26  1  0  0  0  0
 10 27  1  0  0  0  0
 10 28  1  0  0  0  0
 11 12  1  0  0  0  0
 11 29  1  0  0  0  0
 11 30  1  0  0  0  0
 12 17  1  0  0  0  0
 12 13  1  0  0  0  0
 12 39  1  0  0  0  0
 13 14  1  0  0  0  0
 13 31  1  0  0  0  0
 13 32  1  0  0  0  0
 14 15  1  0  0  0  0
 14 33  1  0  0  0  0
 14 34  1  0  0  0  0
 15 16  1  0  0  0  0
 16 17  1  0  0  0  0
 16 35  1  0  0  0  0
 16 36  1  0  0  0  0
 17 37  1  0  0  0  0
 17 38  1  0  0  0  0
 18 19  1  0  0  0  0
M  CHG  1   8  -1
M  CHG  1  12   1
M  END
> <s_m_source_file>
AV-unprocessed.smi

> <i_m_source_file_index>
1952

> <i_lp_mmshare_version>
43012

> <i_f3d_flags>
0

> <s_epik_input>
W0NIM11jMVtjSF1jKG5vMSlbTkhdQyg9TylbTkhdW0NASF0oW0NIM10pW0NIMl1OMltDSDJdW0NIMl1PW0NIMl1bQ0gyXTI=

> <s_epik_cmdline>
J2VwaWtfcHl0aG9uJywgJy1waCcsICc3LjAnLCAnLXRuJywgJzgnLCAnLW1hJywgJzIwMCcsICctbWV0YWxfYmluZGluZycsICctaW1hZScsICc8aW5maWxlLm1hZT4nLCAnLW9tYWUnLCAnPG91dGZpbGUubWFlPic=

> <r_epik_Ionization_Penalty>
6.76648

> <r_epik_Ionization_Penalty_Charging>
6.76648

> <r_epik_Ionization_Penalty_Neutral>
5.6208e-06

> <r_epik_State_Penalty>
7.45901

> <r_epik_Charging_Adjusted_Penalty>
14.2255

> <i_epik_Tot_Q>
0

> <i_epik_Tot_abs_Q>
2

> <r_epik_Metal_State_Penalty>
3.38802

> <b_epik_Metal_Only>
1

> <s_lp_Force_Field>
OPLS_2005

> <r_lp_Energy>
9.23167

> <b_lp_Chiralities_Consistent>
1

> <s_lp_Variant>
AV-unprocessed.smi:1952-9

> <Gold.Version>
5.8.1

> <Gold.Id.Protein>
6NUR|6NUR_protein|mol2

> <Gold.PLP.Fitness>
39.3902

> <Gold.PLP.PLP>
-28.4447

> <Gold.PLP.part.hbond>
-4.0000

> <Gold.PLP.part.metal>
0.0000

> <Gold.PLP.part.buried>
-3.1596

> <Gold.PLP.part.nonpolar>
-21.8856

> <Gold.PLP.part.repulsive>
0.1469

> <Gold.PLP.ligand.clash>
0.0000

> <Gold.PLP.ligand.torsion>
1.6174

> <Gold.PLP.Chemscore.Hbond>
4.6560

> <Gold.PLP.Chemscore.CHOScore>
0.0000

> <Gold.PLP.Chemscore.Metal>
0.0000

> <Gold.Chemscore.Hbonds>
donor molecule, donor type, donor heavy atom, donor atom, acceptor molecule, acceptor atom, score
      L1  H    12    39       P1  7948  2.00
      P1  H  6896  6908       L1     7  1.00
      P1  H  6931  6943       L1    19  0.85
      P1  H  6934  6947       L1    19  0.65

> <Gold.PLP.Chemscore.Internal.Correction>
0.2123

> <Gold.Rescore>
     Score         DG    S(hbond)    S(metal)    S(lipo)     H(rot)  DE(clash)    DE(int)     intcor
     14.96     -17.97       2.94        0.00      57.37       1.58       0.01       3.00       ----

> <Gold.Chemscore.Fitness>
14.9573

> <Gold.Chemscore.DG>
-17.9660

> <Gold.Chemscore.ZeroCoef>
-5.4800

> <Gold.Chemscore.Hbond>
2.9395

> <Gold.Chemscore.Metal>
0.0000

> <Gold.Chemscore.Lipo>
57.3694

> <Gold.Chemscore.Internal_Hbond>
0.0000

> <Gold.Chemscore.DEClash>
0.0069

> <Gold.Chemscore.DEInternal>
3.0018

> <Gold.Chemscore.Rot>
1.5798

> <Gold.Chemscore.Internal.Correction>
   9.000000E+99

> <Gold.Chemscore.Hbonds>
donor molecule, donor type, donor heavy atom, donor atom, acceptor molecule, acceptor atom, score
      L1  H    12    39       P1  7948  0.45
      P1  H  6896  6908       L1     7  0.94
      P1  H  6931  6943       L1    19  0.45
      P1  H  6934  6947       L1    19  0.41

> <Gold.Chemscore.Hbond.Weighted>
-9.8180

> <Gold.Chemscore.Metal.Weighted>
-0.0000

> <Gold.Chemscore.Lipo.Weighted>
-6.7122

> <Gold.Chemscore.Internal_Hbond.Weighted>
0.0000

> <Gold.Chemscore.DEClash.Weighted>
0.0069

> <Gold.Chemscore.DEInternal.Weighted>
3.0018

> <Gold.Chemscore.Rot.Weighted>
4.0442

> <Gold.Chemscore.Internal.Correction.Weighted>
   9.000000E+99

> <Gold.Protein.RotatedTorsions>
[ 6907 6896 6895 6894 ] final  105.65 input  -60.11 | X-H torsion
[ 7974 7965 7964 7962 ] final   38.87 input  175.53 | X-H torsion
[ 8008 7997 7996 7995 ] final   34.48 input   59.86 | X-H torsion
[ 10167 10162 10161 10158 ] final  100.89 input  -65.29 | X-H torsion
[ 10718 10713 10712 10709 ] final  -12.94 input   66.30 | X-H torsion
[ 10763 10752 10751 10750 ] final -174.71 input  -60.55 | X-H torsion
[ 11005 11000 10999 10996 ] final  -20.83 input  -57.11 | X-H torsion

> <Gold.Protein.ActiveResidues>
 VAL166  LYS551  ARG553  GLY616  TRP617  ASP618  TYR619  PRO620  LYS621  CYS622 
 ASP623  PHE694  ASN695  SER759  ASP760  ASP761  ALA762  ILE779  LEU786  VAL792 
 PHE793  MET794  SER795  GLU796  ALA797  LYS798  CYS799  TRP800  GLU811  SER814 

> <Gold.Protein.RotatedAtoms>
  152.5223  133.9497  159.7665 H   0  0  0  0  0  0  0  0  0  0  0  0  # atno 6907 bound_to 6896
  150.9810  133.6237  159.2729 H   0  0  0  0  0  0  0  0  0  0  0  0  # atno 6908 bound_to 6896
  151.3415  135.0870  159.9425 H   0  0  0  0  0  0  0  0  0  0  0  0  # atno 6909 bound_to 6896
  146.1029  139.5720  142.9403 H   0  0  0  0  0  0  0  0  0  0  0  0  # atno 7974 bound_to 7965
  155.1555  140.3278  155.4422 H   0  0  0  0  0  0  0  0  0  0  0  0  # atno 8008 bound_to 7997
  156.2560  140.1969  156.6616 H   0  0  0  0  0  0  0  0  0  0  0  0  # atno 8009 bound_to 7997
  154.6442  140.0566  156.9867 H   0  0  0  0  0  0  0  0  0  0  0  0  # atno 8010 bound_to 7997
  139.7487  144.6990  151.0465 H   0  0  0  0  0  0  0  0  0  0  0  0  # atno 10167 bound_to 10162
  156.6374  130.4918  149.6107 H   0  0  0  0  0  0  0  0  0  0  0  0  # atno 10718 bound_to 10713
  154.5931  135.2847  155.0615 H   0  0  0  0  0  0  0  0  0  0  0  0  # atno 10763 bound_to 10752
  154.1908  135.6441  153.5063 H   0  0  0  0  0  0  0  0  0  0  0  0  # atno 10764 bound_to 10752
  153.0128  135.5446  154.6623 H   0  0  0  0  0  0  0  0  0  0  0  0  # atno 10765 bound_to 10752
  140.8503  133.7862  155.9958 H   0  0  0  0  0  0  0  0  0  0  0  0  # atno 11005 bound_to 11000
  145.5819  141.0381  143.2117 LP  0  0  0  0  0  0  0  0  0  0  0  0  # atno 17320 bound_to 7965
  144.7447  139.7353  143.7297 LP  0  0  0  0  0  0  0  0  0  0  0  0  # atno 17321 bound_to 7965
  140.7795  143.4835  150.9986 LP  0  0  0  0  0  0  0  0  0  0  0  0  # atno 17342 bound_to 10162
  139.8523  143.7422  152.3177 LP  0  0  0  0  0  0  0  0  0  0  0  0  # atno 17343 bound_to 10162
  156.2186  130.6723  151.1345 LP  0  0  0  0  0  0  0  0  0  0  0  0  # atno 17370 bound_to 10713
  157.7181  131.0698  150.6245 LP  0  0  0  0  0  0  0  0  0  0  0  0  # atno 17371 bound_to 10713
  140.8798  134.2626  157.5150 LP  0  0  0  0  0  0  0  0  0  0  0  0  # atno 17394 bound_to 11000
  139.8704  134.9609  156.4379 LP  0  0  0  0  0  0  0  0  0  0  0  0  # atno 17395 bound_to 11000

$$$$
