AV-unprocessed.smi:193|AV-procd|sdf|1517|dock8
  -GOLD-   2262019353D 1   1.00000     0.00000
 Structure written by MMmdl.
 61 65  0  0  0  0  0  0  0  0  1 V2000
  149.8536  142.2860  155.9193 C   0  0  0  0  0  0  0  0  0  0  0  0
  150.5419  141.7214  157.1711 C   0  0  1  0  0  0  0  0  0  0  0  0
  151.3298  140.4456  156.8040 C   0  0  0  0  0  0  0  0  0  0  0  0
  151.5226  139.5288  157.9313 N   0  0  0  0  0  0  0  0  0  0  0  0
  150.6954  138.4552  158.0049 C   0  0  0  0  0  0  0  0  0  0  0  0
  150.3243  137.9652  159.2185 N   0  0  0  0  0  0  0  0  0  0  0  0
  149.5384  136.8879  159.2991 C   0  0  0  0  0  0  0  0  0  0  0  0
  149.0195  136.1575  158.3103 N   0  0  0  0  0  0  0  0  0  0  0  0
  149.3820  136.6476  157.0904 C   0  0  0  0  0  0  0  0  0  0  0  0
  150.2116  137.7794  156.8497 C   0  0  0  0  0  0  0  0  0  0  0  0
  150.3601  137.9749  155.4816 N   0  0  0  0  0  0  0  0  0  0  0  0
  149.6651  137.0094  154.9449 C   0  0  0  0  0  0  0  0  0  0  0  0
  149.0387  136.1691  155.8378 N   0  0  0  0  0  0  0  0  0  0  0  0
  148.2097  135.0170  155.5156 C   0  0  0  0  0  0  0  0  0  0  0  0
  148.9927  133.8159  154.9286 C   0  0  0  0  0  0  0  0  0  0  0  0
  149.6383  134.2528  153.7453 O   0  0  0  0  0  0  0  0  0  0  0  0
  150.0671  133.2750  155.8976 C   0  0  0  0  0  0  0  0  0  0  0  0
  150.6857  131.9559  155.4006 C   0  0  0  0  0  0  0  0  0  0  0  0
  149.6651  130.9947  155.1611 O   0  0  0  0  0  0  0  0  0  0  0  0
  148.7646  131.3948  154.1356 C   0  0  0  0  0  0  0  0  0  0  0  0
  148.0228  132.6751  154.5587 C   0  0  0  0  0  0  0  0  0  0  0  0
  151.8611  140.0606  159.2506 C   0  0  0  0  0  0  0  0  0  0  0  0
  152.7346  141.3245  159.2138 C   0  0  0  0  0  0  0  0  0  0  0  0
  151.8894  142.5157  159.1526 N   0  0  0  0  0  0  0  0  0  0  0  0
  152.6570  143.6606  159.6251 C   0  0  2  0  0  0  0  0  0  0  0  0
  152.3518  144.1877  161.0095 C   0  0  0  0  0  0  0  0  0  0  0  0
  151.9527  144.9950  159.7970 C   0  0  2  0  0  0  0  0  0  0  0  0
  150.4863  145.2009  159.4674 C   0  0  0  0  0  0  0  0  0  0  0  0
  151.4672  142.7984  157.7803 C   0  0  0  0  0  0  0  0  0  0  0  0
  150.5821  142.5622  155.1562 H   0  0  0  0  0  0  0  0  0  0  0  0
  149.2676  143.1739  156.1582 H   0  0  0  0  0  0  0  0  0  0  0  0
  149.1723  141.5551  155.4825 H   0  0  0  0  0  0  0  0  0  0  0  0
  149.7502  141.4762  157.8810 H   0  0  0  0  0  0  0  0  0  0  0  0
  150.8309  139.9187  155.9891 H   0  0  0  0  0  0  0  0  0  0  0  0
  152.3071  140.7127  156.4011 H   0  0  0  0  0  0  0  0  0  0  0  0
  149.2937  136.5616  160.2991 H   0  0  0  0  0  0  0  0  0  0  0  0
  149.5847  136.8859  153.8747 H   0  0  0  0  0  0  0  0  0  0  0  0
  147.6928  134.7139  156.4271 H   0  0  0  0  0  0  0  0  0  0  0  0
  147.4317  135.3384  154.8215 H   0  0  0  0  0  0  0  0  0  0  0  0
  149.1739  135.0037  153.4085 H   0  0  0  0  0  0  0  0  0  0  0  0
  150.8569  134.0107  156.0527 H   0  0  0  0  0  0  0  0  0  0  0  0
  149.6139  133.0994  156.8740 H   0  0  0  0  0  0  0  0  0  0  0  0
  151.2711  132.1143  154.4934 H   0  0  0  0  0  0  0  0  0  0  0  0
  151.3700  131.5603  156.1514 H   0  0  0  0  0  0  0  0  0  0  0  0
  149.3035  131.5423  153.1983 H   0  0  0  0  0  0  0  0  0  0  0  0
  148.0498  130.5897  153.9636 H   0  0  0  0  0  0  0  0  0  0  0  0
  147.3974  132.4400  155.4209 H   0  0  0  0  0  0  0  0  0  0  0  0
  147.3425  132.9926  153.7673 H   0  0  0  0  0  0  0  0  0  0  0  0
  150.9542  140.2362  159.8322 H   0  0  0  0  0  0  0  0  0  0  0  0
  152.4192  139.2937  159.7872 H   0  0  0  0  0  0  0  0  0  0  0  0
  153.2867  141.3509  160.1544 H   0  0  0  0  0  0  0  0  0  0  0  0
  153.4838  141.3003  158.4212 H   0  0  0  0  0  0  0  0  0  0  0  0
  153.7040  143.7288  159.3331 H   0  0  0  0  0  0  0  0  0  0  0  0
  151.5610  143.6987  161.5757 H   0  0  0  0  0  0  0  0  0  0  0  0
  153.1880  144.5526  161.6023 H   0  0  0  0  0  0  0  0  0  0  0  0
  152.5635  145.8710  159.5873 H   0  0  0  0  0  0  0  0  0  0  0  0
  149.8942  144.3267  159.7392 H   0  0  0  0  0  0  0  0  0  0  0  0
  150.3645  145.3863  158.4004 H   0  0  0  0  0  0  0  0  0  0  0  0
  150.0992  146.0606  160.0145 H   0  0  0  0  0  0  0  0  0  0  0  0
  152.3383  142.9550  157.1417 H   0  0  0  0  0  0  0  0  0  0  0  0
  150.9268  143.7456  157.7921 H   0  0  0  0  0  0  0  0  0  0  0  0
  1  2  1  0  0  0  0
  1 30  1  0  0  0  0
  1 31  1  0  0  0  0
  1 32  1  0  0  0  0
  2 29  1  0  0  0  0
  2  3  1  0  0  0  0
  2 33  1  0  0  0  0
  3  4  1  0  0  0  0
  3 34  1  0  0  0  0
  3 35  1  0  0  0  0
  4  5  1  0  0  0  0
  4 22  1  0  0  0  0
  5 10  1  0  0  0  0
  5  6  2  0  0  0  0
  6  7  1  0  0  0  0
  7  8  2  0  0  0  0
  7 36  1  0  0  0  0
  8  9  1  0  0  0  0
  9 13  1  0  0  0  0
  9 10  2  0  0  0  0
 10 11  1  0  0  0  0
 11 12  2  0  0  0  0
 12 13  1  0  0  0  0
 12 37  1  0  0  0  0
 13 14  1  0  0  0  0
 14 15  1  0  0  0  0
 14 38  1  0  0  0  0
 14 39  1  0  0  0  0
 15 21  1  0  0  0  0
 15 16  1  0  0  0  0
 15 17  1  0  0  0  0
 16 40  1  0  0  0  0
 17 18  1  0  0  0  0
 17 41  1  0  0  0  0
 17 42  1  0  0  0  0
 18 19  1  0  0  0  0
 18 43  1  0  0  0  0
 18 44  1  0  0  0  0
 19 20  1  0  0  0  0
 20 21  1  0  0  0  0
 20 45  1  0  0  0  0
 20 46  1  0  0  0  0
 21 47  1  0  0  0  0
 21 48  1  0  0  0  0
 22 23  1  0  0  0  0
 22 49  1  0  0  0  0
 22 50  1  0  0  0  0
 23 24  1  0  0  0  0
 23 51  1  0  0  0  0
 23 52  1  0  0  0  0
 24 25  1  0  0  0  0
 24 29  1  0  0  0  0
 25 27  1  0  0  0  0
 25 26  1  0  0  0  0
 25 53  1  0  0  0  0
 26 27  1  0  0  0  0
 26 54  1  0  0  0  0
 26 55  1  0  0  0  0
 27 28  1  0  0  0  0
 27 56  1  0  0  0  0
 28 57  1  0  0  0  0
 28 58  1  0  0  0  0
 28 59  1  0  0  0  0
 29 60  1  0  0  0  0
 29 61  1  0  0  0  0
M  END
> <s_m_source_file>
AV-unprocessed.smi

> <i_m_source_file_index>
193

> <i_lp_mmshare_version>
43012

> <i_f3d_flags>
0

> <s_epik_input>
W0NIM11bQ0BASF0xW0NIMl1bQ0BIXTFOKFtDSDJdMilbQ0gyXVtDSDJdTihbQ0gyXVtDQEhdMltDSDNdKWMobltjSF1uMyljKGMzNCluW2NIXW40W0NIMl1DNShbT0hdKVtDSDJdW0NIMl1PW0NIMl1bQ0gyXTU=

> <s_epik_cmdline>
J2VwaWtfcHl0aG9uJywgJy1waCcsICc3LjAnLCAnLXRuJywgJzgnLCAnLW1hJywgJzIwMCcsICctbWV0YWxfYmluZGluZycsICctaW1hZScsICc8aW5maWxlLm1hZT4nLCAnLW9tYWUnLCAnPG91dGZpbGUubWFlPic=

> <r_lp_tautomer_probability>
1

> <r_epik_Ionization_Penalty>
1.45227

> <r_epik_Ionization_Penalty_Charging>
0

> <r_epik_Ionization_Penalty_Neutral>
1.45227

> <r_epik_State_Penalty>
2.02377

> <r_epik_Charging_Adjusted_Penalty>
2.02377

> <i_epik_Tot_Q>
0

> <i_epik_Tot_abs_Q>
0

> <r_epik_Metal_State_Penalty>
2.01937

> <b_epik_Metal_Only>
0

> <s_lp_Force_Field>
OPLS_2005

> <r_lp_Energy>
53.149

> <b_lp_Chiralities_Consistent>
1

> <s_lp_Variant>
AV-unprocessed.smi:193-22

> <Gold.Version>
5.8.1

> <Gold.Id.Protein>
6NUR|6NUR_protein|mol2

> <Gold.PLP.Fitness>
44.1258

> <Gold.PLP.PLP>
-39.6380

> <Gold.PLP.part.hbond>
-2.1050

> <Gold.PLP.part.metal>
0.0000

> <Gold.PLP.part.buried>
-1.6322

> <Gold.PLP.part.nonpolar>
-36.2862

> <Gold.PLP.part.repulsive>
0.0670

> <Gold.PLP.ligand.clash>
0.0000

> <Gold.PLP.ligand.torsion>
1.1299

> <Gold.PLP.Chemscore.Hbond>
0.6772

> <Gold.PLP.Chemscore.CHOScore>
1.0000

> <Gold.PLP.Chemscore.Metal>
0.0000

> <Gold.Chemscore.Hbonds>
donor molecule, donor type, donor heavy atom, donor atom, acceptor molecule, acceptor atom, score
      L1  H    16    40       P1  7948  0.73
      L1  C    12    37       P1  7948  1.00

> <Gold.PLP.Chemscore.Internal.Correction>
1.7159

> <Gold.Rescore>
     Score         DG    S(hbond)    S(metal)    S(lipo)     H(rot)  DE(clash)    DE(int)     intcor
     11.23     -14.80       0.53        0.00     111.96       2.17       0.15       3.42       ----

> <Gold.Chemscore.Fitness>
11.2320

> <Gold.Chemscore.DG>
-14.7987

> <Gold.Chemscore.ZeroCoef>
-5.4800

> <Gold.Chemscore.Hbond>
0.5287

> <Gold.Chemscore.Metal>
0.0000

> <Gold.Chemscore.Lipo>
111.9564

> <Gold.Chemscore.Internal_Hbond>
0.0000

> <Gold.Chemscore.DEClash>
0.1481

> <Gold.Chemscore.DEInternal>
3.4187

> <Gold.Chemscore.Rot>
2.1664

> <Gold.Chemscore.Internal.Correction>
   9.000000E+99

> <Gold.Chemscore.Hbonds>
donor molecule, donor type, donor heavy atom, donor atom, acceptor molecule, acceptor atom, score
      L1  H    16    40       P1  7948  0.13

> <Gold.Chemscore.Hbond.Weighted>
-1.7658

> <Gold.Chemscore.Metal.Weighted>
-0.0000

> <Gold.Chemscore.Lipo.Weighted>
-13.0989

> <Gold.Chemscore.Internal_Hbond.Weighted>
0.0000

> <Gold.Chemscore.DEClash.Weighted>
0.1481

> <Gold.Chemscore.DEInternal.Weighted>
3.4187

> <Gold.Chemscore.Rot.Weighted>
5.5459

> <Gold.Chemscore.Internal.Correction.Weighted>
   9.000000E+99

> <Gold.Protein.RotatedTorsions>
[ 6907 6896 6895 6894 ] final  165.66 input  -60.11 | X-H torsion
[ 7974 7965 7964 7962 ] final   10.20 input  175.53 | X-H torsion
[ 8008 7997 7996 7995 ] final  152.15 input   59.86 | X-H torsion
[ 10167 10162 10161 10158 ] final -138.92 input  -65.29 | X-H torsion
[ 10718 10713 10712 10709 ] final -106.89 input   66.30 | X-H torsion
[ 10763 10752 10751 10750 ] final   51.56 input  -60.55 | X-H torsion
[ 11005 11000 10999 10996 ] final  110.62 input  -57.11 | X-H torsion

> <Gold.Protein.ActiveResidues>
 VAL166  LYS551  ARG553  GLY616  TRP617  ASP618  TYR619  PRO620  LYS621  CYS622 
 ASP623  PHE694  ASN695  SER759  ASP760  ASP761  ALA762  ILE779  LEU786  VAL792 
 PHE793  MET794  SER795  GLU796  ALA797  LYS798  CYS799  TRP800  GLU811  SER814 

> <Gold.Protein.RotatedAtoms>
  151.8910  133.3516  159.3798 H   0  0  0  0  0  0  0  0  0  0  0  0  # atno 6907 bound_to 6896
  150.7103  134.4923  159.5531 H   0  0  0  0  0  0  0  0  0  0  0  0  # atno 6908 bound_to 6896
  152.2494  134.8149  160.0499 H   0  0  0  0  0  0  0  0  0  0  0  0  # atno 6909 bound_to 6896
  146.2392  139.9669  142.8451 H   0  0  0  0  0  0  0  0  0  0  0  0  # atno 7974 bound_to 7965
  156.2642  140.2028  156.6287 H   0  0  0  0  0  0  0  0  0  0  0  0  # atno 8008 bound_to 7997
  154.6700  140.0551  157.0179 H   0  0  0  0  0  0  0  0  0  0  0  0  # atno 8009 bound_to 7997
  155.1151  140.3219  155.4514 H   0  0  0  0  0  0  0  0  0  0  0  0  # atno 8010 bound_to 7997
  139.8430  143.7297  152.2662 H   0  0  0  0  0  0  0  0  0  0  0  0  # atno 10167 bound_to 10162
  156.0411  130.5635  150.7745 H   0  0  0  0  0  0  0  0  0  0  0  0  # atno 10718 bound_to 10713
  152.9785  135.5841  154.4436 H   0  0  0  0  0  0  0  0  0  0  0  0  # atno 10763 bound_to 10752
  154.4034  135.2769  155.2084 H   0  0  0  0  0  0  0  0  0  0  0  0  # atno 10764 bound_to 10752
  154.3905  135.6126  153.5895 H   0  0  0  0  0  0  0  0  0  0  0  0  # atno 10765 bound_to 10752
  139.8886  134.9488  156.6306 H   0  0  0  0  0  0  0  0  0  0  0  0  # atno 11005 bound_to 11000
  145.1717  140.9724  143.4317 LP  0  0  0  0  0  0  0  0  0  0  0  0  # atno 17320 bound_to 7965
  145.0022  139.3588  143.6162 LP  0  0  0  0  0  0  0  0  0  0  0  0  # atno 17321 bound_to 7965
  139.7540  144.7526  151.0464 LP  0  0  0  0  0  0  0  0  0  0  0  0  # atno 17342 bound_to 10162
  140.7796  143.4827  150.9996 LP  0  0  0  0  0  0  0  0  0  0  0  0  # atno 17343 bound_to 10162
  157.5230  131.0932  151.0054 LP  0  0  0  0  0  0  0  0  0  0  0  0  # atno 17370 bound_to 10713
  157.0380  130.5738  149.5352 LP  0  0  0  0  0  0  0  0  0  0  0  0  # atno 17371 bound_to 10713
  140.7669  133.8770  155.8461 LP  0  0  0  0  0  0  0  0  0  0  0  0  # atno 17394 bound_to 11000
  140.9875  134.1323  157.4439 LP  0  0  0  0  0  0  0  0  0  0  0  0  # atno 17395 bound_to 11000

$$$$
