AV-unprocessed.smi:1795|AV-procd|sdf|7250|dock5
  -GOLD-   22720 8503D 1   1.00000     0.00000
 Structure written by MMmdl.
 48 49  0  0  0  0  0  0  0  0  2 V2000
  151.2850  143.3199  160.7281 C   0  0  0  0  0  0  0  0  0  0  0  0
  152.1311  143.2657  159.4434 C   0  0  1  0  0  0  0  0  0  0  0  0
  152.0238  141.9271  158.6897 C   0  0  0  0  0  0  0  0  0  0  0  0
  150.7049  141.7789  158.0172 N   0  3  2  0  0  0  0  0  0  0  0  0
  150.5306  140.4257  157.3940 C   0  0  1  0  0  0  0  0  0  0  0  0
  151.5177  140.2697  156.2151 C   0  0  0  0  0  0  0  0  0  0  0  0
  150.6715  139.2463  158.3967 C   0  0  0  0  0  0  0  0  0  0  0  0
  149.3920  138.6177  158.7151 N   0  0  0  0  0  0  0  0  0  0  0  0
  149.2286  137.5198  159.4695 C   0  0  0  0  0  0  0  0  0  0  0  0
  150.1627  136.9223  160.0053 O   0  0  0  0  0  0  0  0  0  0  0  0
  147.7855  137.0295  159.6470 C   0  0  0  0  0  0  0  0  0  0  0  0
  147.5592  136.3873  160.9522 N   0  0  0  0  0  0  0  0  0  0  0  0
  148.1085  135.1037  161.1432 C   0  0  0  0  0  0  0  0  0  0  0  0
  147.9598  134.4325  162.2961 C   0  0  0  0  0  0  0  0  0  0  0  0
  147.2136  135.0605  163.3605 C   0  0  0  0  0  0  0  0  0  0  0  0
  146.6804  136.2863  163.1871 C   0  0  0  0  0  0  0  0  0  0  0  0
  146.8367  137.0220  161.9270 C   0  0  0  0  0  0  0  0  0  0  0  0
  146.3478  138.1397  161.7570 O   0  0  0  0  0  0  0  0  0  0  0  0
  150.4723  142.9489  157.1283 C   0  0  0  0  0  0  0  0  0  0  0  0
  150.5808  144.2683  157.9158 C   0  0  2  0  0  0  0  0  0  0  0  0
  150.4400  145.4931  157.0049 C   0  0  0  0  0  0  0  0  0  0  0  0
  151.8490  144.3459  158.5571 O   0  0  0  0  0  0  0  0  0  0  0  0
  151.6236  142.5714  161.4446 H   0  0  0  0  0  0  0  0  0  0  0  0
  150.2289  143.1301  160.5384 H   0  0  0  0  0  0  0  0  0  0  0  0
  151.3693  144.2953  161.2079 H   0  0  0  0  0  0  0  0  0  0  0  0
  153.1708  143.3922  159.7469 H   0  0  0  0  0  0  0  0  0  0  0  0
  152.8115  141.8749  157.9360 H   0  0  0  0  0  0  0  0  0  0  0  0
  152.2121  141.1115  159.3860 H   0  0  0  0  0  0  0  0  0  0  0  0
  149.5158  140.3758  156.9954 H   0  0  0  0  0  0  0  0  0  0  0  0
  151.3424  139.3487  155.6599 H   0  0  0  0  0  0  0  0  0  0  0  0
  152.5491  140.2504  156.5684 H   0  0  0  0  0  0  0  0  0  0  0  0
  151.4367  141.0756  155.4881 H   0  0  0  0  0  0  0  0  0  0  0  0
  151.3831  138.5087  158.0213 H   0  0  0  0  0  0  0  0  0  0  0  0
  151.0635  139.6003  159.3502 H   0  0  0  0  0  0  0  0  0  0  0  0
  148.5656  139.0442  158.3210 H   0  0  0  0  0  0  0  0  0  0  0  0
  147.1200  137.8832  159.5141 H   0  0  0  0  0  0  0  0  0  0  0  0
  147.5257  136.3366  158.8444 H   0  0  0  0  0  0  0  0  0  0  0  0
  148.6471  134.7016  160.2974 H   0  0  0  0  0  0  0  0  0  0  0  0
  148.3843  133.4475  162.4232 H   0  0  0  0  0  0  0  0  0  0  0  0
  147.0814  134.5445  164.3001 H   0  0  0  0  0  0  0  0  0  0  0  0
  146.1250  136.7403  163.9945 H   0  0  0  0  0  0  0  0  0  0  0  0
  151.1903  142.9327  156.3066 H   0  0  0  0  0  0  0  0  0  0  0  0
  149.4739  142.9153  156.6937 H   0  0  0  0  0  0  0  0  0  0  0  0
  149.7880  144.3138  158.6627 H   0  0  0  0  0  0  0  0  0  0  0  0
  149.4750  145.4975  156.4976 H   0  0  0  0  0  0  0  0  0  0  0  0
  151.2192  145.5107  156.2423 H   0  0  0  0  0  0  0  0  0  0  0  0
  150.5159  146.4167  157.5794 H   0  0  0  0  0  0  0  0  0  0  0  0
  149.9992  141.8427  158.7372 H   0  0  0  0  0  0  0  0  0  0  0  0
  1  2  1  0  0  0  0
  1 23  1  0  0  0  0
  1 24  1  0  0  0  0
  1 25  1  0  0  0  0
  2 22  1  0  0  0  0
  2  3  1  0  0  0  0
  2 26  1  0  0  0  0
  3  4  1  0  0  0  0
  3 27  1  0  0  0  0
  3 28  1  0  0  0  0
  4  5  1  0  0  0  0
  4 19  1  0  0  0  0
  4 48  1  0  0  0  0
  5  6  1  0  0  0  0
  5  7  1  0  0  0  0
  5 29  1  0  0  0  0
  6 30  1  0  0  0  0
  6 31  1  0  0  0  0
  6 32  1  0  0  0  0
  7  8  1  0  0  0  0
  7 33  1  0  0  0  0
  7 34  1  0  0  0  0
  8  9  1  0  0  0  0
  8 35  1  0  0  0  0
  9 10  2  0  0  0  0
  9 11  1  0  0  0  0
 11 12  1  0  0  0  0
 11 36  1  0  0  0  0
 11 37  1  0  0  0  0
 12 17  1  0  0  0  0
 12 13  1  0  0  0  0
 13 14  2  0  0  0  0
 13 38  1  0  0  0  0
 14 15  1  0  0  0  0
 14 39  1  0  0  0  0
 15 16  2  0  0  0  0
 15 40  1  0  0  0  0
 16 17  1  0  0  0  0
 16 41  1  0  0  0  0
 17 18  2  0  0  0  0
 19 20  1  0  0  0  0
 19 42  1  0  0  0  0
 19 43  1  0  0  0  0
 20 21  1  0  0  0  0
 20 22  1  0  0  0  0
 20 44  1  0  0  0  0
 21 45  1  0  0  0  0
 21 46  1  0  0  0  0
 21 47  1  0  0  0  0
M  CHG  1   4   1
M  END
> <s_m_source_file>
AV-unprocessed.smi

> <i_m_source_file_index>
1795

> <i_lp_mmshare_version>
43012

> <i_f3d_flags>
0

> <s_epik_input>
W0NIM11bQ0BASF0xW0NIMl1OKFtDSDJdW0NASF0oTzEpW0NIM10pW0NASF0oW0NIM10pW0NIMl1bTkhdQyg9TylbQ0gyXW4yW2NIXVtjSF1bY0hdW2NIXWMyPU8=

> <s_epik_cmdline>
J2VwaWtfcHl0aG9uJywgJy1waCcsICc3LjAnLCAnLXRuJywgJzgnLCAnLW1hJywgJzIwMCcsICctbWV0YWxfYmluZGluZycsICctaW1hZScsICc8aW5maWxlLm1hZT4nLCAnLW9tYWUnLCAnPG91dGZpbGUubWFlPic=

> <r_lp_tautomer_probability>
1

> <r_epik_Ionization_Penalty>
0.656654

> <r_epik_Ionization_Penalty_Charging>
0.656654

> <r_epik_Ionization_Penalty_Neutral>
8.90321e-08

> <r_epik_State_Penalty>
0.675641

> <r_epik_Charging_Adjusted_Penalty>
1.33229

> <i_epik_Tot_Q>
1

> <i_epik_Tot_abs_Q>
1

> <r_epik_Metal_State_Penalty>
0.675691

> <b_epik_Metal_Only>
0

> <s_lp_Force_Field>
OPLS_2005

> <r_lp_Energy>
30.8259

> <b_lp_Chiralities_Consistent>
1

> <s_lp_Variant>
AV-unprocessed.smi:1795-14

> <Gold.Version>
5.8.1

> <Gold.Id.Protein>
6NUR|6NUR_protein|mol2

> <Gold.PLP.Fitness>
53.6159

> <Gold.PLP.PLP>
-49.1473

> <Gold.PLP.part.hbond>
-3.0000

> <Gold.PLP.part.metal>
0.0000

> <Gold.PLP.part.buried>
-6.5463

> <Gold.PLP.part.nonpolar>
-40.7064

> <Gold.PLP.part.repulsive>
0.3237

> <Gold.PLP.ligand.clash>
0.0000

> <Gold.PLP.ligand.torsion>
1.2405

> <Gold.PLP.Chemscore.Hbond>
2.2880

> <Gold.PLP.Chemscore.CHOScore>
0.0000

> <Gold.PLP.Chemscore.Metal>
0.0000

> <Gold.Chemscore.Hbonds>
donor molecule, donor type, donor heavy atom, donor atom, acceptor molecule, acceptor atom, score
      P1  H  6896  6907       L1    10  0.16
      P1  H  6934  6947       L1    18  0.54

> <Gold.PLP.Chemscore.Internal.Correction>
0.0856

> <Gold.Rescore>
     Score         DG    S(hbond)    S(metal)    S(lipo)     H(rot)  DE(clash)    DE(int)     intcor
     17.52     -20.17       1.95        0.00     111.04       1.89       0.08       2.57       ----

> <Gold.Chemscore.Fitness>
17.5169

> <Gold.Chemscore.DG>
-20.1674

> <Gold.Chemscore.ZeroCoef>
-5.4800

> <Gold.Chemscore.Hbond>
1.9540

> <Gold.Chemscore.Metal>
0.0000

> <Gold.Chemscore.Lipo>
111.0397

> <Gold.Chemscore.Internal_Hbond>
0.0000

> <Gold.Chemscore.DEClash>
0.0770

> <Gold.Chemscore.DEInternal>
2.5735

> <Gold.Chemscore.Rot>
1.8870

> <Gold.Chemscore.Internal.Correction>
   9.000000E+99

> <Gold.Chemscore.Hbonds>
donor molecule, donor type, donor heavy atom, donor atom, acceptor molecule, acceptor atom, score
      P1  H  6896  6907       L1    10  0.16
      P1  H  6934  6947       L1    18  0.47

> <Gold.Chemscore.Hbond.Weighted>
-6.5265

> <Gold.Chemscore.Metal.Weighted>
-0.0000

> <Gold.Chemscore.Lipo.Weighted>
-12.9916

> <Gold.Chemscore.Internal_Hbond.Weighted>
0.0000

> <Gold.Chemscore.DEClash.Weighted>
0.0770

> <Gold.Chemscore.DEInternal.Weighted>
2.5735

> <Gold.Chemscore.Rot.Weighted>
4.8308

> <Gold.Chemscore.Internal.Correction.Weighted>
   9.000000E+99

> <Gold.Protein.RotatedTorsions>
[ 6907 6896 6895 6894 ] final  -64.04 input  -60.11 | X-H torsion
[ 7974 7965 7964 7962 ] final -163.30 input  175.53 | X-H torsion
[ 8008 7997 7996 7995 ] final  173.73 input   59.86 | X-H torsion
[ 10167 10162 10161 10158 ] final -131.77 input  -65.29 | X-H torsion
[ 10718 10713 10712 10709 ] final   53.88 input   66.30 | X-H torsion
[ 10763 10752 10751 10750 ] final  154.43 input  -60.55 | X-H torsion
[ 11005 11000 10999 10996 ] final  148.14 input  -57.11 | X-H torsion

> <Gold.Protein.ActiveResidues>
 VAL166  LYS551  ARG553  GLY616  TRP617  ASP618  TYR619  PRO620  LYS621  CYS622 
 ASP623  PHE694  ASN695  SER759  ASP760  ASP761  ALA762  ILE779  LEU786  VAL792 
 PHE793  MET794  SER795  GLU796  ALA797  LYS798  CYS799  TRP800  GLU811  SER814 

> <Gold.Protein.RotatedAtoms>
  150.7610  134.6352  159.6207 H   0  0  0  0  0  0  0  0  0  0  0  0  # atno 6907 bound_to 6896
  152.3617  134.6859  160.0214 H   0  0  0  0  0  0  0  0  0  0  0  0  # atno 6908 bound_to 6896
  151.7246  133.3279  159.3361 H   0  0  0  0  0  0  0  0  0  0  0  0  # atno 6909 bound_to 6896
  144.7330  140.3128  143.6185 H   0  0  0  0  0  0  0  0  0  0  0  0  # atno 7974 bound_to 7965
  156.1046  140.1452  156.9421 H   0  0  0  0  0  0  0  0  0  0  0  0  # atno 8008 bound_to 7997
  154.4725  140.0905  156.7225 H   0  0  0  0  0  0  0  0  0  0  0  0  # atno 8009 bound_to 7997
  155.4701  140.3441  155.4327 H   0  0  0  0  0  0  0  0  0  0  0  0  # atno 8010 bound_to 7997
  139.9155  143.6444  152.2566 H   0  0  0  0  0  0  0  0  0  0  0  0  # atno 10167 bound_to 10162
  157.5207  130.8563  149.8555 H   0  0  0  0  0  0  0  0  0  0  0  0  # atno 10718 bound_to 10713
  154.1522  135.2814  155.3132 H   0  0  0  0  0  0  0  0  0  0  0  0  # atno 10763 bound_to 10752
  154.6209  135.5467  153.7578 H   0  0  0  0  0  0  0  0  0  0  0  0  # atno 10764 bound_to 10752
  153.0217  135.6439  154.1665 H   0  0  0  0  0  0  0  0  0  0  0  0  # atno 10765 bound_to 10752
  140.0934  134.9027  157.1686 H   0  0  0  0  0  0  0  0  0  0  0  0  # atno 11005 bound_to 11000
  145.7648  139.1837  143.2246 LP  0  0  0  0  0  0  0  0  0  0  0  0  # atno 17320 bound_to 7965
  146.0958  140.7602  142.9573 LP  0  0  0  0  0  0  0  0  0  0  0  0  # atno 17321 bound_to 7965
  139.6906  144.7647  151.1445 LP  0  0  0  0  0  0  0  0  0  0  0  0  # atno 17342 bound_to 10162
  140.7675  143.5594  150.9115 LP  0  0  0  0  0  0  0  0  0  0  0  0  # atno 17343 bound_to 10162
  156.0351  130.3753  150.1582 LP  0  0  0  0  0  0  0  0  0  0  0  0  # atno 17370 bound_to 10713
  156.9769  130.9852  151.3446 LP  0  0  0  0  0  0  0  0  0  0  0  0  # atno 17371 bound_to 10713
  140.3320  134.2799  155.7226 LP  0  0  0  0  0  0  0  0  0  0  0  0  # atno 17394 bound_to 11000
  141.2085  133.7776  157.0056 LP  0  0  0  0  0  0  0  0  0  0  0  0  # atno 17395 bound_to 11000

$$$$
