AV-unprocessed.smi:113|AV-procd|sdf|1097|dock1
  -GOLD-   2262018203D 1   1.00000     0.00000
 Structure written by MMmdl.
 52 55  0  0  0  0  0  0  0  0  1 V2000
  151.3624  137.6616  158.3043 C   0  0  0  0  0  0  0  0  0  0  0  0
  151.3908  139.1652  158.1262 C   0  0  0  0  0  0  0  0  0  0  0  0
  150.7505  139.7725  157.0314 C   0  0  0  0  0  0  0  0  0  0  0  0
  150.8021  141.1791  156.9001 C   0  0  0  0  0  0  0  0  0  0  0  0
  150.1188  141.8917  155.7275 C   0  0  0  0  0  0  0  0  0  0  0  0
  148.7818  141.4385  155.3703 N   0  0  0  0  0  0  0  0  0  0  0  0
  148.5958  140.8836  154.0807 C   0  0  0  0  0  0  0  0  0  0  0  0
  149.5263  140.7920  153.2770 O   0  0  0  0  0  0  0  0  0  0  0  0
  147.2376  140.4158  153.7946 C   0  0  0  0  0  0  0  0  0  0  0  0
  146.9638  139.8029  152.4301 C   0  0  0  0  0  0  0  0  0  0  0  0
  146.2734  140.5306  154.7395 C   0  0  0  0  0  0  0  0  0  0  0  0
  146.4802  141.0826  155.9912 N   0  0  0  0  0  0  0  0  0  0  0  0
  145.3499  141.1017  156.9964 C   0  0  2  0  0  0  0  0  0  0  0  0
  144.8548  139.7010  157.3983 C   0  0  0  0  0  0  0  0  0  0  0  0
  143.3400  139.8072  157.2526 C   0  0  2  0  0  0  0  0  0  0  0  0
  142.8934  139.0269  156.1598 O   0  0  0  0  0  0  0  0  0  0  0  0
  143.0885  141.3136  157.0560 C   0  0  2  0  0  0  0  0  0  0  0  0
  141.8473  141.7211  156.2421 C   0  0  0  0  0  0  0  0  0  0  0  0
  141.8824  141.1286  154.9607 O   0  0  0  0  0  0  0  0  0  0  0  0
  144.2746  141.7855  156.4373 O   0  0  0  0  0  0  0  0  0  0  0  0
  147.7699  141.5312  156.3521 C   0  0  0  0  0  0  0  0  0  0  0  0
  148.0023  141.9648  157.4824 O   0  0  0  0  0  0  0  0  0  0  0  0
  151.5054  141.9144  157.8927 C   0  0  0  0  0  0  0  0  0  0  0  0
  151.6019  143.3261  157.8383 C   0  0  0  0  0  0  0  0  0  0  0  0
  152.3039  144.0349  158.8297 C   0  0  0  0  0  0  0  0  0  0  0  0
  152.9162  143.3406  159.8861 C   0  0  0  0  0  0  0  0  0  0  0  0
  152.8247  141.9386  159.9479 C   0  0  0  0  0  0  0  0  0  0  0  0
  152.1252  141.2065  158.9645 C   0  0  0  0  0  0  0  0  0  0  0  0
  152.0616  139.8605  159.0651 N   0  0  0  0  0  0  0  0  0  0  0  0
  150.5587  137.2120  157.7204 H   0  0  0  0  0  0  0  0  0  0  0  0
  151.2055  137.3988  159.3512 H   0  0  0  0  0  0  0  0  0  0  0  0
  152.3072  137.2263  157.9781 H   0  0  0  0  0  0  0  0  0  0  0  0
  150.2310  139.1561  156.3133 H   0  0  0  0  0  0  0  0  0  0  0  0
  150.0585  142.9632  155.9242 H   0  0  0  0  0  0  0  0  0  0  0  0
  150.7340  141.8175  154.8294 H   0  0  0  0  0  0  0  0  0  0  0  0
  145.9200  139.5081  152.3189 H   0  0  0  0  0  0  0  0  0  0  0  0
  147.5792  138.9148  152.2815 H   0  0  0  0  0  0  0  0  0  0  0  0
  147.1945  140.5162  151.6379 H   0  0  0  0  0  0  0  0  0  0  0  0
  145.2842  140.1692  154.4969 H   0  0  0  0  0  0  0  0  0  0  0  0
  145.7114  141.6634  157.8585 H   0  0  0  0  0  0  0  0  0  0  0  0
  145.2915  138.9149  156.7810 H   0  0  0  0  0  0  0  0  0  0  0  0
  145.1448  139.5142  158.4326 H   0  0  0  0  0  0  0  0  0  0  0  0
  142.8308  139.4455  158.1466 H   0  0  0  0  0  0  0  0  0  0  0  0
  141.9535  138.9443  156.2092 H   0  0  0  0  0  0  0  0  0  0  0  0
  143.0409  141.7894  158.0376 H   0  0  0  0  0  0  0  0  0  0  0  0
  140.9457  141.3761  156.7489 H   0  0  0  0  0  0  0  0  0  0  0  0
  141.7607  142.8039  156.1506 H   0  0  0  0  0  0  0  0  0  0  0  0
  142.1595  141.7787  154.3335 H   0  0  0  0  0  0  0  0  0  0  0  0
  151.1425  143.8905  157.0414 H   0  0  0  0  0  0  0  0  0  0  0  0
  152.3717  145.1117  158.7788 H   0  0  0  0  0  0  0  0  0  0  0  0
  153.4554  143.8823  160.6494 H   0  0  0  0  0  0  0  0  0  0  0  0
  153.2995  141.4157  160.7653 H   0  0  0  0  0  0  0  0  0  0  0  0
  1  2  1  0  0  0  0
  1 30  1  0  0  0  0
  1 31  1  0  0  0  0
  1 32  1  0  0  0  0
  2 29  1  0  0  0  0
  2  3  2  0  0  0  0
  3  4  1  0  0  0  0
  3 33  1  0  0  0  0
  4  5  1  0  0  0  0
  4 23  2  0  0  0  0
  5  6  1  0  0  0  0
  5 34  1  0  0  0  0
  5 35  1  0  0  0  0
  6 21  1  0  0  0  0
  6  7  1  0  0  0  0
  7  8  2  0  0  0  0
  7  9  1  0  0  0  0
  9 10  1  0  0  0  0
  9 11  2  0  0  0  0
 10 36  1  0  0  0  0
 10 37  1  0  0  0  0
 10 38  1  0  0  0  0
 11 12  1  0  0  0  0
 11 39  1  0  0  0  0
 12 13  1  0  0  0  0
 12 21  1  0  0  0  0
 13 20  1  0  0  0  0
 13 14  1  0  0  0  0
 13 40  1  0  0  0  0
 14 15  1  0  0  0  0
 14 41  1  0  0  0  0
 14 42  1  0  0  0  0
 15 16  1  0  0  0  0
 15 17  1  0  0  0  0
 15 43  1  0  0  0  0
 16 44  1  0  0  0  0
 17 18  1  0  0  0  0
 17 20  1  0  0  0  0
 17 45  1  0  0  0  0
 18 19  1  0  0  0  0
 18 46  1  0  0  0  0
 18 47  1  0  0  0  0
 19 48  1  0  0  0  0
 21 22  2  0  0  0  0
 23 28  1  0  0  0  0
 23 24  1  0  0  0  0
 24 25  2  0  0  0  0
 24 49  1  0  0  0  0
 25 26  1  0  0  0  0
 25 50  1  0  0  0  0
 26 27  2  0  0  0  0
 26 51  1  0  0  0  0
 27 28  1  0  0  0  0
 27 52  1  0  0  0  0
 28 29  2  0  0  0  0
M  END
> <s_m_source_file>
AV-unprocessed.smi

> <i_m_source_file_index>
113

> <i_lp_mmshare_version>
43012

> <i_f3d_flags>
0

> <s_epik_input>
W2NIXTFbY0hdW2NIXVtjSF1jKGMxMiluYyhbQ0gzXSlbY0hdYzJbQ0gyXW4zYyg9TyljKFtDSDNdKVtjSF1uKGMzPU8pW0NAQEhdNFtDSDJdW0NAQEhdKFtPSF0pW0NASF0oTzQpW0NIMl1bT0hd

> <s_epik_cmdline>
J2VwaWtfcHl0aG9uJywgJy1waCcsICc3LjAnLCAnLXRuJywgJzgnLCAnLW1hJywgJzIwMCcsICctbWV0YWxfYmluZGluZycsICctaW1hZScsICc8aW5maWxlLm1hZT4nLCAnLW9tYWUnLCAnPG91dGZpbGUubWFlPic=

> <r_lp_tautomer_probability>
1

> <r_epik_Ionization_Penalty>
0.214728

> <r_epik_Ionization_Penalty_Charging>
3.04883e-08

> <r_epik_Ionization_Penalty_Neutral>
0.214728

> <r_epik_State_Penalty>
0.204913

> <r_epik_Charging_Adjusted_Penalty>
0.204913

> <i_epik_Tot_Q>
0

> <i_epik_Tot_abs_Q>
0

> <r_epik_Metal_State_Penalty>
0.000244761

> <b_epik_Metal_Only>
0

> <s_epik_Chemistry_Notes>
This compound contains an acetal/aminal-like group ( X-CH(R)-Y where X, Y are N, S, or O) that may be acid/base labile, releasing an aldehyde.

> <s_lp_Force_Field>
OPLS_2005

> <r_lp_Energy>
37.3201

> <b_lp_Chiralities_Consistent>
1

> <s_lp_Variant>
AV-unprocessed.smi:113-7

> <Gold.Version>
5.8.1

> <Gold.Id.Protein>
6NUR|6NUR_protein|mol2

> <Gold.PLP.Fitness>
47.8638

> <Gold.PLP.PLP>
-38.4732

> <Gold.PLP.part.hbond>
-4.0000

> <Gold.PLP.part.metal>
0.0000

> <Gold.PLP.part.buried>
-1.7066

> <Gold.PLP.part.nonpolar>
-38.4153

> <Gold.PLP.part.repulsive>
6.0190

> <Gold.PLP.ligand.clash>
0.0000

> <Gold.PLP.ligand.torsion>
0.2753

> <Gold.PLP.Chemscore.Hbond>
2.3221

> <Gold.PLP.Chemscore.CHOScore>
0.9776

> <Gold.PLP.Chemscore.Metal>
0.0000

> <Gold.Chemscore.Hbonds>
donor molecule, donor type, donor heavy atom, donor atom, acceptor molecule, acceptor atom, score
      L1  H    19    48       P1 10174  0.20
      P1  H  7989  7998       L1     8  0.22
      P1  H  8011  8017       L1     8  1.00
      L1  C    11    39       P1 10175  0.85

> <Gold.PLP.Chemscore.Internal.Correction>
0.0419

> <Gold.Rescore>
     Score         DG    S(hbond)    S(metal)    S(lipo)     H(rot)  DE(clash)    DE(int)     intcor
     12.06     -14.93       1.38        0.00     105.80       2.95       2.43       0.44       ----

> <Gold.Chemscore.Fitness>
12.0611

> <Gold.Chemscore.DG>
-14.9319

> <Gold.Chemscore.ZeroCoef>
-5.4800

> <Gold.Chemscore.Hbond>
1.3824

> <Gold.Chemscore.Metal>
0.0000

> <Gold.Chemscore.Lipo>
105.8010

> <Gold.Chemscore.Internal_Hbond>
0.0000

> <Gold.Chemscore.DEClash>
2.4345

> <Gold.Chemscore.DEInternal>
0.4363

> <Gold.Chemscore.Rot>
2.9469

> <Gold.Chemscore.Internal.Correction>
   9.000000E+99

> <Gold.Chemscore.Hbonds>
donor molecule, donor type, donor heavy atom, donor atom, acceptor molecule, acceptor atom, score
      L1  H    19    48       P1 10174  0.05
      P1  H  7989  7998       L1     8  0.22
      P1  H  8011  8017       L1     8  0.82

> <Gold.Chemscore.Hbond.Weighted>
-4.6171

> <Gold.Chemscore.Metal.Weighted>
-0.0000

> <Gold.Chemscore.Lipo.Weighted>
-12.3787

> <Gold.Chemscore.Internal_Hbond.Weighted>
0.0000

> <Gold.Chemscore.DEClash.Weighted>
2.4345

> <Gold.Chemscore.DEInternal.Weighted>
0.4363

> <Gold.Chemscore.Rot.Weighted>
7.5439

> <Gold.Chemscore.Internal.Correction.Weighted>
   9.000000E+99

> <Gold.Protein.RotatedTorsions>
[ 6907 6896 6895 6894 ] final  -55.59 input  -60.11 | X-H torsion
[ 7974 7965 7964 7962 ] final   18.89 input  175.53 | X-H torsion
[ 8008 7997 7996 7995 ] final  126.25 input   59.86 | X-H torsion
[ 10167 10162 10161 10158 ] final   81.91 input  -65.29 | X-H torsion
[ 10718 10713 10712 10709 ] final   96.62 input   66.30 | X-H torsion
[ 10763 10752 10751 10750 ] final   73.71 input  -60.55 | X-H torsion
[ 11005 11000 10999 10996 ] final  105.26 input  -57.11 | X-H torsion

> <Gold.Protein.ActiveResidues>
 VAL166  LYS551  ARG553  GLY616  TRP617  ASP618  TYR619  PRO620  LYS621  CYS622 
 ASP623  PHE694  ASN695  SER759  ASP760  ASP761  ALA762  ILE779  LEU786  VAL792 
 PHE793  MET794  SER795  GLU796  ALA797  LYS798  CYS799  TRP800  GLU811  SER814 

> <Gold.Protein.RotatedAtoms>
  150.8239  134.7460  159.6795 H   0  0  0  0  0  0  0  0  0  0  0  0  # atno 6907 bound_to 6896
  152.4352  134.5697  159.9927 H   0  0  0  0  0  0  0  0  0  0  0  0  # atno 6908 bound_to 6896
  151.5874  133.3333  159.3057 H   0  0  0  0  0  0  0  0  0  0  0  0  # atno 6909 bound_to 6896
  146.2169  139.8392  142.8644 H   0  0  0  0  0  0  0  0  0  0  0  0  # atno 7974 bound_to 7965
  156.2858  140.2697  156.2080 H   0  0  0  0  0  0  0  0  0  0  0  0  # atno 8008 bound_to 7997
  155.0293  140.0386  157.2486 H   0  0  0  0  0  0  0  0  0  0  0  0  # atno 8009 bound_to 7997
  154.7368  140.2717  155.6413 H   0  0  0  0  0  0  0  0  0  0  0  0  # atno 8010 bound_to 7997
  139.9343  144.6131  150.8314 H   0  0  0  0  0  0  0  0  0  0  0  0  # atno 10167 bound_to 10162
  157.6924  131.0584  150.4520 H   0  0  0  0  0  0  0  0  0  0  0  0  # atno 10718 bound_to 10713
  153.0539  135.5052  154.7934 H   0  0  0  0  0  0  0  0  0  0  0  0  # atno 10763 bound_to 10752
  154.6775  135.2963  154.9660 H   0  0  0  0  0  0  0  0  0  0  0  0  # atno 10764 bound_to 10752
  154.0458  135.6711  153.4847 H   0  0  0  0  0  0  0  0  0  0  0  0  # atno 10765 bound_to 10752
  139.8800  134.9329  156.5486 H   0  0  0  0  0  0  0  0  0  0  0  0  # atno 11005 bound_to 11000
  145.2917  141.0169  143.3659 LP  0  0  0  0  0  0  0  0  0  0  0  0  # atno 17320 bound_to 7965
  144.9072  139.4574  143.6604 LP  0  0  0  0  0  0  0  0  0  0  0  0  # atno 17321 bound_to 7965
  140.7629  143.3209  151.2625 LP  0  0  0  0  0  0  0  0  0  0  0  0  # atno 17342 bound_to 10162
  139.6756  143.9943  152.2779 LP  0  0  0  0  0  0  0  0  0  0  0  0  # atno 17343 bound_to 10162
  156.4870  130.4086  149.6428 LP  0  0  0  0  0  0  0  0  0  0  0  0  # atno 17370 bound_to 10713
  156.3453  130.7403  151.2355 LP  0  0  0  0  0  0  0  0  0  0  0  0  # atno 17371 bound_to 10713
  140.8257  133.8319  155.8936 LP  0  0  0  0  0  0  0  0  0  0  0  0  # atno 17394 bound_to 11000
  140.9377  134.1941  157.4820 LP  0  0  0  0  0  0  0  0  0  0  0  0  # atno 17395 bound_to 11000

$$$$
