AV-unprocessed.smi:2278|AV-procd|sdf|9181|dock1
  -GOLD-   2272012393D 1   1.00000     0.00000
 Structure written by MMmdl.
 46 47  0  0  0  0  0  0  0  0  2 V2000
  151.9004  144.6968  160.4504 C   0  0  0  0  0  0  0  0  0  0  0  0
  151.8341  143.6215  159.3805 C   0  0  0  0  0  0  0  0  0  0  0  0
  151.0965  143.9494  158.2394 N   0  0  0  0  0  0  0  0  0  0  0  0
  150.9893  143.0965  157.2740 C   0  0  0  0  0  0  0  0  0  0  0  0
  151.6011  141.8328  157.3323 N   0  0  0  0  0  0  0  0  0  0  0  0
  151.4058  140.9637  156.1580 C   0  0  0  0  0  0  0  0  0  0  0  0
  149.9410  140.4975  155.9952 C   0  0  2  0  0  0  0  0  0  0  0  0
  149.9345  139.0846  156.0360 O   0  0  0  0  0  0  0  0  0  0  0  0
  149.2900  140.9505  154.6695 C   0  0  0  0  0  0  0  0  0  0  0  0
  148.1976  141.9358  154.8744 N   0  3  2  0  0  0  0  0  0  0  0  0
  147.4856  141.7255  156.1608 C   0  0  0  0  0  0  0  0  0  0  0  0
  146.4546  142.8397  156.4168 C   0  0  0  0  0  0  0  0  0  0  0  0
  145.4497  142.9831  155.2589 C   0  0  2  0  0  0  0  0  0  0  0  0
  144.4125  141.8466  155.2244 C   0  0  0  0  0  0  0  0  0  0  0  0
  146.2168  143.1291  153.9323 C   0  0  0  0  0  0  0  0  0  0  0  0
  147.2500  142.0066  153.7304 C   0  0  0  0  0  0  0  0  0  0  0  0
  152.3306  141.4300  158.4131 C   0  0  0  0  0  0  0  0  0  0  0  0
  152.8637  140.3197  158.4566 O   0  0  0  0  0  0  0  0  0  0  0  0
  152.4463  142.4123  159.5029 C   0  0  0  0  0  0  0  0  0  0  0  0
  153.2675  142.0016  160.7188 C   0  0  0  0  0  0  0  0  0  0  0  0
  151.4900  144.3264  161.3902 H   0  0  0  0  0  0  0  0  0  0  0  0
  151.3288  145.5803  160.1627 H   0  0  0  0  0  0  0  0  0  0  0  0
  152.9324  145.0060  160.6179 H   0  0  0  0  0  0  0  0  0  0  0  0
  150.4270  143.3032  156.3616 H   0  0  0  0  0  0  0  0  0  0  0  0
  151.7433  141.4518  155.2417 H   0  0  0  0  0  0  0  0  0  0  0  0
  152.0565  140.0914  156.2510 H   0  0  0  0  0  0  0  0  0  0  0  0
  149.3635  140.8503  156.8489 H   0  0  0  0  0  0  0  0  0  0  0  0
  149.3425  138.7650  155.3715 H   0  0  0  0  0  0  0  0  0  0  0  0
  150.0272  141.3911  153.9983 H   0  0  0  0  0  0  0  0  0  0  0  0
  148.9038  140.0674  154.1578 H   0  0  0  0  0  0  0  0  0  0  0  0
  147.0026  140.7473  156.1583 H   0  0  0  0  0  0  0  0  0  0  0  0
  148.2053  141.7168  156.9803 H   0  0  0  0  0  0  0  0  0  0  0  0
  145.9284  142.6558  157.3541 H   0  0  0  0  0  0  0  0  0  0  0  0
  146.9835  143.7849  156.5484 H   0  0  0  0  0  0  0  0  0  0  0  0
  144.8906  143.9057  155.4201 H   0  0  0  0  0  0  0  0  0  0  0  0
  144.8741  140.8712  155.0728 H   0  0  0  0  0  0  0  0  0  0  0  0
  143.6942  141.9989  154.4184 H   0  0  0  0  0  0  0  0  0  0  0  0
  143.8503  141.8032  156.1573 H   0  0  0  0  0  0  0  0  0  0  0  0
  145.5205  143.1523  153.0932 H   0  0  0  0  0  0  0  0  0  0  0  0
  146.7331  144.0901  153.9221 H   0  0  0  0  0  0  0  0  0  0  0  0
  147.7885  142.1920  152.8021 H   0  0  0  0  0  0  0  0  0  0  0  0
  146.7484  141.0454  153.6094 H   0  0  0  0  0  0  0  0  0  0  0  0
  154.2906  141.7716  160.4202 H   0  0  0  0  0  0  0  0  0  0  0  0
  152.8401  141.1091  161.1771 H   0  0  0  0  0  0  0  0  0  0  0  0
  153.3161  142.7730  161.4857 H   0  0  0  0  0  0  0  0  0  0  0  0
  148.6455  142.8386  154.9470 H   0  0  0  0  0  0  0  0  0  0  0  0
  1  2  1  0  0  0  0
  1 21  1  0  0  0  0
  1 22  1  0  0  0  0
  1 23  1  0  0  0  0
  2 19  2  0  0  0  0
  2  3  1  0  0  0  0
  3  4  2  0  0  0  0
  4  5  1  0  0  0  0
  4 24  1  0  0  0  0
  5  6  1  0  0  0  0
  5 17  1  0  0  0  0
  6  7  1  0  0  0  0
  6 25  1  0  0  0  0
  6 26  1  0  0  0  0
  7  8  1  0  0  0  0
  7  9  1  0  0  0  0
  7 27  1  0  0  0  0
  8 28  1  0  0  0  0
  9 10  1  0  0  0  0
  9 29  1  0  0  0  0
  9 30  1  0  0  0  0
 10 16  1  0  0  0  0
 10 11  1  0  0  0  0
 10 46  1  0  0  0  0
 11 12  1  0  0  0  0
 11 31  1  0  0  0  0
 11 32  1  0  0  0  0
 12 13  1  0  0  0  0
 12 33  1  0  0  0  0
 12 34  1  0  0  0  0
 13 14  1  0  0  0  0
 13 15  1  0  0  0  0
 13 35  1  0  0  0  0
 14 36  1  0  0  0  0
 14 37  1  0  0  0  0
 14 38  1  0  0  0  0
 15 16  1  0  0  0  0
 15 39  1  0  0  0  0
 15 40  1  0  0  0  0
 16 41  1  0  0  0  0
 16 42  1  0  0  0  0
 17 18  2  0  0  0  0
 17 19  1  0  0  0  0
 19 20  1  0  0  0  0
 20 43  1  0  0  0  0
 20 44  1  0  0  0  0
 20 45  1  0  0  0  0
M  CHG  1  10   1
M  END
> <s_m_source_file>
AV-unprocessed.smi

> <i_m_source_file_index>
2278

> <i_lp_mmshare_version>
43012

> <i_f3d_flags>
0

> <s_epik_input>
W0NIM11jMW5bY0hdbihjKD1PKWMxW0NIM10pW0NIMl1bQ0BIXShbT0hdKVtDSDJdTjJbQ0gyXVtDSDJdW0NIXShbQ0gzXSlbQ0gyXVtDSDJdMg==

> <s_epik_cmdline>
J2VwaWtfcHl0aG9uJywgJy1waCcsICc3LjAnLCAnLXRuJywgJzgnLCAnLW1hJywgJzIwMCcsICctbWV0YWxfYmluZGluZycsICctaW1hZScsICc8aW5maWxlLm1hZT4nLCAnLW9tYWUnLCAnPG91dGZpbGUubWFlPic=

> <r_lp_tautomer_probability>
1

> <r_epik_Ionization_Penalty>
0.00139489

> <r_epik_Ionization_Penalty_Charging>
0.00136819

> <r_epik_Ionization_Penalty_Neutral>
2.66975e-05

> <r_epik_State_Penalty>
0.000910892

> <r_epik_Charging_Adjusted_Penalty>
0.00227908

> <i_epik_Tot_Q>
1

> <i_epik_Tot_abs_Q>
1

> <r_epik_Metal_State_Penalty>
-0

> <b_epik_Metal_Only>
0

> <s_lp_Force_Field>
OPLS_2005

> <r_lp_Energy>
30.3115

> <b_lp_Chiralities_Consistent>
1

> <s_lp_Variant>
AV-unprocessed.smi:2278-3

> <Gold.Version>
5.8.1

> <Gold.Id.Protein>
6NUR|6NUR_protein|mol2

> <Gold.PLP.Fitness>
48.4131

> <Gold.PLP.PLP>
-39.9584

> <Gold.PLP.part.hbond>
-2.0000

> <Gold.PLP.part.metal>
0.0000

> <Gold.PLP.part.buried>
-6.4688

> <Gold.PLP.part.nonpolar>
-31.4919

> <Gold.PLP.part.repulsive>
0.2278

> <Gold.PLP.ligand.clash>
0.0000

> <Gold.PLP.ligand.torsion>
1.8045

> <Gold.PLP.Chemscore.Hbond>
3.0000

> <Gold.PLP.Chemscore.CHOScore>
1.0000

> <Gold.PLP.Chemscore.Metal>
0.0000

> <Gold.Chemscore.Hbonds>
donor molecule, donor type, donor heavy atom, donor atom, acceptor molecule, acceptor atom, score
      L1  H    10    46       P1  8028  2.00
      P1  H  7997  8010       L1    18  0.40
      L1  C     4    24       P1  8028  1.00

> <Gold.PLP.Chemscore.Internal.Correction>
0.0636

> <Gold.Rescore>
     Score         DG    S(hbond)    S(metal)    S(lipo)     H(rot)  DE(clash)    DE(int)     intcor
     14.27     -16.05       1.93        0.00      83.40       2.20       0.04       1.75       ----

> <Gold.Chemscore.Fitness>
14.2653

> <Gold.Chemscore.DG>
-16.0517

> <Gold.Chemscore.ZeroCoef>
-5.4800

> <Gold.Chemscore.Hbond>
1.9289

> <Gold.Chemscore.Metal>
0.0000

> <Gold.Chemscore.Lipo>
83.3986

> <Gold.Chemscore.Internal_Hbond>
0.0000

> <Gold.Chemscore.DEClash>
0.0409

> <Gold.Chemscore.DEInternal>
1.7456

> <Gold.Chemscore.Rot>
2.1986

> <Gold.Chemscore.Internal.Correction>
   9.000000E+99

> <Gold.Chemscore.Hbonds>
donor molecule, donor type, donor heavy atom, donor atom, acceptor molecule, acceptor atom, score
      L1  H    10    46       P1  8028  0.93
      P1  H  7997  8010       L1    18  0.35

> <Gold.Chemscore.Hbond.Weighted>
-6.4426

> <Gold.Chemscore.Metal.Weighted>
-0.0000

> <Gold.Chemscore.Lipo.Weighted>
-9.7576

> <Gold.Chemscore.Internal_Hbond.Weighted>
0.0000

> <Gold.Chemscore.DEClash.Weighted>
0.0409

> <Gold.Chemscore.DEInternal.Weighted>
1.7456

> <Gold.Chemscore.Rot.Weighted>
5.6285

> <Gold.Chemscore.Internal.Correction.Weighted>
   9.000000E+99

> <Gold.Protein.RotatedTorsions>
[ 6907 6896 6895 6894 ] final -121.80 input  -60.11 | X-H torsion
[ 7974 7965 7964 7962 ] final   39.99 input  175.53 | X-H torsion
[ 8008 7997 7996 7995 ] final   32.97 input   59.86 | X-H torsion
[ 10167 10162 10161 10158 ] final -147.05 input  -65.29 | X-H torsion
[ 10718 10713 10712 10709 ] final   52.02 input   66.30 | X-H torsion
[ 10763 10752 10751 10750 ] final  -78.13 input  -60.55 | X-H torsion
[ 11005 11000 10999 10996 ] final  -13.87 input  -57.11 | X-H torsion

> <Gold.Protein.ActiveResidues>
 VAL166  LYS551  ARG553  GLY616  TRP617  ASP618  TYR619  PRO620  LYS621  CYS622 
 ASP623  PHE694  ASN695  SER759  ASP760  ASP761  ALA762  ILE779  LEU786  VAL792 
 PHE793  MET794  SER795  GLU796  ALA797  LYS798  CYS799  TRP800  GLU811  SER814 

> <Gold.Protein.RotatedAtoms>
  150.8516  133.7778  159.3023 H   0  0  0  0  0  0  0  0  0  0  0  0  # atno 6907 bound_to 6896
  151.5448  135.1066  159.9945 H   0  0  0  0  0  0  0  0  0  0  0  0  # atno 6908 bound_to 6896
  152.4557  133.7676  159.6837 H   0  0  0  0  0  0  0  0  0  0  0  0  # atno 6909 bound_to 6896
  146.0941  139.5586  142.9457 H   0  0  0  0  0  0  0  0  0  0  0  0  # atno 7974 bound_to 7965
  155.1311  140.3257  155.4474 H   0  0  0  0  0  0  0  0  0  0  0  0  # atno 8008 bound_to 7997
  156.2634  140.2010  156.6379 H   0  0  0  0  0  0  0  0  0  0  0  0  # atno 8009 bound_to 7997
  154.6612  140.0547  157.0051 H   0  0  0  0  0  0  0  0  0  0  0  0  # atno 8010 bound_to 7997
  139.7658  143.8310  152.2615 H   0  0  0  0  0  0  0  0  0  0  0  0  # atno 10167 bound_to 10162
  157.5036  130.8454  149.8347 H   0  0  0  0  0  0  0  0  0  0  0  0  # atno 10718 bound_to 10713
  154.5219  135.5740  153.6687 H   0  0  0  0  0  0  0  0  0  0  0  0  # atno 10763 bound_to 10752
  152.9919  135.6183  154.2744 H   0  0  0  0  0  0  0  0  0  0  0  0  # atno 10764 bound_to 10752
  154.2665  135.2854  155.2736 H   0  0  0  0  0  0  0  0  0  0  0  0  # atno 10765 bound_to 10752
  140.7806  133.8366  155.9288 H   0  0  0  0  0  0  0  0  0  0  0  0  # atno 11005 bound_to 11000
  145.5983  141.0359  143.2032 LP  0  0  0  0  0  0  0  0  0  0  0  0  # atno 17320 bound_to 7965
  144.7382  139.7525  143.7321 LP  0  0  0  0  0  0  0  0  0  0  0  0  # atno 17321 bound_to 7965
  139.8330  144.7245  150.9426 LP  0  0  0  0  0  0  0  0  0  0  0  0  # atno 17342 bound_to 10162
  140.7810  143.4052  151.1082 LP  0  0  0  0  0  0  0  0  0  0  0  0  # atno 17343 bound_to 10162
  156.0244  130.3784  150.1866 LP  0  0  0  0  0  0  0  0  0  0  0  0  # atno 17370 bound_to 10713
  157.0056  130.9935  151.3379 LP  0  0  0  0  0  0  0  0  0  0  0  0  # atno 17371 bound_to 10713
  140.9486  134.1808  157.4745 LP  0  0  0  0  0  0  0  0  0  0  0  0  # atno 17394 bound_to 11000
  139.8743  134.9900  156.5484 LP  0  0  0  0  0  0  0  0  0  0  0  0  # atno 17395 bound_to 11000

$$$$
