AV-unprocessed.smi:41|AV-procd|sdf|384|dock9
  -GOLD-   2262016243D 1   1.00000     0.00000
 Structure written by MMmdl.
 26 27  0  0  0  0  0  0  0  0  1 V2000
  150.3089  139.1523  154.6635 N   0  0  0  0  0  0  0  0  0  0  0  0
  150.7256  140.0340  155.5836 C   0  0  0  0  0  0  0  0  0  0  0  0
  151.6778  139.6806  156.4246 N   0  0  0  0  0  0  0  0  0  0  0  0
  152.1664  140.5100  157.4000 C   0  0  0  0  0  0  0  0  0  0  0  0
  153.0394  140.1144  158.1714 O   0  0  0  0  0  0  0  0  0  0  0  0
  151.6311  141.8215  157.4757 N   0  0  0  0  0  0  0  0  0  0  0  0
  152.0447  142.7339  158.5393 C   0  0  1  0  0  0  0  0  0  0  0  0
  152.4866  144.1289  158.0480 C   0  0  0  0  0  0  0  0  0  0  0  0
  152.2060  145.2671  159.4151 S   0  0  0  0  0  0  0  0  0  0  0  0
  151.3113  143.9773  160.3121 C   0  0  2  0  0  0  0  0  0  0  0  0
  152.1038  143.4563  161.5260 C   0  0  0  0  0  0  0  0  0  0  0  0
  152.1536  144.4374  162.5406 O   0  0  0  0  0  0  0  0  0  0  0  0
  150.9931  142.9051  159.4371 O   0  0  0  0  0  0  0  0  0  0  0  0
  150.6055  142.1885  156.6125 C   0  0  0  0  0  0  0  0  0  0  0  0
  150.1360  141.3504  155.6635 C   0  0  0  0  0  0  0  0  0  0  0  0
  149.1493  141.7274  154.8321 F   0  0  0  0  0  0  0  0  0  0  0  0
  152.8703  142.2936  159.0994 H   0  0  0  0  0  0  0  0  0  0  0  0
  150.3665  144.3940  160.6629 H   0  0  0  0  0  0  0  0  0  0  0  0
  149.5753  139.4076  154.0176 H   0  0  0  0  0  0  0  0  0  0  0  0
  150.7272  138.2342  154.6197 H   0  0  0  0  0  0  0  0  0  0  0  0
  153.5350  144.1075  157.7494 H   0  0  0  0  0  0  0  0  0  0  0  0
  151.8978  144.4732  157.2008 H   0  0  0  0  0  0  0  0  0  0  0  0
  151.6194  142.5699  161.9367 H   0  0  0  0  0  0  0  0  0  0  0  0
  153.1194  143.1714  161.2502 H   0  0  0  0  0  0  0  0  0  0  0  0
  152.8797  145.0159  162.3641 H   0  0  0  0  0  0  0  0  0  0  0  0
  150.1437  143.1613  156.6916 H   0  0  0  0  0  0  0  0  0  0  0  0
  1  2  1  0  0  0  0
  1 19  1  0  0  0  0
  1 20  1  0  0  0  0
  2 15  1  0  0  0  0
  2  3  2  0  0  0  0
  3  4  1  0  0  0  0
  4  5  2  0  0  0  0
  4  6  1  0  0  0  0
  6  7  1  0  0  0  0
  6 14  1  0  0  0  0
  7 17  1  0  0  0  0
  7 13  1  0  0  0  0
  7  8  1  0  0  0  0
  8  9  1  0  0  0  0
  8 21  1  0  0  0  0
  8 22  1  0  0  0  0
  9 10  1  0  0  0  0
 10 18  1  0  0  0  0
 10 11  1  0  0  0  0
 10 13  1  0  0  0  0
 11 12  1  0  0  0  0
 11 23  1  0  0  0  0
 11 24  1  0  0  0  0
 12 25  1  0  0  0  0
 14 15  2  0  0  0  0
 14 26  1  0  0  0  0
 15 16  1  0  0  0  0
M  END
> <s_m_source_file>
AV-unprocessed.smi

> <i_m_source_file_index>
41

> <i_lp_mmshare_version>
43012

> <i_f3d_flags>
0

> <s_epik_input>
W05IMl1jMW5jKD1PKW4oW2NIXWMxRilbQ0BASF0yW0NIMl1TW0NAQEhdKE8yKVtDSDJdW09IXQ==

> <s_epik_cmdline>
J2VwaWtfcHl0aG9uJywgJy1waCcsICc3LjAnLCAnLXRuJywgJzgnLCAnLW1hJywgJzIwMCcsICctbWV0YWxfYmluZGluZycsICctaW1hZScsICc8aW5maWxlLm1hZT4nLCAnLW9tYWUnLCAnPG91dGZpbGUubWFlPic=

> <r_lp_tautomer_probability>
1

> <r_epik_Ionization_Penalty>
0.000101883

> <r_epik_Ionization_Penalty_Charging>
1.48607e-08

> <r_epik_Ionization_Penalty_Neutral>
0.000101868

> <r_epik_State_Penalty>
-0

> <r_epik_Charging_Adjusted_Penalty>
1.48607e-08

> <i_epik_Tot_Q>
0

> <i_epik_Tot_abs_Q>
0

> <r_epik_Metal_State_Penalty>
-0

> <b_epik_Metal_Only>
0

> <s_epik_Chemistry_Notes>
This compound contains an acetal/aminal-like group ( X-CH(R)-Y where X, Y are N, S, or O) that may be acid/base labile, releasing an aldehyde.

> <s_lp_Force_Field>
OPLS_2005

> <r_lp_Energy>
13.4753

> <b_lp_Chiralities_Consistent>
1

> <s_lp_Variant>
AV-unprocessed.smi:41-2

> <Gold.Version>
5.8.1

> <Gold.Id.Protein>
6NUR|6NUR_protein|mol2

> <Gold.PLP.Fitness>
41.9228

> <Gold.PLP.PLP>
-36.2528

> <Gold.PLP.part.hbond>
-3.3047

> <Gold.PLP.part.metal>
0.0000

> <Gold.PLP.part.buried>
-3.4391

> <Gold.PLP.part.nonpolar>
-27.5571

> <Gold.PLP.part.repulsive>
0.0990

> <Gold.PLP.ligand.clash>
0.0000

> <Gold.PLP.ligand.torsion>
0.1898

> <Gold.PLP.Chemscore.Hbond>
1.0000

> <Gold.PLP.Chemscore.CHOScore>
1.0000

> <Gold.PLP.Chemscore.Metal>
0.0000

> <Gold.Chemscore.Hbonds>
donor molecule, donor type, donor heavy atom, donor atom, acceptor molecule, acceptor atom, score
      P1  H  7997  8009       L1     5  1.00
      L1  C    14    26       P1  8028  1.00

> <Gold.PLP.Chemscore.Internal.Correction>
0.0496

> <Gold.Rescore>
     Score         DG    S(hbond)    S(metal)    S(lipo)     H(rot)  DE(clash)    DE(int)     intcor
      9.79     -10.24       0.89        0.00      63.30       2.19       0.35       0.10       ----

> <Gold.Chemscore.Fitness>
9.7878

> <Gold.Chemscore.DG>
-10.2408

> <Gold.Chemscore.ZeroCoef>
-5.4800

> <Gold.Chemscore.Hbond>
0.8887

> <Gold.Chemscore.Metal>
0.0000

> <Gold.Chemscore.Lipo>
63.3002

> <Gold.Chemscore.Internal_Hbond>
0.0000

> <Gold.Chemscore.DEClash>
0.3532

> <Gold.Chemscore.DEInternal>
0.0998

> <Gold.Chemscore.Rot>
2.1929

> <Gold.Chemscore.Internal.Correction>
   9.000000E+99

> <Gold.Chemscore.Hbonds>
donor molecule, donor type, donor heavy atom, donor atom, acceptor molecule, acceptor atom, score
      P1  H  7997  8009       L1     5  0.28

> <Gold.Chemscore.Hbond.Weighted>
-2.9684

> <Gold.Chemscore.Metal.Weighted>
-0.0000

> <Gold.Chemscore.Lipo.Weighted>
-7.4061

> <Gold.Chemscore.Internal_Hbond.Weighted>
0.0000

> <Gold.Chemscore.DEClash.Weighted>
0.3532

> <Gold.Chemscore.DEInternal.Weighted>
0.0998

> <Gold.Chemscore.Rot.Weighted>
5.6137

> <Gold.Chemscore.Internal.Correction.Weighted>
   9.000000E+99

> <Gold.Protein.RotatedTorsions>
[ 6907 6896 6895 6894 ] final    7.09 input  -60.11 | X-H torsion
[ 7974 7965 7964 7962 ] final   82.48 input  175.53 | X-H torsion
[ 8008 7997 7996 7995 ] final  156.42 input   59.86 | X-H torsion
[ 10167 10162 10161 10158 ] final -119.42 input  -65.29 | X-H torsion
[ 10718 10713 10712 10709 ] final -136.02 input   66.30 | X-H torsion
[ 10763 10752 10751 10750 ] final   60.17 input  -60.55 | X-H torsion
[ 11005 11000 10999 10996 ] final   34.44 input  -57.11 | X-H torsion

> <Gold.Protein.ActiveResidues>
 VAL166  LYS551  ARG553  GLY616  TRP617  ASP618  TYR619  PRO620  LYS621  CYS622 
 ASP623  PHE694  ASN695  SER759  ASP760  ASP761  ALA762  ILE779  LEU786  VAL792 
 PHE793  MET794  SER795  GLU796  ALA797  LYS798  CYS799  TRP800  GLU811  SER814 

> <Gold.Protein.RotatedAtoms>
  151.6842  135.0957  160.0221 H   0  0  0  0  0  0  0  0  0  0  0  0  # atno 6907 bound_to 6896
  152.3817  133.6551  159.6175 H   0  0  0  0  0  0  0  0  0  0  0  0  # atno 6908 bound_to 6896
  150.7752  133.9019  159.3385 H   0  0  0  0  0  0  0  0  0  0  0  0  # atno 6909 bound_to 6896
  145.6245  139.2392  143.2119 H   0  0  0  0  0  0  0  0  0  0  0  0  # atno 7974 bound_to 7965
  156.2423  140.1913  156.6952 H   0  0  0  0  0  0  0  0  0  0  0  0  # atno 8008 bound_to 7997
  154.6222  140.0607  156.9656 H   0  0  0  0  0  0  0  0  0  0  0  0  # atno 8009 bound_to 7997
  155.1843  140.3279  155.4372 H   0  0  0  0  0  0  0  0  0  0  0  0  # atno 8010 bound_to 7997
  140.0469  143.5098  152.2102 H   0  0  0  0  0  0  0  0  0  0  0  0  # atno 10167 bound_to 10162
  156.2725  130.7274  151.1245 H   0  0  0  0  0  0  0  0  0  0  0  0  # atno 10718 bound_to 10713
  152.9914  135.5545  154.5831 H   0  0  0  0  0  0  0  0  0  0  0  0  # atno 10763 bound_to 10752
  154.5208  135.2807  155.1266 H   0  0  0  0  0  0  0  0  0  0  0  0  # atno 10764 bound_to 10752
  154.2620  135.6379  153.5331 H   0  0  0  0  0  0  0  0  0  0  0  0  # atno 10765 bound_to 10752
  140.2529  134.3282  155.7884 H   0  0  0  0  0  0  0  0  0  0  0  0  # atno 11005 bound_to 11000
  146.1405  140.7064  142.9369 LP  0  0  0  0  0  0  0  0  0  0  0  0  # atno 17320 bound_to 7965
  144.7218  140.4396  143.7003 LP  0  0  0  0  0  0  0  0  0  0  0  0  # atno 17321 bound_to 7965
  139.5978  144.7573  151.3244 LP  0  0  0  0  0  0  0  0  0  0  0  0  # atno 17342 bound_to 10162
  140.7235  143.7070  150.7799 LP  0  0  0  0  0  0  0  0  0  0  0  0  # atno 17343 bound_to 10162
  157.7288  131.0629  150.5801 LP  0  0  0  0  0  0  0  0  0  0  0  0  # atno 17370 bound_to 10713
  156.5899  130.4326  149.5941 LP  0  0  0  0  0  0  0  0  0  0  0  0  # atno 17371 bound_to 10713
  141.2199  133.7364  156.9065 LP  0  0  0  0  0  0  0  0  0  0  0  0  # atno 17394 bound_to 11000
  140.1540  134.9210  157.2630 LP  0  0  0  0  0  0  0  0  0  0  0  0  # atno 17395 bound_to 11000

$$$$
