AV-unprocessed.smi:1384|AV-procd|sdf|5626|dock10
  -GOLD-   22720 5243D 1   1.00000     0.00000
 Structure written by MMmdl.
 41 42  0  0  0  0  0  0  0  0  1 V2000
  146.8458  138.9154  152.3508 C   0  0  0  0  0  0  0  0  0  0  0  0
  147.7771  139.8823  153.0957 C   0  0  2  0  0  0  0  0  0  0  0  0
  148.7368  139.1300  154.0369 C   0  0  0  0  0  0  0  0  0  0  0  0
  149.6705  140.0961  154.7839 C   0  0  0  0  0  0  0  0  0  0  0  0
  148.8742  141.1621  155.5641 C   0  0  1  0  0  0  0  0  0  0  0  0
  149.7756  142.1188  156.1991 N   0  0  0  0  0  0  0  0  0  0  0  0
  150.7378  141.8143  157.0829 C   0  0  0  0  0  0  0  0  0  0  0  0
  150.9738  140.6636  157.4538 O   0  0  0  0  0  0  0  0  0  0  0  0
  151.5605  143.0010  157.6059 C   0  0  0  0  0  0  0  0  0  0  0  0
  152.1716  142.7635  158.9252 N   0  0  0  0  0  0  0  0  0  0  0  0
  151.8244  143.6557  159.9552 C   0  0  0  0  0  0  0  0  0  0  0  0
  152.3192  143.5302  161.1939 C   0  0  0  0  0  0  0  0  0  0  0  0
  153.2276  142.4415  161.4582 C   0  0  0  0  0  0  0  0  0  0  0  0
  153.5865  141.5715  160.4858 C   0  0  0  0  0  0  0  0  0  0  0  0
  154.5375  140.4070  160.7527 C   0  0  0  0  0  0  0  0  0  0  0  0
  153.9451  139.2424  160.4854 F   0  0  0  0  0  0  0  0  0  0  0  0
  155.6237  140.5076  159.9863 F   0  0  0  0  0  0  0  0  0  0  0  0
  154.9368  140.3757  162.0251 F   0  0  0  0  0  0  0  0  0  0  0  0
  153.0416  141.7244  159.1212 C   0  0  0  0  0  0  0  0  0  0  0  0
  153.3461  140.9645  158.2003 O   0  0  0  0  0  0  0  0  0  0  0  0
  147.9094  141.9113  154.6269 C   0  0  0  0  0  0  0  0  0  0  0  0
  146.9795  140.9417  153.8797 C   0  0  0  0  0  0  0  0  0  0  0  0
  146.2149  138.3582  153.0439 H   0  0  0  0  0  0  0  0  0  0  0  0
  147.4166  138.1937  151.7656 H   0  0  0  0  0  0  0  0  0  0  0  0
  146.1919  139.4525  151.6632 H   0  0  0  0  0  0  0  0  0  0  0  0
  148.3784  140.4003  152.3470 H   0  0  0  0  0  0  0  0  0  0  0  0
  148.1640  138.5481  154.7601 H   0  0  0  0  0  0  0  0  0  0  0  0
  149.3325  138.4145  153.4690 H   0  0  0  0  0  0  0  0  0  0  0  0
  150.3100  139.5301  155.4622 H   0  0  0  0  0  0  0  0  0  0  0  0
  150.3347  140.5819  154.0677 H   0  0  0  0  0  0  0  0  0  0  0  0
  148.2820  140.6673  156.3366 H   0  0  0  0  0  0  0  0  0  0  0  0
  149.6547  143.0897  155.9493 H   0  0  0  0  0  0  0  0  0  0  0  0
  152.3300  143.2317  156.8675 H   0  0  0  0  0  0  0  0  0  0  0  0
  150.9252  143.8882  157.6384 H   0  0  0  0  0  0  0  0  0  0  0  0
  151.1429  144.4451  159.6727 H   0  0  0  0  0  0  0  0  0  0  0  0
  152.0462  144.2264  161.9733 H   0  0  0  0  0  0  0  0  0  0  0  0
  153.6186  142.3319  162.4584 H   0  0  0  0  0  0  0  0  0  0  0  0
  147.3125  142.6242  155.1971 H   0  0  0  0  0  0  0  0  0  0  0  0
  148.4776  142.4951  153.9012 H   0  0  0  0  0  0  0  0  0  0  0  0
  146.3383  141.5038  153.1999 H   0  0  0  0  0  0  0  0  0  0  0  0
  146.3165  140.4516  154.5941 H   0  0  0  0  0  0  0  0  0  0  0  0
  1  2  1  0  0  0  0
  1 23  1  0  0  0  0
  1 24  1  0  0  0  0
  1 25  1  0  0  0  0
  2 22  1  0  0  0  0
  2  3  1  0  0  0  0
  2 26  1  0  0  0  0
  3  4  1  0  0  0  0
  3 27  1  0  0  0  0
  3 28  1  0  0  0  0
  4  5  1  0  0  0  0
  4 29  1  0  0  0  0
  4 30  1  0  0  0  0
  5  6  1  0  0  0  0
  5 21  1  0  0  0  0
  5 31  1  0  0  0  0
  6  7  1  0  0  0  0
  6 32  1  0  0  0  0
  7  8  2  0  0  0  0
  7  9  1  0  0  0  0
  9 10  1  0  0  0  0
  9 33  1  0  0  0  0
  9 34  1  0  0  0  0
 10 19  1  0  0  0  0
 10 11  1  0  0  0  0
 11 12  2  0  0  0  0
 11 35  1  0  0  0  0
 12 13  1  0  0  0  0
 12 36  1  0  0  0  0
 13 14  2  0  0  0  0
 13 37  1  0  0  0  0
 14 15  1  0  0  0  0
 14 19  1  0  0  0  0
 15 16  1  0  0  0  0
 15 17  1  0  0  0  0
 15 18  1  0  0  0  0
 19 20  2  0  0  0  0
 21 22  1  0  0  0  0
 21 38  1  0  0  0  0
 21 39  1  0  0  0  0
 22 40  1  0  0  0  0
 22 41  1  0  0  0  0
M  END
> <s_m_source_file>
AV-unprocessed.smi

> <i_m_source_file_index>
1384

> <i_lp_mmshare_version>
43012

> <i_f3d_flags>
0

> <s_epik_input>
W0NIM11bQ0BASF0xW0NIMl1bQ0gyXVtDQEhdKFtDSDJdW0NIMl0xKVtOSF1DKD1PKVtDSDJdbjJbY0hdW2NIXVtjSF1jKEMoRikoRilGKWMyPU8=

> <s_epik_cmdline>
J2VwaWtfcHl0aG9uJywgJy1waCcsICc3LjAnLCAnLXRuJywgJzgnLCAnLW1hJywgJzIwMCcsICctbWV0YWxfYmluZGluZycsICctaW1hZScsICc8aW5maWxlLm1hZT4nLCAnLW9tYWUnLCAnPG91dGZpbGUubWFlPic=

> <r_lp_tautomer_probability>
1

> <r_epik_Ionization_Penalty>
2.11165e-08

> <r_epik_Ionization_Penalty_Charging>
2.06965e-09

> <r_epik_Ionization_Penalty_Neutral>
1.90469e-08

> <r_epik_State_Penalty>
-0

> <r_epik_Charging_Adjusted_Penalty>
2.06965e-09

> <i_epik_Tot_Q>
0

> <i_epik_Tot_abs_Q>
0

> <r_epik_Metal_State_Penalty>
-0

> <b_epik_Metal_Only>
0

> <s_lp_Force_Field>
OPLS_2005

> <r_lp_Energy>
18.7612

> <b_lp_Chiralities_Consistent>
1

> <s_lp_Variant>
AV-unprocessed.smi:1384-1

> <Gold.Version>
5.8.1

> <Gold.Id.Protein>
6NUR|6NUR_protein|mol2

> <Gold.PLP.Fitness>
51.1937

> <Gold.PLP.PLP>
-47.1854

> <Gold.PLP.part.hbond>
-2.0000

> <Gold.PLP.part.metal>
0.0000

> <Gold.PLP.part.buried>
3.6100

> <Gold.PLP.part.nonpolar>
-47.8902

> <Gold.PLP.part.repulsive>
0.0953

> <Gold.PLP.ligand.clash>
0.3453

> <Gold.PLP.ligand.torsion>
0.3554

> <Gold.PLP.Chemscore.Hbond>
1.5710

> <Gold.PLP.Chemscore.CHOScore>
0.0000

> <Gold.PLP.Chemscore.Metal>
0.0000

> <Gold.Chemscore.Hbonds>
donor molecule, donor type, donor heavy atom, donor atom, acceptor molecule, acceptor atom, score
      L1  H     6    32       P1  8028  1.00
      P1  H  7997  8008       L1    20  0.51

> <Gold.PLP.Chemscore.Internal.Correction>
0.3515

> <Gold.Rescore>
     Score         DG    S(hbond)    S(metal)    S(lipo)     H(rot)  DE(clash)    DE(int)     intcor
     11.91     -19.09       1.63        0.00     103.01       1.52       0.20       6.99       ----

> <Gold.Chemscore.Fitness>
11.9056

> <Gold.Chemscore.DG>
-19.0905

> <Gold.Chemscore.ZeroCoef>
-5.4800

> <Gold.Chemscore.Hbond>
1.6347

> <Gold.Chemscore.Metal>
0.0000

> <Gold.Chemscore.Lipo>
103.0139

> <Gold.Chemscore.Internal_Hbond>
0.0000

> <Gold.Chemscore.DEClash>
0.1977

> <Gold.Chemscore.DEInternal>
6.9872

> <Gold.Chemscore.Rot>
1.5242

> <Gold.Chemscore.Internal.Correction>
   9.000000E+99

> <Gold.Chemscore.Hbonds>
donor molecule, donor type, donor heavy atom, donor atom, acceptor molecule, acceptor atom, score
      L1  H     6    32       P1  8028  1.00
      P1  H  7997  8008       L1    20  0.50

> <Gold.Chemscore.Hbond.Weighted>
-5.4598

> <Gold.Chemscore.Metal.Weighted>
-0.0000

> <Gold.Chemscore.Lipo.Weighted>
-12.0526

> <Gold.Chemscore.Internal_Hbond.Weighted>
0.0000

> <Gold.Chemscore.DEClash.Weighted>
0.1977

> <Gold.Chemscore.DEInternal.Weighted>
6.9872

> <Gold.Chemscore.Rot.Weighted>
3.9019

> <Gold.Chemscore.Internal.Correction.Weighted>
   9.000000E+99

> <Gold.Protein.RotatedTorsions>
[ 6907 6896 6895 6894 ] final  -93.32 input  -60.11 | X-H torsion
[ 7974 7965 7964 7962 ] final   22.01 input  175.53 | X-H torsion
[ 8008 7997 7996 7995 ] final  -85.74 input   59.86 | X-H torsion
[ 10167 10162 10161 10158 ] final -110.18 input  -65.29 | X-H torsion
[ 10718 10713 10712 10709 ] final  110.93 input   66.30 | X-H torsion
[ 10763 10752 10751 10750 ] final  104.32 input  -60.55 | X-H torsion
[ 11005 11000 10999 10996 ] final   53.58 input  -57.11 | X-H torsion

> <Gold.Protein.ActiveResidues>
 VAL166  LYS551  ARG553  GLY616  TRP617  ASP618  TYR619  PRO620  LYS621  CYS622 
 ASP623  PHE694  ASN695  SER759  ASP760  ASP761  ALA762  ILE779  LEU786  VAL792 
 PHE793  MET794  SER795  GLU796  ALA797  LYS798  CYS799  TRP800  GLU811  SER814 

> <Gold.Protein.RotatedAtoms>
  150.6920  134.1985  159.4312 H   0  0  0  0  0  0  0  0  0  0  0  0  # atno 6907 bound_to 6896
  151.9953  134.9955  160.0572 H   0  0  0  0  0  0  0  0  0  0  0  0  # atno 6908 bound_to 6896
  152.1629  133.4559  159.4907 H   0  0  0  0  0  0  0  0  0  0  0  0  # atno 6909 bound_to 6896
  146.2047  139.7946  142.8735 H   0  0  0  0  0  0  0  0  0  0  0  0  # atno 7974 bound_to 7965
  154.6441  140.0587  156.9879 H   0  0  0  0  0  0  0  0  0  0  0  0  # atno 8008 bound_to 7997
  155.1472  140.3271  155.4420 H   0  0  0  0  0  0  0  0  0  0  0  0  # atno 8009 bound_to 7997
  156.2545  140.1954  156.6585 H   0  0  0  0  0  0  0  0  0  0  0  0  # atno 8010 bound_to 7997
  140.1473  143.4228  152.1520 H   0  0  0  0  0  0  0  0  0  0  0  0  # atno 10167 bound_to 10162
  157.6470  131.0941  150.6674 H   0  0  0  0  0  0  0  0  0  0  0  0  # atno 10718 bound_to 10713
  153.3644  135.3947  155.1742 H   0  0  0  0  0  0  0  0  0  0  0  0  # atno 10763 bound_to 10752
  154.8684  135.3687  154.5058 H   0  0  0  0  0  0  0  0  0  0  0  0  # atno 10764 bound_to 10752
  153.5520  135.7082  153.5647 H   0  0  0  0  0  0  0  0  0  0  0  0  # atno 10765 bound_to 10752
  140.0755  134.5410  155.9001 H   0  0  0  0  0  0  0  0  0  0  0  0  # atno 11005 bound_to 11000
  145.3361  141.0277  143.3419 LP  0  0  0  0  0  0  0  0  0  0  0  0  # atno 17320 bound_to 7965
  144.8764  139.4964  143.6743 LP  0  0  0  0  0  0  0  0  0  0  0  0  # atno 17321 bound_to 7965
  139.5443  144.7284  151.4634 LP  0  0  0  0  0  0  0  0  0  0  0  0  # atno 17342 bound_to 10162
  140.6724  143.8265  150.7016 LP  0  0  0  0  0  0  0  0  0  0  0  0  # atno 17343 bound_to 10162
  156.6990  130.4617  149.5578 LP  0  0  0  0  0  0  0  0  0  0  0  0  # atno 17370 bound_to 10713
  156.1808  130.6498  151.0949 LP  0  0  0  0  0  0  0  0  0  0  0  0  # atno 17371 bound_to 10713
  141.2028  133.6627  156.6026 LP  0  0  0  0  0  0  0  0  0  0  0  0  # atno 17394 bound_to 11000
  140.3564  134.7725  157.4503 LP  0  0  0  0  0  0  0  0  0  0  0  0  # atno 17395 bound_to 11000

$$$$
