AV-unprocessed.smi:845|AV-procd|sdf|3931|dock9
  -GOLD-   22720 1393D 1   1.00000     0.00000
 Structure written by MMmdl.
 42 43  0  0  0  0  0  0  0  0  3 V2000
  151.9989  138.0485  154.5183 C   0  0  0  0  0  0  0  0  0  0  0  0
  152.2375  138.5249  155.9618 C   0  0  0  0  0  0  0  0  0  0  0  0
  153.1937  137.5702  156.6979 C   0  0  0  0  0  0  0  0  0  0  0  0
  150.8999  138.8068  156.7064 C   0  0  2  0  0  0  0  0  0  0  0  0
  150.0292  137.5547  156.9959 C   0  0  0  0  0  0  0  0  0  0  0  0
  149.3442  137.6452  158.2829 N   0  0  0  0  0  0  0  0  0  0  0  0
  149.0553  136.6293  159.1090 C   0  0  0  0  0  0  0  0  0  0  0  0
  149.3523  135.4738  158.7977 O   0  0  0  0  0  0  0  0  0  0  0  0
  148.4469  137.0197  160.2512 N   0  5  0  0  0  0  0  0  0  0  0  0
  147.7838  136.1222  160.9982 C   0  0  0  0  0  0  0  0  0  0  0  0
  147.3313  134.9605  160.5121 N   0  0  0  0  0  0  0  0  0  0  0  0
  146.6749  134.1786  161.4642 C   0  0  0  0  0  0  0  0  0  0  0  0
  146.6340  134.7548  162.7062 C   0  0  0  0  0  0  0  0  0  0  0  0
  147.4239  136.3057  162.7172 S   0  0  0  0  0  0  0  0  0  0  0  0
  150.1458  139.9220  156.0524 N   0  3  0  0  0  0  0  0  0  0  0  0
  150.9107  141.1628  155.7586 C   0  0  0  0  0  0  0  0  0  0  0  0
  149.9592  142.2599  155.2564 C   0  0  0  0  0  0  0  0  0  0  0  0
  149.2828  141.7995  154.0927 O   0  0  0  0  0  0  0  0  0  0  0  0
  148.4899  140.6482  154.3558 C   0  0  0  0  0  0  0  0  0  0  0  0
  149.3820  139.4978  154.8540 C   0  0  0  0  0  0  0  0  0  0  0  0
  151.5057  137.0768  154.4903 H   0  0  0  0  0  0  0  0  0  0  0  0
  152.9415  137.9546  153.9782 H   0  0  0  0  0  0  0  0  0  0  0  0
  151.3774  138.7547  153.9667 H   0  0  0  0  0  0  0  0  0  0  0  0
  152.7643  139.4744  155.8675 H   0  0  0  0  0  0  0  0  0  0  0  0
  152.8109  136.5500  156.7138 H   0  0  0  0  0  0  0  0  0  0  0  0
  153.3671  137.8830  157.7267 H   0  0  0  0  0  0  0  0  0  0  0  0
  154.1648  137.5416  156.2031 H   0  0  0  0  0  0  0  0  0  0  0  0
  151.2068  139.1669  157.6898 H   0  0  0  0  0  0  0  0  0  0  0  0
  149.2558  137.4640  156.2326 H   0  0  0  0  0  0  0  0  0  0  0  0
  150.6159  136.6374  156.9402 H   0  0  0  0  0  0  0  0  0  0  0  0
  149.0738  138.5690  158.5875 H   0  0  0  0  0  0  0  0  0  0  0  0
  146.2672  133.2228  161.1702 H   0  0  0  0  0  0  0  0  0  0  0  0
  146.1916  134.3643  163.6101 H   0  0  0  0  0  0  0  0  0  0  0  0
  151.4379  141.5145  156.6438 H   0  0  0  0  0  0  0  0  0  0  0  0
  151.6637  140.9709  154.9931 H   0  0  0  0  0  0  0  0  0  0  0  0
  149.2397  142.5377  156.0285 H   0  0  0  0  0  0  0  0  0  0  0  0
  150.5218  143.1592  155.0053 H   0  0  0  0  0  0  0  0  0  0  0  0
  147.7185  140.8862  155.0897 H   0  0  0  0  0  0  0  0  0  0  0  0
  147.9769  140.3557  153.4394 H   0  0  0  0  0  0  0  0  0  0  0  0
  150.0734  139.1862  154.0694 H   0  0  0  0  0  0  0  0  0  0  0  0
  148.7552  138.6376  155.0927 H   0  0  0  0  0  0  0  0  0  0  0  0
  149.4435  140.1844  156.7291 H   0  0  0  0  0  0  0  0  0  0  0  0
  1  2  1  0  0  0  0
  1 21  1  0  0  0  0
  1 22  1  0  0  0  0
  1 23  1  0  0  0  0
  2  3  1  0  0  0  0
  2  4  1  0  0  0  0
  2 24  1  0  0  0  0
  3 25  1  0  0  0  0
  3 26  1  0  0  0  0
  3 27  1  0  0  0  0
  4  5  1  0  0  0  0
  4 15  1  0  0  0  0
  4 28  1  0  0  0  0
  5  6  1  0  0  0  0
  5 29  1  0  0  0  0
  5 30  1  0  0  0  0
  6  7  1  0  0  0  0
  6 31  1  0  0  0  0
  7  8  2  0  0  0  0
  7  9  1  0  0  0  0
  9 10  1  0  0  0  0
 10 14  1  0  0  0  0
 10 11  2  0  0  0  0
 11 12  1  0  0  0  0
 12 13  2  0  0  0  0
 12 32  1  0  0  0  0
 13 14  1  0  0  0  0
 13 33  1  0  0  0  0
 15 20  1  0  0  0  0
 15 16  1  0  0  0  0
 15 42  1  0  0  0  0
 16 17  1  0  0  0  0
 16 34  1  0  0  0  0
 16 35  1  0  0  0  0
 17 18  1  0  0  0  0
 17 36  1  0  0  0  0
 17 37  1  0  0  0  0
 18 19  1  0  0  0  0
 19 20  1  0  0  0  0
 19 38  1  0  0  0  0
 19 39  1  0  0  0  0
 20 40  1  0  0  0  0
 20 41  1  0  0  0  0
M  CHG  1   9  -1
M  CHG  1  15   1
M  END
> <s_m_source_file>
AV-unprocessed.smi

> <i_m_source_file_index>
845

> <i_lp_mmshare_version>
43012

> <i_f3d_flags>
0

> <s_epik_input>
W0NIMl0xW0NIMl1PW0NIMl1bQ0gyXU4xW0NASF0oW0NIXShbQ0gzXSlbQ0gzXSlbQ0gyXVtOSF1DKD1PKVtOSF1jMm5bY0hdW2NIXXMy

> <s_epik_cmdline>
J2VwaWtfcHl0aG9uJywgJy1waCcsICc3LjAnLCAnLXRuJywgJzgnLCAnLW1hJywgJzIwMCcsICctbWV0YWxfYmluZGluZycsICctaW1hZScsICc8aW5maWxlLm1hZT4nLCAnLW9tYWUnLCAnPG91dGZpbGUubWFlPic=

> <r_lp_tautomer_probability>
0.999

> <r_epik_Ionization_Penalty>
7.97104

> <r_epik_Ionization_Penalty_Charging>
6.58021

> <r_epik_Ionization_Penalty_Neutral>
1.39083

> <r_epik_State_Penalty>
6.69807

> <r_epik_Charging_Adjusted_Penalty>
13.2783

> <i_epik_Tot_Q>
0

> <i_epik_Tot_abs_Q>
2

> <r_epik_Metal_State_Penalty>
2.62985

> <b_epik_Metal_Only>
1

> <s_lp_Force_Field>
OPLS_2005

> <r_lp_Energy>
16.3382

> <b_lp_Chiralities_Consistent>
1

> <s_lp_Variant>
AV-unprocessed.smi:845-5

> <Gold.Version>
5.8.1

> <Gold.Id.Protein>
6NUR|6NUR_protein|mol2

> <Gold.PLP.Fitness>
41.3424

> <Gold.PLP.PLP>
-33.1858

> <Gold.PLP.part.hbond>
-4.5396

> <Gold.PLP.part.metal>
0.0000

> <Gold.PLP.part.buried>
0.2040

> <Gold.PLP.part.nonpolar>
-28.9860

> <Gold.PLP.part.repulsive>
0.3966

> <Gold.PLP.ligand.clash>
0.0000

> <Gold.PLP.ligand.torsion>
0.9537

> <Gold.PLP.Chemscore.Hbond>
3.1963

> <Gold.PLP.Chemscore.CHOScore>
0.0000

> <Gold.PLP.Chemscore.Metal>
0.0000

> <Gold.Chemscore.Hbonds>
donor molecule, donor type, donor heavy atom, donor atom, acceptor molecule, acceptor atom, score
      P1  H  6896  6909       L1     8  1.00
      P1  H  6931  6943       L1     9  0.86
      P1  H  8011  8017       L1    18  0.51

> <Gold.PLP.Chemscore.Internal.Correction>
0.4751

> <Gold.Rescore>
     Score         DG    S(hbond)    S(metal)    S(lipo)     H(rot)  DE(clash)    DE(int)     intcor
     13.77     -17.58       2.41        0.00      73.25       1.76       1.18       2.62       ----

> <Gold.Chemscore.Fitness>
13.7725

> <Gold.Chemscore.DG>
-17.5797

> <Gold.Chemscore.ZeroCoef>
-5.4800

> <Gold.Chemscore.Hbond>
2.4074

> <Gold.Chemscore.Metal>
0.0000

> <Gold.Chemscore.Lipo>
73.2533

> <Gold.Chemscore.Internal_Hbond>
0.0000

> <Gold.Chemscore.DEClash>
1.1834

> <Gold.Chemscore.DEInternal>
2.6238

> <Gold.Chemscore.Rot>
1.7623

> <Gold.Chemscore.Internal.Correction>
   9.000000E+99

> <Gold.Chemscore.Hbonds>
donor molecule, donor type, donor heavy atom, donor atom, acceptor molecule, acceptor atom, score
      P1  H  6896  6909       L1     8  0.98
      P1  H  6931  6943       L1     9  0.06
      P1  H  6934  6947       L1     9  0.01
      P1  H  8011  8017       L1    18  0.49

> <Gold.Chemscore.Hbond.Weighted>
-8.0406

> <Gold.Chemscore.Metal.Weighted>
-0.0000

> <Gold.Chemscore.Lipo.Weighted>
-8.5706

> <Gold.Chemscore.Internal_Hbond.Weighted>
0.0000

> <Gold.Chemscore.DEClash.Weighted>
1.1834

> <Gold.Chemscore.DEInternal.Weighted>
2.6238

> <Gold.Chemscore.Rot.Weighted>
4.5116

> <Gold.Chemscore.Internal.Correction.Weighted>
   9.000000E+99

> <Gold.Protein.RotatedTorsions>
[ 6907 6896 6895 6894 ] final   54.39 input  -60.11 | X-H torsion
[ 7974 7965 7964 7962 ] final -145.65 input  175.53 | X-H torsion
[ 8008 7997 7996 7995 ] final  -97.92 input   59.86 | X-H torsion
[ 10167 10162 10161 10158 ] final -160.00 input  -65.29 | X-H torsion
[ 10718 10713 10712 10709 ] final  -89.60 input   66.30 | X-H torsion
[ 10763 10752 10751 10750 ] final  -41.86 input  -60.55 | X-H torsion
[ 11005 11000 10999 10996 ] final  -56.14 input  -57.11 | X-H torsion

> <Gold.Protein.ActiveResidues>
 VAL166  LYS551  ARG553  GLY616  TRP617  ASP618  TYR619  PRO620  LYS621  CYS622 
 ASP623  PHE694  ASN695  SER759  ASP760  ASP761  ALA762  ILE779  LEU786  VAL792 
 PHE793  MET794  SER795  GLU796  ALA797  LYS798  CYS799  TRP800  GLU811  SER814 

> <Gold.Protein.RotatedAtoms>
  152.3434  134.7103  160.0256 H   0  0  0  0  0  0  0  0  0  0  0  0  # atno 6907 bound_to 6896
  151.7481  133.3320  159.3392 H   0  0  0  0  0  0  0  0  0  0  0  0  # atno 6908 bound_to 6896
  150.7494  134.6150  159.6150 H   0  0  0  0  0  0  0  0  0  0  0  0  # atno 6909 bound_to 6896
  144.8213  140.5557  143.5577 H   0  0  0  0  0  0  0  0  0  0  0  0  # atno 7974 bound_to 7965
  154.7942  140.0459  157.1224 H   0  0  0  0  0  0  0  0  0  0  0  0  # atno 8008 bound_to 7997
  154.9555  140.3070  155.5035 H   0  0  0  0  0  0  0  0  0  0  0  0  # atno 8009 bound_to 7997
  156.2954  140.2280  156.4636 H   0  0  0  0  0  0  0  0  0  0  0  0  # atno 8010 bound_to 7997
  139.6572  143.9977  152.2202 H   0  0  0  0  0  0  0  0  0  0  0  0  # atno 10167 bound_to 10162
  155.9985  130.4878  150.5196 H   0  0  0  0  0  0  0  0  0  0  0  0  # atno 10718 bound_to 10713
  153.9694  135.6730  153.4747 H   0  0  0  0  0  0  0  0  0  0  0  0  # atno 10763 bound_to 10752
  153.0800  135.4928  154.8480 H   0  0  0  0  0  0  0  0  0  0  0  0  # atno 10764 bound_to 10752
  154.7227  135.3121  154.8981 H   0  0  0  0  0  0  0  0  0  0  0  0  # atno 10765 bound_to 10752
  141.1106  133.6611  156.4574 H   0  0  0  0  0  0  0  0  0  0  0  0  # atno 11005 bound_to 11000
  145.5099  139.1480  143.3610 LP  0  0  0  0  0  0  0  0  0  0  0  0  # atno 17320 bound_to 7965
  146.2518  140.5240  142.8890 LP  0  0  0  0  0  0  0  0  0  0  0  0  # atno 17321 bound_to 7965
  139.9706  144.6496  150.7992 LP  0  0  0  0  0  0  0  0  0  0  0  0  # atno 17342 bound_to 10162
  140.7564  143.3066  151.2947 LP  0  0  0  0  0  0  0  0  0  0  0  0  # atno 17343 bound_to 10162
  157.3159  131.0672  151.1967 LP  0  0  0  0  0  0  0  0  0  0  0  0  # atno 17370 bound_to 10713
  157.2897  130.6790  149.6108 LP  0  0  0  0  0  0  0  0  0  0  0  0  # atno 17371 bound_to 10713
  140.4785  134.6687  157.5160 LP  0  0  0  0  0  0  0  0  0  0  0  0  # atno 17394 bound_to 11000
  139.9998  134.6854  155.9549 LP  0  0  0  0  0  0  0  0  0  0  0  0  # atno 17395 bound_to 11000

$$$$
