AV-unprocessed.smi:1803|AV-procd|sdf|7288|dock9
  -GOLD-   22720 8543D 1   1.00000     0.00000
 Structure written by MMmdl.
 35 37  0  0  0  0  0  0  0  0  3 V2000
  146.1801  128.2117  152.8939 O   0  0  0  0  0  0  0  0  0  0  0  0
  147.0246  128.8051  152.2242 C   0  0  0  0  0  0  0  0  0  0  0  0
  147.9007  128.1761  151.3986 N   0  5  0  0  0  0  0  0  0  0  0  0
  148.1117  126.8473  151.4417 C   0  0  0  0  0  0  0  0  0  0  0  0
  147.7397  126.0917  152.4879 N   0  0  0  0  0  0  0  0  0  0  0  0
  148.0411  124.7467  152.3240 N   0  0  0  0  0  0  0  0  0  0  0  0
  148.6490  124.5234  151.1590 C   0  0  0  0  0  0  0  0  0  0  0  0
  148.9011  125.9347  150.1535 S   0  0  0  0  0  0  0  0  0  0  0  0
  147.0847  130.1486  152.2978 N   0  0  0  0  0  0  0  0  0  0  0  0
  146.1955  131.0010  153.0805 C   0  0  1  0  0  0  0  0  0  0  0  0
  146.9393  131.8732  154.1004 C   0  0  0  0  0  0  0  0  0  0  0  0
  146.1152  133.1694  154.1957 C   0  0  0  0  0  0  0  0  0  0  0  0
  144.9875  133.0106  153.2508 N   0  3  1  0  0  0  0  0  0  0  0  0
  144.3840  134.2610  152.7233 C   0  0  0  0  0  0  0  0  0  0  0  0
  145.2176  134.8950  151.5968 C   0  0  0  0  0  0  0  0  0  0  0  0
  145.4988  133.8732  150.4906 C   0  0  0  0  0  0  0  0  0  0  0  0
  146.2189  132.6588  151.0857 C   0  0  0  0  0  0  0  0  0  0  0  0
  145.4048  132.0159  152.2383 C   0  0  1  0  0  0  0  0  0  0  0  0
  148.9488  123.5218  150.8895 H   0  0  0  0  0  0  0  0  0  0  0  0
  147.7856  130.6124  151.7384 H   0  0  0  0  0  0  0  0  0  0  0  0
  145.4887  130.3745  153.6289 H   0  0  0  0  0  0  0  0  0  0  0  0
  147.0312  131.3714  155.0642 H   0  0  0  0  0  0  0  0  0  0  0  0
  147.9480  132.1049  153.7542 H   0  0  0  0  0  0  0  0  0  0  0  0
  145.7373  133.3398  155.2040 H   0  0  0  0  0  0  0  0  0  0  0  0
  146.7352  134.0244  153.9234 H   0  0  0  0  0  0  0  0  0  0  0  0
  143.3931  134.0159  152.3393 H   0  0  0  0  0  0  0  0  0  0  0  0
  144.2331  134.9702  153.5379 H   0  0  0  0  0  0  0  0  0  0  0  0
  144.6880  135.7538  151.1833 H   0  0  0  0  0  0  0  0  0  0  0  0
  146.1586  135.2776  151.9931 H   0  0  0  0  0  0  0  0  0  0  0  0
  144.5647  133.5607  150.0220 H   0  0  0  0  0  0  0  0  0  0  0  0
  146.1082  134.3243  149.7072 H   0  0  0  0  0  0  0  0  0  0  0  0
  146.4016  131.9252  150.2998 H   0  0  0  0  0  0  0  0  0  0  0  0
  147.2006  132.9702  151.4446 H   0  0  0  0  0  0  0  0  0  0  0  0
  144.5139  131.5474  151.8178 H   0  0  0  0  0  0  0  0  0  0  0  0
  144.2650  132.5534  153.7884 H   0  0  0  0  0  0  0  0  0  0  0  0
  1  2  2  0  0  0  0
  2  3  1  0  0  0  0
  2  9  1  0  0  0  0
  3  4  1  0  0  0  0
  4  8  1  0  0  0  0
  4  5  2  0  0  0  0
  5  6  1  0  0  0  0
  6  7  2  0  0  0  0
  7  8  1  0  0  0  0
  7 19  1  0  0  0  0
  9 10  1  0  0  0  0
  9 20  1  0  0  0  0
 10 18  1  0  0  0  0
 10 11  1  0  0  0  0
 10 21  1  0  0  0  0
 11 12  1  0  0  0  0
 11 22  1  0  0  0  0
 11 23  1  0  0  0  0
 12 13  1  0  0  0  0
 12 24  1  0  0  0  0
 12 25  1  0  0  0  0
 13 18  1  0  0  0  0
 13 14  1  0  0  0  0
 13 35  1  0  0  0  0
 14 15  1  0  0  0  0
 14 26  1  0  0  0  0
 14 27  1  0  0  0  0
 15 16  1  0  0  0  0
 15 28  1  0  0  0  0
 15 29  1  0  0  0  0
 16 17  1  0  0  0  0
 16 30  1  0  0  0  0
 16 31  1  0  0  0  0
 17 18  1  0  0  0  0
 17 32  1  0  0  0  0
 17 33  1  0  0  0  0
 18 34  1  0  0  0  0
M  CHG  1   3  -1
M  CHG  1  13   1
M  END
> <s_m_source_file>
AV-unprocessed.smi

> <i_m_source_file_index>
1803

> <i_lp_mmshare_version>
43012

> <i_f3d_flags>
0

> <s_epik_input>
czFbY0hdbm5jMVtOSF1DKD1PKVtOSF1bQ0BIXShbQ0gyXVtDSDJdMilbQ0BASF0oTjIzKVtDSDJdW0NIMl1bQ0gyXVtDSDJdMw==

> <s_epik_cmdline>
J2VwaWtfcHl0aG9uJywgJy1waCcsICc3LjAnLCAnLXRuJywgJzgnLCAnLW1hJywgJzIwMCcsICctbWV0YWxfYmluZGluZycsICctaW1hZScsICc8aW5maWxlLm1hZT4nLCAnLW9tYWUnLCAnPG91dGZpbGUubWFlPic=

> <r_lp_tautomer_probability>
1

> <r_epik_Ionization_Penalty>
3.78828

> <r_epik_Ionization_Penalty_Charging>
3.7591

> <r_epik_Ionization_Penalty_Neutral>
0.0291838

> <r_epik_State_Penalty>
3.757

> <r_epik_Charging_Adjusted_Penalty>
7.51609

> <i_epik_Tot_Q>
0

> <i_epik_Tot_abs_Q>
2

> <r_epik_Metal_State_Penalty>
0.558016

> <b_epik_Metal_Only>
1

> <s_lp_Force_Field>
OPLS_2005

> <r_lp_Energy>
30.1197

> <b_lp_Chiralities_Consistent>
1

> <s_lp_Variant>
AV-unprocessed.smi:1803-10

> <Gold.Version>
5.8.1

> <Gold.Id.Protein>
6NUR|6NUR_protein|mol2

> <Gold.PLP.Fitness>
38.6790

> <Gold.PLP.PLP>
-29.8872

> <Gold.PLP.part.hbond>
-3.9797

> <Gold.PLP.part.metal>
0.0000

> <Gold.PLP.part.buried>
-5.7765

> <Gold.PLP.part.nonpolar>
-21.2371

> <Gold.PLP.part.repulsive>
0.8410

> <Gold.PLP.ligand.clash>
0.0000

> <Gold.PLP.ligand.torsion>
0.1060

> <Gold.PLP.Chemscore.Hbond>
3.0000

> <Gold.PLP.Chemscore.CHOScore>
0.0000

> <Gold.PLP.Chemscore.Metal>
0.0000

> <Gold.Chemscore.Hbonds>
donor molecule, donor type, donor heavy atom, donor atom, acceptor molecule, acceptor atom, score
      L1  H     9    20       P1 10747  1.00
      L1  H    13    35       P1 10957  2.00

> <Gold.PLP.Chemscore.Internal.Correction>
0.0038

> <Gold.Rescore>
     Score         DG    S(hbond)    S(metal)    S(lipo)     H(rot)  DE(clash)    DE(int)     intcor
     12.46     -14.38       1.67        0.00      50.37       1.00       0.09       1.83       ----

> <Gold.Chemscore.Fitness>
12.4586

> <Gold.Chemscore.DG>
-14.3823

> <Gold.Chemscore.ZeroCoef>
-5.4800

> <Gold.Chemscore.Hbond>
1.6674

> <Gold.Chemscore.Metal>
0.0000

> <Gold.Chemscore.Lipo>
50.3678

> <Gold.Chemscore.Internal_Hbond>
0.0000

> <Gold.Chemscore.DEClash>
0.0934

> <Gold.Chemscore.DEInternal>
1.8303

> <Gold.Chemscore.Rot>
1.0000

> <Gold.Chemscore.Internal.Correction>
   9.000000E+99

> <Gold.Chemscore.Hbonds>
donor molecule, donor type, donor heavy atom, donor atom, acceptor molecule, acceptor atom, score
      L1  H     9    20       P1 10747  0.98
      L1  H    13    35       P1 10957  0.47

> <Gold.Chemscore.Hbond.Weighted>
-5.5692

> <Gold.Chemscore.Metal.Weighted>
-0.0000

> <Gold.Chemscore.Lipo.Weighted>
-5.8930

> <Gold.Chemscore.Internal_Hbond.Weighted>
0.0000

> <Gold.Chemscore.DEClash.Weighted>
0.0934

> <Gold.Chemscore.DEInternal.Weighted>
1.8303

> <Gold.Chemscore.Rot.Weighted>
2.5600

> <Gold.Chemscore.Internal.Correction.Weighted>
   9.000000E+99

> <Gold.Protein.RotatedTorsions>
[ 6907 6896 6895 6894 ] final  -71.50 input  -60.11 | X-H torsion
[ 7974 7965 7964 7962 ] final  110.12 input  175.53 | X-H torsion
[ 8008 7997 7996 7995 ] final   -2.36 input   59.86 | X-H torsion
[ 10167 10162 10161 10158 ] final  179.04 input  -65.29 | X-H torsion
[ 10718 10713 10712 10709 ] final   95.97 input   66.30 | X-H torsion
[ 10763 10752 10751 10750 ] final  114.37 input  -60.55 | X-H torsion
[ 11005 11000 10999 10996 ] final   13.99 input  -57.11 | X-H torsion

> <Gold.Protein.ActiveResidues>
 VAL166  LYS551  ARG553  GLY616  TRP617  ASP618  TYR619  PRO620  LYS621  CYS622 
 ASP623  PHE694  ASN695  SER759  ASP760  ASP761  ALA762  ILE779  LEU786  VAL792 
 PHE793  MET794  SER795  GLU796  ALA797  LYS798  CYS799  TRP800  GLU811  SER814 

> <Gold.Protein.RotatedAtoms>
  150.7210  134.5300  159.5695 H   0  0  0  0  0  0  0  0  0  0  0  0  # atno 6907 bound_to 6896
  152.2835  134.7799  160.0401 H   0  0  0  0  0  0  0  0  0  0  0  0  # atno 6908 bound_to 6896
  151.8437  133.3392  159.3688 H   0  0  0  0  0  0  0  0  0  0  0  0  # atno 6909 bound_to 6896
  145.2590  139.2709  143.4027 H   0  0  0  0  0  0  0  0  0  0  0  0  # atno 7974 bound_to 7965
  154.6366  140.2536  155.7371 H   0  0  0  0  0  0  0  0  0  0  0  0  # atno 8008 bound_to 7997
  156.2507  140.2896  156.0661 H   0  0  0  0  0  0  0  0  0  0  0  0  # atno 8009 bound_to 7997
  155.1662  140.0385  157.2843 H   0  0  0  0  0  0  0  0  0  0  0  0  # atno 8010 bound_to 7997
  139.5319  144.2608  152.0708 H   0  0  0  0  0  0  0  0  0  0  0  0  # atno 10167 bound_to 10162
  157.6932  131.0563  150.4420 H   0  0  0  0  0  0  0  0  0  0  0  0  # atno 10718 bound_to 10713
  153.5063  135.3627  155.2565 H   0  0  0  0  0  0  0  0  0  0  0  0  # atno 10763 bound_to 10752
  154.8745  135.4012  154.3420 H   0  0  0  0  0  0  0  0  0  0  0  0  # atno 10764 bound_to 10752
  153.4065  135.7076  153.6456 H   0  0  0  0  0  0  0  0  0  0  0  0  # atno 10765 bound_to 10752
  140.4745  134.0997  155.7739 H   0  0  0  0  0  0  0  0  0  0  0  0  # atno 11005 bound_to 11000
  146.3280  140.3002  142.8620 LP  0  0  0  0  0  0  0  0  0  0  0  0  # atno 17320 bound_to 7965
  144.9435  140.8103  143.5616 LP  0  0  0  0  0  0  0  0  0  0  0  0  # atno 17321 bound_to 7965
  140.2073  144.4598  150.6402 LP  0  0  0  0  0  0  0  0  0  0  0  0  # atno 17342 bound_to 10162
  140.6503  143.2223  151.6093 LP  0  0  0  0  0  0  0  0  0  0  0  0  # atno 17343 bound_to 10162
  156.4778  130.4067  149.6479 LP  0  0  0  0  0  0  0  0  0  0  0  0  # atno 17370 bound_to 10713
  156.3536  130.7445  151.2408 LP  0  0  0  0  0  0  0  0  0  0  0  0  # atno 17371 bound_to 10713
  141.1561  133.8880  157.1973 LP  0  0  0  0  0  0  0  0  0  0  0  0  # atno 17394 bound_to 11000
  139.9864  135.0080  156.9873 LP  0  0  0  0  0  0  0  0  0  0  0  0  # atno 17395 bound_to 11000

$$$$
