AV-unprocessed.smi:2100|AV-procd|sdf|8578|dock4
  -GOLD-   2272011303D 1   1.00000     0.00000
 Structure written by MMmdl.
 40 41  0  0  0  0  0  0  0  0  2 V2000
  149.7084  134.9358  155.6838 C   0  0  0  0  0  0  0  0  0  0  0  0
  150.6642  135.3545  156.8154 C   0  0  1  0  0  0  0  0  0  0  0  0
  151.6638  136.4445  156.3899 C   0  0  0  0  0  0  0  0  0  0  0  0
  151.0135  137.7660  156.2992 N   0  0  0  0  0  0  0  0  0  0  0  0
  151.8774  139.0384  155.4939 S   0  0  0  0  0  0  0  0  0  0  0  0
  152.9499  138.3976  154.7157 O   0  0  0  0  0  0  0  0  0  0  0  0
  150.8604  139.8095  154.7601 O   0  0  0  0  0  0  0  0  0  0  0  0
  152.4298  139.7711  156.8283 N   0  5  0  0  0  0  0  0  0  0  0  0
  151.6613  140.8486  157.4271 C   0  0  0  0  0  0  0  0  0  0  0  0
  152.2670  141.2319  158.7972 C   0  0  0  0  0  0  0  0  0  0  0  0
  151.9556  142.6513  159.2688 C   0  0  0  0  0  0  0  0  0  0  0  0
  152.4774  143.1340  160.4913 C   0  0  0  0  0  0  0  0  0  0  0  0
  152.1645  144.4475  160.8884 C   0  0  0  0  0  0  0  0  0  0  0  0
  151.3535  145.2345  160.0489 C   0  0  0  0  0  0  0  0  0  0  0  0
  150.8894  144.6692  158.8446 C   0  0  0  0  0  0  0  0  0  0  0  0
  151.1822  143.4102  158.4542 N   0  0  0  0  0  0  0  0  0  0  0  0
  150.2645  138.1133  157.5152 C   0  0  0  0  0  0  0  0  0  0  0  0
  149.2821  136.9899  157.8923 C   0  0  2  0  0  0  0  0  0  0  0  0
  148.5941  137.2611  159.2346 C   0  0  0  0  0  0  0  0  0  0  0  0
  149.9699  135.7480  157.9968 O   0  0  0  0  0  0  0  0  0  0  0  0
  150.2642  134.5075  154.8493 H   0  0  0  0  0  0  0  0  0  0  0  0
  149.1405  135.7785  155.2902 H   0  0  0  0  0  0  0  0  0  0  0  0
  148.9995  134.1837  156.0300 H   0  0  0  0  0  0  0  0  0  0  0  0
  151.2380  134.4674  157.0854 H   0  0  0  0  0  0  0  0  0  0  0  0
  152.4719  136.5081  157.1193 H   0  0  0  0  0  0  0  0  0  0  0  0
  152.1258  136.1727  155.4411 H   0  0  0  0  0  0  0  0  0  0  0  0
  151.6570  141.7292  156.7843 H   0  0  0  0  0  0  0  0  0  0  0  0
  150.6141  140.5780  157.5664 H   0  0  0  0  0  0  0  0  0  0  0  0
  151.9352  140.5249  159.5592 H   0  0  0  0  0  0  0  0  0  0  0  0
  153.3509  141.1203  158.7472 H   0  0  0  0  0  0  0  0  0  0  0  0
  153.0904  142.5025  161.1178 H   0  0  0  0  0  0  0  0  0  0  0  0
  152.5391  144.8433  161.8208 H   0  0  0  0  0  0  0  0  0  0  0  0
  151.0927  146.2462  160.3217 H   0  0  0  0  0  0  0  0  0  0  0  0
  150.2666  145.2444  158.1759 H   0  0  0  0  0  0  0  0  0  0  0  0
  150.9731  138.2948  158.3244 H   0  0  0  0  0  0  0  0  0  0  0  0
  149.7112  139.0392  157.3589 H   0  0  0  0  0  0  0  0  0  0  0  0
  148.5070  136.9154  157.1296 H   0  0  0  0  0  0  0  0  0  0  0  0
  148.0316  138.1946  159.2051 H   0  0  0  0  0  0  0  0  0  0  0  0
  149.3219  137.3335  160.0432 H   0  0  0  0  0  0  0  0  0  0  0  0
  147.8971  136.4610  159.4838 H   0  0  0  0  0  0  0  0  0  0  0  0
  1  2  1  0  0  0  0
  1 21  1  0  0  0  0
  1 22  1  0  0  0  0
  1 23  1  0  0  0  0
  2 20  1  0  0  0  0
  2  3  1  0  0  0  0
  2 24  1  0  0  0  0
  3  4  1  0  0  0  0
  3 25  1  0  0  0  0
  3 26  1  0  0  0  0
  4  5  1  0  0  0  0
  4 17  1  0  0  0  0
  5  6  2  0  0  0  0
  5  7  2  0  0  0  0
  5  8  1  0  0  0  0
  8  9  1  0  0  0  0
  9 10  1  0  0  0  0
  9 27  1  0  0  0  0
  9 28  1  0  0  0  0
 10 11  1  0  0  0  0
 10 29  1  0  0  0  0
 10 30  1  0  0  0  0
 11 16  1  0  0  0  0
 11 12  2  0  0  0  0
 12 13  1  0  0  0  0
 12 31  1  0  0  0  0
 13 14  2  0  0  0  0
 13 32  1  0  0  0  0
 14 15  1  0  0  0  0
 14 33  1  0  0  0  0
 15 16  2  0  0  0  0
 15 34  1  0  0  0  0
 17 18  1  0  0  0  0
 17 35  1  0  0  0  0
 17 36  1  0  0  0  0
 18 19  1  0  0  0  0
 18 20  1  0  0  0  0
 18 37  1  0  0  0  0
 19 38  1  0  0  0  0
 19 39  1  0  0  0  0
 19 40  1  0  0  0  0
M  CHG  1   8  -1
M  END
> <s_m_source_file>
AV-unprocessed.smi

> <i_m_source_file_index>
2100

> <i_lp_mmshare_version>
43012

> <i_f3d_flags>
0

> <s_epik_input>
W0NIM11bQ0BASF0xW0NIMl1OKFtDSDJdW0NASF0oTzEpW0NIM10pUyg9TykoPU8pW05IXVtDSDJdW0NIMl1jMltjSF1bY0hdW2NIXVtjSF1uMg==

> <s_epik_cmdline>
J2VwaWtfcHl0aG9uJywgJy1waCcsICc3LjAnLCAnLXRuJywgJzgnLCAnLW1hJywgJzIwMCcsICctbWV0YWxfYmluZGluZycsICctaW1hZScsICc8aW5maWxlLm1hZT4nLCAnLW9tYWUnLCAnPG91dGZpbGUubWFlPic=

> <r_epik_Ionization_Penalty>
1.27779

> <r_epik_Ionization_Penalty_Charging>
1.20871

> <r_epik_Ionization_Penalty_Neutral>
0.0690773

> <r_epik_State_Penalty>
1.64557

> <r_epik_Charging_Adjusted_Penalty>
2.85428

> <i_epik_Tot_Q>
-1

> <i_epik_Tot_abs_Q>
1

> <r_epik_Metal_State_Penalty>
0.643506

> <b_epik_Metal_Only>
0

> <s_lp_Force_Field>
OPLS_2005

> <r_lp_Energy>
10.0642

> <b_lp_Chiralities_Consistent>
1

> <s_lp_Variant>
AV-unprocessed.smi:2100-6

> <Gold.Version>
5.8.1

> <Gold.Id.Protein>
6NUR|6NUR_protein|mol2

> <Gold.PLP.Fitness>
48.4400

> <Gold.PLP.PLP>
-35.4454

> <Gold.PLP.part.hbond>
-3.0000

> <Gold.PLP.part.metal>
0.0000

> <Gold.PLP.part.buried>
-6.6718

> <Gold.PLP.part.nonpolar>
-26.2219

> <Gold.PLP.part.repulsive>
0.2060

> <Gold.PLP.ligand.clash>
0.0000

> <Gold.PLP.ligand.torsion>
1.4698

> <Gold.PLP.Chemscore.Hbond>
3.8480

> <Gold.PLP.Chemscore.CHOScore>
0.9474

> <Gold.PLP.Chemscore.Metal>
0.0000

> <Gold.Chemscore.Hbonds>
donor molecule, donor type, donor heavy atom, donor atom, acceptor molecule, acceptor atom, score
      P1  H  6896  6908       L1    20  0.86
      P1  H  7989  7998       L1     7  1.00
      P1  H  7997  8009       L1     8  1.93
      L1  C    15    34       P1  8028  0.05
      L1  C    15    34       P1  8029  0.71

> <Gold.PLP.Chemscore.Internal.Correction>
1.5480

> <Gold.Rescore>
     Score         DG    S(hbond)    S(metal)    S(lipo)     H(rot)  DE(clash)    DE(int)     intcor
     18.17     -20.02       2.16        0.00      94.90       1.47       0.31       1.53       ----

> <Gold.Chemscore.Fitness>
18.1729

> <Gold.Chemscore.DG>
-20.0179

> <Gold.Chemscore.ZeroCoef>
-5.4800

> <Gold.Chemscore.Hbond>
2.1575

> <Gold.Chemscore.Metal>
0.0000

> <Gold.Chemscore.Lipo>
94.8966

> <Gold.Chemscore.Internal_Hbond>
0.0000

> <Gold.Chemscore.DEClash>
0.3150

> <Gold.Chemscore.DEInternal>
1.5300

> <Gold.Chemscore.Rot>
1.4731

> <Gold.Chemscore.Internal.Correction>
   9.000000E+99

> <Gold.Chemscore.Hbonds>
donor molecule, donor type, donor heavy atom, donor atom, acceptor molecule, acceptor atom, score
      P1  H  6896  6908       L1    20  0.53
      P1  H  7989  7998       L1     7  0.78
      P1  H  7997  8009       L1     8  0.22

> <Gold.Chemscore.Hbond.Weighted>
-7.2062

> <Gold.Chemscore.Metal.Weighted>
-0.0000

> <Gold.Chemscore.Lipo.Weighted>
-11.1029

> <Gold.Chemscore.Internal_Hbond.Weighted>
0.0000

> <Gold.Chemscore.DEClash.Weighted>
0.3150

> <Gold.Chemscore.DEInternal.Weighted>
1.5300

> <Gold.Chemscore.Rot.Weighted>
3.7712

> <Gold.Chemscore.Internal.Correction.Weighted>
   9.000000E+99

> <Gold.Protein.RotatedTorsions>
[ 6907 6896 6895 6894 ] final  175.88 input  -60.11 | X-H torsion
[ 7974 7965 7964 7962 ] final -140.41 input  175.53 | X-H torsion
[ 8008 7997 7996 7995 ] final -154.81 input   59.86 | X-H torsion
[ 10167 10162 10161 10158 ] final  -83.87 input  -65.29 | X-H torsion
[ 10718 10713 10712 10709 ] final   69.42 input   66.30 | X-H torsion
[ 10763 10752 10751 10750 ] final  116.30 input  -60.55 | X-H torsion
[ 11005 11000 10999 10996 ] final  -82.60 input  -57.11 | X-H torsion

> <Gold.Protein.ActiveResidues>
 VAL166  LYS551  ARG553  GLY616  TRP617  ASP618  TYR619  PRO620  LYS621  CYS622 
 ASP623  PHE694  ASN695  SER759  ASP760  ASP761  ALA762  ILE779  LEU786  VAL792 
 PHE793  MET794  SER795  GLU796  ALA797  LYS798  CYS799  TRP800  GLU811  SER814 

> <Gold.Protein.RotatedAtoms>
  151.7291  133.3317  159.3335 H   0  0  0  0  0  0  0  0  0  0  0  0  # atno 6907 bound_to 6896
  150.7620  134.6380  159.6231 H   0  0  0  0  0  0  0  0  0  0  0  0  # atno 6908 bound_to 6896
  152.3603  134.6883  160.0261 H   0  0  0  0  0  0  0  0  0  0  0  0  # atno 6909 bound_to 6896
  144.8599  140.6203  143.5335 H   0  0  0  0  0  0  0  0  0  0  0  0  # atno 7974 bound_to 7965
  155.6922  140.0757  157.2443 H   0  0  0  0  0  0  0  0  0  0  0  0  # atno 8008 bound_to 7997
  154.4087  140.1662  156.2151 H   0  0  0  0  0  0  0  0  0  0  0  0  # atno 8009 bound_to 7997
  155.9442  140.3382  155.6356 H   0  0  0  0  0  0  0  0  0  0  0  0  # atno 8010 bound_to 7997
  140.4186  143.2593  151.8920 H   0  0  0  0  0  0  0  0  0  0  0  0  # atno 10167 bound_to 10162
  157.6344  130.9424  150.0511 H   0  0  0  0  0  0  0  0  0  0  0  0  # atno 10718 bound_to 10713
  153.5351  135.3570  155.2693 H   0  0  0  0  0  0  0  0  0  0  0  0  # atno 10763 bound_to 10752
  154.8723  135.4077  154.3107 H   0  0  0  0  0  0  0  0  0  0  0  0  # atno 10764 bound_to 10752
  153.3803  135.7068  153.6638 H   0  0  0  0  0  0  0  0  0  0  0  0  # atno 10765 bound_to 10752
  141.1662  133.7252  156.8595 H   0  0  0  0  0  0  0  0  0  0  0  0  # atno 11005 bound_to 11000
  145.4332  139.1546  143.4011 LP  0  0  0  0  0  0  0  0  0  0  0  0  # atno 17320 bound_to 7965
  146.2852  140.4449  142.8760 LP  0  0  0  0  0  0  0  0  0  0  0  0  # atno 17321 bound_to 7965
  139.4782  144.5461  151.8456 LP  0  0  0  0  0  0  0  0  0  0  0  0  # atno 17342 bound_to 10162
  140.4558  144.1791  150.5901 LP  0  0  0  0  0  0  0  0  0  0  0  0  # atno 17343 bound_to 10162
  156.1572  130.3643  149.9351 LP  0  0  0  0  0  0  0  0  0  0  0  0  # atno 17370 bound_to 10713
  156.7357  130.9060  151.3629 LP  0  0  0  0  0  0  0  0  0  0  0  0  # atno 17371 bound_to 10713
  140.1858  134.9001  157.3003 LP  0  0  0  0  0  0  0  0  0  0  0  0  # atno 17394 bound_to 11000
  140.2344  134.3870  155.7507 LP  0  0  0  0  0  0  0  0  0  0  0  0  # atno 17395 bound_to 11000

$$$$
