AV-unprocessed.smi:1606|AV-procd|sdf|6461|dock3
  -GOLD-   22720 7113D 1   1.00000     0.00000
 Structure written by MMmdl.
 35 36  0  0  0  0  0  0  0  0  1 V2000
  151.2430  139.7783  154.9660 O   0  0  0  0  0  0  0  0  0  0  0  0
  150.1852  140.2758  155.3530 C   0  0  0  0  0  0  0  0  0  0  0  0
  149.8827  140.4418  156.6495 N   0  0  0  0  0  0  0  0  0  0  0  0
  150.7674  140.1199  157.7648 C   0  0  0  0  0  0  0  0  0  0  0  0
  152.1043  140.8885  157.7174 C   0  0  0  0  0  0  0  0  0  0  0  0
  152.0027  142.3283  158.1955 C   0  0  0  0  0  0  0  0  0  0  0  0
  152.5873  142.7192  159.4189 C   0  0  0  0  0  0  0  0  0  0  0  0
  152.4553  144.0604  159.8281 C   0  0  0  0  0  0  0  0  0  0  0  0
  151.7453  144.9545  159.0040 C   0  0  0  0  0  0  0  0  0  0  0  0
  151.1975  144.4661  157.8012 C   0  0  0  0  0  0  0  0  0  0  0  0
  151.3196  143.1829  157.3994 N   0  0  0  0  0  0  0  0  0  0  0  0
  149.1379  140.7589  154.3418 C   0  0  0  0  0  0  0  0  0  0  0  0
  148.2276  141.8453  154.9422 C   0  0  0  0  0  0  0  0  0  0  0  0
  147.1287  142.2390  153.9419 C   0  0  0  0  0  0  0  0  0  0  0  0
  146.3767  141.0896  153.5668 O   0  0  0  0  0  0  0  0  0  0  0  0
  147.1619  140.1010  152.9087 C   0  0  0  0  0  0  0  0  0  0  0  0
  148.2639  139.5912  153.8514 C   0  0  0  0  0  0  0  0  0  0  0  0
  148.9922  140.8590  156.8790 H   0  0  0  0  0  0  0  0  0  0  0  0
  150.2390  140.3703  158.6849 H   0  0  0  0  0  0  0  0  0  0  0  0
  150.9502  139.0449  157.7992 H   0  0  0  0  0  0  0  0  0  0  0  0
  152.8451  140.3662  158.3238 H   0  0  0  0  0  0  0  0  0  0  0  0
  152.4975  140.8826  156.6996 H   0  0  0  0  0  0  0  0  0  0  0  0
  153.1219  142.0084  160.0317 H   0  0  0  0  0  0  0  0  0  0  0  0
  152.8890  144.3964  160.7583 H   0  0  0  0  0  0  0  0  0  0  0  0
  151.6232  145.9897  159.2866 H   0  0  0  0  0  0  0  0  0  0  0  0
  150.6459  145.1224  157.1445 H   0  0  0  0  0  0  0  0  0  0  0  0
  149.6554  141.1854  153.4804 H   0  0  0  0  0  0  0  0  0  0  0  0
  147.7598  141.4868  155.8606 H   0  0  0  0  0  0  0  0  0  0  0  0
  148.8137  142.7244  155.2129 H   0  0  0  0  0  0  0  0  0  0  0  0
  146.4551  142.9671  154.3940 H   0  0  0  0  0  0  0  0  0  0  0  0
  147.5586  142.7098  153.0564 H   0  0  0  0  0  0  0  0  0  0  0  0
  146.5134  139.2768  152.6115 H   0  0  0  0  0  0  0  0  0  0  0  0
  147.5915  140.5127  151.9941 H   0  0  0  0  0  0  0  0  0  0  0  0
  148.8764  138.8497  153.3362 H   0  0  0  0  0  0  0  0  0  0  0  0
  147.8023  139.0805  154.6977 H   0  0  0  0  0  0  0  0  0  0  0  0
  1  2  2  0  0  0  0
  2  3  1  0  0  0  0
  2 12  1  0  0  0  0
  3  4  1  0  0  0  0
  3 18  1  0  0  0  0
  4  5  1  0  0  0  0
  4 19  1  0  0  0  0
  4 20  1  0  0  0  0
  5  6  1  0  0  0  0
  5 21  1  0  0  0  0
  5 22  1  0  0  0  0
  6 11  1  0  0  0  0
  6  7  2  0  0  0  0
  7  8  1  0  0  0  0
  7 23  1  0  0  0  0
  8  9  2  0  0  0  0
  8 24  1  0  0  0  0
  9 10  1  0  0  0  0
  9 25  1  0  0  0  0
 10 11  2  0  0  0  0
 10 26  1  0  0  0  0
 12 17  1  0  0  0  0
 12 13  1  0  0  0  0
 12 27  1  0  0  0  0
 13 14  1  0  0  0  0
 13 28  1  0  0  0  0
 13 29  1  0  0  0  0
 14 15  1  0  0  0  0
 14 30  1  0  0  0  0
 14 31  1  0  0  0  0
 15 16  1  0  0  0  0
 16 17  1  0  0  0  0
 16 32  1  0  0  0  0
 16 33  1  0  0  0  0
 17 34  1  0  0  0  0
 17 35  1  0  0  0  0
M  END
> <s_m_source_file>
AV-unprocessed.smi

> <i_m_source_file_index>
1606

> <i_lp_mmshare_version>
43012

> <i_f3d_flags>
0

> <s_epik_input>
W0NIMl0xW0NIMl1PW0NIMl1bQ0gyXVtDSF0xQyg9TylbTkhdW0NIMl1bQ0gyXWMyW2NIXVtjSF1bY0hdW2NIXW4y

> <s_epik_cmdline>
J2VwaWtfcHl0aG9uJywgJy1waCcsICc3LjAnLCAnLXRuJywgJzgnLCAnLW1hJywgJzIwMCcsICctbWV0YWxfYmluZGluZycsICctaW1hZScsICc8aW5maWxlLm1hZT4nLCAnLW9tYWUnLCAnPG91dGZpbGUubWFlPic=

> <r_epik_Ionization_Penalty>
0.0277532

> <r_epik_Ionization_Penalty_Charging>
0

> <r_epik_Ionization_Penalty_Neutral>
0.0277532

> <r_epik_State_Penalty>
0.022734

> <r_epik_Charging_Adjusted_Penalty>
0.022734

> <i_epik_Tot_Q>
0

> <i_epik_Tot_abs_Q>
0

> <r_epik_Metal_State_Penalty>
0.0217131

> <b_epik_Metal_Only>
0

> <s_lp_Force_Field>
OPLS_2005

> <r_lp_Energy>
8.37046

> <b_lp_Chiralities_Consistent>
1

> <s_lp_Variant>
AV-unprocessed.smi:1606-1

> <Gold.Version>
5.8.1

> <Gold.Id.Protein>
6NUR|6NUR_protein|mol2

> <Gold.PLP.Fitness>
40.2048

> <Gold.PLP.PLP>
-35.8630

> <Gold.PLP.part.hbond>
-1.0000

> <Gold.PLP.part.metal>
0.0000

> <Gold.PLP.part.buried>
-2.0017

> <Gold.PLP.part.nonpolar>
-33.6025

> <Gold.PLP.part.repulsive>
0.8625

> <Gold.PLP.ligand.clash>
0.0000

> <Gold.PLP.ligand.torsion>
0.8355

> <Gold.PLP.Chemscore.Hbond>
1.0000

> <Gold.PLP.Chemscore.CHOScore>
1.0000

> <Gold.PLP.Chemscore.Metal>
0.0000

> <Gold.Chemscore.Hbonds>
donor molecule, donor type, donor heavy atom, donor atom, acceptor molecule, acceptor atom, score
      P1  H  7989  7998       L1     1  1.00
      L1  C    10    26       P1  8028  1.00

> <Gold.PLP.Chemscore.Internal.Correction>
0.0128

> <Gold.Rescore>
     Score         DG    S(hbond)    S(metal)    S(lipo)     H(rot)  DE(clash)    DE(int)     intcor
     14.86     -16.15       0.70        0.00     103.36       1.47       0.63       0.66       ----

> <Gold.Chemscore.Fitness>
14.8603

> <Gold.Chemscore.DG>
-16.1506

> <Gold.Chemscore.ZeroCoef>
-5.4800

> <Gold.Chemscore.Hbond>
0.6990

> <Gold.Chemscore.Metal>
0.0000

> <Gold.Chemscore.Lipo>
103.3551

> <Gold.Chemscore.Internal_Hbond>
0.0000

> <Gold.Chemscore.DEClash>
0.6270

> <Gold.Chemscore.DEInternal>
0.6633

> <Gold.Chemscore.Rot>
1.4674

> <Gold.Chemscore.Internal.Correction>
   9.000000E+99

> <Gold.Chemscore.Hbonds>
donor molecule, donor type, donor heavy atom, donor atom, acceptor molecule, acceptor atom, score
      P1  H  7989  7998       L1     1  0.30

> <Gold.Chemscore.Hbond.Weighted>
-2.3347

> <Gold.Chemscore.Metal.Weighted>
-0.0000

> <Gold.Chemscore.Lipo.Weighted>
-12.0925

> <Gold.Chemscore.Internal_Hbond.Weighted>
0.0000

> <Gold.Chemscore.DEClash.Weighted>
0.6270

> <Gold.Chemscore.DEInternal.Weighted>
0.6633

> <Gold.Chemscore.Rot.Weighted>
3.7567

> <Gold.Chemscore.Internal.Correction.Weighted>
   9.000000E+99

> <Gold.Protein.RotatedTorsions>
[ 6907 6896 6895 6894 ] final  148.44 input  -60.11 | X-H torsion
[ 7974 7965 7964 7962 ] final  101.83 input  175.53 | X-H torsion
[ 8008 7997 7996 7995 ] final  132.20 input   59.86 | X-H torsion
[ 10167 10162 10161 10158 ] final  136.40 input  -65.29 | X-H torsion
[ 10718 10713 10712 10709 ] final   80.67 input   66.30 | X-H torsion
[ 10763 10752 10751 10750 ] final   25.39 input  -60.55 | X-H torsion
[ 11005 11000 10999 10996 ] final  148.47 input  -57.11 | X-H torsion

> <Gold.Protein.ActiveResidues>
 VAL166  LYS551  ARG553  GLY616  TRP617  ASP618  TYR619  PRO620  LYS621  CYS622 
 ASP623  PHE694  ASN695  SER759  ASP760  ASP761  ALA762  ILE779  LEU786  VAL792 
 PHE793  MET794  SER795  GLU796  ALA797  LYS798  CYS799  TRP800  GLU811  SER814 

> <Gold.Protein.RotatedAtoms>
  152.1415  133.4466  159.4768 H   0  0  0  0  0  0  0  0  0  0  0  0  # atno 6907 bound_to 6896
  150.6886  134.2300  159.4440 H   0  0  0  0  0  0  0  0  0  0  0  0  # atno 6908 bound_to 6896
  152.0191  134.9832  160.0621 H   0  0  0  0  0  0  0  0  0  0  0  0  # atno 6909 bound_to 6896
  145.3672  139.2405  143.3475 H   0  0  0  0  0  0  0  0  0  0  0  0  # atno 7974 bound_to 7965
  156.2980  140.2552  156.3051 H   0  0  0  0  0  0  0  0  0  0  0  0  # atno 8008 bound_to 7997
  154.9380  140.0397  157.2101 H   0  0  0  0  0  0  0  0  0  0  0  0  # atno 8009 bound_to 7997
  154.8154  140.2851  155.5828 H   0  0  0  0  0  0  0  0  0  0  0  0  # atno 8010 bound_to 7997
  139.5181  144.6466  151.5422 H   0  0  0  0  0  0  0  0  0  0  0  0  # atno 10167 bound_to 10162
  157.6812  130.9970  150.2113 H   0  0  0  0  0  0  0  0  0  0  0  0  # atno 10718 bound_to 10713
  153.0695  135.6584  154.0279 H   0  0  0  0  0  0  0  0  0  0  0  0  # atno 10763 bound_to 10752
  153.9928  135.2944  155.3412 H   0  0  0  0  0  0  0  0  0  0  0  0  # atno 10764 bound_to 10752
  154.7065  135.5223  153.8672 H   0  0  0  0  0  0  0  0  0  0  0  0  # atno 10765 bound_to 10752
  140.0963  134.9011  157.1728 H   0  0  0  0  0  0  0  0  0  0  0  0  # atno 11005 bound_to 11000
  146.2901  140.4316  142.8742 LP  0  0  0  0  0  0  0  0  0  0  0  0  # atno 17320 bound_to 7965
  144.8603  140.7130  143.6111 LP  0  0  0  0  0  0  0  0  0  0  0  0  # atno 17321 bound_to 7965
  140.6254  143.9179  150.6560 LP  0  0  0  0  0  0  0  0  0  0  0  0  # atno 17342 bound_to 10162
  140.2466  143.3624  152.1441 LP  0  0  0  0  0  0  0  0  0  0  0  0  # atno 17343 bound_to 10162
  156.2784  130.3730  149.7960 LP  0  0  0  0  0  0  0  0  0  0  0  0  # atno 17370 bound_to 10713
  156.5656  130.8402  151.3342 LP  0  0  0  0  0  0  0  0  0  0  0  0  # atno 17371 bound_to 10713
  140.3282  134.2839  155.7233 LP  0  0  0  0  0  0  0  0  0  0  0  0  # atno 17394 bound_to 11000
  141.2093  133.7753  157.0006 LP  0  0  0  0  0  0  0  0  0  0  0  0  # atno 17395 bound_to 11000

$$$$
