AV-unprocessed.smi:2093|AV-procd|sdf|8548|dock7
  -GOLD-   2272011273D 1   1.00000     0.00000
 Structure written by MMmdl.
 30 31  0  0  0  0  0  0  0  0  2 V2000
  149.5049  139.9810  156.2977 C   0  0  0  0  0  0  0  0  0  0  0  0
  150.0271  141.1493  155.4417 C   0  0  2  0  0  0  0  0  0  0  0  0
  150.3468  142.2867  156.3021 N   0  0  0  0  0  0  0  0  0  0  0  0
  151.1147  142.2589  157.4010 C   0  0  0  0  0  0  0  0  0  0  0  0
  151.6159  141.1963  157.7760 O   0  0  0  0  0  0  0  0  0  0  0  0
  151.2534  143.4648  157.9979 N   0  5  0  0  0  0  0  0  0  0  0  0
  151.7153  143.5430  159.2565 C   0  0  0  0  0  0  0  0  0  0  0  0
  152.1557  142.4792  159.9379 N   0  0  0  0  0  0  0  0  0  0  0  0
  152.5836  142.7863  161.2307 C   0  0  0  0  0  0  0  0  0  0  0  0
  152.4575  144.1133  161.5447 C   0  0  0  0  0  0  0  0  0  0  0  0
  151.7928  145.0226  160.2178 S   0  0  0  0  0  0  0  0  0  0  0  0
  149.0055  141.5939  154.3766 C   0  0  2  0  0  0  0  0  0  0  0  0
  147.7196  142.2010  154.9392 C   0  0  0  0  0  0  0  0  0  0  0  0
  146.7544  141.9908  153.7954 C   0  0  0  0  0  0  0  0  0  0  0  0
  147.1818  140.6246  153.2666 C   0  0  0  0  0  0  0  0  0  0  0  0
  148.5559  140.4750  153.6149 O   0  0  0  0  0  0  0  0  0  0  0  0
  149.3018  139.1004  155.6882 H   0  0  0  0  0  0  0  0  0  0  0  0
  148.5828  140.2497  156.8140 H   0  0  0  0  0  0  0  0  0  0  0  0
  150.2342  139.6867  157.0532 H   0  0  0  0  0  0  0  0  0  0  0  0
  150.9349  140.8282  154.9278 H   0  0  0  0  0  0  0  0  0  0  0  0
  149.9623  143.1803  156.0325 H   0  0  0  0  0  0  0  0  0  0  0  0
  152.9629  141.9955  161.8605 H   0  0  0  0  0  0  0  0  0  0  0  0
  152.7114  144.6090  162.4692 H   0  0  0  0  0  0  0  0  0  0  0  0
  149.4634  142.3043  153.6856 H   0  0  0  0  0  0  0  0  0  0  0  0
  147.3840  141.6474  155.8172 H   0  0  0  0  0  0  0  0  0  0  0  0
  147.8277  143.2503  155.2151 H   0  0  0  0  0  0  0  0  0  0  0  0
  145.7090  142.0207  154.1039 H   0  0  0  0  0  0  0  0  0  0  0  0
  146.9086  142.7546  153.0319 H   0  0  0  0  0  0  0  0  0  0  0  0
  146.6145  139.8299  153.7523 H   0  0  0  0  0  0  0  0  0  0  0  0
  147.0345  140.5365  152.1900 H   0  0  0  0  0  0  0  0  0  0  0  0
  1  2  1  0  0  0  0
  1 17  1  0  0  0  0
  1 18  1  0  0  0  0
  1 19  1  0  0  0  0
  2  3  1  0  0  0  0
  2 12  1  0  0  0  0
  2 20  1  0  0  0  0
  3  4  1  0  0  0  0
  3 21  1  0  0  0  0
  4  5  2  0  0  0  0
  4  6  1  0  0  0  0
  6  7  1  0  0  0  0
  7 11  1  0  0  0  0
  7  8  2  0  0  0  0
  8  9  1  0  0  0  0
  9 10  2  0  0  0  0
  9 22  1  0  0  0  0
 10 11  1  0  0  0  0
 10 23  1  0  0  0  0
 12 16  1  0  0  0  0
 12 13  1  0  0  0  0
 12 24  1  0  0  0  0
 13 14  1  0  0  0  0
 13 25  1  0  0  0  0
 13 26  1  0  0  0  0
 14 15  1  0  0  0  0
 14 27  1  0  0  0  0
 14 28  1  0  0  0  0
 15 16  1  0  0  0  0
 15 29  1  0  0  0  0
 15 30  1  0  0  0  0
M  CHG  1   6  -1
M  END
> <s_m_source_file>
AV-unprocessed.smi

> <i_m_source_file_index>
2093

> <i_lp_mmshare_version>
43012

> <i_f3d_flags>
0

> <s_epik_input>
TzFbQ0gyXVtDSDJdW0NIMl1bQ0BIXTFbQ0BIXShbQ0gzXSlbTkhdQyg9TylbTkhdYzJuW2NIXVtjSF1zMg==

> <s_epik_cmdline>
J2VwaWtfcHl0aG9uJywgJy1waCcsICc3LjAnLCAnLXRuJywgJzgnLCAnLW1hJywgJzIwMCcsICctbWV0YWxfYmluZGluZycsICctaW1hZScsICc8aW5maWxlLm1hZT4nLCAnLW9tYWUnLCAnPG91dGZpbGUubWFlPic=

> <r_lp_tautomer_probability>
0.999

> <r_epik_Ionization_Penalty>
8.26346

> <r_epik_Ionization_Penalty_Charging>
6.6559

> <r_epik_Ionization_Penalty_Neutral>
1.60756

> <r_epik_State_Penalty>
6.65607

> <r_epik_Charging_Adjusted_Penalty>
13.312

> <i_epik_Tot_Q>
-1

> <i_epik_Tot_abs_Q>
1

> <r_epik_Metal_State_Penalty>
2.5789

> <b_epik_Metal_Only>
1

> <s_lp_Force_Field>
OPLS_2005

> <r_lp_Energy>
13.8271

> <b_lp_Chiralities_Consistent>
1

> <s_lp_Variant>
AV-unprocessed.smi:2093-5

> <Gold.Version>
5.8.1

> <Gold.Id.Protein>
6NUR|6NUR_protein|mol2

> <Gold.PLP.Fitness>
35.3664

> <Gold.PLP.PLP>
-32.6565

> <Gold.PLP.part.hbond>
-1.0000

> <Gold.PLP.part.metal>
0.0000

> <Gold.PLP.part.buried>
-4.0073

> <Gold.PLP.part.nonpolar>
-29.9858

> <Gold.PLP.part.repulsive>
2.7719

> <Gold.PLP.ligand.clash>
0.0000

> <Gold.PLP.ligand.torsion>
0.1589

> <Gold.PLP.Chemscore.Hbond>
1.0000

> <Gold.PLP.Chemscore.CHOScore>
0.0000

> <Gold.PLP.Chemscore.Metal>
0.0000

> <Gold.Chemscore.Hbonds>
donor molecule, donor type, donor heavy atom, donor atom, acceptor molecule, acceptor atom, score
      L1  H     3    21       P1  8028  1.00

> <Gold.PLP.Chemscore.Internal.Correction>
0.0276

> <Gold.Rescore>
     Score         DG    S(hbond)    S(metal)    S(lipo)     H(rot)  DE(clash)    DE(int)     intcor
      9.63     -14.30       0.98        0.00      75.44       1.28       1.61       3.06       ----

> <Gold.Chemscore.Fitness>
9.6252

> <Gold.Chemscore.DG>
-14.3029

> <Gold.Chemscore.ZeroCoef>
-5.4800

> <Gold.Chemscore.Hbond>
0.9784

> <Gold.Chemscore.Metal>
0.0000

> <Gold.Chemscore.Lipo>
75.4358

> <Gold.Chemscore.Internal_Hbond>
0.0000

> <Gold.Chemscore.DEClash>
1.6137

> <Gold.Chemscore.DEInternal>
3.0639

> <Gold.Chemscore.Rot>
1.2778

> <Gold.Chemscore.Internal.Correction>
   9.000000E+99

> <Gold.Chemscore.Hbonds>
donor molecule, donor type, donor heavy atom, donor atom, acceptor molecule, acceptor atom, score
      L1  H     3    21       P1  8028  1.00

> <Gold.Chemscore.Hbond.Weighted>
-3.2680

> <Gold.Chemscore.Metal.Weighted>
-0.0000

> <Gold.Chemscore.Lipo.Weighted>
-8.8260

> <Gold.Chemscore.Internal_Hbond.Weighted>
0.0000

> <Gold.Chemscore.DEClash.Weighted>
1.6137

> <Gold.Chemscore.DEInternal.Weighted>
3.0639

> <Gold.Chemscore.Rot.Weighted>
3.2711

> <Gold.Chemscore.Internal.Correction.Weighted>
   9.000000E+99

> <Gold.Protein.RotatedTorsions>
[ 6907 6896 6895 6894 ] final   82.44 input  -60.11 | X-H torsion
[ 7974 7965 7964 7962 ] final  -75.56 input  175.53 | X-H torsion
[ 8008 7997 7996 7995 ] final  -59.12 input   59.86 | X-H torsion
[ 10167 10162 10161 10158 ] final  161.04 input  -65.29 | X-H torsion
[ 10718 10713 10712 10709 ] final  167.10 input   66.30 | X-H torsion
[ 10763 10752 10751 10750 ] final   14.20 input  -60.55 | X-H torsion
[ 11005 11000 10999 10996 ] final   -5.69 input  -57.11 | X-H torsion

> <Gold.Protein.ActiveResidues>
 VAL166  LYS551  ARG553  GLY616  TRP617  ASP618  TYR619  PRO620  LYS621  CYS622 
 ASP623  PHE694  ASN695  SER759  ASP760  ASP761  ALA762  ILE779  LEU786  VAL792 
 PHE793  MET794  SER795  GLU796  ALA797  LYS798  CYS799  TRP800  GLU811  SER814 

> <Gold.Protein.RotatedAtoms>
  152.5299  134.3050  159.9092 H   0  0  0  0  0  0  0  0  0  0  0  0  # atno 6907 bound_to 6896
  151.3000  133.4120  159.2647 H   0  0  0  0  0  0  0  0  0  0  0  0  # atno 6908 bound_to 6896
  151.0127  134.9425  159.8073 H   0  0  0  0  0  0  0  0  0  0  0  0  # atno 6909 bound_to 6896
  145.6244  140.9354  143.1121 H   0  0  0  0  0  0  0  0  0  0  0  0  # atno 7974 bound_to 7965
  154.4338  140.1069  156.6064 H   0  0  0  0  0  0  0  0  0  0  0  0  # atno 8008 bound_to 7997
  155.5856  140.3491  155.4533 H   0  0  0  0  0  0  0  0  0  0  0  0  # atno 8009 bound_to 7997
  156.0286  140.1255  157.0272 H   0  0  0  0  0  0  0  0  0  0  0  0  # atno 8010 bound_to 7997
  139.4845  144.4575  151.8749 H   0  0  0  0  0  0  0  0  0  0  0  0  # atno 10167 bound_to 10162
  157.0563  131.0327  151.2663 H   0  0  0  0  0  0  0  0  0  0  0  0  # atno 10718 bound_to 10713
  153.1645  135.6801  153.8695 H   0  0  0  0  0  0  0  0  0  0  0  0  # atno 10763 bound_to 10752
  153.8079  135.3147  155.3398 H   0  0  0  0  0  0  0  0  0  0  0  0  # atno 10764 bound_to 10752
  154.7956  135.4809  154.0242 H   0  0  0  0  0  0  0  0  0  0  0  0  # atno 10765 bound_to 10752
  140.6939  133.9048  155.8637 H   0  0  0  0  0  0  0  0  0  0  0  0  # atno 11005 bound_to 11000
  144.7218  139.8005  143.7379 LP  0  0  0  0  0  0  0  0  0  0  0  0  # atno 17320 bound_to 7965
  146.1406  139.4462  143.0111 LP  0  0  0  0  0  0  0  0  0  0  0  0  # atno 17321 bound_to 7965
  140.4035  144.2462  150.5892 LP  0  0  0  0  0  0  0  0  0  0  0  0  # atno 17342 bound_to 10162
  140.5034  143.2311  151.8644 LP  0  0  0  0  0  0  0  0  0  0  0  0  # atno 17343 bound_to 10162
  157.4990  130.7868  149.7585 LP  0  0  0  0  0  0  0  0  0  0  0  0  # atno 17370 bound_to 10713
  155.9992  130.3890  150.2673 LP  0  0  0  0  0  0  0  0  0  0  0  0  # atno 17371 bound_to 10713
  141.0219  134.0877  157.4111 LP  0  0  0  0  0  0  0  0  0  0  0  0  # atno 17394 bound_to 11000
  139.8916  135.0119  156.6798 LP  0  0  0  0  0  0  0  0  0  0  0  0  # atno 17395 bound_to 11000

$$$$
