AV-unprocessed.smi:1486|AV-procd|sdf|6006|dock6
  -GOLD-   22720 6103D 1   1.00000     0.00000
 Structure written by MMmdl.
 39 40  0  0  0  0  0  0  0  0  1 V2000
  153.7542  136.3193  163.9203 C   0  0  0  0  0  0  0  0  0  0  0  0
  154.4738  136.9933  162.9030 O   0  0  0  0  0  0  0  0  0  0  0  0
  153.6676  137.2923  161.7746 C   0  0  0  0  0  0  0  0  0  0  0  0
  154.4771  137.0560  160.4905 C   0  0  1  0  0  0  0  0  0  0  0  0
  155.1111  135.6559  160.4738 C   0  0  0  0  0  0  0  0  0  0  0  0
  153.6123  137.2270  159.3262 N   0  0  0  0  0  0  0  0  0  0  0  0
  153.7916  138.1341  158.3531 C   0  0  0  0  0  0  0  0  0  0  0  0
  154.7223  138.9397  158.3381 O   0  0  0  0  0  0  0  0  0  0  0  0
  152.7669  138.1304  157.2183 C   0  0  0  0  0  0  0  0  0  0  0  0
  152.1572  139.4940  157.0639 C   0  0  0  0  0  0  0  0  0  0  0  0
  151.4233  139.9529  155.9968 C   0  0  0  0  0  0  0  0  0  0  0  0
  150.9050  141.6007  156.2192 S   0  0  0  0  0  0  0  0  0  0  0  0
  151.7274  141.6129  157.7822 C   0  0  0  0  0  0  0  0  0  0  0  0
  151.8009  142.7111  158.6905 N   0  0  0  0  0  0  0  0  0  0  0  0
  151.4670  144.0719  158.2804 C   0  0  0  0  0  0  0  0  0  0  0  0
  151.4351  144.9030  159.5674 C   0  0  0  0  0  0  0  0  0  0  0  0
  152.1406  144.0472  160.6172 C   0  0  0  0  0  0  0  0  0  0  0  0
  152.1899  142.6694  159.9774 C   0  0  0  0  0  0  0  0  0  0  0  0
  152.5542  141.6803  160.6114 O   0  0  0  0  0  0  0  0  0  0  0  0
  152.3235  140.4507  158.0713 N   0  0  0  0  0  0  0  0  0  0  0  0
  154.4156  136.1116  164.7614 H   0  0  0  0  0  0  0  0  0  0  0  0
  153.3595  135.3684  163.5603 H   0  0  0  0  0  0  0  0  0  0  0  0
  152.9249  136.9267  164.2855 H   0  0  0  0  0  0  0  0  0  0  0  0
  152.7872  136.6474  161.7801 H   0  0  0  0  0  0  0  0  0  0  0  0
  153.3162  138.3246  161.8208 H   0  0  0  0  0  0  0  0  0  0  0  0
  155.2780  137.7970  160.4581 H   0  0  0  0  0  0  0  0  0  0  0  0
  155.7682  135.5135  161.3319 H   0  0  0  0  0  0  0  0  0  0  0  0
  155.7099  135.5026  159.5753 H   0  0  0  0  0  0  0  0  0  0  0  0
  154.3502  134.8752  160.5039 H   0  0  0  0  0  0  0  0  0  0  0  0
  152.8167  136.6089  159.2564 H   0  0  0  0  0  0  0  0  0  0  0  0
  153.2492  137.8072  156.2946 H   0  0  0  0  0  0  0  0  0  0  0  0
  151.9950  137.3913  157.4357 H   0  0  0  0  0  0  0  0  0  0  0  0
  151.1541  139.4189  155.0974 H   0  0  0  0  0  0  0  0  0  0  0  0
  152.2383  144.4396  157.6021 H   0  0  0  0  0  0  0  0  0  0  0  0
  150.5090  144.1130  157.7602 H   0  0  0  0  0  0  0  0  0  0  0  0
  151.9152  145.8734  159.4369 H   0  0  0  0  0  0  0  0  0  0  0  0
  150.4032  145.0842  159.8717 H   0  0  0  0  0  0  0  0  0  0  0  0
  153.1573  144.3978  160.7980 H   0  0  0  0  0  0  0  0  0  0  0  0
  151.6019  144.0299  161.5651 H   0  0  0  0  0  0  0  0  0  0  0  0
  1  2  1  0  0  0  0
  1 21  1  0  0  0  0
  1 22  1  0  0  0  0
  1 23  1  0  0  0  0
  2  3  1  0  0  0  0
  3  4  1  0  0  0  0
  3 24  1  0  0  0  0
  3 25  1  0  0  0  0
  4  5  1  0  0  0  0
  4  6  1  0  0  0  0
  4 26  1  0  0  0  0
  5 27  1  0  0  0  0
  5 28  1  0  0  0  0
  5 29  1  0  0  0  0
  6  7  1  0  0  0  0
  6 30  1  0  0  0  0
  7  8  2  0  0  0  0
  7  9  1  0  0  0  0
  9 10  1  0  0  0  0
  9 31  1  0  0  0  0
  9 32  1  0  0  0  0
 10 20  1  0  0  0  0
 10 11  2  0  0  0  0
 11 12  1  0  0  0  0
 11 33  1  0  0  0  0
 12 13  1  0  0  0  0
 13 14  1  0  0  0  0
 13 20  2  0  0  0  0
 14 18  1  0  0  0  0
 14 15  1  0  0  0  0
 15 16  1  0  0  0  0
 15 34  1  0  0  0  0
 15 35  1  0  0  0  0
 16 17  1  0  0  0  0
 16 36  1  0  0  0  0
 16 37  1  0  0  0  0
 17 18  1  0  0  0  0
 17 38  1  0  0  0  0
 17 39  1  0  0  0  0
 18 19  2  0  0  0  0
M  END
> <s_m_source_file>
AV-unprocessed.smi

> <i_m_source_file_index>
1486

> <i_lp_mmshare_version>
43012

> <i_f3d_flags>
0

> <s_epik_input>
W0NIM11PW0NIMl1bQ0BIXShbQ0gzXSlbTkhdQyg9TylbQ0gyXWMxW2NIXXNjKG4xKU4yW0NIMl1bQ0gyXVtDSDJdQzI9Tw==

> <s_epik_cmdline>
J2VwaWtfcHl0aG9uJywgJy1waCcsICc3LjAnLCAnLXRuJywgJzgnLCAnLW1hJywgJzIwMCcsICctbWV0YWxfYmluZGluZycsICctaW1hZScsICc8aW5maWxlLm1hZT4nLCAnLW9tYWUnLCAnPG91dGZpbGUubWFlPic=

> <r_lp_tautomer_probability>
1

> <r_epik_Ionization_Penalty>
3.00988e-05

> <r_epik_Ionization_Penalty_Charging>
0

> <r_epik_Ionization_Penalty_Neutral>
3.00988e-05

> <r_epik_State_Penalty>
-0

> <r_epik_Charging_Adjusted_Penalty>
0

> <i_epik_Tot_Q>
0

> <i_epik_Tot_abs_Q>
0

> <r_epik_Metal_State_Penalty>
-0

> <b_epik_Metal_Only>
0

> <s_lp_Force_Field>
OPLS_2005

> <r_lp_Energy>
17.9426

> <b_lp_Chiralities_Consistent>
1

> <s_lp_Variant>
AV-unprocessed.smi:1486-2

> <Gold.Version>
5.8.1

> <Gold.Id.Protein>
6NUR|6NUR_protein|mol2

> <Gold.PLP.Fitness>
42.1476

> <Gold.PLP.PLP>
-40.3084

> <Gold.PLP.part.hbond>
-1.1279

> <Gold.PLP.part.metal>
0.0000

> <Gold.PLP.part.buried>
-6.4914

> <Gold.PLP.part.nonpolar>
-32.1347

> <Gold.PLP.part.repulsive>
0.0797

> <Gold.PLP.ligand.clash>
0.0000

> <Gold.PLP.ligand.torsion>
0.6078

> <Gold.PLP.Chemscore.Hbond>
1.0000

> <Gold.PLP.Chemscore.CHOScore>
0.0000

> <Gold.PLP.Chemscore.Metal>
0.0000

> <Gold.Chemscore.Hbonds>
donor molecule, donor type, donor heavy atom, donor atom, acceptor molecule, acceptor atom, score
      P1  H  7997  8010       L1     8  0.98

> <Gold.PLP.Chemscore.Internal.Correction>
0.0548

> <Gold.Rescore>
     Score         DG    S(hbond)    S(metal)    S(lipo)     H(rot)  DE(clash)    DE(int)     intcor
     10.67     -13.82       1.00        0.00      85.21       1.94       0.04       3.11       ----

> <Gold.Chemscore.Fitness>
10.6670

> <Gold.Chemscore.DG>
-13.8184

> <Gold.Chemscore.ZeroCoef>
-5.4800

> <Gold.Chemscore.Hbond>
0.9963

> <Gold.Chemscore.Metal>
0.0000

> <Gold.Chemscore.Lipo>
85.2147

> <Gold.Chemscore.Internal_Hbond>
0.0000

> <Gold.Chemscore.DEClash>
0.0399

> <Gold.Chemscore.DEInternal>
3.1114

> <Gold.Chemscore.Rot>
1.9373

> <Gold.Chemscore.Internal.Correction>
   9.000000E+99

> <Gold.Chemscore.Hbonds>
donor molecule, donor type, donor heavy atom, donor atom, acceptor molecule, acceptor atom, score
      P1  H  7997  8010       L1     8  0.91

> <Gold.Chemscore.Hbond.Weighted>
-3.3277

> <Gold.Chemscore.Metal.Weighted>
-0.0000

> <Gold.Chemscore.Lipo.Weighted>
-9.9701

> <Gold.Chemscore.Internal_Hbond.Weighted>
0.0000

> <Gold.Chemscore.DEClash.Weighted>
0.0399

> <Gold.Chemscore.DEInternal.Weighted>
3.1114

> <Gold.Chemscore.Rot.Weighted>
4.9594

> <Gold.Chemscore.Internal.Correction.Weighted>
   9.000000E+99

> <Gold.Protein.RotatedTorsions>
[ 6907 6896 6895 6894 ] final -169.06 input  -60.11 | X-H torsion
[ 7974 7965 7964 7962 ] final -164.92 input  175.53 | X-H torsion
[ 8008 7997 7996 7995 ] final   -3.99 input   59.86 | X-H torsion
[ 10167 10162 10161 10158 ] final -168.35 input  -65.29 | X-H torsion
[ 10718 10713 10712 10709 ] final  -34.57 input   66.30 | X-H torsion
[ 10763 10752 10751 10750 ] final  102.81 input  -60.55 | X-H torsion
[ 11005 11000 10999 10996 ] final    0.72 input  -57.11 | X-H torsion

> <Gold.Protein.ActiveResidues>
 VAL166  LYS551  ARG553  GLY616  TRP617  ASP618  TYR619  PRO620  LYS621  CYS622 
 ASP623  PHE694  ASN695  SER759  ASP760  ASP761  ALA762  ILE779  LEU786  VAL792 
 PHE793  MET794  SER795  GLU796  ALA797  LYS798  CYS799  TRP800  GLU811  SER814 

> <Gold.Protein.RotatedAtoms>
  151.4855  133.3536  159.2844 H   0  0  0  0  0  0  0  0  0  0  0  0  # atno 6907 bound_to 6896
  150.8869  134.8270  159.7276 H   0  0  0  0  0  0  0  0  0  0  0  0  # atno 6908 bound_to 6896
  152.4798  134.4760  159.9702 H   0  0  0  0  0  0  0  0  0  0  0  0  # atno 6909 bound_to 6896
  144.7284  140.2890  143.6223 H   0  0  0  0  0  0  0  0  0  0  0  0  # atno 7974 bound_to 7965
  154.6190  140.2495  155.7573 H   0  0  0  0  0  0  0  0  0  0  0  0  # atno 8008 bound_to 7997
  156.2416  140.2930  156.0408 H   0  0  0  0  0  0  0  0  0  0  0  0  # atno 8009 bound_to 7997
  155.1927  140.0392  157.2893 H   0  0  0  0  0  0  0  0  0  0  0  0  # atno 8010 bound_to 7997
  139.5991  144.1049  152.1722 H   0  0  0  0  0  0  0  0  0  0  0  0  # atno 10167 bound_to 10162
  156.3490  130.4305  149.7721 H   0  0  0  0  0  0  0  0  0  0  0  0  # atno 10718 bound_to 10713
  153.3444  135.3998  155.1597 H   0  0  0  0  0  0  0  0  0  0  0  0  # atno 10763 bound_to 10752
  154.8650  135.3641  154.5303 H   0  0  0  0  0  0  0  0  0  0  0  0  # atno 10764 bound_to 10752
  153.5751  135.7078  153.5547 H   0  0  0  0  0  0  0  0  0  0  0  0  # atno 10765 bound_to 10752
  140.6234  133.9640  155.8236 H   0  0  0  0  0  0  0  0  0  0  0  0  # atno 11005 bound_to 11000
  145.7874  139.1914  143.2123 LP  0  0  0  0  0  0  0  0  0  0  0  0  # atno 17320 bound_to 7965
  146.0784  140.7791  142.9653 LP  0  0  0  0  0  0  0  0  0  0  0  0  # atno 17321 bound_to 7965
  140.0641  144.5832  150.7241 LP  0  0  0  0  0  0  0  0  0  0  0  0  # atno 17342 bound_to 10162
  140.7235  143.2612  151.4198 LP  0  0  0  0  0  0  0  0  0  0  0  0  # atno 17343 bound_to 10162
  156.4928  130.8093  151.3102 LP  0  0  0  0  0  0  0  0  0  0  0  0  # atno 17370 bound_to 10713
  157.7458  130.9970  150.2799 LP  0  0  0  0  0  0  0  0  0  0  0  0  # atno 17371 bound_to 10713
  141.0726  134.0182  157.3504 LP  0  0  0  0  0  0  0  0  0  0  0  0  # atno 17394 bound_to 11000
  139.9144  135.0195  156.7823 LP  0  0  0  0  0  0  0  0  0  0  0  0  # atno 17395 bound_to 11000

$$$$
