AV-unprocessed.smi:3132|AV-procd|sdf|11930|dock2
  -GOLD-   2272017313D 1   1.00000     0.00000
 Structure written by MMmdl.
 34 35  0  0  0  0  0  0  0  0  2 V2000
  152.9663  139.7572  159.4733 C   0  0  0  0  0  0  0  0  0  0  0  0
  152.2260  141.1011  159.4868 C   0  0  1  0  0  0  0  0  0  0  0  0
  153.1328  142.2315  160.0213 C   0  0  0  0  0  0  0  0  0  0  0  0
  152.4126  143.4877  160.2546 N   0  0  0  0  0  0  0  0  0  0  0  0
  151.9614  144.3768  159.3128 C   0  0  0  0  0  0  0  0  0  0  0  0
  151.3413  145.3899  159.9979 C   0  0  0  0  0  0  0  0  0  0  0  0
  151.4460  145.0797  161.3273 N   0  3  0  0  0  0  0  0  0  0  0  0
  152.1026  143.9254  161.4816 C   0  0  0  0  0  0  0  0  0  0  0  0
  151.7572  141.3933  158.1328 N   0  0  0  0  0  0  0  0  0  0  0  0
  150.9652  140.6063  157.3870 C   0  0  0  0  0  0  0  0  0  0  0  0
  150.5184  139.5291  157.7837 O   0  0  0  0  0  0  0  0  0  0  0  0
  150.6327  141.1194  155.9781 C   0  0  2  0  0  0  0  0  0  0  0  0
  149.1204  141.2661  155.7148 C   0  0  0  0  0  0  0  0  0  0  0  0
  148.8602  140.3693  154.5167 C   0  0  0  0  0  0  0  0  0  0  0  0
  150.0045  139.3692  154.5879 C   0  0  0  0  0  0  0  0  0  0  0  0
  151.0957  140.1683  155.0205 O   0  0  0  0  0  0  0  0  0  0  0  0
  153.2995  139.4829  160.4744 H   0  0  0  0  0  0  0  0  0  0  0  0
  153.8452  139.7937  158.8285 H   0  0  0  0  0  0  0  0  0  0  0  0
  152.3204  138.9559  159.1123 H   0  0  0  0  0  0  0  0  0  0  0  0
  151.3691  140.9872  160.1534 H   0  0  0  0  0  0  0  0  0  0  0  0
  153.5853  141.9388  160.9698 H   0  0  0  0  0  0  0  0  0  0  0  0
  153.9526  142.4316  159.3297 H   0  0  0  0  0  0  0  0  0  0  0  0
  152.1047  144.2230  158.2531 H   0  0  0  0  0  0  0  0  0  0  0  0
  150.8463  146.2844  159.6485 H   0  0  0  0  0  0  0  0  0  0  0  0
  152.3282  143.4377  162.4132 H   0  0  0  0  0  0  0  0  0  0  0  0
  152.0803  142.2562  157.7191 H   0  0  0  0  0  0  0  0  0  0  0  0
  151.1445  142.0654  155.7945 H   0  0  0  0  0  0  0  0  0  0  0  0
  148.5200  140.9392  156.5651 H   0  0  0  0  0  0  0  0  0  0  0  0
  148.8432  142.2995  155.5037 H   0  0  0  0  0  0  0  0  0  0  0  0
  147.8785  139.8958  154.5409 H   0  0  0  0  0  0  0  0  0  0  0  0
  148.9359  140.9491  153.5958 H   0  0  0  0  0  0  0  0  0  0  0  0
  149.7977  138.5899  155.3228 H   0  0  0  0  0  0  0  0  0  0  0  0
  150.2103  138.8928  153.6293 H   0  0  0  0  0  0  0  0  0  0  0  0
  151.0784  145.6397  162.0864 H   0  0  0  0  0  0  0  0  0  0  0  0
  1  2  1  0  0  0  0
  1 17  1  0  0  0  0
  1 18  1  0  0  0  0
  1 19  1  0  0  0  0
  2  3  1  0  0  0  0
  2  9  1  0  0  0  0
  2 20  1  0  0  0  0
  3  4  1  0  0  0  0
  3 21  1  0  0  0  0
  3 22  1  0  0  0  0
  4  8  1  0  0  0  0
  4  5  1  0  0  0  0
  5  6  2  0  0  0  0
  5 23  1  0  0  0  0
  6  7  1  0  0  0  0
  6 24  1  0  0  0  0
  7  8  2  0  0  0  0
  7 34  1  0  0  0  0
  8 25  1  0  0  0  0
  9 10  1  0  0  0  0
  9 26  1  0  0  0  0
 10 11  2  0  0  0  0
 10 12  1  0  0  0  0
 12 16  1  0  0  0  0
 12 13  1  0  0  0  0
 12 27  1  0  0  0  0
 13 14  1  0  0  0  0
 13 28  1  0  0  0  0
 13 29  1  0  0  0  0
 14 15  1  0  0  0  0
 14 30  1  0  0  0  0
 14 31  1  0  0  0  0
 15 16  1  0  0  0  0
 15 32  1  0  0  0  0
 15 33  1  0  0  0  0
M  CHG  1   7   1
M  END
> <s_m_source_file>
AV-unprocessed.smi

> <i_m_source_file_index>
3132

> <i_lp_mmshare_version>
43012

> <i_f3d_flags>
0

> <s_epik_input>
W2NIXTFuW2NIXVtjSF1uMVtDSDJdW0NAQEhdKFtDSDNdKVtOSF1DKD1PKVtDQEBIXTJbQ0gyXVtDSDJdW0NIMl1PMg==

> <s_epik_cmdline>
J2VwaWtfcHl0aG9uJywgJy1waCcsICc3LjAnLCAnLXRuJywgJzgnLCAnLW1hJywgJzIwMCcsICctbWV0YWxfYmluZGluZycsICctaW1hZScsICc8aW5maWxlLm1hZT4nLCAnLW9tYWUnLCAnPG91dGZpbGUubWFlPic=

> <r_lp_tautomer_probability>
1

> <r_epik_Ionization_Penalty>
0.250802

> <r_epik_Ionization_Penalty_Charging>
0

> <r_epik_Ionization_Penalty_Neutral>
0.250802

> <r_epik_State_Penalty>
0.242139

> <r_epik_Charging_Adjusted_Penalty>
0.242139

> <i_epik_Tot_Q>
1

> <i_epik_Tot_abs_Q>
1

> <r_epik_Metal_State_Penalty>
0.533361

> <b_epik_Metal_Only>
0

> <s_lp_Force_Field>
OPLS_2005

> <r_lp_Energy>
21.4246

> <b_lp_Chiralities_Consistent>
1

> <s_lp_Variant>
AV-unprocessed.smi:3132-2

> <Gold.Version>
5.8.1

> <Gold.Id.Protein>
6NUR|6NUR_protein|mol2

> <Gold.PLP.Fitness>
44.3778

> <Gold.PLP.PLP>
-41.7904

> <Gold.PLP.part.hbond>
-2.0000

> <Gold.PLP.part.metal>
0.0000

> <Gold.PLP.part.buried>
-6.7130

> <Gold.PLP.part.nonpolar>
-34.2088

> <Gold.PLP.part.repulsive>
0.2464

> <Gold.PLP.ligand.clash>
0.0000

> <Gold.PLP.ligand.torsion>
0.2248

> <Gold.PLP.Chemscore.Hbond>
1.0000

> <Gold.PLP.Chemscore.CHOScore>
0.0000

> <Gold.PLP.Chemscore.Metal>
0.0000

> <Gold.Chemscore.Hbonds>
donor molecule, donor type, donor heavy atom, donor atom, acceptor molecule, acceptor atom, score
      P1  H  7989  7998       L1    16  1.00

> <Gold.PLP.Chemscore.Internal.Correction>
0.0371

> <Gold.Rescore>
     Score         DG    S(hbond)    S(metal)    S(lipo)     H(rot)  DE(clash)    DE(int)     intcor
     11.42     -12.28       0.94        0.00      73.60       1.93       0.72       0.14       ----

> <Gold.Chemscore.Fitness>
11.4190

> <Gold.Chemscore.DG>
-12.2784

> <Gold.Chemscore.ZeroCoef>
-5.4800

> <Gold.Chemscore.Hbond>
0.9371

> <Gold.Chemscore.Metal>
0.0000

> <Gold.Chemscore.Lipo>
73.6016

> <Gold.Chemscore.Internal_Hbond>
0.0000

> <Gold.Chemscore.DEClash>
0.7168

> <Gold.Chemscore.DEInternal>
0.1426

> <Gold.Chemscore.Rot>
1.9308

> <Gold.Chemscore.Internal.Correction>
   9.000000E+99

> <Gold.Chemscore.Hbonds>
donor molecule, donor type, donor heavy atom, donor atom, acceptor molecule, acceptor atom, score
      P1  H  7989  7998       L1    16  0.30

> <Gold.Chemscore.Hbond.Weighted>
-3.1299

> <Gold.Chemscore.Metal.Weighted>
-0.0000

> <Gold.Chemscore.Lipo.Weighted>
-8.6114

> <Gold.Chemscore.Internal_Hbond.Weighted>
0.0000

> <Gold.Chemscore.DEClash.Weighted>
0.7168

> <Gold.Chemscore.DEInternal.Weighted>
0.1426

> <Gold.Chemscore.Rot.Weighted>
4.9429

> <Gold.Chemscore.Internal.Correction.Weighted>
   9.000000E+99

> <Gold.Protein.RotatedTorsions>
[ 6907 6896 6895 6894 ] final   -6.02 input  -60.11 | X-H torsion
[ 7974 7965 7964 7962 ] final  -78.17 input  175.53 | X-H torsion
[ 8008 7997 7996 7995 ] final -139.23 input   59.86 | X-H torsion
[ 10167 10162 10161 10158 ] final  121.20 input  -65.29 | X-H torsion
[ 10718 10713 10712 10709 ] final  -54.82 input   66.30 | X-H torsion
[ 10763 10752 10751 10750 ] final -171.90 input  -60.55 | X-H torsion
[ 11005 11000 10999 10996 ] final   28.39 input  -57.11 | X-H torsion

> <Gold.Protein.ActiveResidues>
 VAL166  LYS551  ARG553  GLY616  TRP617  ASP618  TYR619  PRO620  LYS621  CYS622 
 ASP623  PHE694  ASN695  SER759  ASP760  ASP761  ALA762  ILE779  LEU786  VAL792 
 PHE793  MET794  SER795  GLU796  ALA797  LYS798  CYS799  TRP800  GLU811  SER814 

> <Gold.Protein.RotatedAtoms>
  151.4723  135.1046  159.9754 H   0  0  0  0  0  0  0  0  0  0  0  0  # atno 6907 bound_to 6896
  152.4812  133.8254  159.7086 H   0  0  0  0  0  0  0  0  0  0  0  0  # atno 6908 bound_to 6896
  150.8885  133.7214  159.2938 H   0  0  0  0  0  0  0  0  0  0  0  0  # atno 6909 bound_to 6896
  145.5900  140.9431  143.1297 H   0  0  0  0  0  0  0  0  0  0  0  0  # atno 7974 bound_to 7965
  155.4414  140.0532  157.3010 H   0  0  0  0  0  0  0  0  0  0  0  0  # atno 8008 bound_to 7997
  154.4816  140.2084  155.9706 H   0  0  0  0  0  0  0  0  0  0  0  0  # atno 8009 bound_to 7997
  156.1215  140.3187  155.8219 H   0  0  0  0  0  0  0  0  0  0  0  0  # atno 8010 bound_to 7997
  139.5934  144.7033  151.3235 H   0  0  0  0  0  0  0  0  0  0  0  0  # atno 10167 bound_to 10162
  156.1419  130.4154  150.0089 H   0  0  0  0  0  0  0  0  0  0  0  0  # atno 10718 bound_to 10713
  154.6254  135.2880  155.0278 H   0  0  0  0  0  0  0  0  0  0  0  0  # atno 10763 bound_to 10752
  154.1458  135.6511  153.4956 H   0  0  0  0  0  0  0  0  0  0  0  0  # atno 10764 bound_to 10752
  153.0255  135.5344  154.7060 H   0  0  0  0  0  0  0  0  0  0  0  0  # atno 10765 bound_to 10752
  140.3161  134.2595  155.7725 H   0  0  0  0  0  0  0  0  0  0  0  0  # atno 11005 bound_to 11000
  144.7355  139.7598  143.7331 LP  0  0  0  0  0  0  0  0  0  0  0  0  # atno 17320 bound_to 7965
  146.1653  139.4783  142.9962 LP  0  0  0  0  0  0  0  0  0  0  0  0  # atno 17321 bound_to 7965
  140.7192  143.7183  150.7716 LP  0  0  0  0  0  0  0  0  0  0  0  0  # atno 17342 bound_to 10162
  140.0744  143.5030  152.2563 LP  0  0  0  0  0  0  0  0  0  0  0  0  # atno 17343 bound_to 10162
  156.7972  130.9277  151.3646 LP  0  0  0  0  0  0  0  0  0  0  0  0  # atno 17370 bound_to 10713
  157.6583  130.8943  149.9775 LP  0  0  0  0  0  0  0  0  0  0  0  0  # atno 17371 bound_to 10713
  141.2097  133.7740  156.9978 LP  0  0  0  0  0  0  0  0  0  0  0  0  # atno 17394 bound_to 11000
  140.0982  134.9551  157.1883 LP  0  0  0  0  0  0  0  0  0  0  0  0  # atno 17395 bound_to 11000

$$$$
