AV-unprocessed.smi:1890|AV-procd|sdf|7664|dock6
  -GOLD-   22720 9403D 1   1.00000     0.00000
 Structure written by MMmdl.
 51 52  0  0  0  0  0  0  0  0  1 V2000
  152.2988  141.0074  159.5850 C   0  0  0  0  0  0  0  0  0  0  0  0
  151.0093  141.5095  158.9168 C   0  0  0  0  0  0  0  0  0  0  0  0
  151.1193  141.6137  157.4610 N   0  0  0  0  0  0  0  0  0  0  0  0
  151.3615  142.9461  156.9053 C   0  0  0  0  0  0  0  0  0  0  0  0
  152.1420  143.8543  157.8670 C   0  0  0  0  0  0  0  0  0  0  0  0
  150.3880  140.7261  156.6361 C   0  0  0  0  0  0  0  0  0  0  0  0
  149.5320  139.7297  157.1676 C   0  0  0  0  0  0  0  0  0  0  0  0
  148.8259  138.8893  156.2864 C   0  0  0  0  0  0  0  0  0  0  0  0
  148.9897  139.0499  154.8975 C   0  0  0  0  0  0  0  0  0  0  0  0
  148.2419  138.2032  154.0350 N   0  0  0  0  0  0  0  0  0  0  0  0
  146.9731  137.7796  154.1664 C   0  0  0  0  0  0  0  0  0  0  0  0
  146.1944  138.1243  155.0550 O   0  0  0  0  0  0  0  0  0  0  0  0
  146.6416  136.9349  153.1796 N   0  0  0  0  0  0  0  0  0  0  0  0
  145.3406  136.2918  153.0216 C   0  0  0  0  0  0  0  0  0  0  0  0
  145.4831  134.7716  153.2510 C   0  0  0  0  0  0  0  0  0  0  0  0
  144.1807  134.0279  152.9040 C   0  0  0  0  0  0  0  0  0  0  0  0
  143.8121  134.3443  151.5197 N   0  0  0  0  0  0  0  0  0  0  0  0
  143.9134  133.4453  150.5112 C   0  0  0  0  0  0  0  0  0  0  0  0
  144.3381  132.0098  150.8282 C   0  0  0  0  0  0  0  0  0  0  0  0
  143.6715  133.7309  149.3384 O   0  0  0  0  0  0  0  0  0  0  0  0
  143.4816  135.7659  151.3613 C   0  0  0  0  0  0  0  0  0  0  0  0
  144.7466  136.6011  151.6277 C   0  0  0  0  0  0  0  0  0  0  0  0
  149.8576  140.0764  154.4568 C   0  0  0  0  0  0  0  0  0  0  0  0
  150.5342  140.8854  155.2987 N   0  0  0  0  0  0  0  0  0  0  0  0
  152.1852  140.9889  160.6690 H   0  0  0  0  0  0  0  0  0  0  0  0
  153.1385  141.6631  159.3529 H   0  0  0  0  0  0  0  0  0  0  0  0
  152.5662  139.9999  159.2683 H   0  0  0  0  0  0  0  0  0  0  0  0
  150.1649  140.8739  159.1836 H   0  0  0  0  0  0  0  0  0  0  0  0
  150.7743  142.4940  159.3229 H   0  0  0  0  0  0  0  0  0  0  0  0
  151.9245  142.8371  155.9778 H   0  0  0  0  0  0  0  0  0  0  0  0
  150.4251  143.4248  156.6184 H   0  0  0  0  0  0  0  0  0  0  0  0
  152.3146  144.8322  157.4178 H   0  0  0  0  0  0  0  0  0  0  0  0
  153.1141  143.4285  158.1162 H   0  0  0  0  0  0  0  0  0  0  0  0
  151.5950  144.0110  158.7973 H   0  0  0  0  0  0  0  0  0  0  0  0
  149.3934  139.6001  158.2297 H   0  0  0  0  0  0  0  0  0  0  0  0
  148.1644  138.1302  156.6777 H   0  0  0  0  0  0  0  0  0  0  0  0
  148.7254  137.9019  153.2017 H   0  0  0  0  0  0  0  0  0  0  0  0
  147.3429  136.7151  152.4875 H   0  0  0  0  0  0  0  0  0  0  0  0
  144.6553  136.6748  153.7804 H   0  0  0  0  0  0  0  0  0  0  0  0
  146.2917  134.3773  152.6333 H   0  0  0  0  0  0  0  0  0  0  0  0
  145.7607  134.5730  154.2867 H   0  0  0  0  0  0  0  0  0  0  0  0
  144.3073  132.9581  153.0741 H   0  0  0  0  0  0  0  0  0  0  0  0
  143.3786  134.3414  153.5738 H   0  0  0  0  0  0  0  0  0  0  0  0
  143.6528  131.5517  151.5417 H   0  0  0  0  0  0  0  0  0  0  0  0
  145.3476  131.9876  151.2392 H   0  0  0  0  0  0  0  0  0  0  0  0
  144.3330  131.3996  149.9242 H   0  0  0  0  0  0  0  0  0  0  0  0
  143.0714  136.0128  150.3833 H   0  0  0  0  0  0  0  0  0  0  0  0
  142.7031  136.0344  152.0771 H   0  0  0  0  0  0  0  0  0  0  0  0
  144.5129  137.6632  151.5455 H   0  0  0  0  0  0  0  0  0  0  0  0
  145.4852  136.3867  150.8539 H   0  0  0  0  0  0  0  0  0  0  0  0
  150.0111  140.2893  153.4108 H   0  0  0  0  0  0  0  0  0  0  0  0
  1  2  1  0  0  0  0
  1 25  1  0  0  0  0
  1 26  1  0  0  0  0
  1 27  1  0  0  0  0
  2  3  1  0  0  0  0
  2 28  1  0  0  0  0
  2 29  1  0  0  0  0
  3  4  1  0  0  0  0
  3  6  1  0  0  0  0
  4  5  1  0  0  0  0
  4 30  1  0  0  0  0
  4 31  1  0  0  0  0
  5 32  1  0  0  0  0
  5 33  1  0  0  0  0
  5 34  1  0  0  0  0
  6 24  1  0  0  0  0
  6  7  2  0  0  0  0
  7  8  1  0  0  0  0
  7 35  1  0  0  0  0
  8  9  2  0  0  0  0
  8 36  1  0  0  0  0
  9 10  1  0  0  0  0
  9 23  1  0  0  0  0
 10 11  1  0  0  0  0
 10 37  1  0  0  0  0
 11 12  2  0  0  0  0
 11 13  1  0  0  0  0
 13 14  1  0  0  0  0
 13 38  1  0  0  0  0
 14 22  1  0  0  0  0
 14 15  1  0  0  0  0
 14 39  1  0  0  0  0
 15 16  1  0  0  0  0
 15 40  1  0  0  0  0
 15 41  1  0  0  0  0
 16 17  1  0  0  0  0
 16 42  1  0  0  0  0
 16 43  1  0  0  0  0
 17 18  1  0  0  0  0
 17 21  1  0  0  0  0
 18 19  1  0  0  0  0
 18 20  2  0  0  0  0
 19 44  1  0  0  0  0
 19 45  1  0  0  0  0
 19 46  1  0  0  0  0
 21 22  1  0  0  0  0
 21 47  1  0  0  0  0
 21 48  1  0  0  0  0
 22 49  1  0  0  0  0
 22 50  1  0  0  0  0
 23 24  2  0  0  0  0
 23 51  1  0  0  0  0
M  END
> <s_m_source_file>
AV-unprocessed.smi

> <i_m_source_file_index>
1890

> <i_lp_mmshare_version>
43012

> <i_f3d_flags>
0

> <s_epik_input>
W0NIM11bQ0gyXU4oW0NIMl1bQ0gzXSljMVtjSF1bY0hdYyhbY0hdbjEpW05IXUMoPU8pW05IXVtDSF0yW0NIMl1bQ0gyXU4oQyg9TylbQ0gzXSlbQ0gyXVtDSDJdMg==

> <s_epik_cmdline>
J2VwaWtfcHl0aG9uJywgJy1waCcsICc3LjAnLCAnLXRuJywgJzgnLCAnLW1hJywgJzIwMCcsICctbWV0YWxfYmluZGluZycsICctaW1hZScsICc8aW5maWxlLm1hZT4nLCAnLW9tYWUnLCAnPG91dGZpbGUubWFlPic=

> <r_lp_tautomer_probability>
1

> <r_epik_Ionization_Penalty>
0.700493

> <r_epik_Ionization_Penalty_Charging>
0

> <r_epik_Ionization_Penalty_Neutral>
0.700493

> <r_epik_State_Penalty>
2.19132

> <r_epik_Charging_Adjusted_Penalty>
2.19132

> <i_epik_Tot_Q>
0

> <i_epik_Tot_abs_Q>
0

> <r_epik_Metal_State_Penalty>
1.54624

> <b_epik_Metal_Only>
0

> <s_lp_Force_Field>
OPLS_2005

> <r_lp_Energy>
30.5228

> <b_lp_Chiralities_Consistent>
1

> <s_lp_Variant>
AV-unprocessed.smi:1890-2

> <Gold.Version>
5.8.1

> <Gold.Id.Protein>
6NUR|6NUR_protein|mol2

> <Gold.PLP.Fitness>
42.0122

> <Gold.PLP.PLP>
-35.4144

> <Gold.PLP.part.hbond>
-2.5667

> <Gold.PLP.part.metal>
0.0000

> <Gold.PLP.part.buried>
-4.1254

> <Gold.PLP.part.nonpolar>
-29.7231

> <Gold.PLP.part.repulsive>
0.8339

> <Gold.PLP.ligand.clash>
0.0000

> <Gold.PLP.ligand.torsion>
0.9174

> <Gold.PLP.Chemscore.Hbond>
1.4902

> <Gold.PLP.Chemscore.CHOScore>
1.0000

> <Gold.PLP.Chemscore.Metal>
0.0000

> <Gold.Chemscore.Hbonds>
donor molecule, donor type, donor heavy atom, donor atom, acceptor molecule, acceptor atom, score
      L1  H    10    37       P1  7948  0.66
      L1  H    13    38       P1  7948  1.00
      L1  C    23    51       P1  7957  1.00

> <Gold.PLP.Chemscore.Internal.Correction>
0.9619

> <Gold.Rescore>
     Score         DG    S(hbond)    S(metal)    S(lipo)     H(rot)  DE(clash)    DE(int)     intcor
     15.34     -17.42       1.78        0.00      80.39       1.33       0.22       1.86       ----

> <Gold.Chemscore.Fitness>
15.3420

> <Gold.Chemscore.DG>
-17.4177

> <Gold.Chemscore.ZeroCoef>
-5.4800

> <Gold.Chemscore.Hbond>
1.7769

> <Gold.Chemscore.Metal>
0.0000

> <Gold.Chemscore.Lipo>
80.3949

> <Gold.Chemscore.Internal_Hbond>
0.0000

> <Gold.Chemscore.DEClash>
0.2205

> <Gold.Chemscore.DEInternal>
1.8553

> <Gold.Chemscore.Rot>
1.3294

> <Gold.Chemscore.Internal.Correction>
   9.000000E+99

> <Gold.Chemscore.Hbonds>
donor molecule, donor type, donor heavy atom, donor atom, acceptor molecule, acceptor atom, score
      L1  H    10    37       P1  7948  0.63
      L1  H    13    38       P1  7948  0.99

> <Gold.Chemscore.Hbond.Weighted>
-5.9349

> <Gold.Chemscore.Metal.Weighted>
-0.0000

> <Gold.Chemscore.Lipo.Weighted>
-9.4062

> <Gold.Chemscore.Internal_Hbond.Weighted>
0.0000

> <Gold.Chemscore.DEClash.Weighted>
0.2205

> <Gold.Chemscore.DEInternal.Weighted>
1.8553

> <Gold.Chemscore.Rot.Weighted>
3.4034

> <Gold.Chemscore.Internal.Correction.Weighted>
   9.000000E+99

> <Gold.Protein.RotatedTorsions>
[ 6907 6896 6895 6894 ] final   83.43 input  -60.11 | X-H torsion
[ 7974 7965 7964 7962 ] final -125.77 input  175.53 | X-H torsion
[ 8008 7997 7996 7995 ] final   -1.97 input   59.86 | X-H torsion
[ 10167 10162 10161 10158 ] final   47.00 input  -65.29 | X-H torsion
[ 10718 10713 10712 10709 ] final  -87.43 input   66.30 | X-H torsion
[ 10763 10752 10751 10750 ] final    3.66 input  -60.55 | X-H torsion
[ 11005 11000 10999 10996 ] final   77.37 input  -57.11 | X-H torsion

> <Gold.Protein.ActiveResidues>
 VAL166  LYS551  ARG553  GLY616  TRP617  ASP618  TYR619  PRO620  LYS621  CYS622 
 ASP623  PHE694  ASN695  SER759  ASP760  ASP761  ALA762  ILE779  LEU786  VAL792 
 PHE793  MET794  SER795  GLU796  ALA797  LYS798  CYS799  TRP800  GLU811  SER814 

> <Gold.Protein.RotatedAtoms>
  152.5327  134.2896  159.9037 H   0  0  0  0  0  0  0  0  0  0  0  0  # atno 6907 bound_to 6896
  151.2849  133.4186  159.2637 H   0  0  0  0  0  0  0  0  0  0  0  0  # atno 6908 bound_to 6896
  151.0251  134.9514  159.8138 H   0  0  0  0  0  0  0  0  0  0  0  0  # atno 6909 bound_to 6896
  144.9941  140.7759  143.4536 H   0  0  0  0  0  0  0  0  0  0  0  0  # atno 7974 bound_to 7965
  154.6409  140.2546  155.7323 H   0  0  0  0  0  0  0  0  0  0  0  0  # atno 8008 bound_to 7997
  156.2528  140.2887  156.0722 H   0  0  0  0  0  0  0  0  0  0  0  0  # atno 8009 bound_to 7997
  155.1598  140.0384  157.2830 H   0  0  0  0  0  0  0  0  0  0  0  0  # atno 8010 bound_to 7997
  140.3081  144.2853  150.6205 H   0  0  0  0  0  0  0  0  0  0  0  0  # atno 10167 bound_to 10162
  155.9985  130.4800  150.4866 H   0  0  0  0  0  0  0  0  0  0  0  0  # atno 10718 bound_to 10713
  153.2806  135.6940  153.7389 H   0  0  0  0  0  0  0  0  0  0  0  0  # atno 10763 bound_to 10752
  153.6378  135.3398  155.3063 H   0  0  0  0  0  0  0  0  0  0  0  0  # atno 10764 bound_to 10752
  154.8494  135.4424  154.1858 H   0  0  0  0  0  0  0  0  0  0  0  0  # atno 10765 bound_to 10752
  139.9257  134.7678  156.1514 H   0  0  0  0  0  0  0  0  0  0  0  0  # atno 11005 bound_to 11000
  145.2244  139.2144  143.5076 LP  0  0  0  0  0  0  0  0  0  0  0  0  # atno 17320 bound_to 7965
  146.3438  140.2109  142.8590 LP  0  0  0  0  0  0  0  0  0  0  0  0  # atno 17321 bound_to 7965
  140.5592  143.2194  151.7794 LP  0  0  0  0  0  0  0  0  0  0  0  0  # atno 17342 bound_to 10162
  139.4900  144.4371  151.9806 LP  0  0  0  0  0  0  0  0  0  0  0  0  # atno 17343 bound_to 10162
  157.2866  131.0618  151.2162 LP  0  0  0  0  0  0  0  0  0  0  0  0  # atno 17370 bound_to 10713
  157.3189  130.6927  149.6258 LP  0  0  0  0  0  0  0  0  0  0  0  0  # atno 17371 bound_to 10713
  141.0813  133.6753  156.2342 LP  0  0  0  0  0  0  0  0  0  0  0  0  # atno 17394 bound_to 11000
  140.6343  134.5232  157.5563 LP  0  0  0  0  0  0  0  0  0  0  0  0  # atno 17395 bound_to 11000

$$$$
