AV-unprocessed.smi:1426|AV-procd|sdf|5805|dock5
  -GOLD-   22720 5453D 1   1.00000     0.00000
 Structure written by MMmdl.
 43 45  0  0  0  0  0  0  0  0  1 V2000
  151.8252  141.3827  157.1913 O   0  0  0  0  0  0  0  0  0  0  0  0
  151.1060  142.2981  156.7926 C   0  0  0  0  0  0  0  0  0  0  0  0
  151.2447  143.5721  157.1866 N   0  0  0  0  0  0  0  0  0  0  0  0
  152.2352  144.0599  158.1414 C   0  0  0  0  0  0  0  0  0  0  0  0
  152.1731  143.2874  159.4721 C   0  0  2  0  0  0  0  0  0  0  0  0
  152.2397  144.1746  160.6984 C   0  0  0  0  0  0  0  0  0  0  0  0
  152.6220  143.1801  161.7909 C   0  0  0  0  0  0  0  0  0  0  0  0
  153.3946  142.1699  161.1479 O   0  0  0  0  0  0  0  0  0  0  0  0
  153.3486  142.3440  159.7349 C   0  0  0  0  0  0  0  0  0  0  0  0
  150.0975  142.1746  155.9128 N   0  0  0  0  0  0  0  0  0  0  0  0
  149.6270  141.0155  155.2278 C   0  0  0  0  0  0  0  0  0  0  0  0
  150.4139  139.8458  155.0777 C   0  0  0  0  0  0  0  0  0  0  0  0
  149.8956  138.7506  154.3653 C   0  0  0  0  0  0  0  0  0  0  0  0
  148.6031  138.8582  153.8270 C   0  0  0  0  0  0  0  0  0  0  0  0
  147.8333  139.9538  153.9775 N   0  0  0  0  0  0  0  0  0  0  0  0
  148.3137  141.0130  154.6743 C   0  0  0  0  0  0  0  0  0  0  0  0
  147.4496  142.1214  154.8266 N   0  0  0  0  0  0  0  0  0  0  0  0
  146.9196  142.8130  153.6558 C   0  0  0  0  0  0  0  0  0  0  0  0
  145.7494  143.6386  154.1820 C   0  0  0  0  0  0  0  0  0  0  0  0
  145.1703  142.7263  155.2585 C   0  0  0  0  0  0  0  0  0  0  0  0
  146.4028  142.0261  155.8402 C   0  0  0  0  0  0  0  0  0  0  0  0
  150.6126  144.2584  156.8006 H   0  0  0  0  0  0  0  0  0  0  0  0
  153.2409  144.0179  157.7191 H   0  0  0  0  0  0  0  0  0  0  0  0
  152.0277  145.1147  158.3234 H   0  0  0  0  0  0  0  0  0  0  0  0
  151.2471  142.7112  159.5135 H   0  0  0  0  0  0  0  0  0  0  0  0
  153.0257  144.9229  160.5850 H   0  0  0  0  0  0  0  0  0  0  0  0
  151.3031  144.6930  160.9059 H   0  0  0  0  0  0  0  0  0  0  0  0
  153.1767  143.6490  162.6039 H   0  0  0  0  0  0  0  0  0  0  0  0
  151.7296  142.7168  162.2134 H   0  0  0  0  0  0  0  0  0  0  0  0
  153.2420  141.3885  159.2206 H   0  0  0  0  0  0  0  0  0  0  0  0
  154.2873  142.7976  159.4140 H   0  0  0  0  0  0  0  0  0  0  0  0
  149.6504  143.0372  155.6384 H   0  0  0  0  0  0  0  0  0  0  0  0
  151.4025  139.7578  155.4988 H   0  0  0  0  0  0  0  0  0  0  0  0
  150.4774  137.8505  154.2331 H   0  0  0  0  0  0  0  0  0  0  0  0
  148.1715  138.0405  153.2691 H   0  0  0  0  0  0  0  0  0  0  0  0
  147.6789  143.4388  153.1862 H   0  0  0  0  0  0  0  0  0  0  0  0
  146.5535  142.1020  152.9139 H   0  0  0  0  0  0  0  0  0  0  0  0
  146.1154  144.5627  154.6321 H   0  0  0  0  0  0  0  0  0  0  0  0
  145.0285  143.8985  153.4066 H   0  0  0  0  0  0  0  0  0  0  0  0
  144.5930  143.2646  156.0104 H   0  0  0  0  0  0  0  0  0  0  0  0
  144.5137  141.9882  154.7958 H   0  0  0  0  0  0  0  0  0  0  0  0
  146.1834  140.9920  156.1099 H   0  0  0  0  0  0  0  0  0  0  0  0
  146.7353  142.5469  156.7386 H   0  0  0  0  0  0  0  0  0  0  0  0
  1  2  2  0  0  0  0
  2  3  1  0  0  0  0
  2 10  1  0  0  0  0
  3  4  1  0  0  0  0
  3 22  1  0  0  0  0
  4  5  1  0  0  0  0
  4 23  1  0  0  0  0
  4 24  1  0  0  0  0
  5  9  1  0  0  0  0
  5  6  1  0  0  0  0
  5 25  1  0  0  0  0
  6  7  1  0  0  0  0
  6 26  1  0  0  0  0
  6 27  1  0  0  0  0
  7  8  1  0  0  0  0
  7 28  1  0  0  0  0
  7 29  1  0  0  0  0
  8  9  1  0  0  0  0
  9 30  1  0  0  0  0
  9 31  1  0  0  0  0
 10 11  1  0  0  0  0
 10 32  1  0  0  0  0
 11 16  1  0  0  0  0
 11 12  2  0  0  0  0
 12 13  1  0  0  0  0
 12 33  1  0  0  0  0
 13 14  2  0  0  0  0
 13 34  1  0  0  0  0
 14 15  1  0  0  0  0
 14 35  1  0  0  0  0
 15 16  2  0  0  0  0
 16 17  1  0  0  0  0
 17 21  1  0  0  0  0
 17 18  1  0  0  0  0
 18 19  1  0  0  0  0
 18 36  1  0  0  0  0
 18 37  1  0  0  0  0
 19 20  1  0  0  0  0
 19 38  1  0  0  0  0
 19 39  1  0  0  0  0
 20 21  1  0  0  0  0
 20 40  1  0  0  0  0
 20 41  1  0  0  0  0
 21 42  1  0  0  0  0
 21 43  1  0  0  0  0
M  END
> <s_m_source_file>
AV-unprocessed.smi

> <i_m_source_file_index>
1426

> <i_lp_mmshare_version>
43012

> <i_f3d_flags>
0

> <s_epik_input>
W0NIMl0xT1tDSDJdW0NIMl1bQ0BIXTFbQ0gyXVtOSF1DKD1PKVtOSF1jMltjSF1bY0hdW2NIXW5jMk4zW0NIMl1bQ0gyXVtDSDJdW0NIMl0z

> <s_epik_cmdline>
J2VwaWtfcHl0aG9uJywgJy1waCcsICc3LjAnLCAnLXRuJywgJzgnLCAnLW1hJywgJzIwMCcsICctbWV0YWxfYmluZGluZycsICctaW1hZScsICc8aW5maWxlLm1hZT4nLCAnLW9tYWUnLCAnPG91dGZpbGUubWFlPic=

> <r_lp_tautomer_probability>
1

> <r_epik_Ionization_Penalty>
0.0999657

> <r_epik_Ionization_Penalty_Charging>
0

> <r_epik_Ionization_Penalty_Neutral>
0.0999657

> <r_epik_State_Penalty>
0.0894442

> <r_epik_Charging_Adjusted_Penalty>
0.0894442

> <i_epik_Tot_Q>
0

> <i_epik_Tot_abs_Q>
0

> <r_epik_Metal_State_Penalty>
0.076486

> <b_epik_Metal_Only>
0

> <s_lp_Force_Field>
OPLS_2005

> <r_lp_Energy>
47.443

> <b_lp_Chiralities_Consistent>
1

> <s_lp_Variant>
AV-unprocessed.smi:1426-1

> <Gold.Version>
5.8.1

> <Gold.Id.Protein>
6NUR|6NUR_protein|mol2

> <Gold.PLP.Fitness>
53.8789

> <Gold.PLP.PLP>
-46.6128

> <Gold.PLP.part.hbond>
-2.0000

> <Gold.PLP.part.metal>
0.0000

> <Gold.PLP.part.buried>
-5.5855

> <Gold.PLP.part.nonpolar>
-39.6368

> <Gold.PLP.part.repulsive>
0.4392

> <Gold.PLP.ligand.clash>
0.0000

> <Gold.PLP.ligand.torsion>
1.0131

> <Gold.PLP.Chemscore.Hbond>
1.9920

> <Gold.PLP.Chemscore.CHOScore>
1.0000

> <Gold.PLP.Chemscore.Metal>
0.0000

> <Gold.Chemscore.Hbonds>
donor molecule, donor type, donor heavy atom, donor atom, acceptor molecule, acceptor atom, score
      L1  H     3    22       P1  8028  0.84
      L1  H    10    32       P1  8028  1.00
      L1  C    14    35       P1  7948  1.00

> <Gold.PLP.Chemscore.Internal.Correction>
0.3164

> <Gold.Rescore>
     Score         DG    S(hbond)    S(metal)    S(lipo)     H(rot)  DE(clash)    DE(int)     intcor
     18.48     -20.73       1.97        0.00     104.32       1.38       0.17       2.07       ----

> <Gold.Chemscore.Fitness>
18.4818

> <Gold.Chemscore.DG>
-20.7275

> <Gold.Chemscore.ZeroCoef>
-5.4800

> <Gold.Chemscore.Hbond>
1.9683

> <Gold.Chemscore.Metal>
0.0000

> <Gold.Chemscore.Lipo>
104.3157

> <Gold.Chemscore.Internal_Hbond>
0.0000

> <Gold.Chemscore.DEClash>
0.1710

> <Gold.Chemscore.DEInternal>
2.0748

> <Gold.Chemscore.Rot>
1.3796

> <Gold.Chemscore.Internal.Correction>
   9.000000E+99

> <Gold.Chemscore.Hbonds>
donor molecule, donor type, donor heavy atom, donor atom, acceptor molecule, acceptor atom, score
      L1  H     3    22       P1  8028  0.78
      L1  H    10    32       P1  8028  1.00

> <Gold.Chemscore.Hbond.Weighted>
-6.5743

> <Gold.Chemscore.Metal.Weighted>
-0.0000

> <Gold.Chemscore.Lipo.Weighted>
-12.2049

> <Gold.Chemscore.Internal_Hbond.Weighted>
0.0000

> <Gold.Chemscore.DEClash.Weighted>
0.1710

> <Gold.Chemscore.DEInternal.Weighted>
2.0748

> <Gold.Chemscore.Rot.Weighted>
3.5317

> <Gold.Chemscore.Internal.Correction.Weighted>
   9.000000E+99

> <Gold.Protein.RotatedTorsions>
[ 6907 6896 6895 6894 ] final  167.91 input  -60.11 | X-H torsion
[ 7974 7965 7964 7962 ] final  121.10 input  175.53 | X-H torsion
[ 8008 7997 7996 7995 ] final -142.04 input   59.86 | X-H torsion
[ 10167 10162 10161 10158 ] final   -0.68 input  -65.29 | X-H torsion
[ 10718 10713 10712 10709 ] final  -36.19 input   66.30 | X-H torsion
[ 10763 10752 10751 10750 ] final  130.26 input  -60.55 | X-H torsion
[ 11005 11000 10999 10996 ] final  127.13 input  -57.11 | X-H torsion

> <Gold.Protein.ActiveResidues>
 VAL166  LYS551  ARG553  GLY616  TRP617  ASP618  TYR619  PRO620  LYS621  CYS622 
 ASP623  PHE694  ASN695  SER759  ASP760  ASP761  ALA762  ILE779  LEU786  VAL792 
 PHE793  MET794  SER795  GLU796  ALA797  LYS798  CYS799  TRP800  GLU811  SER814 

> <Gold.Protein.RotatedAtoms>
  151.8559  133.3448  159.3688 H   0  0  0  0  0  0  0  0  0  0  0  0  # atno 6907 bound_to 6896
  150.7193  134.5253  159.5683 H   0  0  0  0  0  0  0  0  0  0  0  0  # atno 6908 bound_to 6896
  152.2757  134.7885  160.0457 H   0  0  0  0  0  0  0  0  0  0  0  0  # atno 6909 bound_to 6896
  145.1233  139.3374  143.4703 H   0  0  0  0  0  0  0  0  0  0  0  0  # atno 7974 bound_to 7965
  155.4878  140.0565  157.2958 H   0  0  0  0  0  0  0  0  0  0  0  0  # atno 8008 bound_to 7997
  154.4635  140.2007  156.0132 H   0  0  0  0  0  0  0  0  0  0  0  0  # atno 8009 bound_to 7997
  156.0933  140.3230  155.7848 H   0  0  0  0  0  0  0  0  0  0  0  0  # atno 8010 bound_to 7997
  140.6778  143.6866  150.8062 H   0  0  0  0  0  0  0  0  0  0  0  0  # atno 10167 bound_to 10162
  156.3298  130.4277  149.7883 H   0  0  0  0  0  0  0  0  0  0  0  0  # atno 10718 bound_to 10713
  153.7551  135.3204  155.3328 H   0  0  0  0  0  0  0  0  0  0  0  0  # atno 10763 bound_to 10752
  154.8249  135.4576  154.0893 H   0  0  0  0  0  0  0  0  0  0  0  0  # atno 10764 bound_to 10752
  153.2107  135.6935  153.8200 H   0  0  0  0  0  0  0  0  0  0  0  0  # atno 10765 bound_to 10752
  139.9491  134.9625  156.8809 H   0  0  0  0  0  0  0  0  0  0  0  0  # atno 11005 bound_to 11000
  146.3519  140.1202  142.8600 LP  0  0  0  0  0  0  0  0  0  0  0  0  # atno 17320 bound_to 7965
  145.0716  140.9159  143.4879 LP  0  0  0  0  0  0  0  0  0  0  0  0  # atno 17321 bound_to 7965
  140.0562  143.5200  152.2650 LP  0  0  0  0  0  0  0  0  0  0  0  0  # atno 17342 bound_to 10162
  139.6080  144.7601  151.3017 LP  0  0  0  0  0  0  0  0  0  0  0  0  # atno 17343 bound_to 10162
  156.5160  130.8193  151.3186 LP  0  0  0  0  0  0  0  0  0  0  0  0  # atno 17370 bound_to 10713
  157.7428  130.9898  150.2544 LP  0  0  0  0  0  0  0  0  0  0  0  0  # atno 17371 bound_to 10713
  140.5761  134.0396  155.7447 LP  0  0  0  0  0  0  0  0  0  0  0  0  # atno 17394 bound_to 11000
  141.1150  133.9555  157.2840 LP  0  0  0  0  0  0  0  0  0  0  0  0  # atno 17395 bound_to 11000

$$$$
