AV-unprocessed.smi:1881|AV-procd|sdf|7640|dock5
  -GOLD-   22720 9363D 1   1.00000     0.00000
 Structure written by MMmdl.
 51 52  0  0  0  0  0  0  0  0  2 V2000
  149.8242  139.2629  157.5104 C   0  0  0  0  0  0  0  0  0  0  0  0
  150.5232  140.2281  156.5199 C   0  0  0  0  0  0  0  0  0  0  0  0
  150.4745  141.6275  157.1912 C   0  0  0  0  0  0  0  0  0  0  0  0
  152.0227  139.9020  156.3307 C   0  0  0  0  0  0  0  0  0  0  0  0
  149.7867  140.2973  155.1419 C   0  0  0  0  0  0  0  0  0  0  0  0
  150.4468  140.0422  154.1318 O   0  0  0  0  0  0  0  0  0  0  0  0
  148.4691  140.6276  155.0215 N   0  0  0  0  0  0  0  0  0  0  0  0
  147.6545  140.7175  153.8021 C   0  0  0  0  0  0  0  0  0  0  0  0
  146.6587  139.5434  153.7741 C   0  0  0  0  0  0  0  0  0  0  0  0
  145.7645  139.5450  155.0356 C   0  0  0  0  0  0  0  0  0  0  0  0
  144.8818  138.2917  155.0790 C   0  0  0  0  0  0  0  0  0  0  0  0
  145.0320  137.4572  155.9722 O   0  0  0  0  0  0  0  0  0  0  0  0
  143.9806  138.1590  154.0924 N   0  0  0  0  0  0  0  0  0  0  0  0
  143.0612  137.0355  153.9277 C   0  0  0  0  0  0  0  0  0  0  0  0
  143.7546  135.6647  154.0670 C   0  0  0  0  0  0  0  0  0  0  0  0
  143.9784  134.9483  152.7458 C   0  0  0  0  0  0  0  0  0  0  0  0
  144.5964  135.5842  151.6476 C   0  0  0  0  0  0  0  0  0  0  0  0
  144.7427  134.8785  150.4354 C   0  0  0  0  0  0  0  0  0  0  0  0
  144.2684  133.5535  150.3459 C   0  0  0  0  0  0  0  0  0  0  0  0
  143.6594  132.9663  151.4734 C   0  0  0  0  0  0  0  0  0  0  0  0
  143.5390  133.6746  152.6176 N   0  3  0  0  0  0  0  0  0  0  0  0
  146.6214  139.6723  156.3163 C   0  0  0  0  0  0  0  0  0  0  0  0
  147.6147  140.8427  156.2020 C   0  0  0  0  0  0  0  0  0  0  0  0
  150.0534  139.5223  158.5446 H   0  0  0  0  0  0  0  0  0  0  0  0
  150.1349  138.2269  157.4014 H   0  0  0  0  0  0  0  0  0  0  0  0
  148.7386  139.3008  157.4102 H   0  0  0  0  0  0  0  0  0  0  0  0
  149.4494  141.9538  157.3743 H   0  0  0  0  0  0  0  0  0  0  0  0
  150.9629  142.3911  156.5834 H   0  0  0  0  0  0  0  0  0  0  0  0
  150.9847  141.6268  158.1554 H   0  0  0  0  0  0  0  0  0  0  0  0
  152.5604  139.9840  157.2758 H   0  0  0  0  0  0  0  0  0  0  0  0
  152.4914  140.5981  155.6337 H   0  0  0  0  0  0  0  0  0  0  0  0
  152.2132  138.9005  155.9543 H   0  0  0  0  0  0  0  0  0  0  0  0
  147.1065  141.6608  153.8084 H   0  0  0  0  0  0  0  0  0  0  0  0
  148.2218  140.7460  152.8816 H   0  0  0  0  0  0  0  0  0  0  0  0
  146.0399  139.6098  152.8783 H   0  0  0  0  0  0  0  0  0  0  0  0
  147.2087  138.6042  153.6985 H   0  0  0  0  0  0  0  0  0  0  0  0
  145.1181  140.4231  154.9829 H   0  0  0  0  0  0  0  0  0  0  0  0
  143.9232  138.8969  153.4052 H   0  0  0  0  0  0  0  0  0  0  0  0
  142.2332  137.1110  154.6348 H   0  0  0  0  0  0  0  0  0  0  0  0
  142.6164  137.1141  152.9355 H   0  0  0  0  0  0  0  0  0  0  0  0
  144.7194  135.7955  154.5583 H   0  0  0  0  0  0  0  0  0  0  0  0
  143.1683  135.0216  154.7249 H   0  0  0  0  0  0  0  0  0  0  0  0
  144.9455  136.6033  151.7284 H   0  0  0  0  0  0  0  0  0  0  0  0
  145.2095  135.3495  149.5827 H   0  0  0  0  0  0  0  0  0  0  0  0
  144.3682  132.9976  149.4252 H   0  0  0  0  0  0  0  0  0  0  0  0
  143.2646  131.9611  151.4934 H   0  0  0  0  0  0  0  0  0  0  0  0
  145.9772  139.8206  157.1839 H   0  0  0  0  0  0  0  0  0  0  0  0
  147.1776  138.7510  156.4984 H   0  0  0  0  0  0  0  0  0  0  0  0
  148.1720  140.9384  157.1343 H   0  0  0  0  0  0  0  0  0  0  0  0
  147.0738  141.7845  156.0974 H   0  0  0  0  0  0  0  0  0  0  0  0
  143.0880  133.2327  153.4187 H   0  0  0  0  0  0  0  0  0  0  0  0
  1  2  1  0  0  0  0
  1 24  1  0  0  0  0
  1 25  1  0  0  0  0
  1 26  1  0  0  0  0
  2  3  1  0  0  0  0
  2  4  1  0  0  0  0
  2  5  1  0  0  0  0
  3 27  1  0  0  0  0
  3 28  1  0  0  0  0
  3 29  1  0  0  0  0
  4 30  1  0  0  0  0
  4 31  1  0  0  0  0
  4 32  1  0  0  0  0
  5  6  2  0  0  0  0
  5  7  1  0  0  0  0
  7 23  1  0  0  0  0
  7  8  1  0  0  0  0
  8  9  1  0  0  0  0
  8 33  1  0  0  0  0
  8 34  1  0  0  0  0
  9 10  1  0  0  0  0
  9 35  1  0  0  0  0
  9 36  1  0  0  0  0
 10 11  1  0  0  0  0
 10 22  1  0  0  0  0
 10 37  1  0  0  0  0
 11 12  2  0  0  0  0
 11 13  1  0  0  0  0
 13 14  1  0  0  0  0
 13 38  1  0  0  0  0
 14 15  1  0  0  0  0
 14 39  1  0  0  0  0
 14 40  1  0  0  0  0
 15 16  1  0  0  0  0
 15 41  1  0  0  0  0
 15 42  1  0  0  0  0
 16 21  1  0  0  0  0
 16 17  2  0  0  0  0
 17 18  1  0  0  0  0
 17 43  1  0  0  0  0
 18 19  2  0  0  0  0
 18 44  1  0  0  0  0
 19 20  1  0  0  0  0
 19 45  1  0  0  0  0
 20 21  2  0  0  0  0
 20 46  1  0  0  0  0
 21 51  1  0  0  0  0
 22 23  1  0  0  0  0
 22 47  1  0  0  0  0
 22 48  1  0  0  0  0
 23 49  1  0  0  0  0
 23 50  1  0  0  0  0
M  CHG  1  21   1
M  END
> <s_m_source_file>
AV-unprocessed.smi

> <i_m_source_file_index>
1881

> <i_lp_mmshare_version>
43012

> <i_f3d_flags>
0

> <s_epik_input>
W0NIM11DKFtDSDNdKShbQ0gzXSlDKD1PKU4xW0NIMl1bQ0gyXVtDSF0oW0NIMl1bQ0gyXTEpQyg9TylbTkhdW0NIMl1bQ0gyXWMyW2NIXVtjSF1bY0hdW2NIXW4y

> <s_epik_cmdline>
J2VwaWtfcHl0aG9uJywgJy1waCcsICc3LjAnLCAnLXRuJywgJzgnLCAnLW1hJywgJzIwMCcsICctbWV0YWxfYmluZGluZycsICctaW1hZScsICc8aW5maWxlLm1hZT4nLCAnLW9tYWUnLCAnPG91dGZpbGUubWFlPic=

> <r_epik_Ionization_Penalty>
1.84673

> <r_epik_Ionization_Penalty_Charging>
1.84673

> <r_epik_Ionization_Penalty_Neutral>
1.24553e-07

> <r_epik_State_Penalty>
1.9639

> <r_epik_Charging_Adjusted_Penalty>
3.81063

> <i_epik_Tot_Q>
1

> <i_epik_Tot_abs_Q>
1

> <r_epik_Metal_State_Penalty>
1.98977

> <b_epik_Metal_Only>
0

> <s_lp_Force_Field>
OPLS_2005

> <r_lp_Energy>
43.8057

> <b_lp_Chiralities_Consistent>
1

> <s_lp_Variant>
AV-unprocessed.smi:1881-2

> <Gold.Version>
5.8.1

> <Gold.Id.Protein>
6NUR|6NUR_protein|mol2

> <Gold.PLP.Fitness>
42.5085

> <Gold.PLP.PLP>
-31.5458

> <Gold.PLP.part.hbond>
-2.9930

> <Gold.PLP.part.metal>
0.0000

> <Gold.PLP.part.buried>
-5.5095

> <Gold.PLP.part.nonpolar>
-25.3584

> <Gold.PLP.part.repulsive>
0.6097

> <Gold.PLP.ligand.clash>
0.0000

> <Gold.PLP.ligand.torsion>
0.5686

> <Gold.PLP.Chemscore.Hbond>
4.0000

> <Gold.PLP.Chemscore.CHOScore>
0.0000

> <Gold.PLP.Chemscore.Metal>
0.0000

> <Gold.Chemscore.Hbonds>
donor molecule, donor type, donor heavy atom, donor atom, acceptor molecule, acceptor atom, score
      L1  H    13    38       P1 10175  1.00
      L1  H    21    51       P1 10957  1.95
      P1  H  7989  7998       L1     6  1.00

> <Gold.PLP.Chemscore.Internal.Correction>
0.0999

> <Gold.Rescore>
     Score         DG    S(hbond)    S(metal)    S(lipo)     H(rot)  DE(clash)    DE(int)     intcor
     16.26     -19.03       2.93        0.00      68.37       1.65       0.01       2.76       ----

> <Gold.Chemscore.Fitness>
16.2600

> <Gold.Chemscore.DG>
-19.0288

> <Gold.Chemscore.ZeroCoef>
-5.4800

> <Gold.Chemscore.Hbond>
2.9291

> <Gold.Chemscore.Metal>
0.0000

> <Gold.Chemscore.Lipo>
68.3742

> <Gold.Chemscore.Internal_Hbond>
0.0000

> <Gold.Chemscore.DEClash>
0.0089

> <Gold.Chemscore.DEInternal>
2.7599

> <Gold.Chemscore.Rot>
1.6540

> <Gold.Chemscore.Internal.Correction>
   9.000000E+99

> <Gold.Chemscore.Hbonds>
donor molecule, donor type, donor heavy atom, donor atom, acceptor molecule, acceptor atom, score
      L1  H    13    38       P1 10175  1.00
      L1  H    21    51       P1 10957  0.86
      P1  H  7989  7998       L1     6  0.95

> <Gold.Chemscore.Hbond.Weighted>
-9.7832

> <Gold.Chemscore.Metal.Weighted>
-0.0000

> <Gold.Chemscore.Lipo.Weighted>
-7.9998

> <Gold.Chemscore.Internal_Hbond.Weighted>
0.0000

> <Gold.Chemscore.DEClash.Weighted>
0.0089

> <Gold.Chemscore.DEInternal.Weighted>
2.7599

> <Gold.Chemscore.Rot.Weighted>
4.2342

> <Gold.Chemscore.Internal.Correction.Weighted>
   9.000000E+99

> <Gold.Protein.RotatedTorsions>
[ 6907 6896 6895 6894 ] final  -51.21 input  -60.11 | X-H torsion
[ 7974 7965 7964 7962 ] final  -40.83 input  175.53 | X-H torsion
[ 8008 7997 7996 7995 ] final    3.14 input   59.86 | X-H torsion
[ 10167 10162 10161 10158 ] final   67.98 input  -65.29 | X-H torsion
[ 10718 10713 10712 10709 ] final    0.86 input   66.30 | X-H torsion
[ 10763 10752 10751 10750 ] final -165.00 input  -60.55 | X-H torsion
[ 11005 11000 10999 10996 ] final  -59.74 input  -57.11 | X-H torsion

> <Gold.Protein.ActiveResidues>
 VAL166  LYS551  ARG553  GLY616  TRP617  ASP618  TYR619  PRO620  LYS621  CYS622 
 ASP623  PHE694  ASN695  SER759  ASP760  ASP761  ALA762  ILE779  LEU786  VAL792 
 PHE793  MET794  SER795  GLU796  ALA797  LYS798  CYS799  TRP800  GLU811  SER814 

> <Gold.Protein.RotatedAtoms>
  150.8633  134.7990  159.7098 H   0  0  0  0  0  0  0  0  0  0  0  0  # atno 6907 bound_to 6896
  152.4663  134.5065  159.9750 H   0  0  0  0  0  0  0  0  0  0  0  0  # atno 6908 bound_to 6896
  151.5165  133.3436  159.2929 H   0  0  0  0  0  0  0  0  0  0  0  0  # atno 6909 bound_to 6896
  146.0267  140.6782  142.9152 H   0  0  0  0  0  0  0  0  0  0  0  0  # atno 7974 bound_to 7965
  154.7000  140.2671  155.6729 H   0  0  0  0  0  0  0  0  0  0  0  0  # atno 8008 bound_to 7997
  156.2761  140.2774  156.1531 H   0  0  0  0  0  0  0  0  0  0  0  0  # atno 8009 bound_to 7997
  155.0778  140.0372  157.2619 H   0  0  0  0  0  0  0  0  0  0  0  0  # atno 8010 bound_to 7997
  140.0836  144.5049  150.7145 H   0  0  0  0  0  0  0  0  0  0  0  0  # atno 10167 bound_to 10162
  156.8397  130.5517  149.5679 H   0  0  0  0  0  0  0  0  0  0  0  0  # atno 10718 bound_to 10713
  154.6974  135.2982  154.9391 H   0  0  0  0  0  0  0  0  0  0  0  0  # atno 10763 bound_to 10752
  154.0334  135.6667  153.4787 H   0  0  0  0  0  0  0  0  0  0  0  0  # atno 10764 bound_to 10752
  153.0656  135.5090  154.8100 H   0  0  0  0  0  0  0  0  0  0  0  0  # atno 10765 bound_to 10752
  141.1260  133.6618  156.5118 H   0  0  0  0  0  0  0  0  0  0  0  0  # atno 11005 bound_to 11000
  144.7013  140.3663  143.7154 LP  0  0  0  0  0  0  0  0  0  0  0  0  # atno 17320 bound_to 7965
  145.7106  139.1684  143.2541 LP  0  0  0  0  0  0  0  0  0  0  0  0  # atno 17321 bound_to 7965
  140.7065  143.2472  151.4711 LP  0  0  0  0  0  0  0  0  0  0  0  0  # atno 17342 bound_to 10162
  139.5765  144.1807  152.1910 LP  0  0  0  0  0  0  0  0  0  0  0  0  # atno 17343 bound_to 10162
  156.0887  130.5879  150.9695 LP  0  0  0  0  0  0  0  0  0  0  0  0  # atno 17370 bound_to 10713
  157.6362  131.0915  150.8343 LP  0  0  0  0  0  0  0  0  0  0  0  0  # atno 17371 bound_to 10713
  140.4363  134.7056  157.4968 LP  0  0  0  0  0  0  0  0  0  0  0  0  # atno 17394 bound_to 11000
  140.0259  134.6477  155.9173 LP  0  0  0  0  0  0  0  0  0  0  0  0  # atno 17395 bound_to 11000

$$$$
