AV-unprocessed.smi:790|AV-procd|sdf|3746|dock6
  -GOLD-   22720 1173D 1   1.00000     0.00000
 Structure written by MMmdl.
 38 40  0  0  0  0  0  0  0  0  1 V2000
  147.0986  132.7569  154.2945 O   0  0  0  0  0  0  0  0  0  0  0  0
  147.4581  133.6236  153.4985 C   0  0  0  0  0  0  0  0  0  0  0  0
  148.5856  134.3487  153.5905 N   0  0  0  0  0  0  0  0  0  0  0  0
  149.6022  134.2907  154.5819 C   0  0  0  0  0  0  0  0  0  0  0  0
  149.7878  133.2093  155.4774 C   0  0  0  0  0  0  0  0  0  0  0  0
  150.8476  133.2680  156.4030 C   0  0  0  0  0  0  0  0  0  0  0  0
  151.6850  134.4002  156.3967 C   0  0  0  0  0  0  0  0  0  0  0  0
  151.5274  135.4320  155.5414 N   0  0  0  0  0  0  0  0  0  0  0  0
  150.5103  135.3681  154.6561 C   0  0  0  0  0  0  0  0  0  0  0  0
  146.7405  133.9842  152.4252 N   0  0  0  0  0  0  0  0  0  0  0  0
  145.4593  133.4000  152.0274 C   0  0  2  0  0  0  0  0  0  0  0  0
  145.6927  132.0989  151.2298 C   0  0  1  0  0  0  0  0  0  0  0  0
  144.3735  131.3080  151.1611 C   0  0  0  0  0  0  0  0  0  0  0  0
  143.5301  132.1507  150.1854 C   0  0  0  0  0  0  0  0  0  0  0  0
  144.4780  133.3124  149.8260 C   0  0  2  0  0  0  0  0  0  0  0  0
  145.8264  132.6043  149.7983 C   0  0  0  0  0  0  0  0  0  0  0  0
  144.6124  134.2624  151.0419 C   0  0  2  0  0  0  0  0  0  0  0  0
  145.1907  135.6482  150.6738 C   0  0  0  0  0  0  0  0  0  0  0  0
  144.8266  136.6088  151.6424 O   0  0  0  0  0  0  0  0  0  0  0  0
  148.7037  135.0720  152.8961 H   0  0  0  0  0  0  0  0  0  0  0  0
  149.1550  132.3359  155.4666 H   0  0  0  0  0  0  0  0  0  0  0  0
  151.0173  132.4604  157.0996 H   0  0  0  0  0  0  0  0  0  0  0  0
  152.5066  134.4765  157.0932 H   0  0  0  0  0  0  0  0  0  0  0  0
  150.4168  136.2098  153.9853 H   0  0  0  0  0  0  0  0  0  0  0  0
  147.1086  134.7124  151.8309 H   0  0  0  0  0  0  0  0  0  0  0  0
  144.8818  133.1765  152.9265 H   0  0  0  0  0  0  0  0  0  0  0  0
  146.5318  131.5013  151.5886 H   0  0  0  0  0  0  0  0  0  0  0  0
  144.5404  130.3083  150.7579 H   0  0  0  0  0  0  0  0  0  0  0  0
  143.8995  131.1996  152.1375 H   0  0  0  0  0  0  0  0  0  0  0  0
  143.2788  131.5682  149.2983 H   0  0  0  0  0  0  0  0  0  0  0  0
  142.5968  132.4966  150.6310 H   0  0  0  0  0  0  0  0  0  0  0  0
  144.2049  133.8118  148.8961 H   0  0  0  0  0  0  0  0  0  0  0  0
  146.6720  133.2775  149.6512 H   0  0  0  0  0  0  0  0  0  0  0  0
  145.8788  131.8026  149.0592 H   0  0  0  0  0  0  0  0  0  0  0  0
  143.6283  134.4303  151.4826 H   0  0  0  0  0  0  0  0  0  0  0  0
  146.2797  135.6135  150.6410 H   0  0  0  0  0  0  0  0  0  0  0  0
  144.8452  135.9804  149.6948 H   0  0  0  0  0  0  0  0  0  0  0  0
  144.4573  137.3568  151.1983 H   0  0  0  0  0  0  0  0  0  0  0  0
  1  2  2  0  0  0  0
  2  3  1  0  0  0  0
  2 10  1  0  0  0  0
  3  4  1  0  0  0  0
  3 20  1  0  0  0  0
  4  9  1  0  0  0  0
  4  5  2  0  0  0  0
  5  6  1  0  0  0  0
  5 21  1  0  0  0  0
  6  7  2  0  0  0  0
  6 22  1  0  0  0  0
  7  8  1  0  0  0  0
  7 23  1  0  0  0  0
  8  9  2  0  0  0  0
  9 24  1  0  0  0  0
 10 11  1  0  0  0  0
 10 25  1  0  0  0  0
 11 17  1  0  0  0  0
 11 12  1  0  0  0  0
 11 26  1  0  0  0  0
 12 16  1  0  0  0  0
 12 13  1  0  0  0  0
 12 27  1  0  0  0  0
 13 14  1  0  0  0  0
 13 28  1  0  0  0  0
 13 29  1  0  0  0  0
 14 15  1  0  0  0  0
 14 30  1  0  0  0  0
 14 31  1  0  0  0  0
 15 16  1  0  0  0  0
 15 17  1  0  0  0  0
 15 32  1  0  0  0  0
 16 33  1  0  0  0  0
 16 34  1  0  0  0  0
 17 18  1  0  0  0  0
 17 35  1  0  0  0  0
 18 19  1  0  0  0  0
 18 36  1  0  0  0  0
 18 37  1  0  0  0  0
 19 38  1  0  0  0  0
M  END
> <s_m_source_file>
AV-unprocessed.smi

> <i_m_source_file_index>
790

> <i_lp_mmshare_version>
43012

> <i_f3d_flags>
0

> <s_epik_input>
W0NIMl0xW0NIMl1bQ0BASF0oW0NIMl0yKVtDQEBIXShbQ0gyXVtPSF0pW0NAQEhdKFtDQEhdMTIpW05IXUMoPU8pW05IXWMzW2NIXVtjSF1bY0hdbltjSF0z

> <s_epik_cmdline>
J2VwaWtfcHl0aG9uJywgJy1waCcsICc3LjAnLCAnLXRuJywgJzgnLCAnLW1hJywgJzIwMCcsICctbWV0YWxfYmluZGluZycsICctaW1hZScsICc8aW5maWxlLm1hZT4nLCAnLW9tYWUnLCAnPG91dGZpbGUubWFlPic=

> <r_epik_Ionization_Penalty>
0.00497582

> <r_epik_Ionization_Penalty_Charging>
0

> <r_epik_Ionization_Penalty_Neutral>
0.00497582

> <r_epik_State_Penalty>
0.00358602

> <r_epik_Charging_Adjusted_Penalty>
0.00358602

> <i_epik_Tot_Q>
0

> <i_epik_Tot_abs_Q>
0

> <r_epik_Metal_State_Penalty>
-0

> <b_epik_Metal_Only>
0

> <s_lp_Force_Field>
OPLS_2005

> <r_lp_Energy>
52.0711

> <b_lp_Chiralities_Consistent>
1

> <s_lp_Variant>
AV-unprocessed.smi:790-7

> <Gold.Version>
5.8.1

> <Gold.Id.Protein>
6NUR|6NUR_protein|mol2

> <Gold.PLP.Fitness>
43.6050

> <Gold.PLP.PLP>
-33.3379

> <Gold.PLP.part.hbond>
-3.5150

> <Gold.PLP.part.metal>
0.0000

> <Gold.PLP.part.buried>
-0.7630

> <Gold.PLP.part.nonpolar>
-28.1060

> <Gold.PLP.part.repulsive>
0.1140

> <Gold.PLP.ligand.clash>
0.0000

> <Gold.PLP.ligand.torsion>
0.6092

> <Gold.PLP.Chemscore.Hbond>
3.1498

> <Gold.PLP.Chemscore.CHOScore>
0.6746

> <Gold.PLP.Chemscore.Metal>
0.0000

> <Gold.Chemscore.Hbonds>
donor molecule, donor type, donor heavy atom, donor atom, acceptor molecule, acceptor atom, score
      L1  H     3    20       P1  7948  1.00
      L1  H    10    25       P1  7948  0.16
      L1  H    19    38       P1 10171  1.00
      P1  H 10752 10763       L1     8  1.00
      L1  C     9    24       P1  7948  0.47
      L1  C     9    24       P1  7949  0.23

> <Gold.PLP.Chemscore.Internal.Correction>
0.0125

> <Gold.Rescore>
     Score         DG    S(hbond)    S(metal)    S(lipo)     H(rot)  DE(clash)    DE(int)     intcor
     16.33     -17.99       2.07        0.00      86.60       1.78       0.00       1.66       ----

> <Gold.Chemscore.Fitness>
16.3257

> <Gold.Chemscore.DG>
-17.9882

> <Gold.Chemscore.ZeroCoef>
-5.4800

> <Gold.Chemscore.Hbond>
2.0743

> <Gold.Chemscore.Metal>
0.0000

> <Gold.Chemscore.Lipo>
86.6043

> <Gold.Chemscore.Internal_Hbond>
0.0000

> <Gold.Chemscore.DEClash>
0.0037

> <Gold.Chemscore.DEInternal>
1.6588

> <Gold.Chemscore.Rot>
1.7783

> <Gold.Chemscore.Internal.Correction>
   9.000000E+99

> <Gold.Chemscore.Hbonds>
donor molecule, donor type, donor heavy atom, donor atom, acceptor molecule, acceptor atom, score
      L1  H     3    20       P1  7948  0.37
      L1  H    10    25       P1  7948  0.15
      L1  H    19    38       P1 10171  0.99
      P1  H 10752 10763       L1     8  0.29

> <Gold.Chemscore.Hbond.Weighted>
-6.9281

> <Gold.Chemscore.Metal.Weighted>
-0.0000

> <Gold.Chemscore.Lipo.Weighted>
-10.1327

> <Gold.Chemscore.Internal_Hbond.Weighted>
0.0000

> <Gold.Chemscore.DEClash.Weighted>
0.0037

> <Gold.Chemscore.DEInternal.Weighted>
1.6588

> <Gold.Chemscore.Rot.Weighted>
4.5525

> <Gold.Chemscore.Internal.Correction.Weighted>
   9.000000E+99

> <Gold.Protein.RotatedTorsions>
[ 6907 6896 6895 6894 ] final  171.72 input  -60.11 | X-H torsion
[ 7974 7965 7964 7962 ] final -138.33 input  175.53 | X-H torsion
[ 8008 7997 7996 7995 ] final  -71.41 input   59.86 | X-H torsion
[ 10167 10162 10161 10158 ] final  -46.71 input  -65.29 | X-H torsion
[ 10718 10713 10712 10709 ] final  110.45 input   66.30 | X-H torsion
[ 10763 10752 10751 10750 ] final   73.92 input  -60.55 | X-H torsion
[ 11005 11000 10999 10996 ] final  167.12 input  -57.11 | X-H torsion

> <Gold.Protein.ActiveResidues>
 VAL166  LYS551  ARG553  GLY616  TRP617  ASP618  TYR619  PRO620  LYS621  CYS622 
 ASP623  PHE694  ASN695  SER759  ASP760  ASP761  ALA762  ILE779  LEU786  VAL792 
 PHE793  MET794  SER795  GLU796  ALA797  LYS798  CYS799  TRP800  GLU811  SER814 

> <Gold.Protein.RotatedAtoms>
  151.7957  133.3364  159.3511 H   0  0  0  0  0  0  0  0  0  0  0  0  # atno 6907 bound_to 6896
  150.7376  134.5801  159.5943 H   0  0  0  0  0  0  0  0  0  0  0  0  # atno 6908 bound_to 6896
  152.3179  134.7418  160.0372 H   0  0  0  0  0  0  0  0  0  0  0  0  # atno 6909 bound_to 6896
  144.8767  140.6448  143.5232 H   0  0  0  0  0  0  0  0  0  0  0  0  # atno 7974 bound_to 7965
  154.5086  140.0816  156.7944 H   0  0  0  0  0  0  0  0  0  0  0  0  # atno 8008 bound_to 7997
  155.3837  140.3429  155.4230 H   0  0  0  0  0  0  0  0  0  0  0  0  # atno 8009 bound_to 7997
  156.1546  140.1569  156.8702 H   0  0  0  0  0  0  0  0  0  0  0  0  # atno 8010 bound_to 7997
  140.6806  143.2818  151.3822 H   0  0  0  0  0  0  0  0  0  0  0  0  # atno 10167 bound_to 10162
  157.6493  131.0933  150.6604 H   0  0  0  0  0  0  0  0  0  0  0  0  # atno 10718 bound_to 10713
  153.0553  135.5045  154.7966 H   0  0  0  0  0  0  0  0  0  0  0  0  # atno 10763 bound_to 10752
  154.6796  135.2966  154.9633 H   0  0  0  0  0  0  0  0  0  0  0  0  # atno 10764 bound_to 10752
  154.0423  135.6715  153.4844 H   0  0  0  0  0  0  0  0  0  0  0  0  # atno 10765 bound_to 10752
  140.2735  134.7808  157.3696 H   0  0  0  0  0  0  0  0  0  0  0  0  # atno 11005 bound_to 11000
  145.4029  139.1594  143.4167 LP  0  0  0  0  0  0  0  0  0  0  0  0  # atno 17320 bound_to 7965
  146.2967  140.4127  142.8719 LP  0  0  0  0  0  0  0  0  0  0  0  0  # atno 17321 bound_to 7965
  139.6126  144.1067  152.2314 LP  0  0  0  0  0  0  0  0  0  0  0  0  # atno 17342 bound_to 10162
  140.0486  144.5950  150.7354 LP  0  0  0  0  0  0  0  0  0  0  0  0  # atno 17343 bound_to 10162
  156.6917  130.4597  149.5598 LP  0  0  0  0  0  0  0  0  0  0  0  0  # atno 17370 bound_to 10713
  156.1857  130.6527  151.1003 LP  0  0  0  0  0  0  0  0  0  0  0  0  # atno 17371 bound_to 10713
  140.1351  134.5045  155.8075 LP  0  0  0  0  0  0  0  0  0  0  0  0  # atno 17394 bound_to 11000
  141.2174  133.6804  156.7109 LP  0  0  0  0  0  0  0  0  0  0  0  0  # atno 17395 bound_to 11000

$$$$
