AV-unprocessed.smi:85|AV-procd|sdf|811|dock10
  -GOLD-   2262017213D 1   1.00000     0.00000
 Structure written by MMmdl.
 62 65  0  0  0  0  0  0  0  0  1 V2000
  150.3495  134.3599  155.1219 C   0  0  0  0  0  0  0  0  0  0  0  0
  150.6155  135.4441  156.1798 C   0  0  0  0  0  0  0  0  0  0  0  0
  149.6660  136.5613  156.1259 N   0  0  0  0  0  0  0  0  0  0  0  0
  148.5450  136.4512  156.8801 C   0  0  0  0  0  0  0  0  0  0  0  0
  147.5952  137.4069  156.7201 N   0  0  0  0  0  0  0  0  0  0  0  0
  146.4639  137.3528  157.4287 C   0  0  0  0  0  0  0  0  0  0  0  0
  146.0891  136.4475  158.3343 N   0  0  0  0  0  0  0  0  0  0  0  0
  147.0449  135.4899  158.5066 C   0  0  0  0  0  0  0  0  0  0  0  0
  148.2967  135.4203  157.8320 C   0  0  0  0  0  0  0  0  0  0  0  0
  149.0164  134.3223  158.2875 N   0  0  0  0  0  0  0  0  0  0  0  0
  148.2324  133.7704  159.1715 C   0  0  0  0  0  0  0  0  0  0  0  0
  147.0168  134.3920  159.3502 N   0  0  0  0  0  0  0  0  0  0  0  0
  145.9559  133.9843  160.2614 C   0  0  0  0  0  0  0  0  0  0  0  0
  145.5977  135.0305  161.3595 C   0  0  0  0  0  0  0  0  0  0  0  0
  144.8507  134.3494  162.5421 C   0  0  0  0  0  0  0  0  0  0  0  0
  143.7809  133.5373  162.1018 O   0  0  0  0  0  0  0  0  0  0  0  0
  146.8890  135.7089  161.8860 C   0  0  0  0  0  0  0  0  0  0  0  0
  146.6139  136.9733  162.7216 C   0  0  0  0  0  0  0  0  0  0  0  0
  145.8304  137.8948  161.9758 O   0  0  0  0  0  0  0  0  0  0  0  0
  144.5576  137.3717  161.6206 C   0  0  0  0  0  0  0  0  0  0  0  0
  144.7358  136.1434  160.7110 C   0  0  0  0  0  0  0  0  0  0  0  0
  150.1564  137.9420  156.0273 C   0  0  1  0  0  0  0  0  0  0  0  0
  151.6287  138.0256  155.5934 C   0  0  0  0  0  0  0  0  0  0  0  0
  152.0779  139.4912  155.5227 C   0  0  0  0  0  0  0  0  0  0  0  0
  151.2301  140.2343  154.6479 O   0  0  0  0  0  0  0  0  0  0  0  0
  149.8378  140.2621  154.9822 C   0  0  0  0  0  0  0  0  0  0  0  0
  149.5995  141.0780  156.2713 C   0  0  0  0  0  0  0  0  0  0  0  0
  149.1576  140.9818  153.8054 C   0  0  0  0  0  0  0  0  0  0  0  0
  149.3031  138.8130  155.0866 C   0  0  0  0  0  0  0  0  0  0  0  0
  151.1207  133.5909  155.1615 H   0  0  0  0  0  0  0  0  0  0  0  0
  150.3554  134.7831  154.1170 H   0  0  0  0  0  0  0  0  0  0  0  0
  149.3906  133.8646  155.2730 H   0  0  0  0  0  0  0  0  0  0  0  0
  150.6171  135.0014  157.1751 H   0  0  0  0  0  0  0  0  0  0  0  0
  151.6245  135.8200  156.0224 H   0  0  0  0  0  0  0  0  0  0  0  0
  145.7562  138.1470  157.2418 H   0  0  0  0  0  0  0  0  0  0  0  0
  148.5185  132.8815  159.7146 H   0  0  0  0  0  0  0  0  0  0  0  0
  145.0754  133.7598  159.6577 H   0  0  0  0  0  0  0  0  0  0  0  0
  146.2444  133.0370  160.7188 H   0  0  0  0  0  0  0  0  0  0  0  0
  145.5322  133.7336  163.1291 H   0  0  0  0  0  0  0  0  0  0  0  0
  144.4392  135.0815  163.2348 H   0  0  0  0  0  0  0  0  0  0  0  0
  142.9716  134.0058  162.2381 H   0  0  0  0  0  0  0  0  0  0  0  0
  147.4764  135.0099  162.4817 H   0  0  0  0  0  0  0  0  0  0  0  0
  147.5180  135.9932  161.0414 H   0  0  0  0  0  0  0  0  0  0  0  0
  146.1189  136.7339  163.6629 H   0  0  0  0  0  0  0  0  0  0  0  0
  147.5568  137.4542  162.9824 H   0  0  0  0  0  0  0  0  0  0  0  0
  143.9815  137.1310  162.5146 H   0  0  0  0  0  0  0  0  0  0  0  0
  144.0015  138.1455  161.0911 H   0  0  0  0  0  0  0  0  0  0  0  0
  145.2122  136.4780  159.7885 H   0  0  0  0  0  0  0  0  0  0  0  0
  143.7601  135.7575  160.4147 H   0  0  0  0  0  0  0  0  0  0  0  0
  150.0859  138.3847  157.0215 H   0  0  0  0  0  0  0  0  0  0  0  0
  152.2668  137.4815  156.2898 H   0  0  0  0  0  0  0  0  0  0  0  0
  151.7633  137.5624  154.6156 H   0  0  0  0  0  0  0  0  0  0  0  0
  152.1002  139.9401  156.5155 H   0  0  0  0  0  0  0  0  0  0  0  0
  153.0974  139.5454  155.1408 H   0  0  0  0  0  0  0  0  0  0  0  0
  148.5331  141.1825  156.4744 H   0  0  0  0  0  0  0  0  0  0  0  0
  150.0155  142.0816  156.1803 H   0  0  0  0  0  0  0  0  0  0  0  0
  150.0468  140.6201  157.1521 H   0  0  0  0  0  0  0  0  0  0  0  0
  148.0776  141.0385  153.9457 H   0  0  0  0  0  0  0  0  0  0  0  0
  149.3412  140.4641  152.8632 H   0  0  0  0  0  0  0  0  0  0  0  0
  149.5313  142.0003  153.6950 H   0  0  0  0  0  0  0  0  0  0  0  0
  149.3010  138.3789  154.0873 H   0  0  0  0  0  0  0  0  0  0  0  0
  148.2641  138.8182  155.4191 H   0  0  0  0  0  0  0  0  0  0  0  0
  1  2  1  0  0  0  0
  1 30  1  0  0  0  0
  1 31  1  0  0  0  0
  1 32  1  0  0  0  0
  2  3  1  0  0  0  0
  2 33  1  0  0  0  0
  2 34  1  0  0  0  0
  3  4  1  0  0  0  0
  3 22  1  0  0  0  0
  4  9  1  0  0  0  0
  4  5  2  0  0  0  0
  5  6  1  0  0  0  0
  6  7  2  0  0  0  0
  6 35  1  0  0  0  0
  7  8  1  0  0  0  0
  8 12  1  0  0  0  0
  8  9  2  0  0  0  0
  9 10  1  0  0  0  0
 10 11  2  0  0  0  0
 11 12  1  0  0  0  0
 11 36  1  0  0  0  0
 12 13  1  0  0  0  0
 13 14  1  0  0  0  0
 13 37  1  0  0  0  0
 13 38  1  0  0  0  0
 14 21  1  0  0  0  0
 14 15  1  0  0  0  0
 14 17  1  0  0  0  0
 15 16  1  0  0  0  0
 15 39  1  0  0  0  0
 15 40  1  0  0  0  0
 16 41  1  0  0  0  0
 17 18  1  0  0  0  0
 17 42  1  0  0  0  0
 17 43  1  0  0  0  0
 18 19  1  0  0  0  0
 18 44  1  0  0  0  0
 18 45  1  0  0  0  0
 19 20  1  0  0  0  0
 20 21  1  0  0  0  0
 20 46  1  0  0  0  0
 20 47  1  0  0  0  0
 21 48  1  0  0  0  0
 21 49  1  0  0  0  0
 22 29  1  0  0  0  0
 22 23  1  0  0  0  0
 22 50  1  0  0  0  0
 23 24  1  0  0  0  0
 23 51  1  0  0  0  0
 23 52  1  0  0  0  0
 24 25  1  0  0  0  0
 24 53  1  0  0  0  0
 24 54  1  0  0  0  0
 25 26  1  0  0  0  0
 26 27  1  0  0  0  0
 26 28  1  0  0  0  0
 26 29  1  0  0  0  0
 27 55  1  0  0  0  0
 27 56  1  0  0  0  0
 27 57  1  0  0  0  0
 28 58  1  0  0  0  0
 28 59  1  0  0  0  0
 28 60  1  0  0  0  0
 29 61  1  0  0  0  0
 29 62  1  0  0  0  0
M  END
> <s_m_source_file>
AV-unprocessed.smi

> <i_m_source_file_index>
85

> <i_lp_mmshare_version>
43012

> <i_f3d_flags>
0

> <s_epik_input>
W0NIM11DMShbQ0gzXSlPW0NIMl1bQ0gyXVtDQEhdKFtDSDJdMSlOKFtDSDJdW0NIM10pYyhuW2NIXW4yKWMoYzIzKW5bY0hdbjNbQ0gyXUM0KFtDSDJdW09IXSlbQ0gyXVtDSDJdT1tDSDJdW0NIMl00

> <s_epik_cmdline>
J2VwaWtfcHl0aG9uJywgJy1waCcsICc3LjAnLCAnLXRuJywgJzgnLCAnLW1hJywgJzIwMCcsICctbWV0YWxfYmluZGluZycsICctaW1hZScsICc8aW5maWxlLm1hZT4nLCAnLW9tYWUnLCAnPG91dGZpbGUubWFlPic=

> <r_lp_tautomer_probability>
1

> <r_epik_Ionization_Penalty>
0.00336056

> <r_epik_Ionization_Penalty_Charging>
0

> <r_epik_Ionization_Penalty_Neutral>
0.00336056

> <r_epik_State_Penalty>
0.00222191

> <r_epik_Charging_Adjusted_Penalty>
0.00222191

> <i_epik_Tot_Q>
0

> <i_epik_Tot_abs_Q>
0

> <r_epik_Metal_State_Penalty>
-0

> <b_epik_Metal_Only>
0

> <s_lp_Force_Field>
OPLS_2005

> <r_lp_Energy>
36.9586

> <b_lp_Chiralities_Consistent>
1

> <s_lp_Variant>
AV-unprocessed.smi:85-2

> <Gold.Version>
5.8.1

> <Gold.Id.Protein>
6NUR|6NUR_protein|mol2

> <Gold.PLP.Fitness>
43.1704

> <Gold.PLP.PLP>
-38.9562

> <Gold.PLP.part.hbond>
-3.7568

> <Gold.PLP.part.metal>
0.0000

> <Gold.PLP.part.buried>
-3.6011

> <Gold.PLP.part.nonpolar>
-32.2337

> <Gold.PLP.part.repulsive>
0.0624

> <Gold.PLP.ligand.clash>
0.0000

> <Gold.PLP.ligand.torsion>
1.3768

> <Gold.PLP.Chemscore.Hbond>
1.9407

> <Gold.PLP.Chemscore.CHOScore>
0.0000

> <Gold.PLP.Chemscore.Metal>
0.0000

> <Gold.Chemscore.Hbonds>
donor molecule, donor type, donor heavy atom, donor atom, acceptor molecule, acceptor atom, score
      P1  H  6896  6907       L1    10  0.75
      P1  H  6934  6947       L1    19  0.66
      P1  H  7989  7998       L1    25  0.60

> <Gold.PLP.Chemscore.Internal.Correction>
1.1458

> <Gold.Rescore>
     Score         DG    S(hbond)    S(metal)    S(lipo)     H(rot)  DE(clash)    DE(int)     intcor
      9.35     -15.12       1.27        0.00      98.79       2.41       0.27       5.50       ----

> <Gold.Chemscore.Fitness>
9.3540

> <Gold.Chemscore.DG>
-15.1187

> <Gold.Chemscore.ZeroCoef>
-5.4800

> <Gold.Chemscore.Hbond>
1.2712

> <Gold.Chemscore.Metal>
0.0000

> <Gold.Chemscore.Lipo>
98.7864

> <Gold.Chemscore.Internal_Hbond>
0.0000

> <Gold.Chemscore.DEClash>
0.2679

> <Gold.Chemscore.DEInternal>
5.4968

> <Gold.Chemscore.Rot>
2.4083

> <Gold.Chemscore.Internal.Correction>
   9.000000E+99

> <Gold.Chemscore.Hbonds>
donor molecule, donor type, donor heavy atom, donor atom, acceptor molecule, acceptor atom, score
      P1  H  6896  6907       L1    10  0.09
      P1  H  6934  6947       L1    19  0.34
      P1  H  7989  7998       L1    25  0.58

> <Gold.Chemscore.Hbond.Weighted>
-4.2459

> <Gold.Chemscore.Metal.Weighted>
-0.0000

> <Gold.Chemscore.Lipo.Weighted>
-11.5580

> <Gold.Chemscore.Internal_Hbond.Weighted>
0.0000

> <Gold.Chemscore.DEClash.Weighted>
0.2679

> <Gold.Chemscore.DEInternal.Weighted>
5.4968

> <Gold.Chemscore.Rot.Weighted>
6.1652

> <Gold.Chemscore.Internal.Correction.Weighted>
   9.000000E+99

> <Gold.Protein.RotatedTorsions>
[ 6907 6896 6895 6894 ] final  -99.48 input  -60.11 | X-H torsion
[ 7974 7965 7964 7962 ] final  164.95 input  175.53 | X-H torsion
[ 8008 7997 7996 7995 ] final   86.60 input   59.86 | X-H torsion
[ 10167 10162 10161 10158 ] final    0.33 input  -65.29 | X-H torsion
[ 10718 10713 10712 10709 ] final  -77.16 input   66.30 | X-H torsion
[ 10763 10752 10751 10750 ] final   59.98 input  -60.55 | X-H torsion
[ 11005 11000 10999 10996 ] final   89.95 input  -57.11 | X-H torsion

> <Gold.Protein.ActiveResidues>
 VAL166  LYS551  ARG553  GLY616  TRP617  ASP618  TYR619  PRO620  LYS621  CYS622 
 ASP623  PHE694  ASN695  SER759  ASP760  ASP761  ALA762  ILE779  LEU786  VAL792 
 PHE793  MET794  SER795  GLU796  ALA797  LYS798  CYS799  TRP800  GLU811  SER814 

> <Gold.Protein.RotatedAtoms>
  150.7081  134.1035  159.3973 H   0  0  0  0  0  0  0  0  0  0  0  0  # atno 6907 bound_to 6896
  151.9021  135.0372  160.0516 H   0  0  0  0  0  0  0  0  0  0  0  0  # atno 6908 bound_to 6896
  152.2405  133.5096  159.5304 H   0  0  0  0  0  0  0  0  0  0  0  0  # atno 6909 bound_to 6896
  144.7523  139.8400  143.6362 H   0  0  0  0  0  0  0  0  0  0  0  0  # atno 7974 bound_to 7965
  155.9648  140.3390  155.6522 H   0  0  0  0  0  0  0  0  0  0  0  0  # atno 8008 bound_to 7997
  155.6752  140.0731  157.2523 H   0  0  0  0  0  0  0  0  0  0  0  0  # atno 8009 bound_to 7997
  154.4152  140.1684  156.1909 H   0  0  0  0  0  0  0  0  0  0  0  0  # atno 8010 bound_to 7997
  140.6733  143.6986  150.7969 H   0  0  0  0  0  0  0  0  0  0  0  0  # atno 10167 bound_to 10162
  156.0153  130.4484  150.3303 H   0  0  0  0  0  0  0  0  0  0  0  0  # atno 10718 bound_to 10713
  152.9908  135.5552  154.5799 H   0  0  0  0  0  0  0  0  0  0  0  0  # atno 10763 bound_to 10752
  154.5183  135.2806  155.1286 H   0  0  0  0  0  0  0  0  0  0  0  0  # atno 10764 bound_to 10752
  154.2650  135.6374  153.5341 H   0  0  0  0  0  0  0  0  0  0  0  0  # atno 10765 bound_to 10752
  139.8865  134.8584  156.3215 H   0  0  0  0  0  0  0  0  0  0  0  0  # atno 11005 bound_to 11000
  146.1489  139.4566  143.0061 LP  0  0  0  0  0  0  0  0  0  0  0  0  # atno 17320 bound_to 7965
  145.6901  141.0166  143.1560 LP  0  0  0  0  0  0  0  0  0  0  0  0  # atno 17321 bound_to 7965
  140.0675  143.5093  152.2596 LP  0  0  0  0  0  0  0  0  0  0  0  0  # atno 17342 bound_to 10162
  139.6013  144.7583  151.3166 LP  0  0  0  0  0  0  0  0  0  0  0  0  # atno 17343 bound_to 10162
  157.1401  131.0294  151.2931 LP  0  0  0  0  0  0  0  0  0  0  0  0  # atno 17370 bound_to 10713
  157.4479  130.7581  149.7125 LP  0  0  0  0  0  0  0  0  0  0  0  0  # atno 17371 bound_to 10713
  140.9783  133.7283  156.0635 LP  0  0  0  0  0  0  0  0  0  0  0  0  # atno 17394 bound_to 11000
  140.7782  134.3755  157.5493 LP  0  0  0  0  0  0  0  0  0  0  0  0  # atno 17395 bound_to 11000

$$$$
