AV-unprocessed.smi:2862|AV-procd|sdf|11011|dock7
  -GOLD-   2272015473D 1   1.00000     0.00000
 Structure written by MMmdl.
 52 54  0  0  0  0  0  0  0  0  1 V2000
  148.9716  133.7864  154.2760 C   0  0  0  0  0  0  0  0  0  0  0  0
  147.7104  134.6624  154.3734 C   0  0  1  0  0  0  0  0  0  0  0  0
  148.0500  136.0850  154.3707 N   0  0  0  0  0  0  0  0  0  0  0  0
  147.7900  136.9798  155.3383 C   0  0  0  0  0  0  0  0  0  0  0  0
  147.1634  136.7116  156.3643 O   0  0  0  0  0  0  0  0  0  0  0  0
  148.3180  138.4017  155.0972 C   0  0  0  0  0  0  0  0  0  0  0  0
  149.7561  138.5348  155.3872 N   0  0  0  0  0  0  0  0  0  0  0  0
  150.6474  137.8494  154.5369 C   0  0  0  0  0  0  0  0  0  0  0  0
  151.9787  137.9132  154.6960 C   0  0  0  0  0  0  0  0  0  0  0  0
  152.5032  138.7332  155.7611 C   0  0  0  0  0  0  0  0  0  0  0  0
  151.6593  139.4122  156.5659 C   0  0  0  0  0  0  0  0  0  0  0  0
  152.1739  140.2484  157.6537 C   0  0  0  0  0  0  0  0  0  0  0  0
  153.0167  139.8243  158.4451 O   0  0  0  0  0  0  0  0  0  0  0  0
  151.6745  141.5166  157.7390 N   0  0  0  0  0  0  0  0  0  0  0  0
  151.0348  142.2171  156.6117 C   0  0  0  0  0  0  0  0  0  0  0  0
  151.8588  142.3721  158.9310 C   0  0  1  0  0  0  0  0  0  0  0  0
  153.3355  142.4252  159.3718 C   0  0  0  0  0  0  0  0  0  0  0  0
  151.2668  143.7702  158.8104 C   0  0  0  0  0  0  0  0  0  0  0  0
  151.9555  144.8372  157.9929 C   0  0  0  0  0  0  0  0  0  0  0  0
  151.9057  144.9515  159.5001 C   0  0  0  0  0  0  0  0  0  0  0  0
  150.1874  139.2918  156.4442 C   0  0  0  0  0  0  0  0  0  0  0  0
  149.3839  139.8184  157.2200 O   0  0  0  0  0  0  0  0  0  0  0  0
  146.6651  134.2593  153.3437 C   0  0  0  0  0  0  0  0  0  0  0  0
  146.3529  132.8066  153.0772 C   0  0  0  0  0  0  0  0  0  0  0  0
  147.0678  133.6329  152.0304 C   0  0  0  0  0  0  0  0  0  0  0  0
  148.7250  132.7342  154.4190 H   0  0  0  0  0  0  0  0  0  0  0  0
  149.7004  134.0584  155.0401 H   0  0  0  0  0  0  0  0  0  0  0  0
  149.4561  133.8785  153.3038 H   0  0  0  0  0  0  0  0  0  0  0  0
  147.2757  134.4804  155.3572 H   0  0  0  0  0  0  0  0  0  0  0  0
  148.5632  136.4149  153.5662 H   0  0  0  0  0  0  0  0  0  0  0  0
  148.1230  138.6970  154.0642 H   0  0  0  0  0  0  0  0  0  0  0  0
  147.7285  139.0870  155.7076 H   0  0  0  0  0  0  0  0  0  0  0  0
  150.1829  137.2693  153.7528 H   0  0  0  0  0  0  0  0  0  0  0  0
  152.6418  137.3768  154.0333 H   0  0  0  0  0  0  0  0  0  0  0  0
  153.5731  138.8171  155.8893 H   0  0  0  0  0  0  0  0  0  0  0  0
  151.3111  141.8078  155.6393 H   0  0  0  0  0  0  0  0  0  0  0  0
  151.3239  143.2680  156.5808 H   0  0  0  0  0  0  0  0  0  0  0  0
  149.9493  142.1750  156.7050 H   0  0  0  0  0  0  0  0  0  0  0  0
  151.3437  141.8928  159.7654 H   0  0  0  0  0  0  0  0  0  0  0  0
  153.4310  142.9067  160.3454 H   0  0  0  0  0  0  0  0  0  0  0  0
  153.9579  142.9855  158.6745 H   0  0  0  0  0  0  0  0  0  0  0  0
  153.7541  141.4220  159.4620 H   0  0  0  0  0  0  0  0  0  0  0  0
  150.1804  143.7877  158.7577 H   0  0  0  0  0  0  0  0  0  0  0  0
  152.9138  144.5911  157.5396 H   0  0  0  0  0  0  0  0  0  0  0  0
  151.3257  145.5110  157.4156 H   0  0  0  0  0  0  0  0  0  0  0  0
  151.2421  145.6998  159.9283 H   0  0  0  0  0  0  0  0  0  0  0  0
  152.8319  144.7825  160.0459 H   0  0  0  0  0  0  0  0  0  0  0  0
  145.8179  134.9402  153.2877 H   0  0  0  0  0  0  0  0  0  0  0  0
  146.9350  132.0571  153.6100 H   0  0  0  0  0  0  0  0  0  0  0  0
  145.3133  132.5445  152.8913 H   0  0  0  0  0  0  0  0  0  0  0  0
  146.5046  133.9191  151.1443 H   0  0  0  0  0  0  0  0  0  0  0  0
  148.1247  133.4312  151.8671 H   0  0  0  0  0  0  0  0  0  0  0  0
  1  2  1  0  0  0  0
  1 26  1  0  0  0  0
  1 27  1  0  0  0  0
  1 28  1  0  0  0  0
  2  3  1  0  0  0  0
  2 23  1  0  0  0  0
  2 29  1  0  0  0  0
  3  4  1  0  0  0  0
  3 30  1  0  0  0  0
  4  5  2  0  0  0  0
  4  6  1  0  0  0  0
  6  7  1  0  0  0  0
  6 31  1  0  0  0  0
  6 32  1  0  0  0  0
  7 21  1  0  0  0  0
  7  8  1  0  0  0  0
  8  9  2  0  0  0  0
  8 33  1  0  0  0  0
  9 10  1  0  0  0  0
  9 34  1  0  0  0  0
 10 11  2  0  0  0  0
 10 35  1  0  0  0  0
 11 12  1  0  0  0  0
 11 21  1  0  0  0  0
 12 13  2  0  0  0  0
 12 14  1  0  0  0  0
 14 15  1  0  0  0  0
 14 16  1  0  0  0  0
 15 36  1  0  0  0  0
 15 37  1  0  0  0  0
 15 38  1  0  0  0  0
 16 17  1  0  0  0  0
 16 18  1  0  0  0  0
 16 39  1  0  0  0  0
 17 40  1  0  0  0  0
 17 41  1  0  0  0  0
 17 42  1  0  0  0  0
 18 20  1  0  0  0  0
 18 19  1  0  0  0  0
 18 43  1  0  0  0  0
 19 20  1  0  0  0  0
 19 44  1  0  0  0  0
 19 45  1  0  0  0  0
 20 46  1  0  0  0  0
 20 47  1  0  0  0  0
 21 22  2  0  0  0  0
 23 25  1  0  0  0  0
 23 24  1  0  0  0  0
 23 48  1  0  0  0  0
 24 25  1  0  0  0  0
 24 49  1  0  0  0  0
 24 50  1  0  0  0  0
 25 51  1  0  0  0  0
 25 52  1  0  0  0  0
M  END
> <s_m_source_file>
AV-unprocessed.smi

> <i_m_source_file_index>
2862

> <i_lp_mmshare_version>
43012

> <i_f3d_flags>
0

> <s_epik_input>
W0NIMl0xW0NIMl1bQ0hdMVtDQEhdKFtDSDNdKVtOSF1DKD1PKVtDSDJdbjJbY0hdW2NIXVtjSF1jKGMyPU8pQyg9TylOKFtDSDNdKVtDQEhdKFtDSDNdKVtDSF0zW0NIMl1bQ0gyXTM=

> <s_epik_cmdline>
J2VwaWtfcHl0aG9uJywgJy1waCcsICc3LjAnLCAnLXRuJywgJzgnLCAnLW1hJywgJzIwMCcsICctbWV0YWxfYmluZGluZycsICctaW1hZScsICc8aW5maWxlLm1hZT4nLCAnLW9tYWUnLCAnPG91dGZpbGUubWFlPic=

> <r_lp_tautomer_probability>
1

> <r_epik_Ionization_Penalty>
4.00841e-08

> <r_epik_Ionization_Penalty_Charging>
2.07773e-08

> <r_epik_Ionization_Penalty_Neutral>
1.93069e-08

> <r_epik_State_Penalty>
-0

> <r_epik_Charging_Adjusted_Penalty>
2.07773e-08

> <i_epik_Tot_Q>
0

> <i_epik_Tot_abs_Q>
0

> <r_epik_Metal_State_Penalty>
-0

> <b_epik_Metal_Only>
0

> <s_lp_Force_Field>
OPLS_2005

> <r_lp_Energy>
59.5746

> <b_lp_Chiralities_Consistent>
1

> <s_lp_Variant>
AV-unprocessed.smi:2862-4

> <Gold.Version>
5.8.1

> <Gold.Id.Protein>
6NUR|6NUR_protein|mol2

> <Gold.PLP.Fitness>
52.5245

> <Gold.PLP.PLP>
-45.6200

> <Gold.PLP.part.hbond>
-2.0000

> <Gold.PLP.part.metal>
0.0000

> <Gold.PLP.part.buried>
-4.8601

> <Gold.PLP.part.nonpolar>
-38.4277

> <Gold.PLP.part.repulsive>
0.0055

> <Gold.PLP.ligand.clash>
1.7335

> <Gold.PLP.ligand.torsion>
2.5813

> <Gold.PLP.Chemscore.Hbond>
2.0000

> <Gold.PLP.Chemscore.CHOScore>
1.1167

> <Gold.PLP.Chemscore.Metal>
0.0000

> <Gold.Chemscore.Hbonds>
donor molecule, donor type, donor heavy atom, donor atom, acceptor molecule, acceptor atom, score
      L1  H     3    30       P1  7948  0.98
      P1  H  7997  8010       L1    13  0.28
      L1  C     8    33       P1  7948  1.00
      L1  C     8    33       P1  7949  0.10

> <Gold.PLP.Chemscore.Internal.Correction>
4.4507

> <Gold.Rescore>
     Score         DG    S(hbond)    S(metal)    S(lipo)     H(rot)  DE(clash)    DE(int)     intcor
     13.96     -18.60       0.96        0.00     122.63       1.73       0.18       4.46       ----

> <Gold.Chemscore.Fitness>
13.9581

> <Gold.Chemscore.DG>
-18.5999

> <Gold.Chemscore.ZeroCoef>
-5.4800

> <Gold.Chemscore.Hbond>
0.9620

> <Gold.Chemscore.Metal>
0.0000

> <Gold.Chemscore.Lipo>
122.6320

> <Gold.Chemscore.Internal_Hbond>
0.0000

> <Gold.Chemscore.DEClash>
0.1838

> <Gold.Chemscore.DEInternal>
4.4579

> <Gold.Chemscore.Rot>
1.7348

> <Gold.Chemscore.Internal.Correction>
   9.000000E+99

> <Gold.Chemscore.Hbonds>
donor molecule, donor type, donor heavy atom, donor atom, acceptor molecule, acceptor atom, score
      L1  H     3    30       P1  7948  0.93
      P1  H  7997  8010       L1    13  0.01

> <Gold.Chemscore.Hbond.Weighted>
-3.2131

> <Gold.Chemscore.Metal.Weighted>
-0.0000

> <Gold.Chemscore.Lipo.Weighted>
-14.3479

> <Gold.Chemscore.Internal_Hbond.Weighted>
0.0000

> <Gold.Chemscore.DEClash.Weighted>
0.1838

> <Gold.Chemscore.DEInternal.Weighted>
4.4579

> <Gold.Chemscore.Rot.Weighted>
4.4412

> <Gold.Chemscore.Internal.Correction.Weighted>
   9.000000E+99

> <Gold.Protein.RotatedTorsions>
[ 6907 6896 6895 6894 ] final  -59.68 input  -60.11 | X-H torsion
[ 7974 7965 7964 7962 ] final   34.34 input  175.53 | X-H torsion
[ 8008 7997 7996 7995 ] final   44.81 input   59.86 | X-H torsion
[ 10167 10162 10161 10158 ] final  -67.30 input  -65.29 | X-H torsion
[ 10718 10713 10712 10709 ] final   75.60 input   66.30 | X-H torsion
[ 10763 10752 10751 10750 ] final  -64.33 input  -60.55 | X-H torsion
[ 11005 11000 10999 10996 ] final   24.27 input  -57.11 | X-H torsion

> <Gold.Protein.ActiveResidues>
 VAL166  LYS551  ARG553  GLY616  TRP617  ASP618  TYR619  PRO620  LYS621  CYS622 
 ASP623  PHE694  ASN695  SER759  ASP760  ASP761  ALA762  ILE779  LEU786  VAL792 
 PHE793  MET794  SER795  GLU796  ALA797  LYS798  CYS799  TRP800  GLU811  SER814 

> <Gold.Protein.RotatedAtoms>
  150.7912  134.6936  159.6510 H   0  0  0  0  0  0  0  0  0  0  0  0  # atno 6907 bound_to 6896
  152.4017  134.6271  160.0075 H   0  0  0  0  0  0  0  0  0  0  0  0  # atno 6908 bound_to 6896
  151.6540  133.3283  159.3195 H   0  0  0  0  0  0  0  0  0  0  0  0  # atno 6909 bound_to 6896
  146.1359  139.6281  142.9195 H   0  0  0  0  0  0  0  0  0  0  0  0  # atno 7974 bound_to 7965
  155.3255  140.3399  155.4240 H   0  0  0  0  0  0  0  0  0  0  0  0  # atno 8008 bound_to 7997
  156.1887  140.1690  156.8171 H   0  0  0  0  0  0  0  0  0  0  0  0  # atno 8009 bound_to 7997
  154.5417  140.0723  156.8504 H   0  0  0  0  0  0  0  0  0  0  0  0  # atno 8010 bound_to 7997
  140.5593  143.2312  151.6760 H   0  0  0  0  0  0  0  0  0  0  0  0  # atno 10167 bound_to 10162
  157.6640  130.9734  150.1376 H   0  0  0  0  0  0  0  0  0  0  0  0  # atno 10718 bound_to 10713
  154.3285  135.6181  153.5540 H   0  0  0  0  0  0  0  0  0  0  0  0  # atno 10763 bound_to 10752
  152.9813  135.5741  154.4989 H   0  0  0  0  0  0  0  0  0  0  0  0  # atno 10764 bound_to 10752
  154.4671  135.2858  155.1647 H   0  0  0  0  0  0  0  0  0  0  0  0  # atno 10765 bound_to 10752
  140.3606  134.2130  155.7672 H   0  0  0  0  0  0  0  0  0  0  0  0  # atno 11005 bound_to 11000
  145.5156  141.0434  143.2464 LP  0  0  0  0  0  0  0  0  0  0  0  0  # atno 17320 bound_to 7965
  144.7740  139.6672  143.7183 LP  0  0  0  0  0  0  0  0  0  0  0  0  # atno 17321 bound_to 7965
  139.5062  144.3689  152.0490 LP  0  0  0  0  0  0  0  0  0  0  0  0  # atno 17342 bound_to 10162
  140.2814  144.3856  150.6118 LP  0  0  0  0  0  0  0  0  0  0  0  0  # atno 17343 bound_to 10162
  156.2207  130.3674  149.8559 LP  0  0  0  0  0  0  0  0  0  0  0  0  # atno 17370 bound_to 10713
  156.6413  130.8706  151.3514 LP  0  0  0  0  0  0  0  0  0  0  0  0  # atno 17371 bound_to 10713
  141.1985  133.8033  157.0579 LP  0  0  0  0  0  0  0  0  0  0  0  0  # atno 17394 bound_to 11000
  140.0630  134.9744  157.1337 LP  0  0  0  0  0  0  0  0  0  0  0  0  # atno 17395 bound_to 11000

$$$$
