AV-unprocessed.smi:623|AV-procd|sdf|3097|dock5
  -GOLD-   22720 0 13D 1   1.00000     0.00000
 Structure written by MMmdl.
 44 46  0  0  0  0  0  0  0  0  2 V2000
  147.0254  133.6998  151.9577 C   0  0  0  0  0  0  0  0  0  0  0  0
  147.1595  132.5102  152.9499 C   0  0  0  0  0  0  0  0  0  0  0  0
  145.9593  131.5761  152.6270 C   0  0  0  0  0  0  0  0  0  0  0  0
  148.5336  131.8114  152.9200 C   0  0  2  0  0  0  0  0  0  0  0  0
  148.4315  130.7657  154.0536 C   0  0  0  0  0  0  0  0  0  0  0  0
  147.5800  131.4997  155.1109 C   0  0  0  0  0  0  0  0  0  0  0  0
  147.3295  132.8801  154.4506 C   0  0  2  0  0  0  0  0  0  0  0  0
  146.1528  133.6400  155.0959 C   0  0  0  0  0  0  0  0  0  0  0  0
  148.7053  133.6111  154.5189 C   0  0  2  0  0  0  0  0  0  0  0  0
  148.5874  135.0508  154.3219 N   0  0  0  0  0  0  0  0  0  0  0  0
  148.1627  135.9535  155.2190 C   0  0  0  0  0  0  0  0  0  0  0  0
  147.7888  135.6478  156.3508 O   0  0  0  0  0  0  0  0  0  0  0  0
  148.1752  137.4333  154.7959 C   0  0  0  0  0  0  0  0  0  0  0  0
  149.5237  138.0272  154.7159 N   0  0  0  0  0  0  0  0  0  0  0  0
  150.6202  137.1718  154.9243 C   0  0  0  0  0  0  0  0  0  0  0  0
  151.8906  137.6062  154.8228 C   0  0  0  0  0  0  0  0  0  0  0  0
  152.1159  139.0066  154.4880 C   0  0  0  0  0  0  0  0  0  0  0  0
  153.2690  139.4207  154.3878 O   0  0  0  0  0  0  0  0  0  0  0  0
  151.0199  139.7978  154.2977 N   0  5  0  0  0  0  0  0  0  0  0  0
  149.7335  139.3412  154.4001 C   0  0  0  0  0  0  0  0  0  0  0  0
  148.7591  140.0677  154.2041 O   0  0  0  0  0  0  0  0  0  0  0  0
  149.5143  132.9021  153.4081 C   0  0  0  0  0  0  0  0  0  0  0  0
  146.9745  133.3386  150.9303 H   0  0  0  0  0  0  0  0  0  0  0  0
  147.8409  134.4169  151.9782 H   0  0  0  0  0  0  0  0  0  0  0  0
  146.1091  134.2611  152.1443 H   0  0  0  0  0  0  0  0  0  0  0  0
  145.8895  130.6814  153.2415 H   0  0  0  0  0  0  0  0  0  0  0  0
  146.0071  131.2342  151.5926 H   0  0  0  0  0  0  0  0  0  0  0  0
  145.0142  132.1070  152.7448 H   0  0  0  0  0  0  0  0  0  0  0  0
  148.8106  131.3812  151.9572 H   0  0  0  0  0  0  0  0  0  0  0  0
  147.9414  129.8529  153.7146 H   0  0  0  0  0  0  0  0  0  0  0  0
  149.4097  130.4785  154.4410 H   0  0  0  0  0  0  0  0  0  0  0  0
  146.6494  130.9657  155.3042 H   0  0  0  0  0  0  0  0  0  0  0  0
  148.0946  131.5781  156.0692 H   0  0  0  0  0  0  0  0  0  0  0  0
  146.3687  133.8784  156.1376 H   0  0  0  0  0  0  0  0  0  0  0  0
  145.2391  133.0461  155.0767 H   0  0  0  0  0  0  0  0  0  0  0  0
  145.9412  134.5773  154.5806 H   0  0  0  0  0  0  0  0  0  0  0  0
  149.1737  133.4547  155.4927 H   0  0  0  0  0  0  0  0  0  0  0  0
  148.8638  135.4007  153.4156 H   0  0  0  0  0  0  0  0  0  0  0  0
  147.6573  137.5256  153.8400 H   0  0  0  0  0  0  0  0  0  0  0  0
  147.5648  137.9958  155.5037 H   0  0  0  0  0  0  0  0  0  0  0  0
  150.3657  136.1482  155.1574 H   0  0  0  0  0  0  0  0  0  0  0  0
  152.7215  136.9342  154.9791 H   0  0  0  0  0  0  0  0  0  0  0  0
  150.4439  132.4802  153.7913 H   0  0  0  0  0  0  0  0  0  0  0  0
  149.7901  133.5794  152.5993 H   0  0  0  0  0  0  0  0  0  0  0  0
  1  2  1  0  0  0  0
  1 23  1  0  0  0  0
  1 24  1  0  0  0  0
  1 25  1  0  0  0  0
  2  7  1  0  0  0  0
  2  3  1  0  0  0  0
  2  4  1  0  0  0  0
  3 26  1  0  0  0  0
  3 27  1  0  0  0  0
  3 28  1  0  0  0  0
  4 22  1  0  0  0  0
  4  5  1  0  0  0  0
  4 29  1  0  0  0  0
  5  6  1  0  0  0  0
  5 30  1  0  0  0  0
  5 31  1  0  0  0  0
  6  7  1  0  0  0  0
  6 32  1  0  0  0  0
  6 33  1  0  0  0  0
  7  8  1  0  0  0  0
  7  9  1  0  0  0  0
  8 34  1  0  0  0  0
  8 35  1  0  0  0  0
  8 36  1  0  0  0  0
  9 10  1  0  0  0  0
  9 22  1  0  0  0  0
  9 37  1  0  0  0  0
 10 11  1  0  0  0  0
 10 38  1  0  0  0  0
 11 12  2  0  0  0  0
 11 13  1  0  0  0  0
 13 14  1  0  0  0  0
 13 39  1  0  0  0  0
 13 40  1  0  0  0  0
 14 20  1  0  0  0  0
 14 15  1  0  0  0  0
 15 16  2  0  0  0  0
 15 41  1  0  0  0  0
 16 17  1  0  0  0  0
 16 42  1  0  0  0  0
 17 18  2  0  0  0  0
 17 19  1  0  0  0  0
 19 20  1  0  0  0  0
 20 21  2  0  0  0  0
 22 43  1  0  0  0  0
 22 44  1  0  0  0  0
M  CHG  1  19  -1
M  END
> <s_m_source_file>
AV-unprocessed.smi

> <i_m_source_file_index>
623

> <i_lp_mmshare_version>
43012

> <i_f3d_flags>
0

> <s_epik_input>
W0NIM11bQ0BdMTJDKFtDSDNdKShbQ0gzXSlbQ0BIXShbQ0gyXVtDSDJdMSlbQ0gyXVtDQEBIXTJbTkhdQyg9TylbQ0gyXW4zW2NIXVtjSF1jKD1PKVtuSF1jMz1P

> <s_epik_cmdline>
J2VwaWtfcHl0aG9uJywgJy1waCcsICc3LjAnLCAnLXRuJywgJzgnLCAnLW1hJywgJzIwMCcsICctbWV0YWxfYmluZGluZycsICctaW1hZScsICc8aW5maWxlLm1hZT4nLCAnLW9tYWUnLCAnPG91dGZpbGUubWFlPic=

> <r_lp_tautomer_probability>
0.999537

> <r_epik_Ionization_Penalty>
3.12624

> <r_epik_Ionization_Penalty_Charging>
3.01273e-08

> <r_epik_Ionization_Penalty_Neutral>
3.12624

> <r_epik_State_Penalty>
3.12534

> <r_epik_Charging_Adjusted_Penalty>
3.12534

> <i_epik_Tot_Q>
-1

> <i_epik_Tot_abs_Q>
1

> <r_epik_Metal_State_Penalty>
0.46406

> <b_epik_Metal_Only>
1

> <s_lp_Force_Field>
OPLS_2005

> <r_lp_Energy>
63.0451

> <b_lp_Chiralities_Consistent>
1

> <s_lp_Variant>
AV-unprocessed.smi:623-7

> <Gold.Version>
5.8.1

> <Gold.Id.Protein>
6NUR|6NUR_protein|mol2

> <Gold.PLP.Fitness>
39.2235

> <Gold.PLP.PLP>
-30.9397

> <Gold.PLP.part.hbond>
-4.0000

> <Gold.PLP.part.metal>
0.0000

> <Gold.PLP.part.buried>
-2.0203

> <Gold.PLP.part.nonpolar>
-24.8287

> <Gold.PLP.part.repulsive>
0.5603

> <Gold.PLP.ligand.clash>
0.0320

> <Gold.PLP.ligand.torsion>
0.3488

> <Gold.PLP.Chemscore.Hbond>
3.0000

> <Gold.PLP.Chemscore.CHOScore>
0.0000

> <Gold.PLP.Chemscore.Metal>
0.0000

> <Gold.Chemscore.Hbonds>
donor molecule, donor type, donor heavy atom, donor atom, acceptor molecule, acceptor atom, score
      L1  H    10    38       P1  7948  1.00
      P1  H  7989  7998       L1    19  0.80
      P1  H  7997  8008       L1    18  0.98

> <Gold.PLP.Chemscore.Internal.Correction>
0.0135

> <Gold.Rescore>
     Score         DG    S(hbond)    S(metal)    S(lipo)     H(rot)  DE(clash)    DE(int)     intcor
     15.34     -16.99       2.85        0.00      52.87       1.63       0.09       1.56       ----

> <Gold.Chemscore.Fitness>
15.3422

> <Gold.Chemscore.DG>
-16.9909

> <Gold.Chemscore.ZeroCoef>
-5.4800

> <Gold.Chemscore.Hbond>
2.8454

> <Gold.Chemscore.Metal>
0.0000

> <Gold.Chemscore.Lipo>
52.8673

> <Gold.Chemscore.Internal_Hbond>
0.0000

> <Gold.Chemscore.DEClash>
0.0921

> <Gold.Chemscore.DEInternal>
1.5565

> <Gold.Chemscore.Rot>
1.6322

> <Gold.Chemscore.Internal.Correction>
   9.000000E+99

> <Gold.Chemscore.Hbonds>
donor molecule, donor type, donor heavy atom, donor atom, acceptor molecule, acceptor atom, score
      L1  H    10    38       P1  7948  0.78
      P1  H  7989  7998       L1    19  0.18
      P1  H  7997  8008       L1    18  0.91

> <Gold.Chemscore.Hbond.Weighted>
-9.5037

> <Gold.Chemscore.Metal.Weighted>
-0.0000

> <Gold.Chemscore.Lipo.Weighted>
-6.1855

> <Gold.Chemscore.Internal_Hbond.Weighted>
0.0000

> <Gold.Chemscore.DEClash.Weighted>
0.0921

> <Gold.Chemscore.DEInternal.Weighted>
1.5565

> <Gold.Chemscore.Rot.Weighted>
4.1783

> <Gold.Chemscore.Internal.Correction.Weighted>
   9.000000E+99

> <Gold.Protein.RotatedTorsions>
[ 6907 6896 6895 6894 ] final   48.64 input  -60.11 | X-H torsion
[ 7974 7965 7964 7962 ] final    8.64 input  175.53 | X-H torsion
[ 8008 7997 7996 7995 ] final  -12.86 input   59.86 | X-H torsion
[ 10167 10162 10161 10158 ] final   38.57 input  -65.29 | X-H torsion
[ 10718 10713 10712 10709 ] final  177.19 input   66.30 | X-H torsion
[ 10763 10752 10751 10750 ] final  100.52 input  -60.55 | X-H torsion
[ 11005 11000 10999 10996 ] final   75.69 input  -57.11 | X-H torsion

> <Gold.Protein.ActiveResidues>
 VAL166  LYS551  ARG553  GLY616  TRP617  ASP618  TYR619  PRO620  LYS621  CYS622 
 ASP623  PHE694  ASN695  SER759  ASP760  ASP761  ALA762  ILE779  LEU786  VAL792 
 PHE793  MET794  SER795  GLU796  ALA797  LYS798  CYS799  TRP800  GLU811  SER814 

> <Gold.Protein.RotatedAtoms>
  152.2817  134.7820  160.0394 H   0  0  0  0  0  0  0  0  0  0  0  0  # atno 6907 bound_to 6896
  151.8397  133.3416  159.3647 H   0  0  0  0  0  0  0  0  0  0  0  0  # atno 6908 bound_to 6896
  150.7192  134.5331  159.5754 H   0  0  0  0  0  0  0  0  0  0  0  0  # atno 6909 bound_to 6896
  146.2414  139.9903  142.8426 H   0  0  0  0  0  0  0  0  0  0  0  0  # atno 7974 bound_to 7965
  154.5341  140.2265  155.8753 H   0  0  0  0  0  0  0  0  0  0  0  0  # atno 8008 bound_to 7997
  156.1794  140.3103  155.9083 H   0  0  0  0  0  0  0  0  0  0  0  0  # atno 8009 bound_to 7997
  155.3390  140.0449  157.3035 H   0  0  0  0  0  0  0  0  0  0  0  0  # atno 8010 bound_to 7997
  140.3923  144.1835  150.6131 H   0  0  0  0  0  0  0  0  0  0  0  0  # atno 10167 bound_to 10162
  156.9090  130.9903  151.3024 H   0  0  0  0  0  0  0  0  0  0  0  0  # atno 10718 bound_to 10713
  153.3149  135.4076  155.1368 H   0  0  0  0  0  0  0  0  0  0  0  0  # atno 10763 bound_to 10752
  154.8586  135.3573  154.5673 H   0  0  0  0  0  0  0  0  0  0  0  0  # atno 10764 bound_to 10752
  153.6104  135.7068  153.5408 H   0  0  0  0  0  0  0  0  0  0  0  0  # atno 10765 bound_to 10752
  139.9332  134.7538  156.1302 H   0  0  0  0  0  0  0  0  0  0  0  0  # atno 11005 bound_to 11000
  145.1509  140.9622  143.4433 LP  0  0  0  0  0  0  0  0  0  0  0  0  # atno 17320 bound_to 7965
  145.0206  139.3428  143.6074 LP  0  0  0  0  0  0  0  0  0  0  0  0  # atno 17321 bound_to 7965
  140.4826  143.2374  151.8933 LP  0  0  0  0  0  0  0  0  0  0  0  0  # atno 17342 bound_to 10162
  139.4788  144.5252  151.8744 LP  0  0  0  0  0  0  0  0  0  0  0  0  # atno 17343 bound_to 10162
  157.5979  130.8491  149.8758 LP  0  0  0  0  0  0  0  0  0  0  0  0  # atno 17370 bound_to 10713
  156.0545  130.3711  150.1123 LP  0  0  0  0  0  0  0  0  0  0  0  0  # atno 17371 bound_to 10713
  141.0932  133.6706  156.2587 LP  0  0  0  0  0  0  0  0  0  0  0  0  # atno 17394 bound_to 11000
  140.6145  134.5424  157.5538 LP  0  0  0  0  0  0  0  0  0  0  0  0  # atno 17395 bound_to 11000

$$$$
