AV-unprocessed.smi:1325|AV-procd|sdf|5473|dock4
  -GOLD-   22720 5 43D 1   1.00000     0.00000
 Structure written by MMmdl.
 35 36  0  0  0  0  0  0  0  0  1 V2000
  153.9595  136.5857  163.1264 C   0  0  0  0  0  0  0  0  0  0  0  0
  153.9533  136.9448  161.6648 C   0  0  0  0  0  0  0  0  0  0  0  0
  153.5142  138.1209  161.3575 N   0  0  0  0  0  0  0  0  0  0  0  0
  153.4616  138.5493  160.0461 N   0  0  0  0  0  0  0  0  0  0  0  0
  152.9342  139.9103  159.8853 C   0  0  0  0  0  0  0  0  0  0  0  0
  153.7935  140.9659  160.6157 C   0  0  1  0  0  0  0  0  0  0  0  0
  155.1149  140.9021  160.1152 O   0  0  0  0  0  0  0  0  0  0  0  0
  153.2061  142.3589  160.4455 C   0  0  0  0  0  0  0  0  0  0  0  0
  153.0607  142.9260  159.1598 C   0  0  0  0  0  0  0  0  0  0  0  0
  152.5085  144.2130  159.0094 C   0  0  0  0  0  0  0  0  0  0  0  0
  152.0975  144.9401  160.1430 C   0  0  0  0  0  0  0  0  0  0  0  0
  152.2372  144.3788  161.4268 C   0  0  0  0  0  0  0  0  0  0  0  0
  152.7885  143.0914  161.5775 C   0  0  0  0  0  0  0  0  0  0  0  0
  153.8529  137.8078  158.9706 C   0  0  0  0  0  0  0  0  0  0  0  0
  153.7840  138.2288  157.8147 O   0  0  0  0  0  0  0  0  0  0  0  0
  154.3531  136.4776  159.3256 C   0  0  0  0  0  0  0  0  0  0  0  0
  154.7751  135.6679  158.2286 C   0  0  0  0  0  0  0  0  0  0  0  0
  155.0982  135.0084  157.3337 N   0  0  0  0  0  0  0  0  0  0  0  0
  154.4103  136.0454  160.6102 C   0  0  0  0  0  0  0  0  0  0  0  0
  154.9200  134.6741  161.0321 C   0  0  0  0  0  0  0  0  0  0  0  0
  153.3640  135.6913  163.3083 H   0  0  0  0  0  0  0  0  0  0  0  0
  153.5471  137.3852  163.7438 H   0  0  0  0  0  0  0  0  0  0  0  0
  154.9748  136.3924  163.4727 H   0  0  0  0  0  0  0  0  0  0  0  0
  152.8278  140.1689  158.8296 H   0  0  0  0  0  0  0  0  0  0  0  0
  151.9175  139.9310  160.2827 H   0  0  0  0  0  0  0  0  0  0  0  0
  153.8369  140.7426  161.6824 H   0  0  0  0  0  0  0  0  0  0  0  0
  155.3856  141.7751  159.8757 H   0  0  0  0  0  0  0  0  0  0  0  0
  153.3703  142.3741  158.2843 H   0  0  0  0  0  0  0  0  0  0  0  0
  152.3998  144.6418  158.0241 H   0  0  0  0  0  0  0  0  0  0  0  0
  151.6741  145.9270  160.0275 H   0  0  0  0  0  0  0  0  0  0  0  0
  151.9202  144.9353  162.2965 H   0  0  0  0  0  0  0  0  0  0  0  0
  152.8883  142.6687  162.5667 H   0  0  0  0  0  0  0  0  0  0  0  0
  155.2694  134.0847  160.1850 H   0  0  0  0  0  0  0  0  0  0  0  0
  154.1282  134.1066  161.5222 H   0  0  0  0  0  0  0  0  0  0  0  0
  155.7544  134.7724  161.7268 H   0  0  0  0  0  0  0  0  0  0  0  0
  1  2  1  0  0  0  0
  1 21  1  0  0  0  0
  1 22  1  0  0  0  0
  1 23  1  0  0  0  0
  2 19  1  0  0  0  0
  2  3  2  0  0  0  0
  3  4  1  0  0  0  0
  4  5  1  0  0  0  0
  4 14  1  0  0  0  0
  5  6  1  0  0  0  0
  5 24  1  0  0  0  0
  5 25  1  0  0  0  0
  6  7  1  0  0  0  0
  6  8  1  0  0  0  0
  6 26  1  0  0  0  0
  7 27  1  0  0  0  0
  8 13  1  0  0  0  0
  8  9  2  0  0  0  0
  9 10  1  0  0  0  0
  9 28  1  0  0  0  0
 10 11  2  0  0  0  0
 10 29  1  0  0  0  0
 11 12  1  0  0  0  0
 11 30  1  0  0  0  0
 12 13  2  0  0  0  0
 12 31  1  0  0  0  0
 13 32  1  0  0  0  0
 14 15  2  0  0  0  0
 14 16  1  0  0  0  0
 16 17  1  0  0  0  0
 16 19  2  0  0  0  0
 17 18  3  0  0  0  0
 19 20  1  0  0  0  0
 20 33  1  0  0  0  0
 20 34  1  0  0  0  0
 20 35  1  0  0  0  0
M  END
> <s_m_source_file>
AV-unprocessed.smi

> <i_m_source_file_index>
1325

> <i_lp_mmshare_version>
43012

> <i_f3d_flags>
0

> <s_epik_input>
TiNDYyhjMVtDSDNdKWMoPU8pbihuYzFbQ0gzXSlbQ0gyXVtDQEhdKFtPSF0pYzJbY0hdW2NIXVtjSF1bY0hdW2NIXTI=

> <s_epik_cmdline>
J2VwaWtfcHl0aG9uJywgJy1waCcsICc3LjAnLCAnLXRuJywgJzgnLCAnLW1hJywgJzIwMCcsICctbWV0YWxfYmluZGluZycsICctaW1hZScsICc8aW5maWxlLm1hZT4nLCAnLW9tYWUnLCAnPG91dGZpbGUubWFlPic=

> <r_lp_tautomer_probability>
1

> <r_epik_Ionization_Penalty>
7.1854e-08

> <r_epik_Ionization_Penalty_Charging>
1.40848e-10

> <r_epik_Ionization_Penalty_Neutral>
7.17131e-08

> <r_epik_State_Penalty>
-0

> <r_epik_Charging_Adjusted_Penalty>
1.40848e-10

> <i_epik_Tot_Q>
0

> <i_epik_Tot_abs_Q>
0

> <r_epik_Metal_State_Penalty>
-0

> <b_epik_Metal_Only>
0

> <s_lp_Force_Field>
OPLS_2005

> <r_lp_Energy>
28.0712

> <b_lp_Chiralities_Consistent>
1

> <s_lp_Variant>
AV-unprocessed.smi:1325-2

> <Gold.Version>
5.8.1

> <Gold.Id.Protein>
6NUR|6NUR_protein|mol2

> <Gold.PLP.Fitness>
48.7397

> <Gold.PLP.PLP>
-42.7652

> <Gold.PLP.part.hbond>
-2.0000

> <Gold.PLP.part.metal>
0.0000

> <Gold.PLP.part.buried>
-5.0106

> <Gold.PLP.part.nonpolar>
-35.6240

> <Gold.PLP.part.repulsive>
0.0000

> <Gold.PLP.ligand.clash>
0.0000

> <Gold.PLP.ligand.torsion>
0.0027

> <Gold.PLP.Chemscore.Hbond>
1.9920

> <Gold.PLP.Chemscore.CHOScore>
0.0000

> <Gold.PLP.Chemscore.Metal>
0.0000

> <Gold.Chemscore.Hbonds>
donor molecule, donor type, donor heavy atom, donor atom, acceptor molecule, acceptor atom, score
      P1  H  7997  8009       L1    15  0.80
      P1  H 10752 10764       L1    18  0.62

> <Gold.PLP.Chemscore.Internal.Correction>
0.0039

> <Gold.Rescore>
     Score         DG    S(hbond)    S(metal)    S(lipo)     H(rot)  DE(clash)    DE(int)     intcor
     20.50     -20.57       1.97        0.00     114.36       1.90       0.03       0.04       ----

> <Gold.Chemscore.Fitness>
20.5001

> <Gold.Chemscore.DG>
-20.5726

> <Gold.Chemscore.ZeroCoef>
-5.4800

> <Gold.Chemscore.Hbond>
1.9727

> <Gold.Chemscore.Metal>
0.0000

> <Gold.Chemscore.Lipo>
114.3572

> <Gold.Chemscore.Internal_Hbond>
0.0000

> <Gold.Chemscore.DEClash>
0.0297

> <Gold.Chemscore.DEInternal>
0.0428

> <Gold.Chemscore.Rot>
1.9047

> <Gold.Chemscore.Internal.Correction>
   9.000000E+99

> <Gold.Chemscore.Hbonds>
donor molecule, donor type, donor heavy atom, donor atom, acceptor molecule, acceptor atom, score
      P1  H  7997  8009       L1    15  0.75
      P1  H 10752 10764       L1    18  0.60

> <Gold.Chemscore.Hbond.Weighted>
-6.5889

> <Gold.Chemscore.Metal.Weighted>
-0.0000

> <Gold.Chemscore.Lipo.Weighted>
-13.3798

> <Gold.Chemscore.Internal_Hbond.Weighted>
0.0000

> <Gold.Chemscore.DEClash.Weighted>
0.0297

> <Gold.Chemscore.DEInternal.Weighted>
0.0428

> <Gold.Chemscore.Rot.Weighted>
4.8760

> <Gold.Chemscore.Internal.Correction.Weighted>
   9.000000E+99

> <Gold.Protein.RotatedTorsions>
[ 6907 6896 6895 6894 ] final  -66.23 input  -60.11 | X-H torsion
[ 7974 7965 7964 7962 ] final   99.88 input  175.53 | X-H torsion
[ 8008 7997 7996 7995 ] final  154.01 input   59.86 | X-H torsion
[ 10167 10162 10161 10158 ] final  127.98 input  -65.29 | X-H torsion
[ 10718 10713 10712 10709 ] final   13.31 input   66.30 | X-H torsion
[ 10763 10752 10751 10750 ] final   52.33 input  -60.55 | X-H torsion
[ 11005 11000 10999 10996 ] final  139.28 input  -57.11 | X-H torsion

> <Gold.Protein.ActiveResidues>
 VAL166  LYS551  ARG553  GLY616  TRP617  ASP618  TYR619  PRO620  LYS621  CYS622 
 ASP623  PHE694  ASN695  SER759  ASP760  ASP761  ALA762  ILE779  LEU786  VAL792 
 PHE793  MET794  SER795  GLU796  ALA797  LYS798  CYS799  TRP800  GLU811  SER814 

> <Gold.Protein.RotatedAtoms>
  150.7478  134.6051  159.6056 H   0  0  0  0  0  0  0  0  0  0  0  0  # atno 6907 bound_to 6896
  152.3401  134.7143  160.0275 H   0  0  0  0  0  0  0  0  0  0  0  0  # atno 6908 bound_to 6896
  151.7598  133.3297  159.3451 H   0  0  0  0  0  0  0  0  0  0  0  0  # atno 6909 bound_to 6896
  145.3930  139.2360  143.3341 H   0  0  0  0  0  0  0  0  0  0  0  0  # atno 7974 bound_to 7965
  156.2553  140.1978  156.6580 H   0  0  0  0  0  0  0  0  0  0  0  0  # atno 8008 bound_to 7997
  154.6486  140.0574  156.9954 H   0  0  0  0  0  0  0  0  0  0  0  0  # atno 8009 bound_to 7997
  155.1453  140.3246  155.4446 H   0  0  0  0  0  0  0  0  0  0  0  0  # atno 8010 bound_to 7997
  139.5550  144.6842  151.4208 H   0  0  0  0  0  0  0  0  0  0  0  0  # atno 10167 bound_to 10162
  157.0228  130.6161  149.5723 H   0  0  0  0  0  0  0  0  0  0  0  0  # atno 10718 bound_to 10713
  152.9788  135.5816  154.4561 H   0  0  0  0  0  0  0  0  0  0  0  0  # atno 10763 bound_to 10752
  154.4143  135.2770  155.2018 H   0  0  0  0  0  0  0  0  0  0  0  0  # atno 10764 bound_to 10752
  154.3795  135.6150  153.5837 H   0  0  0  0  0  0  0  0  0  0  0  0  # atno 10765 bound_to 10752
  140.0243  134.9382  157.0537 H   0  0  0  0  0  0  0  0  0  0  0  0  # atno 11005 bound_to 11000
  146.2789  140.4615  142.8784 LP  0  0  0  0  0  0  0  0  0  0  0  0  # atno 17320 bound_to 7965
  144.8427  140.6882  143.6219 LP  0  0  0  0  0  0  0  0  0  0  0  0  # atno 17321 bound_to 7965
  140.6821  143.8057  150.7136 LP  0  0  0  0  0  0  0  0  0  0  0  0  # atno 17342 bound_to 10162
  140.1513  143.4355  152.2129 LP  0  0  0  0  0  0  0  0  0  0  0  0  # atno 17343 bound_to 10162
  156.0096  130.5187  150.7946 LP  0  0  0  0  0  0  0  0  0  0  0  0  # atno 17370 bound_to 10713
  157.5237  131.0933  151.0046 LP  0  0  0  0  0  0  0  0  0  0  0  0  # atno 17371 bound_to 10713
  140.4333  134.1758  155.7169 LP  0  0  0  0  0  0  0  0  0  0  0  0  # atno 17394 bound_to 11000
  141.1793  133.8447  157.1313 LP  0  0  0  0  0  0  0  0  0  0  0  0  # atno 17395 bound_to 11000

$$$$
