AV-unprocessed.smi:1107|AV-procd|sdf|4786|dock2
  -GOLD-   22720 3333D 1   1.00000     0.00000
 Structure written by MMmdl.
 48 49  0  0  0  0  0  0  0  0  3 V2000
  151.8542  141.7413  158.1823 C   0  0  0  0  0  0  0  0  0  0  0  0
  151.6132  140.6832  157.1276 C   0  0  0  0  0  0  0  0  0  0  0  0
  150.6330  140.8189  156.3186 N   0  0  0  0  0  0  0  0  0  0  0  0
  150.3946  139.8312  155.3477 C   0  0  0  0  0  0  0  0  0  0  0  0
  149.1937  140.0638  154.4483 C   0  0  0  0  0  0  0  0  0  0  0  0
  151.1971  138.7330  155.2473 C   0  0  0  0  0  0  0  0  0  0  0  0
  150.9665  137.6111  154.2359 C   0  0  0  0  0  0  0  0  0  0  0  0
  150.5429  136.2860  154.8660 C   0  0  0  0  0  0  0  0  0  0  0  0
  151.3424  135.6278  155.5300 O   0  0  0  0  0  0  0  0  0  0  0  0
  149.2889  135.8916  154.5990 N   0  0  0  0  0  0  0  0  0  0  0  0
  148.7203  134.5774  154.8847 C   0  0  1  0  0  0  0  0  0  0  0  0
  148.9649  134.2120  156.3551 C   0  0  0  0  0  0  0  0  0  0  0  0
  147.2167  134.5595  154.5261 C   0  0  0  0  0  0  0  0  0  0  0  0
  146.9426  134.5020  153.0639 N   0  3  0  0  0  0  0  0  0  0  0  0
  145.8275  135.4040  152.6734 C   0  0  0  0  0  0  0  0  0  0  0  0
  145.6322  135.4353  151.1484 C   0  0  0  0  0  0  0  0  0  0  0  0
  145.4277  134.0242  150.5838 C   0  0  0  0  0  0  0  0  0  0  0  0
  146.5778  133.1112  151.0248 C   0  0  0  0  0  0  0  0  0  0  0  0
  146.7347  133.1202  152.5538 C   0  0  0  0  0  0  0  0  0  0  0  0
  152.3125  138.6121  156.2032 C   0  0  0  0  0  0  0  0  0  0  0  0
  153.0464  137.6247  156.1785 O   0  0  0  0  0  0  0  0  0  0  0  0
  152.4767  139.6110  157.1146 N   0  5  0  0  0  0  0  0  0  0  0  0
  151.2737  142.6412  157.9748 H   0  0  0  0  0  0  0  0  0  0  0  0
  152.9088  142.0175  158.2130 H   0  0  0  0  0  0  0  0  0  0  0  0
  151.5658  141.3648  159.1641 H   0  0  0  0  0  0  0  0  0  0  0  0
  148.5029  139.2227  154.5038 H   0  0  0  0  0  0  0  0  0  0  0  0
  149.5104  140.1877  153.4127 H   0  0  0  0  0  0  0  0  0  0  0  0
  148.6490  140.9619  154.7418 H   0  0  0  0  0  0  0  0  0  0  0  0
  150.2013  137.9141  153.5211 H   0  0  0  0  0  0  0  0  0  0  0  0
  151.8621  137.4546  153.6328 H   0  0  0  0  0  0  0  0  0  0  0  0
  148.7128  136.5248  154.0621 H   0  0  0  0  0  0  0  0  0  0  0  0
  149.2200  133.8189  154.2811 H   0  0  0  0  0  0  0  0  0  0  0  0
  148.5617  133.2254  156.5853 H   0  0  0  0  0  0  0  0  0  0  0  0
  148.4945  134.9297  157.0282 H   0  0  0  0  0  0  0  0  0  0  0  0
  150.0313  134.1929  156.5821 H   0  0  0  0  0  0  0  0  0  0  0  0
  146.7155  133.7313  155.0294 H   0  0  0  0  0  0  0  0  0  0  0  0
  146.7664  135.4729  154.9180 H   0  0  0  0  0  0  0  0  0  0  0  0
  144.9081  135.0777  153.1622 H   0  0  0  0  0  0  0  0  0  0  0  0
  146.0332  136.4157  153.0256 H   0  0  0  0  0  0  0  0  0  0  0  0
  144.7792  136.0651  150.8942 H   0  0  0  0  0  0  0  0  0  0  0  0
  146.5008  135.8944  150.6789 H   0  0  0  0  0  0  0  0  0  0  0  0
  144.4785  133.6189  150.9366 H   0  0  0  0  0  0  0  0  0  0  0  0
  145.3702  134.0593  149.4953 H   0  0  0  0  0  0  0  0  0  0  0  0
  146.4030  132.0943  150.6726 H   0  0  0  0  0  0  0  0  0  0  0  0
  147.5073  133.4422  150.5616 H   0  0  0  0  0  0  0  0  0  0  0  0
  147.5801  132.4859  152.8168 H   0  0  0  0  0  0  0  0  0  0  0  0
  145.8530  132.6849  153.0261 H   0  0  0  0  0  0  0  0  0  0  0  0
  147.7681  134.8603  152.6038 H   0  0  0  0  0  0  0  0  0  0  0  0
  1  2  1  0  0  0  0
  1 23  1  0  0  0  0
  1 24  1  0  0  0  0
  1 25  1  0  0  0  0
  2 22  1  0  0  0  0
  2  3  2  0  0  0  0
  3  4  1  0  0  0  0
  4  5  1  0  0  0  0
  4  6  2  0  0  0  0
  5 26  1  0  0  0  0
  5 27  1  0  0  0  0
  5 28  1  0  0  0  0
  6  7  1  0  0  0  0
  6 20  1  0  0  0  0
  7  8  1  0  0  0  0
  7 29  1  0  0  0  0
  7 30  1  0  0  0  0
  8  9  2  0  0  0  0
  8 10  1  0  0  0  0
 10 11  1  0  0  0  0
 10 31  1  0  0  0  0
 11 12  1  0  0  0  0
 11 13  1  0  0  0  0
 11 32  1  0  0  0  0
 12 33  1  0  0  0  0
 12 34  1  0  0  0  0
 12 35  1  0  0  0  0
 13 14  1  0  0  0  0
 13 36  1  0  0  0  0
 13 37  1  0  0  0  0
 14 19  1  0  0  0  0
 14 15  1  0  0  0  0
 14 48  1  0  0  0  0
 15 16  1  0  0  0  0
 15 38  1  0  0  0  0
 15 39  1  0  0  0  0
 16 17  1  0  0  0  0
 16 40  1  0  0  0  0
 16 41  1  0  0  0  0
 17 18  1  0  0  0  0
 17 42  1  0  0  0  0
 17 43  1  0  0  0  0
 18 19  1  0  0  0  0
 18 44  1  0  0  0  0
 18 45  1  0  0  0  0
 19 46  1  0  0  0  0
 19 47  1  0  0  0  0
 20 21  2  0  0  0  0
 20 22  1  0  0  0  0
M  CHG  1  14   1
M  CHG  1  22  -1
M  END
> <s_m_source_file>
AV-unprocessed.smi

> <i_m_source_file_index>
1107

> <i_lp_mmshare_version>
43012

> <i_f3d_flags>
0

> <s_epik_input>
W0NIM11jMW5jKFtDSDNdKWMoYyg9TylbbkhdMSlbQ0gyXUMoPU8pW05IXVtDQEhdKFtDSDNdKVtDSDJdTjJbQ0gyXVtDSDJdW0NIMl1bQ0gyXVtDSDJdMg==

> <s_epik_cmdline>
J2VwaWtfcHl0aG9uJywgJy1waCcsICc3LjAnLCAnLXRuJywgJzgnLCAnLW1hJywgJzIwMCcsICctbWV0YWxfYmluZGluZycsICctaW1hZScsICc8aW5maWxlLm1hZT4nLCAnLW9tYWUnLCAnPG91dGZpbGUubWFlPic=

> <r_lp_tautomer_probability>
0.839158

> <r_epik_Ionization_Penalty>
6.34615

> <r_epik_Ionization_Penalty_Charging>
0.00266072

> <r_epik_Ionization_Penalty_Neutral>
6.34348

> <r_epik_State_Penalty>
4.30851

> <r_epik_Charging_Adjusted_Penalty>
4.31117

> <i_epik_Tot_Q>
0

> <i_epik_Tot_abs_Q>
2

> <r_epik_Metal_State_Penalty>
0.75957

> <b_epik_Metal_Only>
1

> <s_lp_Force_Field>
OPLS_2005

> <r_lp_Energy>
17.1347

> <b_lp_Chiralities_Consistent>
1

> <s_lp_Variant>
AV-unprocessed.smi:1107-6

> <Gold.Version>
5.8.1

> <Gold.Id.Protein>
6NUR|6NUR_protein|mol2

> <Gold.PLP.Fitness>
49.4973

> <Gold.PLP.PLP>
-35.7636

> <Gold.PLP.part.hbond>
-4.7742

> <Gold.PLP.part.metal>
0.0000

> <Gold.PLP.part.buried>
-1.4003

> <Gold.PLP.part.nonpolar>
-28.6766

> <Gold.PLP.part.repulsive>
0.1565

> <Gold.PLP.ligand.clash>
0.0000

> <Gold.PLP.ligand.torsion>
0.8197

> <Gold.PLP.Chemscore.Hbond>
5.1006

> <Gold.PLP.Chemscore.CHOScore>
0.0000

> <Gold.PLP.Chemscore.Metal>
0.0000

> <Gold.Chemscore.Hbonds>
donor molecule, donor type, donor heavy atom, donor atom, acceptor molecule, acceptor atom, score
      L1  H    10    31       P1  7948  0.12
      L1  H    14    48       P1  7948  2.00
      P1  H  7997  8009       L1    22  1.80
      P1  H 10752 10764       L1     9  1.00

> <Gold.PLP.Chemscore.Internal.Correction>
0.0712

> <Gold.Rescore>
     Score         DG    S(hbond)    S(metal)    S(lipo)     H(rot)  DE(clash)    DE(int)     intcor
     14.95     -18.74       2.83        0.00      74.53       1.92       0.38       3.41       ----

> <Gold.Chemscore.Fitness>
14.9488

> <Gold.Chemscore.DG>
-18.7413

> <Gold.Chemscore.ZeroCoef>
-5.4800

> <Gold.Chemscore.Hbond>
2.8339

> <Gold.Chemscore.Metal>
0.0000

> <Gold.Chemscore.Lipo>
74.5286

> <Gold.Chemscore.Internal_Hbond>
0.0000

> <Gold.Chemscore.DEClash>
0.3810

> <Gold.Chemscore.DEInternal>
3.4115

> <Gold.Chemscore.Rot>
1.9233

> <Gold.Chemscore.Internal.Correction>
   9.000000E+99

> <Gold.Chemscore.Hbonds>
donor molecule, donor type, donor heavy atom, donor atom, acceptor molecule, acceptor atom, score
      L1  H    10    31       P1  7948  0.13
      L1  H    14    48       P1  7948  0.91
      P1  H  7997  8009       L1    22  0.15
      P1  H 10752 10764       L1     9  0.92

> <Gold.Chemscore.Hbond.Weighted>
-9.4652

> <Gold.Chemscore.Metal.Weighted>
-0.0000

> <Gold.Chemscore.Lipo.Weighted>
-8.7198

> <Gold.Chemscore.Internal_Hbond.Weighted>
0.0000

> <Gold.Chemscore.DEClash.Weighted>
0.3810

> <Gold.Chemscore.DEInternal.Weighted>
3.4115

> <Gold.Chemscore.Rot.Weighted>
4.9237

> <Gold.Chemscore.Internal.Correction.Weighted>
   9.000000E+99

> <Gold.Protein.RotatedTorsions>
[ 6907 6896 6895 6894 ] final  121.59 input  -60.11 | X-H torsion
[ 7974 7965 7964 7962 ] final -112.80 input  175.53 | X-H torsion
[ 8008 7997 7996 7995 ] final  176.44 input   59.86 | X-H torsion
[ 10167 10162 10161 10158 ] final -136.52 input  -65.29 | X-H torsion
[ 10718 10713 10712 10709 ] final  159.27 input   66.30 | X-H torsion
[ 10763 10752 10751 10750 ] final  -42.28 input  -60.55 | X-H torsion
[ 11005 11000 10999 10996 ] final -130.70 input  -57.11 | X-H torsion

> <Gold.Protein.ActiveResidues>
 VAL166  LYS551  ARG553  GLY616  TRP617  ASP618  TYR619  PRO620  LYS621  CYS622 
 ASP623  PHE694  ASN695  SER759  ASP760  ASP761  ALA762  ILE779  LEU786  VAL792 
 PHE793  MET794  SER795  GLU796  ALA797  LYS798  CYS799  TRP800  GLU811  SER814 

> <Gold.Protein.RotatedAtoms>
  152.4309  133.7276  159.6568 H   0  0  0  0  0  0  0  0  0  0  0  0  # atno 6907 bound_to 6896
  150.8188  133.8278  159.3154 H   0  0  0  0  0  0  0  0  0  0  0  0  # atno 6908 bound_to 6896
  151.5966  135.1052  160.0102 H   0  0  0  0  0  0  0  0  0  0  0  0  # atno 6909 bound_to 6896
  145.1397  140.8771  143.3709 H   0  0  0  0  0  0  0  0  0  0  0  0  # atno 7974 bound_to 7965
  156.0764  140.1383  156.9766 H   0  0  0  0  0  0  0  0  0  0  0  0  # atno 8008 bound_to 7997
  154.4560  140.0961  156.6809 H   0  0  0  0  0  0  0  0  0  0  0  0  # atno 8009 bound_to 7997
  155.5146  140.3454  155.4397 H   0  0  0  0  0  0  0  0  0  0  0  0  # atno 8010 bound_to 7997
  139.8670  143.7005  152.2644 H   0  0  0  0  0  0  0  0  0  0  0  0  # atno 10167 bound_to 10162
  157.1665  131.0600  151.2205 H   0  0  0  0  0  0  0  0  0  0  0  0  # atno 10718 bound_to 10713
  153.9764  135.6722  153.4748 H   0  0  0  0  0  0  0  0  0  0  0  0  # atno 10763 bound_to 10752
  153.0769  135.4944  154.8419 H   0  0  0  0  0  0  0  0  0  0  0  0  # atno 10764 bound_to 10752
  154.7190  135.3113  154.9039 H   0  0  0  0  0  0  0  0  0  0  0  0  # atno 10765 bound_to 10752
  140.9323  134.1303  157.4224 H   0  0  0  0  0  0  0  0  0  0  0  0  # atno 11005 bound_to 11000
  145.0546  139.3154  143.5911 LP  0  0  0  0  0  0  0  0  0  0  0  0  # atno 17320 bound_to 7965
  146.3506  139.9966  142.8680 LP  0  0  0  0  0  0  0  0  0  0  0  0  # atno 17321 bound_to 7965
  139.7320  144.7580  151.0787 LP  0  0  0  0  0  0  0  0  0  0  0  0  # atno 17342 bound_to 10162
  140.7766  143.5077  150.9691 LP  0  0  0  0  0  0  0  0  0  0  0  0  # atno 17343 bound_to 10162
  157.4084  130.7371  149.6820 LP  0  0  0  0  0  0  0  0  0  0  0  0  # atno 17370 bound_to 10713
  155.9745  130.4102  150.3918 LP  0  0  0  0  0  0  0  0  0  0  0  0  # atno 17371 bound_to 10713
  139.8799  135.0009  156.6037 LP  0  0  0  0  0  0  0  0  0  0  0  0  # atno 17394 bound_to 11000
  140.7846  133.8632  155.8596 LP  0  0  0  0  0  0  0  0  0  0  0  0  # atno 17395 bound_to 11000

$$$$
