AV-unprocessed.smi:1457|AV-procd|sdf|5919|dock10
  -GOLD-   22720 6 03D 1   1.00000     0.00000
 Structure written by MMmdl.
 36 37  0  0  0  0  0  0  0  0  2 V2000
  146.2147  138.1590  152.3394 C   0  0  0  0  0  0  0  0  0  0  0  0
  146.8591  139.1650  153.2106 N   0  3  2  0  0  0  0  0  0  0  0  0
  147.0710  140.4601  152.5171 C   0  0  0  0  0  0  0  0  0  0  0  0
  147.6228  141.5208  153.4843 C   0  0  0  0  0  0  0  0  0  0  0  0
  148.9207  141.0392  154.1532 C   0  0  1  0  0  0  0  0  0  0  0  0
  149.3649  142.0193  155.1410 N   0  0  0  0  0  0  0  0  0  0  0  0
  150.2482  141.7950  156.1246 C   0  0  0  0  0  0  0  0  0  0  0  0
  150.7905  140.7075  156.3199 O   0  0  0  0  0  0  0  0  0  0  0  0
  150.4370  142.8998  156.8659 N   0  0  0  0  0  0  0  0  0  0  0  0
  151.3233  143.0860  157.9607 C   0  0  0  0  0  0  0  0  0  0  0  0
  151.6446  144.3477  158.5173 C   0  0  0  0  0  0  0  0  0  0  0  0
  152.5201  144.4013  159.6189 C   0  0  0  0  0  0  0  0  0  0  0  0
  153.0364  143.1937  160.1272 C   0  0  0  0  0  0  0  0  0  0  0  0
  152.7277  141.9834  159.6157 N   0  0  0  0  0  0  0  0  0  0  0  0
  151.8866  141.9397  158.5606 C   0  0  0  0  0  0  0  0  0  0  0  0
  148.6842  139.6778  154.8288 C   0  0  0  0  0  0  0  0  0  0  0  0
  148.1068  138.6569  153.8337 C   0  0  0  0  0  0  0  0  0  0  0  0
  146.8539  137.9067  151.4923 H   0  0  0  0  0  0  0  0  0  0  0  0
  145.2667  138.5350  151.9530 H   0  0  0  0  0  0  0  0  0  0  0  0
  146.0066  137.2446  152.8959 H   0  0  0  0  0  0  0  0  0  0  0  0
  147.7588  140.3197  151.6815 H   0  0  0  0  0  0  0  0  0  0  0  0
  146.1271  140.8088  152.0960 H   0  0  0  0  0  0  0  0  0  0  0  0
  147.8032  142.4525  152.9463 H   0  0  0  0  0  0  0  0  0  0  0  0
  146.8722  141.7426  154.2446 H   0  0  0  0  0  0  0  0  0  0  0  0
  149.6756  140.9105  153.3754 H   0  0  0  0  0  0  0  0  0  0  0  0
  148.9701  142.9455  155.0679 H   0  0  0  0  0  0  0  0  0  0  0  0
  149.8474  143.6899  156.6478 H   0  0  0  0  0  0  0  0  0  0  0  0
  151.2286  145.2667  158.1347 H   0  0  0  0  0  0  0  0  0  0  0  0
  152.7859  145.3474  160.0668 H   0  0  0  0  0  0  0  0  0  0  0  0
  153.7109  143.2000  160.9705 H   0  0  0  0  0  0  0  0  0  0  0  0
  151.6589  140.9545  158.1801 H   0  0  0  0  0  0  0  0  0  0  0  0
  149.6185  139.2994  155.2455 H   0  0  0  0  0  0  0  0  0  0  0  0
  147.9963  139.7936  155.6680 H   0  0  0  0  0  0  0  0  0  0  0  0
  147.9009  137.7202  154.3532 H   0  0  0  0  0  0  0  0  0  0  0  0
  148.8399  138.4340  153.0566 H   0  0  0  0  0  0  0  0  0  0  0  0
  146.2125  139.3450  153.9656 H   0  0  0  0  0  0  0  0  0  0  0  0
  1  2  1  0  0  0  0
  1 18  1  0  0  0  0
  1 19  1  0  0  0  0
  1 20  1  0  0  0  0
  2 17  1  0  0  0  0
  2  3  1  0  0  0  0
  2 36  1  0  0  0  0
  3  4  1  0  0  0  0
  3 21  1  0  0  0  0
  3 22  1  0  0  0  0
  4  5  1  0  0  0  0
  4 23  1  0  0  0  0
  4 24  1  0  0  0  0
  5  6  1  0  0  0  0
  5 16  1  0  0  0  0
  5 25  1  0  0  0  0
  6  7  1  0  0  0  0
  6 26  1  0  0  0  0
  7  8  2  0  0  0  0
  7  9  1  0  0  0  0
  9 10  1  0  0  0  0
  9 27  1  0  0  0  0
 10 15  1  0  0  0  0
 10 11  2  0  0  0  0
 11 12  1  0  0  0  0
 11 28  1  0  0  0  0
 12 13  2  0  0  0  0
 12 29  1  0  0  0  0
 13 14  1  0  0  0  0
 13 30  1  0  0  0  0
 14 15  2  0  0  0  0
 15 31  1  0  0  0  0
 16 17  1  0  0  0  0
 16 32  1  0  0  0  0
 16 33  1  0  0  0  0
 17 34  1  0  0  0  0
 17 35  1  0  0  0  0
M  CHG  1   2   1
M  END
> <s_m_source_file>
AV-unprocessed.smi

> <i_m_source_file_index>
1457

> <i_lp_mmshare_version>
43012

> <i_f3d_flags>
0

> <s_epik_input>
W0NIM11OMVtDSDJdW0NIMl1bQ0hdKFtDSDJdW0NIMl0xKVtOSF1DKD1PKVtOSF1jMltjSF1bY0hdW2NIXW5bY0hdMg==

> <s_epik_cmdline>
J2VwaWtfcHl0aG9uJywgJy1waCcsICc3LjAnLCAnLXRuJywgJzgnLCAnLW1hJywgJzIwMCcsICctbWV0YWxfYmluZGluZycsICctaW1hZScsICc8aW5maWxlLm1hZT4nLCAnLW9tYWUnLCAnPG91dGZpbGUubWFlPic=

> <r_lp_tautomer_probability>
1

> <r_epik_Ionization_Penalty>
0.00766642

> <r_epik_Ionization_Penalty_Charging>
0.00366825

> <r_epik_Ionization_Penalty_Neutral>
0.00399817

> <r_epik_State_Penalty>
-0

> <r_epik_Charging_Adjusted_Penalty>
0.00366825

> <i_epik_Tot_Q>
1

> <i_epik_Tot_abs_Q>
1

> <r_epik_Metal_State_Penalty>
-0

> <b_epik_Metal_Only>
0

> <s_lp_Force_Field>
OPLS_2005

> <r_lp_Energy>
19.7358

> <b_lp_Chiralities_Consistent>
1

> <s_lp_Variant>
AV-unprocessed.smi:1457-1

> <Gold.Version>
5.8.1

> <Gold.Id.Protein>
6NUR|6NUR_protein|mol2

> <Gold.PLP.Fitness>
40.3927

> <Gold.PLP.PLP>
-34.9643

> <Gold.PLP.part.hbond>
-2.0000

> <Gold.PLP.part.metal>
0.0000

> <Gold.PLP.part.buried>
-3.3852

> <Gold.PLP.part.nonpolar>
-29.6499

> <Gold.PLP.part.repulsive>
0.2638

> <Gold.PLP.ligand.clash>
0.0000

> <Gold.PLP.ligand.torsion>
0.2864

> <Gold.PLP.Chemscore.Hbond>
2.0000

> <Gold.PLP.Chemscore.CHOScore>
0.0000

> <Gold.PLP.Chemscore.Metal>
0.0000

> <Gold.Chemscore.Hbonds>
donor molecule, donor type, donor heavy atom, donor atom, acceptor molecule, acceptor atom, score
      L1  H     6    26       P1  8028  1.00
      L1  H     9    27       P1  8028  1.00

> <Gold.PLP.Chemscore.Internal.Correction>
0.0012

> <Gold.Rescore>
     Score         DG    S(hbond)    S(metal)    S(lipo)     H(rot)  DE(clash)    DE(int)     intcor
     17.75     -21.13       1.94        0.00     100.33       1.00       0.36       3.02       ----

> <Gold.Chemscore.Fitness>
17.7487

> <Gold.Chemscore.DG>
-21.1307

> <Gold.Chemscore.ZeroCoef>
-5.4800

> <Gold.Chemscore.Hbond>
1.9378

> <Gold.Chemscore.Metal>
0.0000

> <Gold.Chemscore.Lipo>
100.3296

> <Gold.Chemscore.Internal_Hbond>
0.0000

> <Gold.Chemscore.DEClash>
0.3626

> <Gold.Chemscore.DEInternal>
3.0194

> <Gold.Chemscore.Rot>
1.0000

> <Gold.Chemscore.Internal.Correction>
   9.000000E+99

> <Gold.Chemscore.Hbonds>
donor molecule, donor type, donor heavy atom, donor atom, acceptor molecule, acceptor atom, score
      L1  H     6    26       P1  8028  0.95
      L1  H     9    27       P1  8028  0.99

> <Gold.Chemscore.Hbond.Weighted>
-6.4721

> <Gold.Chemscore.Metal.Weighted>
-0.0000

> <Gold.Chemscore.Lipo.Weighted>
-11.7386

> <Gold.Chemscore.Internal_Hbond.Weighted>
0.0000

> <Gold.Chemscore.DEClash.Weighted>
0.3626

> <Gold.Chemscore.DEInternal.Weighted>
3.0194

> <Gold.Chemscore.Rot.Weighted>
2.5600

> <Gold.Chemscore.Internal.Correction.Weighted>
   9.000000E+99

> <Gold.Protein.RotatedTorsions>
[ 6907 6896 6895 6894 ] final -129.17 input  -60.11 | X-H torsion
[ 7974 7965 7964 7962 ] final -113.47 input  175.53 | X-H torsion
[ 8008 7997 7996 7995 ] final -123.73 input   59.86 | X-H torsion
[ 10167 10162 10161 10158 ] final -123.95 input  -65.29 | X-H torsion
[ 10718 10713 10712 10709 ] final   22.84 input   66.30 | X-H torsion
[ 10763 10752 10751 10750 ] final -106.97 input  -60.55 | X-H torsion
[ 11005 11000 10999 10996 ] final -129.96 input  -57.11 | X-H torsion

> <Gold.Protein.ActiveResidues>
 VAL166  LYS551  ARG553  GLY616  TRP617  ASP618  TYR619  PRO620  LYS621  CYS622 
 ASP623  PHE694  ASN695  SER759  ASP760  ASP761  ALA762  ILE779  LEU786  VAL792 
 PHE793  MET794  SER795  GLU796  ALA797  LYS798  CYS799  TRP800  GLU811  SER814 

> <Gold.Protein.RotatedAtoms>
  150.9258  133.6825  159.2821 H   0  0  0  0  0  0  0  0  0  0  0  0  # atno 6907 bound_to 6896
  151.4264  135.1003  159.9639 H   0  0  0  0  0  0  0  0  0  0  0  0  # atno 6908 bound_to 6896
  152.5002  133.8698  159.7348 H   0  0  0  0  0  0  0  0  0  0  0  0  # atno 6909 bound_to 6896
  145.1316  140.8728  143.3754 H   0  0  0  0  0  0  0  0  0  0  0  0  # atno 7974 bound_to 7965
  155.1854  140.0411  157.2890 H   0  0  0  0  0  0  0  0  0  0  0  0  # atno 8008 bound_to 7997
  154.6175  140.2492  155.7563 H   0  0  0  0  0  0  0  0  0  0  0  0  # atno 8009 bound_to 7997
  156.2415  140.2902  156.0467 H   0  0  0  0  0  0  0  0  0  0  0  0  # atno 8010 bound_to 7997
  139.9980  143.5571  152.2315 H   0  0  0  0  0  0  0  0  0  0  0  0  # atno 10167 bound_to 10162
  157.1579  130.6704  149.6034 H   0  0  0  0  0  0  0  0  0  0  0  0  # atno 10718 bound_to 10713
  154.8046  135.4692  154.0360 H   0  0  0  0  0  0  0  0  0  0  0  0  # atno 10763 bound_to 10752
  153.1839  135.6845  153.8448 H   0  0  0  0  0  0  0  0  0  0  0  0  # atno 10764 bound_to 10752
  153.7989  135.3232  155.3365 H   0  0  0  0  0  0  0  0  0  0  0  0  # atno 10765 bound_to 10752
  140.9386  134.1223  157.4171 H   0  0  0  0  0  0  0  0  0  0  0  0  # atno 11005 bound_to 11000
  145.0629  139.3091  143.5871 LP  0  0  0  0  0  0  0  0  0  0  0  0  # atno 17320 bound_to 7965
  146.3513  140.0077  142.8670 LP  0  0  0  0  0  0  0  0  0  0  0  0  # atno 17321 bound_to 7965
  139.6292  144.7642  151.2572 LP  0  0  0  0  0  0  0  0  0  0  0  0  # atno 17342 bound_to 10162
  140.7430  143.6509  150.8249 LP  0  0  0  0  0  0  0  0  0  0  0  0  # atno 17343 bound_to 10162
  155.9759  130.4722  150.6490 LP  0  0  0  0  0  0  0  0  0  0  0  0  # atno 17370 bound_to 10713
  157.4160  131.0830  151.1176 LP  0  0  0  0  0  0  0  0  0  0  0  0  # atno 17371 bound_to 10713
  139.8814  135.0029  156.6155 LP  0  0  0  0  0  0  0  0  0  0  0  0  # atno 17394 bound_to 11000
  140.7764  133.8696  155.8533 LP  0  0  0  0  0  0  0  0  0  0  0  0  # atno 17395 bound_to 11000

$$$$
