AV-unprocessed.smi:1715|AV-procd|sdf|6911|dock3
  -GOLD-   22720 8113D 1   1.00000     0.00000
 Structure written by MMmdl.
 40 41  0  0  0  0  0  0  0  0  1 V2000
  150.4260  137.4846  155.6391 C   0  0  0  0  0  0  0  0  0  0  0  0
  150.6725  138.4625  154.4775 C   0  0  1  0  0  0  0  0  0  0  0  0
  149.4584  138.6184  153.5399 C   0  0  0  0  0  0  0  0  0  0  0  0
  148.3791  139.4004  154.1342 N   0  0  0  0  0  0  0  0  0  0  0  0
  147.2557  139.5245  153.2070 C   0  0  0  0  0  0  0  0  0  0  0  0
  146.1802  138.4298  153.3377 C   0  0  0  0  0  0  0  0  0  0  0  0
  146.5121  137.2618  152.5310 N   0  0  0  0  0  0  0  0  0  0  0  0
  145.6384  136.3260  152.1339 C   0  0  0  0  0  0  0  0  0  0  0  0
  144.4396  136.3504  152.4139 O   0  0  0  0  0  0  0  0  0  0  0  0
  146.2416  135.3745  151.4024 N   0  0  0  0  0  0  0  0  0  0  0  0
  145.6444  134.2299  150.8165 C   0  0  0  0  0  0  0  0  0  0  0  0
  146.3386  133.0335  150.4893 C   0  0  0  0  0  0  0  0  0  0  0  0
  145.5254  132.1330  149.9560 N   0  0  0  0  0  0  0  0  0  0  0  0
  144.3190  132.7434  149.9386 N   0  0  0  0  0  0  0  0  0  0  0  0
  144.3436  134.0213  150.4526 C   0  0  0  0  0  0  0  0  0  0  0  0
  148.9077  140.6948  154.5545 C   0  0  0  0  0  0  0  0  0  0  0  0
  150.0839  140.5454  155.5371 C   0  0  2  0  0  0  0  0  0  0  0  0
  150.7005  141.8979  155.9087 C   0  0  0  0  0  0  0  0  0  0  0  0
  151.1023  139.7426  154.9431 O   0  0  0  0  0  0  0  0  0  0  0  0
  143.4975  132.2802  149.5766 H   0  0  0  0  0  0  0  0  0  0  0  0
  150.2121  136.4836  155.2638 H   0  0  0  0  0  0  0  0  0  0  0  0
  149.5811  137.7864  156.2579 H   0  0  0  0  0  0  0  0  0  0  0  0
  151.3037  137.4159  156.2819 H   0  0  0  0  0  0  0  0  0  0  0  0
  151.4981  138.0576  153.8915 H   0  0  0  0  0  0  0  0  0  0  0  0
  149.7879  139.1010  152.6183 H   0  0  0  0  0  0  0  0  0  0  0  0
  149.0915  137.6319  153.2538 H   0  0  0  0  0  0  0  0  0  0  0  0
  146.7936  140.5066  153.3183 H   0  0  0  0  0  0  0  0  0  0  0  0
  147.6428  139.4909  152.1876 H   0  0  0  0  0  0  0  0  0  0  0  0
  146.0527  138.1412  154.3826 H   0  0  0  0  0  0  0  0  0  0  0  0
  145.2125  138.7930  152.9937 H   0  0  0  0  0  0  0  0  0  0  0  0
  147.4777  137.1599  152.2545 H   0  0  0  0  0  0  0  0  0  0  0  0
  147.2339  135.4788  151.2489 H   0  0  0  0  0  0  0  0  0  0  0  0
  147.3838  132.7936  150.6188 H   0  0  0  0  0  0  0  0  0  0  0  0
  143.4599  134.6396  150.5081 H   0  0  0  0  0  0  0  0  0  0  0  0
  149.2311  141.2626  153.6805 H   0  0  0  0  0  0  0  0  0  0  0  0
  148.1283  141.2825  155.0381 H   0  0  0  0  0  0  0  0  0  0  0  0
  149.7344  140.0665  156.4523 H   0  0  0  0  0  0  0  0  0  0  0  0
  149.9662  142.5458  156.3880 H   0  0  0  0  0  0  0  0  0  0  0  0
  151.0791  142.4149  155.0265 H   0  0  0  0  0  0  0  0  0  0  0  0
  151.5321  141.7691  156.6017 H   0  0  0  0  0  0  0  0  0  0  0  0
  1  2  1  0  0  0  0
  1 21  1  0  0  0  0
  1 22  1  0  0  0  0
  1 23  1  0  0  0  0
  2 19  1  0  0  0  0
  2  3  1  0  0  0  0
  2 24  1  0  0  0  0
  3  4  1  0  0  0  0
  3 25  1  0  0  0  0
  3 26  1  0  0  0  0
  4  5  1  0  0  0  0
  4 16  1  0  0  0  0
  5  6  1  0  0  0  0
  5 27  1  0  0  0  0
  5 28  1  0  0  0  0
  6  7  1  0  0  0  0
  6 29  1  0  0  0  0
  6 30  1  0  0  0  0
  7  8  1  0  0  0  0
  7 31  1  0  0  0  0
  8  9  2  0  0  0  0
  8 10  1  0  0  0  0
 10 11  1  0  0  0  0
 10 32  1  0  0  0  0
 11 15  2  0  0  0  0
 11 12  1  0  0  0  0
 12 13  2  0  0  0  0
 12 33  1  0  0  0  0
 13 14  1  0  0  0  0
 14 20  1  0  0  0  0
 14 15  1  0  0  0  0
 15 34  1  0  0  0  0
 16 17  1  0  0  0  0
 16 35  1  0  0  0  0
 16 36  1  0  0  0  0
 17 18  1  0  0  0  0
 17 19  1  0  0  0  0
 17 37  1  0  0  0  0
 18 38  1  0  0  0  0
 18 39  1  0  0  0  0
 18 40  1  0  0  0  0
M  END
> <s_m_source_file>
AV-unprocessed.smi

> <i_m_source_file_index>
1715

> <i_lp_mmshare_version>
43012

> <i_f3d_flags>
0

> <s_epik_input>
W0NIM11bQ0BASF0xW0NIMl1OKFtDSDJdW0NASF0oTzEpW0NIM10pW0NIMl1bQ0gyXVtOSF1DKD1PKVtOSF1jMltjSF1uW25IXVtjSF0y

> <s_epik_cmdline>
J2VwaWtfcHl0aG9uJywgJy1waCcsICc3LjAnLCAnLXRuJywgJzgnLCAnLW1hJywgJzIwMCcsICctbWV0YWxfYmluZGluZycsICctaW1hZScsICc8aW5maWxlLm1hZT4nLCAnLW9tYWUnLCAnPG91dGZpbGUubWFlPic=

> <r_lp_tautomer_probability>
0.5

> <r_epik_Ionization_Penalty>
0.242771

> <r_epik_Ionization_Penalty_Charging>
0

> <r_epik_Ionization_Penalty_Neutral>
0.242771

> <r_epik_State_Penalty>
0.233765

> <r_epik_Charging_Adjusted_Penalty>
0.233765

> <i_epik_Tot_Q>
0

> <i_epik_Tot_abs_Q>
0

> <r_epik_Metal_State_Penalty>
0.233764

> <b_epik_Metal_Only>
0

> <s_lp_Force_Field>
OPLS_2005

> <r_lp_Energy>
25.0708

> <b_lp_Chiralities_Consistent>
1

> <s_lp_Variant>
AV-unprocessed.smi:1715-3

> <Gold.Version>
5.8.1

> <Gold.Id.Protein>
6NUR|6NUR_protein|mol2

> <Gold.PLP.Fitness>
39.3402

> <Gold.PLP.PLP>
-26.7314

> <Gold.PLP.part.hbond>
-3.0000

> <Gold.PLP.part.metal>
0.0000

> <Gold.PLP.part.buried>
-1.3724

> <Gold.PLP.part.nonpolar>
-23.6302

> <Gold.PLP.part.repulsive>
0.7031

> <Gold.PLP.ligand.clash>
0.0000

> <Gold.PLP.ligand.torsion>
0.8458

> <Gold.PLP.Chemscore.Hbond>
3.0000

> <Gold.PLP.Chemscore.CHOScore>
1.7610

> <Gold.PLP.Chemscore.Metal>
0.0000

> <Gold.Chemscore.Hbonds>
donor molecule, donor type, donor heavy atom, donor atom, acceptor molecule, acceptor atom, score
      L1  H     7    31       P1  7948  1.00
      L1  H    10    32       P1  7948  0.99
      P1  H  7989  7998       L1    19  1.00
      L1  C    12    33       P1 10747  1.00
      L1  C    15    34       P1 10186  0.75

> <Gold.PLP.Chemscore.Internal.Correction>
0.0174

> <Gold.Rescore>
     Score         DG    S(hbond)    S(metal)    S(lipo)     H(rot)  DE(clash)    DE(int)     intcor
     14.53     -16.20       2.15        0.00      65.91       1.63       0.02       1.66       ----

> <Gold.Chemscore.Fitness>
14.5275

> <Gold.Chemscore.DG>
-16.2045

> <Gold.Chemscore.ZeroCoef>
-5.4800

> <Gold.Chemscore.Hbond>
2.1505

> <Gold.Chemscore.Metal>
0.0000

> <Gold.Chemscore.Lipo>
65.9096

> <Gold.Chemscore.Internal_Hbond>
0.0000

> <Gold.Chemscore.DEClash>
0.0199

> <Gold.Chemscore.DEInternal>
1.6570

> <Gold.Chemscore.Rot>
1.6287

> <Gold.Chemscore.Internal.Correction>
   9.000000E+99

> <Gold.Chemscore.Hbonds>
donor molecule, donor type, donor heavy atom, donor atom, acceptor molecule, acceptor atom, score
      L1  H     7    31       P1  7948  0.98
      L1  H    10    32       P1  7948  0.83
      P1  H  7989  7998       L1    19  0.23

> <Gold.Chemscore.Hbond.Weighted>
-7.1826

> <Gold.Chemscore.Metal.Weighted>
-0.0000

> <Gold.Chemscore.Lipo.Weighted>
-7.7114

> <Gold.Chemscore.Internal_Hbond.Weighted>
0.0000

> <Gold.Chemscore.DEClash.Weighted>
0.0199

> <Gold.Chemscore.DEInternal.Weighted>
1.6570

> <Gold.Chemscore.Rot.Weighted>
4.1695

> <Gold.Chemscore.Internal.Correction.Weighted>
   9.000000E+99

> <Gold.Protein.RotatedTorsions>
[ 6907 6896 6895 6894 ] final   46.77 input  -60.11 | X-H torsion
[ 7974 7965 7964 7962 ] final   45.01 input  175.53 | X-H torsion
[ 8008 7997 7996 7995 ] final  124.80 input   59.86 | X-H torsion
[ 10167 10162 10161 10158 ] final  -32.62 input  -65.29 | X-H torsion
[ 10718 10713 10712 10709 ] final -109.51 input   66.30 | X-H torsion
[ 10763 10752 10751 10750 ] final -102.93 input  -60.55 | X-H torsion
[ 11005 11000 10999 10996 ] final   46.57 input  -57.11 | X-H torsion

> <Gold.Protein.ActiveResidues>
 VAL166  LYS551  ARG553  GLY616  TRP617  ASP618  TYR619  PRO620  LYS621  CYS622 
 ASP623  PHE694  ASN695  SER759  ASP760  ASP761  ALA762  ILE779  LEU786  VAL792 
 PHE793  MET794  SER795  GLU796  ALA797  LYS798  CYS799  TRP800  GLU811  SER814 

> <Gold.Protein.RotatedAtoms>
  152.2603  134.8041  160.0431 H   0  0  0  0  0  0  0  0  0  0  0  0  # atno 6907 bound_to 6896
  151.8689  133.3466  159.3736 H   0  0  0  0  0  0  0  0  0  0  0  0  # atno 6908 bound_to 6896
  150.7114  134.5059  159.5628 H   0  0  0  0  0  0  0  0  0  0  0  0  # atno 6909 bound_to 6896
  146.0518  139.5011  142.9714 H   0  0  0  0  0  0  0  0  0  0  0  0  # atno 7974 bound_to 7965
  156.2813  140.2731  156.1847 H   0  0  0  0  0  0  0  0  0  0  0  0  # atno 8008 bound_to 7997
  155.0520  140.0386  157.2565 H   0  0  0  0  0  0  0  0  0  0  0  0  # atno 8009 bound_to 7997
  154.7187  140.2683  155.6566 H   0  0  0  0  0  0  0  0  0  0  0  0  # atno 8010 bound_to 7997
  140.7218  143.3681  151.1832 H   0  0  0  0  0  0  0  0  0  0  0  0  # atno 10167 bound_to 10162
  156.0541  130.5768  150.8110 H   0  0  0  0  0  0  0  0  0  0  0  0  # atno 10718 bound_to 10713
  154.7770  135.4842  153.9764 H   0  0  0  0  0  0  0  0  0  0  0  0  # atno 10763 bound_to 10752
  153.1442  135.6778  153.8988 H   0  0  0  0  0  0  0  0  0  0  0  0  # atno 10764 bound_to 10752
  153.8653  135.3150  155.3418 H   0  0  0  0  0  0  0  0  0  0  0  0  # atno 10765 bound_to 10752
  140.1357  134.4648  155.8487 H   0  0  0  0  0  0  0  0  0  0  0  0  # atno 11005 bound_to 11000
  145.6712  141.0216  143.1657 LP  0  0  0  0  0  0  0  0  0  0  0  0  # atno 17320 bound_to 7965
  144.7126  139.8313  143.7409 LP  0  0  0  0  0  0  0  0  0  0  0  0  # atno 17321 bound_to 7965
  139.7246  143.9168  152.2998 LP  0  0  0  0  0  0  0  0  0  0  0  0  # atno 17342 bound_to 10162
  139.8937  144.6951  150.8742 LP  0  0  0  0  0  0  0  0  0  0  0  0  # atno 17343 bound_to 10162
  157.5495  131.0943  150.9715 LP  0  0  0  0  0  0  0  0  0  0  0  0  # atno 17370 bound_to 10713
  156.9979  130.5588  149.5309 LP  0  0  0  0  0  0  0  0  0  0  0  0  # atno 17371 bound_to 10713
  141.2178  133.6813  156.7153 LP  0  0  0  0  0  0  0  0  0  0  0  0  # atno 17394 bound_to 11000
  140.2785  134.8335  157.3912 LP  0  0  0  0  0  0  0  0  0  0  0  0  # atno 17395 bound_to 11000

$$$$
