AV-unprocessed.smi:2123|AV-procd|sdf|8648|dock2
  -GOLD-   2272011393D 1   1.00000     0.00000
 Structure written by MMmdl.
 47 48  0  0  0  0  0  0  0  0  1 V2000
  148.5634  132.7038  152.6457 C   0  0  0  0  0  0  0  0  0  0  0  0
  150.2489  133.1397  153.1463 S   0  0  0  0  0  0  0  0  0  0  0  0
  149.9371  133.6054  154.8739 C   0  0  0  0  0  0  0  0  0  0  0  0
  149.5703  135.0941  155.0251 C   0  0  0  0  0  0  0  0  0  0  0  0
  150.7702  136.0487  155.0670 C   0  0  0  0  0  0  0  0  0  0  0  0
  151.5862  136.0099  155.9888 O   0  0  0  0  0  0  0  0  0  0  0  0
  150.8548  136.9212  154.0509 N   0  0  0  0  0  0  0  0  0  0  0  0
  151.8947  137.9352  153.9017 C   0  0  0  0  0  0  0  0  0  0  0  0
  151.9092  139.0006  154.9906 C   0  0  0  0  0  0  0  0  0  0  0  0
  151.0446  140.1161  154.9702 C   0  0  0  0  0  0  0  0  0  0  0  0
  151.1158  141.0552  156.0159 C   0  0  0  0  0  0  0  0  0  0  0  0
  152.0555  140.8610  157.0548 C   0  0  0  0  0  0  0  0  0  0  0  0
  152.1304  141.7872  158.1156 N   0  0  0  0  0  0  0  0  0  0  0  0
  151.0057  142.7131  158.2074 C   0  0  0  0  0  0  0  0  0  0  0  0
  151.3168  143.8684  159.1788 C   0  0  2  0  0  0  0  0  0  0  0  0
  152.2752  144.9194  158.5912 C   0  0  0  0  0  0  0  0  0  0  0  0
  151.7795  143.3540  160.4300 O   0  0  0  0  0  0  0  0  0  0  0  0
  152.9124  142.4906  160.3399 C   0  0  1  0  0  0  0  0  0  0  0  0
  153.2729  142.0286  161.7556 C   0  0  0  0  0  0  0  0  0  0  0  0
  152.5838  141.3045  159.4162 C   0  0  0  0  0  0  0  0  0  0  0  0
  152.8982  139.7989  157.0627 N   0  0  0  0  0  0  0  0  0  0  0  0
  152.8221  138.8992  156.0597 C   0  0  0  0  0  0  0  0  0  0  0  0
  148.5487  132.4024  151.5984 H   0  0  0  0  0  0  0  0  0  0  0  0
  147.8960  133.5567  152.7698 H   0  0  0  0  0  0  0  0  0  0  0  0
  148.1887  131.8767  153.2492 H   0  0  0  0  0  0  0  0  0  0  0  0
  149.1139  132.9924  155.2418 H   0  0  0  0  0  0  0  0  0  0  0  0
  150.8059  133.3510  155.4823 H   0  0  0  0  0  0  0  0  0  0  0  0
  148.8922  135.3994  154.2272 H   0  0  0  0  0  0  0  0  0  0  0  0
  149.0216  135.2220  155.9590 H   0  0  0  0  0  0  0  0  0  0  0  0
  150.1453  136.8855  153.3335 H   0  0  0  0  0  0  0  0  0  0  0  0
  152.8712  137.4505  153.8520 H   0  0  0  0  0  0  0  0  0  0  0  0
  151.7486  138.4312  152.9421 H   0  0  0  0  0  0  0  0  0  0  0  0
  150.3330  140.2592  154.1705 H   0  0  0  0  0  0  0  0  0  0  0  0
  150.4619  141.9146  156.0063 H   0  0  0  0  0  0  0  0  0  0  0  0
  150.7321  143.1195  157.2341 H   0  0  0  0  0  0  0  0  0  0  0  0
  150.1384  142.1578  158.5669 H   0  0  0  0  0  0  0  0  0  0  0  0
  150.3793  144.3829  159.3907 H   0  0  0  0  0  0  0  0  0  0  0  0
  151.8373  145.3896  157.7104 H   0  0  0  0  0  0  0  0  0  0  0  0
  153.2276  144.4870  158.2853 H   0  0  0  0  0  0  0  0  0  0  0  0
  152.4810  145.7062  159.3171 H   0  0  0  0  0  0  0  0  0  0  0  0
  153.7632  143.0418  159.9390 H   0  0  0  0  0  0  0  0  0  0  0  0
  154.1426  141.3711  161.7442 H   0  0  0  0  0  0  0  0  0  0  0  0
  152.4474  141.4844  162.2152 H   0  0  0  0  0  0  0  0  0  0  0  0
  153.5083  142.8797  162.3949 H   0  0  0  0  0  0  0  0  0  0  0  0
  151.8047  140.6840  159.8612 H   0  0  0  0  0  0  0  0  0  0  0  0
  153.4706  140.6805  159.2973 H   0  0  0  0  0  0  0  0  0  0  0  0
  153.5113  138.0694  156.1160 H   0  0  0  0  0  0  0  0  0  0  0  0
  1  2  1  0  0  0  0
  1 23  1  0  0  0  0
  1 24  1  0  0  0  0
  1 25  1  0  0  0  0
  2  3  1  0  0  0  0
  3  4  1  0  0  0  0
  3 26  1  0  0  0  0
  3 27  1  0  0  0  0
  4  5  1  0  0  0  0
  4 28  1  0  0  0  0
  4 29  1  0  0  0  0
  5  6  2  0  0  0  0
  5  7  1  0  0  0  0
  7  8  1  0  0  0  0
  7 30  1  0  0  0  0
  8  9  1  0  0  0  0
  8 31  1  0  0  0  0
  8 32  1  0  0  0  0
  9 22  1  0  0  0  0
  9 10  2  0  0  0  0
 10 11  1  0  0  0  0
 10 33  1  0  0  0  0
 11 12  2  0  0  0  0
 11 34  1  0  0  0  0
 12 13  1  0  0  0  0
 12 21  1  0  0  0  0
 13 20  1  0  0  0  0
 13 14  1  0  0  0  0
 14 15  1  0  0  0  0
 14 35  1  0  0  0  0
 14 36  1  0  0  0  0
 15 16  1  0  0  0  0
 15 17  1  0  0  0  0
 15 37  1  0  0  0  0
 16 38  1  0  0  0  0
 16 39  1  0  0  0  0
 16 40  1  0  0  0  0
 17 18  1  0  0  0  0
 18 19  1  0  0  0  0
 18 20  1  0  0  0  0
 18 41  1  0  0  0  0
 19 42  1  0  0  0  0
 19 43  1  0  0  0  0
 19 44  1  0  0  0  0
 20 45  1  0  0  0  0
 20 46  1  0  0  0  0
 21 22  2  0  0  0  0
 22 47  1  0  0  0  0
M  END
> <s_m_source_file>
AV-unprocessed.smi

> <i_m_source_file_index>
2123

> <i_lp_mmshare_version>
43012

> <i_f3d_flags>
0

> <s_epik_input>
W0NIM11TW0NIMl1bQ0gyXUMoPU8pW05IXVtDSDJdYzFbY0hdW2NIXWMobltjSF0xKU4yW0NIMl1bQ0BASF0oW0NIM10pT1tDQEBIXShbQ0gzXSlbQ0gyXTI=

> <s_epik_cmdline>
J2VwaWtfcHl0aG9uJywgJy1waCcsICc3LjAnLCAnLXRuJywgJzgnLCAnLW1hJywgJzIwMCcsICctbWV0YWxfYmluZGluZycsICctaW1hZScsICc8aW5maWxlLm1hZT4nLCAnLW9tYWUnLCAnPG91dGZpbGUubWFlPic=

> <r_lp_tautomer_probability>
1

> <r_epik_Ionization_Penalty>
0.00642497

> <r_epik_Ionization_Penalty_Charging>
0

> <r_epik_Ionization_Penalty_Neutral>
0.00642497

> <r_epik_State_Penalty>
0.0047515

> <r_epik_Charging_Adjusted_Penalty>
0.0047515

> <i_epik_Tot_Q>
0

> <i_epik_Tot_abs_Q>
0

> <r_epik_Metal_State_Penalty>
-0

> <b_epik_Metal_Only>
0

> <s_lp_Force_Field>
OPLS_2005

> <r_lp_Energy>
18.6886

> <b_lp_Chiralities_Consistent>
1

> <s_lp_Variant>
AV-unprocessed.smi:2123-2

> <Gold.Version>
5.8.1

> <Gold.Id.Protein>
6NUR|6NUR_protein|mol2

> <Gold.PLP.Fitness>
51.4893

> <Gold.PLP.PLP>
-47.7069

> <Gold.PLP.part.hbond>
-3.0000

> <Gold.PLP.part.metal>
0.0000

> <Gold.PLP.part.buried>
-3.4939

> <Gold.PLP.part.nonpolar>
-40.8869

> <Gold.PLP.part.repulsive>
0.1429

> <Gold.PLP.ligand.clash>
0.0000

> <Gold.PLP.ligand.torsion>
1.1492

> <Gold.PLP.Chemscore.Hbond>
1.8928

> <Gold.PLP.Chemscore.CHOScore>
0.0000

> <Gold.PLP.Chemscore.Metal>
0.0000

> <Gold.Chemscore.Hbonds>
donor molecule, donor type, donor heavy atom, donor atom, acceptor molecule, acceptor atom, score
      L1  H     7    30       P1  7948  0.70
      P1  H  7997  8008       L1    21  0.72
      P1  H 10752 10765       L1     6  0.91

> <Gold.PLP.Chemscore.Internal.Correction>
0.4024

> <Gold.Rescore>
     Score         DG    S(hbond)    S(metal)    S(lipo)     H(rot)  DE(clash)    DE(int)     intcor
     16.98     -18.23       1.00        0.00     117.74       1.70       0.04       1.21       ----

> <Gold.Chemscore.Fitness>
16.9844

> <Gold.Chemscore.DG>
-18.2341

> <Gold.Chemscore.ZeroCoef>
-5.4800

> <Gold.Chemscore.Hbond>
1.0009

> <Gold.Chemscore.Metal>
0.0000

> <Gold.Chemscore.Lipo>
117.7407

> <Gold.Chemscore.Internal_Hbond>
0.0000

> <Gold.Chemscore.DEClash>
0.0402

> <Gold.Chemscore.DEInternal>
1.2094

> <Gold.Chemscore.Rot>
1.7049

> <Gold.Chemscore.Internal.Correction>
   9.000000E+99

> <Gold.Chemscore.Hbonds>
donor molecule, donor type, donor heavy atom, donor atom, acceptor molecule, acceptor atom, score
      L1  H     7    30       P1  7948  0.07
      P1  H  7997  8008       L1    21  0.10
      P1  H 10752 10765       L1     6  0.52

> <Gold.Chemscore.Hbond.Weighted>
-3.3431

> <Gold.Chemscore.Metal.Weighted>
-0.0000

> <Gold.Chemscore.Lipo.Weighted>
-13.7757

> <Gold.Chemscore.Internal_Hbond.Weighted>
0.0000

> <Gold.Chemscore.DEClash.Weighted>
0.0402

> <Gold.Chemscore.DEInternal.Weighted>
1.2094

> <Gold.Chemscore.Rot.Weighted>
4.3647

> <Gold.Chemscore.Internal.Correction.Weighted>
   9.000000E+99

> <Gold.Protein.RotatedTorsions>
[ 6907 6896 6895 6894 ] final -143.25 input  -60.11 | X-H torsion
[ 7974 7965 7964 7962 ] final -115.43 input  175.53 | X-H torsion
[ 8008 7997 7996 7995 ] final  -81.79 input   59.86 | X-H torsion
[ 10167 10162 10161 10158 ] final  -99.93 input  -65.29 | X-H torsion
[ 10718 10713 10712 10709 ] final  116.01 input   66.30 | X-H torsion
[ 10763 10752 10751 10750 ] final -133.97 input  -60.55 | X-H torsion
[ 11005 11000 10999 10996 ] final  -68.59 input  -57.11 | X-H torsion

> <Gold.Protein.ActiveResidues>
 VAL166  LYS551  ARG553  GLY616  TRP617  ASP618  TYR619  PRO620  LYS621  CYS622 
 ASP623  PHE694  ASN695  SER759  ASP760  ASP761  ALA762  ILE779  LEU786  VAL792 
 PHE793  MET794  SER795  GLU796  ALA797  LYS798  CYS799  TRP800  GLU811  SER814 

> <Gold.Protein.RotatedAtoms>
  151.0979  133.5266  159.2611 H   0  0  0  0  0  0  0  0  0  0  0  0  # atno 6907 bound_to 6896
  151.2108  135.0480  159.8920 H   0  0  0  0  0  0  0  0  0  0  0  0  # atno 6908 bound_to 6896
  152.5440  134.0795  159.8282 H   0  0  0  0  0  0  0  0  0  0  0  0  # atno 6909 bound_to 6896
  145.1084  140.8596  143.3884 H   0  0  0  0  0  0  0  0  0  0  0  0  # atno 7974 bound_to 7965
  154.6019  140.0642  156.9379 H   0  0  0  0  0  0  0  0  0  0  0  0  # atno 8008 bound_to 7997
  155.2118  140.3323  155.4309 H   0  0  0  0  0  0  0  0  0  0  0  0  # atno 8009 bound_to 7997
  156.2323  140.1847  156.7193 H   0  0  0  0  0  0  0  0  0  0  0  0  # atno 8010 bound_to 7997
  140.2573  143.3431  152.0659 H   0  0  0  0  0  0  0  0  0  0  0  0  # atno 10167 bound_to 10162
  157.6187  131.1020  150.7411 H   0  0  0  0  0  0  0  0  0  0  0  0  # atno 10718 bound_to 10713
  154.8726  135.3749  154.4659 H   0  0  0  0  0  0  0  0  0  0  0  0  # atno 10763 bound_to 10752
  153.5323  135.7027  153.5682 H   0  0  0  0  0  0  0  0  0  0  0  0  # atno 10764 bound_to 10752
  153.3881  135.3979  155.1869 H   0  0  0  0  0  0  0  0  0  0  0  0  # atno 10765 bound_to 10752
  141.1535  133.6744  156.6469 H   0  0  0  0  0  0  0  0  0  0  0  0  # atno 11005 bound_to 11000
  145.0875  139.2914  143.5752 LP  0  0  0  0  0  0  0  0  0  0  0  0  # atno 17320 bound_to 7965
  146.3527  140.0401  142.8643 LP  0  0  0  0  0  0  0  0  0  0  0  0  # atno 17321 bound_to 7965
  139.5027  144.6741  151.6171 LP  0  0  0  0  0  0  0  0  0  0  0  0  # atno 17342 bound_to 10162
  140.5994  143.9638  150.6376 LP  0  0  0  0  0  0  0  0  0  0  0  0  # atno 17343 bound_to 10162
  156.7773  130.4848  149.5407 LP  0  0  0  0  0  0  0  0  0  0  0  0  # atno 17370 bound_to 10713
  156.1322  130.6186  151.0349 LP  0  0  0  0  0  0  0  0  0  0  0  0  # atno 17371 bound_to 10713
  140.3350  134.7897  157.4355 LP  0  0  0  0  0  0  0  0  0  0  0  0  # atno 17394 bound_to 11000
  140.0985  134.5504  155.8375 LP  0  0  0  0  0  0  0  0  0  0  0  0  # atno 17395 bound_to 11000

$$$$
