AV-unprocessed.smi:1275|AV-procd|sdf|5342|dock3
  -GOLD-   22720 4473D 1   1.00000     0.00000
 Structure written by MMmdl.
 42 43  0  0  0  0  0  0  0  0  1 V2000
  151.9072  144.8611  158.7064 C   0  0  0  0  0  0  0  0  0  0  0  0
  151.4574  143.5186  158.7504 O   0  0  0  0  0  0  0  0  0  0  0  0
  151.0065  143.0556  157.4884 C   0  0  0  0  0  0  0  0  0  0  0  0
  151.3883  141.5813  157.3284 C   0  0  0  0  0  0  0  0  0  0  0  0
  151.3780  141.2508  155.9428 O   0  0  0  0  0  0  0  0  0  0  0  0
  151.2617  139.9241  155.5824 C   0  0  0  0  0  0  0  0  0  0  0  0
  151.7352  138.9405  156.4733 C   0  0  0  0  0  0  0  0  0  0  0  0
  151.6144  137.5836  156.1172 C   0  0  0  0  0  0  0  0  0  0  0  0
  151.0141  137.2525  154.8794 C   0  0  0  0  0  0  0  0  0  0  0  0
  150.8515  135.9248  154.4002 N   0  0  0  0  0  0  0  0  0  0  0  0
  151.3031  134.7741  154.9370 C   0  0  0  0  0  0  0  0  0  0  0  0
  151.9685  134.7268  155.9721 O   0  0  0  0  0  0  0  0  0  0  0  0
  150.9659  133.6626  154.2348 N   0  0  0  0  0  0  0  0  0  0  0  0
  149.8701  133.5284  153.2637 C   0  0  0  0  0  0  0  0  0  0  0  0
  148.7965  132.6108  153.8749 C   0  0  0  0  0  0  0  0  0  0  0  0
  149.3738  131.3487  154.2018 O   0  0  0  0  0  0  0  0  0  0  0  0
  150.4658  131.4423  155.1156 C   0  0  1  0  0  0  0  0  0  0  0  0
  150.9786  130.0256  155.3967 C   0  0  0  0  0  0  0  0  0  0  0  0
  151.5553  132.3481  154.5065 C   0  0  0  0  0  0  0  0  0  0  0  0
  150.5908  138.3120  154.0510 C   0  0  0  0  0  0  0  0  0  0  0  0
  150.7012  139.6144  154.3871 N   0  0  0  0  0  0  0  0  0  0  0  0
  152.2436  145.1669  159.6967 H   0  0  0  0  0  0  0  0  0  0  0  0
  151.1066  145.5352  158.3994 H   0  0  0  0  0  0  0  0  0  0  0  0
  152.7445  144.9745  158.0166 H   0  0  0  0  0  0  0  0  0  0  0  0
  149.9280  143.1846  157.3851 H   0  0  0  0  0  0  0  0  0  0  0  0
  151.4837  143.6412  156.7012 H   0  0  0  0  0  0  0  0  0  0  0  0
  152.3915  141.4271  157.7291 H   0  0  0  0  0  0  0  0  0  0  0  0
  150.7000  140.9510  157.8940 H   0  0  0  0  0  0  0  0  0  0  0  0
  152.1863  139.2220  157.4132 H   0  0  0  0  0  0  0  0  0  0  0  0
  151.9945  136.8307  156.7899 H   0  0  0  0  0  0  0  0  0  0  0  0
  150.2540  135.8265  153.5923 H   0  0  0  0  0  0  0  0  0  0  0  0
  149.4168  134.4731  152.9650 H   0  0  0  0  0  0  0  0  0  0  0  0
  150.2583  133.0865  152.3450 H   0  0  0  0  0  0  0  0  0  0  0  0
  148.3584  133.0631  154.7659 H   0  0  0  0  0  0  0  0  0  0  0  0
  147.9854  132.4531  153.1643 H   0  0  0  0  0  0  0  0  0  0  0  0
  150.1085  131.8758  156.0514 H   0  0  0  0  0  0  0  0  0  0  0  0
  151.8091  130.0419  156.1029 H   0  0  0  0  0  0  0  0  0  0  0  0
  151.3250  129.5425  154.4829 H   0  0  0  0  0  0  0  0  0  0  0  0
  150.1915  129.4042  155.8244 H   0  0  0  0  0  0  0  0  0  0  0  0
  151.9291  131.9200  153.5751 H   0  0  0  0  0  0  0  0  0  0  0  0
  152.4149  132.4008  155.1760 H   0  0  0  0  0  0  0  0  0  0  0  0
  150.1415  138.1098  153.0895 H   0  0  0  0  0  0  0  0  0  0  0  0
  1  2  1  0  0  0  0
  1 22  1  0  0  0  0
  1 23  1  0  0  0  0
  1 24  1  0  0  0  0
  2  3  1  0  0  0  0
  3  4  1  0  0  0  0
  3 25  1  0  0  0  0
  3 26  1  0  0  0  0
  4  5  1  0  0  0  0
  4 27  1  0  0  0  0
  4 28  1  0  0  0  0
  5  6  1  0  0  0  0
  6 21  1  0  0  0  0
  6  7  2  0  0  0  0
  7  8  1  0  0  0  0
  7 29  1  0  0  0  0
  8  9  2  0  0  0  0
  8 30  1  0  0  0  0
  9 10  1  0  0  0  0
  9 20  1  0  0  0  0
 10 11  1  0  0  0  0
 10 31  1  0  0  0  0
 11 12  2  0  0  0  0
 11 13  1  0  0  0  0
 13 19  1  0  0  0  0
 13 14  1  0  0  0  0
 14 15  1  0  0  0  0
 14 32  1  0  0  0  0
 14 33  1  0  0  0  0
 15 16  1  0  0  0  0
 15 34  1  0  0  0  0
 15 35  1  0  0  0  0
 16 17  1  0  0  0  0
 17 18  1  0  0  0  0
 17 19  1  0  0  0  0
 17 36  1  0  0  0  0
 18 37  1  0  0  0  0
 18 38  1  0  0  0  0
 18 39  1  0  0  0  0
 19 40  1  0  0  0  0
 19 41  1  0  0  0  0
 20 21  2  0  0  0  0
 20 42  1  0  0  0  0
M  END
> <s_m_source_file>
AV-unprocessed.smi

> <i_m_source_file_index>
1275

> <i_lp_mmshare_version>
43012

> <i_f3d_flags>
0

> <s_epik_input>
W0NIM11PW0NIMl1bQ0gyXU9jMVtjSF1bY0hdYyhbY0hdbjEpW05IXUMoPU8pTjJbQ0gyXVtDSDJdT1tDQEBIXShbQ0gzXSlbQ0gyXTI=

> <s_epik_cmdline>
J2VwaWtfcHl0aG9uJywgJy1waCcsICc3LjAnLCAnLXRuJywgJzgnLCAnLW1hJywgJzIwMCcsICctbWV0YWxfYmluZGluZycsICctaW1hZScsICc8aW5maWxlLm1hZT4nLCAnLW9tYWUnLCAnPG91dGZpbGUubWFlPic=

> <r_lp_tautomer_probability>
1

> <r_epik_Ionization_Penalty>
5.69099e-05

> <r_epik_Ionization_Penalty_Charging>
0

> <r_epik_Ionization_Penalty_Neutral>
5.69099e-05

> <r_epik_State_Penalty>
-0

> <r_epik_Charging_Adjusted_Penalty>
0

> <i_epik_Tot_Q>
0

> <i_epik_Tot_abs_Q>
0

> <r_epik_Metal_State_Penalty>
-0

> <b_epik_Metal_Only>
0

> <s_lp_Force_Field>
OPLS_2005

> <r_lp_Energy>
32.9839

> <b_lp_Chiralities_Consistent>
1

> <s_lp_Variant>
AV-unprocessed.smi:1275-1

> <Gold.Version>
5.8.1

> <Gold.Id.Protein>
6NUR|6NUR_protein|mol2

> <Gold.PLP.Fitness>
39.7925

> <Gold.PLP.PLP>
-30.5635

> <Gold.PLP.part.hbond>
-3.0161

> <Gold.PLP.part.metal>
0.0000

> <Gold.PLP.part.buried>
-1.2214

> <Gold.PLP.part.nonpolar>
-25.4596

> <Gold.PLP.part.repulsive>
0.3190

> <Gold.PLP.ligand.clash>
0.0000

> <Gold.PLP.ligand.torsion>
0.9469

> <Gold.PLP.Chemscore.Hbond>
2.0000

> <Gold.PLP.Chemscore.CHOScore>
1.6677

> <Gold.PLP.Chemscore.Metal>
0.0000

> <Gold.Chemscore.Hbonds>
donor molecule, donor type, donor heavy atom, donor atom, acceptor molecule, acceptor atom, score
      L1  H    10    31       P1  7948  0.18
      P1  H  7989  7998       L1    21  0.70
      L1  C    20    42       P1  7948  1.00
      L1  C    20    42       P1  7949  0.04
      L1  C    20    42       P1  7957  0.39

> <Gold.PLP.Chemscore.Internal.Correction>
0.1200

> <Gold.Rescore>
     Score         DG    S(hbond)    S(metal)    S(lipo)     H(rot)  DE(clash)    DE(int)     intcor
     10.65     -12.88       0.90        0.00      72.98       1.62       0.15       2.08       ----

> <Gold.Chemscore.Fitness>
10.6453

> <Gold.Chemscore.DG>
-12.8770

> <Gold.Chemscore.ZeroCoef>
-5.4800

> <Gold.Chemscore.Hbond>
0.8983

> <Gold.Chemscore.Metal>
0.0000

> <Gold.Chemscore.Lipo>
72.9773

> <Gold.Chemscore.Internal_Hbond>
0.0000

> <Gold.Chemscore.DEClash>
0.1490

> <Gold.Chemscore.DEInternal>
2.0826

> <Gold.Chemscore.Rot>
1.6178

> <Gold.Chemscore.Internal.Correction>
   9.000000E+99

> <Gold.Chemscore.Hbonds>
donor molecule, donor type, donor heavy atom, donor atom, acceptor molecule, acceptor atom, score
      P1  H  7989  7998       L1    21  0.07

> <Gold.Chemscore.Hbond.Weighted>
-3.0002

> <Gold.Chemscore.Metal.Weighted>
-0.0000

> <Gold.Chemscore.Lipo.Weighted>
-8.5383

> <Gold.Chemscore.Internal_Hbond.Weighted>
0.0000

> <Gold.Chemscore.DEClash.Weighted>
0.1490

> <Gold.Chemscore.DEInternal.Weighted>
2.0826

> <Gold.Chemscore.Rot.Weighted>
4.1416

> <Gold.Chemscore.Internal.Correction.Weighted>
   9.000000E+99

> <Gold.Protein.RotatedTorsions>
[ 6907 6896 6895 6894 ] final  104.21 input  -60.11 | X-H torsion
[ 7974 7965 7964 7962 ] final -140.83 input  175.53 | X-H torsion
[ 8008 7997 7996 7995 ] final  -79.88 input   59.86 | X-H torsion
[ 10167 10162 10161 10158 ] final  -49.91 input  -65.29 | X-H torsion
[ 10718 10713 10712 10709 ] final -135.86 input   66.30 | X-H torsion
[ 10763 10752 10751 10750 ] final   61.98 input  -60.55 | X-H torsion
[ 11005 11000 10999 10996 ] final  -31.21 input  -57.11 | X-H torsion

> <Gold.Protein.ActiveResidues>
 VAL166  LYS551  ARG553  GLY616  TRP617  ASP618  TYR619  PRO620  LYS621  CYS622 
 ASP623  PHE694  ASN695  SER759  ASP760  ASP761  ALA762  ILE779  LEU786  VAL792 
 PHE793  MET794  SER795  GLU796  ALA797  LYS798  CYS799  TRP800  GLU811  SER814 

> <Gold.Protein.RotatedAtoms>
  152.5271  133.9710  159.7761 H   0  0  0  0  0  0  0  0  0  0  0  0  # atno 6907 bound_to 6896
  150.9982  133.6074  159.2705 H   0  0  0  0  0  0  0  0  0  0  0  0  # atno 6908 bound_to 6896
  151.3192  135.0820  159.9353 H   0  0  0  0  0  0  0  0  0  0  0  0  # atno 6909 bound_to 6896
  144.8567  140.6153  143.5355 H   0  0  0  0  0  0  0  0  0  0  0  0  # atno 7974 bound_to 7965
  154.5828  140.0671  156.9128 H   0  0  0  0  0  0  0  0  0  0  0  0  # atno 8008 bound_to 7997
  155.2432  140.3346  155.4272 H   0  0  0  0  0  0  0  0  0  0  0  0  # atno 8009 bound_to 7997
  156.2201  140.1795  156.7481 H   0  0  0  0  0  0  0  0  0  0  0  0  # atno 8010 bound_to 7997
  140.6662  143.2678  151.4284 H   0  0  0  0  0  0  0  0  0  0  0  0  # atno 10167 bound_to 10162
  156.2708  130.7264  151.1230 H   0  0  0  0  0  0  0  0  0  0  0  0  # atno 10718 bound_to 10713
  152.9967  135.5481  154.6119 H   0  0  0  0  0  0  0  0  0  0  0  0  # atno 10763 bound_to 10752
  154.5438  135.2821  155.1073 H   0  0  0  0  0  0  0  0  0  0  0  0  # atno 10764 bound_to 10752
  154.2340  135.6428  153.5237 H   0  0  0  0  0  0  0  0  0  0  0  0  # atno 10765 bound_to 10752
  140.9448  133.7256  156.1130 H   0  0  0  0  0  0  0  0  0  0  0  0  # atno 11005 bound_to 11000
  145.4393  139.1538  143.3979 LP  0  0  0  0  0  0  0  0  0  0  0  0  # atno 17320 bound_to 7965
  146.2828  140.4513  142.8769 LP  0  0  0  0  0  0  0  0  0  0  0  0  # atno 17321 bound_to 7965
  139.5912  144.1494  152.2091 LP  0  0  0  0  0  0  0  0  0  0  0  0  # atno 17342 bound_to 10162
  140.0849  144.5669  150.7095 LP  0  0  0  0  0  0  0  0  0  0  0  0  # atno 17343 bound_to 10162
  157.7283  131.0633  150.5827 LP  0  0  0  0  0  0  0  0  0  0  0  0  # atno 17370 bound_to 10713
  156.5923  130.4332  149.5931 LP  0  0  0  0  0  0  0  0  0  0  0  0  # atno 17371 bound_to 10713
  140.7684  134.3860  157.5512 LP  0  0  0  0  0  0  0  0  0  0  0  0  # atno 17394 bound_to 11000
  139.8830  134.9006  156.2793 LP  0  0  0  0  0  0  0  0  0  0  0  0  # atno 17395 bound_to 11000

$$$$
