AV-unprocessed.smi:3049|AV-procd|sdf|11630|dock1
  -GOLD-   2272017 13D 1   1.00000     0.00000
 Structure written by MMmdl.
 52 53  0  0  0  0  0  0  0  0  2 V2000
  151.1194  139.0865  154.8117 C   0  0  0  0  0  0  0  0  0  0  0  0
  151.4204  140.1122  155.9169 C   0  0  0  0  0  0  0  0  0  0  0  0
  150.4734  141.3391  155.9175 C   0  0  0  0  0  0  0  0  0  0  0  0
  150.9888  142.4632  156.8448 C   0  0  0  0  0  0  0  0  0  0  0  0
  151.1340  142.0401  158.3133 C   0  0  0  0  0  0  0  0  0  0  0  0
  149.0296  140.9595  156.3240 C   0  0  0  0  0  0  0  0  0  0  0  0
  148.8230  140.6349  157.4946 O   0  0  0  0  0  0  0  0  0  0  0  0
  148.0383  140.9577  155.3973 N   0  0  0  0  0  0  0  0  0  0  0  0
  148.1488  141.4018  154.0030 C   0  0  0  0  0  0  0  0  0  0  0  0
  148.1437  140.1584  153.0972 C   0  0  0  0  0  0  0  0  0  0  0  0
  146.8678  139.3167  153.3247 C   0  0  0  0  0  0  0  0  0  0  0  0
  146.9809  138.0505  152.6076 N   0  0  0  0  0  0  0  0  0  0  0  0
  145.9552  137.2521  152.2789 C   0  0  0  0  0  0  0  0  0  0  0  0
  144.7828  137.5175  152.5430 O   0  0  0  0  0  0  0  0  0  0  0  0
  146.3931  136.1434  151.6555 N   0  0  0  0  0  0  0  0  0  0  0  0
  145.6470  135.0839  151.1213 C   0  0  0  0  0  0  0  0  0  0  0  0
  144.5164  135.1681  150.3200 C   0  0  0  0  0  0  0  0  0  0  0  0
  143.7968  134.1603  149.7781 N   0  5  0  0  0  0  0  0  0  0  0  0
  144.1944  132.8778  150.0173 C   0  0  0  0  0  0  0  0  0  0  0  0
  143.5853  131.9137  149.5553 O   0  0  0  0  0  0  0  0  0  0  0  0
  145.3891  132.6482  150.8535 C   0  0  0  0  0  0  0  0  0  0  0  0
  145.8315  131.2198  151.1210 C   0  0  0  0  0  0  0  0  0  0  0  0
  146.0601  133.7100  151.3639 C   0  0  0  0  0  0  0  0  0  0  0  0
  146.6088  139.0642  154.8298 C   0  0  0  0  0  0  0  0  0  0  0  0
  146.7216  140.3616  155.6517 C   0  0  0  0  0  0  0  0  0  0  0  0
  151.8512  138.2787  154.8268 H   0  0  0  0  0  0  0  0  0  0  0  0
  151.1584  139.5496  153.8253 H   0  0  0  0  0  0  0  0  0  0  0  0
  150.1339  138.6361  154.9316 H   0  0  0  0  0  0  0  0  0  0  0  0
  151.4021  139.6165  156.8884 H   0  0  0  0  0  0  0  0  0  0  0  0
  152.4481  140.4481  155.7818 H   0  0  0  0  0  0  0  0  0  0  0  0
  150.4749  141.7010  154.8909 H   0  0  0  0  0  0  0  0  0  0  0  0
  151.9659  142.8084  156.5027 H   0  0  0  0  0  0  0  0  0  0  0  0
  150.3284  143.3292  156.7803 H   0  0  0  0  0  0  0  0  0  0  0  0
  151.5563  142.8513  158.9066 H   0  0  0  0  0  0  0  0  0  0  0  0
  151.7969  141.1800  158.4117 H   0  0  0  0  0  0  0  0  0  0  0  0
  150.1740  141.7780  158.7570 H   0  0  0  0  0  0  0  0  0  0  0  0
  147.2932  142.0340  153.7601 H   0  0  0  0  0  0  0  0  0  0  0  0
  149.0159  142.0298  153.8069 H   0  0  0  0  0  0  0  0  0  0  0  0
  148.2125  140.4582  152.0509 H   0  0  0  0  0  0  0  0  0  0  0  0
  149.0307  139.5583  153.3074 H   0  0  0  0  0  0  0  0  0  0  0  0
  146.0259  139.8839  152.9229 H   0  0  0  0  0  0  0  0  0  0  0  0
  147.9113  137.7524  152.3543 H   0  0  0  0  0  0  0  0  0  0  0  0
  147.3933  136.0459  151.5616 H   0  0  0  0  0  0  0  0  0  0  0  0
  144.1403  136.1721  150.0402 H   0  0  0  0  0  0  0  0  0  0  0  0
  146.7282  131.1910  151.7407 H   0  0  0  0  0  0  0  0  0  0  0  0
  146.0524  130.7070  150.1845 H   0  0  0  0  0  0  0  0  0  0  0  0
  145.0460  130.6690  151.6391 H   0  0  0  0  0  0  0  0  0  0  0  0
  146.9323  133.5330  151.9763 H   0  0  0  0  0  0  0  0  0  0  0  0
  145.6232  138.6197  154.9729 H   0  0  0  0  0  0  0  0  0  0  0  0
  147.3309  138.3400  155.2106 H   0  0  0  0  0  0  0  0  0  0  0  0
  146.5467  140.1461  156.7066 H   0  0  0  0  0  0  0  0  0  0  0  0
  145.9375  141.0617  155.3600 H   0  0  0  0  0  0  0  0  0  0  0  0
  1  2  1  0  0  0  0
  1 26  1  0  0  0  0
  1 27  1  0  0  0  0
  1 28  1  0  0  0  0
  2  3  1  0  0  0  0
  2 29  1  0  0  0  0
  2 30  1  0  0  0  0
  3  4  1  0  0  0  0
  3  6  1  0  0  0  0
  3 31  1  0  0  0  0
  4  5  1  0  0  0  0
  4 32  1  0  0  0  0
  4 33  1  0  0  0  0
  5 34  1  0  0  0  0
  5 35  1  0  0  0  0
  5 36  1  0  0  0  0
  6  7  2  0  0  0  0
  6  8  1  0  0  0  0
  8 25  1  0  0  0  0
  8  9  1  0  0  0  0
  9 10  1  0  0  0  0
  9 37  1  0  0  0  0
  9 38  1  0  0  0  0
 10 11  1  0  0  0  0
 10 39  1  0  0  0  0
 10 40  1  0  0  0  0
 11 12  1  0  0  0  0
 11 24  1  0  0  0  0
 11 41  1  0  0  0  0
 12 13  1  0  0  0  0
 12 42  1  0  0  0  0
 13 14  2  0  0  0  0
 13 15  1  0  0  0  0
 15 16  1  0  0  0  0
 15 43  1  0  0  0  0
 16 23  1  0  0  0  0
 16 17  2  0  0  0  0
 17 18  1  0  0  0  0
 17 44  1  0  0  0  0
 18 19  1  0  0  0  0
 19 20  2  0  0  0  0
 19 21  1  0  0  0  0
 21 22  1  0  0  0  0
 21 23  2  0  0  0  0
 22 45  1  0  0  0  0
 22 46  1  0  0  0  0
 22 47  1  0  0  0  0
 23 48  1  0  0  0  0
 24 25  1  0  0  0  0
 24 49  1  0  0  0  0
 24 50  1  0  0  0  0
 25 51  1  0  0  0  0
 25 52  1  0  0  0  0
M  CHG  1  18  -1
M  END
> <s_m_source_file>
AV-unprocessed.smi

> <i_m_source_file_index>
3049

> <i_lp_mmshare_version>
43012

> <i_f3d_flags>
0

> <s_epik_input>
W0NIM11bQ0gyXVtDSF0oW0NIMl1bQ0gzXSlDKD1PKU4xW0NIMl1bQ0gyXVtDSF0oW0NIMl1bQ0gyXTEpW05IXUMoPU8pW05IXWMyW2NIXVtuSF1jKD1PKWMoW0NIM10pW2NIXTI=

> <s_epik_cmdline>
J2VwaWtfcHl0aG9uJywgJy1waCcsICc3LjAnLCAnLXRuJywgJzgnLCAnLW1hJywgJzIwMCcsICctbWV0YWxfYmluZGluZycsICctaW1hZScsICc8aW5maWxlLm1hZT4nLCAnLW9tYWUnLCAnPG91dGZpbGUubWFlPic=

> <r_lp_tautomer_probability>
1

> <r_epik_Ionization_Penalty>
7.58311

> <r_epik_Ionization_Penalty_Charging>
1.51652

> <r_epik_Ionization_Penalty_Neutral>
6.06659

> <r_epik_State_Penalty>
6.06654

> <r_epik_Charging_Adjusted_Penalty>
7.58305

> <i_epik_Tot_Q>
-1

> <i_epik_Tot_abs_Q>
1

> <r_epik_Metal_State_Penalty>
2.01464

> <b_epik_Metal_Only>
1

> <s_lp_Force_Field>
OPLS_2005

> <r_lp_Energy>
39.554

> <b_lp_Chiralities_Consistent>
1

> <s_lp_Variant>
AV-unprocessed.smi:3049-2

> <Gold.Version>
5.8.1

> <Gold.Id.Protein>
6NUR|6NUR_protein|mol2

> <Gold.PLP.Fitness>
46.8836

> <Gold.PLP.PLP>
-39.6649

> <Gold.PLP.part.hbond>
-3.0000

> <Gold.PLP.part.metal>
0.0000

> <Gold.PLP.part.buried>
-2.6572

> <Gold.PLP.part.nonpolar>
-38.7606

> <Gold.PLP.part.repulsive>
2.9817

> <Gold.PLP.ligand.clash>
0.0000

> <Gold.PLP.ligand.torsion>
0.8476

> <Gold.PLP.Chemscore.Hbond>
2.8720

> <Gold.PLP.Chemscore.CHOScore>
0.0000

> <Gold.PLP.Chemscore.Metal>
0.0000

> <Gold.Chemscore.Hbonds>
donor molecule, donor type, donor heavy atom, donor atom, acceptor molecule, acceptor atom, score
      L1  H    12    42       P1  7948  0.88
      L1  H    15    43       P1  7948  1.00
      P1  H 10785 10796       L1    20  0.96

> <Gold.PLP.Chemscore.Internal.Correction>
0.2979

> <Gold.Rescore>
     Score         DG    S(hbond)    S(metal)    S(lipo)     H(rot)  DE(clash)    DE(int)     intcor
     18.12     -22.94       2.83        0.00     101.96       1.54       3.33       1.50       ----

> <Gold.Chemscore.Fitness>
18.1168

> <Gold.Chemscore.DG>
-22.9434

> <Gold.Chemscore.ZeroCoef>
-5.4800

> <Gold.Chemscore.Hbond>
2.8349

> <Gold.Chemscore.Metal>
0.0000

> <Gold.Chemscore.Lipo>
101.9563

> <Gold.Chemscore.Internal_Hbond>
0.0000

> <Gold.Chemscore.DEClash>
3.3282

> <Gold.Chemscore.DEInternal>
1.4984

> <Gold.Chemscore.Rot>
1.5367

> <Gold.Chemscore.Internal.Correction>
   9.000000E+99

> <Gold.Chemscore.Hbonds>
donor molecule, donor type, donor heavy atom, donor atom, acceptor molecule, acceptor atom, score
      L1  H    12    42       P1  7948  0.86
      L1  H    15    43       P1  7948  0.96
      P1  H 10785 10796       L1    20  0.90

> <Gold.Chemscore.Hbond.Weighted>
-9.4685

> <Gold.Chemscore.Metal.Weighted>
-0.0000

> <Gold.Chemscore.Lipo.Weighted>
-11.9289

> <Gold.Chemscore.Internal_Hbond.Weighted>
0.0000

> <Gold.Chemscore.DEClash.Weighted>
3.3282

> <Gold.Chemscore.DEInternal.Weighted>
1.4984

> <Gold.Chemscore.Rot.Weighted>
3.9340

> <Gold.Chemscore.Internal.Correction.Weighted>
   9.000000E+99

> <Gold.Protein.RotatedTorsions>
[ 6907 6896 6895 6894 ] final  156.00 input  -60.11 | X-H torsion
[ 7974 7965 7964 7962 ] final -143.78 input  175.53 | X-H torsion
[ 8008 7997 7996 7995 ] final   46.26 input   59.86 | X-H torsion
[ 10167 10162 10161 10158 ] final   71.23 input  -65.29 | X-H torsion
[ 10718 10713 10712 10709 ] final  142.19 input   66.30 | X-H torsion
[ 10763 10752 10751 10750 ] final   95.64 input  -60.55 | X-H torsion
[ 11005 11000 10999 10996 ] final    0.63 input  -57.11 | X-H torsion

> <Gold.Protein.ActiveResidues>
 VAL166  LYS551  ARG553  GLY616  TRP617  ASP618  TYR619  PRO620  LYS621  CYS622 
 ASP623  PHE694  ASN695  SER759  ASP760  ASP761  ALA762  ILE779  LEU786  VAL792 
 PHE793  MET794  SER795  GLU796  ALA797  LYS798  CYS799  TRP800  GLU811  SER814 

> <Gold.Protein.RotatedAtoms>
  152.0360  133.3957  159.4316 H   0  0  0  0  0  0  0  0  0  0  0  0  # atno 6907 bound_to 6896
  150.6879  134.3467  159.4900 H   0  0  0  0  0  0  0  0  0  0  0  0  # atno 6908 bound_to 6896
  152.1260  134.9170  160.0611 H   0  0  0  0  0  0  0  0  0  0  0  0  # atno 6909 bound_to 6896
  144.8345  140.5792  143.5493 H   0  0  0  0  0  0  0  0  0  0  0  0  # atno 7974 bound_to 7965
  155.3495  140.3412  155.4239 H   0  0  0  0  0  0  0  0  0  0  0  0  # atno 8008 bound_to 7997
  156.1771  140.1651  156.8378 H   0  0  0  0  0  0  0  0  0  0  0  0  # atno 8009 bound_to 7997
  154.5294  140.0749  156.8300 H   0  0  0  0  0  0  0  0  0  0  0  0  # atno 8010 bound_to 7997
  140.0484  144.5332  150.7381 H   0  0  0  0  0  0  0  0  0  0  0  0  # atno 10167 bound_to 10162
  157.3834  131.0995  151.0717 H   0  0  0  0  0  0  0  0  0  0  0  0  # atno 10718 bound_to 10713
  153.2555  135.4247  155.0841 H   0  0  0  0  0  0  0  0  0  0  0  0  # atno 10763 bound_to 10752
  154.8399  135.3436  154.6451 H   0  0  0  0  0  0  0  0  0  0  0  0  # atno 10764 bound_to 10752
  153.6872  135.7035  153.5157 H   0  0  0  0  0  0  0  0  0  0  0  0  # atno 10765 bound_to 10752
  140.6245  133.9631  155.8242 H   0  0  0  0  0  0  0  0  0  0  0  0  # atno 11005 bound_to 11000
  145.4824  139.1494  143.3754 LP  0  0  0  0  0  0  0  0  0  0  0  0  # atno 17320 bound_to 7965
  146.2645  140.4961  142.8840 LP  0  0  0  0  0  0  0  0  0  0  0  0  # atno 17321 bound_to 7965
  140.7228  143.2605  151.4221 LP  0  0  0  0  0  0  0  0  0  0  0  0  # atno 17342 bound_to 10162
  139.5969  144.1379  152.2154 LP  0  0  0  0  0  0  0  0  0  0  0  0  # atno 17343 bound_to 10162
  157.1777  130.6295  149.5661 LP  0  0  0  0  0  0  0  0  0  0  0  0  # atno 17370 bound_to 10713
  155.9781  130.4764  150.6634 LP  0  0  0  0  0  0  0  0  0  0  0  0  # atno 17371 bound_to 10713
  141.0719  134.0192  157.3513 LP  0  0  0  0  0  0  0  0  0  0  0  0  # atno 17394 bound_to 11000
  139.9140  135.0194  156.7808 LP  0  0  0  0  0  0  0  0  0  0  0  0  # atno 17395 bound_to 11000

$$$$
