AV-unprocessed.smi:2937|AV-procd|sdf|11259|dock8
  -GOLD-   2272016153D 1   1.00000     0.00000
 Structure written by MMmdl.
 33 34  0  0  0  0  0  0  0  0  1 V2000
  146.1599  142.8439  154.0311 C   0  0  0  0  0  0  0  0  0  0  0  0
  147.2690  142.3712  154.7871 O   0  0  0  0  0  0  0  0  0  0  0  0
  147.8143  141.1463  154.4563 C   0  0  0  0  0  0  0  0  0  0  0  0
  147.2866  140.4553  153.4157 N   0  0  0  0  0  0  0  0  0  0  0  0
  147.8370  139.2765  153.1321 C   0  0  0  0  0  0  0  0  0  0  0  0
  147.2934  138.5810  152.0800 N   0  0  0  0  0  0  0  0  0  0  0  0
  148.8603  138.7016  153.7617 N   0  0  0  0  0  0  0  0  0  0  0  0
  149.4114  139.3721  154.8029 C   0  0  0  0  0  0  0  0  0  0  0  0
  150.5125  138.7846  155.4538 N   0  0  0  0  0  0  0  0  0  0  0  0
  151.7389  138.8309  154.6673 C   0  0  0  0  0  0  0  0  0  0  0  0
  152.9347  138.3963  155.5324 C   0  0  0  0  0  0  0  0  0  0  0  0
  152.6863  137.1055  156.0831 O   0  0  0  0  0  0  0  0  0  0  0  0
  151.5264  137.0898  156.9107 C   0  0  0  0  0  0  0  0  0  0  0  0
  150.2949  137.4830  156.0775 C   0  0  0  0  0  0  0  0  0  0  0  0
  148.9025  140.6371  155.2042 C   0  0  0  0  0  0  0  0  0  0  0  0
  149.4577  141.4210  156.3868 C   0  0  0  0  0  0  0  0  0  0  0  0
  150.0819  142.6251  155.9954 O   0  0  0  0  0  0  0  0  0  0  0  0
  145.8518  143.8170  154.4132 H   0  0  0  0  0  0  0  0  0  0  0  0
  145.3050  142.1711  154.1114 H   0  0  0  0  0  0  0  0  0  0  0  0
  146.4197  142.9690  152.9790 H   0  0  0  0  0  0  0  0  0  0  0  0
  146.5159  138.9637  151.5620 H   0  0  0  0  0  0  0  0  0  0  0  0
  147.6580  137.6752  151.8234 H   0  0  0  0  0  0  0  0  0  0  0  0
  151.6377  138.1662  153.8082 H   0  0  0  0  0  0  0  0  0  0  0  0
  151.9110  139.8324  154.2743 H   0  0  0  0  0  0  0  0  0  0  0  0
  153.8410  138.3566  154.9281 H   0  0  0  0  0  0  0  0  0  0  0  0
  153.1158  139.1157  156.3326 H   0  0  0  0  0  0  0  0  0  0  0  0
  151.3977  136.0891  157.3231 H   0  0  0  0  0  0  0  0  0  0  0  0
  151.6592  137.7686  157.7545 H   0  0  0  0  0  0  0  0  0  0  0  0
  149.4082  137.5180  156.7118 H   0  0  0  0  0  0  0  0  0  0  0  0
  150.1170  136.7293  155.3089 H   0  0  0  0  0  0  0  0  0  0  0  0
  148.6439  141.6591  157.0725 H   0  0  0  0  0  0  0  0  0  0  0  0
  150.1667  140.8238  156.9595 H   0  0  0  0  0  0  0  0  0  0  0  0
  149.4137  143.2341  155.7201 H   0  0  0  0  0  0  0  0  0  0  0  0
  1  2  1  0  0  0  0
  1 18  1  0  0  0  0
  1 19  1  0  0  0  0
  1 20  1  0  0  0  0
  2  3  1  0  0  0  0
  3 15  1  0  0  0  0
  3  4  2  0  0  0  0
  4  5  1  0  0  0  0
  5  6  1  0  0  0  0
  5  7  2  0  0  0  0
  6 21  1  0  0  0  0
  6 22  1  0  0  0  0
  7  8  1  0  0  0  0
  8  9  1  0  0  0  0
  8 15  2  0  0  0  0
  9 14  1  0  0  0  0
  9 10  1  0  0  0  0
 10 11  1  0  0  0  0
 10 23  1  0  0  0  0
 10 24  1  0  0  0  0
 11 12  1  0  0  0  0
 11 25  1  0  0  0  0
 11 26  1  0  0  0  0
 12 13  1  0  0  0  0
 13 14  1  0  0  0  0
 13 27  1  0  0  0  0
 13 28  1  0  0  0  0
 14 29  1  0  0  0  0
 14 30  1  0  0  0  0
 15 16  1  0  0  0  0
 16 17  1  0  0  0  0
 16 31  1  0  0  0  0
 16 32  1  0  0  0  0
 17 33  1  0  0  0  0
M  END
> <s_m_source_file>
AV-unprocessed.smi

> <i_m_source_file_index>
2937

> <i_lp_mmshare_version>
43012

> <i_f3d_flags>
0

> <s_epik_input>
W0NIM11PYzFuYyhbTkgyXSluYyhjMVtDSDJdW09IXSlOMltDSDJdW0NIMl1PW0NIMl1bQ0gyXTI=

> <s_epik_cmdline>
J2VwaWtfcHl0aG9uJywgJy1waCcsICc3LjAnLCAnLXRuJywgJzgnLCAnLW1hJywgJzIwMCcsICctbWV0YWxfYmluZGluZycsICctaW1hZScsICc8aW5maWxlLm1hZT4nLCAnLW9tYWUnLCAnPG91dGZpbGUubWFlPic=

> <r_lp_tautomer_probability>
1

> <r_epik_Ionization_Penalty>
0.000679252

> <r_epik_Ionization_Penalty_Charging>
0

> <r_epik_Ionization_Penalty_Neutral>
0.000679252

> <r_epik_State_Penalty>
0.00040271

> <r_epik_Charging_Adjusted_Penalty>
0.00040271

> <i_epik_Tot_Q>
0

> <i_epik_Tot_abs_Q>
0

> <r_epik_Metal_State_Penalty>
-0

> <b_epik_Metal_Only>
0

> <s_lp_Force_Field>
OPLS_2005

> <r_lp_Energy>
14.7013

> <b_lp_Chiralities_Consistent>
1

> <s_lp_Variant>
AV-unprocessed.smi:2937-1

> <Gold.Version>
5.8.1

> <Gold.Id.Protein>
6NUR|6NUR_protein|mol2

> <Gold.PLP.Fitness>
31.2362

> <Gold.PLP.PLP>
-23.1007

> <Gold.PLP.part.hbond>
-3.7602

> <Gold.PLP.part.metal>
0.0000

> <Gold.PLP.part.buried>
-3.7732

> <Gold.PLP.part.nonpolar>
-18.3031

> <Gold.PLP.part.repulsive>
2.7028

> <Gold.PLP.ligand.clash>
0.0000

> <Gold.PLP.ligand.torsion>
0.1987

> <Gold.PLP.Chemscore.Hbond>
2.7840

> <Gold.PLP.Chemscore.CHOScore>
0.0000

> <Gold.PLP.Chemscore.Metal>
0.0000

> <Gold.Chemscore.Hbonds>
donor molecule, donor type, donor heavy atom, donor atom, acceptor molecule, acceptor atom, score
      L1  H     6    22       P1  7948  1.00
      L1  H    17    33       P1  8028  0.98
      P1  H 10752 10765       L1    12  0.77

> <Gold.PLP.Chemscore.Internal.Correction>
0.1809

> <Gold.Rescore>
     Score         DG    S(hbond)    S(metal)    S(lipo)     H(rot)  DE(clash)    DE(int)     intcor
     12.63     -13.04       2.62        0.00      40.25       2.31       0.20       0.21       ----

> <Gold.Chemscore.Fitness>
12.6292

> <Gold.Chemscore.DG>
-13.0367

> <Gold.Chemscore.ZeroCoef>
-5.4800

> <Gold.Chemscore.Hbond>
2.6246

> <Gold.Chemscore.Metal>
0.0000

> <Gold.Chemscore.Lipo>
40.2457

> <Gold.Chemscore.Internal_Hbond>
0.0000

> <Gold.Chemscore.DEClash>
0.2025

> <Gold.Chemscore.DEInternal>
0.2051

> <Gold.Chemscore.Rot>
2.3118

> <Gold.Chemscore.Internal.Correction>
   9.000000E+99

> <Gold.Chemscore.Hbonds>
donor molecule, donor type, donor heavy atom, donor atom, acceptor molecule, acceptor atom, score
      L1  H     6    22       P1  7948  0.98
      L1  H    17    33       P1  8028  0.91
      P1  H 10752 10765       L1    12  0.74

> <Gold.Chemscore.Hbond.Weighted>
-8.7661

> <Gold.Chemscore.Metal.Weighted>
-0.0000

> <Gold.Chemscore.Lipo.Weighted>
-4.7087

> <Gold.Chemscore.Internal_Hbond.Weighted>
0.0000

> <Gold.Chemscore.DEClash.Weighted>
0.2025

> <Gold.Chemscore.DEInternal.Weighted>
0.2051

> <Gold.Chemscore.Rot.Weighted>
5.9181

> <Gold.Chemscore.Internal.Correction.Weighted>
   9.000000E+99

> <Gold.Protein.RotatedTorsions>
[ 6907 6896 6895 6894 ] final  144.95 input  -60.11 | X-H torsion
[ 7974 7965 7964 7962 ] final -169.88 input  175.53 | X-H torsion
[ 8008 7997 7996 7995 ] final   37.29 input   59.86 | X-H torsion
[ 10167 10162 10161 10158 ] final -134.55 input  -65.29 | X-H torsion
[ 10718 10713 10712 10709 ] final  -12.72 input   66.30 | X-H torsion
[ 10763 10752 10751 10750 ] final -140.71 input  -60.55 | X-H torsion
[ 11005 11000 10999 10996 ] final   71.05 input  -57.11 | X-H torsion

> <Gold.Protein.ActiveResidues>
 VAL166  LYS551  ARG553  GLY616  TRP617  ASP618  TYR619  PRO620  LYS621  CYS622 
 ASP623  PHE694  ASN695  SER759  ASP760  ASP761  ALA762  ILE779  LEU786  VAL792 
 PHE793  MET794  SER795  GLU796  ALA797  LYS798  CYS799  TRP800  GLU811  SER814 

> <Gold.Protein.RotatedAtoms>
  152.1871  133.4747  159.4988 H   0  0  0  0  0  0  0  0  0  0  0  0  # atno 6907 bound_to 6896
  150.6944  134.1760  159.4239 H   0  0  0  0  0  0  0  0  0  0  0  0  # atno 6908 bound_to 6896
  151.9673  135.0094  160.0601 H   0  0  0  0  0  0  0  0  0  0  0  0  # atno 6909 bound_to 6896
  144.7178  140.2155  143.6322 H   0  0  0  0  0  0  0  0  0  0  0  0  # atno 7974 bound_to 7965
  155.2013  140.3316  155.4343 H   0  0  0  0  0  0  0  0  0  0  0  0  # atno 8008 bound_to 7997
  156.2406  140.1893  156.7050 H   0  0  0  0  0  0  0  0  0  0  0  0  # atno 8009 bound_to 7997
  154.6139  140.0605  156.9515 H   0  0  0  0  0  0  0  0  0  0  0  0  # atno 8010 bound_to 7997
  139.8869  143.6770  152.2618 H   0  0  0  0  0  0  0  0  0  0  0  0  # atno 10167 bound_to 10162
  156.6405  130.4926  149.6096 H   0  0  0  0  0  0  0  0  0  0  0  0  # atno 10718 bound_to 10713
  154.8570  135.3545  154.5751 H   0  0  0  0  0  0  0  0  0  0  0  0  # atno 10763 bound_to 10752
  153.6363  135.7000  153.5262 H   0  0  0  0  0  0  0  0  0  0  0  0  # atno 10764 bound_to 10752
  153.3008  135.4207  155.1210 H   0  0  0  0  0  0  0  0  0  0  0  0  # atno 10765 bound_to 10752
  139.9564  134.7136  156.0743 H   0  0  0  0  0  0  0  0  0  0  0  0  # atno 11005 bound_to 11000
  145.8550  139.2194  143.1750 LP  0  0  0  0  0  0  0  0  0  0  0  0  # atno 17320 bound_to 7965
  146.0226  140.8334  142.9916 LP  0  0  0  0  0  0  0  0  0  0  0  0  # atno 17321 bound_to 7965
  139.7145  144.7614  151.1057 LP  0  0  0  0  0  0  0  0  0  0  0  0  # atno 17342 bound_to 10162
  140.7734  143.5288  150.9448 LP  0  0  0  0  0  0  0  0  0  0  0  0  # atno 17343 bound_to 10162
  156.2163  130.6709  151.1322 LP  0  0  0  0  0  0  0  0  0  0  0  0  # atno 17370 bound_to 10713
  157.7172  131.0703  150.6279 LP  0  0  0  0  0  0  0  0  0  0  0  0  # atno 17371 bound_to 10713
  141.1236  133.6605  156.3279 LP  0  0  0  0  0  0  0  0  0  0  0  0  # atno 17394 bound_to 11000
  140.5599  134.5945  157.5431 LP  0  0  0  0  0  0  0  0  0  0  0  0  # atno 17395 bound_to 11000

$$$$
