AV-unprocessed.smi:3303|AV-procd|sdf|12673|dock8
  -GOLD-   2272019 03D 1   1.00000     0.00000
 Structure written by MMmdl.
 44 45  0  0  0  0  0  0  0  0  2 V2000
  145.2731  136.6893  151.8246 C   0  0  0  0  0  0  0  0  0  0  0  0
  145.7472  135.2648  151.4890 C   0  0  2  0  0  0  0  0  0  0  0  0
  144.7131  134.5608  150.5888 C   0  0  0  0  0  0  0  0  0  0  0  0
  145.1539  133.2159  150.2093 N   0  0  0  0  0  0  0  0  0  0  0  0
  144.1657  132.6847  149.2742 C   0  0  0  0  0  0  0  0  0  0  0  0
  145.2932  132.3686  151.4061 C   0  0  1  0  0  0  0  0  0  0  0  0
  145.7002  130.9235  151.0522 C   0  0  0  0  0  0  0  0  0  0  0  0
  146.3555  132.9871  152.3392 C   0  0  0  0  0  0  0  0  0  0  0  0
  145.9997  134.4215  152.7537 C   0  0  1  0  0  0  0  0  0  0  0  0
  147.1014  134.9928  153.5605 N   0  3  0  0  0  0  0  0  0  0  0  0
  147.7411  134.0453  154.4949 C   0  0  0  0  0  0  0  0  0  0  0  0
  149.2704  134.1106  154.3833 C   0  0  0  0  0  0  0  0  0  0  0  0
  149.9273  132.7819  154.7047 C   0  0  0  0  0  0  0  0  0  0  0  0
  149.5162  131.5985  154.0550 C   0  0  0  0  0  0  0  0  0  0  0  0
  150.1640  130.3923  154.3857 C   0  0  0  0  0  0  0  0  0  0  0  0
  151.1921  130.4162  155.3476 C   0  0  0  0  0  0  0  0  0  0  0  0
  151.5292  131.6505  155.9382 C   0  0  0  0  0  0  0  0  0  0  0  0
  150.9160  132.8132  155.6263 N   0  0  0  0  0  0  0  0  0  0  0  0
  144.3512  136.6737  152.4072 H   0  0  0  0  0  0  0  0  0  0  0  0
  145.0809  137.2613  150.9165 H   0  0  0  0  0  0  0  0  0  0  0  0
  146.0206  137.2372  152.3986 H   0  0  0  0  0  0  0  0  0  0  0  0
  146.6808  135.3456  150.9290 H   0  0  0  0  0  0  0  0  0  0  0  0
  143.7458  134.5076  151.0918 H   0  0  0  0  0  0  0  0  0  0  0  0
  144.5671  135.1573  149.6869 H   0  0  0  0  0  0  0  0  0  0  0  0
  144.4914  131.7374  148.8456 H   0  0  0  0  0  0  0  0  0  0  0  0
  144.0206  133.3691  148.4375 H   0  0  0  0  0  0  0  0  0  0  0  0
  143.2003  132.5317  149.7589 H   0  0  0  0  0  0  0  0  0  0  0  0
  144.3369  132.3382  151.9313 H   0  0  0  0  0  0  0  0  0  0  0  0
  145.9231  130.3520  151.9537 H   0  0  0  0  0  0  0  0  0  0  0  0
  146.5898  130.9017  150.4216 H   0  0  0  0  0  0  0  0  0  0  0  0
  144.9049  130.3857  150.5364 H   0  0  0  0  0  0  0  0  0  0  0  0
  146.4631  132.3706  153.2328 H   0  0  0  0  0  0  0  0  0  0  0  0
  147.3268  132.9762  151.8413 H   0  0  0  0  0  0  0  0  0  0  0  0
  145.0828  134.3889  153.3456 H   0  0  0  0  0  0  0  0  0  0  0  0
  147.8071  135.3473  152.9307 H   0  0  0  0  0  0  0  0  0  0  0  0
  147.4342  134.2823  155.5146 H   0  0  0  0  0  0  0  0  0  0  0  0
  147.3888  133.0365  154.2757 H   0  0  0  0  0  0  0  0  0  0  0  0
  149.5602  134.4130  153.3758 H   0  0  0  0  0  0  0  0  0  0  0  0
  149.6611  134.8741  155.0574 H   0  0  0  0  0  0  0  0  0  0  0  0
  148.7244  131.6112  153.3204 H   0  0  0  0  0  0  0  0  0  0  0  0
  149.8778  129.4660  153.9097 H   0  0  0  0  0  0  0  0  0  0  0  0
  151.7101  129.5104  155.6263 H   0  0  0  0  0  0  0  0  0  0  0  0
  152.3126  131.7055  156.6796 H   0  0  0  0  0  0  0  0  0  0  0  0
  146.7311  135.7667  154.0934 H   0  0  0  0  0  0  0  0  0  0  0  0
  1  2  1  0  0  0  0
  1 19  1  0  0  0  0
  1 20  1  0  0  0  0
  1 21  1  0  0  0  0
  2  9  1  0  0  0  0
  2  3  1  0  0  0  0
  2 22  1  0  0  0  0
  3  4  1  0  0  0  0
  3 23  1  0  0  0  0
  3 24  1  0  0  0  0
  4  5  1  0  0  0  0
  4  6  1  0  0  0  0
  5 25  1  0  0  0  0
  5 26  1  0  0  0  0
  5 27  1  0  0  0  0
  6  7  1  0  0  0  0
  6  8  1  0  0  0  0
  6 28  1  0  0  0  0
  7 29  1  0  0  0  0
  7 30  1  0  0  0  0
  7 31  1  0  0  0  0
  8  9  1  0  0  0  0
  8 32  1  0  0  0  0
  8 33  1  0  0  0  0
  9 10  1  0  0  0  0
  9 34  1  0  0  0  0
 10 11  1  0  0  0  0
 10 35  1  0  0  0  0
 10 44  1  0  0  0  0
 11 12  1  0  0  0  0
 11 36  1  0  0  0  0
 11 37  1  0  0  0  0
 12 13  1  0  0  0  0
 12 38  1  0  0  0  0
 12 39  1  0  0  0  0
 13 18  1  0  0  0  0
 13 14  2  0  0  0  0
 14 15  1  0  0  0  0
 14 40  1  0  0  0  0
 15 16  2  0  0  0  0
 15 41  1  0  0  0  0
 16 17  1  0  0  0  0
 16 42  1  0  0  0  0
 17 18  2  0  0  0  0
 17 43  1  0  0  0  0
M  CHG  1  10   1
M  END
> <s_m_source_file>
AV-unprocessed.smi

> <i_m_source_file_index>
3303

> <i_lp_mmshare_version>
43012

> <i_f3d_flags>
0

> <s_epik_input>
W0NIM11bQ0BASF0xW0NIMl1OKFtDSDNdKVtDQEBIXShbQ0gzXSlbQ0gyXVtDQEhdMVtOSF1bQ0gyXVtDSDJdYzJbY0hdW2NIXVtjSF1bY0hdbjI=

> <s_epik_cmdline>
J2VwaWtfcHl0aG9uJywgJy1waCcsICc3LjAnLCAnLXRuJywgJzgnLCAnLW1hJywgJzIwMCcsICctbWV0YWxfYmluZGluZycsICctaW1hZScsICc8aW5maWxlLm1hZT4nLCAnLW9tYWUnLCAnPG91dGZpbGUubWFlPic=

> <r_epik_Ionization_Penalty>
1.37325

> <r_epik_Ionization_Penalty_Charging>
0.000251572

> <r_epik_Ionization_Penalty_Neutral>
1.373

> <r_epik_State_Penalty>
1.46343

> <r_epik_Charging_Adjusted_Penalty>
1.46368

> <i_epik_Tot_Q>
1

> <i_epik_Tot_abs_Q>
1

> <r_epik_Metal_State_Penalty>
1.46331

> <b_epik_Metal_Only>
0

> <s_lp_Force_Field>
OPLS_2005

> <r_lp_Energy>
21.6133

> <b_lp_Chiralities_Consistent>
1

> <s_lp_Variant>
AV-unprocessed.smi:3303-17

> <Gold.Version>
5.8.1

> <Gold.Id.Protein>
6NUR|6NUR_protein|mol2

> <Gold.PLP.Fitness>
38.7475

> <Gold.PLP.PLP>
-34.3324

> <Gold.PLP.part.hbond>
-1.0000

> <Gold.PLP.part.metal>
0.0000

> <Gold.PLP.part.buried>
-3.9438

> <Gold.PLP.part.nonpolar>
-29.5039

> <Gold.PLP.part.repulsive>
0.1532

> <Gold.PLP.ligand.clash>
0.0000

> <Gold.PLP.ligand.torsion>
0.7964

> <Gold.PLP.Chemscore.Hbond>
2.0000

> <Gold.PLP.Chemscore.CHOScore>
0.0000

> <Gold.PLP.Chemscore.Metal>
0.0000

> <Gold.Chemscore.Hbonds>
donor molecule, donor type, donor heavy atom, donor atom, acceptor molecule, acceptor atom, score
      L1  H    10    35       P1  7948  2.00

> <Gold.PLP.Chemscore.Internal.Correction>
0.0080

> <Gold.Rescore>
     Score         DG    S(hbond)    S(metal)    S(lipo)     H(rot)  DE(clash)    DE(int)     intcor
     15.40     -16.18       1.00        0.00      92.03       1.33       0.00       0.79       ----

> <Gold.Chemscore.Fitness>
15.3959

> <Gold.Chemscore.DG>
-16.1825

> <Gold.Chemscore.ZeroCoef>
-5.4800

> <Gold.Chemscore.Hbond>
0.9997

> <Gold.Chemscore.Metal>
0.0000

> <Gold.Chemscore.Lipo>
92.0332

> <Gold.Chemscore.Internal_Hbond>
0.0000

> <Gold.Chemscore.DEClash>
0.0015

> <Gold.Chemscore.DEInternal>
0.7852

> <Gold.Chemscore.Rot>
1.3298

> <Gold.Chemscore.Internal.Correction>
   9.000000E+99

> <Gold.Chemscore.Hbonds>
donor molecule, donor type, donor heavy atom, donor atom, acceptor molecule, acceptor atom, score
      L1  H    10    35       P1  7948  1.00

> <Gold.Chemscore.Hbond.Weighted>
-3.3390

> <Gold.Chemscore.Metal.Weighted>
-0.0000

> <Gold.Chemscore.Lipo.Weighted>
-10.7679

> <Gold.Chemscore.Internal_Hbond.Weighted>
0.0000

> <Gold.Chemscore.DEClash.Weighted>
0.0015

> <Gold.Chemscore.DEInternal.Weighted>
0.7852

> <Gold.Chemscore.Rot.Weighted>
3.4043

> <Gold.Chemscore.Internal.Correction.Weighted>
   9.000000E+99

> <Gold.Protein.RotatedTorsions>
[ 6907 6896 6895 6894 ] final  -38.29 input  -60.11 | X-H torsion
[ 7974 7965 7964 7962 ] final  -61.70 input  175.53 | X-H torsion
[ 8008 7997 7996 7995 ] final  -94.71 input   59.86 | X-H torsion
[ 10167 10162 10161 10158 ] final   22.02 input  -65.29 | X-H torsion
[ 10718 10713 10712 10709 ] final  102.98 input   66.30 | X-H torsion
[ 10763 10752 10751 10750 ] final   -2.82 input  -60.55 | X-H torsion
[ 11005 11000 10999 10996 ] final  147.08 input  -57.11 | X-H torsion

> <Gold.Protein.ActiveResidues>
 VAL166  LYS551  ARG553  GLY616  TRP617  ASP618  TYR619  PRO620  LYS621  CYS622 
 ASP623  PHE694  ASN695  SER759  ASP760  ASP761  ALA762  ILE779  LEU786  VAL792 
 PHE793  MET794  SER795  GLU796  ALA797  LYS798  CYS799  TRP800  GLU811  SER814 

> <Gold.Protein.RotatedAtoms>
  151.0042  134.9346  159.7970 H   0  0  0  0  0  0  0  0  0  0  0  0  # atno 6907 bound_to 6896
  152.5286  134.3113  159.9124 H   0  0  0  0  0  0  0  0  0  0  0  0  # atno 6908 bound_to 6896
  151.3119  133.4035  159.2682 H   0  0  0  0  0  0  0  0  0  0  0  0  # atno 6909 bound_to 6896
  145.8003  140.8659  143.0234 H   0  0  0  0  0  0  0  0  0  0  0  0  # atno 7974 bound_to 7965
  154.7519  140.0487  157.0901 H   0  0  0  0  0  0  0  0  0  0  0  0  # atno 8008 bound_to 7997
  155.0046  140.3128  155.4834 H   0  0  0  0  0  0  0  0  0  0  0  0  # atno 8009 bound_to 7997
  156.2887  140.2195  156.5157 H   0  0  0  0  0  0  0  0  0  0  0  0  # atno 8010 bound_to 7997
  140.5381  143.9724  150.6503 H   0  0  0  0  0  0  0  0  0  0  0  0  # atno 10167 bound_to 10162
  157.6786  131.0767  150.5486 H   0  0  0  0  0  0  0  0  0  0  0  0  # atno 10718 bound_to 10713
  153.3631  135.6991  153.6696 H   0  0  0  0  0  0  0  0  0  0  0  0  # atno 10763 bound_to 10752
  153.5376  135.3579  155.2704 H   0  0  0  0  0  0  0  0  0  0  0  0  # atno 10764 bound_to 10752
  154.8671  135.4196  154.2893 H   0  0  0  0  0  0  0  0  0  0  0  0  # atno 10765 bound_to 10752
  140.0846  134.9077  157.1555 H   0  0  0  0  0  0  0  0  0  0  0  0  # atno 11005 bound_to 11000
  144.6769  140.0250  143.7483 LP  0  0  0  0  0  0  0  0  0  0  0  0  # atno 17320 bound_to 7965
  145.9884  139.2996  143.0999 LP  0  0  0  0  0  0  0  0  0  0  0  0  # atno 17321 bound_to 7965
  140.3118  143.3193  152.0872 LP  0  0  0  0  0  0  0  0  0  0  0  0  # atno 17342 bound_to 10162
  139.4978  144.6631  151.6418 LP  0  0  0  0  0  0  0  0  0  0  0  0  # atno 17343 bound_to 10162
  156.5791  130.4299  149.5985 LP  0  0  0  0  0  0  0  0  0  0  0  0  # atno 17370 bound_to 10713
  156.2676  130.6998  151.1786 LP  0  0  0  0  0  0  0  0  0  0  0  0  # atno 17371 bound_to 10713
  140.3439  134.2673  155.7208 LP  0  0  0  0  0  0  0  0  0  0  0  0  # atno 17394 bound_to 11000
  141.2058  133.7850  157.0212 LP  0  0  0  0  0  0  0  0  0  0  0  0  # atno 17395 bound_to 11000

$$$$
