AV-unprocessed.smi:252|AV-procd|sdf|1938|dock5
  -GOLD-   2262021 63D 1   1.00000     0.00000
 Structure written by MMmdl.
 56 59  0  0  0  0  0  0  0  0  1 V2000
  155.0325  138.8090  162.2085 C   0  0  0  0  0  0  0  0  0  0  0  0
  155.3611  140.2185  161.6912 C   0  0  0  0  0  0  0  0  0  0  0  0
  154.7207  140.5457  160.3381 C   0  0  0  0  0  0  0  0  0  0  0  0
  155.0427  139.9350  159.3182 O   0  0  0  0  0  0  0  0  0  0  0  0
  153.8041  141.5252  160.3496 N   0  0  0  0  0  0  0  0  0  0  0  0
  153.0575  141.9966  159.1878 C   0  0  2  0  0  0  0  0  0  0  0  0
  152.0022  143.0419  159.6017 C   0  0  0  0  0  0  0  0  0  0  0  0
  151.1499  143.4517  158.3911 C   0  0  0  0  0  0  0  0  0  0  0  0
  150.5252  142.2210  157.7144 C   0  0  0  0  0  0  0  0  0  0  0  0
  151.5550  141.2391  157.3718 N   0  0  0  0  0  0  0  0  0  0  0  0
  151.2276  140.2604  156.4909 C   0  0  0  0  0  0  0  0  0  0  0  0
  150.7070  140.5850  155.2769 N   0  0  0  0  0  0  0  0  0  0  0  0
  150.3757  139.6269  154.4066 C   0  0  0  0  0  0  0  0  0  0  0  0
  150.4805  138.3037  154.5423 N   0  0  0  0  0  0  0  0  0  0  0  0
  151.0046  137.9703  155.7563 C   0  0  0  0  0  0  0  0  0  0  0  0
  151.4051  138.8774  156.7782 C   0  0  0  0  0  0  0  0  0  0  0  0
  151.9139  138.1726  157.8628 N   0  0  0  0  0  0  0  0  0  0  0  0
  151.8148  136.9219  157.5049 C   0  0  0  0  0  0  0  0  0  0  0  0
  151.2672  136.7079  156.2601 N   0  0  0  0  0  0  0  0  0  0  0  0
  151.0486  135.4210  155.6168 C   0  0  0  0  0  0  0  0  0  0  0  0
  149.5569  135.0753  155.3566 C   0  0  2  0  0  0  0  0  0  0  0  0
  148.9978  136.0890  154.5396 O   0  0  0  0  0  0  0  0  0  0  0  0
  148.7172  134.9497  156.6240 C   0  0  0  0  0  0  0  0  0  0  0  0
  148.9545  133.5029  157.0247 C   0  0  0  0  0  0  0  0  0  0  0  0
  148.9374  132.8118  155.7852 O   0  0  0  0  0  0  0  0  0  0  0  0
  149.4165  133.6588  154.7391 C   0  0  1  0  0  0  0  0  0  0  0  0
  148.4217  133.5287  153.5730 C   0  0  0  0  0  0  0  0  0  0  0  0
  152.3876  140.7985  158.4904 C   0  0  0  0  0  0  0  0  0  0  0  0
  155.5170  138.6298  163.1684 H   0  0  0  0  0  0  0  0  0  0  0  0
  155.3781  138.0395  161.5171 H   0  0  0  0  0  0  0  0  0  0  0  0
  153.9595  138.6767  162.3530 H   0  0  0  0  0  0  0  0  0  0  0  0
  155.0302  140.9595  162.4196 H   0  0  0  0  0  0  0  0  0  0  0  0
  156.4424  140.3281  161.6009 H   0  0  0  0  0  0  0  0  0  0  0  0
  153.6019  141.9732  161.2316 H   0  0  0  0  0  0  0  0  0  0  0  0
  153.7509  142.4537  158.4789 H   0  0  0  0  0  0  0  0  0  0  0  0
  151.3560  142.6305  160.3785 H   0  0  0  0  0  0  0  0  0  0  0  0
  152.4831  143.9224  160.0291 H   0  0  0  0  0  0  0  0  0  0  0  0
  150.3673  144.1448  158.7007 H   0  0  0  0  0  0  0  0  0  0  0  0
  151.7721  143.9864  157.6722 H   0  0  0  0  0  0  0  0  0  0  0  0
  149.7952  141.7601  158.3813 H   0  0  0  0  0  0  0  0  0  0  0  0
  149.9910  142.5344  156.8164 H   0  0  0  0  0  0  0  0  0  0  0  0
  149.9672  139.9696  153.4674 H   0  0  0  0  0  0  0  0  0  0  0  0
  152.1363  136.1137  158.1459 H   0  0  0  0  0  0  0  0  0  0  0  0
  151.6016  135.4137  154.6763 H   0  0  0  0  0  0  0  0  0  0  0  0
  151.5121  134.6552  156.2399 H   0  0  0  0  0  0  0  0  0  0  0  0
  149.2560  135.9292  153.6448 H   0  0  0  0  0  0  0  0  0  0  0  0
  148.9660  135.6602  157.4108 H   0  0  0  0  0  0  0  0  0  0  0  0
  147.6584  135.0799  156.3932 H   0  0  0  0  0  0  0  0  0  0  0  0
  149.9292  133.3818  157.4988 H   0  0  0  0  0  0  0  0  0  0  0  0
  148.1923  133.1229  157.7054 H   0  0  0  0  0  0  0  0  0  0  0  0
  150.3882  133.2877  154.4098 H   0  0  0  0  0  0  0  0  0  0  0  0
  148.7384  134.1181  152.7121 H   0  0  0  0  0  0  0  0  0  0  0  0
  147.4238  133.8595  153.8626 H   0  0  0  0  0  0  0  0  0  0  0  0
  148.3436  132.4914  153.2470 H   0  0  0  0  0  0  0  0  0  0  0  0
  153.1541  140.0967  158.1626 H   0  0  0  0  0  0  0  0  0  0  0  0
  151.7551  140.2596  159.1975 H   0  0  0  0  0  0  0  0  0  0  0  0
  1  2  1  0  0  0  0
  1 29  1  0  0  0  0
  1 30  1  0  0  0  0
  1 31  1  0  0  0  0
  2  3  1  0  0  0  0
  2 32  1  0  0  0  0
  2 33  1  0  0  0  0
  3  4  2  0  0  0  0
  3  5  1  0  0  0  0
  5  6  1  0  0  0  0
  5 34  1  0  0  0  0
  6 28  1  0  0  0  0
  6  7  1  0  0  0  0
  6 35  1  0  0  0  0
  7  8  1  0  0  0  0
  7 36  1  0  0  0  0
  7 37  1  0  0  0  0
  8  9  1  0  0  0  0
  8 38  1  0  0  0  0
  8 39  1  0  0  0  0
  9 10  1  0  0  0  0
  9 40  1  0  0  0  0
  9 41  1  0  0  0  0
 10 11  1  0  0  0  0
 10 28  1  0  0  0  0
 11 16  1  0  0  0  0
 11 12  2  0  0  0  0
 12 13  1  0  0  0  0
 13 14  2  0  0  0  0
 13 42  1  0  0  0  0
 14 15  1  0  0  0  0
 15 19  1  0  0  0  0
 15 16  2  0  0  0  0
 16 17  1  0  0  0  0
 17 18  2  0  0  0  0
 18 19  1  0  0  0  0
 18 43  1  0  0  0  0
 19 20  1  0  0  0  0
 20 21  1  0  0  0  0
 20 44  1  0  0  0  0
 20 45  1  0  0  0  0
 21 26  1  0  0  0  0
 21 22  1  0  0  0  0
 21 23  1  0  0  0  0
 22 46  1  0  0  0  0
 23 24  1  0  0  0  0
 23 47  1  0  0  0  0
 23 48  1  0  0  0  0
 24 25  1  0  0  0  0
 24 49  1  0  0  0  0
 24 50  1  0  0  0  0
 25 26  1  0  0  0  0
 26 27  1  0  0  0  0
 26 51  1  0  0  0  0
 27 52  1  0  0  0  0
 27 53  1  0  0  0  0
 27 54  1  0  0  0  0
 28 55  1  0  0  0  0
 28 56  1  0  0  0  0
M  END
> <s_m_source_file>
AV-unprocessed.smi

> <i_m_source_file_index>
252

> <i_lp_mmshare_version>
43012

> <i_f3d_flags>
0

> <s_epik_input>
W0NIM11bQ0gyXUMoPU8pW05IXVtDQEBIXTFbQ0gyXVtDSDJdW0NIMl1OKFtDSDJdMSljKG5bY0hdbjIpYyhjMjMpbltjSF1uM1tDSDJdW0NAQF00KFtPSF0pW0NIMl1bQ0gyXU9bQ0BIXTRbQ0gzXQ==

> <s_epik_cmdline>
J2VwaWtfcHl0aG9uJywgJy1waCcsICc3LjAnLCAnLXRuJywgJzgnLCAnLW1hJywgJzIwMCcsICctbWV0YWxfYmluZGluZycsICctaW1hZScsICc8aW5maWxlLm1hZT4nLCAnLW9tYWUnLCAnPG91dGZpbGUubWFlPic=

> <r_lp_tautomer_probability>
1

> <r_epik_Ionization_Penalty>
0.00182575

> <r_epik_Ionization_Penalty_Charging>
0

> <r_epik_Ionization_Penalty_Neutral>
0.00182575

> <r_epik_State_Penalty>
0.00104524

> <r_epik_Charging_Adjusted_Penalty>
0.00104524

> <i_epik_Tot_Q>
0

> <i_epik_Tot_abs_Q>
0

> <r_epik_Metal_State_Penalty>
-0

> <b_epik_Metal_Only>
0

> <s_lp_Force_Field>
OPLS_2005

> <r_lp_Energy>
36.3421

> <b_lp_Chiralities_Consistent>
1

> <s_lp_Variant>
AV-unprocessed.smi:252-3

> <Gold.Version>
5.8.1

> <Gold.Id.Protein>
6NUR|6NUR_protein|mol2

> <Gold.PLP.Fitness>
46.9905

> <Gold.PLP.PLP>
-38.4934

> <Gold.PLP.part.hbond>
-3.0000

> <Gold.PLP.part.metal>
0.0000

> <Gold.PLP.part.buried>
-3.3416

> <Gold.PLP.part.nonpolar>
-31.9106

> <Gold.PLP.part.repulsive>
0.2996

> <Gold.PLP.ligand.clash>
0.3205

> <Gold.PLP.ligand.torsion>
0.3006

> <Gold.PLP.Chemscore.Hbond>
2.0000

> <Gold.PLP.Chemscore.CHOScore>
1.0000

> <Gold.PLP.Chemscore.Metal>
0.0000

> <Gold.Chemscore.Hbonds>
donor molecule, donor type, donor heavy atom, donor atom, acceptor molecule, acceptor atom, score
      L1  H    22    46       P1  7948  0.99
      P1  H  7997  8008       L1     4  1.00
      L1  C    13    42       P1  7957  1.00

> <Gold.PLP.Chemscore.Internal.Correction>
0.4189

> <Gold.Rescore>
     Score         DG    S(hbond)    S(metal)    S(lipo)     H(rot)  DE(clash)    DE(int)     intcor
     11.86     -15.13       1.98        0.00      85.25       2.70       0.02       3.26       ----

> <Gold.Chemscore.Fitness>
11.8551

> <Gold.Chemscore.DG>
-15.1313

> <Gold.Chemscore.ZeroCoef>
-5.4800

> <Gold.Chemscore.Hbond>
1.9759

> <Gold.Chemscore.Metal>
0.0000

> <Gold.Chemscore.Lipo>
85.2491

> <Gold.Chemscore.Internal_Hbond>
0.0000

> <Gold.Chemscore.DEClash>
0.0165

> <Gold.Chemscore.DEInternal>
3.2597

> <Gold.Chemscore.Rot>
2.7041

> <Gold.Chemscore.Internal.Correction>
   9.000000E+99

> <Gold.Chemscore.Hbonds>
donor molecule, donor type, donor heavy atom, donor atom, acceptor molecule, acceptor atom, score
      L1  H    22    46       P1  7948  0.70
      P1  H  7997  8008       L1     4  0.96

> <Gold.Chemscore.Hbond.Weighted>
-6.5997

> <Gold.Chemscore.Metal.Weighted>
-0.0000

> <Gold.Chemscore.Lipo.Weighted>
-9.9741

> <Gold.Chemscore.Internal_Hbond.Weighted>
0.0000

> <Gold.Chemscore.DEClash.Weighted>
0.0165

> <Gold.Chemscore.DEInternal.Weighted>
3.2597

> <Gold.Chemscore.Rot.Weighted>
6.9225

> <Gold.Chemscore.Internal.Correction.Weighted>
   9.000000E+99

> <Gold.Protein.RotatedTorsions>
[ 6907 6896 6895 6894 ] final   38.23 input  -60.11 | X-H torsion
[ 7974 7965 7964 7962 ] final  -13.18 input  175.53 | X-H torsion
[ 8008 7997 7996 7995 ] final -126.28 input   59.86 | X-H torsion
[ 10167 10162 10161 10158 ] final   58.61 input  -65.29 | X-H torsion
[ 10718 10713 10712 10709 ] final  -21.45 input   66.30 | X-H torsion
[ 10763 10752 10751 10750 ] final   15.15 input  -60.55 | X-H torsion
[ 11005 11000 10999 10996 ] final  150.97 input  -57.11 | X-H torsion

> <Gold.Protein.ActiveResidues>
 VAL166  LYS551  ARG553  GLY616  TRP617  ASP618  TYR619  PRO620  LYS621  CYS622 
 ASP623  PHE694  ASN695  SER759  ASP760  ASP761  ALA762  ILE779  LEU786  VAL792 
 PHE793  MET794  SER795  GLU796  ALA797  LYS798  CYS799  TRP800  GLU811  SER814 

> <Gold.Protein.RotatedAtoms>
  152.1537  134.8968  160.0546 H   0  0  0  0  0  0  0  0  0  0  0  0  # atno 6907 bound_to 6896
  151.9989  133.3813  159.4182 H   0  0  0  0  0  0  0  0  0  0  0  0  # atno 6908 bound_to 6896
  150.6879  134.3777  159.5064 H   0  0  0  0  0  0  0  0  0  0  0  0  # atno 6909 bound_to 6896
  146.2124  140.3165  142.8387 H   0  0  0  0  0  0  0  0  0  0  0  0  # atno 7974 bound_to 7965
  155.2271  140.0424  157.2957 H   0  0  0  0  0  0  0  0  0  0  0  0  # atno 8008 bound_to 7997
  154.5912  140.2427  155.7888 H   0  0  0  0  0  0  0  0  0  0  0  0  # atno 8009 bound_to 7997
  156.2260  140.2954  156.0077 H   0  0  0  0  0  0  0  0  0  0  0  0  # atno 8010 bound_to 7997
  140.1853  144.4140  150.6596 H   0  0  0  0  0  0  0  0  0  0  0  0  # atno 10167 bound_to 10162
  156.5180  130.4625  149.6612 H   0  0  0  0  0  0  0  0  0  0  0  0  # atno 10718 bound_to 10713
  153.1553  135.6786  153.8821 H   0  0  0  0  0  0  0  0  0  0  0  0  # atno 10763 bound_to 10752
  153.8234  135.3127  155.3413 H   0  0  0  0  0  0  0  0  0  0  0  0  # atno 10764 bound_to 10752
  154.7893  135.4844  154.0103 H   0  0  0  0  0  0  0  0  0  0  0  0  # atno 10765 bound_to 10752
  140.1178  134.8883  157.2029 H   0  0  0  0  0  0  0  0  0  0  0  0  # atno 11005 bound_to 11000
  144.8950  140.7572  143.5902 LP  0  0  0  0  0  0  0  0  0  0  0  0  # atno 17320 bound_to 7965
  145.3089  139.1825  143.4649 LP  0  0  0  0  0  0  0  0  0  0  0  0  # atno 17321 bound_to 7965
  140.6492  143.2221  151.6116 LP  0  0  0  0  0  0  0  0  0  0  0  0  # atno 17342 bound_to 10162
  139.5279  144.3005  152.1078 LP  0  0  0  0  0  0  0  0  0  0  0  0  # atno 17343 bound_to 10162
  156.3177  130.7263  151.2169 LP  0  0  0  0  0  0  0  0  0  0  0  0  # atno 17370 bound_to 10713
  157.7441  131.0464  150.4892 LP  0  0  0  0  0  0  0  0  0  0  0  0  # atno 17371 bound_to 10713
  140.3005  134.3137  155.7291 LP  0  0  0  0  0  0  0  0  0  0  0  0  # atno 17394 bound_to 11000
  141.2145  133.7589  156.9634 LP  0  0  0  0  0  0  0  0  0  0  0  0  # atno 17395 bound_to 11000

$$$$
