AV-unprocessed.smi:1033|AV-procd|sdf|4505|dock8
  -GOLD-   22720 2503D 1   1.00000     0.00000
 Structure written by MMmdl.
 57 59  0  0  0  0  0  0  0  0  3 V2000
  152.9424  143.4765  162.2858 C   0  0  0  0  0  0  0  0  0  0  0  0
  152.5011  142.9109  160.9466 C   0  0  0  0  0  0  0  0  0  0  0  0
  152.7236  141.5393  160.6876 C   0  0  0  0  0  0  0  0  0  0  0  0
  152.3070  141.0508  159.4550 C   0  0  0  0  0  0  0  0  0  0  0  0
  152.3801  139.7689  158.9056 N   0  3  0  0  0  0  0  0  0  0  0  0
  151.8342  139.7770  157.6578 C   0  0  0  0  0  0  0  0  0  0  0  0
  151.4185  141.0471  157.4010 N   0  0  0  0  0  0  0  0  0  0  0  0
  150.7638  141.6049  156.2105 C   0  0  0  0  0  0  0  0  0  0  0  0
  149.2455  141.3293  156.1784 C   0  0  1  0  0  0  0  0  0  0  0  0
  148.5969  142.1181  155.2007 O   0  0  0  0  0  0  0  0  0  0  0  0
  148.8701  139.8411  156.0071 C   0  0  0  0  0  0  0  0  0  0  0  0
  149.4746  139.1303  154.8712 N   0  0  0  0  0  0  0  0  0  0  0  0
  149.3004  137.6807  154.9596 C   0  0  0  0  0  0  0  0  0  0  0  0
  147.8482  137.2245  154.7058 C   0  0  0  0  0  0  0  0  0  0  0  0
  147.3746  137.7039  153.3813 N   0  3  0  0  0  0  0  0  0  0  0  0
  145.9996  137.2371  153.0708 C   0  0  0  0  0  0  0  0  0  0  0  0
  145.8859  136.5831  151.6789 C   0  0  1  0  0  0  0  0  0  0  0  0
  144.4509  136.1682  151.3216 C   0  0  0  0  0  0  0  0  0  0  0  0
  146.3276  137.5142  150.7139 O   0  0  0  0  0  0  0  0  0  0  0  0
  147.5458  139.1768  153.2631 C   0  0  0  0  0  0  0  0  0  0  0  0
  149.0082  139.5678  153.5532 C   0  0  0  0  0  0  0  0  0  0  0  0
  151.6888  141.8754  158.4952 C   0  0  0  0  0  0  0  0  0  0  0  0
  151.4609  143.2283  158.7339 C   0  0  0  0  0  0  0  0  0  0  0  0
  151.8774  143.7443  159.9819 C   0  0  0  0  0  0  0  0  0  0  0  0
  151.6418  145.2169  160.2718 C   0  0  0  0  0  0  0  0  0  0  0  0
  153.4269  142.7166  162.8997 H   0  0  0  0  0  0  0  0  0  0  0  0
  152.0848  143.8565  162.8412 H   0  0  0  0  0  0  0  0  0  0  0  0
  153.6528  144.2913  162.1441 H   0  0  0  0  0  0  0  0  0  0  0  0
  153.1967  140.8984  161.4174 H   0  0  0  0  0  0  0  0  0  0  0  0
  151.7487  138.9298  156.9925 H   0  0  0  0  0  0  0  0  0  0  0  0
  150.9619  142.6771  156.2087 H   0  0  0  0  0  0  0  0  0  0  0  0
  151.2534  141.1988  155.3245 H   0  0  0  0  0  0  0  0  0  0  0  0
  148.8209  141.6514  157.1295 H   0  0  0  0  0  0  0  0  0  0  0  0
  148.4783  142.9885  155.5490 H   0  0  0  0  0  0  0  0  0  0  0  0
  149.1958  139.3376  156.9184 H   0  0  0  0  0  0  0  0  0  0  0  0
  147.7853  139.7391  155.9998 H   0  0  0  0  0  0  0  0  0  0  0  0
  149.9539  137.2000  154.2301 H   0  0  0  0  0  0  0  0  0  0  0  0
  149.6355  137.3249  155.9346 H   0  0  0  0  0  0  0  0  0  0  0  0
  147.8062  136.1352  154.7344 H   0  0  0  0  0  0  0  0  0  0  0  0
  147.1822  137.5834  155.4915 H   0  0  0  0  0  0  0  0  0  0  0  0
  145.6875  136.5084  153.8211 H   0  0  0  0  0  0  0  0  0  0  0  0
  145.3094  138.0783  153.1575 H   0  0  0  0  0  0  0  0  0  0  0  0
  146.5434  135.7176  151.6055 H   0  0  0  0  0  0  0  0  0  0  0  0
  144.0727  135.4156  152.0138 H   0  0  0  0  0  0  0  0  0  0  0  0
  144.4049  135.7406  150.3194 H   0  0  0  0  0  0  0  0  0  0  0  0
  143.7698  137.0196  151.3514 H   0  0  0  0  0  0  0  0  0  0  0  0
  145.5749  137.9504  150.3440 H   0  0  0  0  0  0  0  0  0  0  0  0
  147.2905  139.5058  152.2567 H   0  0  0  0  0  0  0  0  0  0  0  0
  146.8638  139.6908  153.9415 H   0  0  0  0  0  0  0  0  0  0  0  0
  149.1390  140.6425  153.4374 H   0  0  0  0  0  0  0  0  0  0  0  0
  149.6457  139.1205  152.7890 H   0  0  0  0  0  0  0  0  0  0  0  0
  150.9862  143.8621  157.9994 H   0  0  0  0  0  0  0  0  0  0  0  0
  151.1466  145.7139  159.4370 H   0  0  0  0  0  0  0  0  0  0  0  0
  152.5876  145.7289  160.4505 H   0  0  0  0  0  0  0  0  0  0  0  0
  151.0104  145.3373  161.1523 H   0  0  0  0  0  0  0  0  0  0  0  0
  147.9855  137.2816  152.6968 H   0  0  0  0  0  0  0  0  0  0  0  0
  152.7706  138.9467  159.3482 H   0  0  0  0  0  0  0  0  0  0  0  0
  1  2  1  0  0  0  0
  1 26  1  0  0  0  0
  1 27  1  0  0  0  0
  1 28  1  0  0  0  0
  2 24  1  0  0  0  0
  2  3  2  0  0  0  0
  3  4  1  0  0  0  0
  3 29  1  0  0  0  0
  4 22  2  0  0  0  0
  4  5  1  0  0  0  0
  5  6  2  0  0  0  0
  5 57  1  0  0  0  0
  6  7  1  0  0  0  0
  6 30  1  0  0  0  0
  7  8  1  0  0  0  0
  7 22  1  0  0  0  0
  8  9  1  0  0  0  0
  8 31  1  0  0  0  0
  8 32  1  0  0  0  0
  9 10  1  0  0  0  0
  9 11  1  0  0  0  0
  9 33  1  0  0  0  0
 10 34  1  0  0  0  0
 11 12  1  0  0  0  0
 11 35  1  0  0  0  0
 11 36  1  0  0  0  0
 12 21  1  0  0  0  0
 12 13  1  0  0  0  0
 13 14  1  0  0  0  0
 13 37  1  0  0  0  0
 13 38  1  0  0  0  0
 14 15  1  0  0  0  0
 14 39  1  0  0  0  0
 14 40  1  0  0  0  0
 15 16  1  0  0  0  0
 15 20  1  0  0  0  0
 15 56  1  0  0  0  0
 16 17  1  0  0  0  0
 16 41  1  0  0  0  0
 16 42  1  0  0  0  0
 17 18  1  0  0  0  0
 17 19  1  0  0  0  0
 17 43  1  0  0  0  0
 18 44  1  0  0  0  0
 18 45  1  0  0  0  0
 18 46  1  0  0  0  0
 19 47  1  0  0  0  0
 20 21  1  0  0  0  0
 20 48  1  0  0  0  0
 20 49  1  0  0  0  0
 21 50  1  0  0  0  0
 21 51  1  0  0  0  0
 22 23  1  0  0  0  0
 23 24  2  0  0  0  0
 23 52  1  0  0  0  0
 24 25  1  0  0  0  0
 25 53  1  0  0  0  0
 25 54  1  0  0  0  0
 25 55  1  0  0  0  0
M  CHG  1   5   1
M  CHG  1  15   1
M  END
> <s_m_source_file>
AV-unprocessed.smi

> <i_m_source_file_index>
1033

> <i_lp_mmshare_version>
43012

> <i_f3d_flags>
0

> <s_epik_input>
W0NIM11jKFtjSF0xKWMoW0NIM10pW2NIXWMoYzEyKW4oW2NIXW4yKVtDSDJdW0NASF0oW09IXSlbQ0gyXU4zW0NIMl1bQ0gyXU4oW0NIMl1bQ0gyXTMpW0NIMl1bQ0BIXShbQ0gzXSlbT0hd

> <s_epik_cmdline>
J2VwaWtfcHl0aG9uJywgJy1waCcsICc3LjAnLCAnLXRuJywgJzgnLCAnLW1hJywgJzIwMCcsICctbWV0YWxfYmluZGluZycsICctaW1hZScsICc8aW5maWxlLm1hZT4nLCAnLW9tYWUnLCAnPG91dGZpbGUubWFlPic=

> <r_epik_Ionization_Penalty>
1.28617

> <r_epik_Ionization_Penalty_Charging>
1.23646

> <r_epik_Ionization_Penalty_Neutral>
0.0497112

> <r_epik_State_Penalty>
1.79157

> <r_epik_Charging_Adjusted_Penalty>
3.02803

> <i_epik_Tot_Q>
2

> <i_epik_Tot_abs_Q>
2

> <r_epik_Metal_State_Penalty>
5.81739

> <b_epik_Metal_Only>
0

> <s_lp_Force_Field>
OPLS_2005

> <r_lp_Energy>
43.5011

> <b_lp_Chiralities_Consistent>
1

> <s_lp_Variant>
AV-unprocessed.smi:1033-16

> <Gold.Version>
5.8.1

> <Gold.Id.Protein>
6NUR|6NUR_protein|mol2

> <Gold.PLP.Fitness>
57.9441

> <Gold.PLP.PLP>
-45.0649

> <Gold.PLP.part.hbond>
-5.0000

> <Gold.PLP.part.metal>
0.0000

> <Gold.PLP.part.buried>
-0.2474

> <Gold.PLP.part.nonpolar>
-39.4305

> <Gold.PLP.part.repulsive>
0.2393

> <Gold.PLP.ligand.clash>
0.0000

> <Gold.PLP.ligand.torsion>
1.1394

> <Gold.PLP.Chemscore.Hbond>
4.9913

> <Gold.PLP.Chemscore.CHOScore>
0.0000

> <Gold.PLP.Chemscore.Metal>
0.0000

> <Gold.Chemscore.Hbonds>
donor molecule, donor type, donor heavy atom, donor atom, acceptor molecule, acceptor atom, score
      L1  H    10    34       P1  8028  1.00
      L1  H    15    56       P1  7948  2.00
      L1  H    19    47       P1 10171  1.00
      P1  H  7954  7966       L1    19  0.99

> <Gold.PLP.Chemscore.Internal.Correction>
0.1842

> <Gold.Rescore>
     Score         DG    S(hbond)    S(metal)    S(lipo)     H(rot)  DE(clash)    DE(int)     intcor
     22.31     -25.25       3.65        0.00     133.69       3.15       1.81       1.14       ----

> <Gold.Chemscore.Fitness>
22.3078

> <Gold.Chemscore.DG>
-25.2548

> <Gold.Chemscore.ZeroCoef>
-5.4800

> <Gold.Chemscore.Hbond>
3.6505

> <Gold.Chemscore.Metal>
0.0000

> <Gold.Chemscore.Lipo>
133.6917

> <Gold.Chemscore.Internal_Hbond>
0.0000

> <Gold.Chemscore.DEClash>
1.8065

> <Gold.Chemscore.DEInternal>
1.1405

> <Gold.Chemscore.Rot>
3.1483

> <Gold.Chemscore.Internal.Correction>
   9.000000E+99

> <Gold.Chemscore.Hbonds>
donor molecule, donor type, donor heavy atom, donor atom, acceptor molecule, acceptor atom, score
      L1  H    10    34       P1  8028  0.96
      L1  H    15    56       P1  7948  1.00
      L1  H    19    47       P1 10171  1.00
      P1  H  7954  7966       L1    19  0.84

> <Gold.Chemscore.Hbond.Weighted>
-12.1926

> <Gold.Chemscore.Metal.Weighted>
-0.0000

> <Gold.Chemscore.Lipo.Weighted>
-15.6419

> <Gold.Chemscore.Internal_Hbond.Weighted>
0.0000

> <Gold.Chemscore.DEClash.Weighted>
1.8065

> <Gold.Chemscore.DEInternal.Weighted>
1.1405

> <Gold.Chemscore.Rot.Weighted>
8.0597

> <Gold.Chemscore.Internal.Correction.Weighted>
   9.000000E+99

> <Gold.Protein.RotatedTorsions>
[ 6907 6896 6895 6894 ] final   49.97 input  -60.11 | X-H torsion
[ 7974 7965 7964 7962 ] final  -38.39 input  175.53 | X-H torsion
[ 8008 7997 7996 7995 ] final  -77.59 input   59.86 | X-H torsion
[ 10167 10162 10161 10158 ] final   35.56 input  -65.29 | X-H torsion
[ 10718 10713 10712 10709 ] final -170.20 input   66.30 | X-H torsion
[ 10763 10752 10751 10750 ] final -128.56 input  -60.55 | X-H torsion
[ 11005 11000 10999 10996 ] final -166.83 input  -57.11 | X-H torsion

> <Gold.Protein.ActiveResidues>
 VAL166  LYS551  ARG553  GLY616  TRP617  ASP618  TYR619  PRO620  LYS621  CYS622 
 ASP623  PHE694  ASN695  SER759  ASP760  ASP761  ALA762  ILE779  LEU786  VAL792 
 PHE793  MET794  SER795  GLU796  ALA797  LYS798  CYS799  TRP800  GLU811  SER814 

> <Gold.Protein.RotatedAtoms>
  152.2967  134.7659  160.0366 H   0  0  0  0  0  0  0  0  0  0  0  0  # atno 6907 bound_to 6896
  151.8186  133.3386  159.3585 H   0  0  0  0  0  0  0  0  0  0  0  0  # atno 6908 bound_to 6896
  150.7255  134.5525  159.5846 H   0  0  0  0  0  0  0  0  0  0  0  0  # atno 6909 bound_to 6896
  146.0491  140.6506  142.9051 H   0  0  0  0  0  0  0  0  0  0  0  0  # atno 7974 bound_to 7965
  154.5610  140.0708  156.8819 H   0  0  0  0  0  0  0  0  0  0  0  0  # atno 8008 bound_to 7997
  155.2811  140.3372  155.4240 H   0  0  0  0  0  0  0  0  0  0  0  0  # atno 8009 bound_to 7997
  156.2042  140.1733  156.7821 H   0  0  0  0  0  0  0  0  0  0  0  0  # atno 8010 bound_to 7997
  140.4211  144.1459  150.6148 H   0  0  0  0  0  0  0  0  0  0  0  0  # atno 10167 bound_to 10162
  156.7227  130.9276  151.3098 H   0  0  0  0  0  0  0  0  0  0  0  0  # atno 10718 bound_to 10713
  154.8756  135.3924  154.3777 H   0  0  0  0  0  0  0  0  0  0  0  0  # atno 10763 bound_to 10752
  153.4528  135.7028  153.6103 H   0  0  0  0  0  0  0  0  0  0  0  0  # atno 10764 bound_to 10752
  153.4635  135.3806  155.2320 H   0  0  0  0  0  0  0  0  0  0  0  0  # atno 10765 bound_to 10752
  140.5601  134.5342  157.5141 H   0  0  0  0  0  0  0  0  0  0  0  0  # atno 11005 bound_to 11000
  144.7113  140.4048  143.7078 LP  0  0  0  0  0  0  0  0  0  0  0  0  # atno 17320 bound_to 7965
  145.6756  139.1608  143.2730 LP  0  0  0  0  0  0  0  0  0  0  0  0  # atno 17321 bound_to 7965
  140.4533  143.2478  151.9319 LP  0  0  0  0  0  0  0  0  0  0  0  0  # atno 17342 bound_to 10162
  139.4782  144.5541  151.8341 LP  0  0  0  0  0  0  0  0  0  0  0  0  # atno 17343 bound_to 10162
  157.6891  130.9215  150.0466 LP  0  0  0  0  0  0  0  0  0  0  0  0  # atno 17370 bound_to 10713
  156.1583  130.3643  149.9336 LP  0  0  0  0  0  0  0  0  0  0  0  0  # atno 17371 bound_to 10713
  139.9412  134.7784  156.0674 LP  0  0  0  0  0  0  0  0  0  0  0  0  # atno 17394 bound_to 11000
  141.1120  133.6640  156.3001 LP  0  0  0  0  0  0  0  0  0  0  0  0  # atno 17395 bound_to 11000

$$$$
