AV-unprocessed.smi:283|AV-procd|sdf|2152|dock9
  -GOLD-   2262021493D 1   1.00000     0.00000
 Structure written by MMmdl.
 48 51  0  0  0  0  0  0  0  0  1 V2000
  150.9805  140.5299  157.8992 C   0  0  0  0  0  0  0  0  0  0  0  0
  151.2649  141.9267  157.3129 C   0  0  1  0  0  0  0  0  0  0  0  0
  150.2329  142.3477  156.3673 N   0  0  0  0  0  0  0  0  0  0  0  0
  149.1344  141.5966  156.1323 C   0  0  0  0  0  0  0  0  0  0  0  0
  147.9406  141.8901  156.7105 N   0  0  0  0  0  0  0  0  0  0  0  0
  146.8728  141.1274  156.4602 C   0  0  0  0  0  0  0  0  0  0  0  0
  146.7832  140.0476  155.6811 N   0  0  0  0  0  0  0  0  0  0  0  0
  147.9804  139.7432  155.1017 C   0  0  0  0  0  0  0  0  0  0  0  0
  149.1943  140.4645  155.2796 C   0  0  0  0  0  0  0  0  0  0  0  0
  150.2087  139.8693  154.5427 N   0  0  0  0  0  0  0  0  0  0  0  0
  149.6240  138.8552  153.9645 C   0  0  0  0  0  0  0  0  0  0  0  0
  148.2818  138.7079  154.2380 N   0  0  0  0  0  0  0  0  0  0  0  0
  147.3689  137.6402  153.7212 C   0  0  1  0  0  0  0  0  0  0  0  0
  146.7060  137.0679  154.8124 O   0  0  0  0  0  0  0  0  0  0  0  0
  145.2994  137.2192  154.6530 C   0  0  2  0  0  0  0  0  0  0  0  0
  144.4823  136.1786  155.4477 C   0  0  0  0  0  0  0  0  0  0  0  0
  144.7961  136.1427  156.8243 O   0  0  0  0  0  0  0  0  0  0  0  0
  145.0672  137.4093  153.1475 C   0  0  2  0  0  0  0  0  0  0  0  0
  145.0124  136.1718  152.4568 O   0  0  0  0  0  0  0  0  0  0  0  0
  146.3059  138.2178  152.7683 C   0  0  2  0  0  0  0  0  0  0  0  0
  146.6314  138.0646  151.3998 O   0  0  0  0  0  0  0  0  0  0  0  0
  151.5040  142.9512  158.4212 C   0  0  0  0  0  0  0  0  0  0  0  0
  150.7752  144.1610  158.3741 C   0  0  0  0  0  0  0  0  0  0  0  0
  150.9458  145.1456  159.3652 C   0  0  0  0  0  0  0  0  0  0  0  0
  151.8542  144.9327  160.4168 C   0  0  0  0  0  0  0  0  0  0  0  0
  152.5910  143.7358  160.4728 C   0  0  0  0  0  0  0  0  0  0  0  0
  152.4245  142.7439  159.4849 C   0  0  0  0  0  0  0  0  0  0  0  0
  153.3735  141.3034  159.6216 Cl  0  0  0  0  0  0  0  0  0  0  0  0
  148.0191  136.8973  153.2568 H   0  0  0  0  0  0  0  0  0  0  0  0
  145.0614  138.1776  155.1138 H   0  0  0  0  0  0  0  0  0  0  0  0
  144.1460  137.9573  152.9468 H   0  0  0  0  0  0  0  0  0  0  0  0
  146.1399  139.2721  152.9920 H   0  0  0  0  0  0  0  0  0  0  0  0
  151.7868  140.2176  158.5632 H   0  0  0  0  0  0  0  0  0  0  0  0
  150.8956  139.7737  157.1192 H   0  0  0  0  0  0  0  0  0  0  0  0
  150.0548  140.5088  158.4732 H   0  0  0  0  0  0  0  0  0  0  0  0
  152.1990  141.8602  156.7538 H   0  0  0  0  0  0  0  0  0  0  0  0
  150.3308  143.2890  156.0141 H   0  0  0  0  0  0  0  0  0  0  0  0
  145.9600  141.4246  156.9548 H   0  0  0  0  0  0  0  0  0  0  0  0
  150.1617  138.1813  153.3132 H   0  0  0  0  0  0  0  0  0  0  0  0
  143.4164  136.3793  155.3360 H   0  0  0  0  0  0  0  0  0  0  0  0
  144.6601  135.1842  155.0372 H   0  0  0  0  0  0  0  0  0  0  0  0
  144.0365  136.4212  157.3128 H   0  0  0  0  0  0  0  0  0  0  0  0
  145.4794  135.5253  152.9649 H   0  0  0  0  0  0  0  0  0  0  0  0
  147.4191  137.5453  151.3405 H   0  0  0  0  0  0  0  0  0  0  0  0
  150.0734  144.3407  157.5727 H   0  0  0  0  0  0  0  0  0  0  0  0
  150.3788  146.0638  159.3181 H   0  0  0  0  0  0  0  0  0  0  0  0
  151.9868  145.6862  161.1791 H   0  0  0  0  0  0  0  0  0  0  0  0
  153.2904  143.5782  161.2808 H   0  0  0  0  0  0  0  0  0  0  0  0
  1  2  1  0  0  0  0
  1 33  1  0  0  0  0
  1 34  1  0  0  0  0
  1 35  1  0  0  0  0
  2  3  1  0  0  0  0
  2 22  1  0  0  0  0
  2 36  1  0  0  0  0
  3  4  1  0  0  0  0
  3 37  1  0  0  0  0
  4  9  1  0  0  0  0
  4  5  2  0  0  0  0
  5  6  1  0  0  0  0
  6  7  2  0  0  0  0
  6 38  1  0  0  0  0
  7  8  1  0  0  0  0
  8 12  1  0  0  0  0
  8  9  2  0  0  0  0
  9 10  1  0  0  0  0
 10 11  2  0  0  0  0
 11 12  1  0  0  0  0
 11 39  1  0  0  0  0
 12 13  1  0  0  0  0
 13 29  1  0  0  0  0
 13 20  1  0  0  0  0
 13 14  1  0  0  0  0
 14 15  1  0  0  0  0
 15 30  1  0  0  0  0
 15 16  1  0  0  0  0
 15 18  1  0  0  0  0
 16 17  1  0  0  0  0
 16 40  1  0  0  0  0
 16 41  1  0  0  0  0
 17 42  1  0  0  0  0
 18 31  1  0  0  0  0
 18 19  1  0  0  0  0
 18 20  1  0  0  0  0
 19 43  1  0  0  0  0
 20 32  1  0  0  0  0
 20 21  1  0  0  0  0
 21 44  1  0  0  0  0
 22 27  1  0  0  0  0
 22 23  2  0  0  0  0
 23 24  1  0  0  0  0
 23 45  1  0  0  0  0
 24 25  2  0  0  0  0
 24 46  1  0  0  0  0
 25 26  1  0  0  0  0
 25 47  1  0  0  0  0
 26 27  2  0  0  0  0
 26 48  1  0  0  0  0
 27 28  1  0  0  0  0
M  END
> <s_m_source_file>
AV-unprocessed.smi

> <i_m_source_file_index>
283

> <i_lp_mmshare_version>
43012

> <i_f3d_flags>
0

> <s_epik_input>
Q2xjMVtjSF1bY0hdW2NIXVtjSF1jMVtDQEhdKFtDSDNdKVtOSF1jKG5bY0hdbjIpYyhjMjMpbltjSF1uM1tDQEBIXTRPW0NASF0oW0NIMl1bT0hdKVtDQEBIXShbT0hdKVtDQEhdNFtPSF0=

> <s_epik_cmdline>
J2VwaWtfcHl0aG9uJywgJy1waCcsICc3LjAnLCAnLXRuJywgJzgnLCAnLW1hJywgJzIwMCcsICctbWV0YWxfYmluZGluZycsICctaW1hZScsICc8aW5maWxlLm1hZT4nLCAnLW9tYWUnLCAnPG91dGZpbGUubWFlPic=

> <r_lp_tautomer_probability>
1

> <r_epik_Ionization_Penalty>
0.000266407

> <r_epik_Ionization_Penalty_Charging>
0

> <r_epik_Ionization_Penalty_Neutral>
0.000266407

> <r_epik_State_Penalty>
-0

> <r_epik_Charging_Adjusted_Penalty>
0

> <i_epik_Tot_Q>
0

> <i_epik_Tot_abs_Q>
0

> <r_epik_Metal_State_Penalty>
-0

> <b_epik_Metal_Only>
0

> <s_epik_Chemistry_Notes>
This compound contains an acetal/aminal-like group ( X-CH(R)-Y where X, Y are N, S, or O) that may be acid/base labile, releasing an aldehyde.

> <s_lp_Force_Field>
OPLS_2005

> <r_lp_Energy>
54.2889

> <b_lp_Chiralities_Consistent>
1

> <s_lp_Variant>
AV-unprocessed.smi:283-28

> <Gold.Version>
5.8.1

> <Gold.Id.Protein>
6NUR|6NUR_protein|mol2

> <Gold.PLP.Fitness>
47.5424

> <Gold.PLP.PLP>
-40.2557

> <Gold.PLP.part.hbond>
-4.0504

> <Gold.PLP.part.metal>
0.0000

> <Gold.PLP.part.buried>
-4.0719

> <Gold.PLP.part.nonpolar>
-34.7272

> <Gold.PLP.part.repulsive>
1.1945

> <Gold.PLP.ligand.clash>
0.0000

> <Gold.PLP.ligand.torsion>
0.9660

> <Gold.PLP.Chemscore.Hbond>
2.4243

> <Gold.PLP.Chemscore.CHOScore>
0.6107

> <Gold.PLP.Chemscore.Metal>
0.0000

> <Gold.Chemscore.Hbonds>
donor molecule, donor type, donor heavy atom, donor atom, acceptor molecule, acceptor atom, score
      L1  H     3    37       P1  8028  0.56
      L1  H    21    44       P1  7948  0.96
      P1  H  7989  7998       L1    10  1.00
      L1  C    11    39       P1  7948  0.59
      L1  C    11    39       P1  7957  0.02

> <Gold.PLP.Chemscore.Internal.Correction>
0.1136

> <Gold.Rescore>
     Score         DG    S(hbond)    S(metal)    S(lipo)     H(rot)  DE(clash)    DE(int)     intcor
     13.26     -15.62       2.48        0.00     105.62       4.10       1.51       0.85       ----

> <Gold.Chemscore.Fitness>
13.2569

> <Gold.Chemscore.DG>
-15.6207

> <Gold.Chemscore.ZeroCoef>
-5.4800

> <Gold.Chemscore.Hbond>
2.4764

> <Gold.Chemscore.Metal>
0.0000

> <Gold.Chemscore.Lipo>
105.6186

> <Gold.Chemscore.Internal_Hbond>
0.0000

> <Gold.Chemscore.DEClash>
1.5113

> <Gold.Chemscore.DEInternal>
0.8525

> <Gold.Chemscore.Rot>
4.0968

> <Gold.Chemscore.Internal.Correction>
   9.000000E+99

> <Gold.Chemscore.Hbonds>
donor molecule, donor type, donor heavy atom, donor atom, acceptor molecule, acceptor atom, score
      L1  H     3    37       P1  8028  0.53
      L1  H    21    44       P1  7948  0.91
      P1  H  7989  7998       L1    10  0.89

> <Gold.Chemscore.Hbond.Weighted>
-8.2713

> <Gold.Chemscore.Metal.Weighted>
-0.0000

> <Gold.Chemscore.Lipo.Weighted>
-12.3574

> <Gold.Chemscore.Internal_Hbond.Weighted>
0.0000

> <Gold.Chemscore.DEClash.Weighted>
1.5113

> <Gold.Chemscore.DEInternal.Weighted>
0.8525

> <Gold.Chemscore.Rot.Weighted>
10.4879

> <Gold.Chemscore.Internal.Correction.Weighted>
   9.000000E+99

> <Gold.Protein.RotatedTorsions>
[ 6907 6896 6895 6894 ] final   30.99 input  -60.11 | X-H torsion
[ 7974 7965 7964 7962 ] final   71.22 input  175.53 | X-H torsion
[ 8008 7997 7996 7995 ] final  -66.45 input   59.86 | X-H torsion
[ 10167 10162 10161 10158 ] final  -26.24 input  -65.29 | X-H torsion
[ 10718 10713 10712 10709 ] final   26.38 input   66.30 | X-H torsion
[ 10763 10752 10751 10750 ] final -147.04 input  -60.55 | X-H torsion
[ 11005 11000 10999 10996 ] final  -74.74 input  -57.11 | X-H torsion

> <Gold.Protein.ActiveResidues>
 VAL166  LYS551  ARG553  GLY616  TRP617  ASP618  TYR619  PRO620  LYS621  CYS622 
 ASP623  PHE694  ASN695  SER759  ASP760  ASP761  ALA762  ILE779  LEU786  VAL792 
 PHE793  MET794  SER795  GLU796  ALA797  LYS798  CYS799  TRP800  GLU811  SER814 

> <Gold.Protein.RotatedAtoms>
  152.0538  134.9637  160.0574 H   0  0  0  0  0  0  0  0  0  0  0  0  # atno 6907 bound_to 6896
  152.1027  133.4253  159.4603 H   0  0  0  0  0  0  0  0  0  0  0  0  # atno 6908 bound_to 6896
  150.6840  134.2660  159.4612 H   0  0  0  0  0  0  0  0  0  0  0  0  # atno 6909 bound_to 6896
  145.7685  139.2832  143.1334 H   0  0  0  0  0  0  0  0  0  0  0  0  # atno 7974 bound_to 7965
  154.4735  140.0912  156.7204 H   0  0  0  0  0  0  0  0  0  0  0  0  # atno 8008 bound_to 7997
  155.4659  140.3462  155.4300 H   0  0  0  0  0  0  0  0  0  0  0  0  # atno 8009 bound_to 7997
  156.1078  140.1439  156.9368 H   0  0  0  0  0  0  0  0  0  0  0  0  # atno 8010 bound_to 7997
  140.7283  143.4195  151.0974 H   0  0  0  0  0  0  0  0  0  0  0  0  # atno 10167 bound_to 10162
  157.2060  130.6912  149.6208 H   0  0  0  0  0  0  0  0  0  0  0  0  # atno 10718 bound_to 10713
  154.8306  135.3370  154.6756 H   0  0  0  0  0  0  0  0  0  0  0  0  # atno 10763 bound_to 10752
  153.7376  135.6948  153.4979 H   0  0  0  0  0  0  0  0  0  0  0  0  # atno 10764 bound_to 10752
  153.2267  135.4430  155.0501 H   0  0  0  0  0  0  0  0  0  0  0  0  # atno 10765 bound_to 10752
  141.1638  133.6922  156.7410 H   0  0  0  0  0  0  0  0  0  0  0  0  # atno 11005 bound_to 11000
  146.0193  140.8363  142.9931 LP  0  0  0  0  0  0  0  0  0  0  0  0  # atno 17320 bound_to 7965
  144.6817  140.2605  143.7319 LP  0  0  0  0  0  0  0  0  0  0  0  0  # atno 17321 bound_to 7965
  139.7839  143.8315  152.3142 LP  0  0  0  0  0  0  0  0  0  0  0  0  # atno 17342 bound_to 10162
  139.8276  144.7268  150.9492 LP  0  0  0  0  0  0  0  0  0  0  0  0  # atno 17343 bound_to 10162
  155.9695  130.4567  150.5934 LP  0  0  0  0  0  0  0  0  0  0  0  0  # atno 17370 bound_to 10713
  157.3719  131.0767  151.1550 LP  0  0  0  0  0  0  0  0  0  0  0  0  # atno 17371 bound_to 10713
  140.2674  134.8419  157.3816 LP  0  0  0  0  0  0  0  0  0  0  0  0  # atno 17394 bound_to 11000
  140.1553  134.4797  155.7932 LP  0  0  0  0  0  0  0  0  0  0  0  0  # atno 17395 bound_to 11000

$$$$
