AV-unprocessed.smi:653|AV-procd|sdf|3205|dock5
  -GOLD-   22720 0143D 1   1.00000     0.00000
 Structure written by MMmdl.
 44 45  0  0  0  0  0  0  0  0  1 V2000
  152.5979  143.2219  163.2566 C   0  0  0  0  0  0  0  0  0  0  0  0
  152.3413  143.3237  161.7675 C   0  0  0  0  0  0  0  0  0  0  0  0
  152.8995  142.3841  160.8754 C   0  0  0  0  0  0  0  0  0  0  0  0
  152.6259  142.5195  159.5010 C   0  0  0  0  0  0  0  0  0  0  0  0
  151.8072  143.5848  159.0720 C   0  0  0  0  0  0  0  0  0  0  0  0
  151.4797  143.7728  157.6022 C   0  0  0  0  0  0  0  0  0  0  0  0
  150.9401  142.4714  157.0081 C   0  0  0  0  0  0  0  0  0  0  0  0
  151.5204  141.4084  157.2289 O   0  0  0  0  0  0  0  0  0  0  0  0
  149.8315  142.5705  156.2580 N   0  0  0  0  0  0  0  0  0  0  0  0
  149.1368  141.4577  155.6170 C   0  0  0  0  0  0  0  0  0  0  0  0
  147.9407  141.9312  154.7540 C   0  0  1  0  0  0  0  0  0  0  0  0
  147.9476  141.3502  153.3465 C   0  0  0  0  0  0  0  0  0  0  0  0
  147.2697  139.9910  153.5262 C   0  0  0  0  0  0  0  0  0  0  0  0
  146.5450  140.0735  154.7507 O   0  0  0  0  0  0  0  0  0  0  0  0
  146.5714  141.4130  155.2303 C   0  0  1  0  0  0  0  0  0  0  0  0
  146.2662  141.4803  156.7443 C   0  0  0  0  0  0  0  0  0  0  0  0
  144.8238  141.0359  157.0362 C   0  0  0  0  0  0  0  0  0  0  0  0
  146.5021  142.8906  157.3115 C   0  0  0  0  0  0  0  0  0  0  0  0
  151.2982  144.4694  160.0466 C   0  0  0  0  0  0  0  0  0  0  0  0
  151.5549  144.3472  161.3666 N   0  0  0  0  0  0  0  0  0  0  0  0
  153.5398  142.7093  163.4539 H   0  0  0  0  0  0  0  0  0  0  0  0
  151.7953  142.6634  163.7388 H   0  0  0  0  0  0  0  0  0  0  0  0
  152.6507  144.2115  163.7124 H   0  0  0  0  0  0  0  0  0  0  0  0
  153.5210  141.5765  161.2336 H   0  0  0  0  0  0  0  0  0  0  0  0
  153.0352  141.8159  158.7911 H   0  0  0  0  0  0  0  0  0  0  0  0
  150.7533  144.5788  157.4854 H   0  0  0  0  0  0  0  0  0  0  0  0
  152.3752  144.0747  157.0577 H   0  0  0  0  0  0  0  0  0  0  0  0
  149.4285  143.4879  156.1331 H   0  0  0  0  0  0  0  0  0  0  0  0
  149.8239  140.8484  155.0275 H   0  0  0  0  0  0  0  0  0  0  0  0
  148.7856  140.8150  156.4232 H   0  0  0  0  0  0  0  0  0  0  0  0
  147.9434  143.0214  154.7153 H   0  0  0  0  0  0  0  0  0  0  0  0
  147.3361  141.9759  152.6949 H   0  0  0  0  0  0  0  0  0  0  0  0
  148.9325  141.2770  152.8874 H   0  0  0  0  0  0  0  0  0  0  0  0
  146.6057  139.7602  152.6930 H   0  0  0  0  0  0  0  0  0  0  0  0
  148.0064  139.1911  153.6061 H   0  0  0  0  0  0  0  0  0  0  0  0
  145.7917  141.9596  154.6955 H   0  0  0  0  0  0  0  0  0  0  0  0
  146.9248  140.7873  157.2681 H   0  0  0  0  0  0  0  0  0  0  0  0
  144.1007  141.6807  156.5353 H   0  0  0  0  0  0  0  0  0  0  0  0
  144.6119  141.0666  158.1053 H   0  0  0  0  0  0  0  0  0  0  0  0
  144.6470  140.0138  156.7002 H   0  0  0  0  0  0  0  0  0  0  0  0
  145.8594  143.6244  156.8237 H   0  0  0  0  0  0  0  0  0  0  0  0
  147.5337  143.2144  157.1775 H   0  0  0  0  0  0  0  0  0  0  0  0
  146.2897  142.9231  158.3805 H   0  0  0  0  0  0  0  0  0  0  0  0
  150.6660  145.2970  159.7598 H   0  0  0  0  0  0  0  0  0  0  0  0
  1  2  1  0  0  0  0
  1 21  1  0  0  0  0
  1 22  1  0  0  0  0
  1 23  1  0  0  0  0
  2 20  1  0  0  0  0
  2  3  2  0  0  0  0
  3  4  1  0  0  0  0
  3 24  1  0  0  0  0
  4  5  2  0  0  0  0
  4 25  1  0  0  0  0
  5  6  1  0  0  0  0
  5 19  1  0  0  0  0
  6  7  1  0  0  0  0
  6 26  1  0  0  0  0
  6 27  1  0  0  0  0
  7  8  2  0  0  0  0
  7  9  1  0  0  0  0
  9 10  1  0  0  0  0
  9 28  1  0  0  0  0
 10 11  1  0  0  0  0
 10 29  1  0  0  0  0
 10 30  1  0  0  0  0
 11 15  1  0  0  0  0
 11 12  1  0  0  0  0
 11 31  1  0  0  0  0
 12 13  1  0  0  0  0
 12 32  1  0  0  0  0
 12 33  1  0  0  0  0
 13 14  1  0  0  0  0
 13 34  1  0  0  0  0
 13 35  1  0  0  0  0
 14 15  1  0  0  0  0
 15 16  1  0  0  0  0
 15 36  1  0  0  0  0
 16 17  1  0  0  0  0
 16 18  1  0  0  0  0
 16 37  1  0  0  0  0
 17 38  1  0  0  0  0
 17 39  1  0  0  0  0
 17 40  1  0  0  0  0
 18 41  1  0  0  0  0
 18 42  1  0  0  0  0
 18 43  1  0  0  0  0
 19 20  2  0  0  0  0
 19 44  1  0  0  0  0
M  END
> <s_m_source_file>
AV-unprocessed.smi

> <i_m_source_file_index>
653

> <i_lp_mmshare_version>
43012

> <i_f3d_flags>
0

> <s_epik_input>
W0NIM11jMVtjSF1bY0hdYyhbY0hdbjEpW0NIMl1DKD1PKVtOSF1bQ0gyXVtDQEBIXTJbQ0gyXVtDSDJdT1tDQEhdMltDSF0oW0NIM10pW0NIM10=

> <s_epik_cmdline>
J2VwaWtfcHl0aG9uJywgJy1waCcsICc3LjAnLCAnLXRuJywgJzgnLCAnLW1hJywgJzIwMCcsICctbWV0YWxfYmluZGluZycsICctaW1hZScsICc8aW5maWxlLm1hZT4nLCAnLW9tYWUnLCAnPG91dGZpbGUubWFlPic=

> <r_epik_Ionization_Penalty>
0.0166429

> <r_epik_Ionization_Penalty_Charging>
0

> <r_epik_Ionization_Penalty_Neutral>
0.0166429

> <r_epik_State_Penalty>
0.0131478

> <r_epik_Charging_Adjusted_Penalty>
0.0131478

> <i_epik_Tot_Q>
0

> <i_epik_Tot_abs_Q>
0

> <r_epik_Metal_State_Penalty>
0.012786

> <b_epik_Metal_Only>
0

> <s_lp_Force_Field>
OPLS_2005

> <r_lp_Energy>
21.9695

> <b_lp_Chiralities_Consistent>
1

> <s_lp_Variant>
AV-unprocessed.smi:653-2

> <Gold.Version>
5.8.1

> <Gold.Id.Protein>
6NUR|6NUR_protein|mol2

> <Gold.PLP.Fitness>
43.1989

> <Gold.PLP.PLP>
-42.1431

> <Gold.PLP.part.hbond>
-0.9651

> <Gold.PLP.part.metal>
0.0000

> <Gold.PLP.part.buried>
-4.5283

> <Gold.PLP.part.nonpolar>
-36.5500

> <Gold.PLP.part.repulsive>
0.3319

> <Gold.PLP.ligand.clash>
0.0000

> <Gold.PLP.ligand.torsion>
0.9956

> <Gold.PLP.Chemscore.Hbond>
1.0000

> <Gold.PLP.Chemscore.CHOScore>
0.0000

> <Gold.PLP.Chemscore.Metal>
0.0000

> <Gold.Chemscore.Hbonds>
donor molecule, donor type, donor heavy atom, donor atom, acceptor molecule, acceptor atom, score
      L1  H     9    28       P1  8028  0.75

> <Gold.PLP.Chemscore.Internal.Correction>
0.0469

> <Gold.Rescore>
     Score         DG    S(hbond)    S(metal)    S(lipo)     H(rot)  DE(clash)    DE(int)     intcor
     15.65     -18.45       0.99        0.00     115.23       1.48       0.82       1.98       ----

> <Gold.Chemscore.Fitness>
15.6522

> <Gold.Chemscore.DG>
-18.4545

> <Gold.Chemscore.ZeroCoef>
-5.4800

> <Gold.Chemscore.Hbond>
0.9863

> <Gold.Chemscore.Metal>
0.0000

> <Gold.Chemscore.Lipo>
115.2281

> <Gold.Chemscore.Internal_Hbond>
0.0000

> <Gold.Chemscore.DEClash>
0.8191

> <Gold.Chemscore.DEInternal>
1.9832

> <Gold.Chemscore.Rot>
1.4850

> <Gold.Chemscore.Internal.Correction>
   9.000000E+99

> <Gold.Chemscore.Hbonds>
donor molecule, donor type, donor heavy atom, donor atom, acceptor molecule, acceptor atom, score
      L1  H     9    28       P1  8028  0.73

> <Gold.Chemscore.Hbond.Weighted>
-3.2944

> <Gold.Chemscore.Metal.Weighted>
-0.0000

> <Gold.Chemscore.Lipo.Weighted>
-13.4817

> <Gold.Chemscore.Internal_Hbond.Weighted>
0.0000

> <Gold.Chemscore.DEClash.Weighted>
0.8191

> <Gold.Chemscore.DEInternal.Weighted>
1.9832

> <Gold.Chemscore.Rot.Weighted>
3.8015

> <Gold.Chemscore.Internal.Correction.Weighted>
   9.000000E+99

> <Gold.Protein.RotatedTorsions>
[ 6907 6896 6895 6894 ] final -172.78 input  -60.11 | X-H torsion
[ 7974 7965 7964 7962 ] final  -25.62 input  175.53 | X-H torsion
[ 8008 7997 7996 7995 ] final  -35.43 input   59.86 | X-H torsion
[ 10167 10162 10161 10158 ] final   54.55 input  -65.29 | X-H torsion
[ 10718 10713 10712 10709 ] final -130.90 input   66.30 | X-H torsion
[ 10763 10752 10751 10750 ] final -174.15 input  -60.55 | X-H torsion
[ 11005 11000 10999 10996 ] final   18.64 input  -57.11 | X-H torsion

> <Gold.Protein.ActiveResidues>
 VAL166  LYS551  ARG553  GLY616  TRP617  ASP618  TYR619  PRO620  LYS621  CYS622 
 ASP623  PHE694  ASN695  SER759  ASP760  ASP761  ALA762  ILE779  LEU786  VAL792 
 PHE793  MET794  SER795  GLU796  ALA797  LYS798  CYS799  TRP800  GLU811  SER814 

> <Gold.Protein.RotatedAtoms>
  151.5455  133.3426  159.2943 H   0  0  0  0  0  0  0  0  0  0  0  0  # atno 6907 bound_to 6896
  150.8510  134.7837  159.7019 H   0  0  0  0  0  0  0  0  0  0  0  0  # atno 6908 bound_to 6896
  152.4556  134.5307  159.9862 H   0  0  0  0  0  0  0  0  0  0  0  0  # atno 6909 bound_to 6896
  146.1479  140.4911  142.8624 H   0  0  0  0  0  0  0  0  0  0  0  0  # atno 7974 bound_to 7965
  154.4096  140.1657  156.2210 H   0  0  0  0  0  0  0  0  0  0  0  0  # atno 8008 bound_to 7997
  155.9364  140.3411  155.6268 H   0  0  0  0  0  0  0  0  0  0  0  0  # atno 8009 bound_to 7997
  155.7043  140.0749  157.2388 H   0  0  0  0  0  0  0  0  0  0  0  0  # atno 8010 bound_to 7997
  140.2289  144.3708  150.6422 H   0  0  0  0  0  0  0  0  0  0  0  0  # atno 10167 bound_to 10162
  156.2190  130.6966  151.0735 H   0  0  0  0  0  0  0  0  0  0  0  0  # atno 10718 bound_to 10713
  154.5996  135.2853  155.0550 H   0  0  0  0  0  0  0  0  0  0  0  0  # atno 10763 bound_to 10752
  154.1820  135.6455  153.5040 H   0  0  0  0  0  0  0  0  0  0  0  0  # atno 10764 bound_to 10752
  153.0151  135.5426  154.6710 H   0  0  0  0  0  0  0  0  0  0  0  0  # atno 10765 bound_to 10752
  140.4226  134.1503  155.7674 H   0  0  0  0  0  0  0  0  0  0  0  0  # atno 11005 bound_to 11000
  144.7868  140.5953  143.6568 LP  0  0  0  0  0  0  0  0  0  0  0  0  # atno 17320 bound_to 7965
  145.4894  139.1490  143.3718 LP  0  0  0  0  0  0  0  0  0  0  0  0  # atno 17321 bound_to 7965
  140.6200  143.2175  151.6714 LP  0  0  0  0  0  0  0  0  0  0  0  0  # atno 17342 bound_to 10162
  139.5117  144.3500  152.0661 LP  0  0  0  0  0  0  0  0  0  0  0  0  # atno 17343 bound_to 10162
  157.7078  131.0748  150.6608 LP  0  0  0  0  0  0  0  0  0  0  0  0  # atno 17370 bound_to 10713
  156.6670  130.4528  149.5669 LP  0  0  0  0  0  0  0  0  0  0  0  0  # atno 17371 bound_to 10713
  141.1778  133.8478  157.1362 LP  0  0  0  0  0  0  0  0  0  0  0  0  # atno 17394 bound_to 11000
  140.0190  134.9954  157.0552 LP  0  0  0  0  0  0  0  0  0  0  0  0  # atno 17395 bound_to 11000

$$$$
