AV-unprocessed.smi:169|AV-procd|sdf|1402|dock8
  -GOLD-   2262019153D 1   1.00000     0.00000
 Structure written by MMmdl.
 56 60  0  0  0  0  0  0  0  0  2 V2000
  151.6158  143.9188  157.9339 C   0  0  0  0  0  0  0  0  0  0  0  0
  151.4232  142.5032  158.5057 C   0  0  0  0  0  0  0  0  0  0  0  0
  150.9020  141.5236  157.5167 N   0  3  2  0  0  0  0  0  0  0  0  0
  151.9704  141.0278  156.5773 C   0  0  0  0  0  0  0  0  0  0  0  0
  151.6634  139.6441  155.8909 C   0  0  0  0  0  0  0  0  0  0  0  0
  150.1802  139.4760  155.5074 C   0  0  3  0  0  0  0  0  0  0  0  0
  149.2907  139.7790  154.2947 C   0  0  0  0  0  0  0  0  0  0  0  0
  148.2662  140.7671  154.9434 C   0  0  0  0  0  0  0  0  0  0  0  0
  148.6346  140.8134  156.4638 C   0  0  2  0  0  0  0  0  0  0  0  0
  149.6109  141.9753  156.8737 C   0  0  0  0  0  0  0  0  0  0  0  0
  149.3075  139.5450  156.6662 N   0  0  0  0  0  0  0  0  0  0  0  0
  148.5941  138.4545  157.0506 C   0  0  0  0  0  0  0  0  0  0  0  0
  147.6414  137.9517  156.2211 N   0  0  0  0  0  0  0  0  0  0  0  0
  146.9350  136.8750  156.5762 C   0  0  0  0  0  0  0  0  0  0  0  0
  147.0274  136.1479  157.6907 N   0  0  0  0  0  0  0  0  0  0  0  0
  147.9996  136.6296  158.5168 C   0  0  0  0  0  0  0  0  0  0  0  0
  148.8200  137.7684  158.2780 C   0  0  0  0  0  0  0  0  0  0  0  0
  149.6994  137.9449  159.3398 N   0  0  0  0  0  0  0  0  0  0  0  0
  149.4042  136.9776  160.1644 C   0  0  0  0  0  0  0  0  0  0  0  0
  148.4077  136.1271  159.7409 N   0  0  0  0  0  0  0  0  0  0  0  0
  147.8845  134.9659  160.4487 C   0  0  0  0  0  0  0  0  0  0  0  0
  147.1550  135.2811  161.7759 C   0  0  0  0  0  0  0  0  0  0  0  0
  146.5523  133.9495  162.2571 C   0  0  0  0  0  0  0  0  0  0  0  0
  145.4741  134.1268  163.1539 O   0  0  0  0  0  0  0  0  0  0  0  0
  147.9218  136.1261  162.8102 C   0  0  0  0  0  0  0  0  0  0  0  0
  147.2229  137.3274  162.4152 O   0  0  0  0  0  0  0  0  0  0  0  0
  146.2282  136.5095  161.7605 C   0  0  0  0  0  0  0  0  0  0  0  0
  151.9878  144.5935  158.7053 H   0  0  0  0  0  0  0  0  0  0  0  0
  150.6802  144.3365  157.5621 H   0  0  0  0  0  0  0  0  0  0  0  0
  152.3385  143.9314  157.1181 H   0  0  0  0  0  0  0  0  0  0  0  0
  152.3710  142.1377  158.9031 H   0  0  0  0  0  0  0  0  0  0  0  0
  150.7424  142.5423  159.3571 H   0  0  0  0  0  0  0  0  0  0  0  0
  152.1396  141.7875  155.8126 H   0  0  0  0  0  0  0  0  0  0  0  0
  152.9155  140.9319  157.1136 H   0  0  0  0  0  0  0  0  0  0  0  0
  152.3081  139.5029  155.0217 H   0  0  0  0  0  0  0  0  0  0  0  0
  151.9237  138.8448  156.5856 H   0  0  0  0  0  0  0  0  0  0  0  0
  150.4309  140.4837  155.1984 H   0  0  0  0  0  0  0  0  0  0  0  0
  149.8044  140.1890  153.4191 H   0  0  0  0  0  0  0  0  0  0  0  0
  148.7793  138.8721  153.9701 H   0  0  0  0  0  0  0  0  0  0  0  0
  148.2958  141.7556  154.4841 H   0  0  0  0  0  0  0  0  0  0  0  0
  147.2551  140.3799  154.8112 H   0  0  0  0  0  0  0  0  0  0  0  0
  147.7199  140.8970  157.0483 H   0  0  0  0  0  0  0  0  0  0  0  0
  149.0685  142.6119  157.5741 H   0  0  0  0  0  0  0  0  0  0  0  0
  149.8408  142.6162  156.0216 H   0  0  0  0  0  0  0  0  0  0  0  0
  146.1927  136.5466  155.8636 H   0  0  0  0  0  0  0  0  0  0  0  0
  149.9151  136.8563  161.1083 H   0  0  0  0  0  0  0  0  0  0  0  0
  147.2144  134.4405  159.7670 H   0  0  0  0  0  0  0  0  0  0  0  0
  148.7187  134.2852  160.6238 H   0  0  0  0  0  0  0  0  0  0  0  0
  146.1901  133.3622  161.4126 H   0  0  0  0  0  0  0  0  0  0  0  0
  147.3066  133.3434  162.7603 H   0  0  0  0  0  0  0  0  0  0  0  0
  145.6350  133.6054  163.9257 H   0  0  0  0  0  0  0  0  0  0  0  0
  147.7127  135.8670  163.8492 H   0  0  0  0  0  0  0  0  0  0  0  0
  148.9966  136.1876  162.6497 H   0  0  0  0  0  0  0  0  0  0  0  0
  145.9675  136.8687  160.7662 H   0  0  0  0  0  0  0  0  0  0  0  0
  145.3297  136.4095  162.3712 H   0  0  0  0  0  0  0  0  0  0  0  0
  150.6479  140.7216  158.0763 H   0  0  0  0  0  0  0  0  0  0  0  0
  1  2  1  0  0  0  0
  1 28  1  0  0  0  0
  1 29  1  0  0  0  0
  1 30  1  0  0  0  0
  2  3  1  0  0  0  0
  2 31  1  0  0  0  0
  2 32  1  0  0  0  0
  3 10  1  0  0  0  0
  3  4  1  0  0  0  0
  3 56  1  0  0  0  0
  4  5  1  0  0  0  0
  4 33  1  0  0  0  0
  4 34  1  0  0  0  0
  5  6  1  0  0  0  0
  5 35  1  0  0  0  0
  5 36  1  0  0  0  0
  6 11  1  0  0  0  0
  6  7  1  0  0  0  0
  6 37  1  0  0  0  0
  7  8  1  0  0  0  0
  7 38  1  0  0  0  0
  7 39  1  0  0  0  0
  8  9  1  0  0  0  0
  8 40  1  0  0  0  0
  8 41  1  0  0  0  0
  9 10  1  0  0  0  0
  9 11  1  0  0  0  0
  9 42  1  0  0  0  0
 10 43  1  0  0  0  0
 10 44  1  0  0  0  0
 11 12  1  0  0  0  0
 12 17  1  0  0  0  0
 12 13  2  0  0  0  0
 13 14  1  0  0  0  0
 14 15  2  0  0  0  0
 14 45  1  0  0  0  0
 15 16  1  0  0  0  0
 16 20  1  0  0  0  0
 16 17  2  0  0  0  0
 17 18  1  0  0  0  0
 18 19  2  0  0  0  0
 19 20  1  0  0  0  0
 19 46  1  0  0  0  0
 20 21  1  0  0  0  0
 21 22  1  0  0  0  0
 21 47  1  0  0  0  0
 21 48  1  0  0  0  0
 22 27  1  0  0  0  0
 22 23  1  0  0  0  0
 22 25  1  0  0  0  0
 23 24  1  0  0  0  0
 23 49  1  0  0  0  0
 23 50  1  0  0  0  0
 24 51  1  0  0  0  0
 25 26  1  0  0  0  0
 25 52  1  0  0  0  0
 25 53  1  0  0  0  0
 26 27  1  0  0  0  0
 27 54  1  0  0  0  0
 27 55  1  0  0  0  0
M  CHG  1   3   1
M  END
> <s_m_source_file>
AV-unprocessed.smi

> <i_m_source_file_index>
169

> <i_lp_mmshare_version>
43012

> <i_f3d_flags>
0

> <s_epik_input>
W0NASF0xMltDSDJdW0NIMl1OKFtDSDJdW0NIM10pW0NIMl1bQ0BIXShbQ0gyXVtDSDJdMSlOMmMobltjSF1uMyljKGMzNCluW2NIXW40W0NIMl1DNShbQ0gyXVtPSF0pW0NIMl1PW0NIMl01

> <s_epik_cmdline>
J2VwaWtfcHl0aG9uJywgJy1waCcsICc3LjAnLCAnLXRuJywgJzgnLCAnLW1hJywgJzIwMCcsICctbWV0YWxfYmluZGluZycsICctaW1hZScsICc8aW5maWxlLm1hZT4nLCAnLW9tYWUnLCAnPG91dGZpbGUubWFlPic=

> <r_lp_tautomer_probability>
1

> <r_epik_Ionization_Penalty>
0.00274162

> <r_epik_Ionization_Penalty_Charging>
0.00243722

> <r_epik_Ionization_Penalty_Neutral>
0.000304399

> <r_epik_State_Penalty>
-0

> <r_epik_Charging_Adjusted_Penalty>
0.00243722

> <i_epik_Tot_Q>
1

> <i_epik_Tot_abs_Q>
1

> <r_epik_Metal_State_Penalty>
-0

> <b_epik_Metal_Only>
0

> <s_lp_Force_Field>
OPLS_2005

> <r_lp_Energy>
131.144

> <b_lp_Chiralities_Consistent>
1

> <s_lp_Variant>
AV-unprocessed.smi:169-5

> <Gold.Version>
5.8.1

> <Gold.Id.Protein>
6NUR|6NUR_protein|mol2

> <Gold.PLP.Fitness>
39.0001

> <Gold.PLP.PLP>
-37.3334

> <Gold.PLP.part.hbond>
-3.9150

> <Gold.PLP.part.metal>
0.0000

> <Gold.PLP.part.buried>
-3.6888

> <Gold.PLP.part.nonpolar>
-29.2635

> <Gold.PLP.part.repulsive>
0.0528

> <Gold.PLP.ligand.clash>
0.0000

> <Gold.PLP.ligand.torsion>
0.6064

> <Gold.PLP.Chemscore.Hbond>
0.8171

> <Gold.PLP.Chemscore.CHOScore>
0.0000

> <Gold.PLP.Chemscore.Metal>
0.0000

> <Gold.Chemscore.Hbonds>
donor molecule, donor type, donor heavy atom, donor atom, acceptor molecule, acceptor atom, score
      P1  H  6931  6943       L1    26  0.35
      P1  H  6934  6947       L1    26  0.24

> <Gold.PLP.Chemscore.Internal.Correction>
0.4283

> <Gold.Rescore>
     Score         DG    S(hbond)    S(metal)    S(lipo)     H(rot)  DE(clash)    DE(int)     intcor
     11.00     -12.33       0.79        0.00      93.24       2.62       0.89       0.44       ----

> <Gold.Chemscore.Fitness>
10.9987

> <Gold.Chemscore.DG>
-12.3257

> <Gold.Chemscore.ZeroCoef>
-5.4800

> <Gold.Chemscore.Hbond>
0.7923

> <Gold.Chemscore.Metal>
0.0000

> <Gold.Chemscore.Lipo>
93.2447

> <Gold.Chemscore.Internal_Hbond>
0.0000

> <Gold.Chemscore.DEClash>
0.8861

> <Gold.Chemscore.DEInternal>
0.4408

> <Gold.Chemscore.Rot>
2.6212

> <Gold.Chemscore.Internal.Correction>
   9.000000E+99

> <Gold.Chemscore.Hbonds>
donor molecule, donor type, donor heavy atom, donor atom, acceptor molecule, acceptor atom, score
      P1  H  6931  6943       L1    26  0.02
      P1  H  6934  6947       L1    26  0.04

> <Gold.Chemscore.Hbond.Weighted>
-2.6463

> <Gold.Chemscore.Metal.Weighted>
-0.0000

> <Gold.Chemscore.Lipo.Weighted>
-10.9096

> <Gold.Chemscore.Internal_Hbond.Weighted>
0.0000

> <Gold.Chemscore.DEClash.Weighted>
0.8861

> <Gold.Chemscore.DEInternal.Weighted>
0.4408

> <Gold.Chemscore.Rot.Weighted>
6.7102

> <Gold.Chemscore.Internal.Correction.Weighted>
   9.000000E+99

> <Gold.Protein.RotatedTorsions>
[ 6907 6896 6895 6894 ] final -154.58 input  -60.11 | X-H torsion
[ 7974 7965 7964 7962 ] final  -53.56 input  175.53 | X-H torsion
[ 8008 7997 7996 7995 ] final  -79.58 input   59.86 | X-H torsion
[ 10167 10162 10161 10158 ] final  -11.75 input  -65.29 | X-H torsion
[ 10718 10713 10712 10709 ] final   43.19 input   66.30 | X-H torsion
[ 10763 10752 10751 10750 ] final -135.91 input  -60.55 | X-H torsion
[ 11005 11000 10999 10996 ] final   -3.89 input  -57.11 | X-H torsion

> <Gold.Protein.ActiveResidues>
 VAL166  LYS551  ARG553  GLY616  TRP617  ASP618  TYR619  PRO620  LYS621  CYS622 
 ASP623  PHE694  ASN695  SER759  ASP760  ASP761  ALA762  ILE779  LEU786  VAL792 
 PHE793  MET794  SER795  GLU796  ALA797  LYS798  CYS799  TRP800  GLU811  SER814 

> <Gold.Protein.RotatedAtoms>
  151.2596  133.4308  159.2615 H   0  0  0  0  0  0  0  0  0  0  0  0  # atno 6907 bound_to 6896
  151.0542  134.9694  159.8237 H   0  0  0  0  0  0  0  0  0  0  0  0  # atno 6908 bound_to 6896
  152.5388  134.2550  159.8966 H   0  0  0  0  0  0  0  0  0  0  0  0  # atno 6909 bound_to 6896
  145.8955  140.8036  142.9770 H   0  0  0  0  0  0  0  0  0  0  0  0  # atno 7974 bound_to 7965
  154.5799  140.0676  156.9089 H   0  0  0  0  0  0  0  0  0  0  0  0  # atno 8008 bound_to 7997
  155.2481  140.3349  155.4267 H   0  0  0  0  0  0  0  0  0  0  0  0  # atno 8009 bound_to 7997
  156.2182  140.1787  156.7525 H   0  0  0  0  0  0  0  0  0  0  0  0  # atno 8010 bound_to 7997
  140.7145  143.5606  150.9200 H   0  0  0  0  0  0  0  0  0  0  0  0  # atno 10167 bound_to 10162
  157.4132  130.7926  149.7448 H   0  0  0  0  0  0  0  0  0  0  0  0  # atno 10718 bound_to 10713
  154.8694  135.3688  154.4976 H   0  0  0  0  0  0  0  0  0  0  0  0  # atno 10763 bound_to 10752
  153.5619  135.7022  153.5548 H   0  0  0  0  0  0  0  0  0  0  0  0  # atno 10764 bound_to 10752
  153.3620  135.4044  155.1689 H   0  0  0  0  0  0  0  0  0  0  0  0  # atno 10765 bound_to 10752
  140.6743  133.9209  155.8514 H   0  0  0  0  0  0  0  0  0  0  0  0  # atno 11005 bound_to 11000
  144.6732  140.1595  143.7423 LP  0  0  0  0  0  0  0  0  0  0  0  0  # atno 17320 bound_to 7965
  145.8856  139.2347  143.1580 LP  0  0  0  0  0  0  0  0  0  0  0  0  # atno 17321 bound_to 7965
  139.9331  143.6469  152.3071 LP  0  0  0  0  0  0  0  0  0  0  0  0  # atno 17342 bound_to 10162
  139.6927  144.7645  151.1410 LP  0  0  0  0  0  0  0  0  0  0  0  0  # atno 17343 bound_to 10162
  155.9857  130.3981  150.3249 LP  0  0  0  0  0  0  0  0  0  0  0  0  # atno 17370 bound_to 10713
  157.1390  131.0291  151.2936 LP  0  0  0  0  0  0  0  0  0  0  0  0  # atno 17371 bound_to 10713
  141.0368  134.0679  157.3950 LP  0  0  0  0  0  0  0  0  0  0  0  0  # atno 17394 bound_to 11000
  139.8971  135.0149  156.7087 LP  0  0  0  0  0  0  0  0  0  0  0  0  # atno 17395 bound_to 11000

$$$$
