AV-unprocessed.smi:1696|AV-procd|sdf|6801|dock6
  -GOLD-   22720 7573D 1   1.00000     0.00000
 Structure written by MMmdl.
 38 39  0  0  0  0  0  0  0  0  3 V2000
  145.8660  134.3718  156.3127 C   0  0  0  0  0  0  0  0  0  0  0  0
  147.1445  135.1035  155.8740 C   0  0  0  0  0  0  0  0  0  0  0  0
  148.1179  134.2551  155.0110 C   0  0  2  0  0  0  0  0  0  0  0  0
  149.5945  134.7109  155.1670 C   0  0  0  0  0  0  0  0  0  0  0  0
  149.7987  136.1042  154.7844 N   0  0  0  0  0  0  0  0  0  0  0  0
  150.4694  137.0186  155.4989 C   0  0  0  0  0  0  0  0  0  0  0  0
  150.9888  136.6998  156.5710 O   0  0  0  0  0  0  0  0  0  0  0  0
  150.4895  138.2444  154.9302 N   0  5  0  0  0  0  0  0  0  0  0  0
  150.3665  139.3411  155.6954 C   0  0  0  0  0  0  0  0  0  0  0  0
  150.1292  140.5584  155.1937 N   0  0  0  0  0  0  0  0  0  0  0  0
  150.0335  141.5521  156.1697 C   0  0  0  0  0  0  0  0  0  0  0  0
  150.1926  141.0785  157.4450 C   0  0  0  0  0  0  0  0  0  0  0  0
  150.4702  139.3603  157.4582 S   0  0  0  0  0  0  0  0  0  0  0  0
  147.7135  134.2230  153.5751 N   0  3  0  0  0  0  0  0  0  0  0  0
  148.0085  132.9536  152.8625 C   0  0  0  0  0  0  0  0  0  0  0  0
  146.8648  132.7108  151.8673 C   0  0  0  0  0  0  0  0  0  0  0  0
  146.0374  133.9909  151.8987 C   0  0  0  0  0  0  0  0  0  0  0  0
  146.2945  134.5358  153.2985 C   0  0  0  0  0  0  0  0  0  0  0  0
  145.2546  135.0162  156.9448 H   0  0  0  0  0  0  0  0  0  0  0  0
  146.0929  133.4716  156.8837 H   0  0  0  0  0  0  0  0  0  0  0  0
  145.2546  134.0840  155.4576 H   0  0  0  0  0  0  0  0  0  0  0  0
  146.8575  136.0004  155.3247 H   0  0  0  0  0  0  0  0  0  0  0  0
  147.6580  135.4828  156.7573 H   0  0  0  0  0  0  0  0  0  0  0  0
  148.0452  133.2283  155.3732 H   0  0  0  0  0  0  0  0  0  0  0  0
  149.9463  134.5866  156.1916 H   0  0  0  0  0  0  0  0  0  0  0  0
  150.2492  134.0926  154.5532 H   0  0  0  0  0  0  0  0  0  0  0  0
  149.3937  136.4052  153.9099 H   0  0  0  0  0  0  0  0  0  0  0  0
  149.8481  142.5716  155.8661 H   0  0  0  0  0  0  0  0  0  0  0  0
  150.1632  141.6310  158.3720 H   0  0  0  0  0  0  0  0  0  0  0  0
  148.9695  133.0377  152.3539 H   0  0  0  0  0  0  0  0  0  0  0  0
  148.0706  132.1120  153.5544 H   0  0  0  0  0  0  0  0  0  0  0  0
  147.2250  132.4764  150.8649 H   0  0  0  0  0  0  0  0  0  0  0  0
  146.2567  131.8704  152.2048 H   0  0  0  0  0  0  0  0  0  0  0  0
  146.4130  134.6939  151.1538 H   0  0  0  0  0  0  0  0  0  0  0  0
  144.9794  133.8190  151.6976 H   0  0  0  0  0  0  0  0  0  0  0  0
  145.6562  134.0200  154.0181 H   0  0  0  0  0  0  0  0  0  0  0  0
  146.0882  135.6044  153.3614 H   0  0  0  0  0  0  0  0  0  0  0  0
  148.2491  134.9377  153.1039 H   0  0  0  0  0  0  0  0  0  0  0  0
  1  2  1  0  0  0  0
  1 19  1  0  0  0  0
  1 20  1  0  0  0  0
  1 21  1  0  0  0  0
  2  3  1  0  0  0  0
  2 22  1  0  0  0  0
  2 23  1  0  0  0  0
  3  4  1  0  0  0  0
  3 14  1  0  0  0  0
  3 24  1  0  0  0  0
  4  5  1  0  0  0  0
  4 25  1  0  0  0  0
  4 26  1  0  0  0  0
  5  6  1  0  0  0  0
  5 27  1  0  0  0  0
  6  7  2  0  0  0  0
  6  8  1  0  0  0  0
  8  9  1  0  0  0  0
  9 13  1  0  0  0  0
  9 10  2  0  0  0  0
 10 11  1  0  0  0  0
 11 12  2  0  0  0  0
 11 28  1  0  0  0  0
 12 13  1  0  0  0  0
 12 29  1  0  0  0  0
 14 18  1  0  0  0  0
 14 15  1  0  0  0  0
 14 38  1  0  0  0  0
 15 16  1  0  0  0  0
 15 30  1  0  0  0  0
 15 31  1  0  0  0  0
 16 17  1  0  0  0  0
 16 32  1  0  0  0  0
 16 33  1  0  0  0  0
 17 18  1  0  0  0  0
 17 34  1  0  0  0  0
 17 35  1  0  0  0  0
 18 36  1  0  0  0  0
 18 37  1  0  0  0  0
M  CHG  1   8  -1
M  CHG  1  14   1
M  END
> <s_m_source_file>
AV-unprocessed.smi

> <i_m_source_file_index>
1696

> <i_lp_mmshare_version>
43012

> <i_f3d_flags>
0

> <s_epik_input>
W0NIMl0xW0NIMl1bQ0gyXVtDSDJdTjFbQ0BIXShbQ0gyXVtDSDNdKVtDSDJdW05IXUMoPU8pW05IXWMybltjSF1bY0hdczI=

> <s_epik_cmdline>
J2VwaWtfcHl0aG9uJywgJy1waCcsICc3LjAnLCAnLXRuJywgJzgnLCAnLW1hJywgJzIwMCcsICctbWV0YWxfYmluZGluZycsICctaW1hZScsICc8aW5maWxlLm1hZT4nLCAnLW9tYWUnLCAnPG91dGZpbGUubWFlPic=

> <r_lp_tautomer_probability>
1

> <r_epik_Ionization_Penalty>
7.71903

> <r_epik_Ionization_Penalty_Charging>
6.3282

> <r_epik_Ionization_Penalty_Neutral>
1.39083

> <r_epik_State_Penalty>
6.32705

> <r_epik_Charging_Adjusted_Penalty>
12.6552

> <i_epik_Tot_Q>
0

> <i_epik_Tot_abs_Q>
2

> <r_epik_Metal_State_Penalty>
2.26116

> <b_epik_Metal_Only>
1

> <s_lp_Force_Field>
OPLS_2005

> <r_lp_Energy>
21.91

> <b_lp_Chiralities_Consistent>
1

> <s_lp_Variant>
AV-unprocessed.smi:1696-3

> <Gold.Version>
5.8.1

> <Gold.Id.Protein>
6NUR|6NUR_protein|mol2

> <Gold.PLP.Fitness>
42.8581

> <Gold.PLP.PLP>
-28.0224

> <Gold.PLP.part.hbond>
-5.0000

> <Gold.PLP.part.metal>
0.0000

> <Gold.PLP.part.buried>
-3.4775

> <Gold.PLP.part.nonpolar>
-20.4568

> <Gold.PLP.part.repulsive>
0.3587

> <Gold.PLP.ligand.clash>
0.0000

> <Gold.PLP.ligand.torsion>
1.5451

> <Gold.PLP.Chemscore.Hbond>
4.9200

> <Gold.PLP.Chemscore.CHOScore>
1.0000

> <Gold.PLP.Chemscore.Metal>
0.0000

> <Gold.Chemscore.Hbonds>
donor molecule, donor type, donor heavy atom, donor atom, acceptor molecule, acceptor atom, score
      L1  H     5    27       P1  7948  0.88
      L1  H    14    38       P1  7948  2.00
      P1  H  7989  7998       L1    10  0.35
      L1  C    11    28       P1  8028  1.00

> <Gold.PLP.Chemscore.Internal.Correction>
0.1660

> <Gold.Rescore>
     Score         DG    S(hbond)    S(metal)    S(lipo)     H(rot)  DE(clash)    DE(int)     intcor
     14.88     -17.50       3.41        0.00      43.21       1.73       0.01       2.61       ----

> <Gold.Chemscore.Fitness>
14.8825

> <Gold.Chemscore.DG>
-17.5005

> <Gold.Chemscore.ZeroCoef>
-5.4800

> <Gold.Chemscore.Hbond>
3.4089

> <Gold.Chemscore.Metal>
0.0000

> <Gold.Chemscore.Lipo>
43.2123

> <Gold.Chemscore.Internal_Hbond>
0.0000

> <Gold.Chemscore.DEClash>
0.0106

> <Gold.Chemscore.DEInternal>
2.6073

> <Gold.Chemscore.Rot>
1.7270

> <Gold.Chemscore.Internal.Correction>
   9.000000E+99

> <Gold.Chemscore.Hbonds>
donor molecule, donor type, donor heavy atom, donor atom, acceptor molecule, acceptor atom, score
      L1  H     5    27       P1  7948  0.71
      L1  H    14    38       P1  7948  0.85
      P1  H  7989  7998       L1    10  0.19

> <Gold.Chemscore.Hbond.Weighted>
-11.3858

> <Gold.Chemscore.Metal.Weighted>
-0.0000

> <Gold.Chemscore.Lipo.Weighted>
-5.0558

> <Gold.Chemscore.Internal_Hbond.Weighted>
0.0000

> <Gold.Chemscore.DEClash.Weighted>
0.0106

> <Gold.Chemscore.DEInternal.Weighted>
2.6073

> <Gold.Chemscore.Rot.Weighted>
4.4212

> <Gold.Chemscore.Internal.Correction.Weighted>
   9.000000E+99

> <Gold.Protein.RotatedTorsions>
[ 6907 6896 6895 6894 ] final -174.63 input  -60.11 | X-H torsion
[ 7974 7965 7964 7962 ] final  133.55 input  175.53 | X-H torsion
[ 8008 7997 7996 7995 ] final  101.29 input   59.86 | X-H torsion
[ 10167 10162 10161 10158 ] final -160.85 input  -65.29 | X-H torsion
[ 10718 10713 10712 10709 ] final  152.26 input   66.30 | X-H torsion
[ 10763 10752 10751 10750 ] final  -30.10 input  -60.55 | X-H torsion
[ 11005 11000 10999 10996 ] final  101.83 input  -57.11 | X-H torsion

> <Gold.Protein.ActiveResidues>
 VAL166  LYS551  ARG553  GLY616  TRP617  ASP618  TYR619  PRO620  LYS621  CYS622 
 ASP623  PHE694  ASN695  SER759  ASP760  ASP761  ALA762  ILE779  LEU786  VAL792 
 PHE793  MET794  SER795  GLU796  ALA797  LYS798  CYS799  TRP800  GLU811  SER814 

> <Gold.Protein.RotatedAtoms>
  151.5754  133.3384  159.2997 H   0  0  0  0  0  0  0  0  0  0  0  0  # atno 6907 bound_to 6896
  150.8343  134.7613  159.6891 H   0  0  0  0  0  0  0  0  0  0  0  0  # atno 6908 bound_to 6896
  152.4422  134.5574  159.9936 H   0  0  0  0  0  0  0  0  0  0  0  0  # atno 6909 bound_to 6896
  144.9853  139.4461  143.5366 H   0  0  0  0  0  0  0  0  0  0  0  0  # atno 7974 bound_to 7965
  156.1285  140.3200  155.8314 H   0  0  0  0  0  0  0  0  0  0  0  0  # atno 8008 bound_to 7997
  155.4375  140.0523  157.3030 H   0  0  0  0  0  0  0  0  0  0  0  0  # atno 8009 bound_to 7997
  154.4881  140.2081  155.9622 H   0  0  0  0  0  0  0  0  0  0  0  0  # atno 8010 bound_to 7997
  139.6509  144.0086  152.2160 H   0  0  0  0  0  0  0  0  0  0  0  0  # atno 10167 bound_to 10162
  157.2601  131.0796  151.1671 H   0  0  0  0  0  0  0  0  0  0  0  0  # atno 10718 bound_to 10713
  153.7755  135.6909  153.4898 H   0  0  0  0  0  0  0  0  0  0  0  0  # atno 10763 bound_to 10752
  153.1846  135.4493  155.0071 H   0  0  0  0  0  0  0  0  0  0  0  0  # atno 10764 bound_to 10752
  154.8102  135.3374  154.7261 H   0  0  0  0  0  0  0  0  0  0  0  0  # atno 10765 bound_to 10752
  139.8775  134.9199  156.4967 H   0  0  0  0  0  0  0  0  0  0  0  0  # atno 11005 bound_to 11000
  146.3418  139.9152  142.8774 LP  0  0  0  0  0  0  0  0  0  0  0  0  # atno 17320 bound_to 7965
  145.2362  140.9992  143.3962 LP  0  0  0  0  0  0  0  0  0  0  0  0  # atno 17321 bound_to 7965
  139.9800  144.6435  150.7909 LP  0  0  0  0  0  0  0  0  0  0  0  0  # atno 17342 bound_to 10162
  140.7537  143.3013  151.3073 LP  0  0  0  0  0  0  0  0  0  0  0  0  # atno 17343 bound_to 10162
  157.3184  130.6925  149.6255 LP  0  0  0  0  0  0  0  0  0  0  0  0  # atno 17370 bound_to 10713
  155.9664  130.4342  150.5041 LP  0  0  0  0  0  0  0  0  0  0  0  0  # atno 17371 bound_to 10713
  140.8619  133.8053  155.9274 LP  0  0  0  0  0  0  0  0  0  0  0  0  # atno 17394 bound_to 11000
  140.9040  134.2343  157.5025 LP  0  0  0  0  0  0  0  0  0  0  0  0  # atno 17395 bound_to 11000

$$$$
