AV-unprocessed.smi:827|AV-procd|sdf|3856|dock2
  -GOLD-   22720 1303D 1   1.00000     0.00000
 Structure written by MMmdl.
 46 47  0  0  0  0  0  0  0  0  1 V2000
  146.7102  133.0099  152.1368 C   0  0  0  0  0  0  0  0  0  0  0  0
  147.6656  133.7072  152.9290 O   0  0  0  0  0  0  0  0  0  0  0  0
  148.2089  133.0646  154.0252 C   0  0  0  0  0  0  0  0  0  0  0  0
  147.7460  131.8297  154.3439 N   0  0  0  0  0  0  0  0  0  0  0  0
  148.2721  131.2024  155.4159 C   0  0  0  0  0  0  0  0  0  0  0  0
  149.2730  131.7697  156.2260 C   0  0  0  0  0  0  0  0  0  0  0  0
  149.7553  133.0501  155.8974 C   0  0  0  0  0  0  0  0  0  0  0  0
  149.2249  133.7142  154.7648 C   0  0  0  0  0  0  0  0  0  0  0  0
  149.6288  135.0153  154.3565 N   0  0  0  0  0  0  0  0  0  0  0  0
  150.4749  135.8577  154.9728 C   0  0  0  0  0  0  0  0  0  0  0  0
  151.0599  135.6308  156.0321 O   0  0  0  0  0  0  0  0  0  0  0  0
  150.6294  136.9897  154.2716 N   0  0  0  0  0  0  0  0  0  0  0  0
  151.5076  138.0903  154.6494 C   0  0  0  0  0  0  0  0  0  0  0  0
  150.7198  139.4092  154.7733 C   0  0  0  0  0  0  0  0  0  0  0  0
  150.7509  139.9511  156.1308 N   0  0  0  0  0  0  0  0  0  0  0  0
  152.1316  140.1256  156.6006 C   0  0  0  0  0  0  0  0  0  0  0  0
  152.1432  140.7290  158.0188 C   0  0  0  0  0  0  0  0  0  0  0  0
  151.4489  142.0200  157.9921 N   0  0  0  0  0  0  0  0  0  0  0  0
  152.0086  143.2302  158.2292 C   0  0  0  0  0  0  0  0  0  0  0  0
  153.4885  143.3074  158.6105 C   0  0  0  0  0  0  0  0  0  0  0  0
  151.3757  144.2831  158.1496 O   0  0  0  0  0  0  0  0  0  0  0  0
  150.0605  141.8467  157.5579 C   0  0  0  0  0  0  0  0  0  0  0  0
  150.0556  141.2427  156.1403 C   0  0  0  0  0  0  0  0  0  0  0  0
  146.3872  133.6496  151.3157 H   0  0  0  0  0  0  0  0  0  0  0  0
  145.8257  132.7474  152.7190 H   0  0  0  0  0  0  0  0  0  0  0  0
  147.1353  132.1041  151.7022 H   0  0  0  0  0  0  0  0  0  0  0  0
  147.8792  130.2214  155.6380 H   0  0  0  0  0  0  0  0  0  0  0  0
  149.6585  131.2370  157.0826 H   0  0  0  0  0  0  0  0  0  0  0  0
  150.5080  133.5011  156.5254 H   0  0  0  0  0  0  0  0  0  0  0  0
  149.2958  135.3046  153.4485 H   0  0  0  0  0  0  0  0  0  0  0  0
  150.1126  137.0928  153.4106 H   0  0  0  0  0  0  0  0  0  0  0  0
  151.9696  137.8418  155.6054 H   0  0  0  0  0  0  0  0  0  0  0  0
  152.3163  138.1661  153.9222 H   0  0  0  0  0  0  0  0  0  0  0  0
  151.0879  140.1533  154.0649 H   0  0  0  0  0  0  0  0  0  0  0  0
  149.6835  139.2052  154.5000 H   0  0  0  0  0  0  0  0  0  0  0  0
  152.6479  139.1669  156.6251 H   0  0  0  0  0  0  0  0  0  0  0  0
  152.6840  140.7696  155.9141 H   0  0  0  0  0  0  0  0  0  0  0  0
  151.6332  140.0619  158.7156 H   0  0  0  0  0  0  0  0  0  0  0  0
  153.1702  140.7943  158.3744 H   0  0  0  0  0  0  0  0  0  0  0  0
  154.1134  142.8856  157.8228 H   0  0  0  0  0  0  0  0  0  0  0  0
  153.6769  142.7698  159.5400 H   0  0  0  0  0  0  0  0  0  0  0  0
  153.7938  144.3440  158.7578 H   0  0  0  0  0  0  0  0  0  0  0  0
  149.5402  141.1871  158.2543 H   0  0  0  0  0  0  0  0  0  0  0  0
  149.5002  142.7824  157.5559 H   0  0  0  0  0  0  0  0  0  0  0  0
  150.5302  141.9300  155.4373 H   0  0  0  0  0  0  0  0  0  0  0  0
  149.0253  141.1061  155.8096 H   0  0  0  0  0  0  0  0  0  0  0  0
  1  2  1  0  0  0  0
  1 24  1  0  0  0  0
  1 25  1  0  0  0  0
  1 26  1  0  0  0  0
  2  3  1  0  0  0  0
  3  8  1  0  0  0  0
  3  4  2  0  0  0  0
  4  5  1  0  0  0  0
  5  6  2  0  0  0  0
  5 27  1  0  0  0  0
  6  7  1  0  0  0  0
  6 28  1  0  0  0  0
  7  8  2  0  0  0  0
  7 29  1  0  0  0  0
  8  9  1  0  0  0  0
  9 10  1  0  0  0  0
  9 30  1  0  0  0  0
 10 11  2  0  0  0  0
 10 12  1  0  0  0  0
 12 13  1  0  0  0  0
 12 31  1  0  0  0  0
 13 14  1  0  0  0  0
 13 32  1  0  0  0  0
 13 33  1  0  0  0  0
 14 15  1  0  0  0  0
 14 34  1  0  0  0  0
 14 35  1  0  0  0  0
 15 23  1  0  0  0  0
 15 16  1  0  0  0  0
 16 17  1  0  0  0  0
 16 36  1  0  0  0  0
 16 37  1  0  0  0  0
 17 18  1  0  0  0  0
 17 38  1  0  0  0  0
 17 39  1  0  0  0  0
 18 19  1  0  0  0  0
 18 22  1  0  0  0  0
 19 20  1  0  0  0  0
 19 21  2  0  0  0  0
 20 40  1  0  0  0  0
 20 41  1  0  0  0  0
 20 42  1  0  0  0  0
 22 23  1  0  0  0  0
 22 43  1  0  0  0  0
 22 44  1  0  0  0  0
 23 45  1  0  0  0  0
 23 46  1  0  0  0  0
M  END
> <s_m_source_file>
AV-unprocessed.smi

> <i_m_source_file_index>
827

> <i_lp_mmshare_version>
43012

> <i_f3d_flags>
0

> <s_epik_input>
W0NIM11PYzFuW2NIXVtjSF1bY0hdYzFbTkhdQyg9TylbTkhdW0NIMl1bQ0gyXU4yW0NIMl1bQ0gyXU4oQyg9TylbQ0gzXSlbQ0gyXVtDSDJdMg==

> <s_epik_cmdline>
J2VwaWtfcHl0aG9uJywgJy1waCcsICc3LjAnLCAnLXRuJywgJzgnLCAnLW1hJywgJzIwMCcsICctbWV0YWxfYmluZGluZycsICctaW1hZScsICc8aW5maWxlLm1hZT4nLCAnLW9tYWUnLCAnPG91dGZpbGUubWFlPic=

> <r_lp_tautomer_probability>
1

> <r_epik_Ionization_Penalty>
0.251055

> <r_epik_Ionization_Penalty_Charging>
0

> <r_epik_Ionization_Penalty_Neutral>
0.251055

> <r_epik_State_Penalty>
0.242297

> <r_epik_Charging_Adjusted_Penalty>
0.242297

> <i_epik_Tot_Q>
0

> <i_epik_Tot_abs_Q>
0

> <r_epik_Metal_State_Penalty>
0.242294

> <b_epik_Metal_Only>
0

> <s_lp_Force_Field>
OPLS_2005

> <r_lp_Energy>
35.7173

> <b_lp_Chiralities_Consistent>
1

> <s_lp_Variant>
AV-unprocessed.smi:827-1

> <Gold.Version>
5.8.1

> <Gold.Id.Protein>
6NUR|6NUR_protein|mol2

> <Gold.PLP.Fitness>
47.6640

> <Gold.PLP.PLP>
-40.1311

> <Gold.PLP.part.hbond>
-4.8126

> <Gold.PLP.part.metal>
0.0000

> <Gold.PLP.part.buried>
-5.5137

> <Gold.PLP.part.nonpolar>
-31.5889

> <Gold.PLP.part.repulsive>
1.3990

> <Gold.PLP.ligand.clash>
0.0000

> <Gold.PLP.ligand.torsion>
0.4141

> <Gold.PLP.Chemscore.Hbond>
2.7640

> <Gold.PLP.Chemscore.CHOScore>
0.0000

> <Gold.PLP.Chemscore.Metal>
0.0000

> <Gold.Chemscore.Hbonds>
donor molecule, donor type, donor heavy atom, donor atom, acceptor molecule, acceptor atom, score
      L1  H     9    30       P1  7948  0.95
      L1  H    12    31       P1  7948  0.80
      P1  H 10752 10765       L1    11  0.20

> <Gold.PLP.Chemscore.Internal.Correction>
0.0691

> <Gold.Rescore>
     Score         DG    S(hbond)    S(metal)    S(lipo)     H(rot)  DE(clash)    DE(int)     intcor
     13.94     -15.76       2.00        0.00      70.64       1.83       0.07       1.75       ----

> <Gold.Chemscore.Fitness>
13.9434

> <Gold.Chemscore.DG>
-15.7588

> <Gold.Chemscore.ZeroCoef>
-5.4800

> <Gold.Chemscore.Hbond>
2.0041

> <Gold.Chemscore.Metal>
0.0000

> <Gold.Chemscore.Lipo>
70.6386

> <Gold.Chemscore.Internal_Hbond>
0.0000

> <Gold.Chemscore.DEClash>
0.0685

> <Gold.Chemscore.DEInternal>
1.7469

> <Gold.Chemscore.Rot>
1.8280

> <Gold.Chemscore.Internal.Correction>
   9.000000E+99

> <Gold.Chemscore.Hbonds>
donor molecule, donor type, donor heavy atom, donor atom, acceptor molecule, acceptor atom, score
      L1  H     9    30       P1  7948  0.22
      L1  H    12    31       P1  7948  0.15
      P1  H 10752 10765       L1    11  0.03

> <Gold.Chemscore.Hbond.Weighted>
-6.6937

> <Gold.Chemscore.Metal.Weighted>
-0.0000

> <Gold.Chemscore.Lipo.Weighted>
-8.2647

> <Gold.Chemscore.Internal_Hbond.Weighted>
0.0000

> <Gold.Chemscore.DEClash.Weighted>
0.0685

> <Gold.Chemscore.DEInternal.Weighted>
1.7469

> <Gold.Chemscore.Rot.Weighted>
4.6796

> <Gold.Chemscore.Internal.Correction.Weighted>
   9.000000E+99

> <Gold.Protein.RotatedTorsions>
[ 6907 6896 6895 6894 ] final  174.89 input  -60.11 | X-H torsion
[ 7974 7965 7964 7962 ] final  150.27 input  175.53 | X-H torsion
[ 8008 7997 7996 7995 ] final  -76.67 input   59.86 | X-H torsion
[ 10167 10162 10161 10158 ] final   -6.92 input  -65.29 | X-H torsion
[ 10718 10713 10712 10709 ] final -132.12 input   66.30 | X-H torsion
[ 10763 10752 10751 10750 ] final -144.74 input  -60.55 | X-H torsion
[ 11005 11000 10999 10996 ] final   25.33 input  -57.11 | X-H torsion

> <Gold.Protein.ActiveResidues>
 VAL166  LYS551  ARG553  GLY616  TRP617  ASP618  TYR619  PRO620  LYS621  CYS622 
 ASP623  PHE694  ASN695  SER759  ASP760  ASP761  ALA762  ILE779  LEU786  VAL792 
 PHE793  MET794  SER795  GLU796  ALA797  LYS798  CYS799  TRP800  GLU811  SER814 

> <Gold.Protein.RotatedAtoms>
  151.7450  133.3324  159.3375 H   0  0  0  0  0  0  0  0  0  0  0  0  # atno 6907 bound_to 6896
  150.7558  134.6243  159.6162 H   0  0  0  0  0  0  0  0  0  0  0  0  # atno 6908 bound_to 6896
  152.3505  134.7013  160.0289 H   0  0  0  0  0  0  0  0  0  0  0  0  # atno 6909 bound_to 6896
  144.8376  139.6387  143.6031 H   0  0  0  0  0  0  0  0  0  0  0  0  # atno 7974 bound_to 7965
  154.5526  140.0723  156.8693 H   0  0  0  0  0  0  0  0  0  0  0  0  # atno 8008 bound_to 7997
  155.2963  140.3381  155.4231 H   0  0  0  0  0  0  0  0  0  0  0  0  # atno 8009 bound_to 7997
  156.1975  140.1709  156.7954 H   0  0  0  0  0  0  0  0  0  0  0  0  # atno 8010 bound_to 7997
  140.7012  143.6139  150.8677 H   0  0  0  0  0  0  0  0  0  0  0  0  # atno 10167 bound_to 10162
  156.2313  130.7039  151.0861 H   0  0  0  0  0  0  0  0  0  0  0  0  # atno 10718 bound_to 10713
  154.8414  135.3432  154.6394 H   0  0  0  0  0  0  0  0  0  0  0  0  # atno 10763 bound_to 10752
  153.7005  135.6970  153.5069 H   0  0  0  0  0  0  0  0  0  0  0  0  # atno 10764 bound_to 10752
  153.2526  135.4348  155.0768 H   0  0  0  0  0  0  0  0  0  0  0  0  # atno 10765 bound_to 10752
  140.3490  134.2250  155.7682 H   0  0  0  0  0  0  0  0  0  0  0  0  # atno 11005 bound_to 11000
  146.2673  139.6550  142.9320 LP  0  0  0  0  0  0  0  0  0  0  0  0  # atno 17320 bound_to 7965
  145.4761  141.0437  143.2671 LP  0  0  0  0  0  0  0  0  0  0  0  0  # atno 17321 bound_to 7965
  139.9862  143.5897  152.2926 LP  0  0  0  0  0  0  0  0  0  0  0  0  # atno 17342 bound_to 10162
  139.6536  144.7661  151.2100 LP  0  0  0  0  0  0  0  0  0  0  0  0  # atno 17343 bound_to 10162
  157.7134  131.0722  150.6417 LP  0  0  0  0  0  0  0  0  0  0  0  0  # atno 17370 bound_to 10713
  156.6484  130.4478  149.5728 LP  0  0  0  0  0  0  0  0  0  0  0  0  # atno 17371 bound_to 10713
  141.2017  133.7955  157.0425 LP  0  0  0  0  0  0  0  0  0  0  0  0  # atno 17394 bound_to 11000
  140.0719  134.9698  157.1481 LP  0  0  0  0  0  0  0  0  0  0  0  0  # atno 17395 bound_to 11000

$$$$
