AV-unprocessed.smi:1809|AV-procd|sdf|7325|dock3
  -GOLD-   22720 8583D 1   1.00000     0.00000
 Structure written by MMmdl.
 39 41  0  0  0  0  0  0  0  0  3 V2000
  152.4888  141.9335  159.3001 C   0  0  0  0  0  0  0  0  0  0  0  0
  152.0066  141.4470  157.9769 C   0  0  0  0  0  0  0  0  0  0  0  0
  152.5138  140.3682  157.3753 N   0  0  0  0  0  0  0  0  0  0  0  0
  151.9046  140.1157  156.1547 N   0  0  0  0  0  0  0  0  0  0  0  0
  150.9570  141.0120  155.8447 C   0  0  0  0  0  0  0  0  0  0  0  0
  150.2475  140.9462  154.7059 N   0  5  0  0  0  0  0  0  0  0  0  0
  148.9542  140.5536  154.7380 C   0  0  0  0  0  0  0  0  0  0  0  0
  148.2775  140.3392  155.7463 O   0  0  0  0  0  0  0  0  0  0  0  0
  148.4091  140.3988  153.5252 N   0  0  0  0  0  0  0  0  0  0  0  0
  147.0355  139.9863  153.2716 C   0  0  0  0  0  0  0  0  0  0  0  0
  146.9156  138.4569  153.3038 C   0  0  2  0  0  0  0  0  0  0  0  0
  146.4523  137.8910  151.9518 C   0  0  0  0  0  0  0  0  0  0  0  0
  146.2897  136.4162  152.0064 N   0  3  2  0  0  0  0  0  0  0  0  0
  145.5710  135.8875  150.8268 C   0  0  0  0  0  0  0  0  0  0  0  0
  144.0926  135.7556  151.2355 C   0  0  0  0  0  0  0  0  0  0  0  0
  144.0463  136.0722  152.7355 C   0  0  0  0  0  0  0  0  0  0  0  0
  145.5068  135.9625  153.1765 C   0  0  2  0  0  0  0  0  0  0  0  0
  145.8773  136.7001  154.4795 C   0  0  0  0  0  0  0  0  0  0  0  0
  145.9372  138.1036  154.2737 O   0  0  0  0  0  0  0  0  0  0  0  0
  150.7280  142.2491  157.0804 S   0  0  0  0  0  0  0  0  0  0  0  0
  153.4139  142.4963  159.1750 H   0  0  0  0  0  0  0  0  0  0  0  0
  152.6760  141.0914  159.9669 H   0  0  0  0  0  0  0  0  0  0  0  0
  151.7433  142.5828  159.7594 H   0  0  0  0  0  0  0  0  0  0  0  0
  148.9945  140.5799  152.7233 H   0  0  0  0  0  0  0  0  0  0  0  0
  146.3710  140.4350  154.0120 H   0  0  0  0  0  0  0  0  0  0  0  0
  146.7320  140.3631  152.2937 H   0  0  0  0  0  0  0  0  0  0  0  0
  147.8842  138.0296  153.5720 H   0  0  0  0  0  0  0  0  0  0  0  0
  145.5065  138.3578  151.6707 H   0  0  0  0  0  0  0  0  0  0  0  0
  147.1712  138.1398  151.1703 H   0  0  0  0  0  0  0  0  0  0  0  0
  145.7076  136.5070  149.9391 H   0  0  0  0  0  0  0  0  0  0  0  0
  145.9748  134.9007  150.5971 H   0  0  0  0  0  0  0  0  0  0  0  0
  143.4599  136.4452  150.6755 H   0  0  0  0  0  0  0  0  0  0  0  0
  143.7334  134.7454  151.0369 H   0  0  0  0  0  0  0  0  0  0  0  0
  143.6811  137.0889  152.8873 H   0  0  0  0  0  0  0  0  0  0  0  0
  143.3901  135.3984  153.2874 H   0  0  0  0  0  0  0  0  0  0  0  0
  145.7251  134.9021  153.3148 H   0  0  0  0  0  0  0  0  0  0  0  0
  145.1468  136.4826  155.2588 H   0  0  0  0  0  0  0  0  0  0  0  0
  146.8414  136.3500  154.8518 H   0  0  0  0  0  0  0  0  0  0  0  0
  147.2137  136.0104  152.0525 H   0  0  0  0  0  0  0  0  0  0  0  0
  1  2  1  0  0  0  0
  1 21  1  0  0  0  0
  1 22  1  0  0  0  0
  1 23  1  0  0  0  0
  2 20  1  0  0  0  0
  2  3  2  0  0  0  0
  3  4  1  0  0  0  0
  4  5  2  0  0  0  0
  5  6  1  0  0  0  0
  5 20  1  0  0  0  0
  6  7  1  0  0  0  0
  7  8  2  0  0  0  0
  7  9  1  0  0  0  0
  9 10  1  0  0  0  0
  9 24  1  0  0  0  0
 10 11  1  0  0  0  0
 10 25  1  0  0  0  0
 10 26  1  0  0  0  0
 11 19  1  0  0  0  0
 11 12  1  0  0  0  0
 11 27  1  0  0  0  0
 12 13  1  0  0  0  0
 12 28  1  0  0  0  0
 12 29  1  0  0  0  0
 13 17  1  0  0  0  0
 13 14  1  0  0  0  0
 13 39  1  0  0  0  0
 14 15  1  0  0  0  0
 14 30  1  0  0  0  0
 14 31  1  0  0  0  0
 15 16  1  0  0  0  0
 15 32  1  0  0  0  0
 15 33  1  0  0  0  0
 16 17  1  0  0  0  0
 16 34  1  0  0  0  0
 16 35  1  0  0  0  0
 17 18  1  0  0  0  0
 17 36  1  0  0  0  0
 18 19  1  0  0  0  0
 18 37  1  0  0  0  0
 18 38  1  0  0  0  0
M  CHG  1   6  -1
M  CHG  1  13   1
M  END
> <s_m_source_file>
AV-unprocessed.smi

> <i_m_source_file_index>
1809

> <i_lp_mmshare_version>
43012

> <i_f3d_flags>
0

> <s_epik_input>
W0NIM11jMW5uYyhzMSlbTkhdQyg9TylbTkhdW0NIMl1bQ0BIXShbQ0gyXTIpT1tDSDJdW0NAQEhdKE4yMylbQ0gyXVtDSDJdW0NIMl0z

> <s_epik_cmdline>
J2VwaWtfcHl0aG9uJywgJy1waCcsICc3LjAnLCAnLXRuJywgJzgnLCAnLW1hJywgJzIwMCcsICctbWV0YWxfYmluZGluZycsICctaW1hZScsICc8aW5maWxlLm1hZT4nLCAnLW9tYWUnLCAnPG91dGZpbGUubWFlPic=

> <r_lp_tautomer_probability>
1

> <r_epik_Ionization_Penalty>
3.2601

> <r_epik_Ionization_Penalty_Charging>
3.1406

> <r_epik_Ionization_Penalty_Neutral>
0.119497

> <r_epik_State_Penalty>
3.08894

> <r_epik_Charging_Adjusted_Penalty>
6.22954

> <i_epik_Tot_Q>
0

> <i_epik_Tot_abs_Q>
2

> <r_epik_Metal_State_Penalty>
0.510807

> <b_epik_Metal_Only>
1

> <s_lp_Force_Field>
OPLS_2005

> <r_lp_Energy>
31.3106

> <b_lp_Chiralities_Consistent>
1

> <s_lp_Variant>
AV-unprocessed.smi:1809-17

> <Gold.Version>
5.8.1

> <Gold.Id.Protein>
6NUR|6NUR_protein|mol2

> <Gold.PLP.Fitness>
40.8589

> <Gold.PLP.PLP>
-30.0049

> <Gold.PLP.part.hbond>
-4.0000

> <Gold.PLP.part.metal>
0.0000

> <Gold.PLP.part.buried>
-1.8999

> <Gold.PLP.part.nonpolar>
-24.5597

> <Gold.PLP.part.repulsive>
0.4121

> <Gold.PLP.ligand.clash>
0.0000

> <Gold.PLP.ligand.torsion>
1.6125

> <Gold.PLP.Chemscore.Hbond>
4.6880

> <Gold.PLP.Chemscore.CHOScore>
0.0000

> <Gold.PLP.Chemscore.Metal>
0.0000

> <Gold.Chemscore.Hbonds>
donor molecule, donor type, donor heavy atom, donor atom, acceptor molecule, acceptor atom, score
      L1  H     9    24       P1  7957  0.98
      L1  H    13    39       P1  7948  1.92
      P1  H  7989  7998       L1     6  0.70
      P1  H  7997  8008       L1     3  0.83

> <Gold.PLP.Chemscore.Internal.Correction>
0.0149

> <Gold.Rescore>
     Score         DG    S(hbond)    S(metal)    S(lipo)     H(rot)  DE(clash)    DE(int)     intcor
     16.05     -17.81       2.52        0.00      62.49       1.32       0.15       1.62       ----

> <Gold.Chemscore.Fitness>
16.0537

> <Gold.Chemscore.DG>
-17.8149

> <Gold.Chemscore.ZeroCoef>
-5.4800

> <Gold.Chemscore.Hbond>
2.5193

> <Gold.Chemscore.Metal>
0.0000

> <Gold.Chemscore.Lipo>
62.4920

> <Gold.Chemscore.Internal_Hbond>
0.0000

> <Gold.Chemscore.DEClash>
0.1454

> <Gold.Chemscore.DEInternal>
1.6158

> <Gold.Chemscore.Rot>
1.3246

> <Gold.Chemscore.Internal.Correction>
   9.000000E+99

> <Gold.Chemscore.Hbonds>
donor molecule, donor type, donor heavy atom, donor atom, acceptor molecule, acceptor atom, score
      L1  H     9    24       P1  7957  0.93
      L1  H    13    39       P1  7948  0.92
      P1  H  7989  7998       L1     6  0.18
      P1  H  7997  8008       L1     3  0.17

> <Gold.Chemscore.Hbond.Weighted>
-8.4143

> <Gold.Chemscore.Metal.Weighted>
-0.0000

> <Gold.Chemscore.Lipo.Weighted>
-7.3116

> <Gold.Chemscore.Internal_Hbond.Weighted>
0.0000

> <Gold.Chemscore.DEClash.Weighted>
0.1454

> <Gold.Chemscore.DEInternal.Weighted>
1.6158

> <Gold.Chemscore.Rot.Weighted>
3.3910

> <Gold.Chemscore.Internal.Correction.Weighted>
   9.000000E+99

> <Gold.Protein.RotatedTorsions>
[ 6907 6896 6895 6894 ] final   -4.83 input  -60.11 | X-H torsion
[ 7974 7965 7964 7962 ] final  173.60 input  175.53 | X-H torsion
[ 8008 7997 7996 7995 ] final  -73.16 input   59.86 | X-H torsion
[ 10167 10162 10161 10158 ] final  -67.65 input  -65.29 | X-H torsion
[ 10718 10713 10712 10709 ] final   63.12 input   66.30 | X-H torsion
[ 10763 10752 10751 10750 ] final   52.42 input  -60.55 | X-H torsion
[ 11005 11000 10999 10996 ] final  151.32 input  -57.11 | X-H torsion

> <Gold.Protein.ActiveResidues>
 VAL166  LYS551  ARG553  GLY616  TRP617  ASP618  TYR619  PRO620  LYS621  CYS622 
 ASP623  PHE694  ASN695  SER759  ASP760  ASP761  ALA762  ILE779  LEU786  VAL792 
 PHE793  MET794  SER795  GLU796  ALA797  LYS798  CYS799  TRP800  GLU811  SER814 

> <Gold.Protein.RotatedAtoms>
  151.4914  135.1057  159.9804 H   0  0  0  0  0  0  0  0  0  0  0  0  # atno 6907 bound_to 6896
  152.4739  133.8090  159.7004 H   0  0  0  0  0  0  0  0  0  0  0  0  # atno 6908 bound_to 6896
  150.8765  133.7369  159.2971 H   0  0  0  0  0  0  0  0  0  0  0  0  # atno 6909 bound_to 6896
  144.7240  139.9672  143.6436 H   0  0  0  0  0  0  0  0  0  0  0  0  # atno 7974 bound_to 7965
  154.5225  140.0784  156.8197 H   0  0  0  0  0  0  0  0  0  0  0  0  # atno 8008 bound_to 7997
  155.3546  140.3414  155.4221 H   0  0  0  0  0  0  0  0  0  0  0  0  # atno 8009 bound_to 7997
  156.1696  140.1615  156.8458 H   0  0  0  0  0  0  0  0  0  0  0  0  # atno 8010 bound_to 7997
  140.5567  143.2312  151.6808 H   0  0  0  0  0  0  0  0  0  0  0  0  # atno 10167 bound_to 10162
  157.5949  130.9087  149.9675 H   0  0  0  0  0  0  0  0  0  0  0  0  # atno 10718 bound_to 10713
  152.9789  135.5813  154.4576 H   0  0  0  0  0  0  0  0  0  0  0  0  # atno 10763 bound_to 10752
  154.4156  135.2771  155.2011 H   0  0  0  0  0  0  0  0  0  0  0  0  # atno 10764 bound_to 10752
  154.3782  135.6153  153.5830 H   0  0  0  0  0  0  0  0  0  0  0  0  # atno 10765 bound_to 10752
  140.1209  134.8864  157.2070 H   0  0  0  0  0  0  0  0  0  0  0  0  # atno 11005 bound_to 11000
  146.0591  139.3586  143.0592 LP  0  0  0  0  0  0  0  0  0  0  0  0  # atno 17320 bound_to 7965
  145.8115  140.9723  143.0946 LP  0  0  0  0  0  0  0  0  0  0  0  0  # atno 17321 bound_to 7965
  139.5051  144.3730  152.0451 LP  0  0  0  0  0  0  0  0  0  0  0  0  # atno 17342 bound_to 10162
  140.2852  144.3815  150.6106 LP  0  0  0  0  0  0  0  0  0  0  0  0  # atno 17343 bound_to 10162
  156.1009  130.3656  150.0219 LP  0  0  0  0  0  0  0  0  0  0  0  0  # atno 17370 bound_to 10713
  156.8335  130.9400  151.3636 LP  0  0  0  0  0  0  0  0  0  0  0  0  # atno 17371 bound_to 10713
  140.2967  134.3179  155.7300 LP  0  0  0  0  0  0  0  0  0  0  0  0  # atno 17394 bound_to 11000
  141.2151  133.7567  156.9581 LP  0  0  0  0  0  0  0  0  0  0  0  0  # atno 17395 bound_to 11000

$$$$
