AV-unprocessed.smi:1438|AV-procd|sdf|5868|dock10
  -GOLD-   22720 5543D 1   1.00000     0.00000
 Structure written by MMmdl.
 43 44  0  0  0  0  0  0  0  0  1 V2000
  148.9240  134.9135  154.2004 C   0  0  0  0  0  0  0  0  0  0  0  0
  150.3420  134.5810  154.6917 C   0  0  1  0  0  0  0  0  0  0  0  0
  151.2215  135.8345  154.7817 C   0  0  0  0  0  0  0  0  0  0  0  0
  152.2050  135.8556  155.5220 O   0  0  0  0  0  0  0  0  0  0  0  0
  150.8634  136.8709  154.0077 N   0  0  0  0  0  0  0  0  0  0  0  0
  151.6247  138.1050  153.8640 C   0  0  0  0  0  0  0  0  0  0  0  0
  150.9613  139.2644  154.5832 C   0  0  0  0  0  0  0  0  0  0  0  0
  149.6488  139.6569  154.2587 C   0  0  0  0  0  0  0  0  0  0  0  0
  149.0726  140.7175  154.9811 C   0  0  0  0  0  0  0  0  0  0  0  0
  149.7177  141.3787  155.9650 N   0  0  0  0  0  0  0  0  0  0  0  0
  150.9850  141.0133  156.2822 C   0  0  0  0  0  0  0  0  0  0  0  0
  151.6499  141.7209  157.3076 N   0  0  0  0  0  0  0  0  0  0  0  0
  151.0837  143.0269  157.6379 C   0  0  0  0  0  0  0  0  0  0  0  0
  152.0438  143.8166  158.5444 C   0  0  0  0  0  0  0  0  0  0  0  0
  152.3641  143.0454  159.6974 O   0  0  0  0  0  0  0  0  0  0  0  0
  153.0195  141.8292  159.3544 C   0  0  0  0  0  0  0  0  0  0  0  0
  152.0899  140.9689  158.4819 C   0  0  0  0  0  0  0  0  0  0  0  0
  151.6371  139.9488  155.6144 C   0  0  0  0  0  0  0  0  0  0  0  0
  150.2596  133.7508  156.3484 S   0  0  0  0  0  0  0  0  0  0  0  0
  151.1741  132.1739  156.0743 C   0  0  0  0  0  0  0  0  0  0  0  0
  151.0155  134.5517  157.3239 O   0  0  0  0  0  0  0  0  0  0  0  0
  148.8519  133.4240  156.6224 O   0  0  0  0  0  0  0  0  0  0  0  0
  148.9473  135.4193  153.2344 H   0  0  0  0  0  0  0  0  0  0  0  0
  148.3958  135.5580  154.9041 H   0  0  0  0  0  0  0  0  0  0  0  0
  148.3329  134.0054  154.0802 H   0  0  0  0  0  0  0  0  0  0  0  0
  150.7938  133.8700  153.9991 H   0  0  0  0  0  0  0  0  0  0  0  0
  150.0366  136.7776  153.4361 H   0  0  0  0  0  0  0  0  0  0  0  0
  152.6187  137.9477  154.2832 H   0  0  0  0  0  0  0  0  0  0  0  0
  151.7725  138.3496  152.8107 H   0  0  0  0  0  0  0  0  0  0  0  0
  149.0908  139.1518  153.4838 H   0  0  0  0  0  0  0  0  0  0  0  0
  148.0661  141.0433  154.7643 H   0  0  0  0  0  0  0  0  0  0  0  0
  150.8778  143.6157  156.7453 H   0  0  0  0  0  0  0  0  0  0  0  0
  150.1300  142.8781  158.1463 H   0  0  0  0  0  0  0  0  0  0  0  0
  152.9549  144.0832  158.0063 H   0  0  0  0  0  0  0  0  0  0  0  0
  151.5773  144.7497  158.8608 H   0  0  0  0  0  0  0  0  0  0  0  0
  153.9555  142.0410  158.8350 H   0  0  0  0  0  0  0  0  0  0  0  0
  153.2768  141.2944  160.2688 H   0  0  0  0  0  0  0  0  0  0  0  0
  151.2180  140.6592  159.0601 H   0  0  0  0  0  0  0  0  0  0  0  0
  152.6175  140.0646  158.1753 H   0  0  0  0  0  0  0  0  0  0  0  0
  152.6359  139.6443  155.8905 H   0  0  0  0  0  0  0  0  0  0  0  0
  151.1016  131.5570  156.9696 H   0  0  0  0  0  0  0  0  0  0  0  0
  152.2248  132.3823  155.8736 H   0  0  0  0  0  0  0  0  0  0  0  0
  150.7389  131.6380  155.2312 H   0  0  0  0  0  0  0  0  0  0  0  0
  1  2  1  0  0  0  0
  1 23  1  0  0  0  0
  1 24  1  0  0  0  0
  1 25  1  0  0  0  0
  2  3  1  0  0  0  0
  2 19  1  0  0  0  0
  2 26  1  0  0  0  0
  3  4  2  0  0  0  0
  3  5  1  0  0  0  0
  5  6  1  0  0  0  0
  5 27  1  0  0  0  0
  6  7  1  0  0  0  0
  6 28  1  0  0  0  0
  6 29  1  0  0  0  0
  7 18  1  0  0  0  0
  7  8  2  0  0  0  0
  8  9  1  0  0  0  0
  8 30  1  0  0  0  0
  9 10  2  0  0  0  0
  9 31  1  0  0  0  0
 10 11  1  0  0  0  0
 11 12  1  0  0  0  0
 11 18  2  0  0  0  0
 12 17  1  0  0  0  0
 12 13  1  0  0  0  0
 13 14  1  0  0  0  0
 13 32  1  0  0  0  0
 13 33  1  0  0  0  0
 14 15  1  0  0  0  0
 14 34  1  0  0  0  0
 14 35  1  0  0  0  0
 15 16  1  0  0  0  0
 16 17  1  0  0  0  0
 16 36  1  0  0  0  0
 16 37  1  0  0  0  0
 17 38  1  0  0  0  0
 17 39  1  0  0  0  0
 18 40  1  0  0  0  0
 19 20  1  0  0  0  0
 19 21  2  0  0  0  0
 19 22  2  0  0  0  0
 20 41  1  0  0  0  0
 20 42  1  0  0  0  0
 20 43  1  0  0  0  0
M  END
> <s_m_source_file>
AV-unprocessed.smi

> <i_m_source_file_index>
1438

> <i_lp_mmshare_version>
43012

> <i_f3d_flags>
0

> <s_epik_input>
W0NIM11TKD1PKSg9TylbQ0BIXShbQ0gzXSlDKD1PKVtOSF1bQ0gyXWMxW2NIXVtjSF1uYyhbY0hdMSlOMltDSDJdW0NIMl1PW0NIMl1bQ0gyXTI=

> <s_epik_cmdline>
J2VwaWtfcHl0aG9uJywgJy1waCcsICc3LjAnLCAnLXRuJywgJzgnLCAnLW1hJywgJzIwMCcsICctbWV0YWxfYmluZGluZycsICctaW1hZScsICc8aW5maWxlLm1hZT4nLCAnLW9tYWUnLCAnPG91dGZpbGUubWFlPic=

> <r_lp_tautomer_probability>
1

> <r_epik_Ionization_Penalty>
0.00387635

> <r_epik_Ionization_Penalty_Charging>
0

> <r_epik_Ionization_Penalty_Neutral>
0.00387635

> <r_epik_State_Penalty>
0.0027681

> <r_epik_Charging_Adjusted_Penalty>
0.0027681

> <i_epik_Tot_Q>
0

> <i_epik_Tot_abs_Q>
0

> <r_epik_Metal_State_Penalty>
-0

> <b_epik_Metal_Only>
0

> <s_lp_Force_Field>
OPLS_2005

> <r_lp_Energy>
13.2689

> <b_lp_Chiralities_Consistent>
1

> <s_lp_Variant>
AV-unprocessed.smi:1438-2

> <Gold.Version>
5.8.1

> <Gold.Id.Protein>
6NUR|6NUR_protein|mol2

> <Gold.PLP.Fitness>
44.6541

> <Gold.PLP.PLP>
-38.0719

> <Gold.PLP.part.hbond>
-3.9898

> <Gold.PLP.part.metal>
0.0000

> <Gold.PLP.part.buried>
-0.8965

> <Gold.PLP.part.nonpolar>
-34.0746

> <Gold.PLP.part.repulsive>
0.2121

> <Gold.PLP.ligand.clash>
0.0000

> <Gold.PLP.ligand.torsion>
1.1800

> <Gold.PLP.Chemscore.Hbond>
2.8225

> <Gold.PLP.Chemscore.CHOScore>
0.0000

> <Gold.PLP.Chemscore.Metal>
0.0000

> <Gold.Chemscore.Hbonds>
donor molecule, donor type, donor heavy atom, donor atom, acceptor molecule, acceptor atom, score
      L1  H     5    27       P1  7948  0.85
      P1  H  6896  6909       L1    21  0.23
      P1  H 10752 10763       L1     4  0.12

> <Gold.PLP.Chemscore.Internal.Correction>
0.4746

> <Gold.Rescore>
     Score         DG    S(hbond)    S(metal)    S(lipo)     H(rot)  DE(clash)    DE(int)     intcor
     15.06     -18.28       2.35        0.00      87.78       2.08       0.39       2.83       ----

> <Gold.Chemscore.Fitness>
15.0587

> <Gold.Chemscore.DG>
-18.2806

> <Gold.Chemscore.ZeroCoef>
-5.4800

> <Gold.Chemscore.Hbond>
2.3492

> <Gold.Chemscore.Metal>
0.0000

> <Gold.Chemscore.Lipo>
87.7753

> <Gold.Chemscore.Internal_Hbond>
0.0000

> <Gold.Chemscore.DEClash>
0.3872

> <Gold.Chemscore.DEInternal>
2.8347

> <Gold.Chemscore.Rot>
2.0764

> <Gold.Chemscore.Internal.Correction>
   9.000000E+99

> <Gold.Chemscore.Hbonds>
donor molecule, donor type, donor heavy atom, donor atom, acceptor molecule, acceptor atom, score
      L1  H     5    27       P1  7948  0.14
      P1  H  6896  6909       L1    21  0.22
      P1  H 10752 10763       L1     4  0.14

> <Gold.Chemscore.Hbond.Weighted>
-7.8465

> <Gold.Chemscore.Metal.Weighted>
-0.0000

> <Gold.Chemscore.Lipo.Weighted>
-10.2697

> <Gold.Chemscore.Internal_Hbond.Weighted>
0.0000

> <Gold.Chemscore.DEClash.Weighted>
0.3872

> <Gold.Chemscore.DEInternal.Weighted>
2.8347

> <Gold.Chemscore.Rot.Weighted>
5.3155

> <Gold.Chemscore.Internal.Correction.Weighted>
   9.000000E+99

> <Gold.Protein.RotatedTorsions>
[ 6907 6896 6895 6894 ] final   26.18 input  -60.11 | X-H torsion
[ 7974 7965 7964 7962 ] final  116.18 input  175.53 | X-H torsion
[ 8008 7997 7996 7995 ] final -139.52 input   59.86 | X-H torsion
[ 10167 10162 10161 10158 ] final  -37.98 input  -65.29 | X-H torsion
[ 10718 10713 10712 10709 ] final   -4.05 input   66.30 | X-H torsion
[ 10763 10752 10751 10750 ] final  100.11 input  -60.55 | X-H torsion
[ 11005 11000 10999 10996 ] final   39.09 input  -57.11 | X-H torsion

> <Gold.Protein.ActiveResidues>
 VAL166  LYS551  ARG553  GLY616  TRP617  ASP618  TYR619  PRO620  LYS621  CYS622 
 ASP623  PHE694  ASN695  SER759  ASP760  ASP761  ALA762  ILE779  LEU786  VAL792 
 PHE793  MET794  SER795  GLU796  ALA797  LYS798  CYS799  TRP800  GLU811  SER814 

> <Gold.Protein.RotatedAtoms>
  151.9837  135.0015  160.0558 H   0  0  0  0  0  0  0  0  0  0  0  0  # atno 6907 bound_to 6896
  152.1673  133.4616  159.4899 H   0  0  0  0  0  0  0  0  0  0  0  0  # atno 6908 bound_to 6896
  150.6896  134.1915  159.4330 H   0  0  0  0  0  0  0  0  0  0  0  0  # atno 6909 bound_to 6896
  145.1828  139.3041  143.4409 H   0  0  0  0  0  0  0  0  0  0  0  0  # atno 7974 bound_to 7965
  155.4463  140.0535  157.3005 H   0  0  0  0  0  0  0  0  0  0  0  0  # atno 8008 bound_to 7997
  154.4796  140.2076  155.9751 H   0  0  0  0  0  0  0  0  0  0  0  0  # atno 8009 bound_to 7997
  156.1186  140.3192  155.8180 H   0  0  0  0  0  0  0  0  0  0  0  0  # atno 8010 bound_to 7997
  140.7104  143.3307  151.2576 H   0  0  0  0  0  0  0  0  0  0  0  0  # atno 10167 bound_to 10162
  156.7669  130.5287  149.5774 H   0  0  0  0  0  0  0  0  0  0  0  0  # atno 10718 bound_to 10713
  153.3098  135.4090  155.1326 H   0  0  0  0  0  0  0  0  0  0  0  0  # atno 10763 bound_to 10752
  154.8573  135.3561  154.5739 H   0  0  0  0  0  0  0  0  0  0  0  0  # atno 10764 bound_to 10752
  153.6167  135.7066  153.5384 H   0  0  0  0  0  0  0  0  0  0  0  0  # atno 10765 bound_to 10752
  140.2062  134.3810  155.8071 H   0  0  0  0  0  0  0  0  0  0  0  0  # atno 11005 bound_to 11000
  146.3450  140.2013  142.8589 LP  0  0  0  0  0  0  0  0  0  0  0  0  # atno 17320 bound_to 7965
  145.0119  140.8721  143.5219 LP  0  0  0  0  0  0  0  0  0  0  0  0  # atno 17321 bound_to 7965
  139.6788  143.9891  152.2796 LP  0  0  0  0  0  0  0  0  0  0  0  0  # atno 17342 bound_to 10162
  139.9514  144.6618  150.8168 LP  0  0  0  0  0  0  0  0  0  0  0  0  # atno 17343 bound_to 10162
  156.1303  130.6173  151.0323 LP  0  0  0  0  0  0  0  0  0  0  0  0  # atno 17370 bound_to 10713
  157.6709  131.0861  150.7615 LP  0  0  0  0  0  0  0  0  0  0  0  0  # atno 17371 bound_to 10713
  141.2227  133.7119  156.8342 LP  0  0  0  0  0  0  0  0  0  0  0  0  # atno 17394 bound_to 11000
  140.2000  134.8904  157.3158 LP  0  0  0  0  0  0  0  0  0  0  0  0  # atno 17395 bound_to 11000

$$$$
