AV-unprocessed.smi:2764|AV-procd|sdf|10640|dock6
  -GOLD-   2272015 93D 1   1.00000     0.00000
 Structure written by MMmdl.
 47 49  0  0  0  0  0  0  0  0  2 V2000
  148.3886  141.4851  155.5484 O   0  0  0  0  0  0  0  0  0  0  0  0
  148.7270  140.5011  156.2064 C   0  0  0  0  0  0  0  0  0  0  0  0
  149.5468  140.5260  157.2721 N   0  0  0  0  0  0  0  0  0  0  0  0
  150.1506  141.6540  157.8897 C   0  0  0  0  0  0  0  0  0  0  0  0
  151.4676  141.4452  158.3588 C   0  0  0  0  0  0  0  0  0  0  0  0
  152.1531  142.5003  158.9921 C   0  0  0  0  0  0  0  0  0  0  0  0
  151.5011  143.7372  159.1398 C   0  0  0  0  0  0  0  0  0  0  0  0
  152.1191  144.7800  159.7430 F   0  0  0  0  0  0  0  0  0  0  0  0
  150.1899  143.8629  158.6450 C   0  0  0  0  0  0  0  0  0  0  0  0
  149.5319  142.8525  158.0373 N   0  0  0  0  0  0  0  0  0  0  0  0
  148.3154  139.2497  155.9425 N   0  0  0  0  0  0  0  0  0  0  0  0
  147.4075  138.8143  154.8783 C   0  0  2  0  0  0  0  0  0  0  0  0
  147.2324  137.2843  154.8296 C   0  0  0  0  0  0  0  0  0  0  0  0
  146.2464  136.8819  153.7196 C   0  0  0  0  0  0  0  0  0  0  0  0
  146.6780  137.4118  152.3990 N   0  3  1  0  0  0  0  0  0  0  0  0
  145.8396  136.9173  151.2759 C   0  0  0  0  0  0  0  0  0  0  0  0
  145.3561  135.4728  151.5073 C   0  0  2  0  0  0  0  0  0  0  0  0
  146.4364  134.4080  151.4853 C   0  0  0  0  0  0  0  0  0  0  0  0
  145.6318  133.1366  151.2301 C   0  0  0  0  0  0  0  0  0  0  0  0
  144.4932  133.5390  150.4747 O   0  0  0  0  0  0  0  0  0  0  0  0
  144.4351  134.9591  150.4002 C   0  0  0  0  0  0  0  0  0  0  0  0
  146.8060  138.8934  152.4201 C   0  0  0  0  0  0  0  0  0  0  0  0
  147.8125  139.3467  153.4897 C   0  0  0  0  0  0  0  0  0  0  0  0
  149.7495  139.6367  157.7040 H   0  0  0  0  0  0  0  0  0  0  0  0
  151.9523  140.4873  158.2378 H   0  0  0  0  0  0  0  0  0  0  0  0
  153.1597  142.3613  159.3581 H   0  0  0  0  0  0  0  0  0  0  0  0
  149.6544  144.7959  158.7399 H   0  0  0  0  0  0  0  0  0  0  0  0
  148.6614  138.5191  156.5476 H   0  0  0  0  0  0  0  0  0  0  0  0
  146.4393  139.2496  155.1294 H   0  0  0  0  0  0  0  0  0  0  0  0
  148.1882  136.7925  154.6472 H   0  0  0  0  0  0  0  0  0  0  0  0
  146.8740  136.9165  155.7917 H   0  0  0  0  0  0  0  0  0  0  0  0
  146.1869  135.7935  153.6781 H   0  0  0  0  0  0  0  0  0  0  0  0
  145.2447  137.2478  153.9511 H   0  0  0  0  0  0  0  0  0  0  0  0
  144.9530  137.5462  151.1802 H   0  0  0  0  0  0  0  0  0  0  0  0
  146.3677  137.0116  150.3254 H   0  0  0  0  0  0  0  0  0  0  0  0
  144.8179  135.4135  152.4551 H   0  0  0  0  0  0  0  0  0  0  0  0
  147.1280  134.5816  150.6595 H   0  0  0  0  0  0  0  0  0  0  0  0
  147.0111  134.3572  152.4104 H   0  0  0  0  0  0  0  0  0  0  0  0
  146.2113  132.3780  150.7041 H   0  0  0  0  0  0  0  0  0  0  0  0
  145.2877  132.7078  152.1720 H   0  0  0  0  0  0  0  0  0  0  0  0
  143.4120  135.3209  150.5059 H   0  0  0  0  0  0  0  0  0  0  0  0
  144.8011  135.2664  149.4194 H   0  0  0  0  0  0  0  0  0  0  0  0
  147.1305  139.2581  151.4465 H   0  0  0  0  0  0  0  0  0  0  0  0
  145.8295  139.3412  152.6120 H   0  0  0  0  0  0  0  0  0  0  0  0
  147.8677  140.4358  153.5069 H   0  0  0  0  0  0  0  0  0  0  0  0
  148.8049  138.9906  153.2120 H   0  0  0  0  0  0  0  0  0  0  0  0
  147.6041  137.0399  152.2425 H   0  0  0  0  0  0  0  0  0  0  0  0
  1  2  2  0  0  0  0
  2  3  1  0  0  0  0
  2 11  1  0  0  0  0
  3  4  1  0  0  0  0
  3 24  1  0  0  0  0
  4 10  1  0  0  0  0
  4  5  2  0  0  0  0
  5  6  1  0  0  0  0
  5 25  1  0  0  0  0
  6  7  2  0  0  0  0
  6 26  1  0  0  0  0
  7  8  1  0  0  0  0
  7  9  1  0  0  0  0
  9 10  2  0  0  0  0
  9 27  1  0  0  0  0
 11 12  1  0  0  0  0
 11 28  1  0  0  0  0
 12 23  1  0  0  0  0
 12 13  1  0  0  0  0
 12 29  1  0  0  0  0
 13 14  1  0  0  0  0
 13 30  1  0  0  0  0
 13 31  1  0  0  0  0
 14 15  1  0  0  0  0
 14 32  1  0  0  0  0
 14 33  1  0  0  0  0
 15 16  1  0  0  0  0
 15 22  1  0  0  0  0
 15 47  1  0  0  0  0
 16 17  1  0  0  0  0
 16 34  1  0  0  0  0
 16 35  1  0  0  0  0
 17 21  1  0  0  0  0
 17 18  1  0  0  0  0
 17 36  1  0  0  0  0
 18 19  1  0  0  0  0
 18 37  1  0  0  0  0
 18 38  1  0  0  0  0
 19 20  1  0  0  0  0
 19 39  1  0  0  0  0
 19 40  1  0  0  0  0
 20 21  1  0  0  0  0
 21 41  1  0  0  0  0
 21 42  1  0  0  0  0
 22 23  1  0  0  0  0
 22 43  1  0  0  0  0
 22 44  1  0  0  0  0
 23 45  1  0  0  0  0
 23 46  1  0  0  0  0
M  CHG  1  15   1
M  END
> <s_m_source_file>
AV-unprocessed.smi

> <i_m_source_file_index>
2764

> <i_lp_mmshare_version>
43012

> <i_f3d_flags>
0

> <s_epik_input>
bjFbY0hdYyhGKVtjSF1bY0hdYzFbTkhdQyg9TylbTkhdW0NIXTJbQ0gyXVtDSDJdTihbQ0gyXVtDSDJdMilbQ0gyXVtDQEBIXTNbQ0gyXVtDSDJdT1tDSDJdMw==

> <s_epik_cmdline>
J2VwaWtfcHl0aG9uJywgJy1waCcsICc3LjAnLCAnLXRuJywgJzgnLCAnLW1hJywgJzIwMCcsICctbWV0YWxfYmluZGluZycsICctaW1hZScsICc8aW5maWxlLm1hZT4nLCAnLW9tYWUnLCAnPG91dGZpbGUubWFlPic=

> <r_epik_Ionization_Penalty>
0.0075076

> <r_epik_Ionization_Penalty_Charging>
0.00747775

> <r_epik_Ionization_Penalty_Neutral>
2.98483e-05

> <r_epik_State_Penalty>
0.00558817

> <r_epik_Charging_Adjusted_Penalty>
0.0130659

> <i_epik_Tot_Q>
1

> <i_epik_Tot_abs_Q>
1

> <r_epik_Metal_State_Penalty>
-0

> <b_epik_Metal_Only>
0

> <s_lp_Force_Field>
OPLS_2005

> <r_lp_Energy>
38.4399

> <b_lp_Chiralities_Consistent>
1

> <s_lp_Variant>
AV-unprocessed.smi:2764-1

> <Gold.Version>
5.8.1

> <Gold.Id.Protein>
6NUR|6NUR_protein|mol2

> <Gold.PLP.Fitness>
41.4049

> <Gold.PLP.PLP>
-33.5028

> <Gold.PLP.part.hbond>
-1.0000

> <Gold.PLP.part.metal>
0.0000

> <Gold.PLP.part.buried>
-1.3352

> <Gold.PLP.part.nonpolar>
-32.1435

> <Gold.PLP.part.repulsive>
1.1567

> <Gold.PLP.ligand.clash>
0.0000

> <Gold.PLP.ligand.torsion>
0.5598

> <Gold.PLP.Chemscore.Hbond>
2.0000

> <Gold.PLP.Chemscore.CHOScore>
0.9910

> <Gold.PLP.Chemscore.Metal>
0.0000

> <Gold.Chemscore.Hbonds>
donor molecule, donor type, donor heavy atom, donor atom, acceptor molecule, acceptor atom, score
      L1  H    15    47       P1  7948  2.00
      L1  C     9    27       P1  8029  0.94

> <Gold.PLP.Chemscore.Internal.Correction>
0.0486

> <Gold.Rescore>
     Score         DG    S(hbond)    S(metal)    S(lipo)     H(rot)  DE(clash)    DE(int)     intcor
     12.29     -15.14       1.00        0.00      86.64       1.49       1.16       1.69       ----

> <Gold.Chemscore.Fitness>
12.2923

> <Gold.Chemscore.DG>
-15.1443

> <Gold.Chemscore.ZeroCoef>
-5.4800

> <Gold.Chemscore.Hbond>
1.0000

> <Gold.Chemscore.Metal>
0.0000

> <Gold.Chemscore.Lipo>
86.6362

> <Gold.Chemscore.Internal_Hbond>
0.0000

> <Gold.Chemscore.DEClash>
1.1646

> <Gold.Chemscore.DEInternal>
1.6874

> <Gold.Chemscore.Rot>
1.4891

> <Gold.Chemscore.Internal.Correction>
   9.000000E+99

> <Gold.Chemscore.Hbonds>
donor molecule, donor type, donor heavy atom, donor atom, acceptor molecule, acceptor atom, score
      L1  H    15    47       P1  7948  0.99

> <Gold.Chemscore.Hbond.Weighted>
-3.3400

> <Gold.Chemscore.Metal.Weighted>
-0.0000

> <Gold.Chemscore.Lipo.Weighted>
-10.1364

> <Gold.Chemscore.Internal_Hbond.Weighted>
0.0000

> <Gold.Chemscore.DEClash.Weighted>
1.1646

> <Gold.Chemscore.DEInternal.Weighted>
1.6874

> <Gold.Chemscore.Rot.Weighted>
3.8121

> <Gold.Chemscore.Internal.Correction.Weighted>
   9.000000E+99

> <Gold.Protein.RotatedTorsions>
[ 6907 6896 6895 6894 ] final   19.73 input  -60.11 | X-H torsion
[ 7974 7965 7964 7962 ] final -129.99 input  175.53 | X-H torsion
[ 8008 7997 7996 7995 ] final  -92.96 input   59.86 | X-H torsion
[ 10167 10162 10161 10158 ] final  -56.30 input  -65.29 | X-H torsion
[ 10718 10713 10712 10709 ] final  -31.71 input   66.30 | X-H torsion
[ 10763 10752 10751 10750 ] final  -76.65 input  -60.55 | X-H torsion
[ 11005 11000 10999 10996 ] final   55.49 input  -57.11 | X-H torsion

> <Gold.Protein.ActiveResidues>
 VAL166  LYS551  ARG553  GLY616  TRP617  ASP618  TYR619  PRO620  LYS621  CYS622 
 ASP623  PHE694  ASN695  SER759  ASP760  ASP761  ALA762  ILE779  LEU786  VAL792 
 PHE793  MET794  SER795  GLU796  ALA797  LYS798  CYS799  TRP800  GLU811  SER814 

> <Gold.Protein.RotatedAtoms>
  151.8854  135.0437  160.0492 H   0  0  0  0  0  0  0  0  0  0  0  0  # atno 6907 bound_to 6896
  152.2479  133.5185  159.5316 H   0  0  0  0  0  0  0  0  0  0  0  0  # atno 6908 bound_to 6896
  150.7074  134.0917  159.3976 H   0  0  0  0  0  0  0  0  0  0  0  0  # atno 6909 bound_to 6896
  144.9518  140.7352  143.4783 H   0  0  0  0  0  0  0  0  0  0  0  0  # atno 7974 bound_to 7965
  154.7297  140.0503  157.0715 H   0  0  0  0  0  0  0  0  0  0  0  0  # atno 8008 bound_to 7997
  155.0318  140.3159  155.4736 H   0  0  0  0  0  0  0  0  0  0  0  0  # atno 8009 bound_to 7997
  156.2838  140.2148  156.5440 H   0  0  0  0  0  0  0  0  0  0  0  0  # atno 8010 bound_to 7997
  140.6325  143.2466  151.5204 H   0  0  0  0  0  0  0  0  0  0  0  0  # atno 10167 bound_to 10162
  156.3840  130.4361  149.7447 H   0  0  0  0  0  0  0  0  0  0  0  0  # atno 10718 bound_to 10713
  154.5026  135.5790  153.6543 H   0  0  0  0  0  0  0  0  0  0  0  0  # atno 10763 bound_to 10752
  152.9881  135.6139  154.2982 H   0  0  0  0  0  0  0  0  0  0  0  0  # atno 10764 bound_to 10752
  154.2891  135.2849  155.2642 H   0  0  0  0  0  0  0  0  0  0  0  0  # atno 10765 bound_to 10752
  140.0603  134.5611  155.9160 H   0  0  0  0  0  0  0  0  0  0  0  0  # atno 11005 bound_to 11000
  145.2833  139.1910  143.4779 LP  0  0  0  0  0  0  0  0  0  0  0  0  # atno 17320 bound_to 7965
  146.3323  140.2798  142.8610 LP  0  0  0  0  0  0  0  0  0  0  0  0  # atno 17321 bound_to 7965
  139.5538  144.2328  152.1577 LP  0  0  0  0  0  0  0  0  0  0  0  0  # atno 17342 bound_to 10162
  140.1575  144.5057  150.6651 LP  0  0  0  0  0  0  0  0  0  0  0  0  # atno 17343 bound_to 10162
  156.4526  130.7914  151.2935 LP  0  0  0  0  0  0  0  0  0  0  0  0  # atno 17370 bound_to 10713
  157.7494  131.0090  150.3252 LP  0  0  0  0  0  0  0  0  0  0  0  0  # atno 17371 bound_to 10713
  141.1970  133.6594  156.5720 LP  0  0  0  0  0  0  0  0  0  0  0  0  # atno 17394 bound_to 11000
  140.3780  134.7548  157.4642 LP  0  0  0  0  0  0  0  0  0  0  0  0  # atno 17395 bound_to 11000

$$$$
