AV-unprocessed.smi:1986|AV-procd|sdf|8046|dock1
  -GOLD-   2272010243D 1   1.00000     0.00000
 Structure written by MMmdl.
 46 47  0  0  0  0  0  0  0  0  2 V2000
  146.5160  138.6298  154.0356 C   0  0  0  0  0  0  0  0  0  0  0  0
  147.8473  139.2649  154.4747 C   0  0  0  0  0  0  0  0  0  0  0  0
  148.4088  138.7677  155.8468 C   0  0  1  0  0  0  0  0  0  0  0  0
  147.6340  139.5402  156.9474 C   0  0  0  0  0  0  0  0  0  0  0  0
  148.0814  137.2423  155.9950 C   0  0  0  0  0  0  0  0  0  0  0  0
  148.5512  136.6338  157.2401 N   0  0  0  0  0  0  0  0  0  0  0  0
  147.8903  136.6137  158.4076 C   0  0  0  0  0  0  0  0  0  0  0  0
  146.7981  137.1578  158.5766 O   0  0  0  0  0  0  0  0  0  0  0  0
  148.5798  135.8648  159.5574 C   0  0  0  0  0  0  0  0  0  0  0  0
  147.7616  135.7935  160.7768 N   0  0  0  0  0  0  0  0  0  0  0  0
  147.4236  137.0974  161.3408 N   0  5  0  0  0  0  0  0  0  0  0  0
  146.6358  137.1564  162.4472 C   0  0  0  0  0  0  0  0  0  0  0  0
  146.2882  138.2165  162.9624 O   0  0  0  0  0  0  0  0  0  0  0  0
  146.1961  135.9048  163.0416 C   0  0  0  0  0  0  0  0  0  0  0  0
  146.5530  134.7146  162.5202 C   0  0  0  0  0  0  0  0  0  0  0  0
  147.3886  134.6039  161.3308 C   0  0  0  0  0  0  0  0  0  0  0  0
  147.7287  133.5194  160.8563 O   0  0  0  0  0  0  0  0  0  0  0  0
  149.8839  138.9911  155.9404 N   0  0  0  0  0  0  0  0  0  0  0  0
  150.2941  140.3947  156.0841 C   0  0  0  0  0  0  0  0  0  0  0  0
  151.8101  140.5411  156.3012 C   0  0  0  0  0  0  0  0  0  0  0  0
  152.5127  139.9239  155.2305 O   0  0  0  0  0  0  0  0  0  0  0  0
  152.1932  138.5449  155.1009 C   0  0  0  0  0  0  0  0  0  0  0  0
  150.6821  138.3835  154.8661 C   0  0  0  0  0  0  0  0  0  0  0  0
  146.2150  139.0130  153.0608 H   0  0  0  0  0  0  0  0  0  0  0  0
  145.7102  138.8535  154.7341 H   0  0  0  0  0  0  0  0  0  0  0  0
  146.5954  137.5462  153.9495 H   0  0  0  0  0  0  0  0  0  0  0  0
  148.5833  139.1148  153.6856 H   0  0  0  0  0  0  0  0  0  0  0  0
  147.7175  140.3473  154.4875 H   0  0  0  0  0  0  0  0  0  0  0  0
  146.5559  139.4287  156.8333 H   0  0  0  0  0  0  0  0  0  0  0  0
  147.8287  140.6115  156.9171 H   0  0  0  0  0  0  0  0  0  0  0  0
  147.8812  139.1862  157.9481 H   0  0  0  0  0  0  0  0  0  0  0  0
  147.0029  137.0884  155.9498 H   0  0  0  0  0  0  0  0  0  0  0  0
  148.4903  136.6708  155.1619 H   0  0  0  0  0  0  0  0  0  0  0  0
  149.4436  136.1633  157.2020 H   0  0  0  0  0  0  0  0  0  0  0  0
  148.8366  134.8524  159.2397 H   0  0  0  0  0  0  0  0  0  0  0  0
  149.5313  136.3608  159.7576 H   0  0  0  0  0  0  0  0  0  0  0  0
  145.5720  135.9301  163.9227 H   0  0  0  0  0  0  0  0  0  0  0  0
  146.2049  133.8101  162.9960 H   0  0  0  0  0  0  0  0  0  0  0  0
  150.0092  140.9631  155.1984 H   0  0  0  0  0  0  0  0  0  0  0  0
  149.8034  140.8640  156.9338 H   0  0  0  0  0  0  0  0  0  0  0  0
  152.0852  141.5950  156.3459 H   0  0  0  0  0  0  0  0  0  0  0  0
  152.1088  140.0922  157.2499 H   0  0  0  0  0  0  0  0  0  0  0  0
  152.7528  138.1277  154.2636 H   0  0  0  0  0  0  0  0  0  0  0  0
  152.5054  138.0042  155.9958 H   0  0  0  0  0  0  0  0  0  0  0  0
  150.4819  137.3178  154.7814 H   0  0  0  0  0  0  0  0  0  0  0  0
  150.4297  138.8321  153.9055 H   0  0  0  0  0  0  0  0  0  0  0  0
  1  2  1  0  0  0  0
  1 24  1  0  0  0  0
  1 25  1  0  0  0  0
  1 26  1  0  0  0  0
  2  3  1  0  0  0  0
  2 27  1  0  0  0  0
  2 28  1  0  0  0  0
  3  4  1  0  0  0  0
  3  5  1  0  0  0  0
  3 18  1  0  0  0  0
  4 29  1  0  0  0  0
  4 30  1  0  0  0  0
  4 31  1  0  0  0  0
  5  6  1  0  0  0  0
  5 32  1  0  0  0  0
  5 33  1  0  0  0  0
  6  7  1  0  0  0  0
  6 34  1  0  0  0  0
  7  8  2  0  0  0  0
  7  9  1  0  0  0  0
  9 35  1  0  0  0  0
  9 36  1  0  0  0  0
  9 10  1  0  0  0  0
 10 11  1  0  0  0  0
 10 16  1  0  0  0  0
 11 12  1  0  0  0  0
 12 13  2  0  0  0  0
 12 14  1  0  0  0  0
 14 37  1  0  0  0  0
 14 15  2  0  0  0  0
 15 38  1  0  0  0  0
 15 16  1  0  0  0  0
 16 17  2  0  0  0  0
 18 23  1  0  0  0  0
 18 19  1  0  0  0  0
 19 20  1  0  0  0  0
 19 39  1  0  0  0  0
 19 40  1  0  0  0  0
 20 21  1  0  0  0  0
 20 41  1  0  0  0  0
 20 42  1  0  0  0  0
 21 22  1  0  0  0  0
 22 23  1  0  0  0  0
 22 43  1  0  0  0  0
 22 44  1  0  0  0  0
 23 45  1  0  0  0  0
 23 46  1  0  0  0  0
M  CHG  1  11  -1
M  END
> <s_m_source_file>
AV-unprocessed.smi

> <i_m_source_file_index>
1986

> <i_lp_mmshare_version>
43012

> <i_f3d_flags>
0

> <s_epik_input>
W0NIMl0xW0NIMl1PW0NIMl1bQ0gyXU4xW0NAQF0oW0NIM10pKFtDSDJdW0NIM10pW0NIMl1bTkhdQyg9TylbQ0gyXW4yW25IXWMoPU8pW2NIXVtjSF1jMj1P

> <s_epik_cmdline>
J2VwaWtfcHl0aG9uJywgJy1waCcsICc3LjAnLCAnLXRuJywgJzgnLCAnLW1hJywgJzIwMCcsICctbWV0YWxfYmluZGluZycsICctaW1hZScsICc8aW5maWxlLm1hZT4nLCAnLW9tYWUnLCAnPG91dGZpbGUubWFlPic=

> <r_lp_tautomer_probability>
1

> <r_epik_Ionization_Penalty>
0.416475

> <r_epik_Ionization_Penalty_Charging>
0.0978085

> <r_epik_Ionization_Penalty_Neutral>
0.318667

> <r_epik_State_Penalty>
0.355037

> <r_epik_Charging_Adjusted_Penalty>
0.452845

> <i_epik_Tot_Q>
-1

> <i_epik_Tot_abs_Q>
1

> <r_epik_Metal_State_Penalty>
0.355037

> <b_epik_Metal_Only>
0

> <s_lp_Force_Field>
OPLS_2005

> <r_lp_Energy>
59.1101

> <b_lp_Chiralities_Consistent>
1

> <s_lp_Variant>
AV-unprocessed.smi:1986-1

> <Gold.Version>
5.8.1

> <Gold.Id.Protein>
6NUR|6NUR_protein|mol2

> <Gold.PLP.Fitness>
43.1150

> <Gold.PLP.PLP>
-30.8301

> <Gold.PLP.part.hbond>
-5.5429

> <Gold.PLP.part.metal>
0.0000

> <Gold.PLP.part.buried>
-5.3101

> <Gold.PLP.part.nonpolar>
-21.8827

> <Gold.PLP.part.repulsive>
0.0260

> <Gold.PLP.ligand.clash>
0.0000

> <Gold.PLP.ligand.torsion>
0.6613

> <Gold.PLP.Chemscore.Hbond>
4.4832

> <Gold.PLP.Chemscore.CHOScore>
0.0000

> <Gold.PLP.Chemscore.Metal>
0.0000

> <Gold.Chemscore.Hbonds>
donor molecule, donor type, donor heavy atom, donor atom, acceptor molecule, acceptor atom, score
      P1  H  6931  6943       L1    11  1.78
      P1  H  6934  6947       L1    11  1.25
      P1  H  7989  7998       L1    21  0.44
      P1  H  7997  8008       L1    21  0.86

> <Gold.PLP.Chemscore.Internal.Correction>
0.1579

> <Gold.Rescore>
     Score         DG    S(hbond)    S(metal)    S(lipo)     H(rot)  DE(clash)    DE(int)     intcor
      7.79     -10.45       1.45        0.00      53.90       2.42       0.22       2.44       ----

> <Gold.Chemscore.Fitness>
7.7886

> <Gold.Chemscore.DG>
-10.4466

> <Gold.Chemscore.ZeroCoef>
-5.4800

> <Gold.Chemscore.Hbond>
1.4536

> <Gold.Chemscore.Metal>
0.0000

> <Gold.Chemscore.Lipo>
53.8958

> <Gold.Chemscore.Internal_Hbond>
0.0000

> <Gold.Chemscore.DEClash>
0.2187

> <Gold.Chemscore.DEInternal>
2.4393

> <Gold.Chemscore.Rot>
2.4197

> <Gold.Chemscore.Internal.Correction>
   9.000000E+99

> <Gold.Chemscore.Hbonds>
donor molecule, donor type, donor heavy atom, donor atom, acceptor molecule, acceptor atom, score
      P1  H  6931  6943       L1    11  0.26
      P1  H  6934  6947       L1    11  0.05
      P1  H  7989  7998       L1    21  0.10
      P1  H  7997  8008       L1    21  0.16

> <Gold.Chemscore.Hbond.Weighted>
-4.8551

> <Gold.Chemscore.Metal.Weighted>
-0.0000

> <Gold.Chemscore.Lipo.Weighted>
-6.3058

> <Gold.Chemscore.Internal_Hbond.Weighted>
0.0000

> <Gold.Chemscore.DEClash.Weighted>
0.2187

> <Gold.Chemscore.DEInternal.Weighted>
2.4393

> <Gold.Chemscore.Rot.Weighted>
6.1943

> <Gold.Chemscore.Internal.Correction.Weighted>
   9.000000E+99

> <Gold.Protein.RotatedTorsions>
[ 6907 6896 6895 6894 ] final   60.81 input  -60.11 | X-H torsion
[ 7974 7965 7964 7962 ] final  119.90 input  175.53 | X-H torsion
[ 8008 7997 7996 7995 ] final  -15.24 input   59.86 | X-H torsion
[ 10167 10162 10161 10158 ] final   72.59 input  -65.29 | X-H torsion
[ 10718 10713 10712 10709 ] final -161.31 input   66.30 | X-H torsion
[ 10763 10752 10751 10750 ] final  142.33 input  -60.55 | X-H torsion
[ 11005 11000 10999 10996 ] final -154.90 input  -57.11 | X-H torsion

> <Gold.Protein.ActiveResidues>
 VAL166  LYS551  ARG553  GLY616  TRP617  ASP618  TYR619  PRO620  LYS621  CYS622 
 ASP623  PHE694  ASN695  SER759  ASP760  ASP761  ALA762  ILE779  LEU786  VAL792 
 PHE793  MET794  SER795  GLU796  ALA797  LYS798  CYS799  TRP800  GLU811  SER814 

> <Gold.Protein.RotatedAtoms>
  152.4035  134.6246  160.0059 H   0  0  0  0  0  0  0  0  0  0  0  0  # atno 6907 bound_to 6896
  151.6444  133.3318  159.3145 H   0  0  0  0  0  0  0  0  0  0  0  0  # atno 6908 bound_to 6896
  150.7932  134.7015  159.6597 H   0  0  0  0  0  0  0  0  0  0  0  0  # atno 6909 bound_to 6896
  145.1376  139.3288  143.4632 H   0  0  0  0  0  0  0  0  0  0  0  0  # atno 7974 bound_to 7965
  154.5146  140.2201  155.9091 H   0  0  0  0  0  0  0  0  0  0  0  0  # atno 8008 bound_to 7997
  156.1592  140.3145  155.8744 H   0  0  0  0  0  0  0  0  0  0  0  0  # atno 8009 bound_to 7997
  155.3785  140.0471  157.3035 H   0  0  0  0  0  0  0  0  0  0  0  0  # atno 8010 bound_to 7997
  140.0337  144.5445  150.7487 H   0  0  0  0  0  0  0  0  0  0  0  0  # atno 10167 bound_to 10162
  156.5944  130.8784  151.2898 H   0  0  0  0  0  0  0  0  0  0  0  0  # atno 10718 bound_to 10713
  153.9541  135.2967  155.3437 H   0  0  0  0  0  0  0  0  0  0  0  0  # atno 10763 bound_to 10752
  154.7410  135.5024  153.9126 H   0  0  0  0  0  0  0  0  0  0  0  0  # atno 10764 bound_to 10752
  153.0979  135.6726  153.9837 H   0  0  0  0  0  0  0  0  0  0  0  0  # atno 10765 bound_to 10752
  140.6923  134.4028  157.5218 H   0  0  0  0  0  0  0  0  0  0  0  0  # atno 11005 bound_to 11000
  146.3508  140.1401  142.8595 LP  0  0  0  0  0  0  0  0  0  0  0  0  # atno 17320 bound_to 7965
  145.0567  140.9057  143.4963 LP  0  0  0  0  0  0  0  0  0  0  0  0  # atno 17321 bound_to 7965
  140.7291  143.2669  151.4016 LP  0  0  0  0  0  0  0  0  0  0  0  0  # atno 17342 bound_to 10162
  139.6059  144.1198  152.2249 LP  0  0  0  0  0  0  0  0  0  0  0  0  # atno 17343 bound_to 10162
  157.7295  130.9673  150.1792 LP  0  0  0  0  0  0  0  0  0  0  0  0  # atno 17370 bound_to 10713
  156.2522  130.3702  149.8220 LP  0  0  0  0  0  0  0  0  0  0  0  0  # atno 17371 bound_to 10713
  139.8920  134.8766  156.2293 LP  0  0  0  0  0  0  0  0  0  0  0  0  # atno 17394 bound_to 11000
  141.0231  133.7030  156.1302 LP  0  0  0  0  0  0  0  0  0  0  0  0  # atno 17395 bound_to 11000

$$$$
