AV-unprocessed.smi:91|AV-procd|sdf|838|dock9
  -GOLD-   2262017273D 1   1.00000     0.00000
 Structure written by MMmdl.
 60 63  0  0  0  0  0  0  0  0  1 V2000
  155.4384  139.9337  161.2413 C   0  0  0  0  0  0  0  0  0  0  0  0
  154.6171  140.3370  160.1569 O   0  0  0  0  0  0  0  0  0  0  0  0
  153.7125  141.3892  160.4681 C   0  0  0  0  0  0  0  0  0  0  0  0
  153.0428  141.9836  159.2166 C   0  0  1  0  0  0  0  0  0  0  0  0
  152.2870  140.9153  158.4059 C   0  0  0  0  0  0  0  0  0  0  0  0
  151.5369  141.5465  157.3323 N   0  0  0  0  0  0  0  0  0  0  0  0
  151.0643  140.6701  156.4203 C   0  0  0  0  0  0  0  0  0  0  0  0
  150.4370  141.1955  155.3392 N   0  0  0  0  0  0  0  0  0  0  0  0
  149.9542  140.3906  154.3882 C   0  0  0  0  0  0  0  0  0  0  0  0
  150.0009  139.0588  154.3191 N   0  0  0  0  0  0  0  0  0  0  0  0
  150.6452  138.5279  155.3975 C   0  0  0  0  0  0  0  0  0  0  0  0
  151.2029  139.2538  156.4881 C   0  0  0  0  0  0  0  0  0  0  0  0
  151.7890  138.3723  157.3893 N   0  0  0  0  0  0  0  0  0  0  0  0
  151.5872  137.1950  156.8641 C   0  0  0  0  0  0  0  0  0  0  0  0
  150.9144  137.1968  155.6643 N   0  0  0  0  0  0  0  0  0  0  0  0
  150.5718  136.0341  154.8636 C   0  0  0  0  0  0  0  0  0  0  0  0
  149.6205  135.0533  155.5934 C   0  0  2  0  0  0  0  0  0  0  0  0
  150.3543  134.1720  156.6338 C   0  0  0  0  0  0  0  0  0  0  0  0
  149.5616  133.9622  157.7842 O   0  0  0  0  0  0  0  0  0  0  0  0
  148.7905  134.2136  154.5895 C   0  0  1  0  0  0  0  0  0  0  0  0
  149.6061  133.3160  153.6757 C   0  0  0  0  0  0  0  0  0  0  0  0
  148.5578  132.3259  153.1818 C   0  0  0  0  0  0  0  0  0  0  0  0
  147.6501  132.1608  154.2648 O   0  0  0  0  0  0  0  0  0  0  0  0
  147.8601  133.1812  155.2362 C   0  0  0  0  0  0  0  0  0  0  0  0
  150.6117  142.5646  157.8109 C   0  0  0  0  0  0  0  0  0  0  0  0
  151.3623  143.6365  158.6310 C   0  0  0  0  0  0  0  0  0  0  0  0
  152.2627  144.5218  157.7429 C   0  0  0  0  0  0  0  0  0  0  0  0
  150.3523  144.5270  159.3709 C   0  0  0  0  0  0  0  0  0  0  0  0
  152.1235  142.9862  159.6568 O   0  0  0  0  0  0  0  0  0  0  0  0
  156.0508  139.0860  160.9341 H   0  0  0  0  0  0  0  0  0  0  0  0
  154.8395  139.6195  162.0970 H   0  0  0  0  0  0  0  0  0  0  0  0
  156.1134  140.7285  161.5579 H   0  0  0  0  0  0  0  0  0  0  0  0
  152.9430  140.9780  161.1222 H   0  0  0  0  0  0  0  0  0  0  0  0
  154.2179  142.1665  161.0432 H   0  0  0  0  0  0  0  0  0  0  0  0
  153.8036  142.4505  158.5932 H   0  0  0  0  0  0  0  0  0  0  0  0
  152.9913  140.1892  157.9974 H   0  0  0  0  0  0  0  0  0  0  0  0
  151.5973  140.3680  159.0505 H   0  0  0  0  0  0  0  0  0  0  0  0
  149.4616  140.8844  153.5636 H   0  0  0  0  0  0  0  0  0  0  0  0
  151.9332  136.2868  157.3361 H   0  0  0  0  0  0  0  0  0  0  0  0
  150.1172  136.3951  153.9410 H   0  0  0  0  0  0  0  0  0  0  0  0
  151.4914  135.5249  154.5729 H   0  0  0  0  0  0  0  0  0  0  0  0
  148.9145  135.6646  156.1577 H   0  0  0  0  0  0  0  0  0  0  0  0
  150.6193  133.2034  156.2103 H   0  0  0  0  0  0  0  0  0  0  0  0
  151.2953  134.6304  156.9371 H   0  0  0  0  0  0  0  0  0  0  0  0
  148.7447  134.4250  157.6757 H   0  0  0  0  0  0  0  0  0  0  0  0
  148.1868  134.8779  153.9686 H   0  0  0  0  0  0  0  0  0  0  0  0
  150.0862  133.8542  152.8579 H   0  0  0  0  0  0  0  0  0  0  0  0
  150.3780  132.7927  154.2421 H   0  0  0  0  0  0  0  0  0  0  0  0
  148.0133  132.7412  152.3329 H   0  0  0  0  0  0  0  0  0  0  0  0
  148.9922  131.3745  152.8741 H   0  0  0  0  0  0  0  0  0  0  0  0
  148.3316  132.7266  156.1085 H   0  0  0  0  0  0  0  0  0  0  0  0
  146.9129  133.6169  155.5552 H   0  0  0  0  0  0  0  0  0  0  0  0
  150.0864  143.0212  156.9707 H   0  0  0  0  0  0  0  0  0  0  0  0
  149.8592  142.0949  158.4445 H   0  0  0  0  0  0  0  0  0  0  0  0
  151.6648  145.1069  157.0436 H   0  0  0  0  0  0  0  0  0  0  0  0
  152.9646  143.9397  157.1464 H   0  0  0  0  0  0  0  0  0  0  0  0
  152.8420  145.2215  158.3458 H   0  0  0  0  0  0  0  0  0  0  0  0
  149.7021  145.0553  158.6726 H   0  0  0  0  0  0  0  0  0  0  0  0
  150.8591  145.2744  159.9824 H   0  0  0  0  0  0  0  0  0  0  0  0
  149.7170  143.9382  160.0336 H   0  0  0  0  0  0  0  0  0  0  0  0
  1  2  1  0  0  0  0
  1 30  1  0  0  0  0
  1 31  1  0  0  0  0
  1 32  1  0  0  0  0
  2  3  1  0  0  0  0
  3  4  1  0  0  0  0
  3 33  1  0  0  0  0
  3 34  1  0  0  0  0
  4 29  1  0  0  0  0
  4  5  1  0  0  0  0
  4 35  1  0  0  0  0
  5  6  1  0  0  0  0
  5 36  1  0  0  0  0
  5 37  1  0  0  0  0
  6  7  1  0  0  0  0
  6 25  1  0  0  0  0
  7 12  1  0  0  0  0
  7  8  2  0  0  0  0
  8  9  1  0  0  0  0
  9 10  2  0  0  0  0
  9 38  1  0  0  0  0
 10 11  1  0  0  0  0
 11 15  1  0  0  0  0
 11 12  2  0  0  0  0
 12 13  1  0  0  0  0
 13 14  2  0  0  0  0
 14 15  1  0  0  0  0
 14 39  1  0  0  0  0
 15 16  1  0  0  0  0
 16 17  1  0  0  0  0
 16 40  1  0  0  0  0
 16 41  1  0  0  0  0
 17 18  1  0  0  0  0
 17 20  1  0  0  0  0
 17 42  1  0  0  0  0
 18 19  1  0  0  0  0
 18 43  1  0  0  0  0
 18 44  1  0  0  0  0
 19 45  1  0  0  0  0
 20 24  1  0  0  0  0
 20 21  1  0  0  0  0
 20 46  1  0  0  0  0
 21 22  1  0  0  0  0
 21 47  1  0  0  0  0
 21 48  1  0  0  0  0
 22 23  1  0  0  0  0
 22 49  1  0  0  0  0
 22 50  1  0  0  0  0
 23 24  1  0  0  0  0
 24 51  1  0  0  0  0
 24 52  1  0  0  0  0
 25 26  1  0  0  0  0
 25 53  1  0  0  0  0
 25 54  1  0  0  0  0
 26 27  1  0  0  0  0
 26 28  1  0  0  0  0
 26 29  1  0  0  0  0
 27 55  1  0  0  0  0
 27 56  1  0  0  0  0
 27 57  1  0  0  0  0
 28 58  1  0  0  0  0
 28 59  1  0  0  0  0
 28 60  1  0  0  0  0
M  END
> <s_m_source_file>
AV-unprocessed.smi

> <i_m_source_file_index>
91

> <i_lp_mmshare_version>
43012

> <i_f3d_flags>
0

> <s_epik_input>
W0NIM11PW0NIMl1bQ0BASF0oTzEpW0NIMl1OKFtDSDJdQzEoW0NIM10pW0NIM10pYyhuW2NIXW4yKWMoYzIzKW5bY0hdbjNbQ0gyXVtDQEhdKFtDSDJdW09IXSlbQ0BASF00W0NIMl1bQ0gyXU9bQ0gyXTQ=

> <s_epik_cmdline>
J2VwaWtfcHl0aG9uJywgJy1waCcsICc3LjAnLCAnLXRuJywgJzgnLCAnLW1hJywgJzIwMCcsICctbWV0YWxfYmluZGluZycsICctaW1hZScsICc8aW5maWxlLm1hZT4nLCAnLW9tYWUnLCAnPG91dGZpbGUubWFlPic=

> <r_lp_tautomer_probability>
1

> <r_epik_Ionization_Penalty>
8.63591e-05

> <r_epik_Ionization_Penalty_Charging>
0

> <r_epik_Ionization_Penalty_Neutral>
8.63591e-05

> <r_epik_State_Penalty>
-0

> <r_epik_Charging_Adjusted_Penalty>
0

> <i_epik_Tot_Q>
0

> <i_epik_Tot_abs_Q>
0

> <r_epik_Metal_State_Penalty>
-0

> <b_epik_Metal_Only>
0

> <s_lp_Force_Field>
OPLS_2005

> <r_lp_Energy>
49.535

> <b_lp_Chiralities_Consistent>
1

> <s_lp_Variant>
AV-unprocessed.smi:91-6

> <Gold.Version>
5.8.1

> <Gold.Id.Protein>
6NUR|6NUR_protein|mol2

> <Gold.PLP.Fitness>
49.3238

> <Gold.PLP.PLP>
-44.9820

> <Gold.PLP.part.hbond>
-2.0000

> <Gold.PLP.part.metal>
0.0000

> <Gold.PLP.part.buried>
-4.2879

> <Gold.PLP.part.nonpolar>
-39.0916

> <Gold.PLP.part.repulsive>
0.3197

> <Gold.PLP.ligand.clash>
0.0000

> <Gold.PLP.ligand.torsion>
0.8608

> <Gold.PLP.Chemscore.Hbond>
1.0000

> <Gold.PLP.Chemscore.CHOScore>
0.9073

> <Gold.PLP.Chemscore.Metal>
0.0000

> <Gold.Chemscore.Hbonds>
donor molecule, donor type, donor heavy atom, donor atom, acceptor molecule, acceptor atom, score
      P1  H  6896  6909       L1    19  0.99
      L1  C     9    38       P1  7957  0.83

> <Gold.PLP.Chemscore.Internal.Correction>
0.3415

> <Gold.Rescore>
     Score         DG    S(hbond)    S(metal)    S(lipo)     H(rot)  DE(clash)    DE(int)     intcor
     11.71     -14.35       0.97        0.00     114.37       3.03       0.11       2.52       ----

> <Gold.Chemscore.Fitness>
11.7148

> <Gold.Chemscore.DG>
-14.3471

> <Gold.Chemscore.ZeroCoef>
-5.4800

> <Gold.Chemscore.Hbond>
0.9697

> <Gold.Chemscore.Metal>
0.0000

> <Gold.Chemscore.Lipo>
114.3686

> <Gold.Chemscore.Internal_Hbond>
0.0000

> <Gold.Chemscore.DEClash>
0.1145

> <Gold.Chemscore.DEInternal>
2.5177

> <Gold.Chemscore.Rot>
3.0284

> <Gold.Chemscore.Internal.Correction>
   9.000000E+99

> <Gold.Chemscore.Hbonds>
donor molecule, donor type, donor heavy atom, donor atom, acceptor molecule, acceptor atom, score
      P1  H  6896  6909       L1    19  0.67

> <Gold.Chemscore.Hbond.Weighted>
-3.2388

> <Gold.Chemscore.Metal.Weighted>
-0.0000

> <Gold.Chemscore.Lipo.Weighted>
-13.3811

> <Gold.Chemscore.Internal_Hbond.Weighted>
0.0000

> <Gold.Chemscore.DEClash.Weighted>
0.1145

> <Gold.Chemscore.DEInternal.Weighted>
2.5177

> <Gold.Chemscore.Rot.Weighted>
7.7528

> <Gold.Chemscore.Internal.Correction.Weighted>
   9.000000E+99

> <Gold.Protein.RotatedTorsions>
[ 6907 6896 6895 6894 ] final   29.95 input  -60.11 | X-H torsion
[ 7974 7965 7964 7962 ] final  173.39 input  175.53 | X-H torsion
[ 8008 7997 7996 7995 ] final -119.52 input   59.86 | X-H torsion
[ 10167 10162 10161 10158 ] final  -88.46 input  -65.29 | X-H torsion
[ 10718 10713 10712 10709 ] final  158.42 input   66.30 | X-H torsion
[ 10763 10752 10751 10750 ] final   52.24 input  -60.55 | X-H torsion
[ 11005 11000 10999 10996 ] final -151.31 input  -57.11 | X-H torsion

> <Gold.Protein.ActiveResidues>
 VAL166  LYS551  ARG553  GLY616  TRP617  ASP618  TYR619  PRO620  LYS621  CYS622 
 ASP623  PHE694  ASN695  SER759  ASP760  ASP761  ALA762  ILE779  LEU786  VAL792 
 PHE793  MET794  SER795  GLU796  ALA797  LYS798  CYS799  TRP800  GLU811  SER814 

> <Gold.Protein.RotatedAtoms>
  152.0390  134.9723  160.0573 H   0  0  0  0  0  0  0  0  0  0  0  0  # atno 6907 bound_to 6896
  152.1169  133.4327  159.4665 H   0  0  0  0  0  0  0  0  0  0  0  0  # atno 6908 bound_to 6896
  150.6846  134.2500  159.4550 H   0  0  0  0  0  0  0  0  0  0  0  0  # atno 6909 bound_to 6896
  144.7245  139.9640  143.6435 H   0  0  0  0  0  0  0  0  0  0  0  0  # atno 7974 bound_to 7965
  155.1171  140.0398  157.2740 H   0  0  0  0  0  0  0  0  0  0  0  0  # atno 8008 bound_to 7997
  154.6641  140.2597  155.7051 H   0  0  0  0  0  0  0  0  0  0  0  0  # atno 8009 bound_to 7997
  156.2631  140.2811  156.1125 H   0  0  0  0  0  0  0  0  0  0  0  0  # atno 8010 bound_to 7997
  140.3745  143.2778  151.9460 H   0  0  0  0  0  0  0  0  0  0  0  0  # atno 10167 bound_to 10162
  157.1781  131.0626  151.2147 H   0  0  0  0  0  0  0  0  0  0  0  0  # atno 10718 bound_to 10713
  152.9788  135.5819  154.4547 H   0  0  0  0  0  0  0  0  0  0  0  0  # atno 10763 bound_to 10752
  154.4131  135.2770  155.2026 H   0  0  0  0  0  0  0  0  0  0  0  0  # atno 10764 bound_to 10752
  154.3807  135.6147  153.5843 H   0  0  0  0  0  0  0  0  0  0  0  0  # atno 10765 bound_to 10752
  140.7310  134.3621  157.5166 H   0  0  0  0  0  0  0  0  0  0  0  0  # atno 11005 bound_to 11000
  146.0615  139.3608  143.0578 LP  0  0  0  0  0  0  0  0  0  0  0  0  # atno 17320 bound_to 7965
  145.8087  140.9736  143.0960 LP  0  0  0  0  0  0  0  0  0  0  0  0  # atno 17321 bound_to 7965
  139.4800  144.5876  151.7826 LP  0  0  0  0  0  0  0  0  0  0  0  0  # atno 17342 bound_to 10162
  140.5000  144.1183  150.5969 LP  0  0  0  0  0  0  0  0  0  0  0  0  # atno 17343 bound_to 10162
  157.3979  130.7317  149.6745 LP  0  0  0  0  0  0  0  0  0  0  0  0  # atno 17370 bound_to 10713
  155.9728  130.4129  150.4053 LP  0  0  0  0  0  0  0  0  0  0  0  0  # atno 17371 bound_to 10713
  139.8826  134.9018  156.2819 LP  0  0  0  0  0  0  0  0  0  0  0  0  # atno 17394 bound_to 11000
  140.9921  133.7202  156.0830 LP  0  0  0  0  0  0  0  0  0  0  0  0  # atno 17395 bound_to 11000

$$$$
