AV-unprocessed.smi:2869|AV-procd|sdf|11028|dock10
  -GOLD-   2272015493D 1   1.00000     0.00000
 Structure written by MMmdl.
 49 51  0  0  0  0  0  0  0  0  1 V2000
  149.4317  141.1586  153.7430 N   0  0  0  0  0  0  0  0  0  0  0  0
  149.8562  141.1845  154.8195 C   0  0  0  0  0  0  0  0  0  0  0  0
  150.3702  141.2452  156.1478 C   0  0  0  0  0  0  0  0  0  0  0  0
  150.5655  142.4196  156.7818 C   0  0  0  0  0  0  0  0  0  0  0  0
  151.0504  142.4950  158.0692 N   0  0  0  0  0  0  0  0  0  0  0  0
  151.3816  143.7564  158.6704 C   0  0  0  0  0  0  0  0  0  0  0  0
  152.3353  144.7117  157.9794 C   0  0  0  0  0  0  0  0  0  0  0  0
  152.7786  143.9638  159.2128 C   0  0  0  0  0  0  0  0  0  0  0  0
  151.4454  141.3220  158.7494 C   0  0  0  0  0  0  0  0  0  0  0  0
  151.9564  141.3761  159.8709 O   0  0  0  0  0  0  0  0  0  0  0  0
  151.2392  140.0797  158.1020 N   0  0  0  0  0  0  0  0  0  0  0  0
  151.5937  138.8359  158.8209 C   0  0  0  0  0  0  0  0  0  0  0  0
  152.9963  138.8657  159.4470 C   0  0  0  0  0  0  0  0  0  0  0  0
  153.8905  139.5682  158.9730 O   0  0  0  0  0  0  0  0  0  0  0  0
  153.1657  138.0873  160.5270 N   0  0  0  0  0  0  0  0  0  0  0  0
  154.3991  137.9537  161.3029 C   0  0  0  0  0  0  0  0  0  0  0  0
  154.1354  136.9030  162.4062 C   0  0  0  0  0  0  0  0  0  0  0  0
  155.3374  136.0616  162.8877 C   0  0  0  0  0  0  0  0  0  0  0  0
  156.5722  136.8010  163.4343 C   0  0  0  0  0  0  0  0  0  0  0  0
  156.2597  138.0196  164.3209 C   0  0  0  0  0  0  0  0  0  0  0  0
  156.6268  139.3722  163.6871 C   0  0  0  0  0  0  0  0  0  0  0  0
  156.2580  139.5679  162.2030 C   0  0  0  0  0  0  0  0  0  0  0  0
  154.7789  139.3616  161.8351 C   0  0  0  0  0  0  0  0  0  0  0  0
  150.6864  139.9763  156.7998 C   0  0  0  0  0  0  0  0  0  0  0  0
  150.4972  138.8772  156.2755 O   0  0  0  0  0  0  0  0  0  0  0  0
  150.3260  143.3384  156.2660 H   0  0  0  0  0  0  0  0  0  0  0  0
  150.5792  144.2210  159.2410 H   0  0  0  0  0  0  0  0  0  0  0  0
  152.7735  144.4074  157.0305 H   0  0  0  0  0  0  0  0  0  0  0  0
  152.1371  145.7769  158.0798 H   0  0  0  0  0  0  0  0  0  0  0  0
  152.8791  144.5309  160.1359 H   0  0  0  0  0  0  0  0  0  0  0  0
  153.5072  143.1670  159.0747 H   0  0  0  0  0  0  0  0  0  0  0  0
  150.8669  138.6238  159.6068 H   0  0  0  0  0  0  0  0  0  0  0  0
  151.5294  137.9670  158.1643 H   0  0  0  0  0  0  0  0  0  0  0  0
  152.3743  137.5459  160.8429 H   0  0  0  0  0  0  0  0  0  0  0  0
  155.1833  137.5795  160.6422 H   0  0  0  0  0  0  0  0  0  0  0  0
  153.6272  137.3713  163.2488 H   0  0  0  0  0  0  0  0  0  0  0  0
  153.4114  136.1782  162.0294 H   0  0  0  0  0  0  0  0  0  0  0  0
  154.9725  135.3942  163.6693 H   0  0  0  0  0  0  0  0  0  0  0  0
  155.6600  135.4057  162.0783 H   0  0  0  0  0  0  0  0  0  0  0  0
  157.1516  136.0858  164.0195 H   0  0  0  0  0  0  0  0  0  0  0  0
  157.2363  137.0718  162.6149 H   0  0  0  0  0  0  0  0  0  0  0  0
  155.2164  138.0233  164.6323 H   0  0  0  0  0  0  0  0  0  0  0  0
  156.8188  137.9273  165.2529 H   0  0  0  0  0  0  0  0  0  0  0  0
  156.1725  140.1679  164.2786 H   0  0  0  0  0  0  0  0  0  0  0  0
  157.7035  139.5166  163.7826 H   0  0  0  0  0  0  0  0  0  0  0  0
  156.5187  140.5978  161.9555 H   0  0  0  0  0  0  0  0  0  0  0  0
  156.8937  138.9673  161.5532 H   0  0  0  0  0  0  0  0  0  0  0  0
  154.5680  140.0848  161.0453 H   0  0  0  0  0  0  0  0  0  0  0  0
  154.1316  139.6550  162.6624 H   0  0  0  0  0  0  0  0  0  0  0  0
  1  2  3  0  0  0  0
  2  3  1  0  0  0  0
  3 24  1  0  0  0  0
  3  4  2  0  0  0  0
  4  5  1  0  0  0  0
  4 26  1  0  0  0  0
  5  6  1  0  0  0  0
  5  9  1  0  0  0  0
  6  8  1  0  0  0  0
  6  7  1  0  0  0  0
  6 27  1  0  0  0  0
  7  8  1  0  0  0  0
  7 28  1  0  0  0  0
  7 29  1  0  0  0  0
  8 30  1  0  0  0  0
  8 31  1  0  0  0  0
  9 10  2  0  0  0  0
  9 11  1  0  0  0  0
 11 12  1  0  0  0  0
 11 24  1  0  0  0  0
 12 13  1  0  0  0  0
 12 32  1  0  0  0  0
 12 33  1  0  0  0  0
 13 14  2  0  0  0  0
 13 15  1  0  0  0  0
 15 16  1  0  0  0  0
 15 34  1  0  0  0  0
 16 23  1  0  0  0  0
 16 17  1  0  0  0  0
 16 35  1  0  0  0  0
 17 18  1  0  0  0  0
 17 36  1  0  0  0  0
 17 37  1  0  0  0  0
 18 19  1  0  0  0  0
 18 38  1  0  0  0  0
 18 39  1  0  0  0  0
 19 20  1  0  0  0  0
 19 40  1  0  0  0  0
 19 41  1  0  0  0  0
 20 21  1  0  0  0  0
 20 42  1  0  0  0  0
 20 43  1  0  0  0  0
 21 22  1  0  0  0  0
 21 44  1  0  0  0  0
 21 45  1  0  0  0  0
 22 23  1  0  0  0  0
 22 46  1  0  0  0  0
 22 47  1  0  0  0  0
 23 48  1  0  0  0  0
 23 49  1  0  0  0  0
 24 25  2  0  0  0  0
M  END
> <s_m_source_file>
AV-unprocessed.smi

> <i_m_source_file_index>
2869

> <i_lp_mmshare_version>
43012

> <i_f3d_flags>
0

> <s_epik_input>
TiNDYzFbY0hdbihbQ0hdMltDSDJdW0NIMl0yKWMoPU8pbihjMT1PKVtDSDJdQyg9TylbTkhdW0NIXTNbQ0gyXVtDSDJdW0NIMl1bQ0gyXVtDSDJdW0NIMl1bQ0gyXTM=

> <s_epik_cmdline>
J2VwaWtfcHl0aG9uJywgJy1waCcsICc3LjAnLCAnLXRuJywgJzgnLCAnLW1hJywgJzIwMCcsICctbWV0YWxfYmluZGluZycsICctaW1hZScsICc8aW5maWxlLm1hZT4nLCAnLW9tYWUnLCAnPG91dGZpbGUubWFlPic=

> <r_lp_tautomer_probability>
1

> <r_epik_Ionization_Penalty>
2.03018e-08

> <r_epik_Ionization_Penalty_Charging>
8.701e-11

> <r_epik_Ionization_Penalty_Neutral>
2.02148e-08

> <r_epik_State_Penalty>
-0

> <r_epik_Charging_Adjusted_Penalty>
8.701e-11

> <i_epik_Tot_Q>
0

> <i_epik_Tot_abs_Q>
0

> <r_epik_Metal_State_Penalty>
-0

> <b_epik_Metal_Only>
0

> <s_lp_Force_Field>
OPLS_2005

> <r_lp_Energy>
47.5685

> <b_lp_Chiralities_Consistent>
1

> <s_lp_Variant>
AV-unprocessed.smi:2869-1

> <Gold.Version>
5.8.1

> <Gold.Id.Protein>
6NUR|6NUR_protein|mol2

> <Gold.PLP.Fitness>
47.2136

> <Gold.PLP.PLP>
-39.5489

> <Gold.PLP.part.hbond>
-3.0000

> <Gold.PLP.part.metal>
0.0000

> <Gold.PLP.part.buried>
-2.9647

> <Gold.PLP.part.nonpolar>
-34.4130

> <Gold.PLP.part.repulsive>
1.7933

> <Gold.PLP.ligand.clash>
0.0000

> <Gold.PLP.ligand.torsion>
0.6156

> <Gold.PLP.Chemscore.Hbond>
1.8960

> <Gold.PLP.Chemscore.CHOScore>
1.0000

> <Gold.PLP.Chemscore.Metal>
0.0000

> <Gold.Chemscore.Hbonds>
donor molecule, donor type, donor heavy atom, donor atom, acceptor molecule, acceptor atom, score
      P1  H  7997  8008       L1    14  0.99
      P1  H  8011  8017       L1     1  0.93
      L1  C     4    26       P1  8028  1.00

> <Gold.PLP.Chemscore.Internal.Correction>
0.2078

> <Gold.Rescore>
     Score         DG    S(hbond)    S(metal)    S(lipo)     H(rot)  DE(clash)    DE(int)     intcor
     12.60     -17.18       1.72        0.00      87.72       1.68       0.05       4.53       ----

> <Gold.Chemscore.Fitness>
12.5978

> <Gold.Chemscore.DG>
-17.1760

> <Gold.Chemscore.ZeroCoef>
-5.4800

> <Gold.Chemscore.Hbond>
1.7186

> <Gold.Chemscore.Metal>
0.0000

> <Gold.Chemscore.Lipo>
87.7207

> <Gold.Chemscore.Internal_Hbond>
0.0000

> <Gold.Chemscore.DEClash>
0.0469

> <Gold.Chemscore.DEInternal>
4.5314

> <Gold.Chemscore.Rot>
1.6826

> <Gold.Chemscore.Internal.Correction>
   9.000000E+99

> <Gold.Chemscore.Hbonds>
donor molecule, donor type, donor heavy atom, donor atom, acceptor molecule, acceptor atom, score
      P1  H  7997  8008       L1    14  0.92
      P1  H  8011  8017       L1     1  0.89

> <Gold.Chemscore.Hbond.Weighted>
-5.7403

> <Gold.Chemscore.Metal.Weighted>
-0.0000

> <Gold.Chemscore.Lipo.Weighted>
-10.2633

> <Gold.Chemscore.Internal_Hbond.Weighted>
0.0000

> <Gold.Chemscore.DEClash.Weighted>
0.0469

> <Gold.Chemscore.DEInternal.Weighted>
4.5314

> <Gold.Chemscore.Rot.Weighted>
4.3076

> <Gold.Chemscore.Internal.Correction.Weighted>
   9.000000E+99

> <Gold.Protein.RotatedTorsions>
[ 6907 6896 6895 6894 ] final   87.93 input  -60.11 | X-H torsion
[ 7974 7965 7964 7962 ] final -115.65 input  175.53 | X-H torsion
[ 8008 7997 7996 7995 ] final -103.11 input   59.86 | X-H torsion
[ 10167 10162 10161 10158 ] final -110.36 input  -65.29 | X-H torsion
[ 10718 10713 10712 10709 ] final  -53.96 input   66.30 | X-H torsion
[ 10763 10752 10751 10750 ] final  162.34 input  -60.55 | X-H torsion
[ 11005 11000 10999 10996 ] final  -60.23 input  -57.11 | X-H torsion

> <Gold.Protein.ActiveResidues>
 VAL166  LYS551  ARG553  GLY616  TRP617  ASP618  TYR619  PRO620  LYS621  CYS622 
 ASP623  PHE694  ASN695  SER759  ASP760  ASP761  ALA762  ILE779  LEU786  VAL792 
 PHE793  MET794  SER795  GLU796  ALA797  LYS798  CYS799  TRP800  GLU811  SER814 

> <Gold.Protein.RotatedAtoms>
  152.5418  134.2200  159.8783 H   0  0  0  0  0  0  0  0  0  0  0  0  # atno 6907 bound_to 6896
  151.2177  133.4513  159.2607 H   0  0  0  0  0  0  0  0  0  0  0  0  # atno 6908 bound_to 6896
  151.0835  134.9886  159.8424 H   0  0  0  0  0  0  0  0  0  0  0  0  # atno 6909 bound_to 6896
  145.1059  140.8581  143.3898 H   0  0  0  0  0  0  0  0  0  0  0  0  # atno 7974 bound_to 7965
  154.8663  140.0424  157.1697 H   0  0  0  0  0  0  0  0  0  0  0  0  # atno 8008 bound_to 7997
  154.8786  140.2969  155.5418 H   0  0  0  0  0  0  0  0  0  0  0  0  # atno 8009 bound_to 7997
  156.2999  140.2415  156.3786 H   0  0  0  0  0  0  0  0  0  0  0  0  # atno 8010 bound_to 7997
  140.1453  143.4244  152.1533 H   0  0  0  0  0  0  0  0  0  0  0  0  # atno 10167 bound_to 10162
  156.1491  130.4152  149.9975 H   0  0  0  0  0  0  0  0  0  0  0  0  # atno 10718 bound_to 10713
  154.2769  135.2764  155.2714 H   0  0  0  0  0  0  0  0  0  0  0  0  # atno 10763 bound_to 10752
  154.5252  135.5745  153.6717 H   0  0  0  0  0  0  0  0  0  0  0  0  # atno 10764 bound_to 10752
  152.9935  135.6214  154.2927 H   0  0  0  0  0  0  0  0  0  0  0  0  # atno 10765 bound_to 10752
  141.1279  133.6621  156.5191 H   0  0  0  0  0  0  0  0  0  0  0  0  # atno 11005 bound_to 11000
  145.0902  139.2896  143.5739 LP  0  0  0  0  0  0  0  0  0  0  0  0  # atno 17320 bound_to 7965
  146.3528  140.0436  142.8641 LP  0  0  0  0  0  0  0  0  0  0  0  0  # atno 17321 bound_to 7965
  139.5452  144.7292  151.4607 LP  0  0  0  0  0  0  0  0  0  0  0  0  # atno 17342 bound_to 10162
  140.6735  143.8241  150.7029 LP  0  0  0  0  0  0  0  0  0  0  0  0  # atno 17343 bound_to 10162
  156.7838  130.9231  151.3646 LP  0  0  0  0  0  0  0  0  0  0  0  0  # atno 17370 bound_to 10713
  157.6641  130.8992  149.9894 LP  0  0  0  0  0  0  0  0  0  0  0  0  # atno 17371 bound_to 10713
  140.4307  134.7104  157.4940 LP  0  0  0  0  0  0  0  0  0  0  0  0  # atno 17394 bound_to 11000
  140.0296  134.6426  155.9125 LP  0  0  0  0  0  0  0  0  0  0  0  0  # atno 17395 bound_to 11000

$$$$
