AV-unprocessed.smi:1159|AV-procd|sdf|4915|dock7
  -GOLD-   22720 3493D 1   1.00000     0.00000
 Structure written by MMmdl.
 41 42  0  0  0  0  0  0  0  0  1 V2000
  146.1011  138.0635  154.7996 O   0  0  0  0  0  0  0  0  0  0  0  0
  146.9684  137.5248  154.1119 C   0  0  0  0  0  0  0  0  0  0  0  0
  148.2657  137.8748  154.0854 N   0  0  0  0  0  0  0  0  0  0  0  0
  148.9181  138.8880  154.8385 C   0  0  0  0  0  0  0  0  0  0  0  0
  148.4748  139.3466  156.1016 C   0  0  0  0  0  0  0  0  0  0  0  0
  149.2172  140.3443  156.7616 C   0  0  0  0  0  0  0  0  0  0  0  0
  150.3805  140.8481  156.1469 C   0  0  0  0  0  0  0  0  0  0  0  0
  151.0995  141.8277  156.7999 O   0  0  0  0  0  0  0  0  0  0  0  0
  150.4782  142.5248  157.8766 C   0  0  0  0  0  0  0  0  0  0  0  0
  151.4516  143.5732  158.4271 C   0  0  0  0  0  0  0  0  0  0  0  0
  150.8479  144.3218  159.3497 F   0  0  0  0  0  0  0  0  0  0  0  0
  152.4910  142.9571  158.9890 F   0  0  0  0  0  0  0  0  0  0  0  0
  151.8981  144.3510  157.4413 F   0  0  0  0  0  0  0  0  0  0  0  0
  150.8194  140.4029  154.9435 N   0  0  0  0  0  0  0  0  0  0  0  0
  150.1040  139.4448  154.3168 C   0  0  0  0  0  0  0  0  0  0  0  0
  146.7212  136.5164  153.2635 N   0  0  0  0  0  0  0  0  0  0  0  0
  145.4148  135.9000  153.0248 C   0  0  1  0  0  0  0  0  0  0  0  0
  145.4969  134.9416  151.8154 C   0  0  0  0  0  0  0  0  0  0  0  0
  144.1435  134.6633  151.1419 C   0  0  0  0  0  0  0  0  0  0  0  0
  143.1138  133.9541  152.0337 C   0  0  0  0  0  0  0  0  0  0  0  0
  142.6535  134.7981  153.2345 C   0  0  0  0  0  0  0  0  0  0  0  0
  143.6147  134.7847  154.3303 N   0  0  0  0  0  0  0  0  0  0  0  0
  144.8731  135.2504  154.3125 C   0  0  0  0  0  0  0  0  0  0  0  0
  145.5880  135.1544  155.3099 O   0  0  0  0  0  0  0  0  0  0  0  0
  148.8402  137.4045  153.4013 H   0  0  0  0  0  0  0  0  0  0  0  0
  147.5949  138.9459  156.5805 H   0  0  0  0  0  0  0  0  0  0  0  0
  148.9011  140.7142  157.7259 H   0  0  0  0  0  0  0  0  0  0  0  0
  149.5668  143.0166  157.5326 H   0  0  0  0  0  0  0  0  0  0  0  0
  150.2033  141.8274  158.6697 H   0  0  0  0  0  0  0  0  0  0  0  0
  150.4897  139.1169  153.3625 H   0  0  0  0  0  0  0  0  0  0  0  0
  147.4966  136.1330  152.7427 H   0  0  0  0  0  0  0  0  0  0  0  0
  144.7221  136.7073  152.7788 H   0  0  0  0  0  0  0  0  0  0  0  0
  146.1520  135.3694  151.0552 H   0  0  0  0  0  0  0  0  0  0  0  0
  145.9667  134.0029  152.1126 H   0  0  0  0  0  0  0  0  0  0  0  0
  143.7223  135.5988  150.7715 H   0  0  0  0  0  0  0  0  0  0  0  0
  144.3183  134.0479  150.2590 H   0  0  0  0  0  0  0  0  0  0  0  0
  142.2410  133.7261  151.4212 H   0  0  0  0  0  0  0  0  0  0  0  0
  143.5009  132.9916  152.3712 H   0  0  0  0  0  0  0  0  0  0  0  0
  142.4311  135.8231  152.9348 H   0  0  0  0  0  0  0  0  0  0  0  0
  141.7225  134.3854  153.6238 H   0  0  0  0  0  0  0  0  0  0  0  0
  143.2951  134.3680  155.1929 H   0  0  0  0  0  0  0  0  0  0  0  0
  1  2  2  0  0  0  0
  2  3  1  0  0  0  0
  2 16  1  0  0  0  0
  3  4  1  0  0  0  0
  3 25  1  0  0  0  0
  4 15  1  0  0  0  0
  4  5  2  0  0  0  0
  5  6  1  0  0  0  0
  5 26  1  0  0  0  0
  6  7  2  0  0  0  0
  6 27  1  0  0  0  0
  7  8  1  0  0  0  0
  7 14  1  0  0  0  0
  8  9  1  0  0  0  0
  9 10  1  0  0  0  0
  9 28  1  0  0  0  0
  9 29  1  0  0  0  0
 10 11  1  0  0  0  0
 10 12  1  0  0  0  0
 10 13  1  0  0  0  0
 14 15  2  0  0  0  0
 15 30  1  0  0  0  0
 16 17  1  0  0  0  0
 16 31  1  0  0  0  0
 17 23  1  0  0  0  0
 17 18  1  0  0  0  0
 17 32  1  0  0  0  0
 18 19  1  0  0  0  0
 18 33  1  0  0  0  0
 18 34  1  0  0  0  0
 19 20  1  0  0  0  0
 19 35  1  0  0  0  0
 19 36  1  0  0  0  0
 20 21  1  0  0  0  0
 20 37  1  0  0  0  0
 20 38  1  0  0  0  0
 21 22  1  0  0  0  0
 21 39  1  0  0  0  0
 21 40  1  0  0  0  0
 22 23  1  0  0  0  0
 22 41  1  0  0  0  0
 23 24  2  0  0  0  0
M  END
> <s_m_source_file>
AV-unprocessed.smi

> <i_m_source_file_index>
1159

> <i_lp_mmshare_version>
43012

> <i_f3d_flags>
0

> <s_epik_input>
Tz1DMVtOSF1bQ0gyXVtDSDJdW0NIMl1bQ0gyXVtDQEhdMVtOSF1DKD1PKVtOSF1jMltjSF1bY0hdYyhuW2NIXTIpT1tDSDJdQyhGKShGKUY=

> <s_epik_cmdline>
J2VwaWtfcHl0aG9uJywgJy1waCcsICc3LjAnLCAnLXRuJywgJzgnLCAnLW1hJywgJzIwMCcsICctbWV0YWxfYmluZGluZycsICctaW1hZScsICc8aW5maWxlLm1hZT4nLCAnLW9tYWUnLCAnPG91dGZpbGUubWFlPic=

> <r_lp_tautomer_probability>
1

> <r_epik_Ionization_Penalty>
3.53205e-05

> <r_epik_Ionization_Penalty_Charging>
0

> <r_epik_Ionization_Penalty_Neutral>
3.53205e-05

> <r_epik_State_Penalty>
-0

> <r_epik_Charging_Adjusted_Penalty>
0

> <i_epik_Tot_Q>
0

> <i_epik_Tot_abs_Q>
0

> <r_epik_Metal_State_Penalty>
-0

> <b_epik_Metal_Only>
0

> <s_lp_Force_Field>
OPLS_2005

> <r_lp_Energy>
11.134

> <b_lp_Chiralities_Consistent>
1

> <s_lp_Variant>
AV-unprocessed.smi:1159-2

> <Gold.Version>
5.8.1

> <Gold.Id.Protein>
6NUR|6NUR_protein|mol2

> <Gold.PLP.Fitness>
45.9550

> <Gold.PLP.PLP>
-36.1052

> <Gold.PLP.part.hbond>
-3.4136

> <Gold.PLP.part.metal>
0.0000

> <Gold.PLP.part.buried>
-4.9891

> <Gold.PLP.part.nonpolar>
-27.9712

> <Gold.PLP.part.repulsive>
0.2265

> <Gold.PLP.ligand.clash>
0.0000

> <Gold.PLP.ligand.torsion>
0.4170

> <Gold.PLP.Chemscore.Hbond>
2.6920

> <Gold.PLP.Chemscore.CHOScore>
0.8565

> <Gold.PLP.Chemscore.Metal>
0.0000

> <Gold.Chemscore.Hbonds>
donor molecule, donor type, donor heavy atom, donor atom, acceptor molecule, acceptor atom, score
      L1  H     3    25       P1  7948  0.99
      L1  H    16    31       P1  7948  1.00
      P1  H  7989  7998       L1    14  0.65
      L1  C    15    30       P1  7957  0.86

> <Gold.PLP.Chemscore.Internal.Correction>
0.0382

> <Gold.Rescore>
     Score         DG    S(hbond)    S(metal)    S(lipo)     H(rot)  DE(clash)    DE(int)     intcor
     14.81     -16.60       2.72        0.00      56.87       1.81       0.31       1.49       ----

> <Gold.Chemscore.Fitness>
14.8062

> <Gold.Chemscore.DG>
-16.6023

> <Gold.Chemscore.ZeroCoef>
-5.4800

> <Gold.Chemscore.Hbond>
2.7224

> <Gold.Chemscore.Metal>
0.0000

> <Gold.Chemscore.Lipo>
56.8661

> <Gold.Chemscore.Internal_Hbond>
0.0000

> <Gold.Chemscore.DEClash>
0.3080

> <Gold.Chemscore.DEInternal>
1.4881

> <Gold.Chemscore.Rot>
1.8062

> <Gold.Chemscore.Internal.Correction>
   9.000000E+99

> <Gold.Chemscore.Hbonds>
donor molecule, donor type, donor heavy atom, donor atom, acceptor molecule, acceptor atom, score
      L1  H     3    25       P1  7948  0.94
      L1  H    16    31       P1  7948  0.98
      P1  H  7989  7998       L1    14  0.06

> <Gold.Chemscore.Hbond.Weighted>
-9.0928

> <Gold.Chemscore.Metal.Weighted>
-0.0000

> <Gold.Chemscore.Lipo.Weighted>
-6.6533

> <Gold.Chemscore.Internal_Hbond.Weighted>
0.0000

> <Gold.Chemscore.DEClash.Weighted>
0.3080

> <Gold.Chemscore.DEInternal.Weighted>
1.4881

> <Gold.Chemscore.Rot.Weighted>
4.6238

> <Gold.Chemscore.Internal.Correction.Weighted>
   9.000000E+99

> <Gold.Protein.RotatedTorsions>
[ 6907 6896 6895 6894 ] final  142.47 input  -60.11 | X-H torsion
[ 7974 7965 7964 7962 ] final  158.59 input  175.53 | X-H torsion
[ 8008 7997 7996 7995 ] final  111.86 input   59.86 | X-H torsion
[ 10167 10162 10161 10158 ] final   13.85 input  -65.29 | X-H torsion
[ 10718 10713 10712 10709 ] final  -80.96 input   66.30 | X-H torsion
[ 10763 10752 10751 10750 ] final -148.03 input  -60.55 | X-H torsion
[ 11005 11000 10999 10996 ] final  -80.79 input  -57.11 | X-H torsion

> <Gold.Protein.ActiveResidues>
 VAL166  LYS551  ARG553  GLY616  TRP617  ASP618  TYR619  PRO620  LYS621  CYS622 
 ASP623  PHE694  ASN695  SER759  ASP760  ASP761  ALA762  ILE779  LEU786  VAL792 
 PHE793  MET794  SER795  GLU796  ALA797  LYS798  CYS799  TRP800  GLU811  SER814 

> <Gold.Protein.RotatedAtoms>
  152.2182  133.4963  159.5147 H   0  0  0  0  0  0  0  0  0  0  0  0  # atno 6907 bound_to 6896
  150.7006  134.1377  159.4102 H   0  0  0  0  0  0  0  0  0  0  0  0  # atno 6908 bound_to 6896
  151.9297  135.0262  160.0579 H   0  0  0  0  0  0  0  0  0  0  0  0  # atno 6909 bound_to 6896
  144.7837  139.7500  143.6249 H   0  0  0  0  0  0  0  0  0  0  0  0  # atno 7974 bound_to 7965
  156.2153  140.3011  155.9826 H   0  0  0  0  0  0  0  0  0  0  0  0  # atno 8008 bound_to 7997
  155.2621  140.0430  157.3015 H   0  0  0  0  0  0  0  0  0  0  0  0  # atno 8009 bound_to 7997
  154.5759  140.2361  155.8132 H   0  0  0  0  0  0  0  0  0  0  0  0  # atno 8010 bound_to 7997
  140.5975  143.8672  150.6932 H   0  0  0  0  0  0  0  0  0  0  0  0  # atno 10167 bound_to 10162
  156.0059  130.4589  150.3880 H   0  0  0  0  0  0  0  0  0  0  0  0  # atno 10718 bound_to 10713
  154.8255  135.3345  154.6910 H   0  0  0  0  0  0  0  0  0  0  0  0  # atno 10763 bound_to 10752
  153.7537  135.6937  153.4945 H   0  0  0  0  0  0  0  0  0  0  0  0  # atno 10764 bound_to 10752
  153.2159  135.4466  155.0383 H   0  0  0  0  0  0  0  0  0  0  0  0  # atno 10765 bound_to 10752
  141.1667  133.7166  156.8325 H   0  0  0  0  0  0  0  0  0  0  0  0  # atno 11005 bound_to 11000
  146.2058  139.5382  142.9713 LP  0  0  0  0  0  0  0  0  0  0  0  0  # atno 17320 bound_to 7965
  145.5980  141.0360  143.2034 LP  0  0  0  0  0  0  0  0  0  0  0  0  # atno 17321 bound_to 7965
  140.2210  143.3809  152.1643 LP  0  0  0  0  0  0  0  0  0  0  0  0  # atno 17342 bound_to 10162
  139.5268  144.7112  151.5201 LP  0  0  0  0  0  0  0  0  0  0  0  0  # atno 17343 bound_to 10162
  157.1956  131.0426  151.2677 LP  0  0  0  0  0  0  0  0  0  0  0  0  # atno 17370 bound_to 10713
  157.4022  130.7339  149.6775 LP  0  0  0  0  0  0  0  0  0  0  0  0  # atno 17371 bound_to 10713
  140.2041  134.8876  157.3201 LP  0  0  0  0  0  0  0  0  0  0  0  0  # atno 17394 bound_to 11000
  140.2156  134.4085  155.7590 LP  0  0  0  0  0  0  0  0  0  0  0  0  # atno 17395 bound_to 11000

$$$$
