AV-unprocessed.smi:2105|AV-procd|sdf|8592|dock7
  -GOLD-   2272011323D 1   1.00000     0.00000
 Structure written by MMmdl.
 43 44  0  0  0  0  0  0  0  0  2 V2000
  155.0165  134.2283  162.7021 C   0  0  0  0  0  0  0  0  0  0  0  0
  154.4518  135.5998  163.0556 C   0  0  0  0  0  0  0  0  0  0  0  0
  154.1584  135.8655  164.2207 O   0  0  0  0  0  0  0  0  0  0  0  0
  154.3046  136.4615  162.0380 N   0  0  0  0  0  0  0  0  0  0  0  0
  153.7977  137.8251  162.1556 C   0  0  0  0  0  0  0  0  0  0  0  0
  154.6448  138.8321  161.3526 C   0  0  0  0  0  0  0  0  0  0  0  0
  153.8529  139.5470  160.3566 N   0  0  0  0  0  0  0  0  0  0  0  0
  153.5591  140.8542  160.3978 C   0  0  0  0  0  0  0  0  0  0  0  0
  153.9380  141.6095  161.2928 O   0  0  0  0  0  0  0  0  0  0  0  0
  152.7920  141.2153  159.3555 N   0  0  0  0  0  0  0  0  0  0  0  0
  152.2564  142.5025  159.0646 C   0  0  0  0  0  0  0  0  0  0  0  0
  152.6928  143.6558  159.7665 C   0  0  0  0  0  0  0  0  0  0  0  0
  152.1308  144.9125  159.4737 C   0  0  0  0  0  0  0  0  0  0  0  0
  151.1428  144.9999  158.4786 C   0  0  0  0  0  0  0  0  0  0  0  0
  150.7638  143.8890  157.8137 N   0  3  0  0  0  0  0  0  0  0  0  0
  151.2774  142.6537  158.0391 C   0  0  0  0  0  0  0  0  0  0  0  0
  150.7908  141.5849  157.2518 N   0  0  0  0  0  0  0  0  0  0  0  0
  149.4006  141.1586  157.3646 C   0  0  0  0  0  0  0  0  0  0  0  0
  149.1640  140.2585  156.1551 C   0  0  0  0  0  0  0  0  0  0  0  0
  150.0224  140.9204  155.0814 C   0  0  0  0  0  0  0  0  0  0  0  0
  151.2206  141.4724  155.8616 C   0  0  0  0  0  0  0  0  0  0  0  0
  154.4332  133.7669  161.9049 H   0  0  0  0  0  0  0  0  0  0  0  0
  154.9945  133.5653  163.5677 H   0  0  0  0  0  0  0  0  0  0  0  0
  156.0503  134.3186  162.3677 H   0  0  0  0  0  0  0  0  0  0  0  0
  154.5757  136.1546  161.1149 H   0  0  0  0  0  0  0  0  0  0  0  0
  152.7661  137.8519  161.8010 H   0  0  0  0  0  0  0  0  0  0  0  0
  153.7591  138.0999  163.2099 H   0  0  0  0  0  0  0  0  0  0  0  0
  155.1215  139.5564  162.0137 H   0  0  0  0  0  0  0  0  0  0  0  0
  155.4579  138.3059  160.8498 H   0  0  0  0  0  0  0  0  0  0  0  0
  153.4975  139.0005  159.5858 H   0  0  0  0  0  0  0  0  0  0  0  0
  152.4746  140.4658  158.7584 H   0  0  0  0  0  0  0  0  0  0  0  0
  153.4581  143.5973  160.5254 H   0  0  0  0  0  0  0  0  0  0  0  0
  152.4534  145.7953  160.0063 H   0  0  0  0  0  0  0  0  0  0  0  0
  150.6534  145.9185  158.1891 H   0  0  0  0  0  0  0  0  0  0  0  0
  149.2189  140.6329  158.3023 H   0  0  0  0  0  0  0  0  0  0  0  0
  148.7324  142.0193  157.3156 H   0  0  0  0  0  0  0  0  0  0  0  0
  149.5332  139.2524  156.3600 H   0  0  0  0  0  0  0  0  0  0  0  0
  148.1120  140.1849  155.8782 H   0  0  0  0  0  0  0  0  0  0  0  0
  150.3141  140.2342  154.2856 H   0  0  0  0  0  0  0  0  0  0  0  0
  149.4687  141.7439  154.6282 H   0  0  0  0  0  0  0  0  0  0  0  0
  151.5515  142.4291  155.4548 H   0  0  0  0  0  0  0  0  0  0  0  0
  152.0542  140.7715  155.8075 H   0  0  0  0  0  0  0  0  0  0  0  0
  150.0517  143.9870  157.0900 H   0  0  0  0  0  0  0  0  0  0  0  0
  1  2  1  0  0  0  0
  1 22  1  0  0  0  0
  1 23  1  0  0  0  0
  1 24  1  0  0  0  0
  2  3  2  0  0  0  0
  2  4  1  0  0  0  0
  4  5  1  0  0  0  0
  4 25  1  0  0  0  0
  5  6  1  0  0  0  0
  5 26  1  0  0  0  0
  5 27  1  0  0  0  0
  6  7  1  0  0  0  0
  6 28  1  0  0  0  0
  6 29  1  0  0  0  0
  7  8  1  0  0  0  0
  7 30  1  0  0  0  0
  8  9  2  0  0  0  0
  8 10  1  0  0  0  0
 10 11  1  0  0  0  0
 10 31  1  0  0  0  0
 11 16  1  0  0  0  0
 11 12  2  0  0  0  0
 12 13  1  0  0  0  0
 12 32  1  0  0  0  0
 13 14  2  0  0  0  0
 13 33  1  0  0  0  0
 14 15  1  0  0  0  0
 14 34  1  0  0  0  0
 15 16  2  0  0  0  0
 15 43  1  0  0  0  0
 16 17  1  0  0  0  0
 17 21  1  0  0  0  0
 17 18  1  0  0  0  0
 18 19  1  0  0  0  0
 18 35  1  0  0  0  0
 18 36  1  0  0  0  0
 19 20  1  0  0  0  0
 19 37  1  0  0  0  0
 19 38  1  0  0  0  0
 20 21  1  0  0  0  0
 20 39  1  0  0  0  0
 20 40  1  0  0  0  0
 21 41  1  0  0  0  0
 21 42  1  0  0  0  0
M  CHG  1  15   1
M  END
> <s_m_source_file>
AV-unprocessed.smi

> <i_m_source_file_index>
2105

> <i_lp_mmshare_version>
43012

> <i_f3d_flags>
0

> <s_epik_input>
W0NIM11DKD1PKVtOSF1bQ0gyXVtDSDJdW05IXUMoPU8pW05IXWMxW2NIXVtjSF1bY0hdbmMxTjJbQ0gyXVtDSDJdW0NIMl1bQ0gyXTI=

> <s_epik_cmdline>
J2VwaWtfcHl0aG9uJywgJy1waCcsICc3LjAnLCAnLXRuJywgJzgnLCAnLW1hJywgJzIwMCcsICctbWV0YWxfYmluZGluZycsICctaW1hZScsICc8aW5maWxlLm1hZT4nLCAnLW9tYWUnLCAnPG91dGZpbGUubWFlPic=

> <r_lp_tautomer_probability>
0.999994

> <r_epik_Ionization_Penalty>
1.12691

> <r_epik_Ionization_Penalty_Charging>
1.12689

> <r_epik_Ionization_Penalty_Neutral>
1.95207e-05

> <r_epik_State_Penalty>
1.18624

> <r_epik_Charging_Adjusted_Penalty>
2.31313

> <i_epik_Tot_Q>
1

> <i_epik_Tot_abs_Q>
1

> <r_epik_Metal_State_Penalty>
1.26987

> <b_epik_Metal_Only>
0

> <s_lp_Force_Field>
OPLS_2005

> <r_lp_Energy>
38.5687

> <b_lp_Chiralities_Consistent>
1

> <s_lp_Variant>
AV-unprocessed.smi:2105-2

> <Gold.Version>
5.8.1

> <Gold.Id.Protein>
6NUR|6NUR_protein|mol2

> <Gold.PLP.Fitness>
43.2605

> <Gold.PLP.PLP>
-38.3500

> <Gold.PLP.part.hbond>
-1.3922

> <Gold.PLP.part.metal>
0.0000

> <Gold.PLP.part.buried>
-7.8030

> <Gold.PLP.part.nonpolar>
-29.4891

> <Gold.PLP.part.repulsive>
0.3583

> <Gold.PLP.ligand.clash>
0.0000

> <Gold.PLP.ligand.torsion>
0.7363

> <Gold.PLP.Chemscore.Hbond>
2.0000

> <Gold.PLP.Chemscore.CHOScore>
0.0000

> <Gold.PLP.Chemscore.Metal>
0.0000

> <Gold.Chemscore.Hbonds>
donor molecule, donor type, donor heavy atom, donor atom, acceptor molecule, acceptor atom, score
      L1  H    15    43       P1  8028  2.00

> <Gold.PLP.Chemscore.Internal.Correction>
0.3831

> <Gold.Rescore>
     Score         DG    S(hbond)    S(metal)    S(lipo)     H(rot)  DE(clash)    DE(int)     intcor
     12.05     -14.05       0.97        0.00      88.79       1.98       0.13       1.87       ----

> <Gold.Chemscore.Fitness>
12.0494

> <Gold.Chemscore.DG>
-14.0502

> <Gold.Chemscore.ZeroCoef>
-5.4800

> <Gold.Chemscore.Hbond>
0.9700

> <Gold.Chemscore.Metal>
0.0000

> <Gold.Chemscore.Lipo>
88.7931

> <Gold.Chemscore.Internal_Hbond>
0.0000

> <Gold.Chemscore.DEClash>
0.1283

> <Gold.Chemscore.DEInternal>
1.8725

> <Gold.Chemscore.Rot>
1.9760

> <Gold.Chemscore.Internal.Correction>
   9.000000E+99

> <Gold.Chemscore.Hbonds>
donor molecule, donor type, donor heavy atom, donor atom, acceptor molecule, acceptor atom, score
      L1  H    15    43       P1  8028  0.89

> <Gold.Chemscore.Hbond.Weighted>
-3.2399

> <Gold.Chemscore.Metal.Weighted>
-0.0000

> <Gold.Chemscore.Lipo.Weighted>
-10.3888

> <Gold.Chemscore.Internal_Hbond.Weighted>
0.0000

> <Gold.Chemscore.DEClash.Weighted>
0.1283

> <Gold.Chemscore.DEInternal.Weighted>
1.8725

> <Gold.Chemscore.Rot.Weighted>
5.0585

> <Gold.Chemscore.Internal.Correction.Weighted>
   9.000000E+99

> <Gold.Protein.RotatedTorsions>
[ 6907 6896 6895 6894 ] final  -32.13 input  -60.11 | X-H torsion
[ 7974 7965 7964 7962 ] final  134.36 input  175.53 | X-H torsion
[ 8008 7997 7996 7995 ] final  -51.96 input   59.86 | X-H torsion
[ 10167 10162 10161 10158 ] final  -55.46 input  -65.29 | X-H torsion
[ 10718 10713 10712 10709 ] final   94.60 input   66.30 | X-H torsion
[ 10763 10752 10751 10750 ] final  -29.51 input  -60.55 | X-H torsion
[ 11005 11000 10999 10996 ] final -149.35 input  -57.11 | X-H torsion

> <Gold.Protein.ActiveResidues>
 VAL166  LYS551  ARG553  GLY616  TRP617  ASP618  TYR619  PRO620  LYS621  CYS622 
 ASP623  PHE694  ASN695  SER759  ASP760  ASP761  ALA762  ILE779  LEU786  VAL792 
 PHE793  MET794  SER795  GLU796  ALA797  LYS798  CYS799  TRP800  GLU811  SER814 

> <Gold.Protein.RotatedAtoms>
  151.0828  134.9869  159.8364 H   0  0  0  0  0  0  0  0  0  0  0  0  # atno 6907 bound_to 6896
  152.5421  134.2161  159.8779 H   0  0  0  0  0  0  0  0  0  0  0  0  # atno 6908 bound_to 6896
  151.2192  133.4468  159.2633 H   0  0  0  0  0  0  0  0  0  0  0  0  # atno 6909 bound_to 6896
  144.9772  139.4543  143.5404 H   0  0  0  0  0  0  0  0  0  0  0  0  # atno 7974 bound_to 7965
  154.4095  140.1235  156.4914 H   0  0  0  0  0  0  0  0  0  0  0  0  # atno 8008 bound_to 7997
  155.6986  140.3495  155.4904 H   0  0  0  0  0  0  0  0  0  0  0  0  # atno 8009 bound_to 7997
  155.9405  140.1086  157.1049 H   0  0  0  0  0  0  0  0  0  0  0  0  # atno 8010 bound_to 7997
  140.6373  143.2489  151.5083 H   0  0  0  0  0  0  0  0  0  0  0  0  # atno 10167 bound_to 10162
  157.6946  131.0518  150.4212 H   0  0  0  0  0  0  0  0  0  0  0  0  # atno 10718 bound_to 10713
  153.7658  135.6916  153.4916 H   0  0  0  0  0  0  0  0  0  0  0  0  # atno 10763 bound_to 10752
  153.1907  135.4472  155.0145 H   0  0  0  0  0  0  0  0  0  0  0  0  # atno 10764 bound_to 10752
  154.8136  135.3388  154.7171 H   0  0  0  0  0  0  0  0  0  0  0  0  # atno 10765 bound_to 10752
  140.7517  134.3399  157.5124 H   0  0  0  0  0  0  0  0  0  0  0  0  # atno 11005 bound_to 11000
  146.3398  139.9022  142.8793 LP  0  0  0  0  0  0  0  0  0  0  0  0  # atno 17320 bound_to 7965
  145.2473  141.0031  143.3901 LP  0  0  0  0  0  0  0  0  0  0  0  0  # atno 17321 bound_to 7965
  139.5583  144.2219  152.1650 LP  0  0  0  0  0  0  0  0  0  0  0  0  # atno 17342 bound_to 10162
  140.1480  144.5141  150.6704 LP  0  0  0  0  0  0  0  0  0  0  0  0  # atno 17343 bound_to 10162
  156.4586  130.4027  149.6590 LP  0  0  0  0  0  0  0  0  0  0  0  0  # atno 17370 bound_to 10713
  156.3713  130.7532  151.2515 LP  0  0  0  0  0  0  0  0  0  0  0  0  # atno 17371 bound_to 10713
  139.8786  134.9146  156.3111 LP  0  0  0  0  0  0  0  0  0  0  0  0  # atno 17394 bound_to 11000
  140.9745  133.7306  156.0582 LP  0  0  0  0  0  0  0  0  0  0  0  0  # atno 17395 bound_to 11000

$$$$
