AV-unprocessed.smi:2068|AV-procd|sdf|8427|dock10
  -GOLD-   2272011123D 1   1.00000     0.00000
 Structure written by MMmdl.
 33 34  0  0  0  0  0  0  0  0  1 V2000
  147.3661  136.7469  154.3015 N   0  0  0  0  0  0  0  0  0  0  0  0
  146.9939  137.9275  154.8042 C   0  0  0  0  0  0  0  0  0  0  0  0
  146.1065  138.0320  155.6487 O   0  0  0  0  0  0  0  0  0  0  0  0
  147.7254  139.1689  154.2901 C   0  0  0  0  0  0  0  0  0  0  0  0
  149.1422  139.1838  154.7863 C   0  0  0  0  0  0  0  0  0  0  0  0
  150.1694  138.3689  154.3749 C   0  0  0  0  0  0  0  0  0  0  0  0
  151.6591  138.7206  155.2092 S   0  0  0  0  0  0  0  0  0  0  0  0
  150.8190  139.9827  156.0960 C   0  0  0  0  0  0  0  0  0  0  0  0
  151.4769  140.7875  157.0625 N   0  0  0  0  0  0  0  0  0  0  0  0
  152.2984  140.3961  158.0546 C   0  0  0  0  0  0  0  0  0  0  0  0
  152.6349  139.2304  158.2650 O   0  0  0  0  0  0  0  0  0  0  0  0
  152.8373  141.5155  158.9536 C   0  0  0  0  0  0  0  0  0  0  0  0
  151.7639  142.5381  159.3882 C   0  0  2  0  0  0  0  0  0  0  0  0
  151.4693  143.5900  158.3456 C   0  0  0  0  0  0  0  0  0  0  0  0
  151.5821  144.8289  158.8185 C   0  0  0  0  0  0  0  0  0  0  0  0
  151.9752  144.8578  160.2692 C   0  0  0  0  0  0  0  0  0  0  0  0
  152.1816  143.3693  160.6285 C   0  0  0  0  0  0  0  0  0  0  0  0
  149.5282  140.1044  155.7664 N   0  0  0  0  0  0  0  0  0  0  0  0
  146.9028  135.9033  154.6067 H   0  0  0  0  0  0  0  0  0  0  0  0
  148.1025  136.7032  153.6118 H   0  0  0  0  0  0  0  0  0  0  0  0
  147.7031  139.1733  153.1995 H   0  0  0  0  0  0  0  0  0  0  0  0
  147.1887  140.0629  154.6108 H   0  0  0  0  0  0  0  0  0  0  0  0
  150.1374  137.5825  153.6352 H   0  0  0  0  0  0  0  0  0  0  0  0
  151.2976  141.7787  156.9961 H   0  0  0  0  0  0  0  0  0  0  0  0
  153.2782  141.0525  159.8370 H   0  0  0  0  0  0  0  0  0  0  0  0
  153.6494  142.0347  158.4416 H   0  0  0  0  0  0  0  0  0  0  0  0
  150.8275  142.0208  159.6029 H   0  0  0  0  0  0  0  0  0  0  0  0
  151.1816  143.3384  157.3352 H   0  0  0  0  0  0  0  0  0  0  0  0
  151.4045  145.7308  158.2516 H   0  0  0  0  0  0  0  0  0  0  0  0
  152.8867  145.4396  160.4088 H   0  0  0  0  0  0  0  0  0  0  0  0
  151.1782  145.3090  160.8608 H   0  0  0  0  0  0  0  0  0  0  0  0
  151.5948  143.0904  161.5044 H   0  0  0  0  0  0  0  0  0  0  0  0
  153.2285  143.1959  160.8807 H   0  0  0  0  0  0  0  0  0  0  0  0
  1  2  1  0  0  0  0
  1 19  1  0  0  0  0
  1 20  1  0  0  0  0
  2  3  2  0  0  0  0
  2  4  1  0  0  0  0
  4  5  1  0  0  0  0
  4 21  1  0  0  0  0
  4 22  1  0  0  0  0
  5 18  1  0  0  0  0
  5  6  2  0  0  0  0
  6  7  1  0  0  0  0
  6 23  1  0  0  0  0
  7  8  1  0  0  0  0
  8  9  1  0  0  0  0
  8 18  2  0  0  0  0
  9 10  1  0  0  0  0
  9 24  1  0  0  0  0
 10 11  2  0  0  0  0
 10 12  1  0  0  0  0
 12 13  1  0  0  0  0
 12 25  1  0  0  0  0
 12 26  1  0  0  0  0
 13 17  1  0  0  0  0
 13 14  1  0  0  0  0
 13 27  1  0  0  0  0
 14 15  2  0  0  0  0
 14 28  1  0  0  0  0
 15 16  1  0  0  0  0
 15 29  1  0  0  0  0
 16 17  1  0  0  0  0
 16 30  1  0  0  0  0
 16 31  1  0  0  0  0
 17 32  1  0  0  0  0
 17 33  1  0  0  0  0
M  END
> <s_m_source_file>
AV-unprocessed.smi

> <i_m_source_file_index>
2068

> <i_lp_mmshare_version>
43012

> <i_f3d_flags>
0

> <s_epik_input>
W05IMl1DKD1PKVtDSDJdYzFbY0hdc2MobjEpW05IXUMoPU8pW0NIMl1bQ0BASF0yW0NIXT1bQ0hdW0NIMl1bQ0gyXTI=

> <s_epik_cmdline>
J2VwaWtfcHl0aG9uJywgJy1waCcsICc3LjAnLCAnLXRuJywgJzgnLCAnLW1hJywgJzIwMCcsICctbWV0YWxfYmluZGluZycsICctaW1hZScsICc8aW5maWxlLm1hZT4nLCAnLW9tYWUnLCAnPG91dGZpbGUubWFlPic=

> <r_lp_tautomer_probability>
1

> <r_epik_Ionization_Penalty>
0.000253249

> <r_epik_Ionization_Penalty_Charging>
0

> <r_epik_Ionization_Penalty_Neutral>
0.000253249

> <r_epik_State_Penalty>
-0

> <r_epik_Charging_Adjusted_Penalty>
0

> <i_epik_Tot_Q>
0

> <i_epik_Tot_abs_Q>
0

> <r_epik_Metal_State_Penalty>
0.148671

> <b_epik_Metal_Only>
0

> <s_lp_Force_Field>
OPLS_2005

> <r_lp_Energy>
16.3977

> <b_lp_Chiralities_Consistent>
1

> <s_lp_Variant>
AV-unprocessed.smi:2068-1

> <Gold.Version>
5.8.1

> <Gold.Id.Protein>
6NUR|6NUR_protein|mol2

> <Gold.PLP.Fitness>
40.7964

> <Gold.PLP.PLP>
-36.5976

> <Gold.PLP.part.hbond>
-1.0000

> <Gold.PLP.part.metal>
0.0000

> <Gold.PLP.part.buried>
-4.1012

> <Gold.PLP.part.nonpolar>
-31.8434

> <Gold.PLP.part.repulsive>
0.2393

> <Gold.PLP.ligand.clash>
0.0000

> <Gold.PLP.ligand.torsion>
0.9965

> <Gold.PLP.Chemscore.Hbond>
0.9760

> <Gold.PLP.Chemscore.CHOScore>
1.0811

> <Gold.PLP.Chemscore.Metal>
0.0000

> <Gold.Chemscore.Hbonds>
donor molecule, donor type, donor heavy atom, donor atom, acceptor molecule, acceptor atom, score
      L1  H     1    20       P1  7948  1.00
      L1  C     6    23       P1  7948  1.00
      L1  C     6    23       P1  7949  0.04

> <Gold.PLP.Chemscore.Internal.Correction>
0.0203

> <Gold.Rescore>
     Score         DG    S(hbond)    S(metal)    S(lipo)     H(rot)  DE(clash)    DE(int)     intcor
     13.27     -14.15       0.98        0.00      94.48       2.21       0.01       0.86       ----

> <Gold.Chemscore.Fitness>
13.2731

> <Gold.Chemscore.DG>
-14.1463

> <Gold.Chemscore.ZeroCoef>
-5.4800

> <Gold.Chemscore.Hbond>
0.9755

> <Gold.Chemscore.Metal>
0.0000

> <Gold.Chemscore.Lipo>
94.4776

> <Gold.Chemscore.Internal_Hbond>
0.0000

> <Gold.Chemscore.DEClash>
0.0089

> <Gold.Chemscore.DEInternal>
0.8643

> <Gold.Chemscore.Rot>
2.2053

> <Gold.Chemscore.Internal.Correction>
   9.000000E+99

> <Gold.Chemscore.Hbonds>
donor molecule, donor type, donor heavy atom, donor atom, acceptor molecule, acceptor atom, score
      L1  H     1    20       P1  7948  0.95

> <Gold.Chemscore.Hbond.Weighted>
-3.2581

> <Gold.Chemscore.Metal.Weighted>
-0.0000

> <Gold.Chemscore.Lipo.Weighted>
-11.0539

> <Gold.Chemscore.Internal_Hbond.Weighted>
0.0000

> <Gold.Chemscore.DEClash.Weighted>
0.0089

> <Gold.Chemscore.DEInternal.Weighted>
0.8643

> <Gold.Chemscore.Rot.Weighted>
5.6456

> <Gold.Chemscore.Internal.Correction.Weighted>
   9.000000E+99

> <Gold.Protein.RotatedTorsions>
[ 6907 6896 6895 6894 ] final -134.68 input  -60.11 | X-H torsion
[ 7974 7965 7964 7962 ] final -135.32 input  175.53 | X-H torsion
[ 8008 7997 7996 7995 ] final   39.41 input   59.86 | X-H torsion
[ 10167 10162 10161 10158 ] final    3.29 input  -65.29 | X-H torsion
[ 10718 10713 10712 10709 ] final  155.36 input   66.30 | X-H torsion
[ 10763 10752 10751 10750 ] final  -18.16 input  -60.55 | X-H torsion
[ 11005 11000 10999 10996 ] final    1.21 input  -57.11 | X-H torsion

> <Gold.Protein.ActiveResidues>
 VAL166  LYS551  ARG553  GLY616  TRP617  ASP618  TYR619  PRO620  LYS621  CYS622 
 ASP623  PHE694  ASN695  SER759  ASP760  ASP761  ALA762  ILE779  LEU786  VAL792 
 PHE793  MET794  SER795  GLU796  ALA797  LYS798  CYS799  TRP800  GLU811  SER814 

> <Gold.Protein.RotatedAtoms>
  150.9888  133.6170  159.2711 H   0  0  0  0  0  0  0  0  0  0  0  0  # atno 6907 bound_to 6896
  151.3399  135.0860  159.9377 H   0  0  0  0  0  0  0  0  0  0  0  0  # atno 6908 bound_to 6896
  152.5239  133.9501  159.7722 H   0  0  0  0  0  0  0  0  0  0  0  0  # atno 6909 bound_to 6896
  144.9024  140.6788  143.5077 H   0  0  0  0  0  0  0  0  0  0  0  0  # atno 7974 bound_to 7965
  155.2362  140.3342  155.4297 H   0  0  0  0  0  0  0  0  0  0  0  0  # atno 8008 bound_to 7997
  156.2275  140.1835  156.7373 H   0  0  0  0  0  0  0  0  0  0  0  0  # atno 8009 bound_to 7997
  154.5922  140.0636  156.9240 H   0  0  0  0  0  0  0  0  0  0  0  0  # atno 8010 bound_to 7997
  140.6593  143.7346  150.7709 H   0  0  0  0  0  0  0  0  0  0  0  0  # atno 10167 bound_to 10162
  157.2193  131.0715  151.1922 H   0  0  0  0  0  0  0  0  0  0  0  0  # atno 10718 bound_to 10713
  153.5850  135.7004  153.5447 H   0  0  0  0  0  0  0  0  0  0  0  0  # atno 10763 bound_to 10752
  153.3228  135.4069  155.1431 H   0  0  0  0  0  0  0  0  0  0  0  0  # atno 10764 bound_to 10752
  154.8611  135.3699  154.5379 H   0  0  0  0  0  0  0  0  0  0  0  0  # atno 10765 bound_to 10752
  140.6180  133.9687  155.8210 H   0  0  0  0  0  0  0  0  0  0  0  0  # atno 11005 bound_to 11000
  145.3594  139.1685  143.4392 LP  0  0  0  0  0  0  0  0  0  0  0  0  # atno 17320 bound_to 7965
  146.3115  140.3654  142.8669 LP  0  0  0  0  0  0  0  0  0  0  0  0  # atno 17321 bound_to 7965
  140.1012  143.4786  152.2424 LP  0  0  0  0  0  0  0  0  0  0  0  0  # atno 17342 bound_to 10162
  139.5823  144.7516  151.3609 LP  0  0  0  0  0  0  0  0  0  0  0  0  # atno 17343 bound_to 10162
  157.3592  130.7122  149.6491 LP  0  0  0  0  0  0  0  0  0  0  0  0  # atno 17370 bound_to 10713
  155.9683  130.4230  150.4543 LP  0  0  0  0  0  0  0  0  0  0  0  0  # atno 17371 bound_to 10713
  141.0762  134.0131  157.3454 LP  0  0  0  0  0  0  0  0  0  0  0  0  # atno 17394 bound_to 11000
  139.9165  135.0197  156.7900 LP  0  0  0  0  0  0  0  0  0  0  0  0  # atno 17395 bound_to 11000

$$$$
