AV-unprocessed.smi:2044|AV-procd|sdf|8300|dock1
  -GOLD-   2272010563D 1   1.00000     0.00000
 Structure written by MMmdl.
 40 41  0  0  0  0  0  0  0  0  2 V2000
  138.6778  136.8805  154.4746 C   0  0  0  0  0  0  0  0  0  0  0  0
  140.1400  137.0062  154.2165 C   0  0  0  0  0  0  0  0  0  0  0  0
  140.8964  137.9641  153.6027 C   0  0  0  0  0  0  0  0  0  0  0  0
  142.2184  137.4417  153.7066 C   0  0  0  0  0  0  0  0  0  0  0  0
  143.4028  138.0472  153.2130 N   0  0  0  0  0  0  0  0  0  0  0  0
  144.6658  137.5961  153.2919 C   0  0  0  0  0  0  0  0  0  0  0  0
  145.0131  136.5354  153.8105 O   0  0  0  0  0  0  0  0  0  0  0  0
  145.5239  138.4507  152.7143 N   0  0  0  0  0  0  0  0  0  0  0  0
  146.9723  138.2720  152.6342 C   0  0  0  0  0  0  0  0  0  0  0  0
  147.6981  138.5472  153.9783 C   0  0  2  0  0  0  0  0  0  0  0  0
  147.8623  140.0690  154.2156 C   0  0  0  0  0  0  0  0  0  0  0  0
  148.9966  137.7962  154.0236 N   0  3  0  0  0  0  0  0  0  0  0  0
  150.2211  138.6311  154.1738 C   0  0  0  0  0  0  0  0  0  0  0  0
  151.4906  137.7617  154.1689 C   0  0  0  0  0  0  0  0  0  0  0  0
  151.4129  136.7843  155.1955 O   0  0  0  0  0  0  0  0  0  0  0  0
  150.3097  135.9124  154.9997 C   0  0  0  0  0  0  0  0  0  0  0  0
  149.0034  136.7206  155.0528 C   0  0  0  0  0  0  0  0  0  0  0  0
  142.2580  136.2766  154.3266 N   0  0  0  0  0  0  0  0  0  0  0  0
  140.9288  135.9901  154.6590 O   0  0  0  0  0  0  0  0  0  0  0  0
  138.1294  137.7029  154.0146 H   0  0  0  0  0  0  0  0  0  0  0  0
  138.4723  136.8933  155.5449 H   0  0  0  0  0  0  0  0  0  0  0  0
  138.2915  135.9468  154.0659 H   0  0  0  0  0  0  0  0  0  0  0  0
  140.5429  138.8806  153.1549 H   0  0  0  0  0  0  0  0  0  0  0  0
  143.2688  138.9297  152.7419 H   0  0  0  0  0  0  0  0  0  0  0  0
  145.1483  139.2971  152.3116 H   0  0  0  0  0  0  0  0  0  0  0  0
  147.1222  137.2439  152.3104 H   0  0  0  0  0  0  0  0  0  0  0  0
  147.3996  138.8957  151.8469 H   0  0  0  0  0  0  0  0  0  0  0  0
  147.0720  138.1736  154.7904 H   0  0  0  0  0  0  0  0  0  0  0  0
  146.9066  140.5903  154.1792 H   0  0  0  0  0  0  0  0  0  0  0  0
  148.5111  140.5223  153.4654 H   0  0  0  0  0  0  0  0  0  0  0  0
  148.2694  140.2909  155.2021 H   0  0  0  0  0  0  0  0  0  0  0  0
  150.3133  139.3401  153.3518 H   0  0  0  0  0  0  0  0  0  0  0  0
  150.1630  139.2051  155.1001 H   0  0  0  0  0  0  0  0  0  0  0  0
  151.6277  137.2787  153.1998 H   0  0  0  0  0  0  0  0  0  0  0  0
  152.3697  138.3832  154.3401 H   0  0  0  0  0  0  0  0  0  0  0  0
  150.4059  135.3841  154.0496 H   0  0  0  0  0  0  0  0  0  0  0  0
  150.3145  135.1571  155.7857 H   0  0  0  0  0  0  0  0  0  0  0  0
  148.8856  137.1628  156.0435 H   0  0  0  0  0  0  0  0  0  0  0  0
  148.1713  136.0334  154.9133 H   0  0  0  0  0  0  0  0  0  0  0  0
  149.0870  137.3423  153.1255 H   0  0  0  0  0  0  0  0  0  0  0  0
  1  2  1  0  0  0  0
  1 20  1  0  0  0  0
  1 21  1  0  0  0  0
  1 22  1  0  0  0  0
  2 19  1  0  0  0  0
  2  3  2  0  0  0  0
  3  4  1  0  0  0  0
  3 23  1  0  0  0  0
  4  5  1  0  0  0  0
  4 18  2  0  0  0  0
  5  6  1  0  0  0  0
  5 24  1  0  0  0  0
  6  7  2  0  0  0  0
  6  8  1  0  0  0  0
  8  9  1  0  0  0  0
  8 25  1  0  0  0  0
  9 10  1  0  0  0  0
  9 26  1  0  0  0  0
  9 27  1  0  0  0  0
 10 11  1  0  0  0  0
 10 12  1  0  0  0  0
 10 28  1  0  0  0  0
 11 29  1  0  0  0  0
 11 30  1  0  0  0  0
 11 31  1  0  0  0  0
 12 17  1  0  0  0  0
 12 13  1  0  0  0  0
 12 40  1  0  0  0  0
 13 14  1  0  0  0  0
 13 32  1  0  0  0  0
 13 33  1  0  0  0  0
 14 15  1  0  0  0  0
 14 34  1  0  0  0  0
 14 35  1  0  0  0  0
 15 16  1  0  0  0  0
 16 17  1  0  0  0  0
 16 36  1  0  0  0  0
 16 37  1  0  0  0  0
 17 38  1  0  0  0  0
 17 39  1  0  0  0  0
 18 19  1  0  0  0  0
M  CHG  1  12   1
M  END
> <s_m_source_file>
AV-unprocessed.smi

> <i_m_source_file_index>
2044

> <i_lp_mmshare_version>
43012

> <i_f3d_flags>
0

> <s_epik_input>
W0NIM11jMVtjSF1jKG5vMSlbTkhdQyg9TylbTkhdW0NIMl1bQ0BIXShbQ0gzXSlOMltDSDJdW0NIMl1PW0NIMl1bQ0gyXTI=

> <s_epik_cmdline>
J2VwaWtfcHl0aG9uJywgJy1waCcsICc3LjAnLCAnLXRuJywgJzgnLCAnLW1hJywgJzIwMCcsICctbWV0YWxfYmluZGluZycsICctaW1hZScsICc8aW5maWxlLm1hZT4nLCAnLW9tYWUnLCAnPG91dGZpbGUubWFlPic=

> <r_epik_Ionization_Penalty>
0.707076

> <r_epik_Ionization_Penalty_Charging>
0.707039

> <r_epik_Ionization_Penalty_Neutral>
3.67886e-05

> <r_epik_State_Penalty>
0.730276

> <r_epik_Charging_Adjusted_Penalty>
1.43732

> <i_epik_Tot_Q>
1

> <i_epik_Tot_abs_Q>
1

> <r_epik_Metal_State_Penalty>
0.743216

> <b_epik_Metal_Only>
0

> <s_lp_Force_Field>
OPLS_2005

> <r_lp_Energy>
20.903

> <b_lp_Chiralities_Consistent>
1

> <s_lp_Variant>
AV-unprocessed.smi:2044-3

> <Gold.Version>
5.8.1

> <Gold.Id.Protein>
6NUR|6NUR_protein|mol2

> <Gold.PLP.Fitness>
40.4930

> <Gold.PLP.PLP>
-27.3728

> <Gold.PLP.part.hbond>
-4.8973

> <Gold.PLP.part.metal>
0.0000

> <Gold.PLP.part.buried>
-3.0412

> <Gold.PLP.part.nonpolar>
-21.4506

> <Gold.PLP.part.repulsive>
0.3146

> <Gold.PLP.ligand.clash>
0.0000

> <Gold.PLP.ligand.torsion>
1.8030

> <Gold.PLP.Chemscore.Hbond>
5.5527

> <Gold.PLP.Chemscore.CHOScore>
0.0000

> <Gold.PLP.Chemscore.Metal>
0.0000

> <Gold.Chemscore.Hbonds>
donor molecule, donor type, donor heavy atom, donor atom, acceptor molecule, acceptor atom, score
      L1  H     5    24       P1 10175  1.00
      L1  H     8    25       P1 10175  0.83
      L1  H    12    40       P1  7948  2.00
      P1  H 10752 10763       L1    15  1.00
      P1  H 11000 11005       L1    19  0.72

> <Gold.PLP.Chemscore.Internal.Correction>
0.0681

> <Gold.Rescore>
     Score         DG    S(hbond)    S(metal)    S(lipo)     H(rot)  DE(clash)    DE(int)     intcor
     18.27     -22.15       4.09        0.00      61.28       1.62       0.63       3.25       ----

> <Gold.Chemscore.Fitness>
18.2746

> <Gold.Chemscore.DG>
-22.1522

> <Gold.Chemscore.ZeroCoef>
-5.4800

> <Gold.Chemscore.Hbond>
4.0876

> <Gold.Chemscore.Metal>
0.0000

> <Gold.Chemscore.Lipo>
61.2829

> <Gold.Chemscore.Internal_Hbond>
0.0000

> <Gold.Chemscore.DEClash>
0.6299

> <Gold.Chemscore.DEInternal>
3.2477

> <Gold.Chemscore.Rot>
1.6213

> <Gold.Chemscore.Internal.Correction>
   9.000000E+99

> <Gold.Chemscore.Hbonds>
donor molecule, donor type, donor heavy atom, donor atom, acceptor molecule, acceptor atom, score
      L1  H     5    24       P1 10175  0.94
      L1  H     8    25       P1 10175  0.83
      L1  H    12    40       P1  7948  1.00
      P1  H 10752 10763       L1    15  0.08
      P1  H 11000 11005       L1    19  0.66

> <Gold.Chemscore.Hbond.Weighted>
-13.6527

> <Gold.Chemscore.Metal.Weighted>
-0.0000

> <Gold.Chemscore.Lipo.Weighted>
-7.1701

> <Gold.Chemscore.Internal_Hbond.Weighted>
0.0000

> <Gold.Chemscore.DEClash.Weighted>
0.6299

> <Gold.Chemscore.DEInternal.Weighted>
3.2477

> <Gold.Chemscore.Rot.Weighted>
4.1506

> <Gold.Chemscore.Internal.Correction.Weighted>
   9.000000E+99

> <Gold.Protein.RotatedTorsions>
[ 6907 6896 6895 6894 ] final  107.64 input  -60.11 | X-H torsion
[ 7974 7965 7964 7962 ] final  145.22 input  175.53 | X-H torsion
[ 8008 7997 7996 7995 ] final -140.33 input   59.86 | X-H torsion
[ 10167 10162 10161 10158 ] final  145.24 input  -65.29 | X-H torsion
[ 10718 10713 10712 10709 ] final -125.01 input   66.30 | X-H torsion
[ 10763 10752 10751 10750 ] final   65.49 input  -60.55 | X-H torsion
[ 11005 11000 10999 10996 ] final   48.21 input  -57.11 | X-H torsion

> <Gold.Protein.ActiveResidues>
 VAL166  LYS551  ARG553  GLY616  TRP617  ASP618  TYR619  PRO620  LYS621  CYS622 
 ASP623  PHE694  ASN695  SER759  ASP760  ASP761  ALA762  ILE779  LEU786  VAL792 
 PHE793  MET794  SER795  GLU796  ALA797  LYS798  CYS799  TRP800  GLU811  SER814 

> <Gold.Protein.RotatedAtoms>
  152.5146  133.9204  159.7531 H   0  0  0  0  0  0  0  0  0  0  0  0  # atno 6907 bound_to 6896
  150.9577  133.6470  159.2767 H   0  0  0  0  0  0  0  0  0  0  0  0  # atno 6908 bound_to 6896
  151.3726  135.0930  159.9523 H   0  0  0  0  0  0  0  0  0  0  0  0  # atno 6909 bound_to 6896
  144.8770  139.5757  143.5860 H   0  0  0  0  0  0  0  0  0  0  0  0  # atno 7974 bound_to 7965
  155.4595  140.0544  157.2992 H   0  0  0  0  0  0  0  0  0  0  0  0  # atno 8008 bound_to 7997
  154.4743  140.2054  155.9871 H   0  0  0  0  0  0  0  0  0  0  0  0  # atno 8009 bound_to 7997
  156.1107  140.3204  155.8073 H   0  0  0  0  0  0  0  0  0  0  0  0  # atno 8010 bound_to 7997
  139.4930  144.5915  151.6670 H   0  0  0  0  0  0  0  0  0  0  0  0  # atno 10167 bound_to 10162
  156.1637  130.6620  151.0086 H   0  0  0  0  0  0  0  0  0  0  0  0  # atno 10718 bound_to 10713
  153.0098  135.5355  154.6675 H   0  0  0  0  0  0  0  0  0  0  0  0  # atno 10763 bound_to 10752
  154.5868  135.2855  155.0679 H   0  0  0  0  0  0  0  0  0  0  0  0  # atno 10764 bound_to 10752
  154.1787  135.6520  153.5081 H   0  0  0  0  0  0  0  0  0  0  0  0  # atno 10765 bound_to 10752
  140.1210  134.4829  155.8597 H   0  0  0  0  0  0  0  0  0  0  0  0  # atno 11005 bound_to 11000
  146.2969  139.7307  142.9120 LP  0  0  0  0  0  0  0  0  0  0  0  0  # atno 17320 bound_to 7965
  145.4024  141.0386  143.3063 LP  0  0  0  0  0  0  0  0  0  0  0  0  # atno 17321 bound_to 7965
  140.5543  144.0373  150.6141 LP  0  0  0  0  0  0  0  0  0  0  0  0  # atno 17342 bound_to 10162
  140.3438  143.3004  152.0560 LP  0  0  0  0  0  0  0  0  0  0  0  0  # atno 17343 bound_to 10162
  157.6752  131.0852  150.7512 LP  0  0  0  0  0  0  0  0  0  0  0  0  # atno 17370 bound_to 10713
  156.7574  130.4788  149.5444 LP  0  0  0  0  0  0  0  0  0  0  0  0  # atno 17371 bound_to 10713
  141.2151  133.6761  156.6889 LP  0  0  0  0  0  0  0  0  0  0  0  0  # atno 17394 bound_to 11000
  140.2965  134.8199  157.4061 LP  0  0  0  0  0  0  0  0  0  0  0  0  # atno 17395 bound_to 11000

$$$$
