AV-unprocessed.smi:1244|AV-procd|sdf|5238|dock1
  -GOLD-   22720 4343D 1   1.00000     0.00000
 Structure written by MMmdl.
 55 57  0  0  0  0  0  0  0  0  4 V2000
  147.6609  132.5082  152.5311 C   0  0  0  0  0  0  0  0  0  0  0  0
  147.8674  133.0658  153.9438 C   0  0  1  0  0  0  0  0  0  0  0  0
  149.1734  133.8719  154.0589 C   0  0  0  0  0  0  0  0  0  0  0  0
  149.2949  134.4729  155.4079 N   0  3  1  0  0  0  0  0  0  0  0  0
  150.5961  135.1614  155.6193 C   0  0  0  0  0  0  0  0  0  0  0  0
  150.7506  136.4041  154.7189 C   0  0  0  0  0  0  0  0  0  0  0  0
  152.0928  136.9647  154.8708 N   0  5  0  0  0  0  0  0  0  0  0  0
  152.3831  138.1301  155.5083 C   0  0  0  0  0  0  0  0  0  0  0  0
  153.4794  138.5008  155.9426 O   0  0  0  0  0  0  0  0  0  0  0  0
  151.2938  138.9036  155.6551 N   0  0  0  0  0  0  0  0  0  0  0  0
  151.1631  140.1744  156.2839 C   0  0  0  0  0  0  0  0  0  0  0  0
  152.0229  140.5667  157.3418 C   0  0  0  0  0  0  0  0  0  0  0  0
  151.8568  141.8218  157.9559 C   0  0  0  0  0  0  0  0  0  0  0  0
  150.8369  142.6723  157.4978 C   0  0  0  0  0  0  0  0  0  0  0  0
  150.0515  142.2819  156.4732 N   0  3  0  0  0  0  0  0  0  0  0  0
  150.1700  141.0924  155.8308 C   0  0  0  0  0  0  0  0  0  0  0  0
  149.2785  140.8361  154.7625 N   0  0  0  0  0  0  0  0  0  0  0  0
  148.5249  139.5889  154.7111 C   0  0  0  0  0  0  0  0  0  0  0  0
  147.4684  139.8073  153.6315 C   0  0  0  0  0  0  0  0  0  0  0  0
  147.1341  141.2868  153.7939 C   0  0  0  0  0  0  0  0  0  0  0  0
  148.4670  141.9168  154.2110 C   0  0  0  0  0  0  0  0  0  0  0  0
  148.1085  135.3214  155.6955 C   0  0  0  0  0  0  0  0  0  0  0  0
  146.8035  134.5182  155.5377 C   0  0  2  0  0  0  0  0  0  0  0  0
  146.5627  133.5082  156.6741 C   0  0  0  0  0  0  0  0  0  0  0  0
  146.7571  133.9064  154.2486 O   0  0  0  0  0  0  0  0  0  0  0  0
  148.4776  131.8440  152.2476 H   0  0  0  0  0  0  0  0  0  0  0  0
  147.6102  133.3097  151.7937 H   0  0  0  0  0  0  0  0  0  0  0  0
  146.7332  131.9390  152.4685 H   0  0  0  0  0  0  0  0  0  0  0  0
  147.8936  132.2254  154.6376 H   0  0  0  0  0  0  0  0  0  0  0  0
  150.0224  133.2130  153.8712 H   0  0  0  0  0  0  0  0  0  0  0  0
  149.2052  134.6607  153.3053 H   0  0  0  0  0  0  0  0  0  0  0  0
  150.6683  135.4894  156.6577 H   0  0  0  0  0  0  0  0  0  0  0  0
  151.4194  134.4613  155.4680 H   0  0  0  0  0  0  0  0  0  0  0  0
  150.5654  136.1162  153.6840 H   0  0  0  0  0  0  0  0  0  0  0  0
  149.9654  137.1215  154.9624 H   0  0  0  0  0  0  0  0  0  0  0  0
  150.4282  138.4757  155.3616 H   0  0  0  0  0  0  0  0  0  0  0  0
  152.8166  139.9238  157.6906 H   0  0  0  0  0  0  0  0  0  0  0  0
  152.5029  142.1254  158.7666 H   0  0  0  0  0  0  0  0  0  0  0  0
  150.6321  143.6500  157.9088 H   0  0  0  0  0  0  0  0  0  0  0  0
  149.1699  138.7404  154.4813 H   0  0  0  0  0  0  0  0  0  0  0  0
  148.0374  139.4033  155.6689 H   0  0  0  0  0  0  0  0  0  0  0  0
  147.8990  139.6293  152.6452 H   0  0  0  0  0  0  0  0  0  0  0  0
  146.6008  139.1569  153.7469 H   0  0  0  0  0  0  0  0  0  0  0  0
  146.7202  141.7322  152.8891 H   0  0  0  0  0  0  0  0  0  0  0  0
  146.4035  141.4111  154.5942 H   0  0  0  0  0  0  0  0  0  0  0  0
  148.3152  142.7256  154.9271 H   0  0  0  0  0  0  0  0  0  0  0  0
  148.9753  142.3245  153.3369 H   0  0  0  0  0  0  0  0  0  0  0  0
  148.1649  135.7394  156.7010 H   0  0  0  0  0  0  0  0  0  0  0  0
  148.1017  136.1674  155.0063 H   0  0  0  0  0  0  0  0  0  0  0  0
  145.9739  135.2254  155.5649 H   0  0  0  0  0  0  0  0  0  0  0  0
  146.4710  134.0202  157.6324 H   0  0  0  0  0  0  0  0  0  0  0  0
  147.3759  132.7892  156.7699 H   0  0  0  0  0  0  0  0  0  0  0  0
  145.6402  132.9510  156.5099 H   0  0  0  0  0  0  0  0  0  0  0  0
  149.2788  133.7034  156.0622 H   0  0  0  0  0  0  0  0  0  0  0  0
  149.3276  142.9261  156.1552 H   0  0  0  0  0  0  0  0  0  0  0  0
  1  2  1  0  0  0  0
  1 26  1  0  0  0  0
  1 27  1  0  0  0  0
  1 28  1  0  0  0  0
  2 25  1  0  0  0  0
  2  3  1  0  0  0  0
  2 29  1  0  0  0  0
  3  4  1  0  0  0  0
  3 30  1  0  0  0  0
  3 31  1  0  0  0  0
  4  5  1  0  0  0  0
  4 22  1  0  0  0  0
  4 54  1  0  0  0  0
  5  6  1  0  0  0  0
  5 32  1  0  0  0  0
  5 33  1  0  0  0  0
  6  7  1  0  0  0  0
  6 34  1  0  0  0  0
  6 35  1  0  0  0  0
  7  8  1  0  0  0  0
  8  9  2  0  0  0  0
  8 10  1  0  0  0  0
 10 11  1  0  0  0  0
 10 36  1  0  0  0  0
 11 16  1  0  0  0  0
 11 12  2  0  0  0  0
 12 13  1  0  0  0  0
 12 37  1  0  0  0  0
 13 14  2  0  0  0  0
 13 38  1  0  0  0  0
 14 15  1  0  0  0  0
 14 39  1  0  0  0  0
 15 16  2  0  0  0  0
 15 55  1  0  0  0  0
 16 17  1  0  0  0  0
 17 21  1  0  0  0  0
 17 18  1  0  0  0  0
 18 19  1  0  0  0  0
 18 40  1  0  0  0  0
 18 41  1  0  0  0  0
 19 20  1  0  0  0  0
 19 42  1  0  0  0  0
 19 43  1  0  0  0  0
 20 21  1  0  0  0  0
 20 44  1  0  0  0  0
 20 45  1  0  0  0  0
 21 46  1  0  0  0  0
 21 47  1  0  0  0  0
 22 23  1  0  0  0  0
 22 48  1  0  0  0  0
 22 49  1  0  0  0  0
 23 24  1  0  0  0  0
 23 25  1  0  0  0  0
 23 50  1  0  0  0  0
 24 51  1  0  0  0  0
 24 52  1  0  0  0  0
 24 53  1  0  0  0  0
M  CHG  1   4   1
M  CHG  1   7  -1
M  CHG  1  15   1
M  END
> <s_m_source_file>
AV-unprocessed.smi

> <i_m_source_file_index>
1244

> <i_lp_mmshare_version>
43012

> <i_f3d_flags>
0

> <s_epik_input>
W0NIM11bQ0BASF0xW0NIMl1OKFtDSDJdW0NASF0oTzEpW0NIM10pW0NIMl1bQ0gyXVtOSF1DKD1PKVtOSF1jMltjSF1bY0hdW2NIXW5jMk4zW0NIMl1bQ0gyXVtDSDJdW0NIMl0z

> <s_epik_cmdline>
J2VwaWtfcHl0aG9uJywgJy1waCcsICc3LjAnLCAnLXRuJywgJzgnLCAnLW1hJywgJzIwMCcsICctbWV0YWxfYmluZGluZycsICctaW1hZScsICc8aW5maWxlLm1hZT4nLCAnLW9tYWUnLCAnPG91dGZpbGUubWFlPic=

> <r_lp_tautomer_probability>
0.999994

> <r_epik_Ionization_Penalty>
8.60539

> <r_epik_Ionization_Penalty_Charging>
8.60539

> <r_epik_Ionization_Penalty_Neutral>
3.60441e-06

> <r_epik_State_Penalty>
8.59967

> <r_epik_Charging_Adjusted_Penalty>
17.2051

> <i_epik_Tot_Q>
1

> <i_epik_Tot_abs_Q>
3

> <r_epik_Metal_State_Penalty>
4.59489

> <b_epik_Metal_Only>
1

> <s_lp_Force_Field>
OPLS_2005

> <r_lp_Energy>
46.9431

> <b_lp_Chiralities_Consistent>
1

> <s_lp_Variant>
AV-unprocessed.smi:1244-18

> <Gold.Version>
5.8.1

> <Gold.Id.Protein>
6NUR|6NUR_protein|mol2

> <Gold.PLP.Fitness>
49.5513

> <Gold.PLP.PLP>
-36.5424

> <Gold.PLP.part.hbond>
-3.0000

> <Gold.PLP.part.metal>
0.0000

> <Gold.PLP.part.buried>
-1.0561

> <Gold.PLP.part.nonpolar>
-32.6246

> <Gold.PLP.part.repulsive>
0.3577

> <Gold.PLP.ligand.clash>
0.9504

> <Gold.PLP.ligand.torsion>
0.7947

> <Gold.PLP.Chemscore.Hbond>
4.8160

> <Gold.PLP.Chemscore.CHOScore>
0.0000

> <Gold.PLP.Chemscore.Metal>
0.0000

> <Gold.Chemscore.Hbonds>
donor molecule, donor type, donor heavy atom, donor atom, acceptor molecule, acceptor atom, score
      L1  H    15    55       P1  8028  1.89
      P1  H  7997  8008       L1     9  0.82
      P1  H 10752 10764       L1     7  1.76

> <Gold.PLP.Chemscore.Internal.Correction>
1.1006

> <Gold.Rescore>
     Score         DG    S(hbond)    S(metal)    S(lipo)     H(rot)  DE(clash)    DE(int)     intcor
     15.97     -19.10       2.40        0.00      78.84       1.42       0.02       3.11       ----

> <Gold.Chemscore.Fitness>
15.9667

> <Gold.Chemscore.DG>
-19.0951

> <Gold.Chemscore.ZeroCoef>
-5.4800

> <Gold.Chemscore.Hbond>
2.4019

> <Gold.Chemscore.Metal>
0.0000

> <Gold.Chemscore.Lipo>
78.8372

> <Gold.Chemscore.Internal_Hbond>
0.0000

> <Gold.Chemscore.DEClash>
0.0161

> <Gold.Chemscore.DEInternal>
3.1122

> <Gold.Chemscore.Rot>
1.4185

> <Gold.Chemscore.Internal.Correction>
   9.000000E+99

> <Gold.Chemscore.Hbonds>
donor molecule, donor type, donor heavy atom, donor atom, acceptor molecule, acceptor atom, score
      L1  H    15    55       P1  8028  0.91
      P1  H  7997  8008       L1     9  0.81
      P1  H 10752 10764       L1     7  0.19

> <Gold.Chemscore.Hbond.Weighted>
-8.0224

> <Gold.Chemscore.Metal.Weighted>
-0.0000

> <Gold.Chemscore.Lipo.Weighted>
-9.2240

> <Gold.Chemscore.Internal_Hbond.Weighted>
0.0000

> <Gold.Chemscore.DEClash.Weighted>
0.0161

> <Gold.Chemscore.DEInternal.Weighted>
3.1122

> <Gold.Chemscore.Rot.Weighted>
3.6313

> <Gold.Chemscore.Internal.Correction.Weighted>
   9.000000E+99

> <Gold.Protein.RotatedTorsions>
[ 6907 6896 6895 6894 ] final  152.60 input  -60.11 | X-H torsion
[ 7974 7965 7964 7962 ] final   95.18 input  175.53 | X-H torsion
[ 8008 7997 7996 7995 ] final  -41.71 input   59.86 | X-H torsion
[ 10167 10162 10161 10158 ] final -139.93 input  -65.29 | X-H torsion
[ 10718 10713 10712 10709 ] final  150.04 input   66.30 | X-H torsion
[ 10763 10752 10751 10750 ] final  -59.38 input  -60.55 | X-H torsion
[ 11005 11000 10999 10996 ] final   34.12 input  -57.11 | X-H torsion

> <Gold.Protein.ActiveResidues>
 VAL166  LYS551  ARG553  GLY616  TRP617  ASP618  TYR619  PRO620  LYS621  CYS622 
 ASP623  PHE694  ASN695  SER759  ASP760  ASP761  ALA762  ILE779  LEU786  VAL792 
 PHE793  MET794  SER795  GLU796  ALA797  LYS798  CYS799  TRP800  GLU811  SER814 

> <Gold.Protein.RotatedAtoms>
  152.0845  133.4169  159.4515 H   0  0  0  0  0  0  0  0  0  0  0  0  # atno 6907 bound_to 6896
  150.6862  134.2944  159.4689 H   0  0  0  0  0  0  0  0  0  0  0  0  # atno 6908 bound_to 6896
  152.0789  134.9484  160.0624 H   0  0  0  0  0  0  0  0  0  0  0  0  # atno 6909 bound_to 6896
  145.4557  139.2290  143.3015 H   0  0  0  0  0  0  0  0  0  0  0  0  # atno 7974 bound_to 7965
  154.4002  140.1492  156.3236 H   0  0  0  0  0  0  0  0  0  0  0  0  # atno 8008 bound_to 7997
  155.8507  140.3458  155.5670 H   0  0  0  0  0  0  0  0  0  0  0  0  # atno 8009 bound_to 7997
  155.7987  140.0867  157.1959 H   0  0  0  0  0  0  0  0  0  0  0  0  # atno 8010 bound_to 7997
  139.8331  143.7421  152.2665 H   0  0  0  0  0  0  0  0  0  0  0  0  # atno 10167 bound_to 10162
  157.2885  131.0849  151.1479 H   0  0  0  0  0  0  0  0  0  0  0  0  # atno 10718 bound_to 10713
  154.2529  135.6322  153.5246 H   0  0  0  0  0  0  0  0  0  0  0  0  # atno 10763 bound_to 10752
  152.9909  135.5569  154.5788 H   0  0  0  0  0  0  0  0  0  0  0  0  # atno 10764 bound_to 10752
  154.5320  135.2889  155.1147 H   0  0  0  0  0  0  0  0  0  0  0  0  # atno 10765 bound_to 10752
  140.2561  134.3246  155.7873 H   0  0  0  0  0  0  0  0  0  0  0  0  # atno 11005 bound_to 11000
  146.2480  140.5320  142.8906 LP  0  0  0  0  0  0  0  0  0  0  0  0  # atno 17320 bound_to 7965
  144.8034  140.6255  143.6463 LP  0  0  0  0  0  0  0  0  0  0  0  0  # atno 17321 bound_to 7965
  139.7634  144.7499  151.0330 LP  0  0  0  0  0  0  0  0  0  0  0  0  # atno 17342 bound_to 10162
  140.7805  143.4725  151.0127 LP  0  0  0  0  0  0  0  0  0  0  0  0  # atno 17343 bound_to 10162
  157.2885  130.6784  149.6102 LP  0  0  0  0  0  0  0  0  0  0  0  0  # atno 17370 bound_to 10713
  155.9666  130.4428  150.5396 LP  0  0  0  0  0  0  0  0  0  0  0  0  # atno 17371 bound_to 10713
  141.2196  133.7382  156.9114 LP  0  0  0  0  0  0  0  0  0  0  0  0  # atno 17394 bound_to 11000
  140.1510  134.9230  157.2592 LP  0  0  0  0  0  0  0  0  0  0  0  0  # atno 17395 bound_to 11000

$$$$
