AV-unprocessed.smi:3186|AV-procd|sdf|12173|dock1
  -GOLD-   2272018 13D 1   1.00000     0.00000
 Structure written by MMmdl.
 37 38  0  0  0  0  0  0  0  0  2 V2000
  148.9970  140.8680  154.2498 C   0  0  0  0  0  0  0  0  0  0  0  0
  150.1413  139.9242  154.5749 C   0  0  0  0  0  0  0  0  0  0  0  0
  150.2837  138.7219  153.8478 C   0  0  0  0  0  0  0  0  0  0  0  0
  151.2700  137.8278  154.0681 N   0  0  0  0  0  0  0  0  0  0  0  0
  152.1676  138.1044  155.0360 C   0  0  0  0  0  0  0  0  0  0  0  0
  152.1211  139.2727  155.8213 C   0  0  0  0  0  0  0  0  0  0  0  0
  151.0893  140.2066  155.5899 C   0  0  0  0  0  0  0  0  0  0  0  0
  151.0238  141.4691  156.4349 C   0  0  0  0  0  0  0  0  0  0  0  0
  149.6614  141.6353  157.1225 C   0  0  0  0  0  0  0  0  0  0  0  0
  149.5263  142.9845  157.7105 N   0  3  0  0  0  0  0  0  0  0  0  0
  150.7281  143.4910  158.4106 C   0  0  2  0  0  0  0  0  0  0  0  0
  151.3758  142.3828  159.2707 C   0  0  0  0  0  0  0  0  0  0  0  0
  152.6601  142.8478  159.9772 C   0  0  0  0  0  0  0  0  0  0  0  0
  152.4137  144.0206  160.9356 C   0  0  0  0  0  0  0  0  0  0  0  0
  151.7923  145.4709  160.0441 S   0  0  0  0  0  0  0  0  0  0  0  0
  150.3405  144.7081  159.2702 C   0  0  0  0  0  0  0  0  0  0  0  0
  148.3161  140.4252  153.5220 H   0  0  0  0  0  0  0  0  0  0  0  0
  149.3799  141.7974  153.8279 H   0  0  0  0  0  0  0  0  0  0  0  0
  148.4195  141.1032  155.1434 H   0  0  0  0  0  0  0  0  0  0  0  0
  149.5852  138.4669  153.0641 H   0  0  0  0  0  0  0  0  0  0  0  0
  152.9461  137.3722  155.1915 H   0  0  0  0  0  0  0  0  0  0  0  0
  152.8653  139.4435  156.5853 H   0  0  0  0  0  0  0  0  0  0  0  0
  151.8131  141.4277  157.1870 H   0  0  0  0  0  0  0  0  0  0  0  0
  151.2477  142.3402  155.8189 H   0  0  0  0  0  0  0  0  0  0  0  0
  148.8626  141.4615  156.4027 H   0  0  0  0  0  0  0  0  0  0  0  0
  149.5497  140.8888  157.9102 H   0  0  0  0  0  0  0  0  0  0  0  0
  149.3219  143.6202  156.9525 H   0  0  0  0  0  0  0  0  0  0  0  0
  151.4418  143.8266  157.6562 H   0  0  0  0  0  0  0  0  0  0  0  0
  150.6612  142.0259  160.0137 H   0  0  0  0  0  0  0  0  0  0  0  0
  151.6239  141.5209  158.6519 H   0  0  0  0  0  0  0  0  0  0  0  0
  153.0840  142.0128  160.5361 H   0  0  0  0  0  0  0  0  0  0  0  0
  153.4091  143.1289  159.2358 H   0  0  0  0  0  0  0  0  0  0  0  0
  151.6945  143.7393  161.7058 H   0  0  0  0  0  0  0  0  0  0  0  0
  153.3383  144.2929  161.4453 H   0  0  0  0  0  0  0  0  0  0  0  0
  149.8481  145.4649  158.6583 H   0  0  0  0  0  0  0  0  0  0  0  0
  149.6348  144.4208  160.0507 H   0  0  0  0  0  0  0  0  0  0  0  0
  148.7479  142.9940  158.3539 H   0  0  0  0  0  0  0  0  0  0  0  0
  1  2  1  0  0  0  0
  1 17  1  0  0  0  0
  1 18  1  0  0  0  0
  1 19  1  0  0  0  0
  2  7  1  0  0  0  0
  2  3  2  0  0  0  0
  3  4  1  0  0  0  0
  3 20  1  0  0  0  0
  4  5  2  0  0  0  0
  5  6  1  0  0  0  0
  5 21  1  0  0  0  0
  6  7  2  0  0  0  0
  6 22  1  0  0  0  0
  7  8  1  0  0  0  0
  8  9  1  0  0  0  0
  8 23  1  0  0  0  0
  8 24  1  0  0  0  0
  9 10  1  0  0  0  0
  9 25  1  0  0  0  0
  9 26  1  0  0  0  0
 10 11  1  0  0  0  0
 10 27  1  0  0  0  0
 10 37  1  0  0  0  0
 11 16  1  0  0  0  0
 11 12  1  0  0  0  0
 11 28  1  0  0  0  0
 12 13  1  0  0  0  0
 12 29  1  0  0  0  0
 12 30  1  0  0  0  0
 13 14  1  0  0  0  0
 13 31  1  0  0  0  0
 13 32  1  0  0  0  0
 14 15  1  0  0  0  0
 14 33  1  0  0  0  0
 14 34  1  0  0  0  0
 15 16  1  0  0  0  0
 16 35  1  0  0  0  0
 16 36  1  0  0  0  0
M  CHG  1  10   1
M  END
> <s_m_source_file>
AV-unprocessed.smi

> <i_m_source_file_index>
3186

> <i_lp_mmshare_version>
43012

> <i_f3d_flags>
0

> <s_epik_input>
W0NIM11jMVtjSF1uW2NIXVtjSF1jMVtDSDJdW0NIMl1bTkhdW0NAQEhdMltDSDJdW0NIMl1bQ0gyXVNbQ0gyXTI=

> <s_epik_cmdline>
J2VwaWtfcHl0aG9uJywgJy1waCcsICc3LjAnLCAnLXRuJywgJzgnLCAnLW1hJywgJzIwMCcsICctbWV0YWxfYmluZGluZycsICctaW1hZScsICc8aW5maWxlLm1hZT4nLCAnLW9tYWUnLCAnPG91dGZpbGUubWFlPic=

> <r_epik_Ionization_Penalty>
0.00563987

> <r_epik_Ionization_Penalty_Charging>
0.00306352

> <r_epik_Ionization_Penalty_Neutral>
0.00257635

> <r_epik_State_Penalty>
0.00506628

> <r_epik_Charging_Adjusted_Penalty>
0.0081298

> <i_epik_Tot_Q>
1

> <i_epik_Tot_abs_Q>
1

> <r_epik_Metal_State_Penalty>
-0

> <b_epik_Metal_Only>
0

> <s_lp_Force_Field>
OPLS_2005

> <r_lp_Energy>
10.8163

> <b_lp_Chiralities_Consistent>
1

> <s_lp_Variant>
AV-unprocessed.smi:3186-1

> <Gold.Version>
5.8.1

> <Gold.Id.Protein>
6NUR|6NUR_protein|mol2

> <Gold.PLP.Fitness>
49.5644

> <Gold.PLP.PLP>
-39.4048

> <Gold.PLP.part.hbond>
-1.0000

> <Gold.PLP.part.metal>
0.0000

> <Gold.PLP.part.buried>
-3.0219

> <Gold.PLP.part.nonpolar>
-34.7451

> <Gold.PLP.part.repulsive>
0.2705

> <Gold.PLP.ligand.clash>
0.0000

> <Gold.PLP.ligand.torsion>
0.2585

> <Gold.PLP.Chemscore.Hbond>
2.0000

> <Gold.PLP.Chemscore.CHOScore>
1.5514

> <Gold.PLP.Chemscore.Metal>
0.0000

> <Gold.Chemscore.Hbonds>
donor molecule, donor type, donor heavy atom, donor atom, acceptor molecule, acceptor atom, score
      L1  H    10    27       P1  8028  2.00
      L1  C     3    20       P1  7948  0.89
      L1  C     3    20       P1  7957  0.68

> <Gold.PLP.Chemscore.Internal.Correction>
0.0226

> <Gold.Rescore>
     Score         DG    S(hbond)    S(metal)    S(lipo)     H(rot)  DE(clash)    DE(int)     intcor
     19.28     -19.53       0.99        0.00     120.41       1.30       0.11       0.14       ----

> <Gold.Chemscore.Fitness>
19.2782

> <Gold.Chemscore.DG>
-19.5279

> <Gold.Chemscore.ZeroCoef>
-5.4800

> <Gold.Chemscore.Hbond>
0.9869

> <Gold.Chemscore.Metal>
0.0000

> <Gold.Chemscore.Lipo>
120.4070

> <Gold.Chemscore.Internal_Hbond>
0.0000

> <Gold.Chemscore.DEClash>
0.1104

> <Gold.Chemscore.DEInternal>
0.1393

> <Gold.Chemscore.Rot>
1.3031

> <Gold.Chemscore.Internal.Correction>
   9.000000E+99

> <Gold.Chemscore.Hbonds>
donor molecule, donor type, donor heavy atom, donor atom, acceptor molecule, acceptor atom, score
      L1  H    10    27       P1  8028  0.85

> <Gold.Chemscore.Hbond.Weighted>
-3.2964

> <Gold.Chemscore.Metal.Weighted>
-0.0000

> <Gold.Chemscore.Lipo.Weighted>
-14.0876

> <Gold.Chemscore.Internal_Hbond.Weighted>
0.0000

> <Gold.Chemscore.DEClash.Weighted>
0.1104

> <Gold.Chemscore.DEInternal.Weighted>
0.1393

> <Gold.Chemscore.Rot.Weighted>
3.3361

> <Gold.Chemscore.Internal.Correction.Weighted>
   9.000000E+99

> <Gold.Protein.RotatedTorsions>
[ 6907 6896 6895 6894 ] final   30.83 input  -60.11 | X-H torsion
[ 7974 7965 7964 7962 ] final   52.39 input  175.53 | X-H torsion
[ 8008 7997 7996 7995 ] final -162.82 input   59.86 | X-H torsion
[ 10167 10162 10161 10158 ] final  -27.14 input  -65.29 | X-H torsion
[ 10718 10713 10712 10709 ] final  -29.52 input   66.30 | X-H torsion
[ 10763 10752 10751 10750 ] final   30.98 input  -60.55 | X-H torsion
[ 11005 11000 10999 10996 ] final -141.06 input  -57.11 | X-H torsion

> <Gold.Protein.ActiveResidues>
 VAL166  LYS551  ARG553  GLY616  TRP617  ASP618  TYR619  PRO620  LYS621  CYS622 
 ASP623  PHE694  ASN695  SER759  ASP760  ASP761  ALA762  ILE779  LEU786  VAL792 
 PHE793  MET794  SER795  GLU796  ALA797  LYS798  CYS799  TRP800  GLU811  SER814 

> <Gold.Protein.RotatedAtoms>
  152.0516  134.9650  160.0574 H   0  0  0  0  0  0  0  0  0  0  0  0  # atno 6907 bound_to 6896
  152.1048  133.4264  159.4612 H   0  0  0  0  0  0  0  0  0  0  0  0  # atno 6908 bound_to 6896
  150.6841  134.2637  159.4603 H   0  0  0  0  0  0  0  0  0  0  0  0  # atno 6909 bound_to 6896
  145.9818  139.4249  143.0127 H   0  0  0  0  0  0  0  0  0  0  0  0  # atno 7974 bound_to 7965
  155.8123  140.0907  157.1896 H   0  0  0  0  0  0  0  0  0  0  0  0  # atno 8008 bound_to 7997
  154.3980  140.1452  156.3461 H   0  0  0  0  0  0  0  0  0  0  0  0  # atno 8009 bound_to 7997
  155.8352  140.3441  155.5599 H   0  0  0  0  0  0  0  0  0  0  0  0  # atno 8010 bound_to 7997
  140.7279  143.4118  151.1092 H   0  0  0  0  0  0  0  0  0  0  0  0  # atno 10167 bound_to 10162
  156.4114  130.4409  149.7250 H   0  0  0  0  0  0  0  0  0  0  0  0  # atno 10718 bound_to 10713
  153.0341  135.6450  154.1129 H   0  0  0  0  0  0  0  0  0  0  0  0  # atno 10763 bound_to 10752
  154.0846  135.2871  155.3285 H   0  0  0  0  0  0  0  0  0  0  0  0  # atno 10764 bound_to 10752
  154.6506  135.5427  153.7961 H   0  0  0  0  0  0  0  0  0  0  0  0  # atno 10765 bound_to 10752
  140.8361  134.2458  157.4833 H   0  0  0  0  0  0  0  0  0  0  0  0  # atno 11005 bound_to 11000
  145.7759  140.9877  143.1125 LP  0  0  0  0  0  0  0  0  0  0  0  0  # atno 17320 bound_to 7965
  144.6863  139.9504  143.7478 LP  0  0  0  0  0  0  0  0  0  0  0  0  # atno 17321 bound_to 7965
  139.7753  143.8435  152.3128 LP  0  0  0  0  0  0  0  0  0  0  0  0  # atno 17342 bound_to 10162
  139.8367  144.7229  150.9382 LP  0  0  0  0  0  0  0  0  0  0  0  0  # atno 17343 bound_to 10162
  156.4227  130.7776  151.2794 LP  0  0  0  0  0  0  0  0  0  0  0  0  # atno 17370 bound_to 10713
  157.7507  131.0178  150.3600 LP  0  0  0  0  0  0  0  0  0  0  0  0  # atno 17371 bound_to 10713
  139.8704  134.9611  156.4386 LP  0  0  0  0  0  0  0  0  0  0  0  0  # atno 17394 bound_to 11000
  140.8946  133.7823  155.9610 LP  0  0  0  0  0  0  0  0  0  0  0  0  # atno 17395 bound_to 11000

$$$$
