AV-unprocessed.smi:2426|AV-procd|sdf|9577|dock4
  -GOLD-   2272013213D 1   1.00000     0.00000
 Structure written by MMmdl.
 36 37  0  0  0  0  0  0  0  0  1 V2000
  147.1109  138.8154  152.2546 C   0  0  0  0  0  0  0  0  0  0  0  0
  147.1896  139.7678  153.3092 O   0  0  0  0  0  0  0  0  0  0  0  0
  148.3869  139.8970  153.9818 C   0  0  0  0  0  0  0  0  0  0  0  0
  148.6245  141.0532  154.7533 C   0  0  0  0  0  0  0  0  0  0  0  0
  149.8620  141.1444  155.4289 C   0  0  0  0  0  0  0  0  0  0  0  0
  150.0608  142.3228  156.1959 N   0  0  0  0  0  0  0  0  0  0  0  0
  150.8999  142.5064  157.2305 C   0  0  0  0  0  0  0  0  0  0  0  0
  151.6637  141.6546  157.6859 O   0  0  0  0  0  0  0  0  0  0  0  0
  150.7973  143.7505  157.7221 N   0  0  0  0  0  0  0  0  0  0  0  0
  151.5382  144.2793  158.8649 C   0  0  1  0  0  0  0  0  0  0  0  0
  150.8719  145.5778  159.3408 C   0  0  0  0  0  0  0  0  0  0  0  0
  151.6071  143.2286  159.9752 C   0  0  0  0  0  0  0  0  0  0  0  0
  151.8886  143.6572  161.4237 C   0  0  0  0  0  0  0  0  0  0  0  0
  152.6547  142.3451  161.6145 C   0  0  0  0  0  0  0  0  0  0  0  0
  152.8301  142.3050  160.0942 C   0  0  0  0  0  0  0  0  0  0  0  0
  150.7685  140.1420  155.3184 N   0  0  0  0  0  0  0  0  0  0  0  0
  150.4488  139.0898  154.5630 C   0  0  0  0  0  0  0  0  0  0  0  0
  149.3116  138.9107  153.8899 N   0  0  0  0  0  0  0  0  0  0  0  0
  146.1068  138.8278  151.8311 H   0  0  0  0  0  0  0  0  0  0  0  0
  147.3053  137.8039  152.6145 H   0  0  0  0  0  0  0  0  0  0  0  0
  147.8117  139.0508  151.4521 H   0  0  0  0  0  0  0  0  0  0  0  0
  147.8821  141.8350  154.8216 H   0  0  0  0  0  0  0  0  0  0  0  0
  149.4890  143.1125  155.9354 H   0  0  0  0  0  0  0  0  0  0  0  0
  150.1429  144.3799  157.2813 H   0  0  0  0  0  0  0  0  0  0  0  0
  152.5512  144.5360  158.5502 H   0  0  0  0  0  0  0  0  0  0  0  0
  151.4213  146.0188  160.1729 H   0  0  0  0  0  0  0  0  0  0  0  0
  149.8488  145.4011  159.6744 H   0  0  0  0  0  0  0  0  0  0  0  0
  150.8394  146.3190  158.5415 H   0  0  0  0  0  0  0  0  0  0  0  0
  150.7071  142.6092  159.9727 H   0  0  0  0  0  0  0  0  0  0  0  0
  152.5343  144.5345  161.4884 H   0  0  0  0  0  0  0  0  0  0  0  0
  151.0014  143.7643  162.0484 H   0  0  0  0  0  0  0  0  0  0  0  0
  153.5827  142.4350  162.1798 H   0  0  0  0  0  0  0  0  0  0  0  0
  152.0254  141.5366  161.9899 H   0  0  0  0  0  0  0  0  0  0  0  0
  152.7035  141.3209  159.6426 H   0  0  0  0  0  0  0  0  0  0  0  0
  153.7556  142.7812  159.7661 H   0  0  0  0  0  0  0  0  0  0  0  0
  151.1852  138.3034  154.4892 H   0  0  0  0  0  0  0  0  0  0  0  0
  1  2  1  0  0  0  0
  1 19  1  0  0  0  0
  1 20  1  0  0  0  0
  1 21  1  0  0  0  0
  2  3  1  0  0  0  0
  3 18  1  0  0  0  0
  3  4  2  0  0  0  0
  4  5  1  0  0  0  0
  4 22  1  0  0  0  0
  5  6  1  0  0  0  0
  5 16  2  0  0  0  0
  6  7  1  0  0  0  0
  6 23  1  0  0  0  0
  7  8  2  0  0  0  0
  7  9  1  0  0  0  0
  9 10  1  0  0  0  0
  9 24  1  0  0  0  0
 10 11  1  0  0  0  0
 10 12  1  0  0  0  0
 10 25  1  0  0  0  0
 11 26  1  0  0  0  0
 11 27  1  0  0  0  0
 11 28  1  0  0  0  0
 12 15  1  0  0  0  0
 12 13  1  0  0  0  0
 12 29  1  0  0  0  0
 13 14  1  0  0  0  0
 13 30  1  0  0  0  0
 13 31  1  0  0  0  0
 14 15  1  0  0  0  0
 14 32  1  0  0  0  0
 14 33  1  0  0  0  0
 15 34  1  0  0  0  0
 15 35  1  0  0  0  0
 16 17  1  0  0  0  0
 17 18  2  0  0  0  0
 17 36  1  0  0  0  0
M  END
> <s_m_source_file>
AV-unprocessed.smi

> <i_m_source_file_index>
2426

> <i_lp_mmshare_version>
43012

> <i_f3d_flags>
0

> <s_epik_input>
W0NIM11PYzFbY0hdYyhuW2NIXW4xKVtOSF1DKD1PKVtOSF1bQ0BIXShbQ0gzXSlbQ0hdMltDSDJdW0NIMl1bQ0gyXTI=

> <s_epik_cmdline>
J2VwaWtfcHl0aG9uJywgJy1waCcsICc3LjAnLCAnLXRuJywgJzgnLCAnLW1hJywgJzIwMCcsICctbWV0YWxfYmluZGluZycsICctaW1hZScsICc8aW5maWxlLm1hZT4nLCAnLW9tYWUnLCAnPG91dGZpbGUubWFlPic=

> <r_lp_tautomer_probability>
1

> <r_epik_Ionization_Penalty>
2.84534e-05

> <r_epik_Ionization_Penalty_Charging>
0

> <r_epik_Ionization_Penalty_Neutral>
2.84534e-05

> <r_epik_State_Penalty>
-0

> <r_epik_Charging_Adjusted_Penalty>
0

> <i_epik_Tot_Q>
0

> <i_epik_Tot_abs_Q>
0

> <r_epik_Metal_State_Penalty>
-0

> <b_epik_Metal_Only>
0

> <s_lp_Force_Field>
OPLS_2005

> <r_lp_Energy>
11.0753

> <b_lp_Chiralities_Consistent>
1

> <s_lp_Variant>
AV-unprocessed.smi:2426-2

> <Gold.Version>
5.8.1

> <Gold.Id.Protein>
6NUR|6NUR_protein|mol2

> <Gold.PLP.Fitness>
46.2816

> <Gold.PLP.PLP>
-41.7620

> <Gold.PLP.part.hbond>
-3.0000

> <Gold.PLP.part.metal>
0.0000

> <Gold.PLP.part.buried>
-3.8094

> <Gold.PLP.part.nonpolar>
-37.0415

> <Gold.PLP.part.repulsive>
1.9308

> <Gold.PLP.ligand.clash>
0.0000

> <Gold.PLP.ligand.torsion>
1.2810

> <Gold.PLP.Chemscore.Hbond>
2.3219

> <Gold.PLP.Chemscore.CHOScore>
0.0000

> <Gold.PLP.Chemscore.Metal>
0.0000

> <Gold.Chemscore.Hbonds>
donor molecule, donor type, donor heavy atom, donor atom, acceptor molecule, acceptor atom, score
      L1  H     6    23       P1  8028  1.00
      L1  H     9    24       P1  8028  0.92
      P1  H  7989  7998       L1    16  0.11

> <Gold.PLP.Chemscore.Internal.Correction>
0.1160

> <Gold.Rescore>
     Score         DG    S(hbond)    S(metal)    S(lipo)     H(rot)  DE(clash)    DE(int)     intcor
     12.35     -17.64       1.78        0.00      88.02       1.60       1.47       3.83       ----

> <Gold.Chemscore.Fitness>
12.3459

> <Gold.Chemscore.DG>
-17.6397

> <Gold.Chemscore.ZeroCoef>
-5.4800

> <Gold.Chemscore.Hbond>
1.7813

> <Gold.Chemscore.Metal>
0.0000

> <Gold.Chemscore.Lipo>
88.0249

> <Gold.Chemscore.Internal_Hbond>
0.0000

> <Gold.Chemscore.DEClash>
1.4669

> <Gold.Chemscore.DEInternal>
3.8269

> <Gold.Chemscore.Rot>
1.5971

> <Gold.Chemscore.Internal.Correction>
   9.000000E+99

> <Gold.Chemscore.Hbonds>
donor molecule, donor type, donor heavy atom, donor atom, acceptor molecule, acceptor atom, score
      L1  H     6    23       P1  8028  1.00
      L1  H     9    24       P1  8028  0.46

> <Gold.Chemscore.Hbond.Weighted>
-5.9494

> <Gold.Chemscore.Metal.Weighted>
-0.0000

> <Gold.Chemscore.Lipo.Weighted>
-10.2989

> <Gold.Chemscore.Internal_Hbond.Weighted>
0.0000

> <Gold.Chemscore.DEClash.Weighted>
1.4669

> <Gold.Chemscore.DEInternal.Weighted>
3.8269

> <Gold.Chemscore.Rot.Weighted>
4.0886

> <Gold.Chemscore.Internal.Correction.Weighted>
   9.000000E+99

> <Gold.Protein.RotatedTorsions>
[ 6907 6896 6895 6894 ] final   -8.93 input  -60.11 | X-H torsion
[ 7974 7965 7964 7962 ] final   70.90 input  175.53 | X-H torsion
[ 8008 7997 7996 7995 ] final  -97.67 input   59.86 | X-H torsion
[ 10167 10162 10161 10158 ] final -163.72 input  -65.29 | X-H torsion
[ 10718 10713 10712 10709 ] final  125.09 input   66.30 | X-H torsion
[ 10763 10752 10751 10750 ] final   55.01 input  -60.55 | X-H torsion
[ 11005 11000 10999 10996 ] final  -78.26 input  -57.11 | X-H torsion

> <Gold.Protein.ActiveResidues>
 VAL166  LYS551  ARG553  GLY616  TRP617  ASP618  TYR619  PRO620  LYS621  CYS622 
 ASP623  PHE694  ASN695  SER759  ASP760  ASP761  ALA762  ILE779  LEU786  VAL792 
 PHE793  MET794  SER795  GLU796  ALA797  LYS798  CYS799  TRP800  GLU811  SER814 

> <Gold.Protein.RotatedAtoms>
  151.4258  135.1003  159.9627 H   0  0  0  0  0  0  0  0  0  0  0  0  # atno 6907 bound_to 6896
  152.4973  133.8664  159.7286 H   0  0  0  0  0  0  0  0  0  0  0  0  # atno 6908 bound_to 6896
  150.9190  133.6846  159.2864 H   0  0  0  0  0  0  0  0  0  0  0  0  # atno 6909 bound_to 6896
  145.7724  139.2849  143.1313 H   0  0  0  0  0  0  0  0  0  0  0  0  # atno 7974 bound_to 7965
  154.7908  140.0461  157.1199 H   0  0  0  0  0  0  0  0  0  0  0  0  # atno 8008 bound_to 7997
  154.9593  140.3075  155.5018 H   0  0  0  0  0  0  0  0  0  0  0  0  # atno 8009 bound_to 7997
  156.2949  140.2273  156.4677 H   0  0  0  0  0  0  0  0  0  0  0  0  # atno 8010 bound_to 7997
  139.6300  144.0457  152.2008 H   0  0  0  0  0  0  0  0  0  0  0  0  # atno 10167 bound_to 10162
  157.5532  131.1093  150.8667 H   0  0  0  0  0  0  0  0  0  0  0  0  # atno 10718 bound_to 10713
  152.9811  135.5725  154.4997 H   0  0  0  0  0  0  0  0  0  0  0  0  # atno 10763 bound_to 10752
  154.4519  135.2779  155.1777 H   0  0  0  0  0  0  0  0  0  0  0  0  # atno 10764 bound_to 10752
  154.3401  135.6231  153.5646 H   0  0  0  0  0  0  0  0  0  0  0  0  # atno 10765 bound_to 10752
  141.1664  133.7056  156.7945 H   0  0  0  0  0  0  0  0  0  0  0  0  # atno 11005 bound_to 11000
  146.0156  140.8395  142.9949 LP  0  0  0  0  0  0  0  0  0  0  0  0  # atno 17320 bound_to 7965
  144.6810  140.2553  143.7326 LP  0  0  0  0  0  0  0  0  0  0  0  0  # atno 17321 bound_to 7965
  140.0120  144.6217  150.7639 LP  0  0  0  0  0  0  0  0  0  0  0  0  # atno 17342 bound_to 10162
  140.7434  143.2845  151.3502 LP  0  0  0  0  0  0  0  0  0  0  0  0  # atno 17343 bound_to 10162
  156.9186  130.5306  149.5279 LP  0  0  0  0  0  0  0  0  0  0  0  0  # atno 17370 bound_to 10713
  156.0595  130.5650  150.9162 LP  0  0  0  0  0  0  0  0  0  0  0  0  # atno 17371 bound_to 10713
  140.2301  134.8692  157.3467 LP  0  0  0  0  0  0  0  0  0  0  0  0  # atno 17394 bound_to 11000
  140.1900  134.4384  155.7721 LP  0  0  0  0  0  0  0  0  0  0  0  0  # atno 17395 bound_to 11000

$$$$
