AV-unprocessed.smi:788|AV-procd|sdf|3731|dock5
  -GOLD-   22720 1163D 1   1.00000     0.00000
 Structure written by MMmdl.
 35 36  0  0  0  0  0  0  0  0  1 V2000
  151.1647  145.2118  158.6739 C   0  0  0  0  0  0  0  0  0  0  0  0
  151.5424  143.7805  159.0976 C   0  0  2  0  0  0  0  0  0  0  0  0
  152.8241  143.7951  159.9536 C   0  0  0  0  0  0  0  0  0  0  0  0
  153.2329  142.3845  160.4012 C   0  0  0  0  0  0  0  0  0  0  0  0
  153.3970  141.4460  159.1959 C   0  0  0  0  0  0  0  0  0  0  0  0
  152.1293  141.3933  158.3204 C   0  0  1  0  0  0  0  0  0  0  0  0
  151.0007  140.5822  158.9917 C   0  0  0  0  0  0  0  0  0  0  0  0
  151.7097  142.8250  157.8876 C   0  0  1  0  0  0  0  0  0  0  0  0
  150.4868  142.7960  157.0873 N   0  0  0  0  0  0  0  0  0  0  0  0
  150.1596  141.8629  156.1786 C   0  0  0  0  0  0  0  0  0  0  0  0
  150.8866  140.9063  155.9170 O   0  0  0  0  0  0  0  0  0  0  0  0
  148.9741  142.0256  155.5530 N   0  0  0  0  0  0  0  0  0  0  0  0
  148.3121  141.2530  154.5538 C   0  0  0  0  0  0  0  0  0  0  0  0
  148.7015  140.0332  154.1470 N   0  0  0  0  0  0  0  0  0  0  0  0
  147.8718  139.5207  153.1590 N   0  0  0  0  0  0  0  0  0  0  0  0
  146.8897  140.3732  152.8543 C   0  0  0  0  0  0  0  0  0  0  0  0
  146.8831  141.8840  153.7465 S   0  0  0  0  0  0  0  0  0  0  0  0
  151.9162  145.6386  158.0091 H   0  0  0  0  0  0  0  0  0  0  0  0
  151.0798  145.8665  159.5416 H   0  0  0  0  0  0  0  0  0  0  0  0
  150.2059  145.2406  158.1557 H   0  0  0  0  0  0  0  0  0  0  0  0
  150.7296  143.4078  159.7222 H   0  0  0  0  0  0  0  0  0  0  0  0
  153.6398  144.2438  159.3850 H   0  0  0  0  0  0  0  0  0  0  0  0
  152.6792  144.4254  160.8315 H   0  0  0  0  0  0  0  0  0  0  0  0
  154.1674  142.4325  160.9605 H   0  0  0  0  0  0  0  0  0  0  0  0
  152.4866  141.9848  161.0881 H   0  0  0  0  0  0  0  0  0  0  0  0
  154.2349  141.7923  158.5896 H   0  0  0  0  0  0  0  0  0  0  0  0
  153.6649  140.4448  159.5355 H   0  0  0  0  0  0  0  0  0  0  0  0
  152.3975  140.8447  157.4163 H   0  0  0  0  0  0  0  0  0  0  0  0
  150.6287  141.0665  159.8939 H   0  0  0  0  0  0  0  0  0  0  0  0
  151.3514  139.5892  159.2733 H   0  0  0  0  0  0  0  0  0  0  0  0
  150.1534  140.4415  158.3204 H   0  0  0  0  0  0  0  0  0  0  0  0
  152.5097  143.2338  157.2667 H   0  0  0  0  0  0  0  0  0  0  0  0
  149.8307  143.5488  157.2407 H   0  0  0  0  0  0  0  0  0  0  0  0
  148.4690  142.8527  155.8361 H   0  0  0  0  0  0  0  0  0  0  0  0
  146.1635  140.1109  152.0992 H   0  0  0  0  0  0  0  0  0  0  0  0
  1  2  1  0  0  0  0
  1 18  1  0  0  0  0
  1 19  1  0  0  0  0
  1 20  1  0  0  0  0
  2  8  1  0  0  0  0
  2  3  1  0  0  0  0
  2 21  1  0  0  0  0
  3  4  1  0  0  0  0
  3 22  1  0  0  0  0
  3 23  1  0  0  0  0
  4  5  1  0  0  0  0
  4 24  1  0  0  0  0
  4 25  1  0  0  0  0
  5  6  1  0  0  0  0
  5 26  1  0  0  0  0
  5 27  1  0  0  0  0
  6  7  1  0  0  0  0
  6  8  1  0  0  0  0
  6 28  1  0  0  0  0
  7 29  1  0  0  0  0
  7 30  1  0  0  0  0
  7 31  1  0  0  0  0
  8  9  1  0  0  0  0
  8 32  1  0  0  0  0
  9 10  1  0  0  0  0
  9 33  1  0  0  0  0
 10 11  2  0  0  0  0
 10 12  1  0  0  0  0
 12 13  1  0  0  0  0
 12 34  1  0  0  0  0
 13 17  1  0  0  0  0
 13 14  2  0  0  0  0
 14 15  1  0  0  0  0
 15 16  2  0  0  0  0
 16 17  1  0  0  0  0
 16 35  1  0  0  0  0
M  END
> <s_m_source_file>
AV-unprocessed.smi

> <i_m_source_file_index>
788

> <i_lp_mmshare_version>
43012

> <i_f3d_flags>
0

> <s_epik_input>
W0NIM11bQ0BASF0xW0NIMl1bQ0gyXVtDSDJdW0NAQEhdKFtDSDNdKVtDQEhdMVtOSF1DKD1PKVtOSF1jMm5uW2NIXXMy

> <s_epik_cmdline>
J2VwaWtfcHl0aG9uJywgJy1waCcsICc3LjAnLCAnLXRuJywgJzgnLCAnLW1hJywgJzIwMCcsICctbWV0YWxfYmluZGluZycsICctaW1hZScsICc8aW5maWxlLm1hZT4nLCAnLW9tYWUnLCAnPG91dGZpbGUubWFlPic=

> <r_lp_tautomer_probability>
1

> <r_epik_Ionization_Penalty>
0.000304078

> <r_epik_Ionization_Penalty_Charging>
0

> <r_epik_Ionization_Penalty_Neutral>
0.000304078

> <r_epik_State_Penalty>
-0

> <r_epik_Charging_Adjusted_Penalty>
0

> <i_epik_Tot_Q>
0

> <i_epik_Tot_abs_Q>
0

> <r_epik_Metal_State_Penalty>
0.164801

> <b_epik_Metal_Only>
0

> <s_lp_Force_Field>
OPLS_2005

> <r_lp_Energy>
15.5702

> <b_lp_Chiralities_Consistent>
1

> <s_lp_Variant>
AV-unprocessed.smi:788-1

> <Gold.Version>
5.8.1

> <Gold.Id.Protein>
6NUR|6NUR_protein|mol2

> <Gold.PLP.Fitness>
37.3805

> <Gold.PLP.PLP>
-32.5337

> <Gold.PLP.part.hbond>
-2.0000

> <Gold.PLP.part.metal>
0.0000

> <Gold.PLP.part.buried>
-5.3566

> <Gold.PLP.part.nonpolar>
-27.5533

> <Gold.PLP.part.repulsive>
2.9220

> <Gold.PLP.ligand.clash>
0.0322

> <Gold.PLP.ligand.torsion>
0.2956

> <Gold.PLP.Chemscore.Hbond>
0.9645

> <Gold.PLP.Chemscore.CHOScore>
0.8541

> <Gold.PLP.Chemscore.Metal>
0.0000

> <Gold.Chemscore.Hbonds>
donor molecule, donor type, donor heavy atom, donor atom, acceptor molecule, acceptor atom, score
      L1  H     9    33       P1  8028  0.33
      L1  H    12    34       P1  8028  0.64
      L1  C    16    35       P1 10175  0.84

> <Gold.PLP.Chemscore.Internal.Correction>
0.0145

> <Gold.Rescore>
     Score         DG    S(hbond)    S(metal)    S(lipo)     H(rot)  DE(clash)    DE(int)     intcor
     15.37     -20.16       1.71        0.00      98.44       1.00       1.87       2.92       ----

> <Gold.Chemscore.Fitness>
15.3702

> <Gold.Chemscore.DG>
-20.1647

> <Gold.Chemscore.ZeroCoef>
-5.4800

> <Gold.Chemscore.Hbond>
1.7149

> <Gold.Chemscore.Metal>
0.0000

> <Gold.Chemscore.Lipo>
98.4353

> <Gold.Chemscore.Internal_Hbond>
0.0000

> <Gold.Chemscore.DEClash>
1.8713

> <Gold.Chemscore.DEInternal>
2.9232

> <Gold.Chemscore.Rot>
1.0000

> <Gold.Chemscore.Internal.Correction>
   9.000000E+99

> <Gold.Chemscore.Hbonds>
donor molecule, donor type, donor heavy atom, donor atom, acceptor molecule, acceptor atom, score
      L1  H     9    33       P1  8028  0.31
      L1  H    12    34       P1  8028  0.63

> <Gold.Chemscore.Hbond.Weighted>
-5.7278

> <Gold.Chemscore.Metal.Weighted>
-0.0000

> <Gold.Chemscore.Lipo.Weighted>
-11.5169

> <Gold.Chemscore.Internal_Hbond.Weighted>
0.0000

> <Gold.Chemscore.DEClash.Weighted>
1.8713

> <Gold.Chemscore.DEInternal.Weighted>
2.9232

> <Gold.Chemscore.Rot.Weighted>
2.5600

> <Gold.Chemscore.Internal.Correction.Weighted>
   9.000000E+99

> <Gold.Protein.RotatedTorsions>
[ 6907 6896 6895 6894 ] final   69.02 input  -60.11 | X-H torsion
[ 7974 7965 7964 7962 ] final   15.22 input  175.53 | X-H torsion
[ 8008 7997 7996 7995 ] final  -64.69 input   59.86 | X-H torsion
[ 10167 10162 10161 10158 ] final   58.09 input  -65.29 | X-H torsion
[ 10718 10713 10712 10709 ] final -144.85 input   66.30 | X-H torsion
[ 10763 10752 10751 10750 ] final -161.55 input  -60.55 | X-H torsion
[ 11005 11000 10999 10996 ] final  103.19 input  -57.11 | X-H torsion

> <Gold.Protein.ActiveResidues>
 VAL166  LYS551  ARG553  GLY616  TRP617  ASP618  TYR619  PRO620  LYS621  CYS622 
 ASP623  PHE694  ASN695  SER759  ASP760  ASP761  ALA762  ILE779  LEU786  VAL792 
 PHE793  MET794  SER795  GLU796  ALA797  LYS798  CYS799  TRP800  GLU811  SER814 

> <Gold.Protein.RotatedAtoms>
  152.4659  134.5076  159.9743 H   0  0  0  0  0  0  0  0  0  0  0  0  # atno 6907 bound_to 6896
  151.5114  133.3478  159.2893 H   0  0  0  0  0  0  0  0  0  0  0  0  # atno 6908 bound_to 6896
  150.8643  134.8032  159.7169 H   0  0  0  0  0  0  0  0  0  0  0  0  # atno 6909 bound_to 6896
  146.2284  139.8926  142.8552 H   0  0  0  0  0  0  0  0  0  0  0  0  # atno 7974 bound_to 7965
  154.4626  140.0948  156.6935 H   0  0  0  0  0  0  0  0  0  0  0  0  # atno 8008 bound_to 7997
  155.4949  140.3472  155.4343 H   0  0  0  0  0  0  0  0  0  0  0  0  # atno 8009 bound_to 7997
  156.0899  140.1394  156.9594 H   0  0  0  0  0  0  0  0  0  0  0  0  # atno 8010 bound_to 7997
  140.1910  144.4085  150.6571 H   0  0  0  0  0  0  0  0  0  0  0  0  # atno 10167 bound_to 10162
  156.3752  130.7809  151.1994 H   0  0  0  0  0  0  0  0  0  0  0  0  # atno 10718 bound_to 10713
  154.7293  135.3043  154.8918 H   0  0  0  0  0  0  0  0  0  0  0  0  # atno 10763 bound_to 10752
  153.9766  135.6735  153.4753 H   0  0  0  0  0  0  0  0  0  0  0  0  # atno 10764 bound_to 10752
  153.0904  135.4962  154.8598 H   0  0  0  0  0  0  0  0  0  0  0  0  # atno 10765 bound_to 10752
  139.8782  134.9253  156.5172 H   0  0  0  0  0  0  0  0  0  0  0  0  # atno 11005 bound_to 11000
  145.2402  141.0006  143.3940 LP  0  0  0  0  0  0  0  0  0  0  0  0  # atno 17320 bound_to 7965
  144.9458  139.4138  143.6427 LP  0  0  0  0  0  0  0  0  0  0  0  0  # atno 17321 bound_to 7965
  140.6456  143.2212  151.6194 LP  0  0  0  0  0  0  0  0  0  0  0  0  # atno 17342 bound_to 10162
  139.5256  144.3070  152.1025 LP  0  0  0  0  0  0  0  0  0  0  0  0  # atno 17343 bound_to 10162
  157.7487  131.0360  150.4390 LP  0  0  0  0  0  0  0  0  0  0  0  0  # atno 17370 bound_to 10713
  156.4624  130.4035  149.6568 LP  0  0  0  0  0  0  0  0  0  0  0  0  # atno 17371 bound_to 10713
  140.8477  133.8156  155.9137 LP  0  0  0  0  0  0  0  0  0  0  0  0  # atno 17394 bound_to 11000
  140.9175  134.2183  157.4947 LP  0  0  0  0  0  0  0  0  0  0  0  0  # atno 17395 bound_to 11000

$$$$
