AV-unprocessed.smi:2450|AV-procd|sdf|9665|dock6
  -GOLD-   2272013303D 1   1.00000     0.00000
 Structure written by MMmdl.
 41 42  0  0  0  0  0  0  0  0  1 V2000
  151.2700  143.0442  157.4794 C   0  0  0  0  0  0  0  0  0  0  0  0
  151.7767  143.7047  158.7700 C   0  0  0  0  0  0  0  0  0  0  0  0
  151.2216  145.1231  158.9976 C   0  0  2  0  0  0  0  0  0  0  0  0
  151.6572  145.6918  160.3566 C   0  0  0  0  0  0  0  0  0  0  0  0
  149.7630  145.1140  158.9102 N   0  0  0  0  0  0  0  0  0  0  0  0
  148.9263  144.6874  159.8666 C   0  0  0  0  0  0  0  0  0  0  0  0
  149.2995  144.2449  160.9531 O   0  0  0  0  0  0  0  0  0  0  0  0
  147.6465  144.8245  159.4813 N   0  0  0  0  0  0  0  0  0  0  0  0
  146.4635  144.5574  160.2272 C   0  0  0  0  0  0  0  0  0  0  0  0
  146.5148  144.1157  161.5722 C   0  0  0  0  0  0  0  0  0  0  0  0
  145.3195  143.8010  162.2413 C   0  0  0  0  0  0  0  0  0  0  0  0
  144.1112  143.9225  161.5357 C   0  0  0  0  0  0  0  0  0  0  0  0
  144.0459  144.3274  160.2518 N   0  0  0  0  0  0  0  0  0  0  0  0
  145.1891  144.6489  159.5972 C   0  0  0  0  0  0  0  0  0  0  0  0
  145.0568  145.0790  158.2567 N   0  0  0  0  0  0  0  0  0  0  0  0
  144.6137  144.1511  157.2218 C   0  0  0  0  0  0  0  0  0  0  0  0
  144.2363  145.0341  156.0363 C   0  0  0  0  0  0  0  0  0  0  0  0
  143.6458  146.2626  156.7213 C   0  0  0  0  0  0  0  0  0  0  0  0
  144.4654  146.3911  158.0099 C   0  0  0  0  0  0  0  0  0  0  0  0
  151.7247  142.0630  157.3437 H   0  0  0  0  0  0  0  0  0  0  0  0
  151.5174  143.6479  156.6058 H   0  0  0  0  0  0  0  0  0  0  0  0
  150.1887  142.9061  157.4959 H   0  0  0  0  0  0  0  0  0  0  0  0
  151.5289  143.0692  159.6212 H   0  0  0  0  0  0  0  0  0  0  0  0
  152.8658  143.7488  158.7324 H   0  0  0  0  0  0  0  0  0  0  0  0
  151.6287  145.7669  158.2155 H   0  0  0  0  0  0  0  0  0  0  0  0
  152.7439  145.7258  160.4373 H   0  0  0  0  0  0  0  0  0  0  0  0
  151.2810  145.0842  161.1805 H   0  0  0  0  0  0  0  0  0  0  0  0
  151.2867  146.7079  160.4954 H   0  0  0  0  0  0  0  0  0  0  0  0
  149.3608  145.4642  158.0531 H   0  0  0  0  0  0  0  0  0  0  0  0
  147.4988  145.2782  158.5915 H   0  0  0  0  0  0  0  0  0  0  0  0
  147.4500  143.9897  162.0955 H   0  0  0  0  0  0  0  0  0  0  0  0
  145.3310  143.4622  163.2665 H   0  0  0  0  0  0  0  0  0  0  0  0
  143.1724  143.6825  162.0120 H   0  0  0  0  0  0  0  0  0  0  0  0
  145.3975  143.4383  156.9636 H   0  0  0  0  0  0  0  0  0  0  0  0
  143.7365  143.5929  157.5515 H   0  0  0  0  0  0  0  0  0  0  0  0
  145.1307  145.3123  155.4772 H   0  0  0  0  0  0  0  0  0  0  0  0
  143.5413  144.5504  155.3498 H   0  0  0  0  0  0  0  0  0  0  0  0
  143.6889  147.1581  156.1010 H   0  0  0  0  0  0  0  0  0  0  0  0
  142.6003  146.0751  156.9690 H   0  0  0  0  0  0  0  0  0  0  0  0
  143.8465  146.7262  158.8436 H   0  0  0  0  0  0  0  0  0  0  0  0
  145.2655  147.1181  157.8684 H   0  0  0  0  0  0  0  0  0  0  0  0
  1  2  1  0  0  0  0
  1 20  1  0  0  0  0
  1 21  1  0  0  0  0
  1 22  1  0  0  0  0
  2  3  1  0  0  0  0
  2 23  1  0  0  0  0
  2 24  1  0  0  0  0
  3  4  1  0  0  0  0
  3  5  1  0  0  0  0
  3 25  1  0  0  0  0
  4 26  1  0  0  0  0
  4 27  1  0  0  0  0
  4 28  1  0  0  0  0
  5  6  1  0  0  0  0
  5 29  1  0  0  0  0
  6  7  2  0  0  0  0
  6  8  1  0  0  0  0
  8  9  1  0  0  0  0
  8 30  1  0  0  0  0
  9 14  1  0  0  0  0
  9 10  2  0  0  0  0
 10 11  1  0  0  0  0
 10 31  1  0  0  0  0
 11 12  2  0  0  0  0
 11 32  1  0  0  0  0
 12 13  1  0  0  0  0
 12 33  1  0  0  0  0
 13 14  2  0  0  0  0
 14 15  1  0  0  0  0
 15 19  1  0  0  0  0
 15 16  1  0  0  0  0
 16 17  1  0  0  0  0
 16 34  1  0  0  0  0
 16 35  1  0  0  0  0
 17 18  1  0  0  0  0
 17 36  1  0  0  0  0
 17 37  1  0  0  0  0
 18 19  1  0  0  0  0
 18 38  1  0  0  0  0
 18 39  1  0  0  0  0
 19 40  1  0  0  0  0
 19 41  1  0  0  0  0
M  END
> <s_m_source_file>
AV-unprocessed.smi

> <i_m_source_file_index>
2450

> <i_lp_mmshare_version>
43012

> <i_f3d_flags>
0

> <s_epik_input>
W0NIM11bQ0gyXVtDQEhdKFtDSDNdKVtOSF1DKD1PKVtOSF1jMVtjSF1bY0hdW2NIXW5jMU4yW0NIMl1bQ0gyXVtDSDJdW0NIMl0y

> <s_epik_cmdline>
J2VwaWtfcHl0aG9uJywgJy1waCcsICc3LjAnLCAnLXRuJywgJzgnLCAnLW1hJywgJzIwMCcsICctbWV0YWxfYmluZGluZycsICctaW1hZScsICc8aW5maWxlLm1hZT4nLCAnLW9tYWUnLCAnPG91dGZpbGUubWFlPic=

> <r_lp_tautomer_probability>
1

> <r_epik_Ionization_Penalty>
0.103391

> <r_epik_Ionization_Penalty_Charging>
0

> <r_epik_Ionization_Penalty_Neutral>
0.103391

> <r_epik_State_Penalty>
0.0927616

> <r_epik_Charging_Adjusted_Penalty>
0.0927616

> <i_epik_Tot_Q>
0

> <i_epik_Tot_abs_Q>
0

> <r_epik_Metal_State_Penalty>
0.0789158

> <b_epik_Metal_Only>
0

> <s_lp_Force_Field>
OPLS_2005

> <r_lp_Energy>
32.2235

> <b_lp_Chiralities_Consistent>
1

> <s_lp_Variant>
AV-unprocessed.smi:2450-1

> <Gold.Version>
5.8.1

> <Gold.Id.Protein>
6NUR|6NUR_protein|mol2

> <Gold.PLP.Fitness>
43.1211

> <Gold.PLP.PLP>
-36.2594

> <Gold.PLP.part.hbond>
-2.9034

> <Gold.PLP.part.metal>
0.0000

> <Gold.PLP.part.buried>
-5.9998

> <Gold.PLP.part.nonpolar>
-29.5040

> <Gold.PLP.part.repulsive>
1.0835

> <Gold.PLP.ligand.clash>
0.0000

> <Gold.PLP.ligand.torsion>
0.3939

> <Gold.PLP.Chemscore.Hbond>
2.4357

> <Gold.PLP.Chemscore.CHOScore>
0.0000

> <Gold.PLP.Chemscore.Metal>
0.0000

> <Gold.Chemscore.Hbonds>
donor molecule, donor type, donor heavy atom, donor atom, acceptor molecule, acceptor atom, score
      L1  H     5    29       P1  8029  0.93
      L1  H     8    30       P1  8029  0.96
      P1  H  6933  6944       L1     7  0.44

> <Gold.PLP.Chemscore.Internal.Correction>
0.3425

> <Gold.Rescore>
     Score         DG    S(hbond)    S(metal)    S(lipo)     H(rot)  DE(clash)    DE(int)     intcor
     16.21     -19.59       2.25        0.00      85.10       1.32       0.31       3.07       ----

> <Gold.Chemscore.Fitness>
16.2096

> <Gold.Chemscore.DG>
-19.5931

> <Gold.Chemscore.ZeroCoef>
-5.4800

> <Gold.Chemscore.Hbond>
2.2533

> <Gold.Chemscore.Metal>
0.0000

> <Gold.Chemscore.Lipo>
85.1014

> <Gold.Chemscore.Internal_Hbond>
0.0000

> <Gold.Chemscore.DEClash>
0.3123

> <Gold.Chemscore.DEInternal>
3.0713

> <Gold.Chemscore.Rot>
1.3163

> <Gold.Chemscore.Internal.Correction>
   9.000000E+99

> <Gold.Chemscore.Hbonds>
donor molecule, donor type, donor heavy atom, donor atom, acceptor molecule, acceptor atom, score
      L1  H     5    29       P1  8029  0.40
      L1  H     8    30       P1  8029  0.90
      P1  H  6933  6944       L1     7  0.40

> <Gold.Chemscore.Hbond.Weighted>
-7.5259

> <Gold.Chemscore.Metal.Weighted>
-0.0000

> <Gold.Chemscore.Lipo.Weighted>
-9.9569

> <Gold.Chemscore.Internal_Hbond.Weighted>
0.0000

> <Gold.Chemscore.DEClash.Weighted>
0.3123

> <Gold.Chemscore.DEInternal.Weighted>
3.0713

> <Gold.Chemscore.Rot.Weighted>
3.3696

> <Gold.Chemscore.Internal.Correction.Weighted>
   9.000000E+99

> <Gold.Protein.RotatedTorsions>
[ 6907 6896 6895 6894 ] final -133.32 input  -60.11 | X-H torsion
[ 7974 7965 7964 7962 ] final   87.73 input  175.53 | X-H torsion
[ 8008 7997 7996 7995 ] final   12.09 input   59.86 | X-H torsion
[ 10167 10162 10161 10158 ] final  -47.38 input  -65.29 | X-H torsion
[ 10718 10713 10712 10709 ] final   38.46 input   66.30 | X-H torsion
[ 10763 10752 10751 10750 ] final   62.39 input  -60.55 | X-H torsion
[ 11005 11000 10999 10996 ] final -108.52 input  -57.11 | X-H torsion

> <Gold.Protein.ActiveResidues>
 VAL166  LYS551  ARG553  GLY616  TRP617  ASP618  TYR619  PRO620  LYS621  CYS622 
 ASP623  PHE694  ASN695  SER759  ASP760  ASP761  ALA762  ILE779  LEU786  VAL792 
 PHE793  MET794  SER795  GLU796  ALA797  LYS798  CYS799  TRP800  GLU811  SER814 

> <Gold.Protein.RotatedAtoms>
  150.9726  133.6328  159.2735 H   0  0  0  0  0  0  0  0  0  0  0  0  # atno 6907 bound_to 6896
  151.3611  135.0903  159.9444 H   0  0  0  0  0  0  0  0  0  0  0  0  # atno 6908 bound_to 6896
  152.5188  133.9300  159.7630 H   0  0  0  0  0  0  0  0  0  0  0  0  # atno 6909 bound_to 6896
  145.5551  139.2299  143.2491 H   0  0  0  0  0  0  0  0  0  0  0  0  # atno 7974 bound_to 7965
  154.8159  140.2876  155.5821 H   0  0  0  0  0  0  0  0  0  0  0  0  # atno 8008 bound_to 7997
  156.2993  140.2559  156.2986 H   0  0  0  0  0  0  0  0  0  0  0  0  # atno 8009 bound_to 7997
  154.9394  140.0381  157.2078 H   0  0  0  0  0  0  0  0  0  0  0  0  # atno 8010 bound_to 7997
  140.6777  143.2787  151.3918 H   0  0  0  0  0  0  0  0  0  0  0  0  # atno 10167 bound_to 10162
  157.3591  130.7640  149.7034 H   0  0  0  0  0  0  0  0  0  0  0  0  # atno 10718 bound_to 10713
  152.9981  135.5467  154.6185 H   0  0  0  0  0  0  0  0  0  0  0  0  # atno 10763 bound_to 10752
  154.5490  135.2825  155.1028 H   0  0  0  0  0  0  0  0  0  0  0  0  # atno 10764 bound_to 10752
  154.2275  135.6439  153.5217 H   0  0  0  0  0  0  0  0  0  0  0  0  # atno 10765 bound_to 10752
  141.0897  133.9076  157.2104 H   0  0  0  0  0  0  0  0  0  0  0  0  # atno 11005 bound_to 11000
  146.1890  140.6374  142.9154 LP  0  0  0  0  0  0  0  0  0  0  0  0  # atno 17320 bound_to 7965
  144.7510  140.5191  143.6802 LP  0  0  0  0  0  0  0  0  0  0  0  0  # atno 17321 bound_to 7965
  139.6080  144.1157  152.2269 LP  0  0  0  0  0  0  0  0  0  0  0  0  # atno 17342 bound_to 10162
  140.0562  144.5893  150.7298 LP  0  0  0  0  0  0  0  0  0  0  0  0  # atno 17343 bound_to 10162
  155.9734  130.4119  150.4004 LP  0  0  0  0  0  0  0  0  0  0  0  0  # atno 17370 bound_to 10713
  157.2078  131.0453  151.2616 LP  0  0  0  0  0  0  0  0  0  0  0  0  # atno 17371 bound_to 10713
  139.9721  135.0125  156.9538 LP  0  0  0  0  0  0  0  0  0  0  0  0  # atno 17394 bound_to 11000
  140.5281  134.0841  155.7308 LP  0  0  0  0  0  0  0  0  0  0  0  0  # atno 17395 bound_to 11000

$$$$
