AV-unprocessed.smi:1099|AV-procd|sdf|4758|dock5
  -GOLD-   22720 3293D 1   1.00000     0.00000
 Structure written by MMmdl.
 41 43  0  0  0  0  0  0  0  0  1 V2000
  146.1355  138.5316  158.1213 C   0  0  0  0  0  0  0  0  0  0  0  0
  145.7670  137.9395  156.7579 C   0  0  0  0  0  0  0  0  0  0  0  0
  146.3789  138.6855  155.6197 C   0  0  0  0  0  0  0  0  0  0  0  0
  147.1544  139.7616  155.7754 N   0  0  0  0  0  0  0  0  0  0  0  0
  147.6013  140.2850  154.5575 C   0  0  0  0  0  0  0  0  0  0  0  0
  148.4953  141.4915  154.5412 C   0  0  0  0  0  0  0  0  0  0  0  0
  149.8560  141.2734  155.2312 C   0  0  0  0  0  0  0  0  0  0  0  0
  150.0306  142.1032  156.4218 N   0  0  0  0  0  0  0  0  0  0  0  0
  150.8368  141.8188  157.4576 C   0  0  0  0  0  0  0  0  0  0  0  0
  151.5226  140.7974  157.5127 O   0  0  0  0  0  0  0  0  0  0  0  0
  150.8611  142.8465  158.6026 C   0  0  1  0  0  0  0  0  0  0  0  0
  151.9578  142.5639  159.6584 C   0  0  0  0  0  0  0  0  0  0  0  0
  152.7627  143.8778  159.6955 C   0  0  2  0  0  0  0  0  0  0  0  0
  151.9023  144.9856  160.3319 C   0  0  0  0  0  0  0  0  0  0  0  0
  150.8600  145.2779  159.2345 C   0  0  0  0  0  0  0  0  0  0  0  0
  151.2425  144.2728  158.1310 C   0  0  1  0  0  0  0  0  0  0  0  0
  152.7677  144.2910  158.2306 C   0  0  0  0  0  0  0  0  0  0  0  0
  147.1714  139.5663  153.4700 C   0  0  0  0  0  0  0  0  0  0  0  0
  146.1929  138.2032  153.9377 S   0  0  0  0  0  0  0  0  0  0  0  0
  145.6883  137.9535  158.9301 H   0  0  0  0  0  0  0  0  0  0  0  0
  145.7763  139.5566  158.2087 H   0  0  0  0  0  0  0  0  0  0  0  0
  147.2156  138.5374  158.2709 H   0  0  0  0  0  0  0  0  0  0  0  0
  146.0906  136.8996  156.7067 H   0  0  0  0  0  0  0  0  0  0  0  0
  144.6835  137.9353  156.6345 H   0  0  0  0  0  0  0  0  0  0  0  0
  148.6672  141.8083  153.5122 H   0  0  0  0  0  0  0  0  0  0  0  0
  147.9891  142.3301  155.0217 H   0  0  0  0  0  0  0  0  0  0  0  0
  149.9742  140.2180  155.4820 H   0  0  0  0  0  0  0  0  0  0  0  0
  150.6598  141.5053  154.5325 H   0  0  0  0  0  0  0  0  0  0  0  0
  149.4959  142.9588  156.4619 H   0  0  0  0  0  0  0  0  0  0  0  0
  149.8789  142.8602  159.0786 H   0  0  0  0  0  0  0  0  0  0  0  0
  151.5305  142.3276  160.6330 H   0  0  0  0  0  0  0  0  0  0  0  0
  152.6025  141.7302  159.3745 H   0  0  0  0  0  0  0  0  0  0  0  0
  153.7484  143.7737  160.1495 H   0  0  0  0  0  0  0  0  0  0  0  0
  151.4440  144.6661  161.2687 H   0  0  0  0  0  0  0  0  0  0  0  0
  152.5009  145.8739  160.5379 H   0  0  0  0  0  0  0  0  0  0  0  0
  149.8353  145.1474  159.5846 H   0  0  0  0  0  0  0  0  0  0  0  0
  150.9606  146.3030  158.8754 H   0  0  0  0  0  0  0  0  0  0  0  0
  150.8487  144.5385  157.1489 H   0  0  0  0  0  0  0  0  0  0  0  0
  153.1996  145.2792  158.0625 H   0  0  0  0  0  0  0  0  0  0  0  0
  153.2710  143.5748  157.5810 H   0  0  0  0  0  0  0  0  0  0  0  0
  147.3856  139.7450  152.4268 H   0  0  0  0  0  0  0  0  0  0  0  0
  1  2  1  0  0  0  0
  1 20  1  0  0  0  0
  1 21  1  0  0  0  0
  1 22  1  0  0  0  0
  2  3  1  0  0  0  0
  2 23  1  0  0  0  0
  2 24  1  0  0  0  0
  3 19  1  0  0  0  0
  3  4  2  0  0  0  0
  4  5  1  0  0  0  0
  5  6  1  0  0  0  0
  5 18  2  0  0  0  0
  6  7  1  0  0  0  0
  6 25  1  0  0  0  0
  6 26  1  0  0  0  0
  7  8  1  0  0  0  0
  7 27  1  0  0  0  0
  7 28  1  0  0  0  0
  8  9  1  0  0  0  0
  8 29  1  0  0  0  0
  9 10  2  0  0  0  0
  9 11  1  0  0  0  0
 11 16  1  0  0  0  0
 11 12  1  0  0  0  0
 11 30  1  0  0  0  0
 12 13  1  0  0  0  0
 12 31  1  0  0  0  0
 12 32  1  0  0  0  0
 13 17  1  0  0  0  0
 13 14  1  0  0  0  0
 13 33  1  0  0  0  0
 14 15  1  0  0  0  0
 14 34  1  0  0  0  0
 14 35  1  0  0  0  0
 15 16  1  0  0  0  0
 15 36  1  0  0  0  0
 15 37  1  0  0  0  0
 16 17  1  0  0  0  0
 16 38  1  0  0  0  0
 17 39  1  0  0  0  0
 17 40  1  0  0  0  0
 18 19  1  0  0  0  0
 18 41  1  0  0  0  0
M  END
> <s_m_source_file>
AV-unprocessed.smi

> <i_m_source_file_index>
1099

> <i_lp_mmshare_version>
43012

> <i_f3d_flags>
0

> <s_epik_input>
W0NIM11bQ0gyXWMxbmMoW2NIXXMxKVtDSDJdW0NIMl1bTkhdQyg9TylbQ0BIXShbQ0gyXVtDQEBIXTIzKVtDQEBIXShbQ0gyXTMpW0NIMl1bQ0gyXTI=

> <s_epik_cmdline>
J2VwaWtfcHl0aG9uJywgJy1waCcsICc3LjAnLCAnLXRuJywgJzgnLCAnLW1hJywgJzIwMCcsICctbWV0YWxfYmluZGluZycsICctaW1hZScsICc8aW5maWxlLm1hZT4nLCAnLW9tYWUnLCAnPG91dGZpbGUubWFlPic=

> <r_epik_Ionization_Penalty>
0.00110131

> <r_epik_Ionization_Penalty_Charging>
0

> <r_epik_Ionization_Penalty_Neutral>
0.00110131

> <r_epik_State_Penalty>
0.00072257

> <r_epik_Charging_Adjusted_Penalty>
0.00072257

> <i_epik_Tot_Q>
0

> <i_epik_Tot_abs_Q>
0

> <r_epik_Metal_State_Penalty>
-0

> <b_epik_Metal_Only>
0

> <s_lp_Force_Field>
OPLS_2005

> <r_lp_Energy>
38.7505

> <b_lp_Chiralities_Consistent>
1

> <s_lp_Variant>
AV-unprocessed.smi:1099-4

> <Gold.Version>
5.8.1

> <Gold.Id.Protein>
6NUR|6NUR_protein|mol2

> <Gold.PLP.Fitness>
43.7160

> <Gold.PLP.PLP>
-38.9538

> <Gold.PLP.part.hbond>
-1.0000

> <Gold.PLP.part.metal>
0.0000

> <Gold.PLP.part.buried>
-2.9906

> <Gold.PLP.part.nonpolar>
-34.3839

> <Gold.PLP.part.repulsive>
0.0952

> <Gold.PLP.ligand.clash>
0.0000

> <Gold.PLP.ligand.torsion>
0.6468

> <Gold.PLP.Chemscore.Hbond>
1.0000

> <Gold.PLP.Chemscore.CHOScore>
1.0000

> <Gold.PLP.Chemscore.Metal>
0.0000

> <Gold.Chemscore.Hbonds>
donor molecule, donor type, donor heavy atom, donor atom, acceptor molecule, acceptor atom, score
      L1  H     8    29       P1  8028  1.00
      L1  C    18    41       P1  7957  0.94

> <Gold.PLP.Chemscore.Internal.Correction>
0.0557

> <Gold.Rescore>
     Score         DG    S(hbond)    S(metal)    S(lipo)     H(rot)  DE(clash)    DE(int)     intcor
     17.76     -18.76       1.00        0.00     116.11       1.42       0.36       0.64       ----

> <Gold.Chemscore.Fitness>
17.7632

> <Gold.Chemscore.DG>
-18.7638

> <Gold.Chemscore.ZeroCoef>
-5.4800

> <Gold.Chemscore.Hbond>
0.9955

> <Gold.Chemscore.Metal>
0.0000

> <Gold.Chemscore.Lipo>
116.1118

> <Gold.Chemscore.Internal_Hbond>
0.0000

> <Gold.Chemscore.DEClash>
0.3585

> <Gold.Chemscore.DEInternal>
0.6421

> <Gold.Chemscore.Rot>
1.4165

> <Gold.Chemscore.Internal.Correction>
   9.000000E+99

> <Gold.Chemscore.Hbonds>
donor molecule, donor type, donor heavy atom, donor atom, acceptor molecule, acceptor atom, score
      L1  H     8    29       P1  8028  0.90

> <Gold.Chemscore.Hbond.Weighted>
-3.3249

> <Gold.Chemscore.Metal.Weighted>
-0.0000

> <Gold.Chemscore.Lipo.Weighted>
-13.5851

> <Gold.Chemscore.Internal_Hbond.Weighted>
0.0000

> <Gold.Chemscore.DEClash.Weighted>
0.3585

> <Gold.Chemscore.DEInternal.Weighted>
0.6421

> <Gold.Chemscore.Rot.Weighted>
3.6262

> <Gold.Chemscore.Internal.Correction.Weighted>
   9.000000E+99

> <Gold.Protein.RotatedTorsions>
[ 6907 6896 6895 6894 ] final  163.13 input  -60.11 | X-H torsion
[ 7974 7965 7964 7962 ] final  131.52 input  175.53 | X-H torsion
[ 8008 7997 7996 7995 ] final  108.85 input   59.86 | X-H torsion
[ 10167 10162 10161 10158 ] final  166.16 input  -65.29 | X-H torsion
[ 10718 10713 10712 10709 ] final -160.89 input   66.30 | X-H torsion
[ 10763 10752 10751 10750 ] final  172.76 input  -60.55 | X-H torsion
[ 11005 11000 10999 10996 ] final  116.99 input  -57.11 | X-H torsion

> <Gold.Protein.ActiveResidues>
 VAL166  LYS551  ARG553  GLY616  TRP617  ASP618  TYR619  PRO620  LYS621  CYS622 
 ASP623  PHE694  ASN695  SER759  ASP760  ASP761  ALA762  ILE779  LEU786  VAL792 
 PHE793  MET794  SER795  GLU796  ALA797  LYS798  CYS799  TRP800  GLU811  SER814 

> <Gold.Protein.RotatedAtoms>
  151.9298  133.3608  159.3926 H   0  0  0  0  0  0  0  0  0  0  0  0  # atno 6907 bound_to 6896
  150.7019  134.4549  159.5363 H   0  0  0  0  0  0  0  0  0  0  0  0  # atno 6908 bound_to 6896
  152.2187  134.8433  160.0539 H   0  0  0  0  0  0  0  0  0  0  0  0  # atno 6909 bound_to 6896
  145.0064  139.4262  143.5266 H   0  0  0  0  0  0  0  0  0  0  0  0  # atno 7974 bound_to 7965
  156.1934  140.3069  155.9379 H   0  0  0  0  0  0  0  0  0  0  0  0  # atno 8008 bound_to 7997
  155.3120  140.0451  157.3052 H   0  0  0  0  0  0  0  0  0  0  0  0  # atno 8009 bound_to 7997
  154.5480  140.2282  155.8540 H   0  0  0  0  0  0  0  0  0  0  0  0  # atno 8010 bound_to 7997
  139.4919  144.4056  151.9359 H   0  0  0  0  0  0  0  0  0  0  0  0  # atno 10167 bound_to 10162
  156.5885  130.8760  151.2883 H   0  0  0  0  0  0  0  0  0  0  0  0  # atno 10718 bound_to 10713
  154.4305  135.2759  155.1915 H   0  0  0  0  0  0  0  0  0  0  0  0  # atno 10763 bound_to 10752
  154.3823  135.6085  153.5801 H   0  0  0  0  0  0  0  0  0  0  0  0  # atno 10764 bound_to 10752
  152.9836  135.5883  154.4616 H   0  0  0  0  0  0  0  0  0  0  0  0  # atno 10765 bound_to 10752
  139.9059  134.9605  156.7283 H   0  0  0  0  0  0  0  0  0  0  0  0  # atno 11005 bound_to 11000
  146.3462  139.9483  142.8732 LP  0  0  0  0  0  0  0  0  0  0  0  0  # atno 17320 bound_to 7965
  145.2082  140.9884  143.4116 LP  0  0  0  0  0  0  0  0  0  0  0  0  # atno 17321 bound_to 7965
  140.3496  144.3105  150.5951 LP  0  0  0  0  0  0  0  0  0  0  0  0  # atno 17342 bound_to 10162
  140.5496  143.2208  151.7949 LP  0  0  0  0  0  0  0  0  0  0  0  0  # atno 17343 bound_to 10162
  157.7309  130.9693  150.1856 LP  0  0  0  0  0  0  0  0  0  0  0  0  # atno 17370 bound_to 10713
  156.2570  130.3706  149.8171 LP  0  0  0  0  0  0  0  0  0  0  0  0  # atno 17371 bound_to 10713
  140.6946  133.9360  155.7987 LP  0  0  0  0  0  0  0  0  0  0  0  0  # atno 17394 bound_to 11000
  141.0417  134.0612  157.3894 LP  0  0  0  0  0  0  0  0  0  0  0  0  # atno 17395 bound_to 11000

$$$$
