AV-unprocessed.smi:2446|AV-procd|sdf|9641|dock7
  -GOLD-   2272013273D 1   1.00000     0.00000
 Structure written by MMmdl.
 39 40  0  0  0  0  0  0  0  0  1 V2000
  151.9030  144.8905  157.5567 C   0  0  0  0  0  0  0  0  0  0  0  0
  152.1391  143.6071  158.3342 C   0  0  0  0  0  0  0  0  0  0  0  0
  153.2464  143.5043  159.2035 C   0  0  0  0  0  0  0  0  0  0  0  0
  153.5237  142.4031  159.9313 N   0  0  0  0  0  0  0  0  0  0  0  0
  152.6895  141.3493  159.8201 C   0  0  0  0  0  0  0  0  0  0  0  0
  151.5565  141.3420  158.9832 C   0  0  0  0  0  0  0  0  0  0  0  0
  151.2747  142.4925  158.2075 C   0  0  0  0  0  0  0  0  0  0  0  0
  150.1507  142.6001  157.3413 N   0  0  0  0  0  0  0  0  0  0  0  0
  149.2351  141.6681  157.0108 C   0  0  0  0  0  0  0  0  0  0  0  0
  149.2088  140.5207  157.4499 O   0  0  0  0  0  0  0  0  0  0  0  0
  148.3209  142.0889  156.1175 N   0  0  0  0  0  0  0  0  0  0  0  0
  147.1931  141.3487  155.5404 C   0  0  2  0  0  0  0  0  0  0  0  0
  147.3167  141.3113  154.0053 C   0  0  0  0  0  0  0  0  0  0  0  0
  147.0534  142.6856  153.3671 C   0  0  0  0  0  0  0  0  0  0  0  0
  145.6923  143.2527  153.7988 C   0  0  0  0  0  0  0  0  0  0  0  0
  145.5718  143.3384  155.3347 C   0  0  1  0  0  0  0  0  0  0  0  0
  144.2146  143.9237  155.7763 C   0  0  0  0  0  0  0  0  0  0  0  0
  144.1878  144.1186  157.0950 F   0  0  0  0  0  0  0  0  0  0  0  0
  144.0000  145.0885  155.1645 F   0  0  0  0  0  0  0  0  0  0  0  0
  143.2280  143.0913  155.4435 F   0  0  0  0  0  0  0  0  0  0  0  0
  145.8351  141.9524  155.9657 C   0  0  0  0  0  0  0  0  0  0  0  0
  152.6463  145.6477  157.8079 H   0  0  0  0  0  0  0  0  0  0  0  0
  150.9176  145.2987  157.7829 H   0  0  0  0  0  0  0  0  0  0  0  0
  151.9623  144.7019  156.4845 H   0  0  0  0  0  0  0  0  0  0  0  0
  153.9315  144.3308  159.3220 H   0  0  0  0  0  0  0  0  0  0  0  0
  152.9278  140.4854  160.4227 H   0  0  0  0  0  0  0  0  0  0  0  0
  150.9279  140.4656  158.9651 H   0  0  0  0  0  0  0  0  0  0  0  0
  150.0759  143.4763  156.8460 H   0  0  0  0  0  0  0  0  0  0  0  0
  148.4169  143.0436  155.8028 H   0  0  0  0  0  0  0  0  0  0  0  0
  147.2430  140.3167  155.8916 H   0  0  0  0  0  0  0  0  0  0  0  0
  148.3026  140.9468  153.7140 H   0  0  0  0  0  0  0  0  0  0  0  0
  146.5994  140.5926  153.6071 H   0  0  0  0  0  0  0  0  0  0  0  0
  147.8451  143.3817  153.6463 H   0  0  0  0  0  0  0  0  0  0  0  0
  147.0899  142.6010  152.2807 H   0  0  0  0  0  0  0  0  0  0  0  0
  145.5567  144.2397  153.3559 H   0  0  0  0  0  0  0  0  0  0  0  0
  144.8949  142.6247  153.3995 H   0  0  0  0  0  0  0  0  0  0  0  0
  146.3459  144.0204  155.6896 H   0  0  0  0  0  0  0  0  0  0  0  0
  145.0393  141.2678  155.6696 H   0  0  0  0  0  0  0  0  0  0  0  0
  145.7771  142.0201  157.0518 H   0  0  0  0  0  0  0  0  0  0  0  0
  1  2  1  0  0  0  0
  1 22  1  0  0  0  0
  1 23  1  0  0  0  0
  1 24  1  0  0  0  0
  2  7  1  0  0  0  0
  2  3  2  0  0  0  0
  3  4  1  0  0  0  0
  3 25  1  0  0  0  0
  4  5  2  0  0  0  0
  5  6  1  0  0  0  0
  5 26  1  0  0  0  0
  6  7  2  0  0  0  0
  6 27  1  0  0  0  0
  7  8  1  0  0  0  0
  8  9  1  0  0  0  0
  8 28  1  0  0  0  0
  9 10  2  0  0  0  0
  9 11  1  0  0  0  0
 11 12  1  0  0  0  0
 11 29  1  0  0  0  0
 12 21  1  0  0  0  0
 12 13  1  0  0  0  0
 12 30  1  0  0  0  0
 13 14  1  0  0  0  0
 13 31  1  0  0  0  0
 13 32  1  0  0  0  0
 14 15  1  0  0  0  0
 14 33  1  0  0  0  0
 14 34  1  0  0  0  0
 15 16  1  0  0  0  0
 15 35  1  0  0  0  0
 15 36  1  0  0  0  0
 16 17  1  0  0  0  0
 16 21  1  0  0  0  0
 16 37  1  0  0  0  0
 17 18  1  0  0  0  0
 17 19  1  0  0  0  0
 17 20  1  0  0  0  0
 21 38  1  0  0  0  0
 21 39  1  0  0  0  0
M  END
> <s_m_source_file>
AV-unprocessed.smi

> <i_m_source_file_index>
2446

> <i_lp_mmshare_version>
43012

> <i_f3d_flags>
0

> <s_epik_input>
W0NIM11jMVtjSF1uW2NIXVtjSF1jMVtOSF1DKD1PKVtOSF1bQ0BASF0yW0NIMl1bQ0gyXVtDSDJdW0NAQEhdKEMoRikoRilGKVtDSDJdMg==

> <s_epik_cmdline>
J2VwaWtfcHl0aG9uJywgJy1waCcsICc3LjAnLCAnLXRuJywgJzgnLCAnLW1hJywgJzIwMCcsICctbWV0YWxfYmluZGluZycsICctaW1hZScsICc8aW5maWxlLm1hZT4nLCAnLW9tYWUnLCAnPG91dGZpbGUubWFlPic=

> <r_epik_Ionization_Penalty>
0.20168

> <r_epik_Ionization_Penalty_Charging>
0

> <r_epik_Ionization_Penalty_Neutral>
0.20168

> <r_epik_State_Penalty>
0.191514

> <r_epik_Charging_Adjusted_Penalty>
0.191514

> <i_epik_Tot_Q>
0

> <i_epik_Tot_abs_Q>
0

> <r_epik_Metal_State_Penalty>
0.142371

> <b_epik_Metal_Only>
0

> <s_lp_Force_Field>
OPLS_2005

> <r_lp_Energy>
25.5489

> <b_lp_Chiralities_Consistent>
1

> <s_lp_Variant>
AV-unprocessed.smi:2446-1

> <Gold.Version>
5.8.1

> <Gold.Id.Protein>
6NUR|6NUR_protein|mol2

> <Gold.PLP.Fitness>
42.3625

> <Gold.PLP.PLP>
-37.1125

> <Gold.PLP.part.hbond>
-2.0000

> <Gold.PLP.part.metal>
0.0000

> <Gold.PLP.part.buried>
-7.1507

> <Gold.PLP.part.nonpolar>
-27.2450

> <Gold.PLP.part.repulsive>
0.0710

> <Gold.PLP.ligand.clash>
0.0000

> <Gold.PLP.ligand.torsion>
0.0552

> <Gold.PLP.Chemscore.Hbond>
1.7800

> <Gold.PLP.Chemscore.CHOScore>
0.0000

> <Gold.PLP.Chemscore.Metal>
0.0000

> <Gold.Chemscore.Hbonds>
donor molecule, donor type, donor heavy atom, donor atom, acceptor molecule, acceptor atom, score
      L1  H     8    28       P1  8028  0.83
      L1  H    11    29       P1  8028  1.00

> <Gold.PLP.Chemscore.Internal.Correction>
0.0204

> <Gold.Rescore>
     Score         DG    S(hbond)    S(metal)    S(lipo)     H(rot)  DE(clash)    DE(int)     intcor
     17.03     -21.30       1.93        0.00     101.93       1.00       2.99       1.28       ----

> <Gold.Chemscore.Fitness>
17.0319

> <Gold.Chemscore.DG>
-21.2982

> <Gold.Chemscore.ZeroCoef>
-5.4800

> <Gold.Chemscore.Hbond>
1.9318

> <Gold.Chemscore.Metal>
0.0000

> <Gold.Chemscore.Lipo>
101.9300

> <Gold.Chemscore.Internal_Hbond>
0.0000

> <Gold.Chemscore.DEClash>
2.9890

> <Gold.Chemscore.DEInternal>
1.2772

> <Gold.Chemscore.Rot>
1.0000

> <Gold.Chemscore.Internal.Correction>
   9.000000E+99

> <Gold.Chemscore.Hbonds>
donor molecule, donor type, donor heavy atom, donor atom, acceptor molecule, acceptor atom, score
      L1  H     8    28       P1  8028  0.79
      L1  H    11    29       P1  8028  0.97

> <Gold.Chemscore.Hbond.Weighted>
-6.4524

> <Gold.Chemscore.Metal.Weighted>
-0.0000

> <Gold.Chemscore.Lipo.Weighted>
-11.9258

> <Gold.Chemscore.Internal_Hbond.Weighted>
0.0000

> <Gold.Chemscore.DEClash.Weighted>
2.9890

> <Gold.Chemscore.DEInternal.Weighted>
1.2772

> <Gold.Chemscore.Rot.Weighted>
2.5600

> <Gold.Chemscore.Internal.Correction.Weighted>
   9.000000E+99

> <Gold.Protein.RotatedTorsions>
[ 6907 6896 6895 6894 ] final -176.10 input  -60.11 | X-H torsion
[ 7974 7965 7964 7962 ] final  -37.39 input  175.53 | X-H torsion
[ 8008 7997 7996 7995 ] final  136.45 input   59.86 | X-H torsion
[ 10167 10162 10161 10158 ] final   80.51 input  -65.29 | X-H torsion
[ 10718 10713 10712 10709 ] final  -69.46 input   66.30 | X-H torsion
[ 10763 10752 10751 10750 ] final  132.14 input  -60.55 | X-H torsion
[ 11005 11000 10999 10996 ] final  -50.03 input  -57.11 | X-H torsion

> <Gold.Protein.ActiveResidues>
 VAL166  LYS551  ARG553  GLY616  TRP617  ASP618  TYR619  PRO620  LYS621  CYS622 
 ASP623  PHE694  ASN695  SER759  ASP760  ASP761  ALA762  ILE779  LEU786  VAL792 
 PHE793  MET794  SER795  GLU796  ALA797  LYS798  CYS799  TRP800  GLU811  SER814 

> <Gold.Protein.RotatedAtoms>
  151.5994  133.3358  159.3043 H   0  0  0  0  0  0  0  0  0  0  0  0  # atno 6907 bound_to 6896
  150.8216  134.7430  159.6789 H   0  0  0  0  0  0  0  0  0  0  0  0  # atno 6908 bound_to 6896
  152.4309  134.5785  159.9992 H   0  0  0  0  0  0  0  0  0  0  0  0  # atno 6909 bound_to 6896
  146.0579  140.6391  142.9011 H   0  0  0  0  0  0  0  0  0  0  0  0  # atno 7974 bound_to 7965
  156.3004  140.2445  156.3748 H   0  0  0  0  0  0  0  0  0  0  0  0  # atno 8008 bound_to 7997
  154.8756  140.0414  157.1770 H   0  0  0  0  0  0  0  0  0  0  0  0  # atno 8009 bound_to 7997
  154.8750  140.2940  155.5463 H   0  0  0  0  0  0  0  0  0  0  0  0  # atno 8010 bound_to 7997
  139.9490  144.6039  150.8179 H   0  0  0  0  0  0  0  0  0  0  0  0  # atno 10167 bound_to 10162
  156.0454  130.4313  150.2150 H   0  0  0  0  0  0  0  0  0  0  0  0  # atno 10718 bound_to 10713
  153.7859  135.3162  155.3372 H   0  0  0  0  0  0  0  0  0  0  0  0  # atno 10763 bound_to 10752
  154.8144  135.4646  154.0606 H   0  0  0  0  0  0  0  0  0  0  0  0  # atno 10764 bound_to 10752
  153.1909  135.6908  153.8440 H   0  0  0  0  0  0  0  0  0  0  0  0  # atno 10765 bound_to 10752
  141.0793  133.6657  156.3671 H   0  0  0  0  0  0  0  0  0  0  0  0  # atno 11005 bound_to 11000
  144.7158  140.4204  143.7045 LP  0  0  0  0  0  0  0  0  0  0  0  0  # atno 17320 bound_to 7965
  145.6612  139.1582  143.2807 LP  0  0  0  0  0  0  0  0  0  0  0  0  # atno 17321 bound_to 7965
  140.7588  143.3116  151.2832 LP  0  0  0  0  0  0  0  0  0  0  0  0  # atno 17342 bound_to 10162
  139.6643  144.0133  152.2713 LP  0  0  0  0  0  0  0  0  0  0  0  0  # atno 17343 bound_to 10162
  157.0241  130.9988  151.3331 LP  0  0  0  0  0  0  0  0  0  0  0  0  # atno 17370 bound_to 10713
  157.5324  130.8067  149.7932 LP  0  0  0  0  0  0  0  0  0  0  0  0  # atno 17371 bound_to 10713
  140.5505  134.6033  157.5406 LP  0  0  0  0  0  0  0  0  0  0  0  0  # atno 17394 bound_to 11000
  139.9606  134.7459  156.0246 LP  0  0  0  0  0  0  0  0  0  0  0  0  # atno 17395 bound_to 11000

$$$$
