AV-unprocessed.smi:1308|AV-procd|sdf|5440|dock7
  -GOLD-   22720 5 03D 1   1.00000     0.00000
 Structure written by MMmdl.
 45 45  0  0  0  0  0  0  0  0  1 V2000
  143.4691  140.5517  158.5752 C   0  0  0  0  0  0  0  0  0  0  0  0
  144.4983  140.6846  157.4740 C   0  0  0  0  0  0  0  0  0  0  0  0
  145.4755  139.7035  157.5049 N   0  0  0  0  0  0  0  0  0  0  0  0
  146.4666  139.7465  156.5402 C   0  0  0  0  0  0  0  0  0  0  0  0
  147.4978  138.6366  156.6447 C   0  0  0  0  0  0  0  0  0  0  0  0
  146.4806  140.7161  155.5907 C   0  0  0  0  0  0  0  0  0  0  0  0
  147.5516  140.7982  154.5034 C   0  0  0  0  0  0  0  0  0  0  0  0
  149.0050  140.6964  154.9737 C   0  0  0  0  0  0  0  0  0  0  0  0
  149.7549  139.8351  154.5135 O   0  0  0  0  0  0  0  0  0  0  0  0
  149.3862  141.5999  155.8899 N   0  0  0  0  0  0  0  0  0  0  0  0
  150.7278  141.7372  156.4554 C   0  0  2  0  0  0  0  0  0  0  0  0
  151.2670  140.3483  156.8244 C   0  0  0  0  0  0  0  0  0  0  0  0
  150.7030  142.6812  157.6733 C   0  0  0  0  0  0  0  0  0  0  0  0
  151.9555  142.5743  158.5653 C   0  0  0  0  0  0  0  0  0  0  0  0
  151.9931  143.5902  159.7251 C   0  0  0  0  0  0  0  0  0  0  0  0
  151.9444  145.0465  159.2327 C   0  0  0  0  0  0  0  0  0  0  0  0
  153.2335  143.3633  160.6026 C   0  0  0  0  0  0  0  0  0  0  0  0
  145.4010  141.7311  155.6012 C   0  0  0  0  0  0  0  0  0  0  0  0
  145.3478  142.6220  154.7544 O   0  0  0  0  0  0  0  0  0  0  0  0
  144.4247  141.6489  156.6075 N   0  0  0  0  0  0  0  0  0  0  0  0
  145.5015  138.9639  158.1920 H   0  0  0  0  0  0  0  0  0  0  0  0
  142.6818  141.2983  158.4650 H   0  0  0  0  0  0  0  0  0  0  0  0
  143.9369  140.6905  159.5503 H   0  0  0  0  0  0  0  0  0  0  0  0
  143.0076  139.5641  158.5482 H   0  0  0  0  0  0  0  0  0  0  0  0
  147.5333  138.0623  155.7187 H   0  0  0  0  0  0  0  0  0  0  0  0
  147.2660  137.9472  157.4575 H   0  0  0  0  0  0  0  0  0  0  0  0
  148.4878  139.0528  156.8316 H   0  0  0  0  0  0  0  0  0  0  0  0
  147.4402  141.7435  153.9725 H   0  0  0  0  0  0  0  0  0  0  0  0
  147.3760  140.0327  153.7465 H   0  0  0  0  0  0  0  0  0  0  0  0
  148.6944  142.2639  156.2066 H   0  0  0  0  0  0  0  0  0  0  0  0
  151.4079  142.1643  155.7161 H   0  0  0  0  0  0  0  0  0  0  0  0
  152.2777  140.4148  157.2278 H   0  0  0  0  0  0  0  0  0  0  0  0
  151.3047  139.6966  155.9509 H   0  0  0  0  0  0  0  0  0  0  0  0
  150.6405  139.8648  157.5748 H   0  0  0  0  0  0  0  0  0  0  0  0
  150.5809  143.7076  157.3265 H   0  0  0  0  0  0  0  0  0  0  0  0
  149.8212  142.4567  158.2748 H   0  0  0  0  0  0  0  0  0  0  0  0
  151.9943  141.5659  158.9797 H   0  0  0  0  0  0  0  0  0  0  0  0
  152.8564  142.6844  157.9606 H   0  0  0  0  0  0  0  0  0  0  0  0
  151.1183  143.4199  160.3537 H   0  0  0  0  0  0  0  0  0  0  0  0
  152.7662  145.2615  158.5492 H   0  0  0  0  0  0  0  0  0  0  0  0
  152.0159  145.7445  160.0674 H   0  0  0  0  0  0  0  0  0  0  0  0
  151.0115  145.2650  158.7138 H   0  0  0  0  0  0  0  0  0  0  0  0
  154.1528  143.5107  160.0346 H   0  0  0  0  0  0  0  0  0  0  0  0
  153.2512  142.3505  161.0065 H   0  0  0  0  0  0  0  0  0  0  0  0
  153.2503  144.0517  161.4480 H   0  0  0  0  0  0  0  0  0  0  0  0
  1 22  1  0  0  0  0
  1 23  1  0  0  0  0
  1 24  1  0  0  0  0
  1  2  1  0  0  0  0
  2  3  1  0  0  0  0
  2 20  2  0  0  0  0
  3  4  1  0  0  0  0
  3 21  1  0  0  0  0
  4  6  2  0  0  0  0
  4  5  1  0  0  0  0
  5 25  1  0  0  0  0
  5 26  1  0  0  0  0
  5 27  1  0  0  0  0
  6 18  1  0  0  0  0
  6  7  1  0  0  0  0
  7  8  1  0  0  0  0
  7 28  1  0  0  0  0
  7 29  1  0  0  0  0
  8  9  2  0  0  0  0
  8 10  1  0  0  0  0
 10 11  1  0  0  0  0
 10 30  1  0  0  0  0
 11 12  1  0  0  0  0
 11 13  1  0  0  0  0
 11 31  1  0  0  0  0
 12 32  1  0  0  0  0
 12 33  1  0  0  0  0
 12 34  1  0  0  0  0
 13 14  1  0  0  0  0
 13 35  1  0  0  0  0
 13 36  1  0  0  0  0
 14 15  1  0  0  0  0
 14 37  1  0  0  0  0
 14 38  1  0  0  0  0
 15 16  1  0  0  0  0
 15 17  1  0  0  0  0
 15 39  1  0  0  0  0
 16 40  1  0  0  0  0
 16 41  1  0  0  0  0
 16 42  1  0  0  0  0
 17 43  1  0  0  0  0
 17 44  1  0  0  0  0
 17 45  1  0  0  0  0
 18 19  2  0  0  0  0
 18 20  1  0  0  0  0
M  END
> <s_m_source_file>
AV-unprocessed.smi

> <i_m_source_file_index>
1308

> <i_lp_mmshare_version>
43012

> <i_f3d_flags>
0

> <s_epik_input>
W0NIM11jMW5jKFtDSDNdKWMoYyg9TylbbkhdMSlbQ0gyXUMoPU8pW05IXVtDQEhdKFtDSDNdKVtDSDJdW0NIMl1bQ0hdKFtDSDNdKVtDSDNd

> <s_epik_cmdline>
J2VwaWtfcHl0aG9uJywgJy1waCcsICc3LjAnLCAnLXRuJywgJzgnLCAnLW1hJywgJzIwMCcsICctbWV0YWxfYmluZGluZycsICctaW1hZScsICc8aW5maWxlLm1hZT4nLCAnLW9tYWUnLCAnPG91dGZpbGUubWFlPic=

> <r_lp_tautomer_probability>
0.156392

> <r_epik_Ionization_Penalty>
0.0141156

> <r_epik_Ionization_Penalty_Charging>
0.0139937

> <r_epik_Ionization_Penalty_Neutral>
0.00012188

> <r_epik_State_Penalty>
1.52994

> <r_epik_Charging_Adjusted_Penalty>
1.54393

> <i_epik_Tot_Q>
0

> <i_epik_Tot_abs_Q>
0

> <r_epik_Metal_State_Penalty>
1.70663

> <b_epik_Metal_Only>
0

> <s_lp_Force_Field>
OPLS_2005

> <r_lp_Energy>
10.8122

> <b_lp_Chiralities_Consistent>
1

> <s_lp_Variant>
AV-unprocessed.smi:1308-3

> <Gold.Version>
5.8.1

> <Gold.Id.Protein>
6NUR|6NUR_protein|mol2

> <Gold.PLP.Fitness>
41.5174

> <Gold.PLP.PLP>
-36.7063

> <Gold.PLP.part.hbond>
-3.0000

> <Gold.PLP.part.metal>
0.0000

> <Gold.PLP.part.buried>
-2.3811

> <Gold.PLP.part.nonpolar>
-31.6582

> <Gold.PLP.part.repulsive>
1.4567

> <Gold.PLP.ligand.clash>
0.0000

> <Gold.PLP.ligand.torsion>
0.4398

> <Gold.PLP.Chemscore.Hbond>
1.8880

> <Gold.PLP.Chemscore.CHOScore>
0.0000

> <Gold.PLP.Chemscore.Metal>
0.0000

> <Gold.Chemscore.Hbonds>
donor molecule, donor type, donor heavy atom, donor atom, acceptor molecule, acceptor atom, score
      P1  H  7989  7998       L1     9  0.16

> <Gold.PLP.Chemscore.Internal.Correction>
0.0268

> <Gold.Rescore>
     Score         DG    S(hbond)    S(metal)    S(lipo)     H(rot)  DE(clash)    DE(int)     intcor
     13.39     -15.65       1.51        0.00      87.18       1.98       0.33       1.93       ----

> <Gold.Chemscore.Fitness>
13.3896

> <Gold.Chemscore.DG>
-15.6516

> <Gold.Chemscore.ZeroCoef>
-5.4800

> <Gold.Chemscore.Hbond>
1.5118

> <Gold.Chemscore.Metal>
0.0000

> <Gold.Chemscore.Lipo>
87.1781

> <Gold.Chemscore.Internal_Hbond>
0.0000

> <Gold.Chemscore.DEClash>
0.3286

> <Gold.Chemscore.DEInternal>
1.9334

> <Gold.Chemscore.Rot>
1.9835

> <Gold.Chemscore.Internal.Correction>
   9.000000E+99

> <Gold.Chemscore.Hbonds>
donor molecule, donor type, donor heavy atom, donor atom, acceptor molecule, acceptor atom, score
      P1  H  7989  7998       L1     9  0.13

> <Gold.Chemscore.Hbond.Weighted>
-5.0495

> <Gold.Chemscore.Metal.Weighted>
-0.0000

> <Gold.Chemscore.Lipo.Weighted>
-10.1998

> <Gold.Chemscore.Internal_Hbond.Weighted>
0.0000

> <Gold.Chemscore.DEClash.Weighted>
0.3286

> <Gold.Chemscore.DEInternal.Weighted>
1.9334

> <Gold.Chemscore.Rot.Weighted>
5.0778

> <Gold.Chemscore.Internal.Correction.Weighted>
   9.000000E+99

> <Gold.Protein.RotatedTorsions>
[ 6907 6896 6895 6894 ] final  -15.24 input  -60.11 | X-H torsion
[ 7974 7965 7964 7962 ] final -141.61 input  175.53 | X-H torsion
[ 8008 7997 7996 7995 ] final -151.14 input   59.86 | X-H torsion
[ 10167 10162 10161 10158 ] final -116.59 input  -65.29 | X-H torsion
[ 10718 10713 10712 10709 ] final  -52.53 input   66.30 | X-H torsion
[ 10763 10752 10751 10750 ] final -159.46 input  -60.55 | X-H torsion
[ 11005 11000 10999 10996 ] final  -47.40 input  -57.11 | X-H torsion

> <Gold.Protein.ActiveResidues>
 VAL166  LYS551  ARG553  GLY616  TRP617  ASP618  TYR619  PRO620  LYS621  CYS622 
 ASP623  PHE694  ASN695  SER759  ASP760  ASP761  ALA762  ILE779  LEU786  VAL792 
 PHE793  MET794  SER795  GLU796  ALA797  LYS798  CYS799  TRP800  GLU811  SER814 

> <Gold.Protein.RotatedAtoms>
  151.3271  135.0832  159.9325 H   0  0  0  0  0  0  0  0  0  0  0  0  # atno 6907 bound_to 6896
  152.5243  133.9581  159.7714 H   0  0  0  0  0  0  0  0  0  0  0  0  # atno 6908 bound_to 6896
  150.9912  133.6095  159.2738 H   0  0  0  0  0  0  0  0  0  0  0  0  # atno 6909 bound_to 6896
  144.8506  140.6059  143.5392 H   0  0  0  0  0  0  0  0  0  0  0  0  # atno 7974 bound_to 7965
  155.6348  140.0695  157.2637 H   0  0  0  0  0  0  0  0  0  0  0  0  # atno 8008 bound_to 7997
  154.4197  140.1761  156.1559 H   0  0  0  0  0  0  0  0  0  0  0  0  # atno 8009 bound_to 7997
  155.9904  140.3345  155.6751 H   0  0  0  0  0  0  0  0  0  0  0  0  # atno 8010 bound_to 7997
  140.0775  143.4819  152.1944 H   0  0  0  0  0  0  0  0  0  0  0  0  # atno 10167 bound_to 10162
  156.1613  130.4149  149.9789 H   0  0  0  0  0  0  0  0  0  0  0  0  # atno 10718 bound_to 10713
  154.7473  135.3083  154.8622 H   0  0  0  0  0  0  0  0  0  0  0  0  # atno 10763 bound_to 10752
  153.9419  135.6773  153.4748 H   0  0  0  0  0  0  0  0  0  0  0  0  # atno 10764 bound_to 10752
  153.1069  135.4885  154.8894 H   0  0  0  0  0  0  0  0  0  0  0  0  # atno 10765 bound_to 10752
  141.0638  133.6700  156.3293 H   0  0  0  0  0  0  0  0  0  0  0  0  # atno 11005 bound_to 11000
  145.4507  139.1524  143.3920 LP  0  0  0  0  0  0  0  0  0  0  0  0  # atno 17320 bound_to 7965
  146.2782  140.4633  142.8787 LP  0  0  0  0  0  0  0  0  0  0  0  0  # atno 17321 bound_to 7965
  139.5799  144.7505  151.3667 LP  0  0  0  0  0  0  0  0  0  0  0  0  # atno 17342 bound_to 10162
  140.7094  143.7429  150.7540 LP  0  0  0  0  0  0  0  0  0  0  0  0  # atno 17343 bound_to 10162
  156.7617  130.9153  151.3641 LP  0  0  0  0  0  0  0  0  0  0  0  0  # atno 17370 bound_to 10713
  157.6734  130.9072  150.0094 LP  0  0  0  0  0  0  0  0  0  0  0  0  # atno 17371 bound_to 10713
  140.5814  134.5742  157.5480 LP  0  0  0  0  0  0  0  0  0  0  0  0  # atno 17394 bound_to 11000
  139.9457  134.7706  156.0567 LP  0  0  0  0  0  0  0  0  0  0  0  0  # atno 17395 bound_to 11000

$$$$
