AV-unprocessed.smi:2848|AV-procd|sdf|10956|dock7
  -GOLD-   2272015413D 1   1.00000     0.00000
 Structure written by MMmdl.
 26 27  0  0  0  0  0  0  0  0  1 V2000
  146.5243  142.6028  155.6289 Cl  0  0  0  0  0  0  0  0  0  0  0  0
  147.4216  141.3385  154.8629 C   0  0  0  0  0  0  0  0  0  0  0  0
  146.7709  140.4627  153.9698 C   0  0  0  0  0  0  0  0  0  0  0  0
  147.3959  139.4519  153.3304 N   0  0  0  0  0  0  0  0  0  0  0  0
  148.7130  139.2792  153.5668 C   0  0  0  0  0  0  0  0  0  0  0  0
  149.4588  140.0963  154.4397 C   0  0  0  0  0  0  0  0  0  0  0  0
  148.8023  141.1565  155.1087 C   0  0  0  0  0  0  0  0  0  0  0  0
  149.4665  142.0175  155.9955 N   0  0  0  0  0  0  0  0  0  0  0  0
  150.8969  141.8860  156.2295 C   0  0  0  0  0  0  0  0  0  0  0  0
  151.3818  142.7003  157.4131 C   0  0  0  0  0  0  0  0  0  0  0  0
  151.3856  144.0486  157.4535 C   0  0  0  0  0  0  0  0  0  0  0  0
  151.7489  144.7722  158.5609 O   0  0  0  0  0  0  0  0  0  0  0  0
  151.8342  144.0076  159.7585 C   0  0  0  0  0  0  0  0  0  0  0  0
  152.5141  142.6558  159.4871 C   0  0  0  0  0  0  0  0  0  0  0  0
  151.8276  141.9368  158.4666 O   0  0  0  0  0  0  0  0  0  0  0  0
  145.7171  140.5770  153.7621 H   0  0  0  0  0  0  0  0  0  0  0  0
  149.1887  138.4626  153.0444 H   0  0  0  0  0  0  0  0  0  0  0  0
  150.5101  139.8958  154.5807 H   0  0  0  0  0  0  0  0  0  0  0  0
  149.0274  142.8957  156.2332 H   0  0  0  0  0  0  0  0  0  0  0  0
  151.1397  140.8397  156.4169 H   0  0  0  0  0  0  0  0  0  0  0  0
  151.4395  142.1954  155.3354 H   0  0  0  0  0  0  0  0  0  0  0  0
  151.0517  144.6828  156.6455 H   0  0  0  0  0  0  0  0  0  0  0  0
  152.3922  144.5728  160.5051 H   0  0  0  0  0  0  0  0  0  0  0  0
  150.8304  143.8539  160.1571 H   0  0  0  0  0  0  0  0  0  0  0  0
  153.5492  142.8082  159.1785 H   0  0  0  0  0  0  0  0  0  0  0  0
  152.5372  142.0519  160.3942 H   0  0  0  0  0  0  0  0  0  0  0  0
  1  2  1  0  0  0  0
  2  7  1  0  0  0  0
  2  3  2  0  0  0  0
  3  4  1  0  0  0  0
  3 16  1  0  0  0  0
  4  5  2  0  0  0  0
  5  6  1  0  0  0  0
  5 17  1  0  0  0  0
  6  7  2  0  0  0  0
  6 18  1  0  0  0  0
  7  8  1  0  0  0  0
  8  9  1  0  0  0  0
  8 19  1  0  0  0  0
  9 10  1  0  0  0  0
  9 20  1  0  0  0  0
  9 21  1  0  0  0  0
 10 15  1  0  0  0  0
 10 11  2  0  0  0  0
 11 12  1  0  0  0  0
 11 22  1  0  0  0  0
 12 13  1  0  0  0  0
 13 14  1  0  0  0  0
 13 23  1  0  0  0  0
 13 24  1  0  0  0  0
 14 15  1  0  0  0  0
 14 25  1  0  0  0  0
 14 26  1  0  0  0  0
M  END
> <s_m_source_file>
AV-unprocessed.smi

> <i_m_source_file_index>
2848

> <i_lp_mmshare_version>
43012

> <i_f3d_flags>
0

> <s_epik_input>
Q2xjMVtjSF1uW2NIXVtjSF1jMVtOSF1bQ0gyXUMyPVtDSF1PW0NIMl1bQ0gyXU8y

> <s_epik_cmdline>
J2VwaWtfcHl0aG9uJywgJy1waCcsICc3LjAnLCAnLXRuJywgJzgnLCAnLW1hJywgJzIwMCcsICctbWV0YWxfYmluZGluZycsICctaW1hZScsICc8aW5maWxlLm1hZT4nLCAnLW9tYWUnLCAnPG91dGZpbGUubWFlPic=

> <r_lp_tautomer_probability>
0.999999

> <r_epik_Ionization_Penalty>
1.20444

> <r_epik_Ionization_Penalty_Charging>
0

> <r_epik_Ionization_Penalty_Neutral>
1.20444

> <r_epik_State_Penalty>
1.27033

> <r_epik_Charging_Adjusted_Penalty>
1.27033

> <i_epik_Tot_Q>
0

> <i_epik_Tot_abs_Q>
0

> <r_epik_Metal_State_Penalty>
0.00444713

> <b_epik_Metal_Only>
0

> <s_lp_Force_Field>
OPLS_2005

> <r_lp_Energy>
2.57385

> <b_lp_Chiralities_Consistent>
1

> <s_lp_Variant>
AV-unprocessed.smi:2848-2

> <Gold.Version>
5.8.1

> <Gold.Id.Protein>
6NUR|6NUR_protein|mol2

> <Gold.PLP.Fitness>
38.9838

> <Gold.PLP.PLP>
-27.2232

> <Gold.PLP.part.hbond>
-1.0000

> <Gold.PLP.part.metal>
0.0000

> <Gold.PLP.part.buried>
0.3161

> <Gold.PLP.part.nonpolar>
-26.5536

> <Gold.PLP.part.repulsive>
0.5279

> <Gold.PLP.ligand.clash>
0.0000

> <Gold.PLP.ligand.torsion>
0.1088

> <Gold.PLP.Chemscore.Hbond>
0.8320

> <Gold.PLP.Chemscore.CHOScore>
3.1607

> <Gold.PLP.Chemscore.Metal>
0.0000

> <Gold.Chemscore.Hbonds>
donor molecule, donor type, donor heavy atom, donor atom, acceptor molecule, acceptor atom, score
      L1  H     8    19       P1  8028  0.85
      L1  C     3    16       P1 10175  1.00
      L1  C     5    17       P1  7948  1.00
      L1  C     5    17       P1  7957  0.17
      L1  C    11    22       P1  8028  0.96

> <Gold.PLP.Chemscore.Internal.Correction>
0.0000

> <Gold.Rescore>
     Score         DG    S(hbond)    S(metal)    S(lipo)     H(rot)  DE(clash)    DE(int)     intcor
     15.26     -15.51       0.93        0.00      85.26       1.19       0.14       0.11       ----

> <Gold.Chemscore.Fitness>
15.2630

> <Gold.Chemscore.DG>
-15.5145

> <Gold.Chemscore.ZeroCoef>
-5.4800

> <Gold.Chemscore.Hbond>
0.9326

> <Gold.Chemscore.Metal>
0.0000

> <Gold.Chemscore.Lipo>
85.2592

> <Gold.Chemscore.Internal_Hbond>
0.0000

> <Gold.Chemscore.DEClash>
0.1386

> <Gold.Chemscore.DEInternal>
0.1129

> <Gold.Chemscore.Rot>
1.1937

> <Gold.Chemscore.Internal.Correction>
   9.000000E+99

> <Gold.Chemscore.Hbonds>
donor molecule, donor type, donor heavy atom, donor atom, acceptor molecule, acceptor atom, score
      L1  H     8    19       P1  8028  0.83

> <Gold.Chemscore.Hbond.Weighted>
-3.1150

> <Gold.Chemscore.Metal.Weighted>
-0.0000

> <Gold.Chemscore.Lipo.Weighted>
-9.9753

> <Gold.Chemscore.Internal_Hbond.Weighted>
0.0000

> <Gold.Chemscore.DEClash.Weighted>
0.1386

> <Gold.Chemscore.DEInternal.Weighted>
0.1129

> <Gold.Chemscore.Rot.Weighted>
3.0558

> <Gold.Chemscore.Internal.Correction.Weighted>
   9.000000E+99

> <Gold.Protein.RotatedTorsions>
[ 6907 6896 6895 6894 ] final -154.59 input  -60.11 | X-H torsion
[ 7974 7965 7964 7962 ] final  135.94 input  175.53 | X-H torsion
[ 8008 7997 7996 7995 ] final  -21.36 input   59.86 | X-H torsion
[ 10167 10162 10161 10158 ] final  -99.86 input  -65.29 | X-H torsion
[ 10718 10713 10712 10709 ] final   80.16 input   66.30 | X-H torsion
[ 10763 10752 10751 10750 ] final -102.60 input  -60.55 | X-H torsion
[ 11005 11000 10999 10996 ] final  -25.19 input  -57.11 | X-H torsion

> <Gold.Protein.ActiveResidues>
 VAL166  LYS551  ARG553  GLY616  TRP617  ASP618  TYR619  PRO620  LYS621  CYS622 
 ASP623  PHE694  ASN695  SER759  ASP760  ASP761  ALA762  ILE779  LEU786  VAL792 
 PHE793  MET794  SER795  GLU796  ALA797  LYS798  CYS799  TRP800  GLU811  SER814 

> <Gold.Protein.RotatedAtoms>
  151.2597  133.4308  159.2615 H   0  0  0  0  0  0  0  0  0  0  0  0  # atno 6907 bound_to 6896
  151.0541  134.9693  159.8237 H   0  0  0  0  0  0  0  0  0  0  0  0  # atno 6908 bound_to 6896
  152.5387  134.2551  159.8966 H   0  0  0  0  0  0  0  0  0  0  0  0  # atno 6909 bound_to 6896
  144.9614  139.4706  143.5478 H   0  0  0  0  0  0  0  0  0  0  0  0  # atno 7974 bound_to 7965
  154.4711  140.2037  155.9994 H   0  0  0  0  0  0  0  0  0  0  0  0  # atno 8008 bound_to 7997
  156.1011  140.3243  155.7914 H   0  0  0  0  0  0  0  0  0  0  0  0  # atno 8009 bound_to 7997
  155.4795  140.0537  157.2960 H   0  0  0  0  0  0  0  0  0  0  0  0  # atno 8010 bound_to 7997
  140.2579  143.3427  152.0653 H   0  0  0  0  0  0  0  0  0  0  0  0  # atno 10167 bound_to 10162
  157.6798  130.9947  150.2038 H   0  0  0  0  0  0  0  0  0  0  0  0  # atno 10718 bound_to 10713
  154.7746  135.4854  153.9718 H   0  0  0  0  0  0  0  0  0  0  0  0  # atno 10763 bound_to 10752
  153.1412  135.6773  153.9032 H   0  0  0  0  0  0  0  0  0  0  0  0  # atno 10764 bound_to 10752
  153.8706  135.3144  155.3420 H   0  0  0  0  0  0  0  0  0  0  0  0  # atno 10765 bound_to 10752
  140.8914  133.7585  156.0426 H   0  0  0  0  0  0  0  0  0  0  0  0  # atno 11005 bound_to 11000
  146.3354  139.8766  142.8831 LP  0  0  0  0  0  0  0  0  0  0  0  0  # atno 17320 bound_to 7965
  145.2694  141.0104  143.3780 LP  0  0  0  0  0  0  0  0  0  0  0  0  # atno 17321 bound_to 7965
  139.5025  144.6737  151.6180 LP  0  0  0  0  0  0  0  0  0  0  0  0  # atno 17342 bound_to 10162
  140.5989  143.9646  150.6373 LP  0  0  0  0  0  0  0  0  0  0  0  0  # atno 17343 bound_to 10162
  156.2723  130.3723  149.8019 LP  0  0  0  0  0  0  0  0  0  0  0  0  # atno 17370 bound_to 10713
  156.5732  130.8433  151.3362 LP  0  0  0  0  0  0  0  0  0  0  0  0  # atno 17371 bound_to 10713
  140.8342  134.3143  157.5338 LP  0  0  0  0  0  0  0  0  0  0  0  0  # atno 17394 bound_to 11000
  139.8730  134.9380  156.3702 LP  0  0  0  0  0  0  0  0  0  0  0  0  # atno 17395 bound_to 11000

$$$$
