AV-unprocessed.smi:3290|AV-procd|sdf|12612|dock9
  -GOLD-   2272018543D 1   1.00000     0.00000
 Structure written by MMmdl.
 43 44  0  0  0  0  0  0  0  0  2 V2000
  152.0122  140.8817  158.0400 C   0  0  0  0  0  0  0  0  0  0  0  0
  151.5273  141.7761  159.1989 C   0  0  1  0  0  0  0  0  0  0  0  0
  152.7111  142.4003  159.9684 C   0  0  0  0  0  0  0  0  0  0  0  0
  153.4010  143.5223  159.1752 C   0  0  0  0  0  0  0  0  0  0  0  0
  152.3948  144.6037  158.7571 C   0  0  0  0  0  0  0  0  0  0  0  0
  151.2151  144.0016  157.9779 C   0  0  0  0  0  0  0  0  0  0  0  0
  150.5160  142.8800  158.7758 C   0  0  1  0  0  0  0  0  0  0  0  0
  149.2822  142.3481  158.0179 C   0  0  0  0  0  0  0  0  0  0  0  0
  149.6016  142.0183  156.6150 N   0  3  0  0  0  0  0  0  0  0  0  0
  148.8224  140.8901  156.0674 C   0  0  0  0  0  0  0  0  0  0  0  0
  148.1791  141.2531  154.7179 C   0  0  2  0  0  0  0  0  0  0  0  0
  149.0058  142.1931  154.0590 O   0  0  0  0  0  0  0  0  0  0  0  0
  146.7662  141.7815  154.9079 C   0  0  0  0  0  0  0  0  0  0  0  0
  145.8522  141.0962  155.7355 C   0  0  0  0  0  0  0  0  0  0  0  0
  144.5544  141.6244  155.8890 C   0  0  0  0  0  0  0  0  0  0  0  0
  144.1395  142.7584  155.2853 N   0  0  0  0  0  0  0  0  0  0  0  0
  145.0187  143.4122  154.4963 C   0  0  0  0  0  0  0  0  0  0  0  0
  146.3383  142.9693  154.2758 C   0  0  0  0  0  0  0  0  0  0  0  0
  152.4804  141.4582  157.2428 H   0  0  0  0  0  0  0  0  0  0  0  0
  151.1924  140.3134  157.6013 H   0  0  0  0  0  0  0  0  0  0  0  0
  152.7451  140.1551  158.3913 H   0  0  0  0  0  0  0  0  0  0  0  0
  151.0217  141.1133  159.9019 H   0  0  0  0  0  0  0  0  0  0  0  0
  152.3484  142.8083  160.9131 H   0  0  0  0  0  0  0  0  0  0  0  0
  153.4379  141.6317  160.2340 H   0  0  0  0  0  0  0  0  0  0  0  0
  154.1925  143.9681  159.7784 H   0  0  0  0  0  0  0  0  0  0  0  0
  153.8877  143.1096  158.2912 H   0  0  0  0  0  0  0  0  0  0  0  0
  152.0216  145.1160  159.6447 H   0  0  0  0  0  0  0  0  0  0  0  0
  152.8934  145.3609  158.1514 H   0  0  0  0  0  0  0  0  0  0  0  0
  150.5010  144.7926  157.7451 H   0  0  0  0  0  0  0  0  0  0  0  0
  151.5655  143.6198  157.0186 H   0  0  0  0  0  0  0  0  0  0  0  0
  150.1449  143.3391  159.6939 H   0  0  0  0  0  0  0  0  0  0  0  0
  148.9162  141.4432  158.5050 H   0  0  0  0  0  0  0  0  0  0  0  0
  148.4652  143.0691  158.0528 H   0  0  0  0  0  0  0  0  0  0  0  0
  149.4160  142.8320  156.0455 H   0  0  0  0  0  0  0  0  0  0  0  0
  149.4915  140.0379  155.9404 H   0  0  0  0  0  0  0  0  0  0  0  0
  148.0563  140.5922  156.7852 H   0  0  0  0  0  0  0  0  0  0  0  0
  148.1328  140.3630  154.0888 H   0  0  0  0  0  0  0  0  0  0  0  0
  148.9719  143.0086  154.5364 H   0  0  0  0  0  0  0  0  0  0  0  0
  146.1331  140.1859  156.2441 H   0  0  0  0  0  0  0  0  0  0  0  0
  143.8314  141.1228  156.5150 H   0  0  0  0  0  0  0  0  0  0  0  0
  144.6607  144.3168  154.0275 H   0  0  0  0  0  0  0  0  0  0  0  0
  147.0026  143.5325  153.6367 H   0  0  0  0  0  0  0  0  0  0  0  0
  150.5847  141.7964  156.5492 H   0  0  0  0  0  0  0  0  0  0  0  0
  1  2  1  0  0  0  0
  1 19  1  0  0  0  0
  1 20  1  0  0  0  0
  1 21  1  0  0  0  0
  2  7  1  0  0  0  0
  2  3  1  0  0  0  0
  2 22  1  0  0  0  0
  3  4  1  0  0  0  0
  3 23  1  0  0  0  0
  3 24  1  0  0  0  0
  4  5  1  0  0  0  0
  4 25  1  0  0  0  0
  4 26  1  0  0  0  0
  5  6  1  0  0  0  0
  5 27  1  0  0  0  0
  5 28  1  0  0  0  0
  6  7  1  0  0  0  0
  6 29  1  0  0  0  0
  6 30  1  0  0  0  0
  7  8  1  0  0  0  0
  7 31  1  0  0  0  0
  8  9  1  0  0  0  0
  8 32  1  0  0  0  0
  8 33  1  0  0  0  0
  9 10  1  0  0  0  0
  9 34  1  0  0  0  0
  9 43  1  0  0  0  0
 10 11  1  0  0  0  0
 10 35  1  0  0  0  0
 10 36  1  0  0  0  0
 11 12  1  0  0  0  0
 11 13  1  0  0  0  0
 11 37  1  0  0  0  0
 12 38  1  0  0  0  0
 13 18  1  0  0  0  0
 13 14  2  0  0  0  0
 14 15  1  0  0  0  0
 14 39  1  0  0  0  0
 15 16  2  0  0  0  0
 15 40  1  0  0  0  0
 16 17  1  0  0  0  0
 17 18  2  0  0  0  0
 17 41  1  0  0  0  0
 18 42  1  0  0  0  0
M  CHG  1   9   1
M  END
> <s_m_source_file>
AV-unprocessed.smi

> <i_m_source_file_index>
3290

> <i_lp_mmshare_version>
43012

> <i_f3d_flags>
0

> <s_epik_input>
W0NIM11bQ0BASF0xW0NIMl1bQ0gyXVtDSDJdW0NIMl1bQ0BIXTFbQ0gyXVtOSF1bQ0gyXVtDQEhdKFtPSF0pYzJbY0hdW2NIXW5bY0hdW2NIXTI=

> <s_epik_cmdline>
J2VwaWtfcHl0aG9uJywgJy1waCcsICc3LjAnLCAnLXRuJywgJzgnLCAnLW1hJywgJzIwMCcsICctbWV0YWxfYmluZGluZycsICctaW1hZScsICc8aW5maWxlLm1hZT4nLCAnLW9tYWUnLCAnPG91dGZpbGUubWFlPic=

> <r_lp_tautomer_probability>
1

> <r_epik_Ionization_Penalty>
0.00420552

> <r_epik_Ionization_Penalty_Charging>
0.00207255

> <r_epik_Ionization_Penalty_Neutral>
0.00213297

> <r_epik_State_Penalty>
-0

> <r_epik_Charging_Adjusted_Penalty>
0.00207255

> <i_epik_Tot_Q>
1

> <i_epik_Tot_abs_Q>
1

> <r_epik_Metal_State_Penalty>
-0

> <b_epik_Metal_Only>
0

> <s_lp_Force_Field>
OPLS_2005

> <r_lp_Energy>
18.26

> <b_lp_Chiralities_Consistent>
1

> <s_lp_Variant>
AV-unprocessed.smi:3290-2

> <Gold.Version>
5.8.1

> <Gold.Id.Protein>
6NUR|6NUR_protein|mol2

> <Gold.PLP.Fitness>
44.9814

> <Gold.PLP.PLP>
-37.6563

> <Gold.PLP.part.hbond>
-2.9761

> <Gold.PLP.part.metal>
0.0000

> <Gold.PLP.part.buried>
-3.5576

> <Gold.PLP.part.nonpolar>
-32.0587

> <Gold.PLP.part.repulsive>
0.2003

> <Gold.PLP.ligand.clash>
0.0000

> <Gold.PLP.ligand.torsion>
1.2884

> <Gold.PLP.Chemscore.Hbond>
3.2880

> <Gold.PLP.Chemscore.CHOScore>
0.0000

> <Gold.PLP.Chemscore.Metal>
0.0000

> <Gold.Chemscore.Hbonds>
donor molecule, donor type, donor heavy atom, donor atom, acceptor molecule, acceptor atom, score
      L1  H     9    34       P1  8028  2.00
      L1  H    12    38       P1  8028  1.00
      P1  H  8011  8017       L1    12  0.30

> <Gold.PLP.Chemscore.Internal.Correction>
0.0379

> <Gold.Rescore>
     Score         DG    S(hbond)    S(metal)    S(lipo)     H(rot)  DE(clash)    DE(int)     intcor
     18.77     -20.20       2.12        0.00     110.12       2.05       0.13       1.30       ----

> <Gold.Chemscore.Fitness>
18.7705

> <Gold.Chemscore.DG>
-20.2037

> <Gold.Chemscore.ZeroCoef>
-5.4800

> <Gold.Chemscore.Hbond>
2.1218

> <Gold.Chemscore.Metal>
0.0000

> <Gold.Chemscore.Lipo>
110.1236

> <Gold.Chemscore.Internal_Hbond>
0.0000

> <Gold.Chemscore.DEClash>
0.1303

> <Gold.Chemscore.DEInternal>
1.3028

> <Gold.Chemscore.Rot>
2.0498

> <Gold.Chemscore.Internal.Correction>
   9.000000E+99

> <Gold.Chemscore.Hbonds>
donor molecule, donor type, donor heavy atom, donor atom, acceptor molecule, acceptor atom, score
      L1  H     9    34       P1  8028  0.95
      L1  H    12    38       P1  8028  0.93
      P1  H  8011  8017       L1    12  0.24

> <Gold.Chemscore.Hbond.Weighted>
-7.0867

> <Gold.Chemscore.Metal.Weighted>
-0.0000

> <Gold.Chemscore.Lipo.Weighted>
-12.8845

> <Gold.Chemscore.Internal_Hbond.Weighted>
0.0000

> <Gold.Chemscore.DEClash.Weighted>
0.1303

> <Gold.Chemscore.DEInternal.Weighted>
1.3028

> <Gold.Chemscore.Rot.Weighted>
5.2475

> <Gold.Chemscore.Internal.Correction.Weighted>
   9.000000E+99

> <Gold.Protein.RotatedTorsions>
[ 6907 6896 6895 6894 ] final -156.27 input  -60.11 | X-H torsion
[ 7974 7965 7964 7962 ] final  -33.03 input  175.53 | X-H torsion
[ 8008 7997 7996 7995 ] final  -67.43 input   59.86 | X-H torsion
[ 10167 10162 10161 10158 ] final -157.23 input  -65.29 | X-H torsion
[ 10718 10713 10712 10709 ] final  -50.56 input   66.30 | X-H torsion
[ 10763 10752 10751 10750 ] final   50.74 input  -60.55 | X-H torsion
[ 11005 11000 10999 10996 ] final  -27.55 input  -57.11 | X-H torsion

> <Gold.Protein.ActiveResidues>
 VAL166  LYS551  ARG553  GLY616  TRP617  ASP618  TYR619  PRO620  LYS621  CYS622 
 ASP623  PHE694  ASN695  SER759  ASP760  ASP761  ALA762  ILE779  LEU786  VAL792 
 PHE793  MET794  SER795  GLU796  ALA797  LYS798  CYS799  TRP800  GLU811  SER814 

> <Gold.Protein.RotatedAtoms>
  151.2851  133.4191  159.2629 H   0  0  0  0  0  0  0  0  0  0  0  0  # atno 6907 bound_to 6896
  151.0326  134.9550  159.8129 H   0  0  0  0  0  0  0  0  0  0  0  0  # atno 6908 bound_to 6896
  152.5349  134.2812  159.9060 H   0  0  0  0  0  0  0  0  0  0  0  0  # atno 6909 bound_to 6896
  146.0943  140.5866  142.8850 H   0  0  0  0  0  0  0  0  0  0  0  0  # atno 7974 bound_to 7965
  154.4799  140.0893  156.7353 H   0  0  0  0  0  0  0  0  0  0  0  0  # atno 8008 bound_to 7997
  155.4497  140.3457  155.4281 H   0  0  0  0  0  0  0  0  0  0  0  0  # atno 8009 bound_to 7997
  156.1176  140.1465  156.9239 H   0  0  0  0  0  0  0  0  0  0  0  0  # atno 8010 bound_to 7997
  139.6787  143.9619  152.2325 H   0  0  0  0  0  0  0  0  0  0  0  0  # atno 10167 bound_to 10162
  156.1789  130.4150  149.9535 H   0  0  0  0  0  0  0  0  0  0  0  0  # atno 10718 bound_to 10713
  152.9784  135.5869  154.4301 H   0  0  0  0  0  0  0  0  0  0  0  0  # atno 10763 bound_to 10752
  154.3915  135.2768  155.2154 H   0  0  0  0  0  0  0  0  0  0  0  0  # atno 10764 bound_to 10752
  154.4024  135.6100  153.5959 H   0  0  0  0  0  0  0  0  0  0  0  0  # atno 10765 bound_to 10752
  140.9129  133.7449  156.0695 H   0  0  0  0  0  0  0  0  0  0  0  0  # atno 11005 bound_to 11000
  144.7383  140.4871  143.6887 LP  0  0  0  0  0  0  0  0  0  0  0  0  # atno 17320 bound_to 7965
  145.5979  139.1501  143.3145 LP  0  0  0  0  0  0  0  0  0  0  0  0  # atno 17321 bound_to 7965
  139.9403  144.6686  150.8273 LP  0  0  0  0  0  0  0  0  0  0  0  0  # atno 17342 bound_to 10162
  140.7644  143.3249  151.2539 LP  0  0  0  0  0  0  0  0  0  0  0  0  # atno 17343 bound_to 10162
  156.7312  130.9044  151.3626 LP  0  0  0  0  0  0  0  0  0  0  0  0  # atno 17370 bound_to 10713
  157.6855  130.9181  150.0375 LP  0  0  0  0  0  0  0  0  0  0  0  0  # atno 17371 bound_to 10713
  140.8087  134.3425  157.5418 LP  0  0  0  0  0  0  0  0  0  0  0  0  # atno 17394 bound_to 11000
  139.8761  134.9241  156.3341 LP  0  0  0  0  0  0  0  0  0  0  0  0  # atno 17395 bound_to 11000

$$$$
