AV-unprocessed.smi:1643|AV-procd|sdf|6581|dock2
  -GOLD-   22720 7273D 1   1.00000     0.00000
 Structure written by MMmdl.
 55 57  0  0  0  0  0  0  0  0  3 V2000
  146.6410  131.8341  153.3620 C   0  0  0  0  0  0  0  0  0  0  0  0
  146.8014  132.4878  154.7379 C   0  0  0  0  0  0  0  0  0  0  0  0
  145.8805  132.3681  155.5461 O   0  0  0  0  0  0  0  0  0  0  0  0
  147.9430  133.1633  155.0188 N   0  0  0  0  0  0  0  0  0  0  0  0
  148.1650  133.7537  156.3479 C   0  0  0  0  0  0  0  0  0  0  0  0
  147.8601  135.2623  156.3498 C   0  0  0  0  0  0  0  0  0  0  0  0
  148.2205  135.9913  155.0376 C   0  0  0  0  0  0  0  0  0  0  0  0
  149.6363  135.8213  154.6110 N   0  3  1  0  0  0  0  0  0  0  0  0
  150.5818  136.6079  155.4489 C   0  0  0  0  0  0  0  0  0  0  0  0
  150.1420  138.0729  155.6426 C   0  0  1  0  0  0  0  0  0  0  0  0
  149.3241  138.1607  156.7935 O   0  0  0  0  0  0  0  0  0  0  0  0
  151.3489  139.0180  155.8049 C   0  0  0  0  0  0  0  0  0  0  0  0
  150.9521  140.4191  155.9964 N   0  0  0  0  0  0  0  0  0  0  0  0
  150.1465  141.2144  155.2406 C   0  0  0  0  0  0  0  0  0  0  0  0
  150.1003  142.4373  155.8381 N   0  3  0  0  0  0  0  0  0  0  0  0
  150.8844  142.4218  156.9937 C   0  0  0  0  0  0  0  0  0  0  0  0
  151.1512  143.4158  157.9274 C   0  0  0  0  0  0  0  0  0  0  0  0
  152.0018  143.0778  159.0043 C   0  0  0  0  0  0  0  0  0  0  0  0
  152.3155  144.1422  160.0417 C   0  0  0  0  0  0  0  0  0  0  0  0
  152.5530  141.7750  159.1188 C   0  0  0  0  0  0  0  0  0  0  0  0
  153.4670  141.4231  160.2804 C   0  0  0  0  0  0  0  0  0  0  0  0
  152.2679  140.7771  158.1593 C   0  0  0  0  0  0  0  0  0  0  0  0
  151.4308  141.1287  157.1032 C   0  0  0  0  0  0  0  0  0  0  0  0
  150.0943  134.4183  154.3624 C   0  0  0  0  0  0  0  0  0  0  0  0
  148.9955  133.3823  154.0039 C   0  0  0  0  0  0  0  0  0  0  0  0
  147.4975  131.2033  153.1226 H   0  0  0  0  0  0  0  0  0  0  0  0
  146.5290  132.5904  152.5848 H   0  0  0  0  0  0  0  0  0  0  0  0
  145.7520  131.2024  153.3410 H   0  0  0  0  0  0  0  0  0  0  0  0
  147.5661  133.2667  157.1190 H   0  0  0  0  0  0  0  0  0  0  0  0
  149.1871  133.5681  156.6732 H   0  0  0  0  0  0  0  0  0  0  0  0
  146.7927  135.4007  156.5257 H   0  0  0  0  0  0  0  0  0  0  0  0
  148.3617  135.7325  157.1960 H   0  0  0  0  0  0  0  0  0  0  0  0
  147.5645  135.6644  154.2302 H   0  0  0  0  0  0  0  0  0  0  0  0
  148.0041  137.0547  155.1467 H   0  0  0  0  0  0  0  0  0  0  0  0
  150.6837  136.1416  156.4301 H   0  0  0  0  0  0  0  0  0  0  0  0
  151.5723  136.5715  154.9925 H   0  0  0  0  0  0  0  0  0  0  0  0
  149.5570  138.4057  154.7858 H   0  0  0  0  0  0  0  0  0  0  0  0
  148.4807  138.5056  156.5416 H   0  0  0  0  0  0  0  0  0  0  0  0
  151.9497  138.7257  156.6675 H   0  0  0  0  0  0  0  0  0  0  0  0
  152.0073  138.9651  154.9366 H   0  0  0  0  0  0  0  0  0  0  0  0
  149.6399  140.9303  154.3296 H   0  0  0  0  0  0  0  0  0  0  0  0
  150.7280  144.4055  157.8344 H   0  0  0  0  0  0  0  0  0  0  0  0
  153.3870  144.3413  160.0735 H   0  0  0  0  0  0  0  0  0  0  0  0
  151.9917  143.8204  161.0318 H   0  0  0  0  0  0  0  0  0  0  0  0
  151.8095  145.0813  159.8149 H   0  0  0  0  0  0  0  0  0  0  0  0
  153.8171  140.3923  160.2158 H   0  0  0  0  0  0  0  0  0  0  0  0
  152.9421  141.5377  161.2292 H   0  0  0  0  0  0  0  0  0  0  0  0
  154.3433  142.0717  160.2883 H   0  0  0  0  0  0  0  0  0  0  0  0
  152.6858  139.7854  158.2464 H   0  0  0  0  0  0  0  0  0  0  0  0
  150.7994  134.4553  153.5316 H   0  0  0  0  0  0  0  0  0  0  0  0
  150.6819  134.0566  155.2064 H   0  0  0  0  0  0  0  0  0  0  0  0
  149.4778  132.4246  153.8037 H   0  0  0  0  0  0  0  0  0  0  0  0
  148.5398  133.6985  153.0646 H   0  0  0  0  0  0  0  0  0  0  0  0
  149.6640  136.2661  153.7041 H   0  0  0  0  0  0  0  0  0  0  0  0
  149.5722  143.2235  155.4808 H   0  0  0  0  0  0  0  0  0  0  0  0
  1  2  1  0  0  0  0
  1 26  1  0  0  0  0
  1 27  1  0  0  0  0
  1 28  1  0  0  0  0
  2  3  2  0  0  0  0
  2  4  1  0  0  0  0
  4 25  1  0  0  0  0
  4  5  1  0  0  0  0
  5  6  1  0  0  0  0
  5 29  1  0  0  0  0
  5 30  1  0  0  0  0
  6  7  1  0  0  0  0
  6 31  1  0  0  0  0
  6 32  1  0  0  0  0
  7  8  1  0  0  0  0
  7 33  1  0  0  0  0
  7 34  1  0  0  0  0
  8  9  1  0  0  0  0
  8 24  1  0  0  0  0
  8 54  1  0  0  0  0
  9 10  1  0  0  0  0
  9 35  1  0  0  0  0
  9 36  1  0  0  0  0
 10 11  1  0  0  0  0
 10 12  1  0  0  0  0
 10 37  1  0  0  0  0
 11 38  1  0  0  0  0
 12 13  1  0  0  0  0
 12 39  1  0  0  0  0
 12 40  1  0  0  0  0
 13 23  1  0  0  0  0
 13 14  1  0  0  0  0
 14 15  2  0  0  0  0
 14 41  1  0  0  0  0
 15 16  1  0  0  0  0
 15 55  1  0  0  0  0
 16 23  2  0  0  0  0
 16 17  1  0  0  0  0
 17 18  2  0  0  0  0
 17 42  1  0  0  0  0
 18 19  1  0  0  0  0
 18 20  1  0  0  0  0
 19 43  1  0  0  0  0
 19 44  1  0  0  0  0
 19 45  1  0  0  0  0
 20 21  1  0  0  0  0
 20 22  2  0  0  0  0
 21 46  1  0  0  0  0
 21 47  1  0  0  0  0
 21 48  1  0  0  0  0
 22 23  1  0  0  0  0
 22 49  1  0  0  0  0
 24 25  1  0  0  0  0
 24 50  1  0  0  0  0
 24 51  1  0  0  0  0
 25 52  1  0  0  0  0
 25 53  1  0  0  0  0
M  CHG  1   8   1
M  CHG  1  15   1
M  END
> <s_m_source_file>
AV-unprocessed.smi

> <i_m_source_file_index>
1643

> <i_lp_mmshare_version>
43012

> <i_f3d_flags>
0

> <s_epik_input>
W0NIM11DKD1PKU4xW0NIMl1bQ0gyXVtDSDJdTihbQ0gyXVtDSDJdMSlbQ0gyXVtDQEhdKFtPSF0pW0NIMl1uKFtjSF1uMiljKGMyMylbY0hdYyhbQ0gzXSljKFtjSF0zKVtDSDNd

> <s_epik_cmdline>
J2VwaWtfcHl0aG9uJywgJy1waCcsICc3LjAnLCAnLXRuJywgJzgnLCAnLW1hJywgJzIwMCcsICctbWV0YWxfYmluZGluZycsICctaW1hZScsICc8aW5maWxlLm1hZT4nLCAnLW9tYWUnLCAnPG91dGZpbGUubWFlPic=

> <r_epik_Ionization_Penalty>
1.2865

> <r_epik_Ionization_Penalty_Charging>
1.2865

> <r_epik_Ionization_Penalty_Neutral>
2.89706e-06

> <r_epik_State_Penalty>
1.3566

> <r_epik_Charging_Adjusted_Penalty>
2.6431

> <i_epik_Tot_Q>
2

> <i_epik_Tot_abs_Q>
2

> <r_epik_Metal_State_Penalty>
5.37339

> <b_epik_Metal_Only>
0

> <s_lp_Force_Field>
OPLS_2005

> <r_lp_Energy>
56.7844

> <b_lp_Chiralities_Consistent>
1

> <s_lp_Variant>
AV-unprocessed.smi:1643-10

> <Gold.Version>
5.8.1

> <Gold.Id.Protein>
6NUR|6NUR_protein|mol2

> <Gold.PLP.Fitness>
51.2213

> <Gold.PLP.PLP>
-40.0609

> <Gold.PLP.part.hbond>
-2.0000

> <Gold.PLP.part.metal>
0.0000

> <Gold.PLP.part.buried>
-4.8970

> <Gold.PLP.part.nonpolar>
-32.9450

> <Gold.PLP.part.repulsive>
0.3188

> <Gold.PLP.ligand.clash>
0.0000

> <Gold.PLP.ligand.torsion>
0.4575

> <Gold.PLP.Chemscore.Hbond>
3.9840

> <Gold.PLP.Chemscore.CHOScore>
0.0000

> <Gold.PLP.Chemscore.Metal>
0.0000

> <Gold.Chemscore.Hbonds>
donor molecule, donor type, donor heavy atom, donor atom, acceptor molecule, acceptor atom, score
      L1  H     8    54       P1  7948  1.82
      L1  H    15    55       P1  8028  2.00

> <Gold.PLP.Chemscore.Internal.Correction>
0.1235

> <Gold.Rescore>
     Score         DG    S(hbond)    S(metal)    S(lipo)     H(rot)  DE(clash)    DE(int)     intcor
     17.37     -18.90       1.83        0.00     109.97       2.17       0.02       1.51       ----

> <Gold.Chemscore.Fitness>
17.3725

> <Gold.Chemscore.DG>
-18.9003

> <Gold.Chemscore.ZeroCoef>
-5.4800

> <Gold.Chemscore.Hbond>
1.8324

> <Gold.Chemscore.Metal>
0.0000

> <Gold.Chemscore.Lipo>
109.9706

> <Gold.Chemscore.Internal_Hbond>
0.0000

> <Gold.Chemscore.DEClash>
0.0174

> <Gold.Chemscore.DEInternal>
1.5104

> <Gold.Chemscore.Rot>
2.1744

> <Gold.Chemscore.Internal.Correction>
   9.000000E+99

> <Gold.Chemscore.Hbonds>
donor molecule, donor type, donor heavy atom, donor atom, acceptor molecule, acceptor atom, score
      L1  H     8    54       P1  7948  0.40
      L1  H    15    55       P1  8028  0.96

> <Gold.Chemscore.Hbond.Weighted>
-6.1203

> <Gold.Chemscore.Metal.Weighted>
-0.0000

> <Gold.Chemscore.Lipo.Weighted>
-12.8666

> <Gold.Chemscore.Internal_Hbond.Weighted>
0.0000

> <Gold.Chemscore.DEClash.Weighted>
0.0174

> <Gold.Chemscore.DEInternal.Weighted>
1.5104

> <Gold.Chemscore.Rot.Weighted>
5.5666

> <Gold.Chemscore.Internal.Correction.Weighted>
   9.000000E+99

> <Gold.Protein.RotatedTorsions>
[ 6907 6896 6895 6894 ] final -156.86 input  -60.11 | X-H torsion
[ 7974 7965 7964 7962 ] final  -25.94 input  175.53 | X-H torsion
[ 8008 7997 7996 7995 ] final  -21.69 input   59.86 | X-H torsion
[ 10167 10162 10161 10158 ] final  -39.61 input  -65.29 | X-H torsion
[ 10718 10713 10712 10709 ] final  170.22 input   66.30 | X-H torsion
[ 10763 10752 10751 10750 ] final  100.03 input  -60.55 | X-H torsion
[ 11005 11000 10999 10996 ] final   -0.68 input  -57.11 | X-H torsion

> <Gold.Protein.ActiveResidues>
 VAL166  LYS551  ARG553  GLY616  TRP617  ASP618  TYR619  PRO620  LYS621  CYS622 
 ASP623  PHE694  ASN695  SER759  ASP760  ASP761  ALA762  ILE779  LEU786  VAL792 
 PHE793  MET794  SER795  GLU796  ALA797  LYS798  CYS799  TRP800  GLU811  SER814 

> <Gold.Protein.RotatedAtoms>
  151.2940  133.4152  159.2634 H   0  0  0  0  0  0  0  0  0  0  0  0  # atno 6907 bound_to 6896
  151.0253  134.9500  159.8092 H   0  0  0  0  0  0  0  0  0  0  0  0  # atno 6908 bound_to 6896
  152.5333  134.2902  159.9092 H   0  0  0  0  0  0  0  0  0  0  0  0  # atno 6909 bound_to 6896
  146.1458  140.4954  142.8632 H   0  0  0  0  0  0  0  0  0  0  0  0  # atno 7974 bound_to 7965
  154.4690  140.2028  156.0044 H   0  0  0  0  0  0  0  0  0  0  0  0  # atno 8008 bound_to 7997
  156.0977  140.3248  155.7871 H   0  0  0  0  0  0  0  0  0  0  0  0  # atno 8009 bound_to 7997
  155.4850  140.0541  157.2952 H   0  0  0  0  0  0  0  0  0  0  0  0  # atno 8010 bound_to 7997
  140.7059  143.3203  151.2807 H   0  0  0  0  0  0  0  0  0  0  0  0  # atno 10167 bound_to 10162
  157.0113  131.0205  151.2802 H   0  0  0  0  0  0  0  0  0  0  0  0  # atno 10718 bound_to 10713
  153.3088  135.4093  155.1317 H   0  0  0  0  0  0  0  0  0  0  0  0  # atno 10763 bound_to 10752
  154.8570  135.3559  154.5752 H   0  0  0  0  0  0  0  0  0  0  0  0  # atno 10764 bound_to 10752
  153.6180  135.7065  153.5380 H   0  0  0  0  0  0  0  0  0  0  0  0  # atno 10765 bound_to 10752
  140.6390  133.9507  155.8315 H   0  0  0  0  0  0  0  0  0  0  0  0  # atno 11005 bound_to 11000
  144.7845  140.5908  143.6583 LP  0  0  0  0  0  0  0  0  0  0  0  0  # atno 17320 bound_to 7965
  145.4941  139.1487  143.3693 LP  0  0  0  0  0  0  0  0  0  0  0  0  # atno 17321 bound_to 7965
  139.6655  144.0112  152.2720 LP  0  0  0  0  0  0  0  0  0  0  0  0  # atno 17342 bound_to 10162
  139.9694  144.6504  150.8004 LP  0  0  0  0  0  0  0  0  0  0  0  0  # atno 17343 bound_to 10162
  157.5318  130.8063  149.7926 LP  0  0  0  0  0  0  0  0  0  0  0  0  # atno 17370 bound_to 10713
  156.0135  130.3823  150.2186 LP  0  0  0  0  0  0  0  0  0  0  0  0  # atno 17371 bound_to 10713
  141.0621  134.0331  157.3645 LP  0  0  0  0  0  0  0  0  0  0  0  0  # atno 17394 bound_to 11000
  139.9087  135.0185  156.7600 LP  0  0  0  0  0  0  0  0  0  0  0  0  # atno 17395 bound_to 11000

$$$$
