AV-unprocessed.smi:2734|AV-procd|sdf|10539|dock2
  -GOLD-   2272014583D 1   1.00000     0.00000
 Structure written by MMmdl.
 41 43  0  0  0  0  0  0  0  0  2 V2000
  152.0337  144.8336  160.3122 C   0  0  0  0  0  0  0  0  0  0  0  0
  151.9057  143.6778  159.3345 C   0  0  0  0  0  0  0  0  0  0  0  0
  151.0421  143.8258  158.2255 C   0  0  0  0  0  0  0  0  0  0  0  0
  150.9488  142.7532  157.3468 C   0  0  0  0  0  0  0  0  0  0  0  0
  150.2016  142.5885  156.1782 N   0  3  0  0  0  0  0  0  0  0  0  0
  150.4442  141.3553  155.6537 C   0  0  0  0  0  0  0  0  0  0  0  0
  151.3351  140.7310  156.4709 N   0  0  0  0  0  0  0  0  0  0  0  0
  151.9385  139.3962  156.3655 C   0  0  0  0  0  0  0  0  0  0  0  0
  150.8926  138.2646  156.3978 C   0  0  2  0  0  0  0  0  0  0  0  0
  150.9611  137.5961  157.6431 O   0  0  0  0  0  0  0  0  0  0  0  0
  151.1083  137.2501  155.2639 C   0  0  0  0  0  0  0  0  0  0  0  0
  150.1339  135.7339  155.5118 S   0  0  0  0  0  0  0  0  0  0  0  0
  151.3268  134.7423  156.3568 C   0  0  0  0  0  0  0  0  0  0  0  0
  152.5233  135.1313  156.7826 N   0  0  0  0  0  0  0  0  0  0  0  0
  153.0546  133.9984  157.3692 N   0  0  0  0  0  0  0  0  0  0  0  0
  152.2266  132.9972  157.2964 N   0  0  0  0  0  0  0  0  0  0  0  0
  151.1229  133.4532  156.6558 N   0  0  0  0  0  0  0  0  0  0  0  0
  149.9899  132.5849  156.4052 C   0  0  0  0  0  0  0  0  0  0  0  0
  151.6770  141.5636  157.5408 C   0  0  0  0  0  0  0  0  0  0  0  0
  152.5307  141.3996  158.6286 C   0  0  0  0  0  0  0  0  0  0  0  0
  152.6389  142.4791  159.5346 C   0  0  0  0  0  0  0  0  0  0  0  0
  153.5633  142.3302  160.7310 C   0  0  0  0  0  0  0  0  0  0  0  0
  151.4548  145.6983  159.9861 H   0  0  0  0  0  0  0  0  0  0  0  0
  153.0741  145.1463  160.4040 H   0  0  0  0  0  0  0  0  0  0  0  0
  151.6707  144.5416  161.2978 H   0  0  0  0  0  0  0  0  0  0  0  0
  150.4803  144.7348  158.0675 H   0  0  0  0  0  0  0  0  0  0  0  0
  150.0139  140.9483  154.7498 H   0  0  0  0  0  0  0  0  0  0  0  0
  152.5316  139.3567  155.4510 H   0  0  0  0  0  0  0  0  0  0  0  0
  152.6397  139.2877  157.1943 H   0  0  0  0  0  0  0  0  0  0  0  0
  149.8952  138.6953  156.3025 H   0  0  0  0  0  0  0  0  0  0  0  0
  151.8570  137.3331  157.7921 H   0  0  0  0  0  0  0  0  0  0  0  0
  150.8107  137.6959  154.3142 H   0  0  0  0  0  0  0  0  0  0  0  0
  152.1655  136.9935  155.1819 H   0  0  0  0  0  0  0  0  0  0  0  0
  149.7804  132.5554  155.3358 H   0  0  0  0  0  0  0  0  0  0  0  0
  149.1139  132.9665  156.9301 H   0  0  0  0  0  0  0  0  0  0  0  0
  150.1985  131.5721  156.7527 H   0  0  0  0  0  0  0  0  0  0  0  0
  153.0906  140.4882  158.7774 H   0  0  0  0  0  0  0  0  0  0  0  0
  153.9856  141.3263  160.7861 H   0  0  0  0  0  0  0  0  0  0  0  0
  153.0243  142.5137  161.6607 H   0  0  0  0  0  0  0  0  0  0  0  0
  154.3904  143.0376  160.6637 H   0  0  0  0  0  0  0  0  0  0  0  0
  149.5743  143.2665  155.7647 H   0  0  0  0  0  0  0  0  0  0  0  0
  1  2  1  0  0  0  0
  1 23  1  0  0  0  0
  1 24  1  0  0  0  0
  1 25  1  0  0  0  0
  2 21  1  0  0  0  0
  2  3  2  0  0  0  0
  3  4  1  0  0  0  0
  3 26  1  0  0  0  0
  4 19  2  0  0  0  0
  4  5  1  0  0  0  0
  5  6  2  0  0  0  0
  5 41  1  0  0  0  0
  6  7  1  0  0  0  0
  6 27  1  0  0  0  0
  7  8  1  0  0  0  0
  7 19  1  0  0  0  0
  8  9  1  0  0  0  0
  8 28  1  0  0  0  0
  8 29  1  0  0  0  0
  9 10  1  0  0  0  0
  9 11  1  0  0  0  0
  9 30  1  0  0  0  0
 10 31  1  0  0  0  0
 11 12  1  0  0  0  0
 11 32  1  0  0  0  0
 11 33  1  0  0  0  0
 12 13  1  0  0  0  0
 13 17  1  0  0  0  0
 13 14  2  0  0  0  0
 14 15  1  0  0  0  0
 15 16  2  0  0  0  0
 16 17  1  0  0  0  0
 17 18  1  0  0  0  0
 18 34  1  0  0  0  0
 18 35  1  0  0  0  0
 18 36  1  0  0  0  0
 19 20  1  0  0  0  0
 20 21  2  0  0  0  0
 20 37  1  0  0  0  0
 21 22  1  0  0  0  0
 22 38  1  0  0  0  0
 22 39  1  0  0  0  0
 22 40  1  0  0  0  0
M  CHG  1   5   1
M  END
> <s_m_source_file>
AV-unprocessed.smi

> <i_m_source_file_index>
2734

> <i_lp_mmshare_version>
43012

> <i_f3d_flags>
0

> <s_epik_input>
W0NIM11jKFtjSF0xKWMoW0NIM10pW2NIXWMoYzEyKW4oW2NIXW4yKVtDSDJdW0NASF0oW09IXSlbQ0gyXVNjM25ubm4zW0NIM10=

> <s_epik_cmdline>
J2VwaWtfcHl0aG9uJywgJy1waCcsICc3LjAnLCAnLXRuJywgJzgnLCAnLW1hJywgJzIwMCcsICctbWV0YWxfYmluZGluZycsICctaW1hZScsICc8aW5maWxlLm1hZT4nLCAnLW9tYWUnLCAnPG91dGZpbGUubWFlPic=

> <r_lp_tautomer_probability>
1

> <r_epik_Ionization_Penalty>
1.07429

> <r_epik_Ionization_Penalty_Charging>
1.07429

> <r_epik_Ionization_Penalty_Neutral>
3.30514e-06

> <r_epik_State_Penalty>
1.12915

> <r_epik_Charging_Adjusted_Penalty>
2.20344

> <i_epik_Tot_Q>
1

> <i_epik_Tot_abs_Q>
1

> <r_epik_Metal_State_Penalty>
1.22002

> <b_epik_Metal_Only>
0

> <s_lp_Force_Field>
OPLS_2005

> <r_lp_Energy>
14.6731

> <b_lp_Chiralities_Consistent>
1

> <s_lp_Variant>
AV-unprocessed.smi:2734-3

> <Gold.Version>
5.8.1

> <Gold.Id.Protein>
6NUR|6NUR_protein|mol2

> <Gold.PLP.Fitness>
51.4956

> <Gold.PLP.PLP>
-43.4380

> <Gold.PLP.part.hbond>
-4.0000

> <Gold.PLP.part.metal>
0.0000

> <Gold.PLP.part.buried>
-4.9136

> <Gold.PLP.part.nonpolar>
-34.5783

> <Gold.PLP.part.repulsive>
0.1124

> <Gold.PLP.ligand.clash>
0.0000

> <Gold.PLP.ligand.torsion>
1.0283

> <Gold.PLP.Chemscore.Hbond>
3.3528

> <Gold.PLP.Chemscore.CHOScore>
0.0000

> <Gold.PLP.Chemscore.Metal>
0.0000

> <Gold.Chemscore.Hbonds>
donor molecule, donor type, donor heavy atom, donor atom, acceptor molecule, acceptor atom, score
      L1  H     5    41       P1  8028  2.00
      P1  H  6896  6909       L1    16  0.34
      P1  H 10752 10765       L1    14  1.00

> <Gold.PLP.Chemscore.Internal.Correction>
0.0558

> <Gold.Rescore>
     Score         DG    S(hbond)    S(metal)    S(lipo)     H(rot)  DE(clash)    DE(int)     intcor
     15.10     -16.08       1.77        0.00     104.01       2.92       0.00       0.98       ----

> <Gold.Chemscore.Fitness>
15.1024

> <Gold.Chemscore.DG>
-16.0838

> <Gold.Chemscore.ZeroCoef>
-5.4800

> <Gold.Chemscore.Hbond>
1.7667

> <Gold.Chemscore.Metal>
0.0000

> <Gold.Chemscore.Lipo>
104.0072

> <Gold.Chemscore.Internal_Hbond>
0.0000

> <Gold.Chemscore.DEClash>
0.0000

> <Gold.Chemscore.DEInternal>
0.9814

> <Gold.Chemscore.Rot>
2.9164

> <Gold.Chemscore.Internal.Correction>
   9.000000E+99

> <Gold.Chemscore.Hbonds>
donor molecule, donor type, donor heavy atom, donor atom, acceptor molecule, acceptor atom, score
      L1  H     5    41       P1  8028  0.97
      P1  H 10752 10765       L1    14  0.22

> <Gold.Chemscore.Hbond.Weighted>
-5.9009

> <Gold.Chemscore.Metal.Weighted>
-0.0000

> <Gold.Chemscore.Lipo.Weighted>
-12.1688

> <Gold.Chemscore.Internal_Hbond.Weighted>
0.0000

> <Gold.Chemscore.DEClash.Weighted>
0.0000

> <Gold.Chemscore.DEInternal.Weighted>
0.9814

> <Gold.Chemscore.Rot.Weighted>
7.4660

> <Gold.Chemscore.Internal.Correction.Weighted>
   9.000000E+99

> <Gold.Protein.RotatedTorsions>
[ 6907 6896 6895 6894 ] final  -52.86 input  -60.11 | X-H torsion
[ 7974 7965 7964 7962 ] final -119.86 input  175.53 | X-H torsion
[ 8008 7997 7996 7995 ] final -140.17 input   59.86 | X-H torsion
[ 10167 10162 10161 10158 ] final -164.42 input  -65.29 | X-H torsion
[ 10718 10713 10712 10709 ] final -175.99 input   66.30 | X-H torsion
[ 10763 10752 10751 10750 ] final -127.17 input  -60.55 | X-H torsion
[ 11005 11000 10999 10996 ] final -119.23 input  -57.11 | X-H torsion

> <Gold.Protein.ActiveResidues>
 VAL166  LYS551  ARG553  GLY616  TRP617  ASP618  TYR619  PRO620  LYS621  CYS622 
 ASP623  PHE694  ASN695  SER759  ASP760  ASP761  ALA762  ILE779  LEU786  VAL792 
 PHE793  MET794  SER795  GLU796  ALA797  LYS798  CYS799  TRP800  GLU811  SER814 

> <Gold.Protein.RotatedAtoms>
  150.8480  134.7795  159.6985 H   0  0  0  0  0  0  0  0  0  0  0  0  # atno 6907 bound_to 6896
  152.4552  134.5305  159.9819 H   0  0  0  0  0  0  0  0  0  0  0  0  # atno 6908 bound_to 6896
  151.5431  133.3391  159.2975 H   0  0  0  0  0  0  0  0  0  0  0  0  # atno 6909 bound_to 6896
  145.0578  140.8267  143.4171 H   0  0  0  0  0  0  0  0  0  0  0  0  # atno 7974 bound_to 7965
  155.4570  140.0543  157.2995 H   0  0  0  0  0  0  0  0  0  0  0  0  # atno 8008 bound_to 7997
  154.4753  140.2058  155.9848 H   0  0  0  0  0  0  0  0  0  0  0  0  # atno 8009 bound_to 7997
  156.1122  140.3202  155.8093 H   0  0  0  0  0  0  0  0  0  0  0  0  # atno 8010 bound_to 7997
  139.6252  144.0547  152.1968 H   0  0  0  0  0  0  0  0  0  0  0  0  # atno 10167 bound_to 10162
  156.8080  130.9576  151.3117 H   0  0  0  0  0  0  0  0  0  0  0  0  # atno 10718 bound_to 10713
  154.8751  135.3971  154.3550 H   0  0  0  0  0  0  0  0  0  0  0  0  # atno 10763 bound_to 10752
  153.4330  135.7025  153.6223 H   0  0  0  0  0  0  0  0  0  0  0  0  # atno 10764 bound_to 10752
  153.4837  135.3763  155.2425 H   0  0  0  0  0  0  0  0  0  0  0  0  # atno 10765 bound_to 10752
  141.0230  134.0095  157.3255 H   0  0  0  0  0  0  0  0  0  0  0  0  # atno 11005 bound_to 11000
  145.1447  139.2551  143.5472 LP  0  0  0  0  0  0  0  0  0  0  0  0  # atno 17320 bound_to 7965
  146.3522  140.1133  142.8603 LP  0  0  0  0  0  0  0  0  0  0  0  0  # atno 17321 bound_to 7965
  140.0198  144.6161  150.7576 LP  0  0  0  0  0  0  0  0  0  0  0  0  # atno 17342 bound_to 10162
  140.7406  143.2807  151.3607 LP  0  0  0  0  0  0  0  0  0  0  0  0  # atno 17343 bound_to 10162
  157.6520  130.8893  149.9653 LP  0  0  0  0  0  0  0  0  0  0  0  0  # atno 17370 bound_to 10713
  156.1061  130.3652  150.0130 LP  0  0  0  0  0  0  0  0  0  0  0  0  # atno 17371 bound_to 10713
  139.9158  135.0196  156.7875 LP  0  0  0  0  0  0  0  0  0  0  0  0  # atno 17394 bound_to 11000
  140.6540  133.9706  155.7770 LP  0  0  0  0  0  0  0  0  0  0  0  0  # atno 17395 bound_to 11000

$$$$
