AV-unprocessed.smi:1645|AV-procd|sdf|6621|dock3
  -GOLD-   22720 7323D 1   1.00000     0.00000
 Structure written by MMmdl.
 55 58  0  0  0  0  0  0  0  0  4 V2000
  150.2932  134.8443  156.2788 O   0  0  0  0  0  0  0  0  0  0  0  0
  150.1048  135.0960  155.0832 C   0  0  0  0  0  0  0  0  0  0  0  0
  150.1787  136.3620  154.6355 N   0  0  0  0  0  0  0  0  0  0  0  0
  150.5310  137.5424  155.3433 C   0  0  0  0  0  0  0  0  0  0  0  0
  150.8481  138.6922  154.5926 C   0  0  0  0  0  0  0  0  0  0  0  0
  151.2257  139.8792  155.2532 C   0  0  0  0  0  0  0  0  0  0  0  0
  151.2986  139.9073  156.6691 C   0  0  0  0  0  0  0  0  0  0  0  0
  151.6620  141.0496  157.4180 N   0  0  0  0  0  0  0  0  0  0  0  0
  152.0910  140.8506  158.8037 C   0  0  0  0  0  0  0  0  0  0  0  0
  152.8295  142.0853  159.3489 C   0  0  0  0  0  0  0  0  0  0  0  0
  151.9963  143.3598  159.1600 C   0  0  0  0  0  0  0  0  0  0  0  0
  151.6180  143.5190  157.6809 C   0  0  0  0  0  0  0  0  0  0  0  0
  150.8907  142.2692  157.1566 C   0  0  0  0  0  0  0  0  0  0  0  0
  150.9987  138.7711  157.3441 N   0  3  0  0  0  0  0  0  0  0  0  0
  150.6307  137.6145  156.7522 C   0  0  0  0  0  0  0  0  0  0  0  0
  149.7886  134.2202  154.0918 N   0  5  0  0  0  0  0  0  0  0  0  0
  148.7334  133.2079  154.1774 C   0  0  1  0  0  0  0  0  0  0  0  0
  147.5885  133.5011  153.2050 C   0  0  0  0  0  0  0  0  0  0  0  0
  146.9743  132.1221  152.9666 C   0  0  0  0  0  0  0  0  0  0  0  0
  148.1193  131.1873  152.9762 N   0  3  2  0  0  0  0  0  0  0  0  0
  147.7825  129.7927  153.3578 C   0  0  0  0  0  0  0  0  0  0  0  0
  149.0560  128.9321  153.4237 C   0  0  0  0  0  0  0  0  0  0  0  0
  150.1122  129.5044  154.3923 C   0  0  0  0  0  0  0  0  0  0  0  0
  149.7602  130.9186  154.8887 C   0  0  0  0  0  0  0  0  0  0  0  0
  149.2395  131.8152  153.7353 C   0  0  2  0  0  0  0  0  0  0  0  0
  149.9051  136.4960  153.6731 H   0  0  0  0  0  0  0  0  0  0  0  0
  150.7992  138.6693  153.5135 H   0  0  0  0  0  0  0  0  0  0  0  0
  151.4648  140.7447  154.6542 H   0  0  0  0  0  0  0  0  0  0  0  0
  151.2172  140.6331  159.4195 H   0  0  0  0  0  0  0  0  0  0  0  0
  152.7611  139.9933  158.8725 H   0  0  0  0  0  0  0  0  0  0  0  0
  153.0631  141.9441  160.4044 H   0  0  0  0  0  0  0  0  0  0  0  0
  153.7844  142.1956  158.8331 H   0  0  0  0  0  0  0  0  0  0  0  0
  151.0939  143.3059  159.7701 H   0  0  0  0  0  0  0  0  0  0  0  0
  152.5559  144.2307  159.5029 H   0  0  0  0  0  0  0  0  0  0  0  0
  150.9877  144.3988  157.5487 H   0  0  0  0  0  0  0  0  0  0  0  0
  152.5188  143.6921  157.0902 H   0  0  0  0  0  0  0  0  0  0  0  0
  150.6978  142.4051  156.0925 H   0  0  0  0  0  0  0  0  0  0  0  0
  149.9184  142.1750  157.6421 H   0  0  0  0  0  0  0  0  0  0  0  0
  150.4450  136.7945  157.4296 H   0  0  0  0  0  0  0  0  0  0  0  0
  148.3099  133.1198  155.1795 H   0  0  0  0  0  0  0  0  0  0  0  0
  146.8702  134.2190  153.6022 H   0  0  0  0  0  0  0  0  0  0  0  0
  147.9725  133.8964  152.2629 H   0  0  0  0  0  0  0  0  0  0  0  0
  146.2687  131.8721  153.7634 H   0  0  0  0  0  0  0  0  0  0  0  0
  146.4319  132.0691  152.0220 H   0  0  0  0  0  0  0  0  0  0  0  0
  147.2730  129.7812  154.3226 H   0  0  0  0  0  0  0  0  0  0  0  0
  147.0853  129.3799  152.6282 H   0  0  0  0  0  0  0  0  0  0  0  0
  148.8028  127.9107  153.7097 H   0  0  0  0  0  0  0  0  0  0  0  0
  149.4877  128.8659  152.4241 H   0  0  0  0  0  0  0  0  0  0  0  0
  150.2310  128.8425  155.2507 H   0  0  0  0  0  0  0  0  0  0  0  0
  151.0809  129.5233  153.8918 H   0  0  0  0  0  0  0  0  0  0  0  0
  149.0083  130.8275  155.6759 H   0  0  0  0  0  0  0  0  0  0  0  0
  150.6376  131.3637  155.3617 H   0  0  0  0  0  0  0  0  0  0  0  0
  150.0441  131.9344  153.0072 H   0  0  0  0  0  0  0  0  0  0  0  0
  148.4503  131.1489  152.0230 H   0  0  0  0  0  0  0  0  0  0  0  0
  151.0540  138.7880  158.3624 H   0  0  0  0  0  0  0  0  0  0  0  0
  1  2  2  0  0  0  0
  2  3  1  0  0  0  0
  2 16  1  0  0  0  0
  3  4  1  0  0  0  0
  3 26  1  0  0  0  0
  4 15  1  0  0  0  0
  4  5  2  0  0  0  0
  5  6  1  0  0  0  0
  5 27  1  0  0  0  0
  6  7  2  0  0  0  0
  6 28  1  0  0  0  0
  7  8  1  0  0  0  0
  7 14  1  0  0  0  0
  8 13  1  0  0  0  0
  8  9  1  0  0  0  0
  9 10  1  0  0  0  0
  9 29  1  0  0  0  0
  9 30  1  0  0  0  0
 10 11  1  0  0  0  0
 10 31  1  0  0  0  0
 10 32  1  0  0  0  0
 11 12  1  0  0  0  0
 11 33  1  0  0  0  0
 11 34  1  0  0  0  0
 12 13  1  0  0  0  0
 12 35  1  0  0  0  0
 12 36  1  0  0  0  0
 13 37  1  0  0  0  0
 13 38  1  0  0  0  0
 14 15  2  0  0  0  0
 14 55  1  0  0  0  0
 15 39  1  0  0  0  0
 16 17  1  0  0  0  0
 17 25  1  0  0  0  0
 17 18  1  0  0  0  0
 17 40  1  0  0  0  0
 18 19  1  0  0  0  0
 18 41  1  0  0  0  0
 18 42  1  0  0  0  0
 19 20  1  0  0  0  0
 19 43  1  0  0  0  0
 19 44  1  0  0  0  0
 20 25  1  0  0  0  0
 20 21  1  0  0  0  0
 20 54  1  0  0  0  0
 21 22  1  0  0  0  0
 21 45  1  0  0  0  0
 21 46  1  0  0  0  0
 22 23  1  0  0  0  0
 22 47  1  0  0  0  0
 22 48  1  0  0  0  0
 23 24  1  0  0  0  0
 23 49  1  0  0  0  0
 23 50  1  0  0  0  0
 24 25  1  0  0  0  0
 24 51  1  0  0  0  0
 24 52  1  0  0  0  0
 25 53  1  0  0  0  0
M  CHG  1  14   1
M  CHG  1  16  -1
M  CHG  1  20   1
M  END
> <s_m_source_file>
AV-unprocessed.smi

> <i_m_source_file_index>
1645

> <i_lp_mmshare_version>
43012

> <i_f3d_flags>
0

> <s_epik_input>
W0NIMl0xW0NIMl1bQ0gyXVtDSDJdW0NASF0oTjEyKVtDQEBIXShbQ0gyXVtDSDJdMilbTkhdQyg9TylbTkhdYzNbY0hdW2NIXWMobltjSF0zKU40W0NIMl1bQ0gyXVtDSDJdW0NIMl1bQ0gyXTQ=

> <s_epik_cmdline>
J2VwaWtfcHl0aG9uJywgJy1waCcsICc3LjAnLCAnLXRuJywgJzgnLCAnLW1hJywgJzIwMCcsICctbWV0YWxfYmluZGluZycsICctaW1hZScsICc8aW5maWxlLm1hZT4nLCAnLW9tYWUnLCAnPG91dGZpbGUubWFlPic=

> <r_lp_tautomer_probability>
0.999994

> <r_epik_Ionization_Penalty>
8.55589

> <r_epik_Ionization_Penalty_Charging>
8.55589

> <r_epik_Ionization_Penalty_Neutral>
3.8092e-06

> <r_epik_State_Penalty>
8.15703

> <r_epik_Charging_Adjusted_Penalty>
16.7129

> <i_epik_Tot_Q>
1

> <i_epik_Tot_abs_Q>
3

> <r_epik_Metal_State_Penalty>
4.13781

> <b_epik_Metal_Only>
1

> <s_lp_Force_Field>
OPLS_2005

> <r_lp_Energy>
56.4964

> <b_lp_Chiralities_Consistent>
1

> <s_lp_Variant>
AV-unprocessed.smi:1645-22

> <Gold.Version>
5.8.1

> <Gold.Id.Protein>
6NUR|6NUR_protein|mol2

> <Gold.PLP.Fitness>
49.0852

> <Gold.PLP.PLP>
-44.1833

> <Gold.PLP.part.hbond>
-2.0677

> <Gold.PLP.part.metal>
0.0000

> <Gold.PLP.part.buried>
-4.5409

> <Gold.PLP.part.nonpolar>
-38.6503

> <Gold.PLP.part.repulsive>
0.6357

> <Gold.PLP.ligand.clash>
0.0000

> <Gold.PLP.ligand.torsion>
0.8293

> <Gold.PLP.Chemscore.Hbond>
2.0000

> <Gold.PLP.Chemscore.CHOScore>
0.0000

> <Gold.PLP.Chemscore.Metal>
0.0000

> <Gold.Chemscore.Hbonds>
donor molecule, donor type, donor heavy atom, donor atom, acceptor molecule, acceptor atom, score
      L1  H     3    26       P1  7948  1.00
      L1  H    20    54       P1 10747  1.00

> <Gold.PLP.Chemscore.Internal.Correction>
0.5605

> <Gold.Rescore>
     Score         DG    S(hbond)    S(metal)    S(lipo)     H(rot)  DE(clash)    DE(int)     intcor
     18.47     -20.68       1.62        0.00     109.44       1.17       0.03       2.18       ----

> <Gold.Chemscore.Fitness>
18.4712

> <Gold.Chemscore.DG>
-20.6801

> <Gold.Chemscore.ZeroCoef>
-5.4800

> <Gold.Chemscore.Hbond>
1.6166

> <Gold.Chemscore.Metal>
0.0000

> <Gold.Chemscore.Lipo>
109.4353

> <Gold.Chemscore.Internal_Hbond>
0.0000

> <Gold.Chemscore.DEClash>
0.0324

> <Gold.Chemscore.DEInternal>
2.1765

> <Gold.Chemscore.Rot>
1.1731

> <Gold.Chemscore.Internal.Correction>
   9.000000E+99

> <Gold.Chemscore.Hbonds>
donor molecule, donor type, donor heavy atom, donor atom, acceptor molecule, acceptor atom, score
      L1  H     3    26       P1  7948  0.24
      L1  H    20    54       P1 10747  0.99

> <Gold.Chemscore.Hbond.Weighted>
-5.3994

> <Gold.Chemscore.Metal.Weighted>
-0.0000

> <Gold.Chemscore.Lipo.Weighted>
-12.8039

> <Gold.Chemscore.Internal_Hbond.Weighted>
0.0000

> <Gold.Chemscore.DEClash.Weighted>
0.0324

> <Gold.Chemscore.DEInternal.Weighted>
2.1765

> <Gold.Chemscore.Rot.Weighted>
3.0032

> <Gold.Chemscore.Internal.Correction.Weighted>
   9.000000E+99

> <Gold.Protein.RotatedTorsions>
[ 6907 6896 6895 6894 ] final -116.16 input  -60.11 | X-H torsion
[ 7974 7965 7964 7962 ] final    7.01 input  175.53 | X-H torsion
[ 8008 7997 7996 7995 ] final -101.28 input   59.86 | X-H torsion
[ 10167 10162 10161 10158 ] final -106.01 input  -65.29 | X-H torsion
[ 10718 10713 10712 10709 ] final  -22.81 input   66.30 | X-H torsion
[ 10763 10752 10751 10750 ] final -132.27 input  -60.55 | X-H torsion
[ 11005 11000 10999 10996 ] final   11.92 input  -57.11 | X-H torsion

> <Gold.Protein.ActiveResidues>
 VAL166  LYS551  ARG553  GLY616  TRP617  ASP618  TYR619  PRO620  LYS621  CYS622 
 ASP623  PHE694  ASN695  SER759  ASP760  ASP761  ALA762  ILE779  LEU786  VAL792 
 PHE793  MET794  SER795  GLU796  ALA797  LYS798  CYS799  TRP800  GLU811  SER814 

> <Gold.Protein.RotatedAtoms>
  150.8034  133.8555  159.3217 H   0  0  0  0  0  0  0  0  0  0  0  0  # atno 6907 bound_to 6896
  151.6361  135.1016  160.0141 H   0  0  0  0  0  0  0  0  0  0  0  0  # atno 6908 bound_to 6896
  152.4123  133.6944  159.6444 H   0  0  0  0  0  0  0  0  0  0  0  0  # atno 6909 bound_to 6896
  146.2430  140.0148  142.8403 H   0  0  0  0  0  0  0  0  0  0  0  0  # atno 7974 bound_to 7965
  154.8404  140.0435  157.1537 H   0  0  0  0  0  0  0  0  0  0  0  0  # atno 8008 bound_to 7997
  154.9053  140.3006  155.5275 H   0  0  0  0  0  0  0  0  0  0  0  0  # atno 8009 bound_to 7997
  156.2992  140.2368  156.4086 H   0  0  0  0  0  0  0  0  0  0  0  0  # atno 8010 bound_to 7997
  140.1923  143.3882  152.1196 H   0  0  0  0  0  0  0  0  0  0  0  0  # atno 10167 bound_to 10162
  156.4995  130.4585  149.6709 H   0  0  0  0  0  0  0  0  0  0  0  0  # atno 10718 bound_to 10713
  154.8744  135.3803  154.4382 H   0  0  0  0  0  0  0  0  0  0  0  0  # atno 10763 bound_to 10752
  153.5069  135.7030  153.5806 H   0  0  0  0  0  0  0  0  0  0  0  0  # atno 10764 bound_to 10752
  153.4113  135.3924  155.2018 H   0  0  0  0  0  0  0  0  0  0  0  0  # atno 10765 bound_to 10752
  140.4978  134.0776  155.7786 H   0  0  0  0  0  0  0  0  0  0  0  0  # atno 11005 bound_to 11000
  145.1295  140.9509  143.4553 LP  0  0  0  0  0  0  0  0  0  0  0  0  # atno 17320 bound_to 7965
  145.0402  139.3266  143.5980 LP  0  0  0  0  0  0  0  0  0  0  0  0  # atno 17321 bound_to 7965
  139.5251  144.7091  151.5261 LP  0  0  0  0  0  0  0  0  0  0  0  0  # atno 17342 bound_to 10162
  140.6447  143.8818  150.6725 LP  0  0  0  0  0  0  0  0  0  0  0  0  # atno 17343 bound_to 10162
  156.3347  130.7350  151.2285 LP  0  0  0  0  0  0  0  0  0  0  0  0  # atno 17370 bound_to 10713
  157.7464  131.0420  150.4674 LP  0  0  0  0  0  0  0  0  0  0  0  0  # atno 17371 bound_to 10713
  141.1451  133.9069  157.2235 LP  0  0  0  0  0  0  0  0  0  0  0  0  # atno 17394 bound_to 11000
  139.9731  135.0122  156.9562 LP  0  0  0  0  0  0  0  0  0  0  0  0  # atno 17395 bound_to 11000

$$$$
