AV-unprocessed.smi:177|AV-procd|sdf|1441|dock2
  -GOLD-   2262019223D 1   1.00000     0.00000
 Structure written by MMmdl.
 61 65  0  0  0  0  0  0  0  0  1 V2000
  153.2344  138.8625  159.7551 C   0  0  0  0  0  0  0  0  0  0  0  0
  153.5392  139.0405  158.3804 O   0  0  0  0  0  0  0  0  0  0  0  0
  152.3989  139.1247  157.5356 C   0  0  2  0  0  0  0  0  0  0  0  0
  152.8202  139.3188  156.0650 C   0  0  0  0  0  0  0  0  0  0  0  0
  151.6029  139.5472  155.1553 C   0  0  0  0  0  0  0  0  0  0  0  0
  150.7735  140.7545  155.6363 C   0  0  1  0  0  0  0  0  0  0  0  0
  149.6638  141.0424  154.7834 O   0  0  0  0  0  0  0  0  0  0  0  0
  148.5608  140.1522  154.9160 C   0  0  0  0  0  0  0  0  0  0  0  0
  148.0557  140.1653  156.3688 C   0  0  0  0  0  0  0  0  0  0  0  0
  149.1321  139.8310  157.2941 N   0  0  0  0  0  0  0  0  0  0  0  0
  149.2125  138.5361  157.6836 C   0  0  0  0  0  0  0  0  0  0  0  0
  149.5427  138.2330  158.9657 N   0  0  0  0  0  0  0  0  0  0  0  0
  149.5956  136.9588  159.3624 C   0  0  0  0  0  0  0  0  0  0  0  0
  149.3726  135.8542  158.6486 N   0  0  0  0  0  0  0  0  0  0  0  0
  149.0757  136.1518  157.3514 C   0  0  0  0  0  0  0  0  0  0  0  0
  148.9759  137.4559  156.7906 C   0  0  0  0  0  0  0  0  0  0  0  0
  148.6540  137.3699  155.4424 N   0  0  0  0  0  0  0  0  0  0  0  0
  148.5463  136.0884  155.2236 C   0  0  0  0  0  0  0  0  0  0  0  0
  148.8056  135.2811  156.3094 N   0  0  0  0  0  0  0  0  0  0  0  0
  148.7545  133.8266  156.3407 C   0  0  0  0  0  0  0  0  0  0  0  0
  149.8919  133.0848  155.5664 C   0  0  0  0  0  0  0  0  0  0  0  0
  151.2821  133.3663  156.2044 C   0  0  0  0  0  0  0  0  0  0  0  0
  151.4694  132.7395  157.4583 O   0  0  0  0  0  0  0  0  0  0  0  0
  149.6589  131.5549  155.4677 C   0  0  0  0  0  0  0  0  0  0  0  0
  148.4743  131.1880  154.5552 C   0  0  0  0  0  0  0  0  0  0  0  0
  148.6725  131.7333  153.2576 O   0  0  0  0  0  0  0  0  0  0  0  0
  148.7367  133.1531  153.2614 C   0  0  0  0  0  0  0  0  0  0  0  0
  149.9322  133.6206  154.1122 C   0  0  0  0  0  0  0  0  0  0  0  0
  150.3399  140.6540  157.1213 C   0  0  1  0  0  0  0  0  0  0  0  0
  151.5521  140.3187  158.0280 C   0  0  0  0  0  0  0  0  0  0  0  0
  154.1603  138.8169  160.3283 H   0  0  0  0  0  0  0  0  0  0  0  0
  152.6875  137.9369  159.9344 H   0  0  0  0  0  0  0  0  0  0  0  0
  152.6463  139.6971  160.1391 H   0  0  0  0  0  0  0  0  0  0  0  0
  151.8207  138.2067  157.6300 H   0  0  0  0  0  0  0  0  0  0  0  0
  153.4961  140.1715  155.9882 H   0  0  0  0  0  0  0  0  0  0  0  0
  153.3762  138.4525  155.7077 H   0  0  0  0  0  0  0  0  0  0  0  0
  151.9392  139.7193  154.1327 H   0  0  0  0  0  0  0  0  0  0  0  0
  151.0010  138.6415  155.1261 H   0  0  0  0  0  0  0  0  0  0  0  0
  151.4272  141.6238  155.5536 H   0  0  0  0  0  0  0  0  0  0  0  0
  147.7663  140.4817  154.2464 H   0  0  0  0  0  0  0  0  0  0  0  0
  148.8364  139.1485  154.5942 H   0  0  0  0  0  0  0  0  0  0  0  0
  147.6787  141.1568  156.6212 H   0  0  0  0  0  0  0  0  0  0  0  0
  147.2182  139.4761  156.4867 H   0  0  0  0  0  0  0  0  0  0  0  0
  149.8509  136.8024  160.3999 H   0  0  0  0  0  0  0  0  0  0  0  0
  148.2876  135.6927  154.2520 H   0  0  0  0  0  0  0  0  0  0  0  0
  148.7308  133.5279  157.3878 H   0  0  0  0  0  0  0  0  0  0  0  0
  147.7864  133.5280  155.9362 H   0  0  0  0  0  0  0  0  0  0  0  0
  152.0817  133.0037  155.5577 H   0  0  0  0  0  0  0  0  0  0  0  0
  151.4409  134.4391  156.3181 H   0  0  0  0  0  0  0  0  0  0  0  0
  151.7441  131.8473  157.3106 H   0  0  0  0  0  0  0  0  0  0  0  0
  150.5543  131.0823  155.0612 H   0  0  0  0  0  0  0  0  0  0  0  0
  149.5169  131.1135  156.4535 H   0  0  0  0  0  0  0  0  0  0  0  0
  148.3976  130.1043  154.4682 H   0  0  0  0  0  0  0  0  0  0  0  0
  147.5257  131.5343  154.9653 H   0  0  0  0  0  0  0  0  0  0  0  0
  148.8597  133.4949  152.2336 H   0  0  0  0  0  0  0  0  0  0  0  0
  147.7962  133.5744  153.6167 H   0  0  0  0  0  0  0  0  0  0  0  0
  149.9872  134.7099  154.1080 H   0  0  0  0  0  0  0  0  0  0  0  0
  150.8405  133.2748  153.6168 H   0  0  0  0  0  0  0  0  0  0  0  0
  150.0128  141.6513  157.4184 H   0  0  0  0  0  0  0  0  0  0  0  0
  151.2440  140.1764  159.0620 H   0  0  0  0  0  0  0  0  0  0  0  0
  152.2005  141.1957  158.0465 H   0  0  0  0  0  0  0  0  0  0  0  0
  1  2  1  0  0  0  0
  1 31  1  0  0  0  0
  1 32  1  0  0  0  0
  1 33  1  0  0  0  0
  2  3  1  0  0  0  0
  3 30  1  0  0  0  0
  3  4  1  0  0  0  0
  3 34  1  0  0  0  0
  4  5  1  0  0  0  0
  4 35  1  0  0  0  0
  4 36  1  0  0  0  0
  5  6  1  0  0  0  0
  5 37  1  0  0  0  0
  5 38  1  0  0  0  0
  6 29  1  0  0  0  0
  6  7  1  0  0  0  0
  6 39  1  0  0  0  0
  7  8  1  0  0  0  0
  8  9  1  0  0  0  0
  8 40  1  0  0  0  0
  8 41  1  0  0  0  0
  9 10  1  0  0  0  0
  9 42  1  0  0  0  0
  9 43  1  0  0  0  0
 10 11  1  0  0  0  0
 10 29  1  0  0  0  0
 11 16  1  0  0  0  0
 11 12  2  0  0  0  0
 12 13  1  0  0  0  0
 13 14  2  0  0  0  0
 13 44  1  0  0  0  0
 14 15  1  0  0  0  0
 15 19  1  0  0  0  0
 15 16  2  0  0  0  0
 16 17  1  0  0  0  0
 17 18  2  0  0  0  0
 18 19  1  0  0  0  0
 18 45  1  0  0  0  0
 19 20  1  0  0  0  0
 20 21  1  0  0  0  0
 20 46  1  0  0  0  0
 20 47  1  0  0  0  0
 21 28  1  0  0  0  0
 21 22  1  0  0  0  0
 21 24  1  0  0  0  0
 22 23  1  0  0  0  0
 22 48  1  0  0  0  0
 22 49  1  0  0  0  0
 23 50  1  0  0  0  0
 24 25  1  0  0  0  0
 24 51  1  0  0  0  0
 24 52  1  0  0  0  0
 25 26  1  0  0  0  0
 25 53  1  0  0  0  0
 25 54  1  0  0  0  0
 26 27  1  0  0  0  0
 27 28  1  0  0  0  0
 27 55  1  0  0  0  0
 27 56  1  0  0  0  0
 28 57  1  0  0  0  0
 28 58  1  0  0  0  0
 29 30  1  0  0  0  0
 29 59  1  0  0  0  0
 30 60  1  0  0  0  0
 30 61  1  0  0  0  0
M  END
> <s_m_source_file>
AV-unprocessed.smi

> <i_m_source_file_index>
177

> <i_lp_mmshare_version>
43012

> <i_f3d_flags>
0

> <s_epik_input>
W0NIM11PW0NASF0oW0NIMl1bQ0gyXTEpW0NIMl1bQ0BIXShbQ0BASF0xMilOKFtDSDJdW0NIMl1PMiljKG5bY0hdbjMpYyhjMzQpbltjSF1uNFtDSDJdQzUoW0NIMl1bT0hdKVtDSDJdW0NIMl1PW0NIMl1bQ0gyXTU=

> <s_epik_cmdline>
J2VwaWtfcHl0aG9uJywgJy1waCcsICc3LjAnLCAnLXRuJywgJzgnLCAnLW1hJywgJzIwMCcsICctbWV0YWxfYmluZGluZycsICctaW1hZScsICc8aW5maWxlLm1hZT4nLCAnLW9tYWUnLCAnPG91dGZpbGUubWFlPic=

> <r_lp_tautomer_probability>
1

> <r_epik_Ionization_Penalty>
0.0065899

> <r_epik_Ionization_Penalty_Charging>
0

> <r_epik_Ionization_Penalty_Neutral>
0.0065899

> <r_epik_State_Penalty>
0.00470042

> <r_epik_Charging_Adjusted_Penalty>
0.00470042

> <i_epik_Tot_Q>
0

> <i_epik_Tot_abs_Q>
0

> <r_epik_Metal_State_Penalty>
-0

> <b_epik_Metal_Only>
0

> <s_lp_Force_Field>
OPLS_2005

> <r_lp_Energy>
52.4416

> <b_lp_Chiralities_Consistent>
1

> <s_lp_Variant>
AV-unprocessed.smi:177-5

> <Gold.Version>
5.8.1

> <Gold.Id.Protein>
6NUR|6NUR_protein|mol2

> <Gold.PLP.Fitness>
43.3524

> <Gold.PLP.PLP>
-33.7766

> <Gold.PLP.part.hbond>
-4.2503

> <Gold.PLP.part.metal>
0.0000

> <Gold.PLP.part.buried>
-1.4277

> <Gold.PLP.part.nonpolar>
-27.3879

> <Gold.PLP.part.repulsive>
0.3055

> <Gold.PLP.ligand.clash>
0.0000

> <Gold.PLP.ligand.torsion>
1.1637

> <Gold.PLP.Chemscore.Hbond>
2.7180

> <Gold.PLP.Chemscore.CHOScore>
0.8897

> <Gold.PLP.Chemscore.Metal>
0.0000

> <Gold.Chemscore.Hbonds>
donor molecule, donor type, donor heavy atom, donor atom, acceptor molecule, acceptor atom, score
      P1  H  6896  6908       L1    23  0.77
      P1  H  6896  6909       L1    14  0.95
      P1  H  7997  8010       L1     2  0.90
      L1  C    18    45       P1  7948  1.00

> <Gold.PLP.Chemscore.Internal.Correction>
1.0799

> <Gold.Rescore>
     Score         DG    S(hbond)    S(metal)    S(lipo)     H(rot)  DE(clash)    DE(int)     intcor
     12.80     -17.12       2.51        0.00      78.42       2.32       0.07       4.25       ----

> <Gold.Chemscore.Fitness>
12.7964

> <Gold.Chemscore.DG>
-17.1198

> <Gold.Chemscore.ZeroCoef>
-5.4800

> <Gold.Chemscore.Hbond>
2.5137

> <Gold.Chemscore.Metal>
0.0000

> <Gold.Chemscore.Lipo>
78.4228

> <Gold.Chemscore.Internal_Hbond>
0.0000

> <Gold.Chemscore.DEClash>
0.0710

> <Gold.Chemscore.DEInternal>
4.2524

> <Gold.Chemscore.Rot>
2.3169

> <Gold.Chemscore.Internal.Correction>
   9.000000E+99

> <Gold.Chemscore.Hbonds>
donor molecule, donor type, donor heavy atom, donor atom, acceptor molecule, acceptor atom, score
      P1  H  6896  6908       L1    23  0.63
      P1  H  6896  6909       L1    14  0.20
      P1  H  7997  8010       L1     2  0.17

> <Gold.Chemscore.Hbond.Weighted>
-8.3956

> <Gold.Chemscore.Metal.Weighted>
-0.0000

> <Gold.Chemscore.Lipo.Weighted>
-9.1755

> <Gold.Chemscore.Internal_Hbond.Weighted>
0.0000

> <Gold.Chemscore.DEClash.Weighted>
0.0710

> <Gold.Chemscore.DEInternal.Weighted>
4.2524

> <Gold.Chemscore.Rot.Weighted>
5.9313

> <Gold.Chemscore.Internal.Correction.Weighted>
   9.000000E+99

> <Gold.Protein.RotatedTorsions>
[ 6907 6896 6895 6894 ] final   51.05 input  -60.11 | X-H torsion
[ 7974 7965 7964 7962 ] final  -48.36 input  175.53 | X-H torsion
[ 8008 7997 7996 7995 ] final   17.17 input   59.86 | X-H torsion
[ 10167 10162 10161 10158 ] final   13.24 input  -65.29 | X-H torsion
[ 10718 10713 10712 10709 ] final  -77.16 input   66.30 | X-H torsion
[ 10763 10752 10751 10750 ] final  -25.11 input  -60.55 | X-H torsion
[ 11005 11000 10999 10996 ] final  -45.51 input  -57.11 | X-H torsion

> <Gold.Protein.ActiveResidues>
 VAL166  LYS551  ARG553  GLY616  TRP617  ASP618  TYR619  PRO620  LYS621  CYS622 
 ASP623  PHE694  ASN695  SER759  ASP760  ASP761  ALA762  ILE779  LEU786  VAL792 
 PHE793  MET794  SER795  GLU796  ALA797  LYS798  CYS799  TRP800  GLU811  SER814 

> <Gold.Protein.RotatedAtoms>
  152.3084  134.7527  160.0341 H   0  0  0  0  0  0  0  0  0  0  0  0  # atno 6907 bound_to 6896
  151.8016  133.3365  159.3537 H   0  0  0  0  0  0  0  0  0  0  0  0  # atno 6908 bound_to 6896
  150.7308  134.5678  159.5919 H   0  0  0  0  0  0  0  0  0  0  0  0  # atno 6909 bound_to 6896
  145.9520  140.7563  142.9500 H   0  0  0  0  0  0  0  0  0  0  0  0  # atno 7974 bound_to 7965
  154.8875  140.2982  155.5389 H   0  0  0  0  0  0  0  0  0  0  0  0  # atno 8008 bound_to 7997
  156.3021  140.2430  156.3821 H   0  0  0  0  0  0  0  0  0  0  0  0  # atno 8009 bound_to 7997
  154.8652  140.0403  157.1679 H   0  0  0  0  0  0  0  0  0  0  0  0  # atno 8010 bound_to 7997
  140.6016  143.8593  150.6971 H   0  0  0  0  0  0  0  0  0  0  0  0  # atno 10167 bound_to 10162
  156.0153  130.4484  150.3302 H   0  0  0  0  0  0  0  0  0  0  0  0  # atno 10718 bound_to 10713
  153.6945  135.6960  153.5080 H   0  0  0  0  0  0  0  0  0  0  0  0  # atno 10763 bound_to 10752
  153.2388  135.4313  155.0675 H   0  0  0  0  0  0  0  0  0  0  0  0  # atno 10764 bound_to 10752
  154.8363  135.3502  154.6486 H   0  0  0  0  0  0  0  0  0  0  0  0  # atno 10765 bound_to 10752
  141.0520  133.6739  156.3024 H   0  0  0  0  0  0  0  0  0  0  0  0  # atno 11005 bound_to 11000
  144.6797  140.2450  143.7339 LP  0  0  0  0  0  0  0  0  0  0  0  0  # atno 17320 bound_to 7965
  145.8158  139.2022  143.1966 LP  0  0  0  0  0  0  0  0  0  0  0  0  # atno 17321 bound_to 7965
  140.2141  143.3860  152.1695 LP  0  0  0  0  0  0  0  0  0  0  0  0  # atno 17342 bound_to 10162
  139.5295  144.7142  151.5108 LP  0  0  0  0  0  0  0  0  0  0  0  0  # atno 17343 bound_to 10162
  157.1401  131.0294  151.2931 LP  0  0  0  0  0  0  0  0  0  0  0  0  # atno 17370 bound_to 10713
  157.4479  130.7581  149.7126 LP  0  0  0  0  0  0  0  0  0  0  0  0  # atno 17371 bound_to 10713
  140.6036  134.5529  157.5522 LP  0  0  0  0  0  0  0  0  0  0  0  0  # atno 17394 bound_to 11000
  139.9358  134.7877  156.0806 LP  0  0  0  0  0  0  0  0  0  0  0  0  # atno 17395 bound_to 11000

$$$$
