AV-unprocessed.smi:760|AV-procd|sdf|3628|dock8
  -GOLD-   22720 1 23D 1   1.00000     0.00000
 Structure written by MMmdl.
 44 45  0  0  0  0  0  0  0  0  2 V2000
  150.8149  133.6394  155.1897 C   0  0  0  0  0  0  0  0  0  0  0  0
  149.6200  134.0385  154.7232 C   0  0  0  0  0  0  0  0  0  0  0  0
  148.8508  133.2288  153.6941 C   0  0  0  0  0  0  0  0  0  0  0  0
  148.9522  135.3105  155.2236 C   0  0  0  0  0  0  0  0  0  0  0  0
  149.5035  136.5385  154.5925 N   0  3  2  0  0  0  0  0  0  0  0  0
  150.9750  136.6327  154.7762 C   0  0  0  0  0  0  0  0  0  0  0  0
  151.5646  137.8186  153.9937 C   0  0  0  0  0  0  0  0  0  0  0  0
  150.8938  139.1505  154.3784 C   0  0  2  0  0  0  0  0  0  0  0  0
  151.2587  139.5717  155.7311 N   0  0  0  0  0  0  0  0  0  0  0  0
  151.1241  140.8155  156.2141 C   0  0  0  0  0  0  0  0  0  0  0  0
  150.6726  141.7535  155.5574 O   0  0  0  0  0  0  0  0  0  0  0  0
  151.5474  140.8961  157.4860 N   0  0  0  0  0  0  0  0  0  0  0  0
  151.5563  142.0470  158.3137 C   0  0  0  0  0  0  0  0  0  0  0  0
  151.0594  143.3546  158.0467 C   0  0  0  0  0  0  0  0  0  0  0  0
  151.2554  144.1580  159.0816 N   0  0  0  0  0  0  0  0  0  0  0  0
  151.8731  143.3901  160.0118 N   0  0  0  0  0  0  0  0  0  0  0  0
  152.2343  143.9719  161.2869 C   0  0  0  0  0  0  0  0  0  0  0  0
  152.0690  142.0949  159.5753 C   0  0  0  0  0  0  0  0  0  0  0  0
  149.3683  139.0149  154.2439 C   0  0  0  0  0  0  0  0  0  0  0  0
  148.8173  137.7932  155.0026 C   0  0  0  0  0  0  0  0  0  0  0  0
  151.2796  132.7291  154.8395 H   0  0  0  0  0  0  0  0  0  0  0  0
  151.3477  134.2178  155.9303 H   0  0  0  0  0  0  0  0  0  0  0  0
  147.9133  132.8746  154.1232 H   0  0  0  0  0  0  0  0  0  0  0  0
  149.4209  132.3570  153.3709 H   0  0  0  0  0  0  0  0  0  0  0  0
  148.6137  133.8201  152.8112 H   0  0  0  0  0  0  0  0  0  0  0  0
  147.8719  135.2568  155.0791 H   0  0  0  0  0  0  0  0  0  0  0  0
  149.1162  135.3605  156.3010 H   0  0  0  0  0  0  0  0  0  0  0  0
  151.2061  136.7268  155.8385 H   0  0  0  0  0  0  0  0  0  0  0  0
  151.4480  135.7120  154.4324 H   0  0  0  0  0  0  0  0  0  0  0  0
  152.6427  137.8718  154.1500 H   0  0  0  0  0  0  0  0  0  0  0  0
  151.4251  137.6441  152.9259 H   0  0  0  0  0  0  0  0  0  0  0  0
  151.2244  139.9246  153.6833 H   0  0  0  0  0  0  0  0  0  0  0  0
  151.6337  138.8638  156.3455 H   0  0  0  0  0  0  0  0  0  0  0  0
  151.9020  140.0494  157.9055 H   0  0  0  0  0  0  0  0  0  0  0  0
  150.5742  143.7481  157.1659 H   0  0  0  0  0  0  0  0  0  0  0  0
  152.9875  143.3550  161.7779 H   0  0  0  0  0  0  0  0  0  0  0  0
  151.3525  144.0327  161.9250 H   0  0  0  0  0  0  0  0  0  0  0  0
  152.6404  144.9736  161.1400 H   0  0  0  0  0  0  0  0  0  0  0  0
  152.5447  141.3415  160.1860 H   0  0  0  0  0  0  0  0  0  0  0  0
  148.8754  139.9245  154.5895 H   0  0  0  0  0  0  0  0  0  0  0  0
  149.1133  138.9176  153.1875 H   0  0  0  0  0  0  0  0  0  0  0  0
  147.7519  137.7236  154.7900 H   0  0  0  0  0  0  0  0  0  0  0  0
  148.9212  137.9329  156.0796 H   0  0  0  0  0  0  0  0  0  0  0  0
  149.3499  136.4373  153.5992 H   0  0  0  0  0  0  0  0  0  0  0  0
  1  2  2  0  0  0  0
  1 21  1  0  0  0  0
  1 22  1  0  0  0  0
  2  3  1  0  0  0  0
  2  4  1  0  0  0  0
  3 23  1  0  0  0  0
  3 24  1  0  0  0  0
  3 25  1  0  0  0  0
  4  5  1  0  0  0  0
  4 26  1  0  0  0  0
  4 27  1  0  0  0  0
  5 20  1  0  0  0  0
  5  6  1  0  0  0  0
  5 44  1  0  0  0  0
  6  7  1  0  0  0  0
  6 28  1  0  0  0  0
  6 29  1  0  0  0  0
  7  8  1  0  0  0  0
  7 30  1  0  0  0  0
  7 31  1  0  0  0  0
  8  9  1  0  0  0  0
  8 19  1  0  0  0  0
  8 32  1  0  0  0  0
  9 10  1  0  0  0  0
  9 33  1  0  0  0  0
 10 11  2  0  0  0  0
 10 12  1  0  0  0  0
 12 13  1  0  0  0  0
 12 34  1  0  0  0  0
 13 18  2  0  0  0  0
 13 14  1  0  0  0  0
 14 15  2  0  0  0  0
 14 35  1  0  0  0  0
 15 16  1  0  0  0  0
 16 17  1  0  0  0  0
 16 18  1  0  0  0  0
 17 36  1  0  0  0  0
 17 37  1  0  0  0  0
 17 38  1  0  0  0  0
 18 39  1  0  0  0  0
 19 20  1  0  0  0  0
 19 40  1  0  0  0  0
 19 41  1  0  0  0  0
 20 42  1  0  0  0  0
 20 43  1  0  0  0  0
M  CHG  1   5   1
M  END
> <s_m_source_file>
AV-unprocessed.smi

> <i_m_source_file_index>
760

> <i_lp_mmshare_version>
43012

> <i_f3d_flags>
0

> <s_epik_input>
W0NIMl09QyhbQ0gzXSlbQ0gyXU4xW0NIMl1bQ0gyXVtDSF0oW0NIMl1bQ0gyXTEpW05IXUMoPU8pW05IXWMyW2NIXW5uKFtDSDNdKVtjSF0y

> <s_epik_cmdline>
J2VwaWtfcHl0aG9uJywgJy1waCcsICc3LjAnLCAnLXRuJywgJzgnLCAnLW1hJywgJzIwMCcsICctbWV0YWxfYmluZGluZycsICctaW1hZScsICc8aW5maWxlLm1hZT4nLCAnLW9tYWUnLCAnPG91dGZpbGUubWFlPic=

> <r_lp_tautomer_probability>
1

> <r_epik_Ionization_Penalty>
0.0194996

> <r_epik_Ionization_Penalty_Charging>
0.0193505

> <r_epik_Ionization_Penalty_Neutral>
0.000149098

> <r_epik_State_Penalty>
0.0154499

> <r_epik_Charging_Adjusted_Penalty>
0.0348004

> <i_epik_Tot_Q>
1

> <i_epik_Tot_abs_Q>
1

> <r_epik_Metal_State_Penalty>
0.0154507

> <b_epik_Metal_Only>
0

> <s_lp_Force_Field>
OPLS_2005

> <r_lp_Energy>
20.0822

> <b_lp_Chiralities_Consistent>
1

> <s_lp_Variant>
AV-unprocessed.smi:760-2

> <Gold.Version>
5.8.1

> <Gold.Id.Protein>
6NUR|6NUR_protein|mol2

> <Gold.PLP.Fitness>
44.0187

> <Gold.PLP.PLP>
-35.7217

> <Gold.PLP.part.hbond>
-2.0000

> <Gold.PLP.part.metal>
0.0000

> <Gold.PLP.part.buried>
-1.2155

> <Gold.PLP.part.nonpolar>
-32.5060

> <Gold.PLP.part.repulsive>
0.3738

> <Gold.PLP.ligand.clash>
0.0000

> <Gold.PLP.ligand.torsion>
0.4992

> <Gold.PLP.Chemscore.Hbond>
2.0927

> <Gold.PLP.Chemscore.CHOScore>
0.9965

> <Gold.PLP.Chemscore.Metal>
0.0000

> <Gold.Chemscore.Hbonds>
donor molecule, donor type, donor heavy atom, donor atom, acceptor molecule, acceptor atom, score
      L1  H     5    44       P1  7948  2.00
      P1  H  7989  7998       L1    11  0.01
      L1  C    14    35       P1  8028  1.00

> <Gold.PLP.Chemscore.Internal.Correction>
0.0278

> <Gold.Rescore>
     Score         DG    S(hbond)    S(metal)    S(lipo)     H(rot)  DE(clash)    DE(int)     intcor
     14.20     -15.65       0.98        0.00      89.12       1.38       0.06       1.39       ----

> <Gold.Chemscore.Fitness>
14.1996

> <Gold.Chemscore.DG>
-15.6517

> <Gold.Chemscore.ZeroCoef>
-5.4800

> <Gold.Chemscore.Hbond>
0.9775

> <Gold.Chemscore.Metal>
0.0000

> <Gold.Chemscore.Lipo>
89.1203

> <Gold.Chemscore.Internal_Hbond>
0.0000

> <Gold.Chemscore.DEClash>
0.0630

> <Gold.Chemscore.DEInternal>
1.3890

> <Gold.Chemscore.Rot>
1.3752

> <Gold.Chemscore.Internal.Correction>
   9.000000E+99

> <Gold.Chemscore.Hbonds>
donor molecule, donor type, donor heavy atom, donor atom, acceptor molecule, acceptor atom, score
      L1  H     5    44       P1  7948  0.88

> <Gold.Chemscore.Hbond.Weighted>
-3.2650

> <Gold.Chemscore.Metal.Weighted>
-0.0000

> <Gold.Chemscore.Lipo.Weighted>
-10.4271

> <Gold.Chemscore.Internal_Hbond.Weighted>
0.0000

> <Gold.Chemscore.DEClash.Weighted>
0.0630

> <Gold.Chemscore.DEInternal.Weighted>
1.3890

> <Gold.Chemscore.Rot.Weighted>
3.5204

> <Gold.Chemscore.Internal.Correction.Weighted>
   9.000000E+99

> <Gold.Protein.RotatedTorsions>
[ 6907 6896 6895 6894 ] final    8.05 input  -60.11 | X-H torsion
[ 7974 7965 7964 7962 ] final   40.78 input  175.53 | X-H torsion
[ 8008 7997 7996 7995 ] final   18.69 input   59.86 | X-H torsion
[ 10167 10162 10161 10158 ] final -148.26 input  -65.29 | X-H torsion
[ 10718 10713 10712 10709 ] final  -43.68 input   66.30 | X-H torsion
[ 10763 10752 10751 10750 ] final    5.69 input  -60.55 | X-H torsion
[ 11005 11000 10999 10996 ] final  -12.32 input  -57.11 | X-H torsion

> <Gold.Protein.ActiveResidues>
 VAL166  LYS551  ARG553  GLY616  TRP617  ASP618  TYR619  PRO620  LYS621  CYS622 
 ASP623  PHE694  ASN695  SER759  ASP760  ASP761  ALA762  ILE779  LEU786  VAL792 
 PHE793  MET794  SER795  GLU796  ALA797  LYS798  CYS799  TRP800  GLU811  SER814 

> <Gold.Protein.RotatedAtoms>
  151.6997  135.0932  160.0248 H   0  0  0  0  0  0  0  0  0  0  0  0  # atno 6907 bound_to 6896
  152.3728  133.6437  159.6108 H   0  0  0  0  0  0  0  0  0  0  0  0  # atno 6908 bound_to 6896
  150.7686  133.9159  159.3425 H   0  0  0  0  0  0  0  0  0  0  0  0  # atno 6909 bound_to 6896
  146.0877  139.5492  142.9496 H   0  0  0  0  0  0  0  0  0  0  0  0  # atno 7974 bound_to 7965
  154.9098  140.3012  155.5272 H   0  0  0  0  0  0  0  0  0  0  0  0  # atno 8008 bound_to 7997
  156.3015  140.2391  156.4071 H   0  0  0  0  0  0  0  0  0  0  0  0  # atno 8009 bound_to 7997
  154.8437  140.0412  157.1547 H   0  0  0  0  0  0  0  0  0  0  0  0  # atno 8010 bound_to 7997
  139.7548  143.8465  152.2594 H   0  0  0  0  0  0  0  0  0  0  0  0  # atno 10167 bound_to 10162
  156.2464  130.4184  149.8700 H   0  0  0  0  0  0  0  0  0  0  0  0  # atno 10718 bound_to 10713
  153.2564  135.6919  153.7624 H   0  0  0  0  0  0  0  0  0  0  0  0  # atno 10763 bound_to 10752
  153.6700  135.3346  155.3151 H   0  0  0  0  0  0  0  0  0  0  0  0  # atno 10764 bound_to 10752
  154.8414  135.4497  154.1539 H   0  0  0  0  0  0  0  0  0  0  0  0  # atno 10765 bound_to 10752
  140.7645  133.8488  155.9153 H   0  0  0  0  0  0  0  0  0  0  0  0  # atno 11005 bound_to 11000
  145.6099  141.0341  143.1972 LP  0  0  0  0  0  0  0  0  0  0  0  0  # atno 17320 bound_to 7965
  144.7337  139.7648  143.7337 LP  0  0  0  0  0  0  0  0  0  0  0  0  # atno 17321 bound_to 7965
  139.8453  144.7190  150.9280 LP  0  0  0  0  0  0  0  0  0  0  0  0  # atno 17342 bound_to 10162
  140.7801  143.3946  151.1251 LP  0  0  0  0  0  0  0  0  0  0  0  0  # atno 17343 bound_to 10162
  156.6264  130.8647  151.3486 LP  0  0  0  0  0  0  0  0  0  0  0  0  # atno 17370 bound_to 10713
  157.7197  130.9542  150.1389 LP  0  0  0  0  0  0  0  0  0  0  0  0  # atno 17371 bound_to 10713
  140.9632  134.1628  157.4637 LP  0  0  0  0  0  0  0  0  0  0  0  0  # atno 17394 bound_to 11000
  139.8765  134.9952  156.5733 LP  0  0  0  0  0  0  0  0  0  0  0  0  # atno 17395 bound_to 11000

$$$$
