AV-unprocessed.smi:788|AV-procd|sdf|3731|dock10
  -GOLD-   22720 1163D 1   1.00000     0.00000
 Structure written by MMmdl.
 35 36  0  0  0  0  0  0  0  0  1 V2000
  152.5348  139.9026  158.5454 C   0  0  0  0  0  0  0  0  0  0  0  0
  152.7307  141.3608  158.9992 C   0  0  2  0  0  0  0  0  0  0  0  0
  153.1708  141.4086  160.4756 C   0  0  0  0  0  0  0  0  0  0  0  0
  153.3817  142.8479  160.9666 C   0  0  0  0  0  0  0  0  0  0  0  0
  152.1207  143.6984  160.7493 C   0  0  0  0  0  0  0  0  0  0  0  0
  151.6554  143.6872  159.2797 C   0  0  1  0  0  0  0  0  0  0  0  0
  152.5723  144.5428  158.3802 C   0  0  0  0  0  0  0  0  0  0  0  0
  151.4632  142.2279  158.7832 C   0  0  1  0  0  0  0  0  0  0  0  0
  151.0579  142.1985  157.3791 N   0  0  0  0  0  0  0  0  0  0  0  0
  150.0244  141.5085  156.8697 C   0  0  0  0  0  0  0  0  0  0  0  0
  149.2916  140.8029  157.5603 O   0  0  0  0  0  0  0  0  0  0  0  0
  149.8227  141.6266  155.5397 N   0  0  0  0  0  0  0  0  0  0  0  0
  148.8467  141.0545  154.6714 C   0  0  0  0  0  0  0  0  0  0  0  0
  148.7915  139.7557  154.3326 N   0  0  0  0  0  0  0  0  0  0  0  0
  147.7389  139.4837  153.4693 N   0  0  0  0  0  0  0  0  0  0  0  0
  147.0412  140.5870  153.1858 C   0  0  0  0  0  0  0  0  0  0  0  0
  147.6024  142.0645  153.9478 S   0  0  0  0  0  0  0  0  0  0  0  0
  151.7089  139.4302  159.0781 H   0  0  0  0  0  0  0  0  0  0  0  0
  153.4313  139.3112  158.7331 H   0  0  0  0  0  0  0  0  0  0  0  0
  152.3247  139.8359  157.4777 H   0  0  0  0  0  0  0  0  0  0  0  0
  153.5399  141.7762  158.3973 H   0  0  0  0  0  0  0  0  0  0  0  0
  152.4192  140.9214  161.0984 H   0  0  0  0  0  0  0  0  0  0  0  0
  154.0931  140.8423  160.6084 H   0  0  0  0  0  0  0  0  0  0  0  0
  153.6434  142.8409  162.0249 H   0  0  0  0  0  0  0  0  0  0  0  0
  154.2290  143.2947  160.4460 H   0  0  0  0  0  0  0  0  0  0  0  0
  151.3198  143.3106  161.3800 H   0  0  0  0  0  0  0  0  0  0  0  0
  152.2978  144.7215  161.0830 H   0  0  0  0  0  0  0  0  0  0  0  0
  150.6774  144.1703  159.2589 H   0  0  0  0  0  0  0  0  0  0  0  0
  153.5747  144.1236  158.2998 H   0  0  0  0  0  0  0  0  0  0  0  0
  152.6703  145.5537  158.7761 H   0  0  0  0  0  0  0  0  0  0  0  0
  152.1720  144.6345  157.3703 H   0  0  0  0  0  0  0  0  0  0  0  0
  150.6636  141.7768  159.3748 H   0  0  0  0  0  0  0  0  0  0  0  0
  151.6088  142.7541  156.7400 H   0  0  0  0  0  0  0  0  0  0  0  0
  150.4932  142.2193  155.0723 H   0  0  0  0  0  0  0  0  0  0  0  0
  146.1899  140.5308  152.5237 H   0  0  0  0  0  0  0  0  0  0  0  0
  1  2  1  0  0  0  0
  1 18  1  0  0  0  0
  1 19  1  0  0  0  0
  1 20  1  0  0  0  0
  2  8  1  0  0  0  0
  2  3  1  0  0  0  0
  2 21  1  0  0  0  0
  3  4  1  0  0  0  0
  3 22  1  0  0  0  0
  3 23  1  0  0  0  0
  4  5  1  0  0  0  0
  4 24  1  0  0  0  0
  4 25  1  0  0  0  0
  5  6  1  0  0  0  0
  5 26  1  0  0  0  0
  5 27  1  0  0  0  0
  6  7  1  0  0  0  0
  6  8  1  0  0  0  0
  6 28  1  0  0  0  0
  7 29  1  0  0  0  0
  7 30  1  0  0  0  0
  7 31  1  0  0  0  0
  8  9  1  0  0  0  0
  8 32  1  0  0  0  0
  9 10  1  0  0  0  0
  9 33  1  0  0  0  0
 10 11  2  0  0  0  0
 10 12  1  0  0  0  0
 12 13  1  0  0  0  0
 12 34  1  0  0  0  0
 13 17  1  0  0  0  0
 13 14  2  0  0  0  0
 14 15  1  0  0  0  0
 15 16  2  0  0  0  0
 16 17  1  0  0  0  0
 16 35  1  0  0  0  0
M  END
> <s_m_source_file>
AV-unprocessed.smi

> <i_m_source_file_index>
788

> <i_lp_mmshare_version>
43012

> <i_f3d_flags>
0

> <s_epik_input>
W0NIM11bQ0BASF0xW0NIMl1bQ0gyXVtDSDJdW0NAQEhdKFtDSDNdKVtDQEhdMVtOSF1DKD1PKVtOSF1jMm5uW2NIXXMy

> <s_epik_cmdline>
J2VwaWtfcHl0aG9uJywgJy1waCcsICc3LjAnLCAnLXRuJywgJzgnLCAnLW1hJywgJzIwMCcsICctbWV0YWxfYmluZGluZycsICctaW1hZScsICc8aW5maWxlLm1hZT4nLCAnLW9tYWUnLCAnPG91dGZpbGUubWFlPic=

> <r_lp_tautomer_probability>
1

> <r_epik_Ionization_Penalty>
0.000304078

> <r_epik_Ionization_Penalty_Charging>
0

> <r_epik_Ionization_Penalty_Neutral>
0.000304078

> <r_epik_State_Penalty>
-0

> <r_epik_Charging_Adjusted_Penalty>
0

> <i_epik_Tot_Q>
0

> <i_epik_Tot_abs_Q>
0

> <r_epik_Metal_State_Penalty>
0.164801

> <b_epik_Metal_Only>
0

> <s_lp_Force_Field>
OPLS_2005

> <r_lp_Energy>
15.5702

> <b_lp_Chiralities_Consistent>
1

> <s_lp_Variant>
AV-unprocessed.smi:788-1

> <Gold.Version>
5.8.1

> <Gold.Id.Protein>
6NUR|6NUR_protein|mol2

> <Gold.PLP.Fitness>
36.7825

> <Gold.PLP.PLP>
-35.3860

> <Gold.PLP.part.hbond>
-0.1680

> <Gold.PLP.part.metal>
0.0000

> <Gold.PLP.part.buried>
-6.1476

> <Gold.PLP.part.nonpolar>
-29.6290

> <Gold.PLP.part.repulsive>
1.2496

> <Gold.PLP.ligand.clash>
0.0000

> <Gold.PLP.ligand.torsion>
0.8090

> <Gold.PLP.Chemscore.Hbond>
0.0000

> <Gold.PLP.Chemscore.CHOScore>
1.0000

> <Gold.PLP.Chemscore.Metal>
0.0000

> <Gold.Chemscore.Hbonds>
donor molecule, donor type, donor heavy atom, donor atom, acceptor molecule, acceptor atom, score
      L1  C    16    35       P1 10175  1.00

> <Gold.PLP.Chemscore.Internal.Correction>
0.0145

> <Gold.Rescore>
     Score         DG    S(hbond)    S(metal)    S(lipo)     H(rot)  DE(clash)    DE(int)     intcor
     13.79     -14.57       0.00        0.00      99.59       1.00       0.16       0.62       ----

> <Gold.Chemscore.Fitness>
13.7891

> <Gold.Chemscore.DG>
-14.5726

> <Gold.Chemscore.ZeroCoef>
-5.4800

> <Gold.Chemscore.Hbond>
0.0000

> <Gold.Chemscore.Metal>
0.0000

> <Gold.Chemscore.Lipo>
99.5946

> <Gold.Chemscore.Internal_Hbond>
0.0000

> <Gold.Chemscore.DEClash>
0.1640

> <Gold.Chemscore.DEInternal>
0.6194

> <Gold.Chemscore.Rot>
1.0000

> <Gold.Chemscore.Internal.Correction>
   9.000000E+99

> <Gold.Chemscore.Hbond.Weighted>
-0.0000

> <Gold.Chemscore.Metal.Weighted>
-0.0000

> <Gold.Chemscore.Lipo.Weighted>
-11.6526

> <Gold.Chemscore.Internal_Hbond.Weighted>
0.0000

> <Gold.Chemscore.DEClash.Weighted>
0.1640

> <Gold.Chemscore.DEInternal.Weighted>
0.6194

> <Gold.Chemscore.Rot.Weighted>
2.5600

> <Gold.Chemscore.Internal.Correction.Weighted>
   9.000000E+99

> <Gold.Protein.RotatedTorsions>
[ 6907 6896 6895 6894 ] final  122.63 input  -60.11 | X-H torsion
[ 7974 7965 7964 7962 ] final  150.98 input  175.53 | X-H torsion
[ 8008 7997 7996 7995 ] final -140.83 input   59.86 | X-H torsion
[ 10167 10162 10161 10158 ] final -146.48 input  -65.29 | X-H torsion
[ 10718 10713 10712 10709 ] final   30.11 input   66.30 | X-H torsion
[ 10763 10752 10751 10750 ] final  122.39 input  -60.55 | X-H torsion
[ 11005 11000 10999 10996 ] final    4.34 input  -57.11 | X-H torsion

> <Gold.Protein.ActiveResidues>
 VAL166  LYS551  ARG553  GLY616  TRP617  ASP618  TYR619  PRO620  LYS621  CYS622 
 ASP623  PHE694  ASN695  SER759  ASP760  ASP761  ALA762  ILE779  LEU786  VAL792 
 PHE793  MET794  SER795  GLU796  ALA797  LYS798  CYS799  TRP800  GLU811  SER814 

> <Gold.Protein.RotatedAtoms>
  152.4228  133.7144  159.6497 H   0  0  0  0  0  0  0  0  0  0  0  0  # atno 6907 bound_to 6896
  150.8104  133.8422  159.3191 H   0  0  0  0  0  0  0  0  0  0  0  0  # atno 6908 bound_to 6896
  151.6134  135.1040  160.0137 H   0  0  0  0  0  0  0  0  0  0  0  0  # atno 6909 bound_to 6896
  144.8325  139.6479  143.6052 H   0  0  0  0  0  0  0  0  0  0  0  0  # atno 7974 bound_to 7965
  155.4679  140.0550  157.2983 H   0  0  0  0  0  0  0  0  0  0  0  0  # atno 8008 bound_to 7997
  154.4710  140.2040  155.9948 H   0  0  0  0  0  0  0  0  0  0  0  0  # atno 8009 bound_to 7997
  156.1056  140.3212  155.8006 H   0  0  0  0  0  0  0  0  0  0  0  0  # atno 8010 bound_to 7997
  139.7709  143.8238  152.2624 H   0  0  0  0  0  0  0  0  0  0  0  0  # atno 10167 bound_to 10162
  157.2554  130.7135  149.6426 H   0  0  0  0  0  0  0  0  0  0  0  0  # atno 10718 bound_to 10713
  153.6290  135.3399  155.3035 H   0  0  0  0  0  0  0  0  0  0  0  0  # atno 10763 bound_to 10752
  154.8584  135.4291  154.2126 H   0  0  0  0  0  0  0  0  0  0  0  0  # atno 10764 bound_to 10752
  153.3017  135.7025  153.7270 H   0  0  0  0  0  0  0  0  0  0  0  0  # atno 10765 bound_to 10752
  140.5830  133.9995  155.8055 H   0  0  0  0  0  0  0  0  0  0  0  0  # atno 11005 bound_to 11000
  146.2626  139.6446  142.9351 LP  0  0  0  0  0  0  0  0  0  0  0  0  # atno 17320 bound_to 7965
  145.4866  141.0438  143.2616 LP  0  0  0  0  0  0  0  0  0  0  0  0  # atno 17321 bound_to 7965
  139.8273  144.7269  150.9496 LP  0  0  0  0  0  0  0  0  0  0  0  0  # atno 17342 bound_to 10162
  140.7814  143.4103  151.1004 LP  0  0  0  0  0  0  0  0  0  0  0  0  # atno 17343 bound_to 10162
  155.9665  130.4414  150.5340 LP  0  0  0  0  0  0  0  0  0  0  0  0  # atno 17370 bound_to 10713
  157.3233  131.0686  151.1915 LP  0  0  0  0  0  0  0  0  0  0  0  0  # atno 17371 bound_to 10713
  141.0984  133.9807  157.3121 LP  0  0  0  0  0  0  0  0  0  0  0  0  # atno 17394 bound_to 11000
  139.9309  135.0200  156.8395 LP  0  0  0  0  0  0  0  0  0  0  0  0  # atno 17395 bound_to 11000

$$$$
