AV-unprocessed.smi:3166|AV-procd|sdf|12095|dock2
  -GOLD-   2272017533D 1   1.00000     0.00000
 Structure written by MMmdl.
 40 41  0  0  0  0  0  0  0  0  1 V2000
  143.9493  136.9042  152.5240 C   0  0  0  0  0  0  0  0  0  0  0  0
  145.2698  136.2893  152.0149 C   0  0  2  0  0  0  0  0  0  0  0  0
  145.4134  134.8014  152.3973 C   0  0  0  0  0  0  0  0  0  0  0  0
  144.8515  133.9033  151.4030 N   0  0  0  0  0  0  0  0  0  0  0  0
  143.8181  133.0018  151.5510 C   0  0  0  0  0  0  0  0  0  0  0  0
  143.6398  132.3856  150.3457 C   0  0  0  0  0  0  0  0  0  0  0  0
  144.6190  132.9908  149.5090 C   0  0  0  0  0  0  0  0  0  0  0  0
  145.3411  133.8999  150.1439 N   0  0  0  0  0  0  0  0  0  0  0  0
  146.4393  137.0242  152.5066 N   0  0  0  0  0  0  0  0  0  0  0  0
  146.4676  138.4560  152.1925 C   0  0  0  0  0  0  0  0  0  0  0  0
  147.1901  139.2860  153.2780 C   0  0  0  0  0  0  0  0  0  0  0  0
  148.5613  138.9362  153.2188 O   0  0  0  0  0  0  0  0  0  0  0  0
  147.0254  140.8139  153.0714 C   0  0  0  0  0  0  0  0  0  0  0  0
  147.6171  141.6443  154.2248 C   0  0  0  0  0  0  0  0  0  0  0  0
  147.0423  141.2141  155.5813 C   0  0  0  0  0  0  0  0  0  0  0  0
  147.2646  139.7142  155.8170 C   0  0  0  0  0  0  0  0  0  0  0  0
  146.6641  138.8758  154.6745 C   0  0  0  0  0  0  0  0  0  0  0  0
  143.0844  136.3400  152.1751 H   0  0  0  0  0  0  0  0  0  0  0  0
  143.8106  137.9247  152.1693 H   0  0  0  0  0  0  0  0  0  0  0  0
  143.9151  136.9190  153.6136 H   0  0  0  0  0  0  0  0  0  0  0  0
  145.2618  136.3437  150.9255 H   0  0  0  0  0  0  0  0  0  0  0  0
  146.4664  134.5440  152.5201 H   0  0  0  0  0  0  0  0  0  0  0  0
  144.9336  134.6116  153.3594 H   0  0  0  0  0  0  0  0  0  0  0  0
  143.3045  132.8729  152.4923 H   0  0  0  0  0  0  0  0  0  0  0  0
  142.9187  131.6206  150.0987 H   0  0  0  0  0  0  0  0  0  0  0  0
  144.8245  132.7984  148.4662 H   0  0  0  0  0  0  0  0  0  0  0  0
  147.2859  136.5860  152.1582 H   0  0  0  0  0  0  0  0  0  0  0  0
  146.9773  138.6020  151.2393 H   0  0  0  0  0  0  0  0  0  0  0  0
  145.4564  138.8414  152.0622 H   0  0  0  0  0  0  0  0  0  0  0  0
  148.9711  139.4559  152.5441 H   0  0  0  0  0  0  0  0  0  0  0  0
  147.4882  141.1293  152.1357 H   0  0  0  0  0  0  0  0  0  0  0  0
  145.9643  141.0495  152.9786 H   0  0  0  0  0  0  0  0  0  0  0  0
  148.7023  141.5361  154.2375 H   0  0  0  0  0  0  0  0  0  0  0  0
  147.4171  142.7029  154.0579 H   0  0  0  0  0  0  0  0  0  0  0  0
  147.5072  141.7895  156.3824 H   0  0  0  0  0  0  0  0  0  0  0  0
  145.9753  141.4377  155.6169 H   0  0  0  0  0  0  0  0  0  0  0  0
  148.3328  139.5111  155.9041 H   0  0  0  0  0  0  0  0  0  0  0  0
  146.8187  139.4188  156.7671 H   0  0  0  0  0  0  0  0  0  0  0  0
  145.5793  138.9895  154.6969 H   0  0  0  0  0  0  0  0  0  0  0  0
  146.8579  137.8177  154.8560 H   0  0  0  0  0  0  0  0  0  0  0  0
  1  2  1  0  0  0  0
  1 18  1  0  0  0  0
  1 19  1  0  0  0  0
  1 20  1  0  0  0  0
  2  3  1  0  0  0  0
  2  9  1  0  0  0  0
  2 21  1  0  0  0  0
  3  4  1  0  0  0  0
  3 22  1  0  0  0  0
  3 23  1  0  0  0  0
  4  8  1  0  0  0  0
  4  5  1  0  0  0  0
  5  6  2  0  0  0  0
  5 24  1  0  0  0  0
  6  7  1  0  0  0  0
  6 25  1  0  0  0  0
  7  8  2  0  0  0  0
  7 26  1  0  0  0  0
  9 10  1  0  0  0  0
  9 27  1  0  0  0  0
 10 11  1  0  0  0  0
 10 28  1  0  0  0  0
 10 29  1  0  0  0  0
 11 17  1  0  0  0  0
 11 12  1  0  0  0  0
 11 13  1  0  0  0  0
 12 30  1  0  0  0  0
 13 14  1  0  0  0  0
 13 31  1  0  0  0  0
 13 32  1  0  0  0  0
 14 15  1  0  0  0  0
 14 33  1  0  0  0  0
 14 34  1  0  0  0  0
 15 16  1  0  0  0  0
 15 35  1  0  0  0  0
 15 36  1  0  0  0  0
 16 17  1  0  0  0  0
 16 37  1  0  0  0  0
 16 38  1  0  0  0  0
 17 39  1  0  0  0  0
 17 40  1  0  0  0  0
M  END
> <s_m_source_file>
AV-unprocessed.smi

> <i_m_source_file_index>
3166

> <i_lp_mmshare_version>
43012

> <i_f3d_flags>
0

> <s_epik_input>
bjFbY0hdW2NIXVtjSF1uMVtDSDJdW0NAQEhdKFtDSDNdKVtOSF1bQ0gyXUMyKFtPSF0pW0NIMl1bQ0gyXVtDSDJdW0NIMl1bQ0gyXTI=

> <s_epik_cmdline>
J2VwaWtfcHl0aG9uJywgJy1waCcsICc3LjAnLCAnLXRuJywgJzgnLCAnLW1hJywgJzIwMCcsICctbWV0YWxfYmluZGluZycsICctaW1hZScsICc8aW5maWxlLm1hZT4nLCAnLW9tYWUnLCAnPG91dGZpbGUubWFlPic=

> <r_lp_tautomer_probability>
1

> <r_epik_Ionization_Penalty>
2.35964

> <r_epik_Ionization_Penalty_Charging>
0

> <r_epik_Ionization_Penalty_Neutral>
2.35964

> <r_epik_State_Penalty>
2.51455

> <r_epik_Charging_Adjusted_Penalty>
2.51455

> <i_epik_Tot_Q>
0

> <i_epik_Tot_abs_Q>
0

> <r_epik_Metal_State_Penalty>
2.51451

> <b_epik_Metal_Only>
0

> <s_lp_Force_Field>
OPLS_2005

> <r_lp_Energy>
22.8123

> <b_lp_Chiralities_Consistent>
1

> <s_lp_Variant>
AV-unprocessed.smi:3166-3

> <Gold.Version>
5.8.1

> <Gold.Id.Protein>
6NUR|6NUR_protein|mol2

> <Gold.PLP.Fitness>
41.1197

> <Gold.PLP.PLP>
-32.3964

> <Gold.PLP.part.hbond>
-2.7643

> <Gold.PLP.part.metal>
0.0000

> <Gold.PLP.part.buried>
-4.0516

> <Gold.PLP.part.nonpolar>
-25.6193

> <Gold.PLP.part.repulsive>
1.7527

> <Gold.PLP.ligand.clash>
0.0000

> <Gold.PLP.ligand.torsion>
0.6886

> <Gold.PLP.Chemscore.Hbond>
1.9913

> <Gold.PLP.Chemscore.CHOScore>
1.3426

> <Gold.PLP.Chemscore.Metal>
0.0000

> <Gold.Chemscore.Hbonds>
donor molecule, donor type, donor heavy atom, donor atom, acceptor molecule, acceptor atom, score
      L1  H     9    27       P1  7948  1.00
      L1  H    12    30       P1  7957  1.00
      L1  C     5    24       P1 10957  0.70
      L1  C     7    26       P1  7921  0.54

> <Gold.PLP.Chemscore.Internal.Correction>
0.0991

> <Gold.Rescore>
     Score         DG    S(hbond)    S(metal)    S(lipo)     H(rot)  DE(clash)    DE(int)     intcor
     14.67     -15.30       2.00        0.00      73.30       2.12       0.08       0.55       ----

> <Gold.Chemscore.Fitness>
14.6741

> <Gold.Chemscore.DG>
-15.2987

> <Gold.Chemscore.ZeroCoef>
-5.4800

> <Gold.Chemscore.Hbond>
1.9976

> <Gold.Chemscore.Metal>
0.0000

> <Gold.Chemscore.Lipo>
73.3037

> <Gold.Chemscore.Internal_Hbond>
0.0000

> <Gold.Chemscore.DEClash>
0.0765

> <Gold.Chemscore.DEInternal>
0.5482

> <Gold.Chemscore.Rot>
2.1209

> <Gold.Chemscore.Internal.Correction>
   9.000000E+99

> <Gold.Chemscore.Hbonds>
donor molecule, donor type, donor heavy atom, donor atom, acceptor molecule, acceptor atom, score
      L1  H     9    27       P1  7948  1.00
      L1  H    12    30       P1  7957  0.99

> <Gold.Chemscore.Hbond.Weighted>
-6.6718

> <Gold.Chemscore.Metal.Weighted>
-0.0000

> <Gold.Chemscore.Lipo.Weighted>
-8.5765

> <Gold.Chemscore.Internal_Hbond.Weighted>
0.0000

> <Gold.Chemscore.DEClash.Weighted>
0.0765

> <Gold.Chemscore.DEInternal.Weighted>
0.5482

> <Gold.Chemscore.Rot.Weighted>
5.4296

> <Gold.Chemscore.Internal.Correction.Weighted>
   9.000000E+99

> <Gold.Protein.RotatedTorsions>
[ 6907 6896 6895 6894 ] final -129.54 input  -60.11 | X-H torsion
[ 7974 7965 7964 7962 ] final   32.72 input  175.53 | X-H torsion
[ 8008 7997 7996 7995 ] final -178.73 input   59.86 | X-H torsion
[ 10167 10162 10161 10158 ] final  138.71 input  -65.29 | X-H torsion
[ 10718 10713 10712 10709 ] final -154.20 input   66.30 | X-H torsion
[ 10763 10752 10751 10750 ] final   57.53 input  -60.55 | X-H torsion
[ 11005 11000 10999 10996 ] final  101.04 input  -57.11 | X-H torsion

> <Gold.Protein.ActiveResidues>
 VAL166  LYS551  ARG553  GLY616  TRP617  ASP618  TYR619  PRO620  LYS621  CYS622 
 ASP623  PHE694  ASN695  SER759  ASP760  ASP761  ALA762  ILE779  LEU786  VAL792 
 PHE793  MET794  SER795  GLU796  ALA797  LYS798  CYS799  TRP800  GLU811  SER814 

> <Gold.Protein.RotatedAtoms>
  150.9298  133.6780  159.2813 H   0  0  0  0  0  0  0  0  0  0  0  0  # atno 6907 bound_to 6896
  151.4206  135.0996  159.9622 H   0  0  0  0  0  0  0  0  0  0  0  0  # atno 6908 bound_to 6896
  152.5020  133.8751  159.7373 H   0  0  0  0  0  0  0  0  0  0  0  0  # atno 6909 bound_to 6896
  146.1468  139.6490  142.9126 H   0  0  0  0  0  0  0  0  0  0  0  0  # atno 7974 bound_to 7965
  156.0222  140.1263  157.0346 H   0  0  0  0  0  0  0  0  0  0  0  0  # atno 8008 bound_to 7997
  154.4316  140.1066  156.6050 H   0  0  0  0  0  0  0  0  0  0  0  0  # atno 8009 bound_to 7997
  155.5928  140.3469  155.4573 H   0  0  0  0  0  0  0  0  0  0  0  0  # atno 8010 bound_to 7997
  139.5102  144.6337  151.5751 H   0  0  0  0  0  0  0  0  0  0  0  0  # atno 10167 bound_to 10162
  156.4961  130.8370  151.2590 H   0  0  0  0  0  0  0  0  0  0  0  0  # atno 10718 bound_to 10713
  152.9852  135.5638  154.5405 H   0  0  0  0  0  0  0  0  0  0  0  0  # atno 10763 bound_to 10752
  154.4861  135.2790  155.1535 H   0  0  0  0  0  0  0  0  0  0  0  0  # atno 10764 bound_to 10752
  154.3024  135.6305  153.5483 H   0  0  0  0  0  0  0  0  0  0  0  0  # atno 10765 bound_to 10752
  139.8772  134.9166  156.4846 H   0  0  0  0  0  0  0  0  0  0  0  0  # atno 11005 bound_to 11000
  145.4918  141.0438  143.2589 LP  0  0  0  0  0  0  0  0  0  0  0  0  # atno 17320 bound_to 7965
  144.7856  139.6434  143.7135 LP  0  0  0  0  0  0  0  0  0  0  0  0  # atno 17321 bound_to 7965
  140.6079  143.9490  150.6432 LP  0  0  0  0  0  0  0  0  0  0  0  0  # atno 17342 bound_to 10162
  140.2723  143.3447  152.1226 LP  0  0  0  0  0  0  0  0  0  0  0  0  # atno 17343 bound_to 10162
  157.7468  130.9997  150.2899 LP  0  0  0  0  0  0  0  0  0  0  0  0  # atno 17370 bound_to 10713
  156.3378  130.3810  149.7435 LP  0  0  0  0  0  0  0  0  0  0  0  0  # atno 17371 bound_to 10713
  140.8702  133.7994  155.9357 LP  0  0  0  0  0  0  0  0  0  0  0  0  # atno 17394 bound_to 11000
  140.8960  134.2437  157.5068 LP  0  0  0  0  0  0  0  0  0  0  0  0  # atno 17395 bound_to 11000

$$$$
