AV-unprocessed.smi:1550|AV-procd|sdf|6229|dock3
  -GOLD-   22720 6403D 1   1.00000     0.00000
 Structure written by MMmdl.
 42 43  0  0  0  0  0  0  0  0  2 V2000
  148.1210  141.5129  156.6386 C   0  0  0  0  0  0  0  0  0  0  0  0
  149.0493  140.2992  156.7926 C   0  0  1  0  0  0  0  0  0  0  0  0
  150.2099  140.7351  157.4960 O   0  0  0  0  0  0  0  0  0  0  0  0
  150.9002  141.8366  156.9161 C   0  0  0  0  0  0  0  0  0  0  0  0
  151.7310  142.5243  158.0067 C   0  0  2  0  0  0  0  0  0  0  0  0
  151.9371  141.6131  159.2326 C   0  0  0  0  0  0  0  0  0  0  0  0
  152.6889  142.3606  160.3400 C   0  0  0  0  0  0  0  0  0  0  0  0
  151.9695  143.6766  160.6539 C   0  0  0  0  0  0  0  0  0  0  0  0
  151.7467  144.4834  159.3651 C   0  0  0  0  0  0  0  0  0  0  0  0
  151.0302  143.6963  158.4191 O   0  0  0  0  0  0  0  0  0  0  0  0
  148.3579  139.1608  157.5602 C   0  0  0  0  0  0  0  0  0  0  0  0
  147.1823  139.2884  157.9028 O   0  0  0  0  0  0  0  0  0  0  0  0
  149.1235  138.0792  157.8036 N   0  0  0  0  0  0  0  0  0  0  0  0
  148.8168  136.9220  158.5383 C   0  0  0  0  0  0  0  0  0  0  0  0
  148.1084  136.9113  159.7014 C   0  0  0  0  0  0  0  0  0  0  0  0
  147.8403  135.6820  160.4378 C   0  0  0  0  0  0  0  0  0  0  0  0
  147.0571  135.6146  161.7360 C   0  0  0  0  0  0  0  0  0  0  0  0
  147.6318  136.3828  162.6610 F   0  0  0  0  0  0  0  0  0  0  0  0
  145.8140  136.0566  161.5477 F   0  0  0  0  0  0  0  0  0  0  0  0
  146.9943  134.3678  162.2037 F   0  0  0  0  0  0  0  0  0  0  0  0
  148.3927  134.5732  159.8284 C   0  0  0  0  0  0  0  0  0  0  0  0
  149.1122  134.4990  158.6872 N   0  5  0  0  0  0  0  0  0  0  0  0
  149.3551  135.6535  158.0045 C   0  0  0  0  0  0  0  0  0  0  0  0
  150.0092  135.6600  156.9610 O   0  0  0  0  0  0  0  0  0  0  0  0
  147.2016  141.2447  156.1171 H   0  0  0  0  0  0  0  0  0  0  0  0
  148.6077  142.3004  156.0630 H   0  0  0  0  0  0  0  0  0  0  0  0
  147.8475  141.9352  157.6065 H   0  0  0  0  0  0  0  0  0  0  0  0
  149.3374  139.9580  155.7961 H   0  0  0  0  0  0  0  0  0  0  0  0
  151.5486  141.5291  156.0948 H   0  0  0  0  0  0  0  0  0  0  0  0
  150.1681  142.5363  156.5100 H   0  0  0  0  0  0  0  0  0  0  0  0
  152.7023  142.8013  157.5928 H   0  0  0  0  0  0  0  0  0  0  0  0
  150.9690  141.2813  159.6103 H   0  0  0  0  0  0  0  0  0  0  0  0
  152.4869  140.7147  158.9502 H   0  0  0  0  0  0  0  0  0  0  0  0
  152.7621  141.7432  161.2356 H   0  0  0  0  0  0  0  0  0  0  0  0
  153.7097  142.5672  160.0162 H   0  0  0  0  0  0  0  0  0  0  0  0
  151.0067  143.4655  161.1210 H   0  0  0  0  0  0  0  0  0  0  0  0
  152.5457  144.2607  161.3720 H   0  0  0  0  0  0  0  0  0  0  0  0
  151.1709  145.3835  159.5816 H   0  0  0  0  0  0  0  0  0  0  0  0
  152.6970  144.8086  158.9387 H   0  0  0  0  0  0  0  0  0  0  0  0
  150.0407  138.0738  157.3816 H   0  0  0  0  0  0  0  0  0  0  0  0
  147.7421  137.8305  160.1286 H   0  0  0  0  0  0  0  0  0  0  0  0
  148.2330  133.5994  160.3387 H   0  0  0  0  0  0  0  0  0  0  0  0
  1  2  1  0  0  0  0
  1 25  1  0  0  0  0
  1 26  1  0  0  0  0
  1 27  1  0  0  0  0
  2  3  1  0  0  0  0
  2 11  1  0  0  0  0
  2 28  1  0  0  0  0
  3  4  1  0  0  0  0
  4  5  1  0  0  0  0
  4 29  1  0  0  0  0
  4 30  1  0  0  0  0
  5 10  1  0  0  0  0
  5  6  1  0  0  0  0
  5 31  1  0  0  0  0
  6  7  1  0  0  0  0
  6 32  1  0  0  0  0
  6 33  1  0  0  0  0
  7  8  1  0  0  0  0
  7 34  1  0  0  0  0
  7 35  1  0  0  0  0
  8  9  1  0  0  0  0
  8 36  1  0  0  0  0
  8 37  1  0  0  0  0
  9 10  1  0  0  0  0
  9 38  1  0  0  0  0
  9 39  1  0  0  0  0
 11 12  2  0  0  0  0
 11 13  1  0  0  0  0
 13 14  1  0  0  0  0
 13 40  1  0  0  0  0
 14 23  1  0  0  0  0
 14 15  2  0  0  0  0
 15 16  1  0  0  0  0
 15 41  1  0  0  0  0
 16 17  1  0  0  0  0
 16 21  2  0  0  0  0
 17 18  1  0  0  0  0
 17 19  1  0  0  0  0
 17 20  1  0  0  0  0
 21 22  1  0  0  0  0
 21 42  1  0  0  0  0
 22 23  1  0  0  0  0
 23 24  2  0  0  0  0
M  CHG  1  22  -1
M  END
> <s_m_source_file>
AV-unprocessed.smi

> <i_m_source_file_index>
1550

> <i_lp_mmshare_version>
43012

> <i_f3d_flags>
0

> <s_epik_input>
TzFbQ0gyXVtDSDJdW0NIMl1bQ0gyXVtDQEhdMVtDSDJdT1tDQEBIXShbQ0gzXSlDKD1PKVtOSF1jMltjSF1jKEMoRikoRilGKVtjSF1bbkhdYzI9Tw==

> <s_epik_cmdline>
J2VwaWtfcHl0aG9uJywgJy1waCcsICc3LjAnLCAnLXRuJywgJzgnLCAnLW1hJywgJzIwMCcsICctbWV0YWxfYmluZGluZycsICctaW1hZScsICc8aW5maWxlLm1hZT4nLCAnLW9tYWUnLCAnPG91dGZpbGUubWFlPic=

> <r_epik_Ionization_Penalty>
2.54933

> <r_epik_Ionization_Penalty_Charging>
0.0583423

> <r_epik_Ionization_Penalty_Neutral>
2.49099

> <r_epik_State_Penalty>
2.65532

> <r_epik_Charging_Adjusted_Penalty>
2.71366

> <i_epik_Tot_Q>
-1

> <i_epik_Tot_abs_Q>
1

> <r_epik_Metal_State_Penalty>
0.516364

> <b_epik_Metal_Only>
0

> <s_lp_Force_Field>
OPLS_2005

> <r_lp_Energy>
27.7266

> <b_lp_Chiralities_Consistent>
1

> <s_lp_Variant>
AV-unprocessed.smi:1550-6

> <Gold.Version>
5.8.1

> <Gold.Id.Protein>
6NUR|6NUR_protein|mol2

> <Gold.PLP.Fitness>
47.1600

> <Gold.PLP.PLP>
-43.1702

> <Gold.PLP.part.hbond>
-2.0000

> <Gold.PLP.part.metal>
0.0000

> <Gold.PLP.part.buried>
-5.4395

> <Gold.PLP.part.nonpolar>
-35.2336

> <Gold.PLP.part.repulsive>
0.2201

> <Gold.PLP.ligand.clash>
0.0000

> <Gold.PLP.ligand.torsion>
1.0263

> <Gold.PLP.Chemscore.Hbond>
2.0000

> <Gold.PLP.Chemscore.CHOScore>
0.0000

> <Gold.PLP.Chemscore.Metal>
0.0000

> <Gold.Chemscore.Hbonds>
donor molecule, donor type, donor heavy atom, donor atom, acceptor molecule, acceptor atom, score
      P1  H  6896  6908       L1    22  1.80

> <Gold.PLP.Chemscore.Internal.Correction>
0.0423

> <Gold.Rescore>
     Score         DG    S(hbond)    S(metal)    S(lipo)     H(rot)  DE(clash)    DE(int)     intcor
     11.23     -12.36       0.09        0.00      96.24       1.82       0.09       1.04       ----

> <Gold.Chemscore.Fitness>
11.2250

> <Gold.Chemscore.DG>
-12.3572

> <Gold.Chemscore.ZeroCoef>
-5.4800

> <Gold.Chemscore.Hbond>
0.0855

> <Gold.Chemscore.Metal>
0.0000

> <Gold.Chemscore.Lipo>
96.2406

> <Gold.Chemscore.Internal_Hbond>
0.0000

> <Gold.Chemscore.DEClash>
0.0876

> <Gold.Chemscore.DEInternal>
1.0446

> <Gold.Chemscore.Rot>
1.8236

> <Gold.Chemscore.Internal.Correction>
   9.000000E+99

> <Gold.Chemscore.Hbonds>
donor molecule, donor type, donor heavy atom, donor atom, acceptor molecule, acceptor atom, score
      P1  H  6896  6908       L1    22  0.07

> <Gold.Chemscore.Hbond.Weighted>
-0.2854

> <Gold.Chemscore.Metal.Weighted>
-0.0000

> <Gold.Chemscore.Lipo.Weighted>
-11.2602

> <Gold.Chemscore.Internal_Hbond.Weighted>
0.0000

> <Gold.Chemscore.DEClash.Weighted>
0.0876

> <Gold.Chemscore.DEInternal.Weighted>
1.0446

> <Gold.Chemscore.Rot.Weighted>
4.6684

> <Gold.Chemscore.Internal.Correction.Weighted>
   9.000000E+99

> <Gold.Protein.RotatedTorsions>
[ 6907 6896 6895 6894 ] final  141.31 input  -60.11 | X-H torsion
[ 7974 7965 7964 7962 ] final -161.42 input  175.53 | X-H torsion
[ 8008 7997 7996 7995 ] final  127.66 input   59.86 | X-H torsion
[ 10167 10162 10161 10158 ] final   19.86 input  -65.29 | X-H torsion
[ 10718 10713 10712 10709 ] final  178.00 input   66.30 | X-H torsion
[ 10763 10752 10751 10750 ] final -162.70 input  -60.55 | X-H torsion
[ 11005 11000 10999 10996 ] final  -14.34 input  -57.11 | X-H torsion

> <Gold.Protein.ActiveResidues>
 VAL166  LYS551  ARG553  GLY616  TRP617  ASP618  TYR619  PRO620  LYS621  CYS622 
 ASP623  PHE694  ASN695  SER759  ASP760  ASP761  ALA762  ILE779  LEU786  VAL792 
 PHE793  MET794  SER795  GLU796  ALA797  LYS798  CYS799  TRP800  GLU811  SER814 

> <Gold.Protein.RotatedAtoms>
  152.2325  133.5070  159.5223 H   0  0  0  0  0  0  0  0  0  0  0  0  # atno 6907 bound_to 6896
  150.7041  134.1197  159.4039 H   0  0  0  0  0  0  0  0  0  0  0  0  # atno 6908 bound_to 6896
  151.9118  135.0335  160.0566 H   0  0  0  0  0  0  0  0  0  0  0  0  # atno 6909 bound_to 6896
  144.7392  140.3401  143.6136 H   0  0  0  0  0  0  0  0  0  0  0  0  # atno 7974 bound_to 7965
  156.2896  140.2663  156.2309 H   0  0  0  0  0  0  0  0  0  0  0  0  # atno 8008 bound_to 7997
  155.0073  140.0387  157.2403 H   0  0  0  0  0  0  0  0  0  0  0  0  # atno 8009 bound_to 7997
  154.7549  140.2750  155.6267 H   0  0  0  0  0  0  0  0  0  0  0  0  # atno 8010 bound_to 7997
  140.5547  143.9446  150.6601 H   0  0  0  0  0  0  0  0  0  0  0  0  # atno 10167 bound_to 10162
  156.8971  130.9866  151.3041 H   0  0  0  0  0  0  0  0  0  0  0  0  # atno 10718 bound_to 10713
  154.7191  135.3022  154.9077 H   0  0  0  0  0  0  0  0  0  0  0  0  # atno 10763 bound_to 10752
  153.9954  135.6713  153.4760 H   0  0  0  0  0  0  0  0  0  0  0  0  # atno 10764 bound_to 10752
  153.0818  135.5005  154.8435 H   0  0  0  0  0  0  0  0  0  0  0  0  # atno 10765 bound_to 10752
  140.7854  133.8330  155.9330 H   0  0  0  0  0  0  0  0  0  0  0  0  # atno 11005 bound_to 11000
  145.7383  139.1756  143.2390 LP  0  0  0  0  0  0  0  0  0  0  0  0  # atno 17320 bound_to 7965
  146.1153  140.7377  142.9483 LP  0  0  0  0  0  0  0  0  0  0  0  0  # atno 17321 bound_to 7965
  140.2881  143.3343  152.1089 LP  0  0  0  0  0  0  0  0  0  0  0  0  # atno 17342 bound_to 10162
  139.5043  144.6772  151.6099 LP  0  0  0  0  0  0  0  0  0  0  0  0  # atno 17343 bound_to 10162
  157.6049  130.8539  149.8859 LP  0  0  0  0  0  0  0  0  0  0  0  0  # atno 17370 bound_to 10713
  156.0600  130.3701  150.1003 LP  0  0  0  0  0  0  0  0  0  0  0  0  # atno 17371 bound_to 10713
  140.9442  134.1862  157.4776 LP  0  0  0  0  0  0  0  0  0  0  0  0  # atno 17394 bound_to 11000
  139.8737  134.9884  156.5409 LP  0  0  0  0  0  0  0  0  0  0  0  0  # atno 17395 bound_to 11000

$$$$
