AV-unprocessed.smi:3145|AV-procd|sdf|11981|dock5
  -GOLD-   2272017383D 1   1.00000     0.00000
 Structure written by MMmdl.
 34 34  0  0  0  0  0  0  0  0  1 V2000
  145.9110  136.2861  150.0530 C   0  0  0  0  0  0  0  0  0  0  0  0
  145.6028  136.3359  151.5560 C   0  0  2  0  0  0  0  0  0  0  0  0
  144.4290  135.3961  151.9133 C   0  0  0  0  0  0  0  0  0  0  0  0
  144.6342  134.0272  151.4715 N   0  0  0  0  0  0  0  0  0  0  0  0
  143.6842  133.0742  151.1706 C   0  0  0  0  0  0  0  0  0  0  0  0
  144.3491  131.9442  150.7890 C   0  0  0  0  0  0  0  0  0  0  0  0
  145.7209  132.3066  150.8943 C   0  0  0  0  0  0  0  0  0  0  0  0
  145.8889  133.5528  151.3055 N   0  0  0  0  0  0  0  0  0  0  0  0
  145.2628  137.7156  151.8895 N   0  0  0  0  0  0  0  0  0  0  0  0
  146.4413  138.5908  151.9173 C   0  0  0  0  0  0  0  0  0  0  0  0
  147.0832  138.6137  153.3012 C   0  0  0  0  0  0  0  0  0  0  0  0
  146.4178  138.3409  154.2997 O   0  0  0  0  0  0  0  0  0  0  0  0
  148.3806  138.9488  153.3422 N   0  0  0  0  0  0  0  0  0  0  0  0
  149.1755  139.0395  154.5572 C   0  0  0  0  0  0  0  0  0  0  0  0
  150.6350  139.3569  154.2162 C   0  0  0  0  0  0  0  0  0  0  0  0
  151.4840  138.1565  154.1903 C   0  0  0  0  0  0  0  0  0  0  0  0
  152.1520  137.2120  154.1701 N   0  0  0  0  0  0  0  0  0  0  0  0
  146.1881  135.2774  149.7450 H   0  0  0  0  0  0  0  0  0  0  0  0
  146.7420  136.9446  149.7977 H   0  0  0  0  0  0  0  0  0  0  0  0
  145.0494  136.5889  149.4565 H   0  0  0  0  0  0  0  0  0  0  0  0
  146.5036  136.0197  152.0858 H   0  0  0  0  0  0  0  0  0  0  0  0
  144.2466  135.4007  152.9895 H   0  0  0  0  0  0  0  0  0  0  0  0
  143.5118  135.7576  151.4469 H   0  0  0  0  0  0  0  0  0  0  0  0
  142.6265  133.2798  151.2475 H   0  0  0  0  0  0  0  0  0  0  0  0
  143.9206  131.0021  150.4812 H   0  0  0  0  0  0  0  0  0  0  0  0
  146.5936  131.7057  150.6855 H   0  0  0  0  0  0  0  0  0  0  0  0
  144.5708  138.0617  151.2403 H   0  0  0  0  0  0  0  0  0  0  0  0
  147.1920  138.2506  151.2038 H   0  0  0  0  0  0  0  0  0  0  0  0
  146.1538  139.6002  151.6200 H   0  0  0  0  0  0  0  0  0  0  0  0
  148.8459  139.1492  152.4681 H   0  0  0  0  0  0  0  0  0  0  0  0
  148.7646  139.8174  155.2028 H   0  0  0  0  0  0  0  0  0  0  0  0
  149.1150  138.0973  155.1045 H   0  0  0  0  0  0  0  0  0  0  0  0
  150.7038  139.8360  153.2391 H   0  0  0  0  0  0  0  0  0  0  0  0
  151.0566  140.0476  154.9471 H   0  0  0  0  0  0  0  0  0  0  0  0
  1  2  1  0  0  0  0
  1 18  1  0  0  0  0
  1 19  1  0  0  0  0
  1 20  1  0  0  0  0
  2  3  1  0  0  0  0
  2  9  1  0  0  0  0
  2 21  1  0  0  0  0
  3  4  1  0  0  0  0
  3 22  1  0  0  0  0
  3 23  1  0  0  0  0
  4  8  1  0  0  0  0
  4  5  1  0  0  0  0
  5  6  2  0  0  0  0
  5 24  1  0  0  0  0
  6  7  1  0  0  0  0
  6 25  1  0  0  0  0
  7  8  2  0  0  0  0
  7 26  1  0  0  0  0
  9 10  1  0  0  0  0
  9 27  1  0  0  0  0
 10 11  1  0  0  0  0
 10 28  1  0  0  0  0
 10 29  1  0  0  0  0
 11 12  2  0  0  0  0
 11 13  1  0  0  0  0
 13 14  1  0  0  0  0
 13 30  1  0  0  0  0
 14 15  1  0  0  0  0
 14 31  1  0  0  0  0
 14 32  1  0  0  0  0
 15 16  1  0  0  0  0
 15 33  1  0  0  0  0
 15 34  1  0  0  0  0
 16 17  3  0  0  0  0
M  END
> <s_m_source_file>
AV-unprocessed.smi

> <i_m_source_file_index>
3145

> <i_lp_mmshare_version>
43012

> <i_f3d_flags>
0

> <s_epik_input>
bjFbY0hdW2NIXVtjSF1uMVtDSDJdW0NAQEhdKFtDSDNdKVtOSF1bQ0gyXUMoPU8pW05IXVtDSDJdW0NIMl1DI04=

> <s_epik_cmdline>
J2VwaWtfcHl0aG9uJywgJy1waCcsICc3LjAnLCAnLXRuJywgJzgnLCAnLW1hJywgJzIwMCcsICctbWV0YWxfYmluZGluZycsICctaW1hZScsICc8aW5maWxlLm1hZT4nLCAnLW9tYWUnLCAnPG91dGZpbGUubWFlPic=

> <r_lp_tautomer_probability>
1

> <r_epik_Ionization_Penalty>
0.765991

> <r_epik_Ionization_Penalty_Charging>
0

> <r_epik_Ionization_Penalty_Neutral>
0.765991

> <r_epik_State_Penalty>
0.794192

> <r_epik_Charging_Adjusted_Penalty>
0.794192

> <i_epik_Tot_Q>
0

> <i_epik_Tot_abs_Q>
0

> <r_epik_Metal_State_Penalty>
0.806127

> <b_epik_Metal_Only>
0

> <s_lp_Force_Field>
OPLS_2005

> <r_lp_Energy>
5.26669

> <b_lp_Chiralities_Consistent>
1

> <s_lp_Variant>
AV-unprocessed.smi:3145-3

> <Gold.Version>
5.8.1

> <Gold.Id.Protein>
6NUR|6NUR_protein|mol2

> <Gold.PLP.Fitness>
43.3531

> <Gold.PLP.PLP>
-30.9894

> <Gold.PLP.part.hbond>
-3.9337

> <Gold.PLP.part.metal>
0.0000

> <Gold.PLP.part.buried>
-2.1422

> <Gold.PLP.part.nonpolar>
-26.4789

> <Gold.PLP.part.repulsive>
0.4335

> <Gold.PLP.ligand.clash>
0.0000

> <Gold.PLP.ligand.torsion>
1.2673

> <Gold.PLP.Chemscore.Hbond>
2.9440

> <Gold.PLP.Chemscore.CHOScore>
1.9981

> <Gold.PLP.Chemscore.Metal>
0.0000

> <Gold.Chemscore.Hbonds>
donor molecule, donor type, donor heavy atom, donor atom, acceptor molecule, acceptor atom, score
      L1  H     9    27       P1 10171  1.00
      L1  H    13    30       P1  7957  1.00
      P1  H 10752 10764       L1    17  0.90
      L1  C     5    24       P1 10186  0.83
      L1  C     7    26       P1 10747  0.93

> <Gold.PLP.Chemscore.Internal.Correction>
0.0720

> <Gold.Rescore>
     Score         DG    S(hbond)    S(metal)    S(lipo)     H(rot)  DE(clash)    DE(int)     intcor
     11.90     -16.04       2.81        0.00      71.24       2.80       2.76       1.38       ----

> <Gold.Chemscore.Fitness>
11.9013

> <Gold.Chemscore.DG>
-16.0405

> <Gold.Chemscore.ZeroCoef>
-5.4800

> <Gold.Chemscore.Hbond>
2.8129

> <Gold.Chemscore.Metal>
0.0000

> <Gold.Chemscore.Lipo>
71.2397

> <Gold.Chemscore.Internal_Hbond>
0.0000

> <Gold.Chemscore.DEClash>
2.7595

> <Gold.Chemscore.DEInternal>
1.3797

> <Gold.Chemscore.Rot>
2.8006

> <Gold.Chemscore.Internal.Correction>
   9.000000E+99

> <Gold.Chemscore.Hbonds>
donor molecule, donor type, donor heavy atom, donor atom, acceptor molecule, acceptor atom, score
      L1  H     9    27       P1 10171  1.00
      L1  H    13    30       P1  7957  1.00
      P1  H 10752 10764       L1    17  0.88

> <Gold.Chemscore.Hbond.Weighted>
-9.3950

> <Gold.Chemscore.Metal.Weighted>
-0.0000

> <Gold.Chemscore.Lipo.Weighted>
-8.3350

> <Gold.Chemscore.Internal_Hbond.Weighted>
0.0000

> <Gold.Chemscore.DEClash.Weighted>
2.7595

> <Gold.Chemscore.DEInternal.Weighted>
1.3797

> <Gold.Chemscore.Rot.Weighted>
7.1696

> <Gold.Chemscore.Internal.Correction.Weighted>
   9.000000E+99

> <Gold.Protein.RotatedTorsions>
[ 6907 6896 6895 6894 ] final  -47.79 input  -60.11 | X-H torsion
[ 7974 7965 7964 7962 ] final  -96.20 input  175.53 | X-H torsion
[ 8008 7997 7996 7995 ] final -175.75 input   59.86 | X-H torsion
[ 10167 10162 10161 10158 ] final -152.47 input  -65.29 | X-H torsion
[ 10718 10713 10712 10709 ] final  109.24 input   66.30 | X-H torsion
[ 10763 10752 10751 10750 ] final  -79.43 input  -60.55 | X-H torsion
[ 11005 11000 10999 10996 ] final -151.06 input  -57.11 | X-H torsion

> <Gold.Protein.ActiveResidues>
 VAL166  LYS551  ARG553  GLY616  TRP617  ASP618  TYR619  PRO620  LYS621  CYS622 
 ASP623  PHE694  ASN695  SER759  ASP760  ASP761  ALA762  ILE779  LEU786  VAL792 
 PHE793  MET794  SER795  GLU796  ALA797  LYS798  CYS799  TRP800  GLU811  SER814 

> <Gold.Protein.RotatedAtoms>
  150.8971  134.8380  159.7333 H   0  0  0  0  0  0  0  0  0  0  0  0  # atno 6907 bound_to 6896
  152.4871  134.4559  159.9599 H   0  0  0  0  0  0  0  0  0  0  0  0  # atno 6908 bound_to 6896
  151.4615  133.3552  159.2845 H   0  0  0  0  0  0  0  0  0  0  0  0  # atno 6909 bound_to 6896
  145.3500  140.9475  143.2560 H   0  0  0  0  0  0  0  0  0  0  0  0  # atno 7974 bound_to 7965
  155.9864  140.1192  157.0679 H   0  0  0  0  0  0  0  0  0  0  0  0  # atno 8008 bound_to 7997
  154.4198  140.1134  156.5573 H   0  0  0  0  0  0  0  0  0  0  0  0  # atno 8009 bound_to 7997
  155.6402  140.3473  155.4714 H   0  0  0  0  0  0  0  0  0  0  0  0  # atno 8010 bound_to 7997
  139.7179  143.9005  152.2492 H   0  0  0  0  0  0  0  0  0  0  0  0  # atno 10167 bound_to 10162
  157.6550  131.0910  150.6424 H   0  0  0  0  0  0  0  0  0  0  0  0  # atno 10718 bound_to 10713
  154.5385  135.5696  153.6819 H   0  0  0  0  0  0  0  0  0  0  0  0  # atno 10763 bound_to 10752
  152.9957  135.6222  154.2534 H   0  0  0  0  0  0  0  0  0  0  0  0  # atno 10764 bound_to 10752
  154.2464  135.2860  155.2813 H   0  0  0  0  0  0  0  0  0  0  0  0  # atno 10765 bound_to 10752
  140.7336  134.3593  157.5162 H   0  0  0  0  0  0  0  0  0  0  0  0  # atno 11005 bound_to 11000
  144.8725  139.5018  143.6761 LP  0  0  0  0  0  0  0  0  0  0  0  0  # atno 17320 bound_to 7965
  146.2972  139.7314  142.9118 LP  0  0  0  0  0  0  0  0  0  0  0  0  # atno 17321 bound_to 7965
  139.8892  144.6975  150.8789 LP  0  0  0  0  0  0  0  0  0  0  0  0  # atno 17342 bound_to 10162
  140.7747  143.3600  151.1847 LP  0  0  0  0  0  0  0  0  0  0  0  0  # atno 17343 bound_to 10162
  156.6731  130.4545  149.5651 LP  0  0  0  0  0  0  0  0  0  0  0  0  # atno 17370 bound_to 10713
  156.1983  130.6603  151.1139 LP  0  0  0  0  0  0  0  0  0  0  0  0  # atno 17371 bound_to 10713
  139.8821  134.9035  156.2856 LP  0  0  0  0  0  0  0  0  0  0  0  0  # atno 17394 bound_to 11000
  140.9899  133.7215  156.0798 LP  0  0  0  0  0  0  0  0  0  0  0  0  # atno 17395 bound_to 11000

$$$$
