AV-unprocessed.smi:1802|AV-procd|sdf|7276|dock4
  -GOLD-   22720 8533D 1   1.00000     0.00000
 Structure written by MMmdl.
 40 41  0  0  0  0  0  0  0  0  3 V2000
  146.2750  132.0451  149.2990 C   0  0  0  0  0  0  0  0  0  0  0  0
  145.4577  132.2812  150.5814 C   0  0  1  0  0  0  0  0  0  0  0  0
  144.8502  130.9858  151.1507 C   0  0  0  0  0  0  0  0  0  0  0  0
  145.9230  130.1141  151.8184 C   0  0  0  0  0  0  0  0  0  0  0  0
  146.7136  130.9160  152.8647 C   0  0  0  0  0  0  0  0  0  0  0  0
  147.3132  132.1359  152.2653 N   0  3  2  0  0  0  0  0  0  0  0  0
  148.2061  132.8471  153.2146 C   0  0  0  0  0  0  0  0  0  0  0  0
  148.9838  131.8801  154.1217 C   0  0  0  0  0  0  0  0  0  0  0  0
  149.4304  132.5434  155.4347 C   0  0  0  0  0  0  0  0  0  0  0  0
  150.2316  133.7363  155.1848 N   0  0  0  0  0  0  0  0  0  0  0  0
  150.6890  134.5809  156.1206 C   0  0  0  0  0  0  0  0  0  0  0  0
  150.4463  134.3690  157.3112 O   0  0  0  0  0  0  0  0  0  0  0  0
  151.3916  135.6213  155.6192 N   0  5  0  0  0  0  0  0  0  0  0  0
  150.7449  136.6684  155.0804 C   0  0  0  0  0  0  0  0  0  0  0  0
  149.4123  136.8100  155.1620 N   0  0  0  0  0  0  0  0  0  0  0  0
  148.9464  137.9600  154.5390 N   0  0  0  0  0  0  0  0  0  0  0  0
  149.9461  138.6647  154.0094 C   0  0  0  0  0  0  0  0  0  0  0  0
  151.5470  137.9895  154.2262 S   0  0  0  0  0  0  0  0  0  0  0  0
  146.2742  133.0164  151.6641 C   0  0  0  0  0  0  0  0  0  0  0  0
  147.1474  131.4174  149.4802 H   0  0  0  0  0  0  0  0  0  0  0  0
  146.6312  132.9885  148.8840 H   0  0  0  0  0  0  0  0  0  0  0  0
  145.6701  131.5598  148.5328 H   0  0  0  0  0  0  0  0  0  0  0  0
  144.6284  132.9317  150.3005 H   0  0  0  0  0  0  0  0  0  0  0  0
  144.0895  131.2412  151.8897 H   0  0  0  0  0  0  0  0  0  0  0  0
  144.3384  130.4246  150.3679 H   0  0  0  0  0  0  0  0  0  0  0  0
  145.4552  129.2492  152.2900 H   0  0  0  0  0  0  0  0  0  0  0  0
  146.6048  129.7181  151.0652 H   0  0  0  0  0  0  0  0  0  0  0  0
  146.0641  131.1985  153.6946 H   0  0  0  0  0  0  0  0  0  0  0  0
  147.4987  130.2813  153.2778 H   0  0  0  0  0  0  0  0  0  0  0  0
  148.8879  133.4992  152.6664 H   0  0  0  0  0  0  0  0  0  0  0  0
  147.6064  133.4959  153.8546 H   0  0  0  0  0  0  0  0  0  0  0  0
  148.3624  131.0126  154.3481 H   0  0  0  0  0  0  0  0  0  0  0  0
  149.8617  131.5009  153.5997 H   0  0  0  0  0  0  0  0  0  0  0  0
  148.5666  132.7980  156.0510 H   0  0  0  0  0  0  0  0  0  0  0  0
  150.0337  131.8477  156.0183 H   0  0  0  0  0  0  0  0  0  0  0  0
  150.4584  133.9439  154.2230 H   0  0  0  0  0  0  0  0  0  0  0  0
  149.7401  139.5888  153.4905 H   0  0  0  0  0  0  0  0  0  0  0  0
  146.7260  133.9057  151.2263 H   0  0  0  0  0  0  0  0  0  0  0  0
  145.6074  133.3680  152.4532 H   0  0  0  0  0  0  0  0  0  0  0  0
  147.9017  131.8171  151.5089 H   0  0  0  0  0  0  0  0  0  0  0  0
  1  2  1  0  0  0  0
  1 20  1  0  0  0  0
  1 21  1  0  0  0  0
  1 22  1  0  0  0  0
  2 19  1  0  0  0  0
  2  3  1  0  0  0  0
  2 23  1  0  0  0  0
  3  4  1  0  0  0  0
  3 24  1  0  0  0  0
  3 25  1  0  0  0  0
  4  5  1  0  0  0  0
  4 26  1  0  0  0  0
  4 27  1  0  0  0  0
  5  6  1  0  0  0  0
  5 28  1  0  0  0  0
  5 29  1  0  0  0  0
  6  7  1  0  0  0  0
  6 19  1  0  0  0  0
  6 40  1  0  0  0  0
  7  8  1  0  0  0  0
  7 30  1  0  0  0  0
  7 31  1  0  0  0  0
  8  9  1  0  0  0  0
  8 32  1  0  0  0  0
  8 33  1  0  0  0  0
  9 10  1  0  0  0  0
  9 34  1  0  0  0  0
  9 35  1  0  0  0  0
 10 11  1  0  0  0  0
 10 36  1  0  0  0  0
 11 12  2  0  0  0  0
 11 13  1  0  0  0  0
 13 14  1  0  0  0  0
 14 18  1  0  0  0  0
 14 15  2  0  0  0  0
 15 16  1  0  0  0  0
 16 17  2  0  0  0  0
 17 18  1  0  0  0  0
 17 37  1  0  0  0  0
 19 38  1  0  0  0  0
 19 39  1  0  0  0  0
M  CHG  1   6   1
M  CHG  1  13  -1
M  END
> <s_m_source_file>
AV-unprocessed.smi

> <i_m_source_file_index>
1802

> <i_lp_mmshare_version>
43012

> <i_f3d_flags>
0

> <s_epik_input>
W0NIM11bQ0BASF0xW0NIMl1bQ0gyXVtDSDJdTihbQ0gyXTEpW0NIMl1bQ0gyXVtDSDJdW05IXUMoPU8pW05IXWMybm5bY0hdczI=

> <s_epik_cmdline>
J2VwaWtfcHl0aG9uJywgJy1waCcsICc3LjAnLCAnLXRuJywgJzgnLCAnLW1hJywgJzIwMCcsICctbWV0YWxfYmluZGluZycsICctaW1hZScsICc8aW5maWxlLm1hZT4nLCAnLW9tYWUnLCAnPG91dGZpbGUubWFlPic=

> <r_lp_tautomer_probability>
1

> <r_epik_Ionization_Penalty>
3.29702

> <r_epik_Ionization_Penalty_Charging>
3.26059

> <r_epik_Ionization_Penalty_Neutral>
0.0364294

> <r_epik_State_Penalty>
3.25788

> <r_epik_Charging_Adjusted_Penalty>
6.51847

> <i_epik_Tot_Q>
0

> <i_epik_Tot_abs_Q>
2

> <r_epik_Metal_State_Penalty>
0.477639

> <b_epik_Metal_Only>
1

> <s_lp_Force_Field>
OPLS_2005

> <r_lp_Energy>
11.8287

> <b_lp_Chiralities_Consistent>
1

> <s_lp_Variant>
AV-unprocessed.smi:1802-6

> <Gold.Version>
5.8.1

> <Gold.Id.Protein>
6NUR|6NUR_protein|mol2

> <Gold.PLP.Fitness>
46.7446

> <Gold.PLP.PLP>
-35.3756

> <Gold.PLP.part.hbond>
-3.0000

> <Gold.PLP.part.metal>
0.0000

> <Gold.PLP.part.buried>
-4.2508

> <Gold.PLP.part.nonpolar>
-28.3099

> <Gold.PLP.part.repulsive>
0.4117

> <Gold.PLP.ligand.clash>
0.0000

> <Gold.PLP.ligand.torsion>
1.0784

> <Gold.PLP.Chemscore.Hbond>
3.5928

> <Gold.PLP.Chemscore.CHOScore>
0.9040

> <Gold.PLP.Chemscore.Metal>
0.0000

> <Gold.Chemscore.Hbonds>
donor molecule, donor type, donor heavy atom, donor atom, acceptor molecule, acceptor atom, score
      L1  H     6    40       P1 10747  1.00
      P1  H  6896  6909       L1    12  0.56
      P1  H 10752 10763       L1    13  2.00
      L1  C    17    37       P1  7957  0.99

> <Gold.PLP.Chemscore.Internal.Correction>
0.0352

> <Gold.Rescore>
     Score         DG    S(hbond)    S(metal)    S(lipo)     H(rot)  DE(clash)    DE(int)     intcor
     16.63     -17.83       2.22        0.00      84.51       1.94       0.12       1.08       ----

> <Gold.Chemscore.Fitness>
16.6282

> <Gold.Chemscore.DG>
-17.8293

> <Gold.Chemscore.ZeroCoef>
-5.4800

> <Gold.Chemscore.Hbond>
2.2228

> <Gold.Chemscore.Metal>
0.0000

> <Gold.Chemscore.Lipo>
84.5061

> <Gold.Chemscore.Internal_Hbond>
0.0000

> <Gold.Chemscore.DEClash>
0.1224

> <Gold.Chemscore.DEInternal>
1.0787

> <Gold.Chemscore.Rot>
1.9383

> <Gold.Chemscore.Internal.Correction>
   9.000000E+99

> <Gold.Chemscore.Hbonds>
donor molecule, donor type, donor heavy atom, donor atom, acceptor molecule, acceptor atom, score
      L1  H     6    40       P1 10747  1.00
      P1  H  6896  6909       L1    12  0.53
      P1  H 10752 10763       L1    13  0.33

> <Gold.Chemscore.Hbond.Weighted>
-7.4242

> <Gold.Chemscore.Metal.Weighted>
-0.0000

> <Gold.Chemscore.Lipo.Weighted>
-9.8872

> <Gold.Chemscore.Internal_Hbond.Weighted>
0.0000

> <Gold.Chemscore.DEClash.Weighted>
0.1224

> <Gold.Chemscore.DEInternal.Weighted>
1.0787

> <Gold.Chemscore.Rot.Weighted>
4.9620

> <Gold.Chemscore.Internal.Correction.Weighted>
   9.000000E+99

> <Gold.Protein.RotatedTorsions>
[ 6907 6896 6895 6894 ] final   -5.01 input  -60.11 | X-H torsion
[ 7974 7965 7964 7962 ] final  -24.47 input  175.53 | X-H torsion
[ 8008 7997 7996 7995 ] final  -73.28 input   59.86 | X-H torsion
[ 10167 10162 10161 10158 ] final  130.82 input  -65.29 | X-H torsion
[ 10718 10713 10712 10709 ] final   77.30 input   66.30 | X-H torsion
[ 10763 10752 10751 10750 ] final   59.72 input  -60.55 | X-H torsion
[ 11005 11000 10999 10996 ] final -118.72 input  -57.11 | X-H torsion

> <Gold.Protein.ActiveResidues>
 VAL166  LYS551  ARG553  GLY616  TRP617  ASP618  TYR619  PRO620  LYS621  CYS622 
 ASP623  PHE694  ASN695  SER759  ASP760  ASP761  ALA762  ILE779  LEU786  VAL792 
 PHE793  MET794  SER795  GLU796  ALA797  LYS798  CYS799  TRP800  GLU811  SER814 

> <Gold.Protein.RotatedAtoms>
  151.4885  135.1056  159.9796 H   0  0  0  0  0  0  0  0  0  0  0  0  # atno 6907 bound_to 6896
  152.4751  133.8114  159.7016 H   0  0  0  0  0  0  0  0  0  0  0  0  # atno 6908 bound_to 6896
  150.8783  133.7345  159.2966 H   0  0  0  0  0  0  0  0  0  0  0  0  # atno 6909 bound_to 6896
  146.1553  140.4756  142.8594 H   0  0  0  0  0  0  0  0  0  0  0  0  # atno 7974 bound_to 7965
  154.5234  140.0782  156.8214 H   0  0  0  0  0  0  0  0  0  0  0  0  # atno 8008 bound_to 7997
  155.3527  140.3413  155.4221 H   0  0  0  0  0  0  0  0  0  0  0  0  # atno 8009 bound_to 7997
  156.1705  140.1618  156.8442 H   0  0  0  0  0  0  0  0  0  0  0  0  # atno 8010 bound_to 7997
  139.5412  144.6732  151.4618 H   0  0  0  0  0  0  0  0  0  0  0  0  # atno 10167 bound_to 10162
  157.6705  130.9815  150.1621 H   0  0  0  0  0  0  0  0  0  0  0  0  # atno 10718 bound_to 10713
  152.9902  135.5562  154.5758 H   0  0  0  0  0  0  0  0  0  0  0  0  # atno 10763 bound_to 10752
  154.5149  135.2804  155.1314 H   0  0  0  0  0  0  0  0  0  0  0  0  # atno 10764 bound_to 10752
  154.2690  135.6366  153.5356 H   0  0  0  0  0  0  0  0  0  0  0  0  # atno 10765 bound_to 10752
  141.0266  134.0044  157.3205 H   0  0  0  0  0  0  0  0  0  0  0  0  # atno 11005 bound_to 11000
  144.7955  140.6114  143.6513 LP  0  0  0  0  0  0  0  0  0  0  0  0  # atno 17320 bound_to 7965
  145.4724  139.1502  143.3806 LP  0  0  0  0  0  0  0  0  0  0  0  0  # atno 17321 bound_to 7965
  140.6643  143.8432  150.6923 LP  0  0  0  0  0  0  0  0  0  0  0  0  # atno 17342 bound_to 10162
  140.1836  143.4094  152.1915 LP  0  0  0  0  0  0  0  0  0  0  0  0  # atno 17343 bound_to 10162
  156.2395  130.3689  149.8353 LP  0  0  0  0  0  0  0  0  0  0  0  0  # atno 17370 bound_to 10713
  156.6157  130.8605  151.3464 LP  0  0  0  0  0  0  0  0  0  0  0  0  # atno 17371 bound_to 10713
  139.9180  135.0198  156.7956 LP  0  0  0  0  0  0  0  0  0  0  0  0  # atno 17394 bound_to 11000
  140.6480  133.9757  155.7740 LP  0  0  0  0  0  0  0  0  0  0  0  0  # atno 17395 bound_to 11000

$$$$
