AV-unprocessed.smi:1328|AV-procd|sdf|5481|dock4
  -GOLD-   22720 5 53D 1   1.00000     0.00000
 Structure written by MMmdl.
 38 39  0  0  0  0  0  0  0  0  1 V2000
  148.9361  141.1777  157.9102 C   0  0  0  0  0  0  0  0  0  0  0  0
  149.8505  140.7312  156.8055 C   0  0  0  0  0  0  0  0  0  0  0  0
  149.6342  141.1447  155.5680 N   0  0  0  0  0  0  0  0  0  0  0  0
  150.6380  140.5611  154.7887 O   0  0  0  0  0  0  0  0  0  0  0  0
  151.4277  139.8101  155.5976 C   0  0  0  0  0  0  0  0  0  0  0  0
  152.5625  139.0936  154.9475 C   0  0  0  0  0  0  0  0  0  0  0  0
  150.9871  139.8777  156.8909 C   0  0  0  0  0  0  0  0  0  0  0  0
  151.5570  139.2100  158.1178 C   0  0  0  0  0  0  0  0  0  0  0  0
  152.7435  139.9998  158.6822 C   0  0  0  0  0  0  0  0  0  0  0  0
  153.8642  139.4929  158.7516 O   0  0  0  0  0  0  0  0  0  0  0  0
  152.4788  141.2571  159.0705 N   0  0  0  0  0  0  0  0  0  0  0  0
  153.4499  142.2041  159.6142 C   0  0  2  0  0  0  0  0  0  0  0  0
  154.0530  141.6014  160.8922 C   0  0  0  0  0  0  0  0  0  0  0  0
  152.7708  143.5661  159.8736 C   0  0  1  0  0  0  0  0  0  0  0  0
  152.2162  144.2530  158.6270 C   0  0  0  0  0  0  0  0  0  0  0  0
  151.2047  145.2241  159.2050 C   0  0  0  0  0  0  0  0  0  0  0  0
  150.7900  144.5716  160.5266 C   0  0  0  0  0  0  0  0  0  0  0  0
  151.5985  143.4082  160.6603 O   0  0  0  0  0  0  0  0  0  0  0  0
  149.4652  141.8142  158.6193 H   0  0  0  0  0  0  0  0  0  0  0  0
  148.5438  140.3223  158.4603 H   0  0  0  0  0  0  0  0  0  0  0  0
  148.0850  141.7433  157.5286 H   0  0  0  0  0  0  0  0  0  0  0  0
  152.8328  138.2007  155.5116 H   0  0  0  0  0  0  0  0  0  0  0  0
  153.4407  139.7364  154.8886 H   0  0  0  0  0  0  0  0  0  0  0  0
  152.2996  138.7836  153.9360 H   0  0  0  0  0  0  0  0  0  0  0  0
  150.8053  139.1212  158.9028 H   0  0  0  0  0  0  0  0  0  0  0  0
  151.8778  138.1925  157.8900 H   0  0  0  0  0  0  0  0  0  0  0  0
  151.5307  141.5897  158.9709 H   0  0  0  0  0  0  0  0  0  0  0  0
  154.2631  142.3440  158.8997 H   0  0  0  0  0  0  0  0  0  0  0  0
  154.8381  142.2380  161.3003 H   0  0  0  0  0  0  0  0  0  0  0  0
  154.4989  140.6262  160.6934 H   0  0  0  0  0  0  0  0  0  0  0  0
  153.2955  141.4697  161.6656 H   0  0  0  0  0  0  0  0  0  0  0  0
  153.4536  144.2411  160.3937 H   0  0  0  0  0  0  0  0  0  0  0  0
  152.9848  144.7493  158.0340 H   0  0  0  0  0  0  0  0  0  0  0  0
  151.7094  143.5273  157.9895 H   0  0  0  0  0  0  0  0  0  0  0  0
  151.6733  146.1901  159.3968 H   0  0  0  0  0  0  0  0  0  0  0  0
  150.3606  145.3861  158.5340 H   0  0  0  0  0  0  0  0  0  0  0  0
  150.9690  145.2452  161.3654 H   0  0  0  0  0  0  0  0  0  0  0  0
  149.7360  144.2927  160.5337 H   0  0  0  0  0  0  0  0  0  0  0  0
  1  2  1  0  0  0  0
  1 19  1  0  0  0  0
  1 20  1  0  0  0  0
  1 21  1  0  0  0  0
  2  7  1  0  0  0  0
  2  3  2  0  0  0  0
  3  4  1  0  0  0  0
  4  5  1  0  0  0  0
  5  6  1  0  0  0  0
  5  7  2  0  0  0  0
  6 22  1  0  0  0  0
  6 23  1  0  0  0  0
  6 24  1  0  0  0  0
  7  8  1  0  0  0  0
  8  9  1  0  0  0  0
  8 25  1  0  0  0  0
  8 26  1  0  0  0  0
  9 10  2  0  0  0  0
  9 11  1  0  0  0  0
 11 12  1  0  0  0  0
 11 27  1  0  0  0  0
 12 13  1  0  0  0  0
 12 14  1  0  0  0  0
 12 28  1  0  0  0  0
 13 29  1  0  0  0  0
 13 30  1  0  0  0  0
 13 31  1  0  0  0  0
 14 18  1  0  0  0  0
 14 15  1  0  0  0  0
 14 32  1  0  0  0  0
 15 16  1  0  0  0  0
 15 33  1  0  0  0  0
 15 34  1  0  0  0  0
 16 17  1  0  0  0  0
 16 35  1  0  0  0  0
 16 36  1  0  0  0  0
 17 18  1  0  0  0  0
 17 37  1  0  0  0  0
 17 38  1  0  0  0  0
M  END
> <s_m_source_file>
AV-unprocessed.smi

> <i_m_source_file_index>
1328

> <i_lp_mmshare_version>
43012

> <i_f3d_flags>
0

> <s_epik_input>
W0NIM11jMW5vYyhbQ0gzXSljMVtDSDJdQyg9TylbTkhdW0NASF0oW0NIM10pW0NAQEhdMltDSDJdW0NIMl1bQ0gyXU8y

> <s_epik_cmdline>
J2VwaWtfcHl0aG9uJywgJy1waCcsICc3LjAnLCAnLXRuJywgJzgnLCAnLW1hJywgJzIwMCcsICctbWV0YWxfYmluZGluZycsICctaW1hZScsICc8aW5maWxlLm1hZT4nLCAnLW9tYWUnLCAnPG91dGZpbGUubWFlPic=

> <r_lp_tautomer_probability>
1

> <r_epik_Ionization_Penalty>
2.66156e-08

> <r_epik_Ionization_Penalty_Charging>
0

> <r_epik_Ionization_Penalty_Neutral>
2.66156e-08

> <r_epik_State_Penalty>
-0

> <r_epik_Charging_Adjusted_Penalty>
0

> <i_epik_Tot_Q>
0

> <i_epik_Tot_abs_Q>
0

> <r_epik_Metal_State_Penalty>
-0

> <b_epik_Metal_Only>
0

> <s_lp_Force_Field>
OPLS_2005

> <r_lp_Energy>
12.7116

> <b_lp_Chiralities_Consistent>
1

> <s_lp_Variant>
AV-unprocessed.smi:1328-3

> <Gold.Version>
5.8.1

> <Gold.Id.Protein>
6NUR|6NUR_protein|mol2

> <Gold.PLP.Fitness>
45.4511

> <Gold.PLP.PLP>
-40.0983

> <Gold.PLP.part.hbond>
-1.9610

> <Gold.PLP.part.metal>
0.0000

> <Gold.PLP.part.buried>
-5.2645

> <Gold.PLP.part.nonpolar>
-32.6686

> <Gold.PLP.part.repulsive>
0.3851

> <Gold.PLP.ligand.clash>
0.0000

> <Gold.PLP.ligand.torsion>
0.3529

> <Gold.PLP.Chemscore.Hbond>
2.0000

> <Gold.PLP.Chemscore.CHOScore>
0.0000

> <Gold.PLP.Chemscore.Metal>
0.0000

> <Gold.Chemscore.Hbonds>
donor molecule, donor type, donor heavy atom, donor atom, acceptor molecule, acceptor atom, score
      P1  H  7989  7998       L1     4  1.00
      P1  H  7997  8010       L1    10  1.00

> <Gold.PLP.Chemscore.Internal.Correction>
0.0586

> <Gold.Rescore>
     Score         DG    S(hbond)    S(metal)    S(lipo)     H(rot)  DE(clash)    DE(int)     intcor
     19.44     -20.09       1.89        0.00     104.17       1.52       0.04       0.61       ----

> <Gold.Chemscore.Fitness>
19.4359

> <Gold.Chemscore.DG>
-20.0906

> <Gold.Chemscore.ZeroCoef>
-5.4800

> <Gold.Chemscore.Hbond>
1.8872

> <Gold.Chemscore.Metal>
0.0000

> <Gold.Chemscore.Lipo>
104.1709

> <Gold.Chemscore.Internal_Hbond>
0.0000

> <Gold.Chemscore.DEClash>
0.0420

> <Gold.Chemscore.DEInternal>
0.6126

> <Gold.Chemscore.Rot>
1.5159

> <Gold.Chemscore.Internal.Correction>
   9.000000E+99

> <Gold.Chemscore.Hbonds>
donor molecule, donor type, donor heavy atom, donor atom, acceptor molecule, acceptor atom, score
      P1  H  7989  7998       L1     4  0.37
      P1  H  7997  8010       L1    10  0.45

> <Gold.Chemscore.Hbond.Weighted>
-6.3033

> <Gold.Chemscore.Metal.Weighted>
-0.0000

> <Gold.Chemscore.Lipo.Weighted>
-12.1880

> <Gold.Chemscore.Internal_Hbond.Weighted>
0.0000

> <Gold.Chemscore.DEClash.Weighted>
0.0420

> <Gold.Chemscore.DEInternal.Weighted>
0.6126

> <Gold.Chemscore.Rot.Weighted>
3.8807

> <Gold.Chemscore.Internal.Correction.Weighted>
   9.000000E+99

> <Gold.Protein.RotatedTorsions>
[ 6907 6896 6895 6894 ] final   37.35 input  -60.11 | X-H torsion
[ 7974 7965 7964 7962 ] final  -23.54 input  175.53 | X-H torsion
[ 8008 7997 7996 7995 ] final   26.91 input   59.86 | X-H torsion
[ 10167 10162 10161 10158 ] final  -61.78 input  -65.29 | X-H torsion
[ 10718 10713 10712 10709 ] final   34.61 input   66.30 | X-H torsion
[ 10763 10752 10751 10750 ] final -176.14 input  -60.55 | X-H torsion
[ 11005 11000 10999 10996 ] final   38.22 input  -57.11 | X-H torsion

> <Gold.Protein.ActiveResidues>
 VAL166  LYS551  ARG553  GLY616  TRP617  ASP618  TYR619  PRO620  LYS621  CYS622 
 ASP623  PHE694  ASN695  SER759  ASP760  ASP761  ALA762  ILE779  LEU786  VAL792 
 PHE793  MET794  SER795  GLU796  ALA797  LYS798  CYS799  TRP800  GLU811  SER814 

> <Gold.Protein.RotatedAtoms>
  152.1420  134.9055  160.0552 H   0  0  0  0  0  0  0  0  0  0  0  0  # atno 6907 bound_to 6896
  152.0119  133.3860  159.4231 H   0  0  0  0  0  0  0  0  0  0  0  0  # atno 6908 bound_to 6896
  150.6866  134.3642  159.5007 H   0  0  0  0  0  0  0  0  0  0  0  0  # atno 6909 bound_to 6896
  146.1610  140.4629  142.8571 H   0  0  0  0  0  0  0  0  0  0  0  0  # atno 7974 bound_to 7965
  155.0347  140.3162  155.4746 H   0  0  0  0  0  0  0  0  0  0  0  0  # atno 8008 bound_to 7997
  156.2867  140.2174  156.5412 H   0  0  0  0  0  0  0  0  0  0  0  0  # atno 8009 bound_to 7997
  154.7340  140.0479  157.0740 H   0  0  0  0  0  0  0  0  0  0  0  0  # atno 8010 bound_to 7997
  140.5983  143.2356  151.5986 H   0  0  0  0  0  0  0  0  0  0  0  0  # atno 10167 bound_to 10162
  157.3125  130.7406  149.6734 H   0  0  0  0  0  0  0  0  0  0  0  0  # atno 10718 bound_to 10713
  154.5760  135.2832  155.0780 H   0  0  0  0  0  0  0  0  0  0  0  0  # atno 10763 bound_to 10752
  154.2135  135.6404  153.5126 H   0  0  0  0  0  0  0  0  0  0  0  0  # atno 10764 bound_to 10752
  153.0072  135.5497  154.6398 H   0  0  0  0  0  0  0  0  0  0  0  0  # atno 10765 bound_to 10752
  140.2148  134.3712  155.8032 H   0  0  0  0  0  0  0  0  0  0  0  0  # atno 11005 bound_to 11000
  144.8027  140.6243  143.6467 LP  0  0  0  0  0  0  0  0  0  0  0  0  # atno 17320 bound_to 7965
  145.4588  139.1515  143.3878 LP  0  0  0  0  0  0  0  0  0  0  0  0  # atno 17321 bound_to 7965
  139.5273  144.3020  152.1066 LP  0  0  0  0  0  0  0  0  0  0  0  0  # atno 17342 bound_to 10162
  140.2196  144.4480  150.6348 LP  0  0  0  0  0  0  0  0  0  0  0  0  # atno 17343 bound_to 10162
  155.9679  130.4247  150.4621 LP  0  0  0  0  0  0  0  0  0  0  0  0  # atno 17370 bound_to 10713
  157.2622  131.0569  151.2313 LP  0  0  0  0  0  0  0  0  0  0  0  0  # atno 17371 bound_to 10713
  141.2225  133.7162  156.8477 LP  0  0  0  0  0  0  0  0  0  0  0  0  # atno 17394 bound_to 11000
  140.1912  134.8964  157.3063 LP  0  0  0  0  0  0  0  0  0  0  0  0  # atno 17395 bound_to 11000

$$$$
