AV-unprocessed.smi:3348|AV-procd|sdf|12920|dock4
  -GOLD-   2272019343D 1   1.00000     0.00000
 Structure written by MMmdl.
 47 48  0  0  0  0  0  0  0  0  2 V2000
  143.8368  136.5675  152.3965 C   0  0  0  0  0  0  0  0  0  0  0  0
  145.1751  136.1153  151.7976 C   0  0  1  0  0  0  0  0  0  0  0  0
  144.9729  135.4589  150.4170 C   0  0  0  0  0  0  0  0  0  0  0  0
  144.9149  134.0095  150.4919 N   0  0  0  0  0  0  0  0  0  0  0  0
  143.8235  133.2075  150.7513 C   0  0  0  0  0  0  0  0  0  0  0  0
  144.2573  131.9130  150.7288 C   0  0  0  0  0  0  0  0  0  0  0  0
  145.6463  132.0256  150.4416 C   0  0  0  0  0  0  0  0  0  0  0  0
  146.0376  133.2821  150.3019 N   0  0  0  0  0  0  0  0  0  0  0  0
  146.0886  137.2754  151.6975 N   0  3  0  0  0  0  0  0  0  0  0  0
  146.3115  138.0010  152.9647 C   0  0  0  0  0  0  0  0  0  0  0  0
  146.9145  139.3832  152.7018 C   0  0  0  0  0  0  0  0  0  0  0  0
  146.6701  140.2067  153.8314 O   0  0  0  0  0  0  0  0  0  0  0  0
  147.3403  141.4623  153.7985 C   0  0  2  0  0  0  0  0  0  0  0  0
  148.8399  141.2001  154.0310 C   0  0  0  0  0  0  0  0  0  0  0  0
  149.1179  140.6690  155.4473 C   0  0  0  0  0  0  0  0  0  0  0  0
  148.5488  141.6124  156.5173 C   0  0  0  0  0  0  0  0  0  0  0  0
  147.0483  141.8631  156.2988 C   0  0  0  0  0  0  0  0  0  0  0  0
  146.7646  142.4037  154.8831 C   0  0  2  0  0  0  0  0  0  0  0  0
  145.2713  142.7011  154.6778 C   0  0  0  0  0  0  0  0  0  0  0  0
  143.1531  135.7258  152.5105 H   0  0  0  0  0  0  0  0  0  0  0  0
  143.3475  137.3093  151.7640 H   0  0  0  0  0  0  0  0  0  0  0  0
  143.9781  137.0113  153.3825 H   0  0  0  0  0  0  0  0  0  0  0  0
  145.6021  135.3729  152.4745 H   0  0  0  0  0  0  0  0  0  0  0  0
  144.0410  135.8082  149.9704 H   0  0  0  0  0  0  0  0  0  0  0  0
  145.7711  135.7472  149.7308 H   0  0  0  0  0  0  0  0  0  0  0  0
  142.8410  133.6195  150.9295 H   0  0  0  0  0  0  0  0  0  0  0  0
  143.6712  131.0206  150.8910 H   0  0  0  0  0  0  0  0  0  0  0  0
  146.3767  131.2375  150.3322 H   0  0  0  0  0  0  0  0  0  0  0  0
  146.9802  136.9438  151.3569 H   0  0  0  0  0  0  0  0  0  0  0  0
  145.3703  138.0937  153.5078 H   0  0  0  0  0  0  0  0  0  0  0  0
  146.9924  137.4238  153.5915 H   0  0  0  0  0  0  0  0  0  0  0  0
  147.9902  139.2934  152.5442 H   0  0  0  0  0  0  0  0  0  0  0  0
  146.4857  139.8175  151.7977 H   0  0  0  0  0  0  0  0  0  0  0  0
  147.2311  141.9353  152.8203 H   0  0  0  0  0  0  0  0  0  0  0  0
  149.2146  140.4948  153.2886 H   0  0  0  0  0  0  0  0  0  0  0  0
  149.3953  142.1266  153.8800 H   0  0  0  0  0  0  0  0  0  0  0  0
  148.6771  139.6779  155.5622 H   0  0  0  0  0  0  0  0  0  0  0  0
  150.1913  140.5471  155.5935 H   0  0  0  0  0  0  0  0  0  0  0  0
  148.7143  141.1918  157.5095 H   0  0  0  0  0  0  0  0  0  0  0  0
  149.0859  142.5613  156.4903 H   0  0  0  0  0  0  0  0  0  0  0  0
  146.4958  140.9364  156.4605 H   0  0  0  0  0  0  0  0  0  0  0  0
  146.6871  142.5703  157.0462 H   0  0  0  0  0  0  0  0  0  0  0  0
  147.2883  143.3566  154.7907 H   0  0  0  0  0  0  0  0  0  0  0  0
  144.6649  141.8021  154.7895 H   0  0  0  0  0  0  0  0  0  0  0  0
  145.0850  143.1116  153.6851 H   0  0  0  0  0  0  0  0  0  0  0  0
  144.9151  143.4303  155.4059 H   0  0  0  0  0  0  0  0  0  0  0  0
  145.7108  137.9269  151.0242 H   0  0  0  0  0  0  0  0  0  0  0  0
  1  2  1  0  0  0  0
  1 20  1  0  0  0  0
  1 21  1  0  0  0  0
  1 22  1  0  0  0  0
  2  3  1  0  0  0  0
  2  9  1  0  0  0  0
  2 23  1  0  0  0  0
  3  4  1  0  0  0  0
  3 24  1  0  0  0  0
  3 25  1  0  0  0  0
  4  8  1  0  0  0  0
  4  5  1  0  0  0  0
  5  6  2  0  0  0  0
  5 26  1  0  0  0  0
  6  7  1  0  0  0  0
  6 27  1  0  0  0  0
  7  8  2  0  0  0  0
  7 28  1  0  0  0  0
  9 10  1  0  0  0  0
  9 29  1  0  0  0  0
  9 47  1  0  0  0  0
 10 11  1  0  0  0  0
 10 30  1  0  0  0  0
 10 31  1  0  0  0  0
 11 12  1  0  0  0  0
 11 32  1  0  0  0  0
 11 33  1  0  0  0  0
 12 13  1  0  0  0  0
 13 18  1  0  0  0  0
 13 14  1  0  0  0  0
 13 34  1  0  0  0  0
 14 15  1  0  0  0  0
 14 35  1  0  0  0  0
 14 36  1  0  0  0  0
 15 16  1  0  0  0  0
 15 37  1  0  0  0  0
 15 38  1  0  0  0  0
 16 17  1  0  0  0  0
 16 39  1  0  0  0  0
 16 40  1  0  0  0  0
 17 18  1  0  0  0  0
 17 41  1  0  0  0  0
 17 42  1  0  0  0  0
 18 19  1  0  0  0  0
 18 43  1  0  0  0  0
 19 44  1  0  0  0  0
 19 45  1  0  0  0  0
 19 46  1  0  0  0  0
M  CHG  1   9   1
M  END
> <s_m_source_file>
AV-unprocessed.smi

> <i_m_source_file_index>
3348

> <i_lp_mmshare_version>
43012

> <i_f3d_flags>
0

> <s_epik_input>
bjFbY0hdW2NIXVtjSF1uMVtDSDJdW0NAQEhdKFtDSDNdKVtOSF1bQ0gyXVtDSDJdT1tDQEBIXTJbQ0gyXVtDSDJdW0NIMl1bQ0gyXVtDQEhdMltDSDNd

> <s_epik_cmdline>
J2VwaWtfcHl0aG9uJywgJy1waCcsICc3LjAnLCAnLXRuJywgJzgnLCAnLW1hJywgJzIwMCcsICctbWV0YWxfYmluZGluZycsICctaW1hZScsICc8aW5maWxlLm1hZT4nLCAnLW9tYWUnLCAnPG91dGZpbGUubWFlPic=

> <r_lp_tautomer_probability>
1

> <r_epik_Ionization_Penalty>
0.00925088

> <r_epik_Ionization_Penalty_Charging>
0.00924645

> <r_epik_Ionization_Penalty_Neutral>
4.42413e-06

> <r_epik_State_Penalty>
0.0070118

> <r_epik_Charging_Adjusted_Penalty>
0.0162583

> <i_epik_Tot_Q>
1

> <i_epik_Tot_abs_Q>
1

> <r_epik_Metal_State_Penalty>
0.00701222

> <b_epik_Metal_Only>
0

> <s_lp_Force_Field>
OPLS_2005

> <r_lp_Energy>
18.0188

> <b_lp_Chiralities_Consistent>
1

> <s_lp_Variant>
AV-unprocessed.smi:3348-6

> <Gold.Version>
5.8.1

> <Gold.Id.Protein>
6NUR|6NUR_protein|mol2

> <Gold.PLP.Fitness>
47.7601

> <Gold.PLP.PLP>
-37.6528

> <Gold.PLP.part.hbond>
-1.1630

> <Gold.PLP.part.metal>
0.0000

> <Gold.PLP.part.buried>
-2.4724

> <Gold.PLP.part.nonpolar>
-33.8588

> <Gold.PLP.part.repulsive>
0.4069

> <Gold.PLP.ligand.clash>
0.0000

> <Gold.PLP.ligand.torsion>
1.1474

> <Gold.PLP.Chemscore.Hbond>
2.1074

> <Gold.PLP.Chemscore.CHOScore>
1.9976

> <Gold.PLP.Chemscore.Metal>
0.0000

> <Gold.Chemscore.Hbonds>
donor molecule, donor type, donor heavy atom, donor atom, acceptor molecule, acceptor atom, score
      L1  H     9    29       P1  7948  1.50
      L1  H     9    47       P1 10171  0.32
      L1  C     5    26       P1 10186  1.00
      L1  C     7    28       P1 10747  0.78

> <Gold.PLP.Chemscore.Internal.Correction>
0.0870

> <Gold.Rescore>
     Score         DG    S(hbond)    S(metal)    S(lipo)     H(rot)  DE(clash)    DE(int)     intcor
     13.72     -14.79       1.00        0.00      90.90       1.82       0.09       0.99       ----

> <Gold.Chemscore.Fitness>
13.7217

> <Gold.Chemscore.DG>
-14.7946

> <Gold.Chemscore.ZeroCoef>
-5.4800

> <Gold.Chemscore.Hbond>
0.9968

> <Gold.Chemscore.Metal>
0.0000

> <Gold.Chemscore.Lipo>
90.8980

> <Gold.Chemscore.Internal_Hbond>
0.0000

> <Gold.Chemscore.DEClash>
0.0872

> <Gold.Chemscore.DEInternal>
0.9858

> <Gold.Chemscore.Rot>
1.8163

> <Gold.Chemscore.Internal.Correction>
   9.000000E+99

> <Gold.Chemscore.Hbonds>
donor molecule, donor type, donor heavy atom, donor atom, acceptor molecule, acceptor atom, score
      L1  H     9    29       P1  7948  0.71
      L1  H     9    47       P1 10171  0.32

> <Gold.Chemscore.Hbond.Weighted>
-3.3293

> <Gold.Chemscore.Metal.Weighted>
-0.0000

> <Gold.Chemscore.Lipo.Weighted>
-10.6351

> <Gold.Chemscore.Internal_Hbond.Weighted>
0.0000

> <Gold.Chemscore.DEClash.Weighted>
0.0872

> <Gold.Chemscore.DEInternal.Weighted>
0.9858

> <Gold.Chemscore.Rot.Weighted>
4.6497

> <Gold.Chemscore.Internal.Correction.Weighted>
   9.000000E+99

> <Gold.Protein.RotatedTorsions>
[ 6907 6896 6895 6894 ] final  -31.57 input  -60.11 | X-H torsion
[ 7974 7965 7964 7962 ] final   49.74 input  175.53 | X-H torsion
[ 8008 7997 7996 7995 ] final    0.64 input   59.86 | X-H torsion
[ 10167 10162 10161 10158 ] final -115.17 input  -65.29 | X-H torsion
[ 10718 10713 10712 10709 ] final  139.78 input   66.30 | X-H torsion
[ 10763 10752 10751 10750 ] final -151.15 input  -60.55 | X-H torsion
[ 11005 11000 10999 10996 ] final   80.25 input  -57.11 | X-H torsion

> <Gold.Protein.ActiveResidues>
 VAL166  LYS551  ARG553  GLY616  TRP617  ASP618  TYR619  PRO620  LYS621  CYS622 
 ASP623  PHE694  ASN695  SER759  ASP760  ASP761  ALA762  ILE779  LEU786  VAL792 
 PHE793  MET794  SER795  GLU796  ALA797  LYS798  CYS799  TRP800  GLU811  SER814 

> <Gold.Protein.RotatedAtoms>
  151.0903  134.9912  159.8398 H   0  0  0  0  0  0  0  0  0  0  0  0  # atno 6907 bound_to 6896
  152.5428  134.2074  159.8746 H   0  0  0  0  0  0  0  0  0  0  0  0  # atno 6908 bound_to 6896
  151.2110  133.4512  159.2631 H   0  0  0  0  0  0  0  0  0  0  0  0  # atno 6909 bound_to 6896
  146.0079  139.4511  142.9974 H   0  0  0  0  0  0  0  0  0  0  0  0  # atno 7974 bound_to 7965
  154.6704  140.2610  155.7013 H   0  0  0  0  0  0  0  0  0  0  0  0  # atno 8008 bound_to 7997
  156.2656  140.2830  156.1133 H   0  0  0  0  0  0  0  0  0  0  0  0  # atno 8009 bound_to 7997
  155.1177  140.0376  157.2731 H   0  0  0  0  0  0  0  0  0  0  0  0  # atno 8010 bound_to 7997
  140.0929  143.4683  152.1859 H   0  0  0  0  0  0  0  0  0  0  0  0  # atno 10167 bound_to 10162
  157.4106  131.1027  151.0458 H   0  0  0  0  0  0  0  0  0  0  0  0  # atno 10718 bound_to 10713
  154.8075  135.3267  154.7392 H   0  0  0  0  0  0  0  0  0  0  0  0  # atno 10763 bound_to 10752
  153.8048  135.6900  153.4854 H   0  0  0  0  0  0  0  0  0  0  0  0  # atno 10764 bound_to 10752
  153.1831  135.4579  154.9998 H   0  0  0  0  0  0  0  0  0  0  0  0  # atno 10765 bound_to 10752
  139.9141  134.7906  156.1885 H   0  0  0  0  0  0  0  0  0  0  0  0  # atno 11005 bound_to 11000
  145.7387  141.0016  143.1313 LP  0  0  0  0  0  0  0  0  0  0  0  0  # atno 17320 bound_to 7965
  144.6942  139.9072  143.7461 LP  0  0  0  0  0  0  0  0  0  0  0  0  # atno 17321 bound_to 7965
  139.5714  144.7465  151.3880 LP  0  0  0  0  0  0  0  0  0  0  0  0  # atno 17342 bound_to 10162
  140.7019  143.7611  150.7416 LP  0  0  0  0  0  0  0  0  0  0  0  0  # atno 17343 bound_to 10162
  157.1424  130.6149  149.5559 LP  0  0  0  0  0  0  0  0  0  0  0  0  # atno 17370 bound_to 10713
  155.9849  130.4877  150.7007 LP  0  0  0  0  0  0  0  0  0  0  0  0  # atno 17371 bound_to 10713
  141.0598  133.6847  156.1931 LP  0  0  0  0  0  0  0  0  0  0  0  0  # atno 17394 bound_to 11000
  140.6679  134.4899  157.5586 LP  0  0  0  0  0  0  0  0  0  0  0  0  # atno 17395 bound_to 11000

$$$$
