AV-unprocessed.smi:109|AV-procd|sdf|1039|dock10
  -GOLD-   2262018 63D 1   1.00000     0.00000
 Structure written by MMmdl.
 58 61  0  0  0  0  0  0  0  0  1 V2000
  148.1303  137.5421  156.1817 O   0  0  0  0  0  0  0  0  0  0  0  0
  146.9655  136.7629  156.3482 C   0  0  0  0  0  0  0  0  0  0  0  0
  146.8545  136.2938  157.8093 C   0  0  0  0  0  0  0  0  0  0  0  0
  147.9666  135.3082  158.2447 C   0  0  2  0  0  0  0  0  0  0  0  0
  147.7993  134.0395  157.5327 N   0  0  0  0  0  0  0  0  0  0  0  0
  148.1544  133.8844  156.2375 C   0  0  0  0  0  0  0  0  0  0  0  0
  149.4497  133.9739  155.8381 N   0  0  0  0  0  0  0  0  0  0  0  0
  149.7640  133.8277  154.5476 C   0  0  0  0  0  0  0  0  0  0  0  0
  148.9541  133.5871  153.5142 N   0  0  0  0  0  0  0  0  0  0  0  0
  147.6523  133.4870  153.9110 C   0  0  0  0  0  0  0  0  0  0  0  0
  147.1751  133.6307  155.2430 C   0  0  0  0  0  0  0  0  0  0  0  0
  145.7941  133.4916  155.2650 N   0  0  0  0  0  0  0  0  0  0  0  0
  145.4783  133.2857  154.0148 C   0  0  0  0  0  0  0  0  0  0  0  0
  146.5401  133.2331  153.1348 N   0  0  0  0  0  0  0  0  0  0  0  0
  146.5219  133.0453  151.6471 C   0  0  2  0  0  0  0  0  0  0  0  0
  145.8159  134.1110  151.0774 O   0  0  0  0  0  0  0  0  0  0  0  0
  144.5189  133.7025  150.6464 C   0  0  2  0  0  0  0  0  0  0  0  0
  143.4892  133.8837  151.7853 C   0  0  0  0  0  0  0  0  0  0  0  0
  142.2899  133.2183  151.4527 O   0  0  0  0  0  0  0  0  0  0  0  0
  144.7787  132.2516  150.2205 C   0  0  2  0  0  0  0  0  0  0  0  0
  143.6062  131.4607  150.2022 O   0  0  0  0  0  0  0  0  0  0  0  0
  145.7862  131.7508  151.2475 C   0  0  1  0  0  0  0  0  0  0  0  0
  146.6575  130.8180  150.6390 O   0  0  0  0  0  0  0  0  0  0  0  0
  147.9963  135.0371  159.7766 C   0  0  0  0  0  0  0  0  0  0  0  0
  146.9108  134.0348  160.2427 C   0  0  0  0  0  0  0  0  0  0  0  0
  146.9325  133.8113  161.7640 C   0  0  0  0  0  0  0  0  0  0  0  0
  146.7861  135.1326  162.5282 C   0  0  0  0  0  0  0  0  0  0  0  0
  147.8708  136.1269  162.0982 C   0  0  0  0  0  0  0  0  0  0  0  0
  147.8434  136.3552  160.5792 C   0  0  0  0  0  0  0  0  0  0  0  0
  147.5733  133.0786  151.3580 H   0  0  0  0  0  0  0  0  0  0  0  0
  144.2093  134.2918  149.7822 H   0  0  0  0  0  0  0  0  0  0  0  0
  145.2239  132.2561  149.2239 H   0  0  0  0  0  0  0  0  0  0  0  0
  145.2832  131.3155  152.1128 H   0  0  0  0  0  0  0  0  0  0  0  0
  147.9727  138.3995  156.5464 H   0  0  0  0  0  0  0  0  0  0  0  0
  146.1037  137.3639  156.0581 H   0  0  0  0  0  0  0  0  0  0  0  0
  147.0118  135.9081  155.6728 H   0  0  0  0  0  0  0  0  0  0  0  0
  146.8906  137.1884  158.4285 H   0  0  0  0  0  0  0  0  0  0  0  0
  145.8759  135.8418  157.9776 H   0  0  0  0  0  0  0  0  0  0  0  0
  148.9243  135.7648  157.9956 H   0  0  0  0  0  0  0  0  0  0  0  0
  147.4473  133.2748  158.0908 H   0  0  0  0  0  0  0  0  0  0  0  0
  150.8137  133.9150  154.3089 H   0  0  0  0  0  0  0  0  0  0  0  0
  144.4515  133.1594  153.7046 H   0  0  0  0  0  0  0  0  0  0  0  0
  143.8486  133.4231  152.7054 H   0  0  0  0  0  0  0  0  0  0  0  0
  143.2964  134.9299  152.0164 H   0  0  0  0  0  0  0  0  0  0  0  0
  141.9147  133.6372  150.6933 H   0  0  0  0  0  0  0  0  0  0  0  0
  143.2560  131.4213  151.0792 H   0  0  0  0  0  0  0  0  0  0  0  0
  147.5386  131.1561  150.6820 H   0  0  0  0  0  0  0  0  0  0  0  0
  148.9684  134.6063  160.0224 H   0  0  0  0  0  0  0  0  0  0  0  0
  145.9255  134.3921  159.9406 H   0  0  0  0  0  0  0  0  0  0  0  0
  147.0494  133.0640  159.7700 H   0  0  0  0  0  0  0  0  0  0  0  0
  146.1324  133.1278  162.0495 H   0  0  0  0  0  0  0  0  0  0  0  0
  147.8675  133.3269  162.0480 H   0  0  0  0  0  0  0  0  0  0  0  0
  145.7999  135.5592  162.3407 H   0  0  0  0  0  0  0  0  0  0  0  0
  146.8487  134.9523  163.6018 H   0  0  0  0  0  0  0  0  0  0  0  0
  147.7317  137.0753  162.6181 H   0  0  0  0  0  0  0  0  0  0  0  0
  148.8515  135.7522  162.3945 H   0  0  0  0  0  0  0  0  0  0  0  0
  148.6381  137.0576  160.3270 H   0  0  0  0  0  0  0  0  0  0  0  0
  146.9079  136.8442  160.3036 H   0  0  0  0  0  0  0  0  0  0  0  0
  1  2  1  0  0  0  0
  1 34  1  0  0  0  0
  2  3  1  0  0  0  0
  2 35  1  0  0  0  0
  2 36  1  0  0  0  0
  3  4  1  0  0  0  0
  3 37  1  0  0  0  0
  3 38  1  0  0  0  0
  4  5  1  0  0  0  0
  4 24  1  0  0  0  0
  4 39  1  0  0  0  0
  5  6  1  0  0  0  0
  5 40  1  0  0  0  0
  6 11  1  0  0  0  0
  6  7  2  0  0  0  0
  7  8  1  0  0  0  0
  8  9  2  0  0  0  0
  8 41  1  0  0  0  0
  9 10  1  0  0  0  0
 10 14  1  0  0  0  0
 10 11  2  0  0  0  0
 11 12  1  0  0  0  0
 12 13  2  0  0  0  0
 13 14  1  0  0  0  0
 13 42  1  0  0  0  0
 14 15  1  0  0  0  0
 15 30  1  0  0  0  0
 15 22  1  0  0  0  0
 15 16  1  0  0  0  0
 16 17  1  0  0  0  0
 17 31  1  0  0  0  0
 17 18  1  0  0  0  0
 17 20  1  0  0  0  0
 18 19  1  0  0  0  0
 18 43  1  0  0  0  0
 18 44  1  0  0  0  0
 19 45  1  0  0  0  0
 20 32  1  0  0  0  0
 20 21  1  0  0  0  0
 20 22  1  0  0  0  0
 21 46  1  0  0  0  0
 22 33  1  0  0  0  0
 22 23  1  0  0  0  0
 23 47  1  0  0  0  0
 24 29  1  0  0  0  0
 24 25  1  0  0  0  0
 24 48  1  0  0  0  0
 25 26  1  0  0  0  0
 25 49  1  0  0  0  0
 25 50  1  0  0  0  0
 26 27  1  0  0  0  0
 26 51  1  0  0  0  0
 26 52  1  0  0  0  0
 27 28  1  0  0  0  0
 27 53  1  0  0  0  0
 27 54  1  0  0  0  0
 28 29  1  0  0  0  0
 28 55  1  0  0  0  0
 28 56  1  0  0  0  0
 29 57  1  0  0  0  0
 29 58  1  0  0  0  0
M  END
> <s_m_source_file>
AV-unprocessed.smi

> <i_m_source_file_index>
109

> <i_lp_mmshare_version>
43012

> <i_f3d_flags>
0

> <s_epik_input>
W0NIMl0xW0NIMl1bQ0gyXVtDSDJdW0NIMl1bQ0hdMVtDQEhdKFtDSDJdW0NIMl1bT0hdKVtOSF1jKG5bY0hdbjIpYyhjMjMpbltjSF1uM1tDQEBIXTRPW0NASF0oW0NIMl1bT0hdKVtDQEBIXShbT0hdKVtDQEhdNFtPSF0=

> <s_epik_cmdline>
J2VwaWtfcHl0aG9uJywgJy1waCcsICc3LjAnLCAnLXRuJywgJzgnLCAnLW1hJywgJzIwMCcsICctbWV0YWxfYmluZGluZycsICctaW1hZScsICc8aW5maWxlLm1hZT4nLCAnLW9tYWUnLCAnPG91dGZpbGUubWFlPic=

> <r_lp_tautomer_probability>
1

> <r_epik_Ionization_Penalty>
0.000793976

> <r_epik_Ionization_Penalty_Charging>
0

> <r_epik_Ionization_Penalty_Neutral>
0.000793976

> <r_epik_State_Penalty>
-0

> <r_epik_Charging_Adjusted_Penalty>
0

> <i_epik_Tot_Q>
0

> <i_epik_Tot_abs_Q>
0

> <r_epik_Metal_State_Penalty>
-0

> <b_epik_Metal_Only>
0

> <s_epik_Chemistry_Notes>
This compound contains an acetal/aminal-like group ( X-CH(R)-Y where X, Y are N, S, or O) that may be acid/base labile, releasing an aldehyde.

> <s_lp_Force_Field>
OPLS_2005

> <r_lp_Energy>
51.6151

> <b_lp_Chiralities_Consistent>
1

> <s_lp_Variant>
AV-unprocessed.smi:109-9

> <Gold.Version>
5.8.1

> <Gold.Id.Protein>
6NUR|6NUR_protein|mol2

> <Gold.PLP.Fitness>
48.1628

> <Gold.PLP.PLP>
-39.4636

> <Gold.PLP.part.hbond>
-3.3373

> <Gold.PLP.part.metal>
0.0000

> <Gold.PLP.part.buried>
-8.0127

> <Gold.PLP.part.nonpolar>
-29.0907

> <Gold.PLP.part.repulsive>
0.7393

> <Gold.PLP.ligand.clash>
0.0000

> <Gold.PLP.ligand.torsion>
1.2887

> <Gold.PLP.Chemscore.Hbond>
2.7523

> <Gold.PLP.Chemscore.CHOScore>
0.9597

> <Gold.PLP.Chemscore.Metal>
0.0000

> <Gold.Chemscore.Hbonds>
donor molecule, donor type, donor heavy atom, donor atom, acceptor molecule, acceptor atom, score
      L1  H    19    45       P1 10186  1.00
      L1  H    23    47       P1 10747  0.83
      P1  H 10785 10796       L1    21  0.86
      L1  C    13    42       P1 10957  0.96

> <Gold.PLP.Chemscore.Internal.Correction>
0.1405

> <Gold.Rescore>
     Score         DG    S(hbond)    S(metal)    S(lipo)     H(rot)  DE(clash)    DE(int)     intcor
      7.47      -9.61       2.71        0.00      77.48       5.47       0.02       2.13       ----

> <Gold.Chemscore.Fitness>
7.4701

> <Gold.Chemscore.DG>
-9.6145

> <Gold.Chemscore.ZeroCoef>
-5.4800

> <Gold.Chemscore.Hbond>
2.7134

> <Gold.Chemscore.Metal>
0.0000

> <Gold.Chemscore.Lipo>
77.4811

> <Gold.Chemscore.Internal_Hbond>
0.0000

> <Gold.Chemscore.DEClash>
0.0174

> <Gold.Chemscore.DEInternal>
2.1270

> <Gold.Chemscore.Rot>
5.4662

> <Gold.Chemscore.Internal.Correction>
   9.000000E+99

> <Gold.Chemscore.Hbonds>
donor molecule, donor type, donor heavy atom, donor atom, acceptor molecule, acceptor atom, score
      L1  H    19    45       P1 10186  0.78
      L1  H    23    47       P1 10747  0.77
      P1  H 10785 10796       L1    21  0.81

> <Gold.Chemscore.Hbond.Weighted>
-9.0627

> <Gold.Chemscore.Metal.Weighted>
-0.0000

> <Gold.Chemscore.Lipo.Weighted>
-9.0653

> <Gold.Chemscore.Internal_Hbond.Weighted>
0.0000

> <Gold.Chemscore.DEClash.Weighted>
0.0174

> <Gold.Chemscore.DEInternal.Weighted>
2.1270

> <Gold.Chemscore.Rot.Weighted>
13.9935

> <Gold.Chemscore.Internal.Correction.Weighted>
   9.000000E+99

> <Gold.Protein.RotatedTorsions>
[ 6907 6896 6895 6894 ] final  137.34 input  -60.11 | X-H torsion
[ 7974 7965 7964 7962 ] final -101.95 input  175.53 | X-H torsion
[ 8008 7997 7996 7995 ] final  -18.56 input   59.86 | X-H torsion
[ 10167 10162 10161 10158 ] final  -35.27 input  -65.29 | X-H torsion
[ 10718 10713 10712 10709 ] final  -62.53 input   66.30 | X-H torsion
[ 10763 10752 10751 10750 ] final   18.71 input  -60.55 | X-H torsion
[ 11005 11000 10999 10996 ] final  153.02 input  -57.11 | X-H torsion

> <Gold.Protein.ActiveResidues>
 VAL166  LYS551  ARG553  GLY616  TRP617  ASP618  TYR619  PRO620  LYS621  CYS622 
 ASP623  PHE694  ASN695  SER759  ASP760  ASP761  ALA762  ILE779  LEU786  VAL792 
 PHE793  MET794  SER795  GLU796  ALA797  LYS798  CYS799  TRP800  GLU811  SER814 

> <Gold.Protein.RotatedAtoms>
  152.2792  133.5454  159.5486 H   0  0  0  0  0  0  0  0  0  0  0  0  # atno 6907 bound_to 6896
  150.7189  134.0588  159.3833 H   0  0  0  0  0  0  0  0  0  0  0  0  # atno 6908 bound_to 6896
  151.8500  135.0561  160.0508 H   0  0  0  0  0  0  0  0  0  0  0  0  # atno 6909 bound_to 6896
  145.2750  140.9310  143.2964 H   0  0  0  0  0  0  0  0  0  0  0  0  # atno 7974 bound_to 7965
  154.4897  140.2112  155.9575 H   0  0  0  0  0  0  0  0  0  0  0  0  # atno 8008 bound_to 7997
  156.1288  140.3200  155.8286 H   0  0  0  0  0  0  0  0  0  0  0  0  # atno 8009 bound_to 7997
  155.4335  140.0505  157.3007 H   0  0  0  0  0  0  0  0  0  0  0  0  # atno 8010 bound_to 7997
  140.7168  143.3489  151.2197 H   0  0  0  0  0  0  0  0  0  0  0  0  # atno 10167 bound_to 10162
  156.0849  130.4210  150.1149 H   0  0  0  0  0  0  0  0  0  0  0  0  # atno 10718 bound_to 10713
  153.1225  135.6722  153.9311 H   0  0  0  0  0  0  0  0  0  0  0  0  # atno 10763 bound_to 10752
  153.8822  135.3057  155.3447 H   0  0  0  0  0  0  0  0  0  0  0  0  # atno 10764 bound_to 10752
  154.7635  135.4976  153.9589 H   0  0  0  0  0  0  0  0  0  0  0  0  # atno 10765 bound_to 10752
  140.1360  134.8770  157.2268 H   0  0  0  0  0  0  0  0  0  0  0  0  # atno 11005 bound_to 11000
  144.9302  139.4308  143.6499 LP  0  0  0  0  0  0  0  0  0  0  0  0  # atno 17320 bound_to 7965
  146.3234  139.8209  142.8927 LP  0  0  0  0  0  0  0  0  0  0  0  0  # atno 17321 bound_to 7965
  139.7015  143.9525  152.2907 LP  0  0  0  0  0  0  0  0  0  0  0  0  # atno 17342 bound_to 10162
  139.9220  144.6794  150.8452 LP  0  0  0  0  0  0  0  0  0  0  0  0  # atno 17343 bound_to 10162
  156.9172  130.9671  151.3554 LP  0  0  0  0  0  0  0  0  0  0  0  0  # atno 17370 bound_to 10713
  157.5980  130.8491  149.8758 LP  0  0  0  0  0  0  0  0  0  0  0  0  # atno 17371 bound_to 10713
  140.2782  134.3381  155.7351 LP  0  0  0  0  0  0  0  0  0  0  0  0  # atno 17394 bound_to 11000
  141.2178  133.7462  156.9324 LP  0  0  0  0  0  0  0  0  0  0  0  0  # atno 17395 bound_to 11000

$$$$
