AV-unprocessed.smi:767|AV-procd|sdf|3659|dock10
  -GOLD-   22720 1 73D 1   1.00000     0.00000
 Structure written by MMmdl.
 47 49  0  0  0  0  0  0  0  0  1 V2000
  144.7833  131.3843  151.1247 C   0  0  0  0  0  0  0  0  0  0  0  0
  145.9940  131.6617  151.9911 C   0  0  0  0  0  0  0  0  0  0  0  0
  146.6133  130.6241  152.7189 C   0  0  0  0  0  0  0  0  0  0  0  0
  147.7330  130.9383  153.5121 C   0  0  0  0  0  0  0  0  0  0  0  0
  148.1923  132.2710  153.5444 C   0  0  0  0  0  0  0  0  0  0  0  0
  149.4080  132.6568  154.3695 C   0  0  0  0  0  0  0  0  0  0  0  0
  149.7804  131.6126  155.4412 C   0  0  0  0  0  0  0  0  0  0  0  0
  148.9297  131.6870  156.6248 N   0  0  0  0  0  0  0  0  0  0  0  0
  149.3656  131.8733  157.8778 C   0  0  0  0  0  0  0  0  0  0  0  0
  150.5520  131.9750  158.1903 O   0  0  0  0  0  0  0  0  0  0  0  0
  148.3490  131.9560  158.7448 N   0  0  0  0  0  0  0  0  0  0  0  0
  148.4893  132.1981  160.1813 C   0  0  2  0  0  0  0  0  0  0  0  0
  148.9006  130.9295  160.9629 C   0  0  2  0  0  0  0  0  0  0  0  0
  149.3619  129.6624  160.2847 C   0  0  0  0  0  0  0  0  0  0  0  0
  148.0844  128.8188  160.2340 C   0  0  0  0  0  0  0  0  0  0  0  0
  147.0191  129.7553  160.3821 O   0  0  0  0  0  0  0  0  0  0  0  0
  147.4342  130.7475  161.3184 C   0  0  2  0  0  0  0  0  0  0  0  0
  147.1341  132.2129  160.9404 C   0  0  0  0  0  0  0  0  0  0  0  0
  147.0965  133.1716  162.1340 C   0  0  0  0  0  0  0  0  0  0  0  0
  145.8399  132.4576  160.1530 C   0  0  0  0  0  0  0  0  0  0  0  0
  147.4992  133.2343  152.7821 C   0  0  0  0  0  0  0  0  0  0  0  0
  146.4228  132.9431  152.0202 N   0  0  0  0  0  0  0  0  0  0  0  0
  144.6759  130.3168  150.9306 H   0  0  0  0  0  0  0  0  0  0  0  0
  144.8703  131.8948  150.1649 H   0  0  0  0  0  0  0  0  0  0  0  0
  143.8779  131.7347  151.6204 H   0  0  0  0  0  0  0  0  0  0  0  0
  146.2424  129.6107  152.6716 H   0  0  0  0  0  0  0  0  0  0  0  0
  148.2334  130.1673  154.0791 H   0  0  0  0  0  0  0  0  0  0  0  0
  150.2537  132.8146  153.6996 H   0  0  0  0  0  0  0  0  0  0  0  0
  149.2198  133.6193  154.8466 H   0  0  0  0  0  0  0  0  0  0  0  0
  149.6647  130.6114  155.0256 H   0  0  0  0  0  0  0  0  0  0  0  0
  150.8303  131.7101  155.7216 H   0  0  0  0  0  0  0  0  0  0  0  0
  147.9339  131.6222  156.4730 H   0  0  0  0  0  0  0  0  0  0  0  0
  147.4081  131.8712  158.3889 H   0  0  0  0  0  0  0  0  0  0  0  0
  149.1265  133.0513  160.4219 H   0  0  0  0  0  0  0  0  0  0  0  0
  149.4868  131.1921  161.8450 H   0  0  0  0  0  0  0  0  0  0  0  0
  149.7549  129.8494  159.2857 H   0  0  0  0  0  0  0  0  0  0  0  0
  150.1437  129.1542  160.8500 H   0  0  0  0  0  0  0  0  0  0  0  0
  147.9917  128.2524  159.3072 H   0  0  0  0  0  0  0  0  0  0  0  0
  148.0572  128.1164  161.0682 H   0  0  0  0  0  0  0  0  0  0  0  0
  147.2569  130.4701  162.3586 H   0  0  0  0  0  0  0  0  0  0  0  0
  146.2303  132.9872  162.7701 H   0  0  0  0  0  0  0  0  0  0  0  0
  147.0524  134.2118  161.8094 H   0  0  0  0  0  0  0  0  0  0  0  0
  147.9825  133.0688  162.7614 H   0  0  0  0  0  0  0  0  0  0  0  0
  144.9581  132.3197  160.7793 H   0  0  0  0  0  0  0  0  0  0  0  0
  145.7337  131.7745  159.3103 H   0  0  0  0  0  0  0  0  0  0  0  0
  145.8038  133.4716  159.7543 H   0  0  0  0  0  0  0  0  0  0  0  0
  147.8197  134.2657  152.7790 H   0  0  0  0  0  0  0  0  0  0  0  0
  1  2  1  0  0  0  0
  1 23  1  0  0  0  0
  1 24  1  0  0  0  0
  1 25  1  0  0  0  0
  2 22  1  0  0  0  0
  2  3  2  0  0  0  0
  3  4  1  0  0  0  0
  3 26  1  0  0  0  0
  4  5  2  0  0  0  0
  4 27  1  0  0  0  0
  5  6  1  0  0  0  0
  5 21  1  0  0  0  0
  6  7  1  0  0  0  0
  6 28  1  0  0  0  0
  6 29  1  0  0  0  0
  7  8  1  0  0  0  0
  7 30  1  0  0  0  0
  7 31  1  0  0  0  0
  8  9  1  0  0  0  0
  8 32  1  0  0  0  0
  9 10  2  0  0  0  0
  9 11  1  0  0  0  0
 11 12  1  0  0  0  0
 11 33  1  0  0  0  0
 12 18  1  0  0  0  0
 12 13  1  0  0  0  0
 12 34  1  0  0  0  0
 13 17  1  0  0  0  0
 13 14  1  0  0  0  0
 13 35  1  0  0  0  0
 14 15  1  0  0  0  0
 14 36  1  0  0  0  0
 14 37  1  0  0  0  0
 15 16  1  0  0  0  0
 15 38  1  0  0  0  0
 15 39  1  0  0  0  0
 16 17  1  0  0  0  0
 17 18  1  0  0  0  0
 17 40  1  0  0  0  0
 18 19  1  0  0  0  0
 18 20  1  0  0  0  0
 19 41  1  0  0  0  0
 19 42  1  0  0  0  0
 19 43  1  0  0  0  0
 20 44  1  0  0  0  0
 20 45  1  0  0  0  0
 20 46  1  0  0  0  0
 21 22  2  0  0  0  0
 21 47  1  0  0  0  0
M  END
> <s_m_source_file>
AV-unprocessed.smi

> <i_m_source_file_index>
767

> <i_lp_mmshare_version>
43012

> <i_f3d_flags>
0

> <s_epik_input>
W0NIM11jMVtjSF1bY0hdYyhbY0hdbjEpW0NIMl1bQ0gyXVtOSF1DKD1PKVtOSF1bQ0BIXTJDKFtDSDNdKShbQ0gzXSlbQ0BIXShbQ0BASF0yMylPW0NIMl1bQ0gyXTM=

> <s_epik_cmdline>
J2VwaWtfcHl0aG9uJywgJy1waCcsICc3LjAnLCAnLXRuJywgJzgnLCAnLW1hJywgJzIwMCcsICctbWV0YWxfYmluZGluZycsICctaW1hZScsICc8aW5maWxlLm1hZT4nLCAnLW9tYWUnLCAnPG91dGZpbGUubWFlPic=

> <r_epik_Ionization_Penalty>
0.0567523

> <r_epik_Ionization_Penalty_Charging>
0

> <r_epik_Ionization_Penalty_Neutral>
0.0567523

> <r_epik_State_Penalty>
0.0489186

> <r_epik_Charging_Adjusted_Penalty>
0.0489186

> <i_epik_Tot_Q>
0

> <i_epik_Tot_abs_Q>
0

> <r_epik_Metal_State_Penalty>
0.044622

> <b_epik_Metal_Only>
0

> <s_lp_Force_Field>
OPLS_2005

> <r_lp_Energy>
34.1608

> <b_lp_Chiralities_Consistent>
1

> <s_lp_Variant>
AV-unprocessed.smi:767-3

> <Gold.Version>
5.8.1

> <Gold.Id.Protein>
6NUR|6NUR_protein|mol2

> <Gold.PLP.Fitness>
35.2125

> <Gold.PLP.PLP>
-29.9145

> <Gold.PLP.part.hbond>
-1.0000

> <Gold.PLP.part.metal>
0.0000

> <Gold.PLP.part.buried>
-3.2313

> <Gold.PLP.part.nonpolar>
-25.4120

> <Gold.PLP.part.repulsive>
0.2156

> <Gold.PLP.ligand.clash>
0.0000

> <Gold.PLP.ligand.torsion>
0.4491

> <Gold.PLP.Chemscore.Hbond>
1.0000

> <Gold.PLP.Chemscore.CHOScore>
1.0000

> <Gold.PLP.Chemscore.Metal>
0.0000

> <Gold.Chemscore.Hbonds>
donor molecule, donor type, donor heavy atom, donor atom, acceptor molecule, acceptor atom, score
      P1  H  6896  6909       L1    10  1.00
      L1  C    21    47       P1  7948  1.00

> <Gold.PLP.Chemscore.Internal.Correction>
0.1961

> <Gold.Rescore>
     Score         DG    S(hbond)    S(metal)    S(lipo)     H(rot)  DE(clash)    DE(int)     intcor
     14.91     -15.44       1.00        0.00      88.28       1.45       0.08       0.45       ----

> <Gold.Chemscore.Fitness>
14.9128

> <Gold.Chemscore.DG>
-15.4375

> <Gold.Chemscore.ZeroCoef>
-5.4800

> <Gold.Chemscore.Hbond>
1.0000

> <Gold.Chemscore.Metal>
0.0000

> <Gold.Chemscore.Lipo>
88.2797

> <Gold.Chemscore.Internal_Hbond>
0.0000

> <Gold.Chemscore.DEClash>
0.0780

> <Gold.Chemscore.DEInternal>
0.4467

> <Gold.Chemscore.Rot>
1.4497

> <Gold.Chemscore.Internal.Correction>
   9.000000E+99

> <Gold.Chemscore.Hbonds>
donor molecule, donor type, donor heavy atom, donor atom, acceptor molecule, acceptor atom, score
      P1  H  6896  6909       L1    10  0.97

> <Gold.Chemscore.Hbond.Weighted>
-3.3400

> <Gold.Chemscore.Metal.Weighted>
-0.0000

> <Gold.Chemscore.Lipo.Weighted>
-10.3287

> <Gold.Chemscore.Internal_Hbond.Weighted>
0.0000

> <Gold.Chemscore.DEClash.Weighted>
0.0780

> <Gold.Chemscore.DEInternal.Weighted>
0.4467

> <Gold.Chemscore.Rot.Weighted>
3.7112

> <Gold.Chemscore.Internal.Correction.Weighted>
   9.000000E+99

> <Gold.Protein.RotatedTorsions>
[ 6907 6896 6895 6894 ] final  -24.95 input  -60.11 | X-H torsion
[ 7974 7965 7964 7962 ] final  -96.56 input  175.53 | X-H torsion
[ 8008 7997 7996 7995 ] final   -2.01 input   59.86 | X-H torsion
[ 10167 10162 10161 10158 ] final  169.79 input  -65.29 | X-H torsion
[ 10718 10713 10712 10709 ] final -121.07 input   66.30 | X-H torsion
[ 10763 10752 10751 10750 ] final  118.58 input  -60.55 | X-H torsion
[ 11005 11000 10999 10996 ] final  -22.61 input  -57.11 | X-H torsion

> <Gold.Protein.ActiveResidues>
 VAL166  LYS551  ARG553  GLY616  TRP617  ASP618  TYR619  PRO620  LYS621  CYS622 
 ASP623  PHE694  ASN695  SER759  ASP760  ASP761  ALA762  ILE779  LEU786  VAL792 
 PHE793  MET794  SER795  GLU796  ALA797  LYS798  CYS799  TRP800  GLU811  SER814 

> <Gold.Protein.RotatedAtoms>
  151.1821  135.0366  159.8796 H   0  0  0  0  0  0  0  0  0  0  0  0  # atno 6907 bound_to 6896
  152.5444  134.1051  159.8344 H   0  0  0  0  0  0  0  0  0  0  0  0  # atno 6908 bound_to 6896
  151.1169  133.5085  159.2636 H   0  0  0  0  0  0  0  0  0  0  0  0  # atno 6909 bound_to 6896
  145.3452  140.9467  143.2585 H   0  0  0  0  0  0  0  0  0  0  0  0  # atno 7974 bound_to 7965
  154.6404  140.2545  155.7329 H   0  0  0  0  0  0  0  0  0  0  0  0  # atno 8008 bound_to 7997
  156.2526  140.2888  156.0715 H   0  0  0  0  0  0  0  0  0  0  0  0  # atno 8009 bound_to 7997
  155.1605  140.0384  157.2832 H   0  0  0  0  0  0  0  0  0  0  0  0  # atno 8010 bound_to 7997
  139.5001  144.3668  151.9767 H   0  0  0  0  0  0  0  0  0  0  0  0  # atno 10167 bound_to 10162
  156.1308  130.6394  150.9617 H   0  0  0  0  0  0  0  0  0  0  0  0  # atno 10718 bound_to 10713
  153.5698  135.3504  155.2833 H   0  0  0  0  0  0  0  0  0  0  0  0  # atno 10763 bound_to 10752
  154.8683  135.4156  154.2738 H   0  0  0  0  0  0  0  0  0  0  0  0  # atno 10764 bound_to 10752
  153.3501  135.7054  153.6865 H   0  0  0  0  0  0  0  0  0  0  0  0  # atno 10765 bound_to 10752
  140.8673  133.7745  156.0144 H   0  0  0  0  0  0  0  0  0  0  0  0  # atno 11005 bound_to 11000
  144.8760  139.4971  143.6745 LP  0  0  0  0  0  0  0  0  0  0  0  0  # atno 17320 bound_to 7965
  146.2991  139.7369  142.9105 LP  0  0  0  0  0  0  0  0  0  0  0  0  # atno 17321 bound_to 7965
  140.3104  144.3545  150.6035 LP  0  0  0  0  0  0  0  0  0  0  0  0  # atno 17342 bound_to 10162
  140.5803  143.2173  151.7440 LP  0  0  0  0  0  0  0  0  0  0  0  0  # atno 17343 bound_to 10162
  157.6486  131.0900  150.8100 LP  0  0  0  0  0  0  0  0  0  0  0  0  # atno 17370 bound_to 10713
  156.8185  130.4976  149.5346 LP  0  0  0  0  0  0  0  0  0  0  0  0  # atno 17371 bound_to 10713
  140.8614  134.2836  157.5232 LP  0  0  0  0  0  0  0  0  0  0  0  0  # atno 17394 bound_to 11000
  139.8710  134.9520  156.4102 LP  0  0  0  0  0  0  0  0  0  0  0  0  # atno 17395 bound_to 11000

$$$$
