AV-unprocessed.smi:1745|AV-procd|sdf|7031|dock7
  -GOLD-   22720 8253D 1   1.00000     0.00000
 Structure written by MMmdl.
 47 49  0  0  0  0  0  0  0  0  1 V2000
  147.8925  133.2709  155.7610 C   0  0  0  0  0  0  0  0  0  0  0  0
  148.7209  133.3532  154.4702 C   0  0  2  0  0  0  0  0  0  0  0  0
  149.1228  134.7434  154.2608 N   0  0  0  0  0  0  0  0  0  0  0  0
  149.6444  135.5601  155.1877 C   0  0  0  0  0  0  0  0  0  0  0  0
  149.8707  135.2186  156.3482 O   0  0  0  0  0  0  0  0  0  0  0  0
  149.8668  136.7845  154.6808 N   0  0  0  0  0  0  0  0  0  0  0  0
  150.3629  137.9381  155.3452 C   0  0  0  0  0  0  0  0  0  0  0  0
  150.6950  139.1509  154.6986 C   0  0  0  0  0  0  0  0  0  0  0  0
  151.1684  140.2281  155.4719 C   0  0  0  0  0  0  0  0  0  0  0  0
  151.2918  140.0746  156.8729 C   0  0  0  0  0  0  0  0  0  0  0  0
  151.7743  141.1394  157.6645 N   0  0  0  0  0  0  0  0  0  0  0  0
  151.1154  142.4285  157.4700 C   0  0  0  0  0  0  0  0  0  0  0  0
  151.9291  143.5512  158.1371 C   0  0  0  0  0  0  0  0  0  0  0  0
  152.1474  143.2402  159.5094 O   0  0  0  0  0  0  0  0  0  0  0  0
  152.8907  142.0364  159.6681 C   0  0  0  0  0  0  0  0  0  0  0  0
  152.1074  140.8609  159.0599 C   0  0  0  0  0  0  0  0  0  0  0  0
  150.9612  138.9136  157.4897 N   0  0  0  0  0  0  0  0  0  0  0  0
  150.5050  137.8849  156.7456 C   0  0  0  0  0  0  0  0  0  0  0  0
  147.9386  132.8239  153.2501 C   0  0  1  0  0  0  0  0  0  0  0  0
  147.5213  131.3538  153.3344 C   0  0  0  0  0  0  0  0  0  0  0  0
  146.3426  131.3148  152.3901 C   0  0  0  0  0  0  0  0  0  0  0  0
  145.6719  132.6548  152.6754 C   0  0  0  0  0  0  0  0  0  0  0  0
  146.7112  133.5342  153.0985 O   0  0  0  0  0  0  0  0  0  0  0  0
  147.5989  132.2434  155.9767 H   0  0  0  0  0  0  0  0  0  0  0  0
  146.9831  133.8687  155.6890 H   0  0  0  0  0  0  0  0  0  0  0  0
  148.4628  133.6336  156.6169 H   0  0  0  0  0  0  0  0  0  0  0  0
  149.6055  132.7286  154.6087 H   0  0  0  0  0  0  0  0  0  0  0  0
  148.9743  135.1173  153.3351 H   0  0  0  0  0  0  0  0  0  0  0  0
  149.5675  136.9301  153.7278 H   0  0  0  0  0  0  0  0  0  0  0  0
  150.5898  139.2808  153.6329 H   0  0  0  0  0  0  0  0  0  0  0  0
  151.4425  141.1497  154.9810 H   0  0  0  0  0  0  0  0  0  0  0  0
  150.9881  142.6630  156.4142 H   0  0  0  0  0  0  0  0  0  0  0  0
  150.1170  142.3815  157.9065 H   0  0  0  0  0  0  0  0  0  0  0  0
  152.8846  143.6929  157.6293 H   0  0  0  0  0  0  0  0  0  0  0  0
  151.3901  144.4964  158.0694 H   0  0  0  0  0  0  0  0  0  0  0  0
  153.8700  142.1364  159.1973 H   0  0  0  0  0  0  0  0  0  0  0  0
  153.0641  141.8620  160.7301 H   0  0  0  0  0  0  0  0  0  0  0  0
  151.1888  140.6920  159.6237 H   0  0  0  0  0  0  0  0  0  0  0  0
  152.7072  139.9525  159.1308 H   0  0  0  0  0  0  0  0  0  0  0  0
  150.2537  136.9856  157.2889 H   0  0  0  0  0  0  0  0  0  0  0  0
  148.5199  132.9729  152.3384 H   0  0  0  0  0  0  0  0  0  0  0  0
  148.3185  130.6664  153.0501 H   0  0  0  0  0  0  0  0  0  0  0  0
  147.1954  131.1025  154.3450 H   0  0  0  0  0  0  0  0  0  0  0  0
  146.6918  131.2799  151.3572 H   0  0  0  0  0  0  0  0  0  0  0  0
  145.6832  130.4631  152.5585 H   0  0  0  0  0  0  0  0  0  0  0  0
  145.1471  133.0490  151.8050 H   0  0  0  0  0  0  0  0  0  0  0  0
  144.9519  132.5556  153.4884 H   0  0  0  0  0  0  0  0  0  0  0  0
  1  2  1  0  0  0  0
  1 24  1  0  0  0  0
  1 25  1  0  0  0  0
  1 26  1  0  0  0  0
  2  3  1  0  0  0  0
  2 19  1  0  0  0  0
  2 27  1  0  0  0  0
  3  4  1  0  0  0  0
  3 28  1  0  0  0  0
  4  5  2  0  0  0  0
  4  6  1  0  0  0  0
  6  7  1  0  0  0  0
  6 29  1  0  0  0  0
  7 18  1  0  0  0  0
  7  8  2  0  0  0  0
  8  9  1  0  0  0  0
  8 30  1  0  0  0  0
  9 10  2  0  0  0  0
  9 31  1  0  0  0  0
 10 11  1  0  0  0  0
 10 17  1  0  0  0  0
 11 16  1  0  0  0  0
 11 12  1  0  0  0  0
 12 13  1  0  0  0  0
 12 32  1  0  0  0  0
 12 33  1  0  0  0  0
 13 14  1  0  0  0  0
 13 34  1  0  0  0  0
 13 35  1  0  0  0  0
 14 15  1  0  0  0  0
 15 16  1  0  0  0  0
 15 36  1  0  0  0  0
 15 37  1  0  0  0  0
 16 38  1  0  0  0  0
 16 39  1  0  0  0  0
 17 18  2  0  0  0  0
 18 40  1  0  0  0  0
 19 23  1  0  0  0  0
 19 20  1  0  0  0  0
 19 41  1  0  0  0  0
 20 21  1  0  0  0  0
 20 42  1  0  0  0  0
 20 43  1  0  0  0  0
 21 22  1  0  0  0  0
 21 44  1  0  0  0  0
 21 45  1  0  0  0  0
 22 23  1  0  0  0  0
 22 46  1  0  0  0  0
 22 47  1  0  0  0  0
M  END
> <s_m_source_file>
AV-unprocessed.smi

> <i_m_source_file_index>
1745

> <i_lp_mmshare_version>
43012

> <i_f3d_flags>
0

> <s_epik_input>
TzFbQ0gyXVtDSDJdW0NIMl1bQ0BIXTFbQ0BIXShbQ0gzXSlbTkhdQyg9TylbTkhdYzJbY0hdW2NIXWMobltjSF0yKU4zW0NIMl1bQ0gyXU9bQ0gyXVtDSDJdMw==

> <s_epik_cmdline>
J2VwaWtfcHl0aG9uJywgJy1waCcsICc3LjAnLCAnLXRuJywgJzgnLCAnLW1hJywgJzIwMCcsICctbWV0YWxfYmluZGluZycsICctaW1hZScsICc8aW5maWxlLm1hZT4nLCAnLW9tYWUnLCAnPG91dGZpbGUubWFlPic=

> <r_lp_tautomer_probability>
1

> <r_epik_Ionization_Penalty>
0.00206005

> <r_epik_Ionization_Penalty_Charging>
0

> <r_epik_Ionization_Penalty_Neutral>
0.00206005

> <r_epik_State_Penalty>
0.00138459

> <r_epik_Charging_Adjusted_Penalty>
0.00138459

> <i_epik_Tot_Q>
0

> <i_epik_Tot_abs_Q>
0

> <r_epik_Metal_State_Penalty>
-0

> <b_epik_Metal_Only>
0

> <s_lp_Force_Field>
OPLS_2005

> <r_lp_Energy>
34.4703

> <b_lp_Chiralities_Consistent>
1

> <s_lp_Variant>
AV-unprocessed.smi:1745-3

> <Gold.Version>
5.8.1

> <Gold.Id.Protein>
6NUR|6NUR_protein|mol2

> <Gold.PLP.Fitness>
41.0199

> <Gold.PLP.PLP>
-35.3355

> <Gold.PLP.part.hbond>
-2.0000

> <Gold.PLP.part.metal>
0.0000

> <Gold.PLP.part.buried>
-3.0929

> <Gold.PLP.part.nonpolar>
-30.0096

> <Gold.PLP.part.repulsive>
0.1849

> <Gold.PLP.ligand.clash>
0.0000

> <Gold.PLP.ligand.torsion>
0.3274

> <Gold.PLP.Chemscore.Hbond>
1.9913

> <Gold.PLP.Chemscore.CHOScore>
0.0000

> <Gold.PLP.Chemscore.Metal>
0.0000

> <Gold.Chemscore.Hbonds>
donor molecule, donor type, donor heavy atom, donor atom, acceptor molecule, acceptor atom, score
      L1  H     3    28       P1  7948  1.00
      L1  H     6    29       P1  7948  0.94

> <Gold.PLP.Chemscore.Internal.Correction>
0.3656

> <Gold.Rescore>
     Score         DG    S(hbond)    S(metal)    S(lipo)     H(rot)  DE(clash)    DE(int)     intcor
     14.27     -17.57       1.73        0.00      84.59       1.40       0.03       3.27       ----

> <Gold.Chemscore.Fitness>
14.2714

> <Gold.Chemscore.DG>
-17.5680

> <Gold.Chemscore.ZeroCoef>
-5.4800

> <Gold.Chemscore.Hbond>
1.7252

> <Gold.Chemscore.Metal>
0.0000

> <Gold.Chemscore.Lipo>
84.5894

> <Gold.Chemscore.Internal_Hbond>
0.0000

> <Gold.Chemscore.DEClash>
0.0312

> <Gold.Chemscore.DEInternal>
3.2654

> <Gold.Chemscore.Rot>
1.3950

> <Gold.Chemscore.Internal.Correction>
   9.000000E+99

> <Gold.Chemscore.Hbonds>
donor molecule, donor type, donor heavy atom, donor atom, acceptor molecule, acceptor atom, score
      L1  H     3    28       P1  7948  0.40
      L1  H     6    29       P1  7948  0.71

> <Gold.Chemscore.Hbond.Weighted>
-5.7623

> <Gold.Chemscore.Metal.Weighted>
-0.0000

> <Gold.Chemscore.Lipo.Weighted>
-9.8970

> <Gold.Chemscore.Internal_Hbond.Weighted>
0.0000

> <Gold.Chemscore.DEClash.Weighted>
0.0312

> <Gold.Chemscore.DEInternal.Weighted>
3.2654

> <Gold.Chemscore.Rot.Weighted>
3.5712

> <Gold.Chemscore.Internal.Correction.Weighted>
   9.000000E+99

> <Gold.Protein.RotatedTorsions>
[ 6907 6896 6895 6894 ] final  -47.04 input  -60.11 | X-H torsion
[ 7974 7965 7964 7962 ] final  -13.14 input  175.53 | X-H torsion
[ 8008 7997 7996 7995 ] final  -23.13 input   59.86 | X-H torsion
[ 10167 10162 10161 10158 ] final  -10.55 input  -65.29 | X-H torsion
[ 10718 10713 10712 10709 ] final -137.51 input   66.30 | X-H torsion
[ 10763 10752 10751 10750 ] final -145.37 input  -60.55 | X-H torsion
[ 11005 11000 10999 10996 ] final   51.80 input  -57.11 | X-H torsion

> <Gold.Protein.ActiveResidues>
 VAL166  LYS551  ARG553  GLY616  TRP617  ASP618  TYR619  PRO620  LYS621  CYS622 
 ASP623  PHE694  ASN695  SER759  ASP760  ASP761  ALA762  ILE779  LEU786  VAL792 
 PHE793  MET794  SER795  GLU796  ALA797  LYS798  CYS799  TRP800  GLU811  SER814 

> <Gold.Protein.RotatedAtoms>
  150.9049  134.8463  159.7385 H   0  0  0  0  0  0  0  0  0  0  0  0  # atno 6907 bound_to 6896
  152.4913  134.4446  159.9564 H   0  0  0  0  0  0  0  0  0  0  0  0  # atno 6908 bound_to 6896
  151.4494  133.3582  159.2828 H   0  0  0  0  0  0  0  0  0  0  0  0  # atno 6909 bound_to 6896
  146.2126  140.3159  142.8386 H   0  0  0  0  0  0  0  0  0  0  0  0  # atno 7974 bound_to 7965
  154.4603  140.1989  156.0264 H   0  0  0  0  0  0  0  0  0  0  0  0  # atno 8008 bound_to 7997
  156.0826  140.3269  155.7685 H   0  0  0  0  0  0  0  0  0  0  0  0  # atno 8009 bound_to 7997
  155.5086  140.0560  157.2918 H   0  0  0  0  0  0  0  0  0  0  0  0  # atno 8010 bound_to 7997
  140.7117  143.5735  150.9067 H   0  0  0  0  0  0  0  0  0  0  0  0  # atno 10167 bound_to 10162
  156.2890  130.7364  151.1384 H   0  0  0  0  0  0  0  0  0  0  0  0  # atno 10718 bound_to 10713
  154.8386  135.3415  154.6494 H   0  0  0  0  0  0  0  0  0  0  0  0  # atno 10763 bound_to 10752
  153.7107  135.6964  153.5043 H   0  0  0  0  0  0  0  0  0  0  0  0  # atno 10764 bound_to 10752
  153.2454  135.4371  155.0695 H   0  0  0  0  0  0  0  0  0  0  0  0  # atno 10765 bound_to 10752
  140.0902  134.5220  155.8860 H   0  0  0  0  0  0  0  0  0  0  0  0  # atno 11005 bound_to 11000
  144.8954  140.7577  143.5900 LP  0  0  0  0  0  0  0  0  0  0  0  0  # atno 17320 bound_to 7965
  145.3083  139.1827  143.4652 LP  0  0  0  0  0  0  0  0  0  0  0  0  # atno 17321 bound_to 7965
  139.9461  143.6325  152.3041 LP  0  0  0  0  0  0  0  0  0  0  0  0  # atno 17342 bound_to 10162
  139.6827  144.7654  151.1579 LP  0  0  0  0  0  0  0  0  0  0  0  0  # atno 17343 bound_to 10162
  157.7337  131.0589  150.5564 LP  0  0  0  0  0  0  0  0  0  0  0  0  # atno 17370 bound_to 10713
  156.5678  130.4272  149.6033 LP  0  0  0  0  0  0  0  0  0  0  0  0  # atno 17371 bound_to 10713
  141.2075  133.6665  156.6312 LP  0  0  0  0  0  0  0  0  0  0  0  0  # atno 17394 bound_to 11000
  140.3363  134.7886  157.4364 LP  0  0  0  0  0  0  0  0  0  0  0  0  # atno 17395 bound_to 11000

$$$$
