AV-unprocessed.smi:2773|AV-procd|sdf|10679|dock2
  -GOLD-   2272015123D 1   1.00000     0.00000
 Structure written by MMmdl.
 30 31  0  0  0  0  0  0  0  0  1 V2000
  147.1398  140.2448  152.3071 C   0  0  0  0  0  0  0  0  0  0  0  0
  147.2629  141.1235  153.5333 C   0  0  1  0  0  0  0  0  0  0  0  0
  146.7049  140.6567  154.8509 C   0  0  0  0  0  0  0  0  0  0  0  0
  148.2029  140.7556  154.6633 C   0  0  2  0  0  0  0  0  0  0  0  0
  148.8651  141.8129  155.3671 N   0  0  0  0  0  0  0  0  0  0  0  0
  149.7685  141.7101  156.3589 C   0  0  0  0  0  0  0  0  0  0  0  0
  150.1051  140.6113  156.7967 O   0  0  0  0  0  0  0  0  0  0  0  0
  150.2180  142.8919  156.8272 N   0  0  0  0  0  0  0  0  0  0  0  0
  151.1888  143.1289  157.8359 C   0  0  0  0  0  0  0  0  0  0  0  0
  151.4395  144.4900  158.1176 C   0  0  0  0  0  0  0  0  0  0  0  0
  152.3881  144.8297  159.1007 C   0  0  0  0  0  0  0  0  0  0  0  0
  153.0647  143.7994  159.7771 C   0  0  0  0  0  0  0  0  0  0  0  0
  152.7600  142.4639  159.4376 C   0  0  0  0  0  0  0  0  0  0  0  0
  153.4508  141.2897  160.1170 C   0  0  0  0  0  0  0  0  0  0  0  0
  154.7544  141.2553  159.8376 F   0  0  0  0  0  0  0  0  0  0  0  0
  153.3059  141.3852  161.4386 F   0  0  0  0  0  0  0  0  0  0  0  0
  152.9018  140.1468  159.7054 F   0  0  0  0  0  0  0  0  0  0  0  0
  151.8472  142.1429  158.4930 N   0  0  0  0  0  0  0  0  0  0  0  0
  147.2535  139.1926  152.5702 H   0  0  0  0  0  0  0  0  0  0  0  0
  147.9097  140.5062  151.5812 H   0  0  0  0  0  0  0  0  0  0  0  0
  146.1628  140.3838  151.8440 H   0  0  0  0  0  0  0  0  0  0  0  0
  147.1570  142.1859  153.3203 H   0  0  0  0  0  0  0  0  0  0  0  0
  146.2177  141.4007  155.4785 H   0  0  0  0  0  0  0  0  0  0  0  0
  146.2727  139.6589  154.8952 H   0  0  0  0  0  0  0  0  0  0  0  0
  148.7163  139.7985  154.5836 H   0  0  0  0  0  0  0  0  0  0  0  0
  148.5707  142.7484  155.1264 H   0  0  0  0  0  0  0  0  0  0  0  0
  149.8275  143.7176  156.3979 H   0  0  0  0  0  0  0  0  0  0  0  0
  150.9114  145.2699  157.5882 H   0  0  0  0  0  0  0  0  0  0  0  0
  152.5935  145.8647  159.3309 H   0  0  0  0  0  0  0  0  0  0  0  0
  153.7974  144.0366  160.5341 H   0  0  0  0  0  0  0  0  0  0  0  0
  1  2  1  0  0  0  0
  1 19  1  0  0  0  0
  1 20  1  0  0  0  0
  1 21  1  0  0  0  0
  2  4  1  0  0  0  0
  2  3  1  0  0  0  0
  2 22  1  0  0  0  0
  3  4  1  0  0  0  0
  3 23  1  0  0  0  0
  3 24  1  0  0  0  0
  4  5  1  0  0  0  0
  4 25  1  0  0  0  0
  5  6  1  0  0  0  0
  5 26  1  0  0  0  0
  6  7  2  0  0  0  0
  6  8  1  0  0  0  0
  8  9  1  0  0  0  0
  8 27  1  0  0  0  0
  9 18  1  0  0  0  0
  9 10  2  0  0  0  0
 10 11  1  0  0  0  0
 10 28  1  0  0  0  0
 11 12  2  0  0  0  0
 11 29  1  0  0  0  0
 12 13  1  0  0  0  0
 12 30  1  0  0  0  0
 13 14  1  0  0  0  0
 13 18  2  0  0  0  0
 14 15  1  0  0  0  0
 14 16  1  0  0  0  0
 14 17  1  0  0  0  0
M  END
> <s_m_source_file>
AV-unprocessed.smi

> <i_m_source_file_index>
2773

> <i_lp_mmshare_version>
43012

> <i_f3d_flags>
0

> <s_epik_input>
W0NIM11bQ0BASF0xW0NIMl1bQ0BIXTFbTkhdQyg9TylbTkhdYzJbY0hdW2NIXVtjSF1jKG4yKUMoRikoRilG

> <s_epik_cmdline>
J2VwaWtfcHl0aG9uJywgJy1waCcsICc3LjAnLCAnLXRuJywgJzgnLCAnLW1hJywgJzIwMCcsICctbWV0YWxfYmluZGluZycsICctaW1hZScsICc8aW5maWxlLm1hZT4nLCAnLW9tYWUnLCAnPG91dGZpbGUubWFlPic=

> <r_lp_tautomer_probability>
1

> <r_epik_Ionization_Penalty>
4.04275e-05

> <r_epik_Ionization_Penalty_Charging>
0

> <r_epik_Ionization_Penalty_Neutral>
4.04275e-05

> <r_epik_State_Penalty>
-0

> <r_epik_Charging_Adjusted_Penalty>
0

> <i_epik_Tot_Q>
0

> <i_epik_Tot_abs_Q>
0

> <r_epik_Metal_State_Penalty>
-0

> <b_epik_Metal_Only>
0

> <s_lp_Force_Field>
OPLS_2005

> <r_lp_Energy>
31.9266

> <b_lp_Chiralities_Consistent>
1

> <s_lp_Variant>
AV-unprocessed.smi:2773-4

> <Gold.Version>
5.8.1

> <Gold.Id.Protein>
6NUR|6NUR_protein|mol2

> <Gold.PLP.Fitness>
44.9875

> <Gold.PLP.PLP>
-39.7297

> <Gold.PLP.part.hbond>
-2.0000

> <Gold.PLP.part.metal>
0.0000

> <Gold.PLP.part.buried>
-2.6968

> <Gold.PLP.part.nonpolar>
-34.5388

> <Gold.PLP.part.repulsive>
0.2052

> <Gold.PLP.ligand.clash>
0.0000

> <Gold.PLP.ligand.torsion>
0.1081

> <Gold.PLP.Chemscore.Hbond>
1.8130

> <Gold.PLP.Chemscore.CHOScore>
0.0000

> <Gold.PLP.Chemscore.Metal>
0.0000

> <Gold.Chemscore.Hbonds>
donor molecule, donor type, donor heavy atom, donor atom, acceptor molecule, acceptor atom, score
      L1  H     5    26       P1  8028  0.80
      L1  H     8    27       P1  8028  1.00

> <Gold.PLP.Chemscore.Internal.Correction>
0.0350

> <Gold.Rescore>
     Score         DG    S(hbond)    S(metal)    S(lipo)     H(rot)  DE(clash)    DE(int)     intcor
     17.87     -19.33       1.92        0.00      85.36       1.00       0.15       1.31       ----

> <Gold.Chemscore.Fitness>
17.8714

> <Gold.Chemscore.DG>
-19.3349

> <Gold.Chemscore.ZeroCoef>
-5.4800

> <Gold.Chemscore.Hbond>
1.9245

> <Gold.Chemscore.Metal>
0.0000

> <Gold.Chemscore.Lipo>
85.3580

> <Gold.Chemscore.Internal_Hbond>
0.0000

> <Gold.Chemscore.DEClash>
0.1529

> <Gold.Chemscore.DEInternal>
1.3106

> <Gold.Chemscore.Rot>
1.0000

> <Gold.Chemscore.Internal.Correction>
   9.000000E+99

> <Gold.Chemscore.Hbonds>
donor molecule, donor type, donor heavy atom, donor atom, acceptor molecule, acceptor atom, score
      L1  H     5    26       P1  8028  0.75
      L1  H     8    27       P1  8028  0.95

> <Gold.Chemscore.Hbond.Weighted>
-6.4280

> <Gold.Chemscore.Metal.Weighted>
-0.0000

> <Gold.Chemscore.Lipo.Weighted>
-9.9869

> <Gold.Chemscore.Internal_Hbond.Weighted>
0.0000

> <Gold.Chemscore.DEClash.Weighted>
0.1529

> <Gold.Chemscore.DEInternal.Weighted>
1.3106

> <Gold.Chemscore.Rot.Weighted>
2.5600

> <Gold.Chemscore.Internal.Correction.Weighted>
   9.000000E+99

> <Gold.Protein.RotatedTorsions>
[ 6907 6896 6895 6894 ] final  -58.32 input  -60.11 | X-H torsion
[ 7974 7965 7964 7962 ] final  -15.13 input  175.53 | X-H torsion
[ 8008 7997 7996 7995 ] final  167.69 input   59.86 | X-H torsion
[ 10167 10162 10161 10158 ] final -112.59 input  -65.29 | X-H torsion
[ 10718 10713 10712 10709 ] final -174.57 input   66.30 | X-H torsion
[ 10763 10752 10751 10750 ] final -119.30 input  -60.55 | X-H torsion
[ 11005 11000 10999 10996 ] final   77.17 input  -57.11 | X-H torsion

> <Gold.Protein.ActiveResidues>
 VAL166  LYS551  ARG553  GLY616  TRP617  ASP618  TYR619  PRO620  LYS621  CYS622 
 ASP623  PHE694  ASN695  SER759  ASP760  ASP761  ALA762  ILE779  LEU786  VAL792 
 PHE793  MET794  SER795  GLU796  ALA797  LYS798  CYS799  TRP800  GLU811  SER814 

> <Gold.Protein.RotatedAtoms>
  150.8016  134.7114  159.6605 H   0  0  0  0  0  0  0  0  0  0  0  0  # atno 6907 bound_to 6896
  152.4134  134.6082  160.0028 H   0  0  0  0  0  0  0  0  0  0  0  0  # atno 6908 bound_to 6896
  151.6318  133.3294  159.3146 H   0  0  0  0  0  0  0  0  0  0  0  0  # atno 6909 bound_to 6896
  146.2045  140.3448  142.8412 H   0  0  0  0  0  0  0  0  0  0  0  0  # atno 7974 bound_to 7965
  156.1612  140.1610  156.8609 H   0  0  0  0  0  0  0  0  0  0  0  0  # atno 8008 bound_to 7997
  154.5162  140.0789  156.8121 H   0  0  0  0  0  0  0  0  0  0  0  0  # atno 8009 bound_to 7997
  155.3704  140.3400  155.4245 H   0  0  0  0  0  0  0  0  0  0  0  0  # atno 8010 bound_to 7997
  140.1210  143.4443  152.1690 H   0  0  0  0  0  0  0  0  0  0  0  0  # atno 10167 bound_to 10162
  156.7871  130.9504  151.3120 H   0  0  0  0  0  0  0  0  0  0  0  0  # atno 10718 bound_to 10713
  154.8613  135.4243  154.2277 H   0  0  0  0  0  0  0  0  0  0  0  0  # atno 10763 bound_to 10752
  153.3269  135.6985  153.6987 H   0  0  0  0  0  0  0  0  0  0  0  0  # atno 10764 bound_to 10752
  153.6020  135.3535  155.2922 H   0  0  0  0  0  0  0  0  0  0  0  0  # atno 10765 bound_to 10752
  139.9266  134.7661  156.1488 H   0  0  0  0  0  0  0  0  0  0  0  0  # atno 11005 bound_to 11000
  144.8760  140.7337  143.6016 LP  0  0  0  0  0  0  0  0  0  0  0  0  # atno 17320 bound_to 7965
  145.3367  139.1744  143.4507 LP  0  0  0  0  0  0  0  0  0  0  0  0  # atno 17321 bound_to 7965
  139.5568  144.7378  151.4270 LP  0  0  0  0  0  0  0  0  0  0  0  0  # atno 17342 bound_to 10162
  140.6872  143.7947  150.7202 LP  0  0  0  0  0  0  0  0  0  0  0  0  # atno 17343 bound_to 10162
  157.6618  130.8973  149.9847 LP  0  0  0  0  0  0  0  0  0  0  0  0  # atno 17370 bound_to 10713
  156.1182  130.3647  149.9932 LP  0  0  0  0  0  0  0  0  0  0  0  0  # atno 17371 bound_to 10713
  141.0827  133.6747  156.2371 LP  0  0  0  0  0  0  0  0  0  0  0  0  # atno 17394 bound_to 11000
  140.6320  134.5255  157.5560 LP  0  0  0  0  0  0  0  0  0  0  0  0  # atno 17395 bound_to 11000

$$$$
