AV-unprocessed.smi:2390|AV-procd|sdf|9475|dock2
  -GOLD-   2272013103D 1   1.00000     0.00000
 Structure written by MMmdl.
 45 46  0  0  0  0  0  0  0  0  1 V2000
  153.2711  141.6686  160.7323 C   0  0  0  0  0  0  0  0  0  0  0  0
  152.4410  142.7804  160.1259 C   0  0  0  0  0  0  0  0  0  0  0  0
  152.4473  144.0748  160.6814 C   0  0  0  0  0  0  0  0  0  0  0  0
  151.6575  145.0633  160.0678 C   0  0  0  0  0  0  0  0  0  0  0  0
  150.9008  144.7198  158.9309 C   0  0  0  0  0  0  0  0  0  0  0  0
  150.9512  143.3972  158.4359 C   0  0  0  0  0  0  0  0  0  0  0  0
  150.1602  143.1558  157.2815 N   0  0  0  0  0  0  0  0  0  0  0  0
  150.0000  142.0021  156.6096 C   0  0  0  0  0  0  0  0  0  0  0  0
  150.4898  140.9176  156.9267 O   0  0  0  0  0  0  0  0  0  0  0  0
  149.2195  142.1753  155.5327 N   0  0  0  0  0  0  0  0  0  0  0  0
  148.8379  141.1316  154.5818 C   0  0  2  0  0  0  0  0  0  0  0  0
  147.6292  141.6228  153.7656 C   0  0  0  0  0  0  0  0  0  0  0  0
  148.5930  139.7585  155.2892 C   0  0  1  0  0  0  0  0  0  0  0  0
  147.4706  138.9778  154.5560 C   0  0  0  0  0  0  0  0  0  0  0  0
  149.8243  138.9557  155.4837 N   0  0  0  0  0  0  0  0  0  0  0  0
  149.5466  137.5798  155.9122 C   0  0  0  0  0  0  0  0  0  0  0  0
  150.8247  136.7424  156.0930 C   0  0  0  0  0  0  0  0  0  0  0  0
  151.5743  136.7398  154.8857 O   0  0  0  0  0  0  0  0  0  0  0  0
  151.9298  138.0527  154.4754 C   0  0  0  0  0  0  0  0  0  0  0  0
  150.6570  138.8938  154.2774 C   0  0  0  0  0  0  0  0  0  0  0  0
  151.7155  142.4507  159.0356 N   0  0  0  0  0  0  0  0  0  0  0  0
  153.6489  141.9492  161.7158 H   0  0  0  0  0  0  0  0  0  0  0  0
  154.1228  141.4415  160.0908 H   0  0  0  0  0  0  0  0  0  0  0  0
  152.6742  140.7628  160.8449 H   0  0  0  0  0  0  0  0  0  0  0  0
  153.0409  144.3070  161.5535 H   0  0  0  0  0  0  0  0  0  0  0  0
  151.6328  146.0689  160.4608 H   0  0  0  0  0  0  0  0  0  0  0  0
  150.2901  145.4681  158.4465 H   0  0  0  0  0  0  0  0  0  0  0  0
  149.6728  143.9595  156.9142 H   0  0  0  0  0  0  0  0  0  0  0  0
  148.8591  143.1009  155.3531 H   0  0  0  0  0  0  0  0  0  0  0  0
  149.6767  141.0471  153.8921 H   0  0  0  0  0  0  0  0  0  0  0  0
  147.3378  140.8939  153.0093 H   0  0  0  0  0  0  0  0  0  0  0  0
  147.8634  142.5517  153.2449 H   0  0  0  0  0  0  0  0  0  0  0  0
  146.7618  141.8120  154.3983 H   0  0  0  0  0  0  0  0  0  0  0  0
  148.2001  139.9895  156.2807 H   0  0  0  0  0  0  0  0  0  0  0  0
  146.6046  139.5993  154.3318 H   0  0  0  0  0  0  0  0  0  0  0  0
  147.0847  138.1583  155.1612 H   0  0  0  0  0  0  0  0  0  0  0  0
  147.8252  138.5580  153.6144 H   0  0  0  0  0  0  0  0  0  0  0  0
  149.0265  137.5695  156.8678 H   0  0  0  0  0  0  0  0  0  0  0  0
  148.8920  137.0916  155.1885 H   0  0  0  0  0  0  0  0  0  0  0  0
  151.4331  137.1388  156.9075 H   0  0  0  0  0  0  0  0  0  0  0  0
  150.5698  135.7153  156.3547 H   0  0  0  0  0  0  0  0  0  0  0  0
  152.5849  138.5108  155.2184 H   0  0  0  0  0  0  0  0  0  0  0  0
  152.4940  137.9939  153.5446 H   0  0  0  0  0  0  0  0  0  0  0  0
  150.0777  138.4838  153.4488 H   0  0  0  0  0  0  0  0  0  0  0  0
  150.9758  139.8912  153.9793 H   0  0  0  0  0  0  0  0  0  0  0  0
  1  2  1  0  0  0  0
  1 22  1  0  0  0  0
  1 23  1  0  0  0  0
  1 24  1  0  0  0  0
  2 21  1  0  0  0  0
  2  3  2  0  0  0  0
  3  4  1  0  0  0  0
  3 25  1  0  0  0  0
  4  5  2  0  0  0  0
  4 26  1  0  0  0  0
  5  6  1  0  0  0  0
  5 27  1  0  0  0  0
  6  7  1  0  0  0  0
  6 21  2  0  0  0  0
  7  8  1  0  0  0  0
  7 28  1  0  0  0  0
  8  9  2  0  0  0  0
  8 10  1  0  0  0  0
 10 11  1  0  0  0  0
 10 29  1  0  0  0  0
 11 12  1  0  0  0  0
 11 13  1  0  0  0  0
 11 30  1  0  0  0  0
 12 31  1  0  0  0  0
 12 32  1  0  0  0  0
 12 33  1  0  0  0  0
 13 14  1  0  0  0  0
 13 15  1  0  0  0  0
 13 34  1  0  0  0  0
 14 35  1  0  0  0  0
 14 36  1  0  0  0  0
 14 37  1  0  0  0  0
 15 20  1  0  0  0  0
 15 16  1  0  0  0  0
 16 17  1  0  0  0  0
 16 38  1  0  0  0  0
 16 39  1  0  0  0  0
 17 18  1  0  0  0  0
 17 40  1  0  0  0  0
 17 41  1  0  0  0  0
 18 19  1  0  0  0  0
 19 20  1  0  0  0  0
 19 42  1  0  0  0  0
 19 43  1  0  0  0  0
 20 44  1  0  0  0  0
 20 45  1  0  0  0  0
M  END
> <s_m_source_file>
AV-unprocessed.smi

> <i_m_source_file_index>
2390

> <i_lp_mmshare_version>
43012

> <i_f3d_flags>
0

> <s_epik_input>
W0NIM11jMVtjSF1bY0hdW2NIXWMobjEpW05IXUMoPU8pW05IXVtDQEhdKFtDSDNdKVtDQEhdKFtDSDNdKU4yW0NIMl1bQ0gyXU9bQ0gyXVtDSDJdMg==

> <s_epik_cmdline>
J2VwaWtfcHl0aG9uJywgJy1waCcsICc3LjAnLCAnLXRuJywgJzgnLCAnLW1hJywgJzIwMCcsICctbWV0YWxfYmluZGluZycsICctaW1hZScsICc8aW5maWxlLm1hZT4nLCAnLW9tYWUnLCAnPG91dGZpbGUubWFlPic=

> <r_epik_Ionization_Penalty>
0.266074

> <r_epik_Ionization_Penalty_Charging>
0

> <r_epik_Ionization_Penalty_Neutral>
0.266074

> <r_epik_State_Penalty>
0.257924

> <r_epik_Charging_Adjusted_Penalty>
0.257924

> <i_epik_Tot_Q>
0

> <i_epik_Tot_abs_Q>
0

> <r_epik_Metal_State_Penalty>
0.257919

> <b_epik_Metal_Only>
0

> <s_lp_Force_Field>
OPLS_2005

> <r_lp_Energy>
33.31

> <b_lp_Chiralities_Consistent>
1

> <s_lp_Variant>
AV-unprocessed.smi:2390-3

> <Gold.Version>
5.8.1

> <Gold.Id.Protein>
6NUR|6NUR_protein|mol2

> <Gold.PLP.Fitness>
48.0866

> <Gold.PLP.PLP>
-41.5537

> <Gold.PLP.part.hbond>
-3.0000

> <Gold.PLP.part.metal>
0.0000

> <Gold.PLP.part.buried>
-7.0474

> <Gold.PLP.part.nonpolar>
-31.3810

> <Gold.PLP.part.repulsive>
0.3830

> <Gold.PLP.ligand.clash>
0.0000

> <Gold.PLP.ligand.torsion>
1.3098

> <Gold.PLP.Chemscore.Hbond>
3.0000

> <Gold.PLP.Chemscore.CHOScore>
0.0000

> <Gold.PLP.Chemscore.Metal>
0.0000

> <Gold.Chemscore.Hbonds>
donor molecule, donor type, donor heavy atom, donor atom, acceptor molecule, acceptor atom, score
      L1  H     7    28       P1  8028  1.00
      L1  H    10    29       P1  8028  1.00
      P1  H 10752 10763       L1    18  1.00

> <Gold.PLP.Chemscore.Internal.Correction>
0.1525

> <Gold.Rescore>
     Score         DG    S(hbond)    S(metal)    S(lipo)     H(rot)  DE(clash)    DE(int)     intcor
     17.15     -23.08       2.78        0.00     102.68       1.44       0.09       5.83       ----

> <Gold.Chemscore.Fitness>
17.1507

> <Gold.Chemscore.DG>
-23.0766

> <Gold.Chemscore.ZeroCoef>
-5.4800

> <Gold.Chemscore.Hbond>
2.7751

> <Gold.Chemscore.Metal>
0.0000

> <Gold.Chemscore.Lipo>
102.6785

> <Gold.Chemscore.Internal_Hbond>
0.0000

> <Gold.Chemscore.DEClash>
0.0910

> <Gold.Chemscore.DEInternal>
5.8350

> <Gold.Chemscore.Rot>
1.4396

> <Gold.Chemscore.Internal.Correction>
   9.000000E+99

> <Gold.Chemscore.Hbonds>
donor molecule, donor type, donor heavy atom, donor atom, acceptor molecule, acceptor atom, score
      L1  H     7    28       P1  8028  0.85
      L1  H    10    29       P1  8028  0.95
      P1  H 10752 10763       L1    18  0.55

> <Gold.Chemscore.Hbond.Weighted>
-9.2687

> <Gold.Chemscore.Metal.Weighted>
-0.0000

> <Gold.Chemscore.Lipo.Weighted>
-12.0134

> <Gold.Chemscore.Internal_Hbond.Weighted>
0.0000

> <Gold.Chemscore.DEClash.Weighted>
0.0910

> <Gold.Chemscore.DEInternal.Weighted>
5.8350

> <Gold.Chemscore.Rot.Weighted>
3.6855

> <Gold.Chemscore.Internal.Correction.Weighted>
   9.000000E+99

> <Gold.Protein.RotatedTorsions>
[ 6907 6896 6895 6894 ] final   -8.75 input  -60.11 | X-H torsion
[ 7974 7965 7964 7962 ] final   66.36 input  175.53 | X-H torsion
[ 8008 7997 7996 7995 ] final -117.89 input   59.86 | X-H torsion
[ 10167 10162 10161 10158 ] final  -90.51 input  -65.29 | X-H torsion
[ 10718 10713 10712 10709 ] final   90.25 input   66.30 | X-H torsion
[ 10763 10752 10751 10750 ] final   43.37 input  -60.55 | X-H torsion
[ 11005 11000 10999 10996 ] final   35.31 input  -57.11 | X-H torsion

> <Gold.Protein.ActiveResidues>
 VAL166  LYS551  ARG553  GLY616  TRP617  ASP618  TYR619  PRO620  LYS621  CYS622 
 ASP623  PHE694  ASN695  SER759  ASP760  ASP761  ALA762  ILE779  LEU786  VAL792 
 PHE793  MET794  SER795  GLU796  ALA797  LYS798  CYS799  TRP800  GLU811  SER814 

> <Gold.Protein.RotatedAtoms>
  151.4286  135.1007  159.9635 H   0  0  0  0  0  0  0  0  0  0  0  0  # atno 6907 bound_to 6896
  152.4964  133.8639  159.7274 H   0  0  0  0  0  0  0  0  0  0  0  0  # atno 6908 bound_to 6896
  150.9171  133.6868  159.2868 H   0  0  0  0  0  0  0  0  0  0  0  0  # atno 6909 bound_to 6896
  145.8275  139.3120  143.1007 H   0  0  0  0  0  0  0  0  0  0  0  0  # atno 7974 bound_to 7965
  155.0909  140.0395  157.2668 H   0  0  0  0  0  0  0  0  0  0  0  0  # atno 8008 bound_to 7997
  154.6833  140.2637  155.6861 H   0  0  0  0  0  0  0  0  0  0  0  0  # atno 8009 bound_to 7997
  156.2702  140.2774  156.1384 H   0  0  0  0  0  0  0  0  0  0  0  0  # atno 8010 bound_to 7997
  140.3542  143.2875  151.9691 H   0  0  0  0  0  0  0  0  0  0  0  0  # atno 10167 bound_to 10162
  157.6958  131.0363  150.3549 H   0  0  0  0  0  0  0  0  0  0  0  0  # atno 10718 bound_to 10713
  152.9862  135.6103  154.3101 H   0  0  0  0  0  0  0  0  0  0  0  0  # atno 10763 bound_to 10752
  154.2817  135.2777  155.2696 H   0  0  0  0  0  0  0  0  0  0  0  0  # atno 10764 bound_to 10752
  154.5032  135.5861  153.6603 H   0  0  0  0  0  0  0  0  0  0  0  0  # atno 10765 bound_to 10752
  140.2440  134.3382  155.7915 H   0  0  0  0  0  0  0  0  0  0  0  0  # atno 11005 bound_to 11000
  145.9608  140.8837  143.0212 LP  0  0  0  0  0  0  0  0  0  0  0  0  # atno 17320 bound_to 7965
  144.6742  140.1809  143.7406 LP  0  0  0  0  0  0  0  0  0  0  0  0  # atno 17321 bound_to 7965
  139.4822  144.6050  151.7538 LP  0  0  0  0  0  0  0  0  0  0  0  0  # atno 17342 bound_to 10162
  140.5190  144.0908  150.6017 LP  0  0  0  0  0  0  0  0  0  0  0  0  # atno 17343 bound_to 10162
  156.3993  130.3912  149.6972 LP  0  0  0  0  0  0  0  0  0  0  0  0  # atno 17370 bound_to 10713
  156.4295  130.7808  151.2827 LP  0  0  0  0  0  0  0  0  0  0  0  0  # atno 17371 bound_to 10713
  141.2208  133.7315  156.8930 LP  0  0  0  0  0  0  0  0  0  0  0  0  # atno 17394 bound_to 11000
  140.1625  134.9156  157.2732 LP  0  0  0  0  0  0  0  0  0  0  0  0  # atno 17395 bound_to 11000

$$$$
