AV-unprocessed.smi:23|AV-procd|sdf|173|dock8
  -GOLD-   2262015433D 1   1.00000     0.00000
 Structure written by MMmdl.
 53 56  0  0  0  0  0  0  0  0  1 V2000
  149.8916  145.0522  159.9387 C   0  0  0  0  0  0  0  0  0  0  0  0
  151.1170  145.2186  159.2348 O   0  0  0  0  0  0  0  0  0  0  0  0
  151.9341  144.0674  158.9971 C   0  0  1  0  0  0  0  0  0  0  0  0
  153.1166  144.6511  158.1977 C   0  0  0  0  0  0  0  0  0  0  0  0
  152.4111  143.4583  160.3403 C   0  0  0  0  0  0  0  0  0  0  0  0
  153.2264  142.1713  160.1236 C   0  0  0  0  0  0  0  0  0  0  0  0
  152.4595  141.1664  159.2482 C   0  0  0  0  0  0  0  0  0  0  0  0
  152.0235  141.7910  157.9985 N   0  0  0  0  0  0  0  0  0  0  0  0
  151.6611  140.9823  156.9709 C   0  0  0  0  0  0  0  0  0  0  0  0
  152.5086  140.0093  156.5414 N   0  0  0  0  0  0  0  0  0  0  0  0
  152.1559  139.2031  155.5358 C   0  0  0  0  0  0  0  0  0  0  0  0
  151.0225  139.1938  154.8318 N   0  0  0  0  0  0  0  0  0  0  0  0
  150.1684  140.1696  155.2547 C   0  0  0  0  0  0  0  0  0  0  0  0
  150.4097  141.1025  156.3028 C   0  0  0  0  0  0  0  0  0  0  0  0
  149.3264  141.9648  156.4265 N   0  0  0  0  0  0  0  0  0  0  0  0
  148.4909  141.5604  155.5093 C   0  0  0  0  0  0  0  0  0  0  0  0
  148.9022  140.4673  154.7804 N   0  0  0  0  0  0  0  0  0  0  0  0
  148.1991  139.8491  153.6938 C   0  0  0  0  0  0  0  0  0  0  0  0
  146.7541  140.2390  153.3660 C   0  0  0  0  0  0  0  0  0  0  0  0
  146.4270  138.7743  153.0003 C   0  0  0  0  0  0  0  0  0  0  0  0
  145.1244  138.2251  153.6026 C   0  0  0  0  0  0  0  0  0  0  0  0
  144.0044  138.9826  153.1912 O   0  0  0  0  0  0  0  0  0  0  0  0
  146.4241  138.4067  151.4995 C   0  0  0  0  0  0  0  0  0  0  0  0
  147.5384  138.9171  150.7962 O   0  0  0  0  0  0  0  0  0  0  0  0
  147.7003  138.4041  153.7935 C   0  0  0  0  0  0  0  0  0  0  0  0
  151.2014  142.9910  158.1577 C   0  0  0  0  0  0  0  0  0  0  0  0
  149.4481  146.0335  160.1064 H   0  0  0  0  0  0  0  0  0  0  0  0
  150.0236  144.5872  160.9142 H   0  0  0  0  0  0  0  0  0  0  0  0
  149.1698  144.4726  159.3634 H   0  0  0  0  0  0  0  0  0  0  0  0
  153.8419  143.8899  157.9114 H   0  0  0  0  0  0  0  0  0  0  0  0
  153.6465  145.4094  158.7753 H   0  0  0  0  0  0  0  0  0  0  0  0
  152.7700  145.1239  157.2779 H   0  0  0  0  0  0  0  0  0  0  0  0
  152.9979  144.1855  160.9021 H   0  0  0  0  0  0  0  0  0  0  0  0
  151.5582  143.2046  160.9681 H   0  0  0  0  0  0  0  0  0  0  0  0
  154.1823  142.4082  159.6565 H   0  0  0  0  0  0  0  0  0  0  0  0
  153.4651  141.7170  161.0855 H   0  0  0  0  0  0  0  0  0  0  0  0
  153.1005  140.3089  159.0386 H   0  0  0  0  0  0  0  0  0  0  0  0
  151.5869  140.7931  159.7861 H   0  0  0  0  0  0  0  0  0  0  0  0
  152.8848  138.4563  155.2574 H   0  0  0  0  0  0  0  0  0  0  0  0
  147.5423  142.0501  155.3428 H   0  0  0  0  0  0  0  0  0  0  0  0
  148.8388  139.9745  152.8194 H   0  0  0  0  0  0  0  0  0  0  0  0
  146.2063  140.5840  154.2447 H   0  0  0  0  0  0  0  0  0  0  0  0
  146.6553  140.9485  152.5438 H   0  0  0  0  0  0  0  0  0  0  0  0
  144.9687  137.1823  153.3233 H   0  0  0  0  0  0  0  0  0  0  0  0
  145.1584  138.2499  154.6924 H   0  0  0  0  0  0  0  0  0  0  0  0
  144.3010  139.6651  152.6085 H   0  0  0  0  0  0  0  0  0  0  0  0
  146.4186  137.3241  151.3680 H   0  0  0  0  0  0  0  0  0  0  0  0
  145.5282  138.7852  151.0067 H   0  0  0  0  0  0  0  0  0  0  0  0
  148.1752  139.2231  151.4238 H   0  0  0  0  0  0  0  0  0  0  0  0
  148.3472  137.6721  153.3086 H   0  0  0  0  0  0  0  0  0  0  0  0
  147.4911  138.1116  154.8240 H   0  0  0  0  0  0  0  0  0  0  0  0
  150.2841  142.6750  158.6547 H   0  0  0  0  0  0  0  0  0  0  0  0
  150.9029  143.4122  157.1982 H   0  0  0  0  0  0  0  0  0  0  0  0
  1  2  1  0  0  0  0
  1 27  1  0  0  0  0
  1 28  1  0  0  0  0
  1 29  1  0  0  0  0
  2  3  1  0  0  0  0
  3 26  1  0  0  0  0
  3  4  1  0  0  0  0
  3  5  1  0  0  0  0
  4 30  1  0  0  0  0
  4 31  1  0  0  0  0
  4 32  1  0  0  0  0
  5  6  1  0  0  0  0
  5 33  1  0  0  0  0
  5 34  1  0  0  0  0
  6  7  1  0  0  0  0
  6 35  1  0  0  0  0
  6 36  1  0  0  0  0
  7  8  1  0  0  0  0
  7 37  1  0  0  0  0
  7 38  1  0  0  0  0
  8  9  1  0  0  0  0
  8 26  1  0  0  0  0
  9 14  1  0  0  0  0
  9 10  2  0  0  0  0
 10 11  1  0  0  0  0
 11 12  2  0  0  0  0
 11 39  1  0  0  0  0
 12 13  1  0  0  0  0
 13 17  1  0  0  0  0
 13 14  2  0  0  0  0
 14 15  1  0  0  0  0
 15 16  2  0  0  0  0
 16 17  1  0  0  0  0
 16 40  1  0  0  0  0
 17 18  1  0  0  0  0
 18 25  1  0  0  0  0
 18 19  1  0  0  0  0
 18 41  1  0  0  0  0
 19 20  1  0  0  0  0
 19 42  1  0  0  0  0
 19 43  1  0  0  0  0
 20 21  1  0  0  0  0
 20 23  1  0  0  0  0
 20 25  1  0  0  0  0
 21 22  1  0  0  0  0
 21 44  1  0  0  0  0
 21 45  1  0  0  0  0
 22 46  1  0  0  0  0
 23 24  1  0  0  0  0
 23 47  1  0  0  0  0
 23 48  1  0  0  0  0
 24 49  1  0  0  0  0
 25 50  1  0  0  0  0
 25 51  1  0  0  0  0
 26 52  1  0  0  0  0
 26 53  1  0  0  0  0
M  END
> <s_m_source_file>
AV-unprocessed.smi

> <i_m_source_file_index>
23

> <i_lp_mmshare_version>
43012

> <i_f3d_flags>
0

> <s_epik_input>
W0NIM11PW0NAQF0xKFtDSDNdKVtDSDJdW0NIMl1bQ0gyXU4oW0NIMl0xKWMobltjSF1uMiljKGMyMyluW2NIXW4zW0NIXShbQ0gyXTQpW0NIMl1DNChbQ0gyXVtPSF0pW0NIMl1bT0hd

> <s_epik_cmdline>
J2VwaWtfcHl0aG9uJywgJy1waCcsICc3LjAnLCAnLXRuJywgJzgnLCAnLW1hJywgJzIwMCcsICctbWV0YWxfYmluZGluZycsICctaW1hZScsICc8aW5maWxlLm1hZT4nLCAnLW9tYWUnLCAnPG91dGZpbGUubWFlPic=

> <r_lp_tautomer_probability>
1

> <r_epik_Ionization_Penalty>
0.00233978

> <r_epik_Ionization_Penalty_Charging>
0

> <r_epik_Ionization_Penalty_Neutral>
0.00233978

> <r_epik_State_Penalty>
0.00146422

> <r_epik_Charging_Adjusted_Penalty>
0.00146422

> <i_epik_Tot_Q>
0

> <i_epik_Tot_abs_Q>
0

> <r_epik_Metal_State_Penalty>
-0

> <b_epik_Metal_Only>
0

> <s_lp_Force_Field>
OPLS_2005

> <r_lp_Energy>
49.0819

> <b_lp_Chiralities_Consistent>
1

> <s_lp_Variant>
AV-unprocessed.smi:23-1

> <Gold.Version>
5.8.1

> <Gold.Id.Protein>
6NUR|6NUR_protein|mol2

> <Gold.PLP.Fitness>
56.7293

> <Gold.PLP.PLP>
-46.6380

> <Gold.PLP.part.hbond>
-4.6781

> <Gold.PLP.part.metal>
0.0000

> <Gold.PLP.part.buried>
-3.4886

> <Gold.PLP.part.nonpolar>
-38.0220

> <Gold.PLP.part.repulsive>
0.3581

> <Gold.PLP.ligand.clash>
0.0000

> <Gold.PLP.ligand.torsion>
0.5452

> <Gold.PLP.Chemscore.Hbond>
3.4420

> <Gold.PLP.Chemscore.CHOScore>
0.0000

> <Gold.PLP.Chemscore.Metal>
0.0000

> <Gold.Chemscore.Hbonds>
donor molecule, donor type, donor heavy atom, donor atom, acceptor molecule, acceptor atom, score
      L1  H    24    49       P1  7957  0.54
      P1  H  7954  7966       L1    24  0.61
      P1  H  7997  8009       L1    10  0.99

> <Gold.PLP.Chemscore.Internal.Correction>
0.8556

> <Gold.Rescore>
     Score         DG    S(hbond)    S(metal)    S(lipo)     H(rot)  DE(clash)    DE(int)     intcor
     17.31     -19.56       2.95        0.00     110.29       3.38       0.20       2.05       ----

> <Gold.Chemscore.Fitness>
17.3114

> <Gold.Chemscore.DG>
-19.5639

> <Gold.Chemscore.ZeroCoef>
-5.4800

> <Gold.Chemscore.Hbond>
2.9468

> <Gold.Chemscore.Metal>
0.0000

> <Gold.Chemscore.Lipo>
110.2888

> <Gold.Chemscore.Internal_Hbond>
0.0000

> <Gold.Chemscore.DEClash>
0.2011

> <Gold.Chemscore.DEInternal>
2.0514

> <Gold.Chemscore.Rot>
3.3837

> <Gold.Chemscore.Internal.Correction>
   9.000000E+99

> <Gold.Chemscore.Hbonds>
donor molecule, donor type, donor heavy atom, donor atom, acceptor molecule, acceptor atom, score
      L1  H    24    49       P1  7957  0.46
      P1  H  7954  7966       L1    24  0.35
      P1  H  7997  8009       L1    10  0.70

> <Gold.Chemscore.Hbond.Weighted>
-9.8424

> <Gold.Chemscore.Metal.Weighted>
-0.0000

> <Gold.Chemscore.Lipo.Weighted>
-12.9038

> <Gold.Chemscore.Internal_Hbond.Weighted>
0.0000

> <Gold.Chemscore.DEClash.Weighted>
0.2011

> <Gold.Chemscore.DEInternal.Weighted>
2.0514

> <Gold.Chemscore.Rot.Weighted>
8.6622

> <Gold.Chemscore.Internal.Correction.Weighted>
   9.000000E+99

> <Gold.Protein.RotatedTorsions>
[ 6907 6896 6895 6894 ] final  -54.47 input  -60.11 | X-H torsion
[ 7974 7965 7964 7962 ] final -151.05 input  175.53 | X-H torsion
[ 8008 7997 7996 7995 ] final  176.63 input   59.86 | X-H torsion
[ 10167 10162 10161 10158 ] final   49.44 input  -65.29 | X-H torsion
[ 10718 10713 10712 10709 ] final -150.07 input   66.30 | X-H torsion
[ 10763 10752 10751 10750 ] final -155.47 input  -60.55 | X-H torsion
[ 11005 11000 10999 10996 ] final  -79.27 input  -57.11 | X-H torsion

> <Gold.Protein.ActiveResidues>
 VAL166  LYS551  ARG553  GLY616  TRP617  ASP618  TYR619  PRO620  LYS621  CYS622 
 ASP623  PHE694  ASN695  SER759  ASP760  ASP761  ALA762  ILE779  LEU786  VAL792 
 PHE793  MET794  SER795  GLU796  ALA797  LYS798  CYS799  TRP800  GLU811  SER814 

> <Gold.Protein.RotatedAtoms>
  150.8335  134.7598  159.6873 H   0  0  0  0  0  0  0  0  0  0  0  0  # atno 6907 bound_to 6896
  152.4436  134.5538  159.9884 H   0  0  0  0  0  0  0  0  0  0  0  0  # atno 6908 bound_to 6896
  151.5693  133.3354  159.3022 H   0  0  0  0  0  0  0  0  0  0  0  0  # atno 6909 bound_to 6896
  144.7872  140.4850  143.5798 H   0  0  0  0  0  0  0  0  0  0  0  0  # atno 7974 bound_to 7965
  156.0744  140.1379  156.9789 H   0  0  0  0  0  0  0  0  0  0  0  0  # atno 8008 bound_to 7997
  154.4549  140.0965  156.6780 H   0  0  0  0  0  0  0  0  0  0  0  0  # atno 8009 bound_to 7997
  155.5176  140.3455  155.4403 H   0  0  0  0  0  0  0  0  0  0  0  0  # atno 8010 bound_to 7997
  140.2829  144.3136  150.6260 H   0  0  0  0  0  0  0  0  0  0  0  0  # atno 10167 bound_to 10162
  156.4413  130.8123  151.2353 H   0  0  0  0  0  0  0  0  0  0  0  0  # atno 10718 bound_to 10713
  154.7784  135.3167  154.8042 H   0  0  0  0  0  0  0  0  0  0  0  0  # atno 10763 bound_to 10752
  153.8759  135.6839  153.4775 H   0  0  0  0  0  0  0  0  0  0  0  0  # atno 10764 bound_to 10752
  153.1414  135.4737  154.9438 H   0  0  0  0  0  0  0  0  0  0  0  0  # atno 10765 bound_to 10752
  141.1667  133.7098  156.8097 H   0  0  0  0  0  0  0  0  0  0  0  0  # atno 11005 bound_to 11000
  145.5890  139.1494  143.3193 LP  0  0  0  0  0  0  0  0  0  0  0  0  # atno 17320 bound_to 7965
  146.2109  140.6017  142.9060 LP  0  0  0  0  0  0  0  0  0  0  0  0  # atno 17321 bound_to 7965
  140.5797  143.2173  151.7451 LP  0  0  0  0  0  0  0  0  0  0  0  0  # atno 17342 bound_to 10162
  139.4958  144.4098  152.0093 LP  0  0  0  0  0  0  0  0  0  0  0  0  # atno 17343 bound_to 10162
  157.7506  131.0167  150.3556 LP  0  0  0  0  0  0  0  0  0  0  0  0  # atno 17370 bound_to 10713
  156.3914  130.3898  149.7027 LP  0  0  0  0  0  0  0  0  0  0  0  0  # atno 17371 bound_to 10713
  140.2196  134.8767  157.3363 LP  0  0  0  0  0  0  0  0  0  0  0  0  # atno 17394 bound_to 11000
  140.2001  134.4265  155.7667 LP  0  0  0  0  0  0  0  0  0  0  0  0  # atno 17395 bound_to 11000

$$$$
