AV-unprocessed.smi:120|AV-procd|sdf|1138|dock4
  -GOLD-   2262018273D 1   1.00000     0.00000
 Structure written by MMmdl.
 45 48  0  0  0  0  0  0  0  0  1 V2000
  147.0706  134.1496  152.4863 C   0  0  0  0  0  0  0  0  0  0  0  0
  147.5435  132.9138  153.0022 O   0  0  0  0  0  0  0  0  0  0  0  0
  148.5664  132.9429  153.9261 C   0  0  0  0  0  0  0  0  0  0  0  0
  149.0807  131.7020  154.3478 C   0  0  0  0  0  0  0  0  0  0  0  0
  150.1276  131.6439  155.2837 C   0  0  0  0  0  0  0  0  0  0  0  0
  150.6701  132.8310  155.8078 C   0  0  0  0  0  0  0  0  0  0  0  0
  150.1757  134.0946  155.4094 C   0  0  0  0  0  0  0  0  0  0  0  0
  150.7442  135.3439  155.9625 C   0  0  0  0  0  0  0  0  0  0  0  0
  150.6183  135.6618  157.2448 N   0  0  0  0  0  0  0  0  0  0  0  0
  151.2945  136.8881  157.3299 O   0  0  0  0  0  0  0  0  0  0  0  0
  151.7437  137.1555  156.0779 C   0  0  0  0  0  0  0  0  0  0  0  0
  152.5195  138.4166  155.8478 C   0  0  0  0  0  0  0  0  0  0  0  0
  151.7088  139.5862  156.1461 N   0  0  0  0  0  0  0  0  0  0  0  0
  150.8143  140.0542  155.1517 C   0  0  0  0  0  0  0  0  0  0  0  0
  150.6930  139.4955  154.0604 O   0  0  0  0  0  0  0  0  0  0  0  0
  150.0672  141.2502  155.5256 C   0  0  0  0  0  0  0  0  0  0  0  0
  149.1774  141.7729  154.6649 F   0  0  0  0  0  0  0  0  0  0  0  0
  150.2537  141.8447  156.7240 C   0  0  0  0  0  0  0  0  0  0  0  0
  151.1528  141.3760  157.6684 N   0  0  0  0  0  0  0  0  0  0  0  0
  151.3543  142.0672  159.0002 C   0  0  1  0  0  0  0  0  0  0  0  0
  152.8039  142.5698  159.1353 C   0  0  0  0  0  0  0  0  0  0  0  0
  152.6180  144.0172  159.5442 C   0  0  0  0  0  0  0  0  0  0  0  0
  151.2946  144.3634  158.8786 C   0  0  0  0  0  0  0  0  0  0  0  0
  150.5211  143.1886  159.0850 O   0  0  0  0  0  0  0  0  0  0  0  0
  151.9108  140.2168  157.3960 C   0  0  0  0  0  0  0  0  0  0  0  0
  152.7236  139.7861  158.2179 O   0  0  0  0  0  0  0  0  0  0  0  0
  151.4251  136.2244  155.1797 N   0  0  0  0  0  0  0  0  0  0  0  0
  149.1211  134.1314  154.4652 C   0  0  0  0  0  0  0  0  0  0  0  0
  146.2721  133.9577  151.7696 H   0  0  0  0  0  0  0  0  0  0  0  0
  147.8591  134.6919  151.9627 H   0  0  0  0  0  0  0  0  0  0  0  0
  146.6600  134.7802  153.2759 H   0  0  0  0  0  0  0  0  0  0  0  0
  148.6697  130.7862  153.9488 H   0  0  0  0  0  0  0  0  0  0  0  0
  150.5160  130.6873  155.6008 H   0  0  0  0  0  0  0  0  0  0  0  0
  151.4724  132.7605  156.5277 H   0  0  0  0  0  0  0  0  0  0  0  0
  153.4215  138.4324  156.4601 H   0  0  0  0  0  0  0  0  0  0  0  0
  152.8515  138.4941  154.8106 H   0  0  0  0  0  0  0  0  0  0  0  0
  149.6651  142.7244  156.9341 H   0  0  0  0  0  0  0  0  0  0  0  0
  151.0595  141.3410  159.7601 H   0  0  0  0  0  0  0  0  0  0  0  0
  153.3567  141.9815  159.8683 H   0  0  0  0  0  0  0  0  0  0  0  0
  153.3158  142.5100  158.1734 H   0  0  0  0  0  0  0  0  0  0  0  0
  152.5221  144.0925  160.6281 H   0  0  0  0  0  0  0  0  0  0  0  0
  153.4383  144.6611  159.2262 H   0  0  0  0  0  0  0  0  0  0  0  0
  150.8175  145.2403  159.3161 H   0  0  0  0  0  0  0  0  0  0  0  0
  151.4320  144.5414  157.8112 H   0  0  0  0  0  0  0  0  0  0  0  0
  148.7459  135.0943  154.1548 H   0  0  0  0  0  0  0  0  0  0  0  0
  1  2  1  0  0  0  0
  1 29  1  0  0  0  0
  1 30  1  0  0  0  0
  1 31  1  0  0  0  0
  2  3  1  0  0  0  0
  3 28  1  0  0  0  0
  3  4  2  0  0  0  0
  4  5  1  0  0  0  0
  4 32  1  0  0  0  0
  5  6  2  0  0  0  0
  5 33  1  0  0  0  0
  6  7  1  0  0  0  0
  6 34  1  0  0  0  0
  7  8  1  0  0  0  0
  7 28  2  0  0  0  0
  8 27  1  0  0  0  0
  8  9  2  0  0  0  0
  9 10  1  0  0  0  0
 10 11  1  0  0  0  0
 11 12  1  0  0  0  0
 11 27  2  0  0  0  0
 12 13  1  0  0  0  0
 12 35  1  0  0  0  0
 12 36  1  0  0  0  0
 13 25  1  0  0  0  0
 13 14  1  0  0  0  0
 14 15  2  0  0  0  0
 14 16  1  0  0  0  0
 16 17  1  0  0  0  0
 16 18  2  0  0  0  0
 18 19  1  0  0  0  0
 18 37  1  0  0  0  0
 19 20  1  0  0  0  0
 19 25  1  0  0  0  0
 20 24  1  0  0  0  0
 20 21  1  0  0  0  0
 20 38  1  0  0  0  0
 21 22  1  0  0  0  0
 21 39  1  0  0  0  0
 21 40  1  0  0  0  0
 22 23  1  0  0  0  0
 22 41  1  0  0  0  0
 22 42  1  0  0  0  0
 23 24  1  0  0  0  0
 23 43  1  0  0  0  0
 23 44  1  0  0  0  0
 25 26  2  0  0  0  0
 28 45  1  0  0  0  0
M  END
> <s_m_source_file>
AV-unprocessed.smi

> <i_m_source_file_index>
120

> <i_lp_mmshare_version>
43012

> <i_f3d_flags>
0

> <s_epik_input>
W0NIM11PYzFbY0hdW2NIXVtjSF1jKFtjSF0xKS1jMm5vYyhuMilbQ0gyXW4zYyg9TyljKEYpW2NIXW4oYzM9TylbQ0BASF00W0NIMl1bQ0gyXVtDSDJdTzQ=

> <s_epik_cmdline>
J2VwaWtfcHl0aG9uJywgJy1waCcsICc3LjAnLCAnLXRuJywgJzgnLCAnLW1hJywgJzIwMCcsICctbWV0YWxfYmluZGluZycsICctaW1hZScsICc8aW5maWxlLm1hZT4nLCAnLW9tYWUnLCAnPG91dGZpbGUubWFlPic=

> <r_lp_tautomer_probability>
1

> <r_epik_Ionization_Penalty>
4.93314e-09

> <r_epik_Ionization_Penalty_Charging>
4.92654e-09

> <r_epik_Ionization_Penalty_Neutral>
6.60436e-12

> <r_epik_State_Penalty>
-0

> <r_epik_Charging_Adjusted_Penalty>
4.92654e-09

> <i_epik_Tot_Q>
0

> <i_epik_Tot_abs_Q>
0

> <r_epik_Metal_State_Penalty>
-0

> <b_epik_Metal_Only>
0

> <s_epik_Chemistry_Notes>
This compound contains an acetal/aminal-like group ( X-CH(R)-Y where X, Y are N, S, or O) that may be acid/base labile, releasing an aldehyde.

> <s_lp_Force_Field>
OPLS_2005

> <r_lp_Energy>
36.9113

> <b_lp_Chiralities_Consistent>
1

> <s_lp_Variant>
AV-unprocessed.smi:120-2

> <Gold.Version>
5.8.1

> <Gold.Id.Protein>
6NUR|6NUR_protein|mol2

> <Gold.PLP.Fitness>
57.7424

> <Gold.PLP.PLP>
-51.4715

> <Gold.PLP.part.hbond>
-4.0000

> <Gold.PLP.part.metal>
0.0000

> <Gold.PLP.part.buried>
-3.0737

> <Gold.PLP.part.nonpolar>
-45.3718

> <Gold.PLP.part.repulsive>
0.4905

> <Gold.PLP.ligand.clash>
0.0000

> <Gold.PLP.ligand.torsion>
1.5751

> <Gold.PLP.Chemscore.Hbond>
2.1299

> <Gold.PLP.Chemscore.CHOScore>
1.0000

> <Gold.PLP.Chemscore.Metal>
0.0000

> <Gold.Chemscore.Hbonds>
donor molecule, donor type, donor heavy atom, donor atom, acceptor molecule, acceptor atom, score
      P1  H  7989  7998       L1    15  0.20
      P1  H  7997  8010       L1    26  0.44
      P1  H 10752 10763       L1    27  1.00
      L1  C    18    37       P1  8028  1.00

> <Gold.PLP.Chemscore.Internal.Correction>
0.0315

> <Gold.Rescore>
     Score         DG    S(hbond)    S(metal)    S(lipo)     H(rot)  DE(clash)    DE(int)     intcor
     13.06     -16.10       1.64        0.00      87.45       1.99       0.12       2.93       ----

> <Gold.Chemscore.Fitness>
13.0563

> <Gold.Chemscore.DG>
-16.0997

> <Gold.Chemscore.ZeroCoef>
-5.4800

> <Gold.Chemscore.Hbond>
1.6400

> <Gold.Chemscore.Metal>
0.0000

> <Gold.Chemscore.Lipo>
87.4457

> <Gold.Chemscore.Internal_Hbond>
0.0000

> <Gold.Chemscore.DEClash>
0.1162

> <Gold.Chemscore.DEInternal>
2.9271

> <Gold.Chemscore.Rot>
1.9879

> <Gold.Chemscore.Internal.Correction>
   9.000000E+99

> <Gold.Chemscore.Hbonds>
donor molecule, donor type, donor heavy atom, donor atom, acceptor molecule, acceptor atom, score
      P1  H  7997  8010       L1    26  0.08
      P1  H 10752 10763       L1    27  0.53

> <Gold.Chemscore.Hbond.Weighted>
-5.4775

> <Gold.Chemscore.Metal.Weighted>
-0.0000

> <Gold.Chemscore.Lipo.Weighted>
-10.2311

> <Gold.Chemscore.Internal_Hbond.Weighted>
0.0000

> <Gold.Chemscore.DEClash.Weighted>
0.1162

> <Gold.Chemscore.DEInternal.Weighted>
2.9271

> <Gold.Chemscore.Rot.Weighted>
5.0890

> <Gold.Chemscore.Internal.Correction.Weighted>
   9.000000E+99

> <Gold.Protein.RotatedTorsions>
[ 6907 6896 6895 6894 ] final  171.02 input  -60.11 | X-H torsion
[ 7974 7965 7964 7962 ] final   55.39 input  175.53 | X-H torsion
[ 8008 7997 7996 7995 ] final   39.55 input   59.86 | X-H torsion
[ 10167 10162 10161 10158 ] final -143.72 input  -65.29 | X-H torsion
[ 10718 10713 10712 10709 ] final -127.17 input   66.30 | X-H torsion
[ 10763 10752 10751 10750 ] final   56.22 input  -60.55 | X-H torsion
[ 11005 11000 10999 10996 ] final  -73.26 input  -57.11 | X-H torsion

> <Gold.Protein.ActiveResidues>
 VAL166  LYS551  ARG553  GLY616  TRP617  ASP618  TYR619  PRO620  LYS621  CYS622 
 ASP623  PHE694  ASN695  SER759  ASP760  ASP761  ALA762  ILE779  LEU786  VAL792 
 PHE793  MET794  SER795  GLU796  ALA797  LYS798  CYS799  TRP800  GLU811  SER814 

> <Gold.Protein.RotatedAtoms>
  151.8068  133.3377  159.3543 H   0  0  0  0  0  0  0  0  0  0  0  0  # atno 6907 bound_to 6896
  150.7339  134.5701  159.5895 H   0  0  0  0  0  0  0  0  0  0  0  0  # atno 6908 bound_to 6896
  152.3103  134.7506  160.0389 H   0  0  0  0  0  0  0  0  0  0  0  0  # atno 6909 bound_to 6896
  145.9509  139.3972  143.0306 H   0  0  0  0  0  0  0  0  0  0  0  0  # atno 7974 bound_to 7965
  155.2386  140.3343  155.4295 H   0  0  0  0  0  0  0  0  0  0  0  0  # atno 8008 bound_to 7997
  156.2265  140.1831  156.7394 H   0  0  0  0  0  0  0  0  0  0  0  0  # atno 8009 bound_to 7997
  154.5908  140.0638  156.9221 H   0  0  0  0  0  0  0  0  0  0  0  0  # atno 8010 bound_to 7997
  139.7967  143.7890  152.2655 H   0  0  0  0  0  0  0  0  0  0  0  0  # atno 10167 bound_to 10162
  156.1832  130.6746  151.0331 H   0  0  0  0  0  0  0  0  0  0  0  0  # atno 10718 bound_to 10713
  152.9828  135.5684  154.5193 H   0  0  0  0  0  0  0  0  0  0  0  0  # atno 10763 bound_to 10752
  154.4684  135.2784  155.1663 H   0  0  0  0  0  0  0  0  0  0  0  0  # atno 10764 bound_to 10752
  154.3221  135.6267  153.5566 H   0  0  0  0  0  0  0  0  0  0  0  0  # atno 10765 bound_to 10752
  141.1620  133.6872  156.7184 H   0  0  0  0  0  0  0  0  0  0  0  0  # atno 11005 bound_to 11000
  145.8172  140.9697  143.0918 LP  0  0  0  0  0  0  0  0  0  0  0  0  # atno 17320 bound_to 7965
  144.6796  139.9995  143.7484 LP  0  0  0  0  0  0  0  0  0  0  0  0  # atno 17321 bound_to 7965
  139.7998  144.7378  150.9840 LP  0  0  0  0  0  0  0  0  0  0  0  0  # atno 17342 bound_to 10162
  140.7820  143.4357  151.0628 LP  0  0  0  0  0  0  0  0  0  0  0  0  # atno 17343 bound_to 10162
  157.6882  131.0818  150.7183 LP  0  0  0  0  0  0  0  0  0  0  0  0  # atno 17370 bound_to 10713
  156.7240  130.4689  149.5515 LP  0  0  0  0  0  0  0  0  0  0  0  0  # atno 17371 bound_to 10713
  140.2834  134.8298  157.3953 LP  0  0  0  0  0  0  0  0  0  0  0  0  # atno 17394 bound_to 11000
  140.1412  134.4969  155.8030 LP  0  0  0  0  0  0  0  0  0  0  0  0  # atno 17395 bound_to 11000

$$$$
