AV-unprocessed.smi:2260|AV-procd|sdf|9135|dock4
  -GOLD-   2272012343D 1   1.00000     0.00000
 Structure written by MMmdl.
 42 43  0  0  0  0  0  0  0  0  1 V2000
  148.6585  140.7206  154.2753 C   0  0  0  0  0  0  0  0  0  0  0  0
  149.8142  139.7818  154.5752 C   0  0  0  0  0  0  0  0  0  0  0  0
  149.9182  138.5149  154.1599 C   0  0  0  0  0  0  0  0  0  0  0  0
  151.4075  137.7566  154.6706 S   0  0  0  0  0  0  0  0  0  0  0  0
  151.9111  139.2763  155.4943 C   0  0  0  0  0  0  0  0  0  0  0  0
  152.9803  139.3892  156.0920 O   0  0  0  0  0  0  0  0  0  0  0  0
  150.9077  140.2293  155.3275 N   0  0  0  0  0  0  0  0  0  0  0  0
  151.0126  141.5718  155.9050 C   0  0  0  0  0  0  0  0  0  0  0  0
  149.9536  141.7903  156.9953 C   0  0  0  0  0  0  0  0  0  0  0  0
  150.2759  142.9913  157.7500 N   0  0  0  0  0  0  0  0  0  0  0  0
  150.9470  142.6721  159.0068 C   0  0  1  0  0  0  0  0  0  0  0  0
  152.1210  141.7234  158.6878 C   0  0  0  0  0  0  0  0  0  0  0  0
  152.8866  141.3357  159.9594 C   0  0  0  0  0  0  0  0  0  0  0  0
  153.3716  142.5811  160.7117 C   0  0  0  0  0  0  0  0  0  0  0  0
  152.2030  143.5329  161.0227 C   0  0  0  0  0  0  0  0  0  0  0  0
  151.3962  143.9599  159.7684 C   0  0  0  0  0  0  0  0  0  0  0  0
  152.2542  144.9019  158.8888 C   0  0  0  0  0  0  0  0  0  0  0  0
  150.1599  144.7465  160.2532 C   0  0  0  0  0  0  0  0  0  0  0  0
  148.0822  140.3514  153.4266 H   0  0  0  0  0  0  0  0  0  0  0  0
  149.0057  141.7221  154.0225 H   0  0  0  0  0  0  0  0  0  0  0  0
  147.9913  140.7868  155.1348 H   0  0  0  0  0  0  0  0  0  0  0  0
  149.1975  137.9749  153.5639 H   0  0  0  0  0  0  0  0  0  0  0  0
  152.0138  141.7421  156.3013 H   0  0  0  0  0  0  0  0  0  0  0  0
  150.8867  142.3167  155.1169 H   0  0  0  0  0  0  0  0  0  0  0  0
  148.9655  141.8889  156.5446 H   0  0  0  0  0  0  0  0  0  0  0  0
  149.9206  140.9344  157.6704 H   0  0  0  0  0  0  0  0  0  0  0  0
  150.8705  143.5877  157.1923 H   0  0  0  0  0  0  0  0  0  0  0  0
  150.2639  142.1188  159.6544 H   0  0  0  0  0  0  0  0  0  0  0  0
  151.7473  140.8190  158.2057 H   0  0  0  0  0  0  0  0  0  0  0  0
  152.8058  142.1841  157.9752 H   0  0  0  0  0  0  0  0  0  0  0  0
  152.2394  140.7450  160.6092 H   0  0  0  0  0  0  0  0  0  0  0  0
  153.7346  140.6993  159.7050 H   0  0  0  0  0  0  0  0  0  0  0  0
  153.8587  142.2824  161.6403 H   0  0  0  0  0  0  0  0  0  0  0  0
  154.1323  143.0959  160.1245 H   0  0  0  0  0  0  0  0  0  0  0  0
  151.5362  143.0339  161.7275 H   0  0  0  0  0  0  0  0  0  0  0  0
  152.5813  144.4127  161.5453 H   0  0  0  0  0  0  0  0  0  0  0  0
  152.5974  145.7654  159.4596 H   0  0  0  0  0  0  0  0  0  0  0  0
  151.6884  145.2870  158.0403 H   0  0  0  0  0  0  0  0  0  0  0  0
  153.1392  144.4097  158.4885 H   0  0  0  0  0  0  0  0  0  0  0  0
  150.4490  145.6010  160.8662 H   0  0  0  0  0  0  0  0  0  0  0  0
  149.4990  144.1214  160.8544 H   0  0  0  0  0  0  0  0  0  0  0  0
  149.5748  145.1341  159.4186 H   0  0  0  0  0  0  0  0  0  0  0  0
  1  2  1  0  0  0  0
  1 19  1  0  0  0  0
  1 20  1  0  0  0  0
  1 21  1  0  0  0  0
  2  7  1  0  0  0  0
  2  3  2  0  0  0  0
  3  4  1  0  0  0  0
  3 22  1  0  0  0  0
  4  5  1  0  0  0  0
  5  6  2  0  0  0  0
  5  7  1  0  0  0  0
  7  8  1  0  0  0  0
  8  9  1  0  0  0  0
  8 23  1  0  0  0  0
  8 24  1  0  0  0  0
  9 10  1  0  0  0  0
  9 25  1  0  0  0  0
  9 26  1  0  0  0  0
 10 11  1  0  0  0  0
 10 27  1  0  0  0  0
 11 16  1  0  0  0  0
 11 12  1  0  0  0  0
 11 28  1  0  0  0  0
 12 13  1  0  0  0  0
 12 29  1  0  0  0  0
 12 30  1  0  0  0  0
 13 14  1  0  0  0  0
 13 31  1  0  0  0  0
 13 32  1  0  0  0  0
 14 15  1  0  0  0  0
 14 33  1  0  0  0  0
 14 34  1  0  0  0  0
 15 16  1  0  0  0  0
 15 35  1  0  0  0  0
 15 36  1  0  0  0  0
 16 17  1  0  0  0  0
 16 18  1  0  0  0  0
 17 37  1  0  0  0  0
 17 38  1  0  0  0  0
 17 39  1  0  0  0  0
 18 40  1  0  0  0  0
 18 41  1  0  0  0  0
 18 42  1  0  0  0  0
M  END
> <s_m_source_file>
AV-unprocessed.smi

> <i_m_source_file_index>
2260

> <i_lp_mmshare_version>
43012

> <i_f3d_flags>
0

> <s_epik_input>
W0NIM11jMVtjSF1zYyg9TyluMVtDSDJdW0NIMl1bTkhdW0NAQEhdKEMyKFtDSDNdKVtDSDNdKVtDSDJdW0NIMl1bQ0gyXVtDSDJdMg==

> <s_epik_cmdline>
J2VwaWtfcHl0aG9uJywgJy1waCcsICc3LjAnLCAnLXRuJywgJzgnLCAnLW1hJywgJzIwMCcsICctbWV0YWxfYmluZGluZycsICctaW1hZScsICc8aW5maWxlLm1hZT4nLCAnLW9tYWUnLCAnPG91dGZpbGUubWFlPic=

> <r_epik_Ionization_Penalty>
2.34504

> <r_epik_Ionization_Penalty_Charging>
4.7617e-06

> <r_epik_Ionization_Penalty_Neutral>
2.34504

> <r_epik_State_Penalty>
2.49894

> <r_epik_Charging_Adjusted_Penalty>
2.49895

> <i_epik_Tot_Q>
0

> <i_epik_Tot_abs_Q>
0

> <r_epik_Metal_State_Penalty>
2.49894

> <b_epik_Metal_Only>
0

> <s_lp_Force_Field>
OPLS_2005

> <r_lp_Energy>
26.7026

> <b_lp_Chiralities_Consistent>
1

> <s_lp_Variant>
AV-unprocessed.smi:2260-4

> <Gold.Version>
5.8.1

> <Gold.Id.Protein>
6NUR|6NUR_protein|mol2

> <Gold.PLP.Fitness>
52.0696

> <Gold.PLP.PLP>
-46.8402

> <Gold.PLP.part.hbond>
-1.9615

> <Gold.PLP.part.metal>
0.0000

> <Gold.PLP.part.buried>
-3.7787

> <Gold.PLP.part.nonpolar>
-40.6575

> <Gold.PLP.part.repulsive>
0.0000

> <Gold.PLP.ligand.clash>
0.0253

> <Gold.PLP.ligand.torsion>
0.3805

> <Gold.PLP.Chemscore.Hbond>
1.0000

> <Gold.PLP.Chemscore.CHOScore>
1.0000

> <Gold.PLP.Chemscore.Metal>
0.0000

> <Gold.Chemscore.Hbonds>
donor molecule, donor type, donor heavy atom, donor atom, acceptor molecule, acceptor atom, score
      P1  H  7997  8009       L1     6  1.00
      L1  C     3    22       P1  7948  1.00

> <Gold.PLP.Chemscore.Internal.Correction>
0.0157

> <Gold.Rescore>
     Score         DG    S(hbond)    S(metal)    S(lipo)     H(rot)  DE(clash)    DE(int)     intcor
     18.42     -20.15       1.00        0.00     128.16       1.43       1.17       0.56       ----

> <Gold.Chemscore.Fitness>
18.4211

> <Gold.Chemscore.DG>
-20.1507

> <Gold.Chemscore.ZeroCoef>
-5.4800

> <Gold.Chemscore.Hbond>
0.9978

> <Gold.Chemscore.Metal>
0.0000

> <Gold.Chemscore.Lipo>
128.1620

> <Gold.Chemscore.Internal_Hbond>
0.0000

> <Gold.Chemscore.DEClash>
1.1695

> <Gold.Chemscore.DEInternal>
0.5601

> <Gold.Chemscore.Rot>
1.4285

> <Gold.Chemscore.Internal.Correction>
   9.000000E+99

> <Gold.Chemscore.Hbonds>
donor molecule, donor type, donor heavy atom, donor atom, acceptor molecule, acceptor atom, score
      P1  H  7997  8009       L1     6  0.97

> <Gold.Chemscore.Hbond.Weighted>
-3.3326

> <Gold.Chemscore.Metal.Weighted>
-0.0000

> <Gold.Chemscore.Lipo.Weighted>
-14.9950

> <Gold.Chemscore.Internal_Hbond.Weighted>
0.0000

> <Gold.Chemscore.DEClash.Weighted>
1.1695

> <Gold.Chemscore.DEInternal.Weighted>
0.5601

> <Gold.Chemscore.Rot.Weighted>
3.6569

> <Gold.Chemscore.Internal.Correction.Weighted>
   9.000000E+99

> <Gold.Protein.RotatedTorsions>
[ 6907 6896 6895 6894 ] final -157.36 input  -60.11 | X-H torsion
[ 7974 7965 7964 7962 ] final  -84.83 input  175.53 | X-H torsion
[ 8008 7997 7996 7995 ] final -168.80 input   59.86 | X-H torsion
[ 10167 10162 10161 10158 ] final  144.51 input  -65.29 | X-H torsion
[ 10718 10713 10712 10709 ] final   90.21 input   66.30 | X-H torsion
[ 10763 10752 10751 10750 ] final  -41.65 input  -60.55 | X-H torsion
[ 11005 11000 10999 10996 ] final    6.35 input  -57.11 | X-H torsion

> <Gold.Protein.ActiveResidues>
 VAL166  LYS551  ARG553  GLY616  TRP617  ASP618  TYR619  PRO620  LYS621  CYS622 
 ASP623  PHE694  ASN695  SER759  ASP760  ASP761  ALA762  ILE779  LEU786  VAL792 
 PHE793  MET794  SER795  GLU796  ALA797  LYS798  CYS799  TRP800  GLU811  SER814 

> <Gold.Protein.RotatedAtoms>
  151.3017  133.4119  159.2639 H   0  0  0  0  0  0  0  0  0  0  0  0  # atno 6907 bound_to 6896
  151.0190  134.9455  159.8059 H   0  0  0  0  0  0  0  0  0  0  0  0  # atno 6908 bound_to 6896
  152.5319  134.2980  159.9120 H   0  0  0  0  0  0  0  0  0  0  0  0  # atno 6909 bound_to 6896
  145.5014  140.9547  143.1757 H   0  0  0  0  0  0  0  0  0  0  0  0  # atno 7974 bound_to 7965
  155.8964  140.1033  157.1382 H   0  0  0  0  0  0  0  0  0  0  0  0  # atno 8008 bound_to 7997
  154.4021  140.1301  156.4444 H   0  0  0  0  0  0  0  0  0  0  0  0  # atno 8009 bound_to 7997
  155.7474  140.3466  155.5136 H   0  0  0  0  0  0  0  0  0  0  0  0  # atno 8010 bound_to 7997
  139.4945  144.5967  151.6568 H   0  0  0  0  0  0  0  0  0  0  0  0  # atno 10167 bound_to 10162
  157.6958  131.0362  150.3543 H   0  0  0  0  0  0  0  0  0  0  0  0  # atno 10718 bound_to 10713
  153.9660  135.6734  153.4746 H   0  0  0  0  0  0  0  0  0  0  0  0  # atno 10763 bound_to 10752
  153.0815  135.4921  154.8509 H   0  0  0  0  0  0  0  0  0  0  0  0  # atno 10764 bound_to 10752
  154.7246  135.3124  154.8952 H   0  0  0  0  0  0  0  0  0  0  0  0  # atno 10765 bound_to 10752
  140.5605  134.0197  155.7970 H   0  0  0  0  0  0  0  0  0  0  0  0  # atno 11005 bound_to 11000
  144.7778  139.6592  143.7167 LP  0  0  0  0  0  0  0  0  0  0  0  0  # atno 17320 bound_to 7965
  146.2223  139.5659  142.9610 LP  0  0  0  0  0  0  0  0  0  0  0  0  # atno 17321 bound_to 7965
  140.5606  144.0274  150.6168 LP  0  0  0  0  0  0  0  0  0  0  0  0  # atno 17342 bound_to 10162
  140.3359  143.3049  152.0639 LP  0  0  0  0  0  0  0  0  0  0  0  0  # atno 17343 bound_to 10162
  156.3987  130.3911  149.6975 LP  0  0  0  0  0  0  0  0  0  0  0  0  # atno 17370 bound_to 10713
  156.4300  130.7810  151.2830 LP  0  0  0  0  0  0  0  0  0  0  0  0  # atno 17371 bound_to 10713
  141.1117  133.9605  157.2897 LP  0  0  0  0  0  0  0  0  0  0  0  0  # atno 17394 bound_to 11000
  139.9410  135.0191  156.8708 LP  0  0  0  0  0  0  0  0  0  0  0  0  # atno 17395 bound_to 11000

$$$$
