AV-unprocessed.smi:3195|AV-procd|sdf|12220|dock7
  -GOLD-   2272018 53D 1   1.00000     0.00000
 Structure written by MMmdl.
 29 30  0  0  0  0  0  0  0  0  2 V2000
  152.9172  142.0204  159.9991 C   0  0  0  0  0  0  0  0  0  0  0  0
  151.8737  142.9338  159.3331 C   0  0  2  0  0  0  0  0  0  0  0  0
  150.9737  142.1169  158.3802 C   0  0  0  0  0  0  0  0  0  0  0  0
  149.7798  141.9842  158.6539 O   0  0  0  0  0  0  0  0  0  0  0  0
  151.5615  141.5980  157.2847 N   0  0  0  0  0  0  0  0  0  0  0  0
  150.9882  140.8022  156.2545 C   0  0  0  0  0  0  0  0  0  0  0  0
  149.8018  141.1009  155.6673 N   0  0  0  0  0  0  0  0  0  0  0  0
  149.3233  140.2970  154.6958 C   0  0  0  0  0  0  0  0  0  0  0  0
  149.9945  139.1462  154.2473 C   0  0  0  0  0  0  0  0  0  0  0  0
  151.2244  138.8227  154.8461 C   0  0  0  0  0  0  0  0  0  0  0  0
  151.7311  139.6569  155.8630 C   0  0  0  0  0  0  0  0  0  0  0  0
  152.9277  139.3393  156.4467 O   0  5  0  0  0  0  0  0  0  0  0  0
  152.5287  144.1359  158.6117 C   0  0  0  0  0  0  0  0  0  0  0  0
  152.0554  145.3524  159.3880 C   0  0  0  0  0  0  0  0  0  0  0  0
  150.7664  144.8611  160.0262 C   0  0  0  0  0  0  0  0  0  0  0  0
  151.0869  143.5227  160.3742 O   0  0  0  0  0  0  0  0  0  0  0  0
  153.5868  141.5731  159.2637 H   0  0  0  0  0  0  0  0  0  0  0  0
  152.4394  141.2101  160.5512 H   0  0  0  0  0  0  0  0  0  0  0  0
  153.5307  142.5799  160.7059 H   0  0  0  0  0  0  0  0  0  0  0  0
  152.5474  141.7885  157.1736 H   0  0  0  0  0  0  0  0  0  0  0  0
  148.3759  140.5814  154.2630 H   0  0  0  0  0  0  0  0  0  0  0  0
  149.5774  138.5287  153.4659 H   0  0  0  0  0  0  0  0  0  0  0  0
  151.7699  137.9461  154.5284 H   0  0  0  0  0  0  0  0  0  0  0  0
  153.6177  144.0767  158.5933 H   0  0  0  0  0  0  0  0  0  0  0  0
  152.1982  144.2186  157.5747 H   0  0  0  0  0  0  0  0  0  0  0  0
  152.7795  145.6014  160.1648 H   0  0  0  0  0  0  0  0  0  0  0  0
  151.9123  146.2325  158.7607 H   0  0  0  0  0  0  0  0  0  0  0  0
  150.4760  145.4466  160.8985 H   0  0  0  0  0  0  0  0  0  0  0  0
  149.9431  144.8741  159.3100 H   0  0  0  0  0  0  0  0  0  0  0  0
  1  2  1  0  0  0  0
  1 17  1  0  0  0  0
  1 18  1  0  0  0  0
  1 19  1  0  0  0  0
  2 16  1  0  0  0  0
  2  3  1  0  0  0  0
  2 13  1  0  0  0  0
  3  4  2  0  0  0  0
  3  5  1  0  0  0  0
  5 20  1  0  0  0  0
  5  6  1  0  0  0  0
  6 11  2  0  0  0  0
  6  7  1  0  0  0  0
  7  8  2  0  0  0  0
  8 21  1  0  0  0  0
  8  9  1  0  0  0  0
  9 22  1  0  0  0  0
  9 10  2  0  0  0  0
 10 11  1  0  0  0  0
 10 23  1  0  0  0  0
 11 12  1  0  0  0  0
 13 14  1  0  0  0  0
 13 24  1  0  0  0  0
 13 25  1  0  0  0  0
 14 15  1  0  0  0  0
 14 26  1  0  0  0  0
 14 27  1  0  0  0  0
 15 16  1  0  0  0  0
 15 28  1  0  0  0  0
 15 29  1  0  0  0  0
M  CHG  1  12  -1
M  END
> <s_m_source_file>
AV-unprocessed.smi

> <i_m_source_file_index>
3195

> <i_lp_mmshare_version>
43012

> <i_f3d_flags>
0

> <s_epik_input>
TzFbQ0gyXVtDSDJdW0NIMl1bQ0BAXTEoW0NIM10pQyg9TylbTkhdYzJuW2NIXVtjSF1bY0hdYzJbT0hd

> <s_epik_cmdline>
J2VwaWtfcHl0aG9uJywgJy1waCcsICc3LjAnLCAnLXRuJywgJzgnLCAnLW1hJywgJzIwMCcsICctbWV0YWxfYmluZGluZycsICctaW1hZScsICc8aW5maWxlLm1hZT4nLCAnLW9tYWUnLCAnPG91dGZpbGUubWFlPic=

> <r_epik_Ionization_Penalty>
4.16712

> <r_epik_Ionization_Penalty_Charging>
2.09898

> <r_epik_Ionization_Penalty_Neutral>
2.06814

> <r_epik_State_Penalty>
2.6848

> <r_epik_Charging_Adjusted_Penalty>
4.78378

> <i_epik_Tot_Q>
-1

> <i_epik_Tot_abs_Q>
1

> <r_epik_Metal_State_Penalty>
0.595229

> <b_epik_Metal_Only>
0

> <s_lp_Force_Field>
OPLS_2005

> <r_lp_Energy>
19.5699

> <b_lp_Chiralities_Consistent>
1

> <s_lp_Variant>
AV-unprocessed.smi:3195-8

> <Gold.Version>
5.8.1

> <Gold.Id.Protein>
6NUR|6NUR_protein|mol2

> <Gold.PLP.Fitness>
43.9105

> <Gold.PLP.PLP>
-38.7967

> <Gold.PLP.part.hbond>
-2.2217

> <Gold.PLP.part.metal>
0.0000

> <Gold.PLP.part.buried>
-3.8765

> <Gold.PLP.part.nonpolar>
-33.4724

> <Gold.PLP.part.repulsive>
0.3216

> <Gold.PLP.ligand.clash>
0.0000

> <Gold.PLP.ligand.torsion>
0.4597

> <Gold.PLP.Chemscore.Hbond>
2.0000

> <Gold.PLP.Chemscore.CHOScore>
0.0000

> <Gold.PLP.Chemscore.Metal>
0.0000

> <Gold.Chemscore.Hbonds>
donor molecule, donor type, donor heavy atom, donor atom, acceptor molecule, acceptor atom, score
      P1  H  7997  8008       L1    12  2.00

> <Gold.PLP.Chemscore.Internal.Correction>
0.0332

> <Gold.Rescore>
     Score         DG    S(hbond)    S(metal)    S(lipo)     H(rot)  DE(clash)    DE(int)     intcor
     16.12     -16.84       1.00        0.00      90.43       1.00       0.26       0.46       ----

> <Gold.Chemscore.Fitness>
16.1210

> <Gold.Chemscore.DG>
-16.8383

> <Gold.Chemscore.ZeroCoef>
-5.4800

> <Gold.Chemscore.Hbond>
0.9994

> <Gold.Chemscore.Metal>
0.0000

> <Gold.Chemscore.Lipo>
90.4301

> <Gold.Chemscore.Internal_Hbond>
0.0000

> <Gold.Chemscore.DEClash>
0.2588

> <Gold.Chemscore.DEInternal>
0.4585

> <Gold.Chemscore.Rot>
1.0000

> <Gold.Chemscore.Internal.Correction>
   9.000000E+99

> <Gold.Chemscore.Hbonds>
donor molecule, donor type, donor heavy atom, donor atom, acceptor molecule, acceptor atom, score
      P1  H  7997  8008       L1    12  0.99

> <Gold.Chemscore.Hbond.Weighted>
-3.3380

> <Gold.Chemscore.Metal.Weighted>
-0.0000

> <Gold.Chemscore.Lipo.Weighted>
-10.5803

> <Gold.Chemscore.Internal_Hbond.Weighted>
0.0000

> <Gold.Chemscore.DEClash.Weighted>
0.2588

> <Gold.Chemscore.DEInternal.Weighted>
0.4585

> <Gold.Chemscore.Rot.Weighted>
2.5600

> <Gold.Chemscore.Internal.Correction.Weighted>
   9.000000E+99

> <Gold.Protein.RotatedTorsions>
[ 6907 6896 6895 6894 ] final   59.61 input  -60.11 | X-H torsion
[ 7974 7965 7964 7962 ] final   36.29 input  175.53 | X-H torsion
[ 8008 7997 7996 7995 ] final  -41.36 input   59.86 | X-H torsion
[ 10167 10162 10161 10158 ] final   59.73 input  -65.29 | X-H torsion
[ 10718 10713 10712 10709 ] final  144.95 input   66.30 | X-H torsion
[ 10763 10752 10751 10750 ] final   82.49 input  -60.55 | X-H torsion
[ 11005 11000 10999 10996 ] final  171.55 input  -57.11 | X-H torsion

> <Gold.Protein.ActiveResidues>
 VAL166  LYS551  ARG553  GLY616  TRP617  ASP618  TYR619  PRO620  LYS621  CYS622 
 ASP623  PHE694  ASN695  SER759  ASP760  ASP761  ALA762  ILE779  LEU786  VAL792 
 PHE793  MET794  SER795  GLU796  ALA797  LYS798  CYS799  TRP800  GLU811  SER814 

> <Gold.Protein.RotatedAtoms>
  152.3930  134.6411  160.0099 H   0  0  0  0  0  0  0  0  0  0  0  0  # atno 6907 bound_to 6896
  151.6639  133.3310  159.3188 H   0  0  0  0  0  0  0  0  0  0  0  0  # atno 6908 bound_to 6896
  150.7842  134.6857  159.6513 H   0  0  0  0  0  0  0  0  0  0  0  0  # atno 6909 bound_to 6896
  146.1221  139.6035  142.9282 H   0  0  0  0  0  0  0  0  0  0  0  0  # atno 7974 bound_to 7965
  154.4004  140.1501  156.3179 H   0  0  0  0  0  0  0  0  0  0  0  0  # atno 8008 bound_to 7997
  155.8556  140.3456  155.5701 H   0  0  0  0  0  0  0  0  0  0  0  0  # atno 8009 bound_to 7997
  155.7936  140.0860  157.1986 H   0  0  0  0  0  0  0  0  0  0  0  0  # atno 8010 bound_to 7997
  140.1732  144.4256  150.6651 H   0  0  0  0  0  0  0  0  0  0  0  0  # atno 10167 bound_to 10162
  157.3511  131.0951  151.0999 H   0  0  0  0  0  0  0  0  0  0  0  0  # atno 10718 bound_to 10713
  153.1207  135.4726  154.9190 H   0  0  0  0  0  0  0  0  0  0  0  0  # atno 10763 bound_to 10752
  154.7572  135.3122  154.8449 H   0  0  0  0  0  0  0  0  0  0  0  0  # atno 10764 bound_to 10752
  153.9014  135.6874  153.4809 H   0  0  0  0  0  0  0  0  0  0  0  0  # atno 10765 bound_to 10752
  140.3202  134.7443  157.4058 H   0  0  0  0  0  0  0  0  0  0  0  0  # atno 11005 bound_to 11000
  145.5443  141.0418  143.2313 LP  0  0  0  0  0  0  0  0  0  0  0  0  # atno 17320 bound_to 7965
  144.7607  139.6963  143.7235 LP  0  0  0  0  0  0  0  0  0  0  0  0  # atno 17321 bound_to 7965
  140.6568  143.2240  151.5949 LP  0  0  0  0  0  0  0  0  0  0  0  0  # atno 17342 bound_to 10162
  139.5328  144.2865  152.1187 LP  0  0  0  0  0  0  0  0  0  0  0  0  # atno 17343 bound_to 10162
  157.2174  130.6466  149.5798 LP  0  0  0  0  0  0  0  0  0  0  0  0  # atno 17370 bound_to 10713
  155.9722  130.4640  150.6202 LP  0  0  0  0  0  0  0  0  0  0  0  0  # atno 17371 bound_to 10713
  140.0948  134.5552  155.8409 LP  0  0  0  0  0  0  0  0  0  0  0  0  # atno 17394 bound_to 11000
  141.2088  133.6677  156.6397 LP  0  0  0  0  0  0  0  0  0  0  0  0  # atno 17395 bound_to 11000

$$$$
