AV-unprocessed.smi:1231|AV-procd|sdf|5163|dock7
  -GOLD-   22720 4233D 1   1.00000     0.00000
 Structure written by MMmdl.
 43 44  0  0  0  0  0  0  0  0  2 V2000
  146.3322  137.0333  151.1999 C   0  0  0  0  0  0  0  0  0  0  0  0
  145.8158  137.9434  152.3196 C   0  0  2  0  0  0  0  0  0  0  0  0
  146.7501  139.1416  152.5658 C   0  0  0  0  0  0  0  0  0  0  0  0
  146.2686  139.9478  153.7110 N   0  3  2  0  0  0  0  0  0  0  0  0
  147.0777  141.1738  153.9197 C   0  0  0  0  0  0  0  0  0  0  0  0
  148.5411  140.8573  154.2857 C   0  0  0  0  0  0  0  0  0  0  0  0
  149.0953  141.8520  155.1969 N   0  0  0  0  0  0  0  0  0  0  0  0
  149.8719  141.5729  156.2540 C   0  0  0  0  0  0  0  0  0  0  0  0
  150.2062  140.4283  156.5621 O   0  0  0  0  0  0  0  0  0  0  0  0
  150.2232  142.6915  156.9121 N   0  0  0  0  0  0  0  0  0  0  0  0
  151.0559  142.8107  158.0567 C   0  0  0  0  0  0  0  0  0  0  0  0
  151.2430  144.1305  158.5261 C   0  0  0  0  0  0  0  0  0  0  0  0
  152.0549  144.3558  159.6547 C   0  0  0  0  0  0  0  0  0  0  0  0
  152.6607  143.2541  160.2845 C   0  0  0  0  0  0  0  0  0  0  0  0
  152.4235  141.9732  159.7528 C   0  0  0  0  0  0  0  0  0  0  0  0
  151.6454  141.7550  158.6716 N   0  0  0  0  0  0  0  0  0  0  0  0
  146.1537  139.0986  154.9226 C   0  0  0  0  0  0  0  0  0  0  0  0
  145.2584  137.8728  154.6576 C   0  0  1  0  0  0  0  0  0  0  0  0
  143.7606  138.2160  154.5696 C   0  0  0  0  0  0  0  0  0  0  0  0
  145.7207  137.1631  153.5083 O   0  0  0  0  0  0  0  0  0  0  0  0
  146.4097  137.5750  150.2570 H   0  0  0  0  0  0  0  0  0  0  0  0
  145.6603  136.1891  151.0436 H   0  0  0  0  0  0  0  0  0  0  0  0
  147.3183  136.6337  151.4387 H   0  0  0  0  0  0  0  0  0  0  0  0
  144.8267  138.3020  152.0339 H   0  0  0  0  0  0  0  0  0  0  0  0
  147.7669  138.7979  152.7646 H   0  0  0  0  0  0  0  0  0  0  0  0
  146.7915  139.7610  151.6689 H   0  0  0  0  0  0  0  0  0  0  0  0
  147.0193  141.8029  153.0302 H   0  0  0  0  0  0  0  0  0  0  0  0
  146.6435  141.7535  154.7358 H   0  0  0  0  0  0  0  0  0  0  0  0
  148.6004  139.8828  154.7710 H   0  0  0  0  0  0  0  0  0  0  0  0
  149.1730  140.8013  153.3990 H   0  0  0  0  0  0  0  0  0  0  0  0
  148.8646  142.8181  155.0154 H   0  0  0  0  0  0  0  0  0  0  0  0
  149.8581  143.5599  156.5500 H   0  0  0  0  0  0  0  0  0  0  0  0
  150.7709  144.9656  158.0294 H   0  0  0  0  0  0  0  0  0  0  0  0
  152.2102  145.3569  160.0293 H   0  0  0  0  0  0  0  0  0  0  0  0
  153.2902  143.3866  161.1520 H   0  0  0  0  0  0  0  0  0  0  0  0
  152.8700  141.1009  160.2065 H   0  0  0  0  0  0  0  0  0  0  0  0
  147.1497  138.7661  155.2197 H   0  0  0  0  0  0  0  0  0  0  0  0
  145.7516  139.6660  155.7611 H   0  0  0  0  0  0  0  0  0  0  0  0
  145.3745  137.1895  155.4993 H   0  0  0  0  0  0  0  0  0  0  0  0
  143.4051  138.6337  155.5119 H   0  0  0  0  0  0  0  0  0  0  0  0
  143.1690  137.3244  154.3614 H   0  0  0  0  0  0  0  0  0  0  0  0
  143.5475  138.9487  153.7916 H   0  0  0  0  0  0  0  0  0  0  0  0
  145.3363  140.2538  153.4716 H   0  0  0  0  0  0  0  0  0  0  0  0
  1  2  1  0  0  0  0
  1 21  1  0  0  0  0
  1 22  1  0  0  0  0
  1 23  1  0  0  0  0
  2 20  1  0  0  0  0
  2  3  1  0  0  0  0
  2 24  1  0  0  0  0
  3  4  1  0  0  0  0
  3 25  1  0  0  0  0
  3 26  1  0  0  0  0
  4  5  1  0  0  0  0
  4 17  1  0  0  0  0
  4 43  1  0  0  0  0
  5  6  1  0  0  0  0
  5 27  1  0  0  0  0
  5 28  1  0  0  0  0
  6  7  1  0  0  0  0
  6 29  1  0  0  0  0
  6 30  1  0  0  0  0
  7  8  1  0  0  0  0
  7 31  1  0  0  0  0
  8  9  2  0  0  0  0
  8 10  1  0  0  0  0
 10 11  1  0  0  0  0
 10 32  1  0  0  0  0
 11 16  1  0  0  0  0
 11 12  2  0  0  0  0
 12 13  1  0  0  0  0
 12 33  1  0  0  0  0
 13 14  2  0  0  0  0
 13 34  1  0  0  0  0
 14 15  1  0  0  0  0
 14 35  1  0  0  0  0
 15 16  2  0  0  0  0
 15 36  1  0  0  0  0
 17 18  1  0  0  0  0
 17 37  1  0  0  0  0
 17 38  1  0  0  0  0
 18 19  1  0  0  0  0
 18 20  1  0  0  0  0
 18 39  1  0  0  0  0
 19 40  1  0  0  0  0
 19 41  1  0  0  0  0
 19 42  1  0  0  0  0
M  CHG  1   4   1
M  END
> <s_m_source_file>
AV-unprocessed.smi

> <i_m_source_file_index>
1231

> <i_lp_mmshare_version>
43012

> <i_f3d_flags>
0

> <s_epik_input>
W0NIM11bQ0BASF0xW0NIMl1OKFtDSDJdW0NASF0oTzEpW0NIM10pW0NIMl1bQ0gyXVtOSF1DKD1PKVtOSF1jMltjSF1bY0hdW2NIXVtjSF1uMg==

> <s_epik_cmdline>
J2VwaWtfcHl0aG9uJywgJy1waCcsICc3LjAnLCAnLXRuJywgJzgnLCAnLW1hJywgJzIwMCcsICctbWV0YWxfYmluZGluZycsICctaW1hZScsICc8aW5maWxlLm1hZT4nLCAnLW9tYWUnLCAnPG91dGZpbGUubWFlPic=

> <r_epik_Ionization_Penalty>
0.602565

> <r_epik_Ionization_Penalty_Charging>
0.602531

> <r_epik_Ionization_Penalty_Neutral>
3.43186e-05

> <r_epik_State_Penalty>
0.617039

> <r_epik_Charging_Adjusted_Penalty>
1.21957

> <i_epik_Tot_Q>
1

> <i_epik_Tot_abs_Q>
1

> <r_epik_Metal_State_Penalty>
0.617041

> <b_epik_Metal_Only>
0

> <s_lp_Force_Field>
OPLS_2005

> <r_lp_Energy>
18.1203

> <b_lp_Chiralities_Consistent>
1

> <s_lp_Variant>
AV-unprocessed.smi:1231-4

> <Gold.Version>
5.8.1

> <Gold.Id.Protein>
6NUR|6NUR_protein|mol2

> <Gold.PLP.Fitness>
48.5000

> <Gold.PLP.PLP>
-37.4905

> <Gold.PLP.part.hbond>
-3.0000

> <Gold.PLP.part.metal>
0.0000

> <Gold.PLP.part.buried>
0.3001

> <Gold.PLP.part.nonpolar>
-35.2974

> <Gold.PLP.part.repulsive>
0.4476

> <Gold.PLP.ligand.clash>
0.0000

> <Gold.PLP.ligand.torsion>
0.3481

> <Gold.PLP.Chemscore.Hbond>
3.8960

> <Gold.PLP.Chemscore.CHOScore>
0.0000

> <Gold.PLP.Chemscore.Metal>
0.0000

> <Gold.Chemscore.Hbonds>
donor molecule, donor type, donor heavy atom, donor atom, acceptor molecule, acceptor atom, score
      L1  H     4    43       P1 10175  2.00
      L1  H     7    31       P1  8028  0.98
      L1  H    10    32       P1  8028  1.00

> <Gold.PLP.Chemscore.Internal.Correction>
0.0177

> <Gold.Rescore>
     Score         DG    S(hbond)    S(metal)    S(lipo)     H(rot)  DE(clash)    DE(int)     intcor
     18.87     -22.06       2.90        0.00      92.86       1.55       1.54       1.65       ----

> <Gold.Chemscore.Fitness>
18.8681

> <Gold.Chemscore.DG>
-22.0572

> <Gold.Chemscore.ZeroCoef>
-5.4800

> <Gold.Chemscore.Hbond>
2.9018

> <Gold.Chemscore.Metal>
0.0000

> <Gold.Chemscore.Lipo>
92.8627

> <Gold.Chemscore.Internal_Hbond>
0.0000

> <Gold.Chemscore.DEClash>
1.5397

> <Gold.Chemscore.DEInternal>
1.6495

> <Gold.Chemscore.Rot>
1.5546

> <Gold.Chemscore.Internal.Correction>
   9.000000E+99

> <Gold.Chemscore.Hbonds>
donor molecule, donor type, donor heavy atom, donor atom, acceptor molecule, acceptor atom, score
      L1  H     4    43       P1 10175  0.99
      L1  H     7    31       P1  8028  0.90
      L1  H    10    32       P1  8028  1.00

> <Gold.Chemscore.Hbond.Weighted>
-9.6920

> <Gold.Chemscore.Metal.Weighted>
-0.0000

> <Gold.Chemscore.Lipo.Weighted>
-10.8649

> <Gold.Chemscore.Internal_Hbond.Weighted>
0.0000

> <Gold.Chemscore.DEClash.Weighted>
1.5397

> <Gold.Chemscore.DEInternal.Weighted>
1.6495

> <Gold.Chemscore.Rot.Weighted>
3.9797

> <Gold.Chemscore.Internal.Correction.Weighted>
   9.000000E+99

> <Gold.Protein.RotatedTorsions>
[ 6907 6896 6895 6894 ] final  153.35 input  -60.11 | X-H torsion
[ 7974 7965 7964 7962 ] final  -44.06 input  175.53 | X-H torsion
[ 8008 7997 7996 7995 ] final   16.77 input   59.86 | X-H torsion
[ 10167 10162 10161 10158 ] final  177.08 input  -65.29 | X-H torsion
[ 10718 10713 10712 10709 ] final   22.81 input   66.30 | X-H torsion
[ 10763 10752 10751 10750 ] final  -92.61 input  -60.55 | X-H torsion
[ 11005 11000 10999 10996 ] final -118.07 input  -57.11 | X-H torsion

> <Gold.Protein.ActiveResidues>
 VAL166  LYS551  ARG553  GLY616  TRP617  ASP618  TYR619  PRO620  LYS621  CYS622 
 ASP623  PHE694  ASN695  SER759  ASP760  ASP761  ALA762  ILE779  LEU786  VAL792 
 PHE793  MET794  SER795  GLU796  ALA797  LYS798  CYS799  TRP800  GLU811  SER814 

> <Gold.Protein.RotatedAtoms>
  152.0739  133.4120  159.4470 H   0  0  0  0  0  0  0  0  0  0  0  0  # atno 6907 bound_to 6896
  150.6863  134.3060  159.4735 H   0  0  0  0  0  0  0  0  0  0  0  0  # atno 6908 bound_to 6896
  152.0895  134.9417  160.0623 H   0  0  0  0  0  0  0  0  0  0  0  0  # atno 6909 bound_to 6896
  145.9958  140.7130  142.9295 H   0  0  0  0  0  0  0  0  0  0  0  0  # atno 7974 bound_to 7965
  154.8817  140.2974  155.5421 H   0  0  0  0  0  0  0  0  0  0  0  0  # atno 8008 bound_to 7997
  156.3022  140.2441  156.3755 H   0  0  0  0  0  0  0  0  0  0  0  0  # atno 8009 bound_to 7997
  154.8710  140.0401  157.1713 H   0  0  0  0  0  0  0  0  0  0  0  0  # atno 8010 bound_to 7997
  139.5239  144.2840  152.0522 H   0  0  0  0  0  0  0  0  0  0  0  0  # atno 10167 bound_to 10162
  157.1574  130.6701  149.6032 H   0  0  0  0  0  0  0  0  0  0  0  0  # atno 10718 bound_to 10713
  154.6878  135.5225  153.8350 H   0  0  0  0  0  0  0  0  0  0  0  0  # atno 10763 bound_to 10752
  153.0610  135.6568  154.0472 H   0  0  0  0  0  0  0  0  0  0  0  0  # atno 10764 bound_to 10752
  154.0351  135.2982  155.3343 H   0  0  0  0  0  0  0  0  0  0  0  0  # atno 10765 bound_to 10752
  141.0311  133.9980  157.3141 H   0  0  0  0  0  0  0  0  0  0  0  0  # atno 11005 bound_to 11000
  144.6903  140.3147  143.7242 LP  0  0  0  0  0  0  0  0  0  0  0  0  # atno 17320 bound_to 7965
  145.7563  139.1810  143.2293 LP  0  0  0  0  0  0  0  0  0  0  0  0  # atno 17321 bound_to 7965
  140.2294  144.4384  150.6307 LP  0  0  0  0  0  0  0  0  0  0  0  0  # atno 17342 bound_to 10162
  140.6365  143.2196  151.6382 LP  0  0  0  0  0  0  0  0  0  0  0  0  # atno 17343 bound_to 10162
  155.9759  130.4723  150.6496 LP  0  0  0  0  0  0  0  0  0  0  0  0  # atno 17370 bound_to 10713
  157.4164  131.0831  151.1172 LP  0  0  0  0  0  0  0  0  0  0  0  0  # atno 17371 bound_to 10713
  139.9208  135.0200  156.8058 LP  0  0  0  0  0  0  0  0  0  0  0  0  # atno 17394 bound_to 11000
  140.6405  133.9823  155.7705 LP  0  0  0  0  0  0  0  0  0  0  0  0  # atno 17395 bound_to 11000

$$$$
