AV-unprocessed.smi:1634|AV-procd|sdf|6538|dock9
  -GOLD-   22720 7223D 1   1.00000     0.00000
 Structure written by MMmdl.
 37 37  0  0  0  0  0  0  0  0  2 V2000
  152.4221  144.5961  158.3149 C   0  0  0  0  0  0  0  0  0  0  0  0
  151.4631  143.7057  159.1189 C   0  0  0  0  0  0  0  0  0  0  0  0
  150.3410  144.5439  159.7516 C   0  0  0  0  0  0  0  0  0  0  0  0
  152.2246  142.8929  160.1781 C   0  0  0  0  0  0  0  0  0  0  0  0
  153.3191  142.2244  159.5596 O   0  0  0  0  0  0  0  0  0  0  0  0
  153.3427  140.8082  159.7191 C   0  0  2  0  0  0  0  0  0  0  0  0
  154.7879  140.3406  159.4917 C   0  0  0  0  0  0  0  0  0  0  0  0
  152.3763  140.1433  158.7254 C   0  0  0  0  0  0  0  0  0  0  0  0
  152.1047  138.9498  158.8551 O   0  0  0  0  0  0  0  0  0  0  0  0
  151.9189  140.9477  157.7457 N   0  0  0  0  0  0  0  0  0  0  0  0
  151.0463  140.6689  156.6796 C   0  0  0  0  0  0  0  0  0  0  0  0
  149.7209  140.9820  156.6488 C   0  0  0  0  0  0  0  0  0  0  0  0
  148.8730  140.6666  155.5053 C   0  0  0  0  0  0  0  0  0  0  0  0
  147.3872  140.9670  155.4318 C   0  0  0  0  0  0  0  0  0  0  0  0
  147.1335  141.7823  154.4088 F   0  0  0  0  0  0  0  0  0  0  0  0
  146.6971  139.8425  155.2435 F   0  0  0  0  0  0  0  0  0  0  0  0
  146.9506  141.5470  156.5501 F   0  0  0  0  0  0  0  0  0  0  0  0
  149.5686  140.0388  154.4917 C   0  0  0  0  0  0  0  0  0  0  0  0
  150.8767  139.7065  154.4367 N   0  5  0  0  0  0  0  0  0  0  0  0
  151.6600  140.0010  155.5125 C   0  0  0  0  0  0  0  0  0  0  0  0
  152.8599  139.7239  155.5296 O   0  0  0  0  0  0  0  0  0  0  0  0
  152.9180  145.3245  158.9575 H   0  0  0  0  0  0  0  0  0  0  0  0
  151.8909  145.1452  157.5368 H   0  0  0  0  0  0  0  0  0  0  0  0
  153.1955  144.0021  157.8271 H   0  0  0  0  0  0  0  0  0  0  0  0
  151.0058  143.0026  158.4216 H   0  0  0  0  0  0  0  0  0  0  0  0
  150.7401  145.2644  160.4661 H   0  0  0  0  0  0  0  0  0  0  0  0
  149.6253  143.9142  160.2808 H   0  0  0  0  0  0  0  0  0  0  0  0
  149.7886  145.0986  158.9926 H   0  0  0  0  0  0  0  0  0  0  0  0
  152.6051  143.5583  160.9544 H   0  0  0  0  0  0  0  0  0  0  0  0
  151.5455  142.1879  160.6595 H   0  0  0  0  0  0  0  0  0  0  0  0
  153.0594  140.5541  160.7427 H   0  0  0  0  0  0  0  0  0  0  0  0
  154.8715  139.2566  159.5767 H   0  0  0  0  0  0  0  0  0  0  0  0
  155.4562  140.7808  160.2319 H   0  0  0  0  0  0  0  0  0  0  0  0
  155.1535  140.6297  158.5055 H   0  0  0  0  0  0  0  0  0  0  0  0
  152.2773  141.8919  157.7460 H   0  0  0  0  0  0  0  0  0  0  0  0
  149.2519  141.4906  157.4737 H   0  0  0  0  0  0  0  0  0  0  0  0
  148.9821  139.7606  153.5899 H   0  0  0  0  0  0  0  0  0  0  0  0
  1  2  1  0  0  0  0
  1 22  1  0  0  0  0
  1 23  1  0  0  0  0
  1 24  1  0  0  0  0
  2  3  1  0  0  0  0
  2  4  1  0  0  0  0
  2 25  1  0  0  0  0
  3 26  1  0  0  0  0
  3 27  1  0  0  0  0
  3 28  1  0  0  0  0
  4  5  1  0  0  0  0
  4 29  1  0  0  0  0
  4 30  1  0  0  0  0
  5  6  1  0  0  0  0
  6  7  1  0  0  0  0
  6  8  1  0  0  0  0
  6 31  1  0  0  0  0
  7 32  1  0  0  0  0
  7 33  1  0  0  0  0
  7 34  1  0  0  0  0
  8  9  2  0  0  0  0
  8 10  1  0  0  0  0
 10 11  1  0  0  0  0
 10 35  1  0  0  0  0
 11 20  1  0  0  0  0
 11 12  2  0  0  0  0
 12 13  1  0  0  0  0
 12 36  1  0  0  0  0
 13 14  1  0  0  0  0
 13 18  2  0  0  0  0
 14 15  1  0  0  0  0
 14 16  1  0  0  0  0
 14 17  1  0  0  0  0
 18 19  1  0  0  0  0
 18 37  1  0  0  0  0
 19 20  1  0  0  0  0
 20 21  2  0  0  0  0
M  CHG  1  19  -1
M  END
> <s_m_source_file>
AV-unprocessed.smi

> <i_m_source_file_index>
1634

> <i_lp_mmshare_version>
43012

> <i_f3d_flags>
0

> <s_epik_input>
W0NIM11bQ0hdKFtDSDNdKVtDSDJdT1tDQEhdKFtDSDNdKUMoPU8pW05IXWMxW2NIXWMoQyhGKShGKUYpW2NIXVtuSF1jMT1P

> <s_epik_cmdline>
J2VwaWtfcHl0aG9uJywgJy1waCcsICc3LjAnLCAnLXRuJywgJzgnLCAnLW1hJywgJzIwMCcsICctbWV0YWxfYmluZGluZycsICctaW1hZScsICc8aW5maWxlLm1hZT4nLCAnLW9tYWUnLCAnPG91dGZpbGUubWFlPic=

> <r_epik_Ionization_Penalty>
2.55349

> <r_epik_Ionization_Penalty_Charging>
0.0582825

> <r_epik_Ionization_Penalty_Neutral>
2.49521

> <r_epik_State_Penalty>
2.65983

> <r_epik_Charging_Adjusted_Penalty>
2.71812

> <i_epik_Tot_Q>
-1

> <i_epik_Tot_abs_Q>
1

> <r_epik_Metal_State_Penalty>
0.516727

> <b_epik_Metal_Only>
0

> <s_lp_Force_Field>
OPLS_2005

> <r_lp_Energy>
22.0513

> <b_lp_Chiralities_Consistent>
1

> <s_lp_Variant>
AV-unprocessed.smi:1634-3

> <Gold.Version>
5.8.1

> <Gold.Id.Protein>
6NUR|6NUR_protein|mol2

> <Gold.PLP.Fitness>
45.7578

> <Gold.PLP.PLP>
-43.1893

> <Gold.PLP.part.hbond>
-2.0000

> <Gold.PLP.part.metal>
0.0000

> <Gold.PLP.part.buried>
-4.4913

> <Gold.PLP.part.nonpolar>
-36.4717

> <Gold.PLP.part.repulsive>
0.1816

> <Gold.PLP.ligand.clash>
0.0000

> <Gold.PLP.ligand.torsion>
1.6061

> <Gold.PLP.Chemscore.Hbond>
1.9000

> <Gold.PLP.Chemscore.CHOScore>
0.0000

> <Gold.PLP.Chemscore.Metal>
0.0000

> <Gold.Chemscore.Hbonds>
donor molecule, donor type, donor heavy atom, donor atom, acceptor molecule, acceptor atom, score
      P1  H  7989  7998       L1    19  0.60
      P1  H  7997  8010       L1    21  1.00

> <Gold.PLP.Chemscore.Internal.Correction>
0.0807

> <Gold.Rescore>
     Score         DG    S(hbond)    S(metal)    S(lipo)     H(rot)  DE(clash)    DE(int)     intcor
     13.39     -14.95       1.03        0.00      90.08       1.75       0.01       1.55       ----

> <Gold.Chemscore.Fitness>
13.3886

> <Gold.Chemscore.DG>
-14.9550

> <Gold.Chemscore.ZeroCoef>
-5.4800

> <Gold.Chemscore.Hbond>
1.0254

> <Gold.Chemscore.Metal>
0.0000

> <Gold.Chemscore.Lipo>
90.0842

> <Gold.Chemscore.Internal_Hbond>
0.0000

> <Gold.Chemscore.DEClash>
0.0149

> <Gold.Chemscore.DEInternal>
1.5515

> <Gold.Chemscore.Rot>
1.7538

> <Gold.Chemscore.Internal.Correction>
   9.000000E+99

> <Gold.Chemscore.Hbonds>
donor molecule, donor type, donor heavy atom, donor atom, acceptor molecule, acceptor atom, score
      P1  H  7989  7998       L1    19  0.03
      P1  H  7997  8010       L1    21  1.00

> <Gold.Chemscore.Hbond.Weighted>
-3.4249

> <Gold.Chemscore.Metal.Weighted>
-0.0000

> <Gold.Chemscore.Lipo.Weighted>
-10.5399

> <Gold.Chemscore.Internal_Hbond.Weighted>
0.0000

> <Gold.Chemscore.DEClash.Weighted>
0.0149

> <Gold.Chemscore.DEInternal.Weighted>
1.5515

> <Gold.Chemscore.Rot.Weighted>
4.4898

> <Gold.Chemscore.Internal.Correction.Weighted>
   9.000000E+99

> <Gold.Protein.RotatedTorsions>
[ 6907 6896 6895 6894 ] final   55.87 input  -60.11 | X-H torsion
[ 7974 7965 7964 7962 ] final -168.70 input  175.53 | X-H torsion
[ 8008 7997 7996 7995 ] final  104.81 input   59.86 | X-H torsion
[ 10167 10162 10161 10158 ] final  168.89 input  -65.29 | X-H torsion
[ 10718 10713 10712 10709 ] final -116.78 input   66.30 | X-H torsion
[ 10763 10752 10751 10750 ] final  133.35 input  -60.55 | X-H torsion
[ 11005 11000 10999 10996 ] final  -72.14 input  -57.11 | X-H torsion

> <Gold.Protein.ActiveResidues>
 VAL166  LYS551  ARG553  GLY616  TRP617  ASP618  TYR619  PRO620  LYS621  CYS622 
 ASP623  PHE694  ASN695  SER759  ASP760  ASP761  ALA762  ILE779  LEU786  VAL792 
 PHE793  MET794  SER795  GLU796  ALA797  LYS798  CYS799  TRP800  GLU811  SER814 

> <Gold.Protein.RotatedAtoms>
  152.3581  134.6912  160.0215 H   0  0  0  0  0  0  0  0  0  0  0  0  # atno 6907 bound_to 6896
  151.7244  133.3310  159.3332 H   0  0  0  0  0  0  0  0  0  0  0  0  # atno 6908 bound_to 6896
  150.7585  134.6353  159.6253 H   0  0  0  0  0  0  0  0  0  0  0  0  # atno 6909 bound_to 6896
  144.7198  140.2331  143.6301 H   0  0  0  0  0  0  0  0  0  0  0  0  # atno 7974 bound_to 7965
  156.1605  140.3141  155.8800 H   0  0  0  0  0  0  0  0  0  0  0  0  # atno 8008 bound_to 7997
  155.3791  140.0486  157.3061 H   0  0  0  0  0  0  0  0  0  0  0  0  # atno 8009 bound_to 7997
  154.5142  140.2175  155.9108 H   0  0  0  0  0  0  0  0  0  0  0  0  # atno 8010 bound_to 7997
  139.4979  144.3766  151.9667 H   0  0  0  0  0  0  0  0  0  0  0  0  # atno 10167 bound_to 10162
  156.0988  130.6154  150.9080 H   0  0  0  0  0  0  0  0  0  0  0  0  # atno 10718 bound_to 10713
  153.8056  135.3136  155.3395 H   0  0  0  0  0  0  0  0  0  0  0  0  # atno 10763 bound_to 10752
  154.8072  135.4690  154.0425 H   0  0  0  0  0  0  0  0  0  0  0  0  # atno 10764 bound_to 10752
  153.1786  135.6890  153.8596 H   0  0  0  0  0  0  0  0  0  0  0  0  # atno 10765 bound_to 10752
  141.1604  133.6838  156.7014 H   0  0  0  0  0  0  0  0  0  0  0  0  # atno 11005 bound_to 11000
  145.8392  139.2122  143.1837 LP  0  0  0  0  0  0  0  0  0  0  0  0  # atno 17320 bound_to 7965
  146.0362  140.8210  142.9851 LP  0  0  0  0  0  0  0  0  0  0  0  0  # atno 17321 bound_to 7965
  140.3202  144.3436  150.6011 LP  0  0  0  0  0  0  0  0  0  0  0  0  # atno 17342 bound_to 10162
  140.5729  143.2179  151.7568 LP  0  0  0  0  0  0  0  0  0  0  0  0  # atno 17343 bound_to 10162
  157.6154  131.0933  150.8720 LP  0  0  0  0  0  0  0  0  0  0  0  0  # atno 17370 bound_to 10713
  156.8853  130.5193  149.5289 LP  0  0  0  0  0  0  0  0  0  0  0  0  # atno 17371 bound_to 10713
  140.2956  134.8205  157.4054 LP  0  0  0  0  0  0  0  0  0  0  0  0  # atno 17394 bound_to 11000
  140.1308  134.5098  155.8107 LP  0  0  0  0  0  0  0  0  0  0  0  0  # atno 17395 bound_to 11000

$$$$
