AV-unprocessed.smi:2819|AV-procd|sdf|10852|dock5
  -GOLD-   2272015293D 1   1.00000     0.00000
 Structure written by MMmdl.
 49 50  0  0  0  0  0  0  0  0  1 V2000
  150.6151  141.4518  156.3695 C   0  0  0  0  0  0  0  0  0  0  0  0
  150.3139  140.3644  155.4446 N   0  0  0  0  0  0  0  0  0  0  0  0
  151.2269  139.2353  155.3190 C   0  0  0  0  0  0  0  0  0  0  0  0
  149.0952  140.3698  154.7301 C   0  0  0  0  0  0  0  0  0  0  0  0
  148.2241  141.4860  154.7435 C   0  0  0  0  0  0  0  0  0  0  0  0
  147.0387  141.3771  153.9913 C   0  0  0  0  0  0  0  0  0  0  0  0
  146.7411  140.2652  153.2892 N   0  0  0  0  0  0  0  0  0  0  0  0
  147.6220  139.2578  153.3335 C   0  0  0  0  0  0  0  0  0  0  0  0
  147.3796  138.0917  152.6401 N   0  0  0  0  0  0  0  0  0  0  0  0
  146.2516  137.6211  152.0746 C   0  0  0  0  0  0  0  0  0  0  0  0
  145.1593  138.1902  152.0773 O   0  0  0  0  0  0  0  0  0  0  0  0
  146.4660  136.4366  151.4835 N   0  0  0  0  0  0  0  0  0  0  0  0
  145.4736  135.6596  150.7400 C   0  0  0  0  0  0  0  0  0  0  0  0
  145.1051  134.3187  151.4420 C   0  0  0  0  0  0  0  0  0  0  0  0
  144.6159  133.3473  150.3405 C   0  0  0  0  0  0  0  0  0  0  0  0
  146.4261  133.7362  152.0071 C   0  0  0  0  0  0  0  0  0  0  0  0
  144.1020  134.5236  152.5252 N   0  0  0  0  0  0  0  0  0  0  0  0
  142.8721  135.2071  152.1089 C   0  0  0  0  0  0  0  0  0  0  0  0
  141.8356  135.2749  153.2436 C   0  0  0  0  0  0  0  0  0  0  0  0
  142.4056  135.9186  154.3766 O   0  0  0  0  0  0  0  0  0  0  0  0
  143.5695  135.2526  154.8504 C   0  0  0  0  0  0  0  0  0  0  0  0
  144.6200  135.1852  153.7290 C   0  0  0  0  0  0  0  0  0  0  0  0
  148.7704  139.2626  154.0168 N   0  0  0  0  0  0  0  0  0  0  0  0
  150.6287  142.4078  155.8451 H   0  0  0  0  0  0  0  0  0  0  0  0
  151.5891  141.3167  156.8401 H   0  0  0  0  0  0  0  0  0  0  0  0
  149.8655  141.4999  157.1601 H   0  0  0  0  0  0  0  0  0  0  0  0
  150.7361  138.3094  155.6204 H   0  0  0  0  0  0  0  0  0  0  0  0
  152.1075  139.3646  155.9484 H   0  0  0  0  0  0  0  0  0  0  0  0
  151.5674  139.1303  154.2885 H   0  0  0  0  0  0  0  0  0  0  0  0
  148.4339  142.3898  155.2950 H   0  0  0  0  0  0  0  0  0  0  0  0
  146.3258  142.1874  153.9540 H   0  0  0  0  0  0  0  0  0  0  0  0
  148.1897  137.4999  152.5323 H   0  0  0  0  0  0  0  0  0  0  0  0
  147.3971  136.0488  151.5257 H   0  0  0  0  0  0  0  0  0  0  0  0
  144.5921  136.2868  150.6096 H   0  0  0  0  0  0  0  0  0  0  0  0
  145.8202  135.4698  149.7226 H   0  0  0  0  0  0  0  0  0  0  0  0
  145.3813  133.2059  149.5765 H   0  0  0  0  0  0  0  0  0  0  0  0
  143.7287  133.7195  149.8285 H   0  0  0  0  0  0  0  0  0  0  0  0
  144.3820  132.3592  150.7356 H   0  0  0  0  0  0  0  0  0  0  0  0
  147.2222  133.7542  151.2616 H   0  0  0  0  0  0  0  0  0  0  0  0
  146.3213  132.6955  152.3136 H   0  0  0  0  0  0  0  0  0  0  0  0
  146.7787  134.2993  152.8718 H   0  0  0  0  0  0  0  0  0  0  0  0
  143.0969  136.2206  151.7771 H   0  0  0  0  0  0  0  0  0  0  0  0
  142.4073  134.6945  151.2688 H   0  0  0  0  0  0  0  0  0  0  0  0
  140.9578  135.8349  152.9210 H   0  0  0  0  0  0  0  0  0  0  0  0
  141.4956  134.2747  153.5164 H   0  0  0  0  0  0  0  0  0  0  0  0
  143.9659  135.7960  155.7081 H   0  0  0  0  0  0  0  0  0  0  0  0
  143.3098  134.2510  155.1975 H   0  0  0  0  0  0  0  0  0  0  0  0
  145.4887  134.6596  154.1208 H   0  0  0  0  0  0  0  0  0  0  0  0
  144.9433  136.1988  153.4919 H   0  0  0  0  0  0  0  0  0  0  0  0
  1  2  1  0  0  0  0
  1 24  1  0  0  0  0
  1 25  1  0  0  0  0
  1 26  1  0  0  0  0
  2  3  1  0  0  0  0
  2  4  1  0  0  0  0
  3 27  1  0  0  0  0
  3 28  1  0  0  0  0
  3 29  1  0  0  0  0
  4 23  1  0  0  0  0
  4  5  2  0  0  0  0
  5  6  1  0  0  0  0
  5 30  1  0  0  0  0
  6  7  2  0  0  0  0
  6 31  1  0  0  0  0
  7  8  1  0  0  0  0
  8  9  1  0  0  0  0
  8 23  2  0  0  0  0
  9 10  1  0  0  0  0
  9 32  1  0  0  0  0
 10 11  2  0  0  0  0
 10 12  1  0  0  0  0
 12 13  1  0  0  0  0
 12 33  1  0  0  0  0
 13 14  1  0  0  0  0
 13 34  1  0  0  0  0
 13 35  1  0  0  0  0
 14 15  1  0  0  0  0
 14 16  1  0  0  0  0
 14 17  1  0  0  0  0
 15 36  1  0  0  0  0
 15 37  1  0  0  0  0
 15 38  1  0  0  0  0
 16 39  1  0  0  0  0
 16 40  1  0  0  0  0
 16 41  1  0  0  0  0
 17 22  1  0  0  0  0
 17 18  1  0  0  0  0
 18 19  1  0  0  0  0
 18 42  1  0  0  0  0
 18 43  1  0  0  0  0
 19 20  1  0  0  0  0
 19 44  1  0  0  0  0
 19 45  1  0  0  0  0
 20 21  1  0  0  0  0
 21 22  1  0  0  0  0
 21 46  1  0  0  0  0
 21 47  1  0  0  0  0
 22 48  1  0  0  0  0
 22 49  1  0  0  0  0
M  END
> <s_m_source_file>
AV-unprocessed.smi

> <i_m_source_file_index>
2819

> <i_lp_mmshare_version>
43012

> <i_f3d_flags>
0

> <s_epik_input>
W0NIM11OKFtDSDNdKWMxW2NIXVtjSF1uYyhuMSlbTkhdQyg9TylbTkhdW0NIMl1DKFtDSDNdKShbQ0gzXSlOMltDSDJdW0NIMl1PW0NIMl1bQ0gyXTI=

> <s_epik_cmdline>
J2VwaWtfcHl0aG9uJywgJy1waCcsICc3LjAnLCAnLXRuJywgJzgnLCAnLW1hJywgJzIwMCcsICctbWV0YWxfYmluZGluZycsICctaW1hZScsICc8aW5maWxlLm1hZT4nLCAnLW9tYWUnLCAnPG91dGZpbGUubWFlPic=

> <r_lp_tautomer_probability>
1

> <r_epik_Ionization_Penalty>
1.38931

> <r_epik_Ionization_Penalty_Charging>
0

> <r_epik_Ionization_Penalty_Neutral>
1.38931

> <r_epik_State_Penalty>
1.41304

> <r_epik_Charging_Adjusted_Penalty>
1.41304

> <i_epik_Tot_Q>
0

> <i_epik_Tot_abs_Q>
0

> <r_epik_Metal_State_Penalty>
0.631353

> <b_epik_Metal_Only>
0

> <s_lp_Force_Field>
OPLS_2005

> <r_lp_Energy>
40.3447

> <b_lp_Chiralities_Consistent>
1

> <s_lp_Variant>
AV-unprocessed.smi:2819-3

> <Gold.Version>
5.8.1

> <Gold.Id.Protein>
6NUR|6NUR_protein|mol2

> <Gold.PLP.Fitness>
39.3038

> <Gold.PLP.PLP>
-34.3910

> <Gold.PLP.part.hbond>
-2.0586

> <Gold.PLP.part.metal>
0.0000

> <Gold.PLP.part.buried>
-5.3800

> <Gold.PLP.part.nonpolar>
-32.3304

> <Gold.PLP.part.repulsive>
5.2875

> <Gold.PLP.ligand.clash>
0.0000

> <Gold.PLP.ligand.torsion>
0.5830

> <Gold.PLP.Chemscore.Hbond>
1.9920

> <Gold.PLP.Chemscore.CHOScore>
0.0000

> <Gold.PLP.Chemscore.Metal>
0.0000

> <Gold.Chemscore.Hbonds>
donor molecule, donor type, donor heavy atom, donor atom, acceptor molecule, acceptor atom, score
      L1  H     9    32       P1  7948  1.00
      L1  H    12    33       P1  7948  1.00

> <Gold.PLP.Chemscore.Internal.Correction>
0.1028

> <Gold.Rescore>
     Score         DG    S(hbond)    S(metal)    S(lipo)     H(rot)  DE(clash)    DE(int)     intcor
     12.01     -15.49       1.96        0.00      62.60       1.51       1.68       1.79       ----

> <Gold.Chemscore.Fitness>
12.0147

> <Gold.Chemscore.DG>
-15.4934

> <Gold.Chemscore.ZeroCoef>
-5.4800

> <Gold.Chemscore.Hbond>
1.9607

> <Gold.Chemscore.Metal>
0.0000

> <Gold.Chemscore.Lipo>
62.5952

> <Gold.Chemscore.Internal_Hbond>
0.0000

> <Gold.Chemscore.DEClash>
1.6842

> <Gold.Chemscore.DEInternal>
1.7945

> <Gold.Chemscore.Rot>
1.5075

> <Gold.Chemscore.Internal.Correction>
   9.000000E+99

> <Gold.Chemscore.Hbonds>
donor molecule, donor type, donor heavy atom, donor atom, acceptor molecule, acceptor atom, score
      L1  H     9    32       P1  7948  0.95
      L1  H    12    33       P1  7948  0.92

> <Gold.Chemscore.Hbond.Weighted>
-6.5488

> <Gold.Chemscore.Metal.Weighted>
-0.0000

> <Gold.Chemscore.Lipo.Weighted>
-7.3236

> <Gold.Chemscore.Internal_Hbond.Weighted>
0.0000

> <Gold.Chemscore.DEClash.Weighted>
1.6842

> <Gold.Chemscore.DEInternal.Weighted>
1.7945

> <Gold.Chemscore.Rot.Weighted>
3.8591

> <Gold.Chemscore.Internal.Correction.Weighted>
   9.000000E+99

> <Gold.Protein.RotatedTorsions>
[ 6907 6896 6895 6894 ] final  -97.66 input  -60.11 | X-H torsion
[ 7974 7965 7964 7962 ] final -107.78 input  175.53 | X-H torsion
[ 8008 7997 7996 7995 ] final  154.93 input   59.86 | X-H torsion
[ 10167 10162 10161 10158 ] final   -4.79 input  -65.29 | X-H torsion
[ 10718 10713 10712 10709 ] final  -48.35 input   66.30 | X-H torsion
[ 10763 10752 10751 10750 ] final   72.70 input  -60.55 | X-H torsion
[ 11005 11000 10999 10996 ] final  -26.86 input  -57.11 | X-H torsion

> <Gold.Protein.ActiveResidues>
 VAL166  LYS551  ARG553  GLY616  TRP617  ASP618  TYR619  PRO620  LYS621  CYS622 
 ASP623  PHE694  ASN695  SER759  ASP760  ASP761  ALA762  ILE779  LEU786  VAL792 
 PHE793  MET794  SER795  GLU796  ALA797  LYS798  CYS799  TRP800  GLU811  SER814 

> <Gold.Protein.RotatedAtoms>
  150.7023  134.1314  159.4070 H   0  0  0  0  0  0  0  0  0  0  0  0  # atno 6907 bound_to 6896
  151.9299  135.0258  160.0537 H   0  0  0  0  0  0  0  0  0  0  0  0  # atno 6908 bound_to 6896
  152.2184  133.4929  159.5185 H   0  0  0  0  0  0  0  0  0  0  0  0  # atno 6909 bound_to 6896
  145.2011  140.9056  143.3369 H   0  0  0  0  0  0  0  0  0  0  0  0  # atno 7974 bound_to 7965
  156.2505  140.1953  156.6722 H   0  0  0  0  0  0  0  0  0  0  0  0  # atno 8008 bound_to 7997
  154.6384  140.0587  156.9842 H   0  0  0  0  0  0  0  0  0  0  0  0  # atno 8009 bound_to 7997
  155.1601  140.3259  155.4416 H   0  0  0  0  0  0  0  0  0  0  0  0  # atno 8010 bound_to 7997
  140.6940  143.6383  150.8459 H   0  0  0  0  0  0  0  0  0  0  0  0  # atno 10167 bound_to 10162
  156.1996  130.4155  149.9259 H   0  0  0  0  0  0  0  0  0  0  0  0  # atno 10718 bound_to 10713
  153.0475  135.5090  154.7783 H   0  0  0  0  0  0  0  0  0  0  0  0  # atno 10763 bound_to 10752
  154.6672  135.2947  154.9792 H   0  0  0  0  0  0  0  0  0  0  0  0  # atno 10764 bound_to 10752
  154.0623  135.6689  153.4866 H   0  0  0  0  0  0  0  0  0  0  0  0  # atno 10765 bound_to 10752
  140.9067  133.7488  156.0615 H   0  0  0  0  0  0  0  0  0  0  0  0  # atno 11005 bound_to 11000
  144.9947  139.3655  143.6197 LP  0  0  0  0  0  0  0  0  0  0  0  0  # atno 17320 bound_to 7965
  146.3417  139.9145  142.8775 LP  0  0  0  0  0  0  0  0  0  0  0  0  # atno 17321 bound_to 7965
  140.0099  143.5654  152.2843 LP  0  0  0  0  0  0  0  0  0  0  0  0  # atno 17342 bound_to 10162
  139.6374  144.7651  151.2410 LP  0  0  0  0  0  0  0  0  0  0  0  0  # atno 17343 bound_to 10162
  156.6973  130.8919  151.3595 LP  0  0  0  0  0  0  0  0  0  0  0  0  # atno 17370 bound_to 10713
  157.6978  130.9300  150.0695 LP  0  0  0  0  0  0  0  0  0  0  0  0  # atno 17371 bound_to 10713
  140.8162  134.3342  157.5396 LP  0  0  0  0  0  0  0  0  0  0  0  0  # atno 17394 bound_to 11000
  139.8750  134.9283  156.3447 LP  0  0  0  0  0  0  0  0  0  0  0  0  # atno 17395 bound_to 11000

$$$$
