AV-unprocessed.smi:1512|AV-procd|sdf|6107|dock5
  -GOLD-   22720 6243D 1   1.00000     0.00000
 Structure written by MMmdl.
 44 46  0  0  0  0  0  0  0  0  3 V2000
  151.3983  140.2243  157.8552 C   0  0  0  0  0  0  0  0  0  0  0  0
  151.2273  141.6854  157.4087 C   0  0  1  0  0  0  0  0  0  0  0  0
  150.0582  141.7706  156.5351 N   0  0  0  0  0  0  0  0  0  0  0  0
  149.9318  141.1960  155.3289 C   0  0  0  0  0  0  0  0  0  0  0  0
  150.7847  140.4597  154.8319 O   0  0  0  0  0  0  0  0  0  0  0  0
  148.6334  141.5029  154.5701 C   0  0  0  0  0  0  0  0  0  0  0  0
  147.7837  140.3124  154.3939 N   0  0  0  0  0  0  0  0  0  0  0  0
  147.4684  139.9419  153.0731 C   0  0  0  0  0  0  0  0  0  0  0  0
  146.6902  138.8848  152.8006 C   0  0  0  0  0  0  0  0  0  0  0  0
  146.1731  138.1144  153.9051 C   0  0  0  0  0  0  0  0  0  0  0  0
  146.4640  138.4499  155.1831 C   0  0  0  0  0  0  0  0  0  0  0  0
  145.9170  137.6328  156.2419 N   0  3  0  0  0  0  0  0  0  0  0  0
  146.1778  137.9186  157.4064 O   0  0  0  0  0  0  0  0  0  0  0  0
  145.2193  136.6697  155.9375 O   0  5  0  0  0  0  0  0  0  0  0  0
  147.3165  139.6197  155.4796 C   0  0  0  0  0  0  0  0  0  0  0  0
  147.5925  139.9719  156.6284 O   0  0  0  0  0  0  0  0  0  0  0  0
  151.0628  142.6531  158.6070 C   0  0  1  0  0  0  0  0  0  0  0  0
  152.2081  142.5540  159.6443 C   0  0  0  0  0  0  0  0  0  0  0  0
  152.6991  144.0071  159.7720 C   0  0  2  0  0  0  0  0  0  0  0  0
  151.6277  144.8523  160.4842 C   0  0  0  0  0  0  0  0  0  0  0  0
  150.5303  144.9787  159.4115 C   0  0  0  0  0  0  0  0  0  0  0  0
  151.1049  144.1602  158.2394 C   0  0  1  0  0  0  0  0  0  0  0  0
  152.5890  144.4958  158.3340 C   0  0  0  0  0  0  0  0  0  0  0  0
  152.2895  140.0941  158.4688 H   0  0  0  0  0  0  0  0  0  0  0  0
  151.4989  139.5619  156.9947 H   0  0  0  0  0  0  0  0  0  0  0  0
  150.5418  139.8841  158.4382 H   0  0  0  0  0  0  0  0  0  0  0  0
  152.1250  141.9688  156.8573 H   0  0  0  0  0  0  0  0  0  0  0  0
  149.2982  142.3514  156.8582 H   0  0  0  0  0  0  0  0  0  0  0  0
  148.1022  142.2859  155.1127 H   0  0  0  0  0  0  0  0  0  0  0  0
  148.8659  141.9369  153.5955 H   0  0  0  0  0  0  0  0  0  0  0  0
  147.8889  140.5722  152.3030 H   0  0  0  0  0  0  0  0  0  0  0  0
  146.4548  138.6178  151.7808 H   0  0  0  0  0  0  0  0  0  0  0  0
  145.5527  137.2553  153.6945 H   0  0  0  0  0  0  0  0  0  0  0  0
  150.1097  142.4296  159.0894 H   0  0  0  0  0  0  0  0  0  0  0  0
  151.8699  142.1455  160.5972 H   0  0  0  0  0  0  0  0  0  0  0  0
  153.0212  141.9219  159.2854 H   0  0  0  0  0  0  0  0  0  0  0  0
  153.6918  144.0957  160.2142 H   0  0  0  0  0  0  0  0  0  0  0  0
  151.2657  144.3764  161.3964 H   0  0  0  0  0  0  0  0  0  0  0  0
  152.0187  145.8352  160.7499 H   0  0  0  0  0  0  0  0  0  0  0  0
  149.5658  144.6010  159.7525 H   0  0  0  0  0  0  0  0  0  0  0  0
  150.3952  146.0222  159.1237 H   0  0  0  0  0  0  0  0  0  0  0  0
  150.6419  144.4146  157.2862 H   0  0  0  0  0  0  0  0  0  0  0  0
  152.8000  145.5607  158.2211 H   0  0  0  0  0  0  0  0  0  0  0  0
  153.2093  143.9336  157.6342 H   0  0  0  0  0  0  0  0  0  0  0  0
  1  2  1  0  0  0  0
  1 24  1  0  0  0  0
  1 25  1  0  0  0  0
  1 26  1  0  0  0  0
  2  3  1  0  0  0  0
  2 17  1  0  0  0  0
  2 27  1  0  0  0  0
  3  4  1  0  0  0  0
  3 28  1  0  0  0  0
  4  5  2  0  0  0  0
  4  6  1  0  0  0  0
  6  7  1  0  0  0  0
  6 29  1  0  0  0  0
  6 30  1  0  0  0  0
  7 15  1  0  0  0  0
  7  8  1  0  0  0  0
  8  9  2  0  0  0  0
  8 31  1  0  0  0  0
  9 10  1  0  0  0  0
  9 32  1  0  0  0  0
 10 11  2  0  0  0  0
 10 33  1  0  0  0  0
 11 12  1  0  0  0  0
 11 15  1  0  0  0  0
 12 13  2  0  0  0  0
 12 14  1  0  0  0  0
 15 16  2  0  0  0  0
 17 22  1  0  0  0  0
 17 18  1  0  0  0  0
 17 34  1  0  0  0  0
 18 19  1  0  0  0  0
 18 35  1  0  0  0  0
 18 36  1  0  0  0  0
 19 23  1  0  0  0  0
 19 20  1  0  0  0  0
 19 37  1  0  0  0  0
 20 21  1  0  0  0  0
 20 38  1  0  0  0  0
 20 39  1  0  0  0  0
 21 22  1  0  0  0  0
 21 40  1  0  0  0  0
 21 41  1  0  0  0  0
 22 23  1  0  0  0  0
 22 42  1  0  0  0  0
 23 43  1  0  0  0  0
 23 44  1  0  0  0  0
M  CHG  1  12   1
M  CHG  1  14  -1
M  END
> <s_m_source_file>
AV-unprocessed.smi

> <i_m_source_file_index>
1512

> <i_lp_mmshare_version>
43012

> <i_f3d_flags>
0

> <s_epik_input>
W0NIMl0xW0NIMl1bQ0BIXShbQ0gyXTIpW0NAQEhdKFtDSDJdW0NAQEhdMTIpW0NASF0oW0NIM10pW05IXUMoPU8pW0NIMl1uM1tjSF1bY0hdW2NIXWMoW04rXSg9TylbTy1dKWMzPU8=

> <s_epik_cmdline>
J2VwaWtfcHl0aG9uJywgJy1waCcsICc3LjAnLCAnLXRuJywgJzgnLCAnLW1hJywgJzIwMCcsICctbWV0YWxfYmluZGluZycsICctaW1hZScsICc8aW5maWxlLm1hZT4nLCAnLW9tYWUnLCAnPG91dGZpbGUubWFlPic=

> <r_lp_tautomer_probability>
1

> <r_epik_Ionization_Penalty>
2.17697e-08

> <r_epik_Ionization_Penalty_Charging>
1.42735e-10

> <r_epik_Ionization_Penalty_Neutral>
2.16269e-08

> <r_epik_State_Penalty>
-0

> <r_epik_Charging_Adjusted_Penalty>
1.42735e-10

> <i_epik_Tot_Q>
0

> <i_epik_Tot_abs_Q>
2

> <r_epik_Metal_State_Penalty>
-0

> <b_epik_Metal_Only>
0

> <s_lp_Force_Field>
OPLS_2005

> <r_lp_Energy>
63.9552

> <b_lp_Chiralities_Consistent>
1

> <s_lp_Variant>
AV-unprocessed.smi:1512-8

> <Gold.Version>
5.8.1

> <Gold.Id.Protein>
6NUR|6NUR_protein|mol2

> <Gold.PLP.Fitness>
47.6809

> <Gold.PLP.PLP>
-41.9130

> <Gold.PLP.part.hbond>
-1.2291

> <Gold.PLP.part.metal>
0.0000

> <Gold.PLP.part.buried>
-3.5424

> <Gold.PLP.part.nonpolar>
-37.9615

> <Gold.PLP.part.repulsive>
0.1400

> <Gold.PLP.ligand.clash>
0.0000

> <Gold.PLP.ligand.torsion>
0.1312

> <Gold.PLP.Chemscore.Hbond>
1.0000

> <Gold.PLP.Chemscore.CHOScore>
0.9898

> <Gold.PLP.Chemscore.Metal>
0.0000

> <Gold.Chemscore.Hbonds>
donor molecule, donor type, donor heavy atom, donor atom, acceptor molecule, acceptor atom, score
      P1  H  7989  7998       L1     5  1.00
      L1  C     8    31       P1  7957  0.89

> <Gold.PLP.Chemscore.Internal.Correction>
0.0610

> <Gold.Rescore>
     Score         DG    S(hbond)    S(metal)    S(lipo)     H(rot)  DE(clash)    DE(int)     intcor
     15.76     -18.41       0.96        0.00     121.42       1.75       0.23       2.42       ----

> <Gold.Chemscore.Fitness>
15.7601

> <Gold.Chemscore.DG>
-18.4121

> <Gold.Chemscore.ZeroCoef>
-5.4800

> <Gold.Chemscore.Hbond>
0.9580

> <Gold.Chemscore.Metal>
0.0000

> <Gold.Chemscore.Lipo>
121.4152

> <Gold.Chemscore.Internal_Hbond>
0.0000

> <Gold.Chemscore.DEClash>
0.2281

> <Gold.Chemscore.DEInternal>
2.4239

> <Gold.Chemscore.Rot>
1.7474

> <Gold.Chemscore.Internal.Correction>
   9.000000E+99

> <Gold.Chemscore.Hbonds>
donor molecule, donor type, donor heavy atom, donor atom, acceptor molecule, acceptor atom, score
      P1  H  7989  7998       L1     5  0.96

> <Gold.Chemscore.Hbond.Weighted>
-3.1999

> <Gold.Chemscore.Metal.Weighted>
-0.0000

> <Gold.Chemscore.Lipo.Weighted>
-14.2056

> <Gold.Chemscore.Internal_Hbond.Weighted>
0.0000

> <Gold.Chemscore.DEClash.Weighted>
0.2281

> <Gold.Chemscore.DEInternal.Weighted>
2.4239

> <Gold.Chemscore.Rot.Weighted>
4.4733

> <Gold.Chemscore.Internal.Correction.Weighted>
   9.000000E+99

> <Gold.Protein.RotatedTorsions>
[ 6907 6896 6895 6894 ] final -102.87 input  -60.11 | X-H torsion
[ 7974 7965 7964 7962 ] final -167.22 input  175.53 | X-H torsion
[ 8008 7997 7996 7995 ] final -154.12 input   59.86 | X-H torsion
[ 10167 10162 10161 10158 ] final  -77.92 input  -65.29 | X-H torsion
[ 10718 10713 10712 10709 ] final -101.06 input   66.30 | X-H torsion
[ 10763 10752 10751 10750 ] final  -49.58 input  -60.55 | X-H torsion
[ 11005 11000 10999 10996 ] final  -14.08 input  -57.11 | X-H torsion

> <Gold.Protein.ActiveResidues>
 VAL166  LYS551  ARG553  GLY616  TRP617  ASP618  TYR619  PRO620  LYS621  CYS622 
 ASP623  PHE694  ASN695  SER759  ASP760  ASP761  ALA762  ILE779  LEU786  VAL792 
 PHE793  MET794  SER795  GLU796  ALA797  LYS798  CYS799  TRP800  GLU811  SER814 

> <Gold.Protein.RotatedAtoms>
  150.7215  134.0516  159.3800 H   0  0  0  0  0  0  0  0  0  0  0  0  # atno 6907 bound_to 6896
  151.8493  135.0561  160.0466 H   0  0  0  0  0  0  0  0  0  0  0  0  # atno 6908 bound_to 6896
  152.2803  133.5428  159.5530 H   0  0  0  0  0  0  0  0  0  0  0  0  # atno 6909 bound_to 6896
  144.7228  140.2550  143.6273 H   0  0  0  0  0  0  0  0  0  0  0  0  # atno 7974 bound_to 7965
  155.6815  140.0745  157.2483 H   0  0  0  0  0  0  0  0  0  0  0  0  # atno 8008 bound_to 7997
  154.4105  140.1681  156.2039 H   0  0  0  0  0  0  0  0  0  0  0  0  # atno 8009 bound_to 7997
  155.9531  140.3376  155.6428 H   0  0  0  0  0  0  0  0  0  0  0  0  # atno 8010 bound_to 7997
  140.4728  143.2422  151.8179 H   0  0  0  0  0  0  0  0  0  0  0  0  # atno 10167 bound_to 10162
  156.0182  130.5356  150.6908 H   0  0  0  0  0  0  0  0  0  0  0  0  # atno 10718 bound_to 10713
  154.0964  135.6570  153.4861 H   0  0  0  0  0  0  0  0  0  0  0  0  # atno 10763 bound_to 10752
  153.0304  135.5214  154.7330 H   0  0  0  0  0  0  0  0  0  0  0  0  # atno 10764 bound_to 10752
  154.6469  135.2996  155.0004 H   0  0  0  0  0  0  0  0  0  0  0  0  # atno 10765 bound_to 10752
  140.7827  133.8350  155.9307 H   0  0  0  0  0  0  0  0  0  0  0  0  # atno 11005 bound_to 11000
  145.8191  139.2036  143.1948 LP  0  0  0  0  0  0  0  0  0  0  0  0  # atno 17320 bound_to 7965
  146.0530  140.8050  142.9772 LP  0  0  0  0  0  0  0  0  0  0  0  0  # atno 17321 bound_to 7965
  139.4821  144.4870  151.9233 LP  0  0  0  0  0  0  0  0  0  0  0  0  # atno 17342 bound_to 10162
  140.3956  144.2560  150.5896 LP  0  0  0  0  0  0  0  0  0  0  0  0  # atno 17343 bound_to 10162
  157.4590  131.0881  151.0766 LP  0  0  0  0  0  0  0  0  0  0  0  0  # atno 17370 bound_to 10713
  157.1259  130.6081  149.5517 LP  0  0  0  0  0  0  0  0  0  0  0  0  # atno 17371 bound_to 10713
  140.9466  134.1832  157.4758 LP  0  0  0  0  0  0  0  0  0  0  0  0  # atno 17394 bound_to 11000
  139.8740  134.9893  156.5451 LP  0  0  0  0  0  0  0  0  0  0  0  0  # atno 17395 bound_to 11000

$$$$
