AV-unprocessed.smi:775|AV-procd|sdf|3698|dock1
  -GOLD-   22720 1113D 1   1.00000     0.00000
 Structure written by MMmdl.
 38 39  0  0  0  0  0  0  0  0  1 V2000
  150.6024  140.4669  158.1848 C   0  0  0  0  0  0  0  0  0  0  0  0
  150.3685  141.9779  158.3271 C   0  0  1  0  0  0  0  0  0  0  0  0
  151.7152  142.7223  158.4909 C   0  0  0  0  0  0  0  0  0  0  0  0
  152.2756  142.6351  159.8288 N   0  0  0  0  0  0  0  0  0  0  0  0
  153.4601  142.0506  160.2271 C   0  0  0  0  0  0  0  0  0  0  0  0
  153.5707  142.2321  161.5759 C   0  0  0  0  0  0  0  0  0  0  0  0
  152.3986  142.9636  161.9151 C   0  0  0  0  0  0  0  0  0  0  0  0
  151.6319  143.2123  160.8663 N   0  0  0  0  0  0  0  0  0  0  0  0
  149.6580  142.4071  157.1249 N   0  0  0  0  0  0  0  0  0  0  0  0
  150.4554  142.2430  155.9021 C   0  0  0  0  0  0  0  0  0  0  0  0
  150.0444  140.9895  155.1185 C   0  0  0  0  0  0  0  0  0  0  0  0
  150.9109  140.1367  154.9186 O   0  0  0  0  0  0  0  0  0  0  0  0
  148.7663  140.8377  154.6865 N   0  0  0  0  0  0  0  0  0  0  0  0
  147.7186  141.8510  154.8993 C   0  0  0  0  0  0  0  0  0  0  0  0
  146.6994  141.8736  153.7521 C   0  0  0  0  0  0  0  0  0  0  0  0
  146.1942  140.5451  153.4559 N   0  0  0  0  0  0  0  0  0  0  0  0
  146.9408  139.4375  153.5367 C   0  0  0  0  0  0  0  0  0  0  0  0
  146.4959  138.3350  153.2257 O   0  0  0  0  0  0  0  0  0  0  0  0
  148.3845  139.5578  154.0519 C   0  0  0  0  0  0  0  0  0  0  0  0
  151.1037  140.0643  159.0655 H   0  0  0  0  0  0  0  0  0  0  0  0
  151.2229  140.2372  157.3176 H   0  0  0  0  0  0  0  0  0  0  0  0
  149.6603  139.9285  158.0741 H   0  0  0  0  0  0  0  0  0  0  0  0
  149.7449  142.1224  159.2109 H   0  0  0  0  0  0  0  0  0  0  0  0
  152.4546  142.2960  157.8119 H   0  0  0  0  0  0  0  0  0  0  0  0
  151.6098  143.7709  158.2060 H   0  0  0  0  0  0  0  0  0  0  0  0
  154.1154  141.5549  159.5260 H   0  0  0  0  0  0  0  0  0  0  0  0
  154.3697  141.8980  162.2208 H   0  0  0  0  0  0  0  0  0  0  0  0
  152.0858  143.3224  162.8846 H   0  0  0  0  0  0  0  0  0  0  0  0
  149.3925  143.3747  157.2420 H   0  0  0  0  0  0  0  0  0  0  0  0
  150.3073  143.1125  155.2597 H   0  0  0  0  0  0  0  0  0  0  0  0
  151.5205  142.2092  156.1220 H   0  0  0  0  0  0  0  0  0  0  0  0
  147.2171  141.6383  155.8445 H   0  0  0  0  0  0  0  0  0  0  0  0
  148.1240  142.8576  154.9766 H   0  0  0  0  0  0  0  0  0  0  0  0
  145.8642  142.5284  154.0009 H   0  0  0  0  0  0  0  0  0  0  0  0
  147.1611  142.2766  152.8498 H   0  0  0  0  0  0  0  0  0  0  0  0
  145.2402  140.4656  153.1345 H   0  0  0  0  0  0  0  0  0  0  0  0
  149.0425  139.3693  153.2019 H   0  0  0  0  0  0  0  0  0  0  0  0
  148.5514  138.7476  154.7640 H   0  0  0  0  0  0  0  0  0  0  0  0
  1  2  1  0  0  0  0
  1 20  1  0  0  0  0
  1 21  1  0  0  0  0
  1 22  1  0  0  0  0
  2  3  1  0  0  0  0
  2  9  1  0  0  0  0
  2 23  1  0  0  0  0
  3  4  1  0  0  0  0
  3 24  1  0  0  0  0
  3 25  1  0  0  0  0
  4  8  1  0  0  0  0
  4  5  1  0  0  0  0
  5  6  2  0  0  0  0
  5 26  1  0  0  0  0
  6  7  1  0  0  0  0
  6 27  1  0  0  0  0
  7  8  2  0  0  0  0
  7 28  1  0  0  0  0
  9 10  1  0  0  0  0
  9 29  1  0  0  0  0
 10 11  1  0  0  0  0
 10 30  1  0  0  0  0
 10 31  1  0  0  0  0
 11 12  2  0  0  0  0
 11 13  1  0  0  0  0
 13 19  1  0  0  0  0
 13 14  1  0  0  0  0
 14 15  1  0  0  0  0
 14 32  1  0  0  0  0
 14 33  1  0  0  0  0
 15 16  1  0  0  0  0
 15 34  1  0  0  0  0
 15 35  1  0  0  0  0
 16 17  1  0  0  0  0
 16 36  1  0  0  0  0
 17 18  2  0  0  0  0
 17 19  1  0  0  0  0
 19 37  1  0  0  0  0
 19 38  1  0  0  0  0
M  END
> <s_m_source_file>
AV-unprocessed.smi

> <i_m_source_file_index>
775

> <i_lp_mmshare_version>
43012

> <i_f3d_flags>
0

> <s_epik_input>
bjFbY0hdW2NIXVtjSF1uMVtDSDJdW0NAQEhdKFtDSDNdKVtOSF1bQ0gyXUMoPU8pTjJbQ0gyXVtDSDJdW05IXUMoPU8pW0NIMl0y

> <s_epik_cmdline>
J2VwaWtfcHl0aG9uJywgJy1waCcsICc3LjAnLCAnLXRuJywgJzgnLCAnLW1hJywgJzIwMCcsICctbWV0YWxfYmluZGluZycsICctaW1hZScsICc8aW5maWxlLm1hZT4nLCAnLW9tYWUnLCAnPG91dGZpbGUubWFlPic=

> <r_lp_tautomer_probability>
1

> <r_epik_Ionization_Penalty>
0.836058

> <r_epik_Ionization_Penalty_Charging>
0

> <r_epik_Ionization_Penalty_Neutral>
0.836058

> <r_epik_State_Penalty>
0.870309

> <r_epik_Charging_Adjusted_Penalty>
0.870309

> <i_epik_Tot_Q>
0

> <i_epik_Tot_abs_Q>
0

> <r_epik_Metal_State_Penalty>
0.870266

> <b_epik_Metal_Only>
0

> <s_lp_Force_Field>
OPLS_2005

> <r_lp_Energy>
25.6331

> <b_lp_Chiralities_Consistent>
1

> <s_lp_Variant>
AV-unprocessed.smi:775-4

> <Gold.Version>
5.8.1

> <Gold.Id.Protein>
6NUR|6NUR_protein|mol2

> <Gold.PLP.Fitness>
46.1970

> <Gold.PLP.PLP>
-40.3427

> <Gold.PLP.part.hbond>
-3.8723

> <Gold.PLP.part.metal>
0.0000

> <Gold.PLP.part.buried>
-1.7506

> <Gold.PLP.part.nonpolar>
-34.0105

> <Gold.PLP.part.repulsive>
0.4034

> <Gold.PLP.ligand.clash>
0.0000

> <Gold.PLP.ligand.torsion>
0.4783

> <Gold.PLP.Chemscore.Hbond>
2.2418

> <Gold.PLP.Chemscore.CHOScore>
0.0000

> <Gold.PLP.Chemscore.Metal>
0.0000

> <Gold.Chemscore.Hbonds>
donor molecule, donor type, donor heavy atom, donor atom, acceptor molecule, acceptor atom, score
      L1  H     9    29       P1  8028  0.40
      L1  H    16    36       P1 10175  1.00
      P1  H  7989  7998       L1    12  0.85

> <Gold.PLP.Chemscore.Internal.Correction>
0.0855

> <Gold.Rescore>
     Score         DG    S(hbond)    S(metal)    S(lipo)     H(rot)  DE(clash)    DE(int)     intcor
     13.71     -15.30       1.72        0.00      81.42       2.12       0.20       1.40       ----

> <Gold.Chemscore.Fitness>
13.7059

> <Gold.Chemscore.DG>
-15.2985

> <Gold.Chemscore.ZeroCoef>
-5.4800

> <Gold.Chemscore.Hbond>
1.7155

> <Gold.Chemscore.Metal>
0.0000

> <Gold.Chemscore.Lipo>
81.4170

> <Gold.Chemscore.Internal_Hbond>
0.0000

> <Gold.Chemscore.DEClash>
0.1956

> <Gold.Chemscore.DEInternal>
1.3970

> <Gold.Chemscore.Rot>
2.1239

> <Gold.Chemscore.Internal.Correction>
   9.000000E+99

> <Gold.Chemscore.Hbonds>
donor molecule, donor type, donor heavy atom, donor atom, acceptor molecule, acceptor atom, score
      L1  H     9    29       P1  8028  0.32
      L1  H    16    36       P1 10175  0.96
      P1  H  7989  7998       L1    12  0.15

> <Gold.Chemscore.Hbond.Weighted>
-5.7297

> <Gold.Chemscore.Metal.Weighted>
-0.0000

> <Gold.Chemscore.Lipo.Weighted>
-9.5258

> <Gold.Chemscore.Internal_Hbond.Weighted>
0.0000

> <Gold.Chemscore.DEClash.Weighted>
0.1956

> <Gold.Chemscore.DEInternal.Weighted>
1.3970

> <Gold.Chemscore.Rot.Weighted>
5.4371

> <Gold.Chemscore.Internal.Correction.Weighted>
   9.000000E+99

> <Gold.Protein.RotatedTorsions>
[ 6907 6896 6895 6894 ] final  -53.94 input  -60.11 | X-H torsion
[ 7974 7965 7964 7962 ] final  103.54 input  175.53 | X-H torsion
[ 8008 7997 7996 7995 ] final  -82.60 input   59.86 | X-H torsion
[ 10167 10162 10161 10158 ] final -131.56 input  -65.29 | X-H torsion
[ 10718 10713 10712 10709 ] final   74.01 input   66.30 | X-H torsion
[ 10763 10752 10751 10750 ] final  -85.27 input  -60.55 | X-H torsion
[ 11005 11000 10999 10996 ] final   41.09 input  -57.11 | X-H torsion

> <Gold.Protein.ActiveResidues>
 VAL166  LYS551  ARG553  GLY616  TRP617  ASP618  TYR619  PRO620  LYS621  CYS622 
 ASP623  PHE694  ASN695  SER759  ASP760  ASP761  ALA762  ILE779  LEU786  VAL792 
 PHE793  MET794  SER795  GLU796  ALA797  LYS798  CYS799  TRP800  GLU811  SER814 

> <Gold.Protein.RotatedAtoms>
  150.8381  134.7663  159.6909 H   0  0  0  0  0  0  0  0  0  0  0  0  # atno 6907 bound_to 6896
  152.4474  134.5462  159.9863 H   0  0  0  0  0  0  0  0  0  0  0  0  # atno 6908 bound_to 6896
  151.5608  133.3366  159.3006 H   0  0  0  0  0  0  0  0  0  0  0  0  # atno 6909 bound_to 6896
  145.3445  139.2454  143.3591 H   0  0  0  0  0  0  0  0  0  0  0  0  # atno 7974 bound_to 7965
  154.6103  140.0631  156.9485 H   0  0  0  0  0  0  0  0  0  0  0  0  # atno 8008 bound_to 7997
  155.1984  140.3313  155.4329 H   0  0  0  0  0  0  0  0  0  0  0  0  # atno 8009 bound_to 7997
  156.2372  140.1869  156.7069 H   0  0  0  0  0  0  0  0  0  0  0  0  # atno 8010 bound_to 7997
  139.9177  143.6419  152.2561 H   0  0  0  0  0  0  0  0  0  0  0  0  # atno 10167 bound_to 10162
  157.6573  130.9656  150.1150 H   0  0  0  0  0  0  0  0  0  0  0  0  # atno 10718 bound_to 10713
  154.6091  135.5491  153.7454 H   0  0  0  0  0  0  0  0  0  0  0  0  # atno 10763 bound_to 10752
  153.0187  135.6385  154.1604 H   0  0  0  0  0  0  0  0  0  0  0  0  # atno 10764 bound_to 10752
  154.1542  135.2901  155.3107 H   0  0  0  0  0  0  0  0  0  0  0  0  # atno 10765 bound_to 10752
  140.1868  134.4036  155.8169 H   0  0  0  0  0  0  0  0  0  0  0  0  # atno 11005 bound_to 11000
  146.2994  140.4049  142.8710 LP  0  0  0  0  0  0  0  0  0  0  0  0  # atno 17320 bound_to 7965
  144.8765  140.7343  143.6014 LP  0  0  0  0  0  0  0  0  0  0  0  0  # atno 17321 bound_to 7965
  139.6888  144.7649  151.1475 LP  0  0  0  0  0  0  0  0  0  0  0  0  # atno 17342 bound_to 10162
  140.7670  143.5618  150.9090 LP  0  0  0  0  0  0  0  0  0  0  0  0  # atno 17343 bound_to 10162
  156.2036  130.3662  149.8757 LP  0  0  0  0  0  0  0  0  0  0  0  0  # atno 17370 bound_to 10713
  156.6654  130.8799  151.3554 LP  0  0  0  0  0  0  0  0  0  0  0  0  # atno 17371 bound_to 10713
  141.2225  133.7027  156.8026 LP  0  0  0  0  0  0  0  0  0  0  0  0  # atno 17394 bound_to 11000
  140.2205  134.8760  157.3372 LP  0  0  0  0  0  0  0  0  0  0  0  0  # atno 17395 bound_to 11000

$$$$
