AV-unprocessed.smi:573|AV-procd|sdf|2973|dock7
  -GOLD-   2262023483D 1   1.00000     0.00000
 Structure written by MMmdl.
 44 46  0  0  0  0  0  0  0  0  1 V2000
  150.0800  136.9105  156.0532 C   0  0  0  0  0  0  0  0  0  0  0  0
  150.8853  137.4039  154.8446 C   0  0  2  0  0  0  0  0  0  0  0  0
  151.3908  136.2673  154.1750 O   0  0  0  0  0  0  0  0  0  0  0  0
  152.0651  138.2953  155.2692 C   0  0  0  0  0  0  0  0  0  0  0  0
  151.6415  139.6394  155.6197 N   0  0  0  0  0  0  0  0  0  0  0  0
  151.8894  140.4344  156.7328 C   0  0  0  0  0  0  0  0  0  0  0  0
  152.6355  140.0518  157.7676 N   0  0  0  0  0  0  0  0  0  0  0  0
  152.5872  141.1618  158.5902 C   0  0  0  0  0  0  0  0  0  0  0  0
  153.1800  141.3951  159.8517 C   0  0  0  0  0  0  0  0  0  0  0  0
  152.9919  142.6266  160.5125 C   0  0  0  0  0  0  0  0  0  0  0  0
  152.2113  143.6419  159.9225 C   0  0  0  0  0  0  0  0  0  0  0  0
  151.6096  143.4302  158.6670 C   0  0  0  0  0  0  0  0  0  0  0  0
  151.7974  142.1981  158.0122 C   0  0  0  0  0  0  0  0  0  0  0  0
  151.3559  141.6771  156.7991 N   0  0  0  0  0  0  0  0  0  0  0  0
  150.5081  142.3483  155.8237 C   0  0  0  0  0  0  0  0  0  0  0  0
  149.2909  141.4942  155.4321 C   0  0  1  0  0  0  0  0  0  0  0  0
  148.1200  141.6736  156.4173 C   0  0  0  0  0  0  0  0  0  0  0  0
  146.8983  140.8693  155.9576 C   0  0  0  0  0  0  0  0  0  0  0  0
  146.5624  141.2238  154.5049 C   0  0  0  0  0  0  0  0  0  0  0  0
  147.8064  141.0687  153.6158 C   0  0  0  0  0  0  0  0  0  0  0  0
  148.8672  141.8716  154.1230 O   0  0  0  0  0  0  0  0  0  0  0  0
  149.6551  137.7484  156.6067 H   0  0  0  0  0  0  0  0  0  0  0  0
  150.7040  136.3396  156.7418 H   0  0  0  0  0  0  0  0  0  0  0  0
  149.2540  136.2704  155.7414 H   0  0  0  0  0  0  0  0  0  0  0  0
  150.2159  137.9454  154.1751 H   0  0  0  0  0  0  0  0  0  0  0  0
  151.0879  136.2903  153.2801 H   0  0  0  0  0  0  0  0  0  0  0  0
  152.5473  137.8693  156.1497 H   0  0  0  0  0  0  0  0  0  0  0  0
  152.8249  138.3393  154.4882 H   0  0  0  0  0  0  0  0  0  0  0  0
  151.0512  140.0691  154.9226 H   0  0  0  0  0  0  0  0  0  0  0  0
  153.7814  140.6248  160.3111 H   0  0  0  0  0  0  0  0  0  0  0  0
  153.4502  142.7937  161.4763 H   0  0  0  0  0  0  0  0  0  0  0  0
  152.0749  144.5834  160.4342 H   0  0  0  0  0  0  0  0  0  0  0  0
  151.0133  144.2067  158.2111 H   0  0  0  0  0  0  0  0  0  0  0  0
  150.1892  143.3094  156.2282 H   0  0  0  0  0  0  0  0  0  0  0  0
  151.1082  142.5729  154.9415 H   0  0  0  0  0  0  0  0  0  0  0  0
  149.5916  140.4448  155.4159 H   0  0  0  0  0  0  0  0  0  0  0  0
  148.4160  141.3613  157.4191 H   0  0  0  0  0  0  0  0  0  0  0  0
  147.8550  142.7296  156.4843 H   0  0  0  0  0  0  0  0  0  0  0  0
  147.1102  139.8021  156.0360 H   0  0  0  0  0  0  0  0  0  0  0  0
  146.0446  141.0692  156.6055 H   0  0  0  0  0  0  0  0  0  0  0  0
  145.7540  140.5905  154.1385 H   0  0  0  0  0  0  0  0  0  0  0  0
  146.2037  142.2524  154.4518 H   0  0  0  0  0  0  0  0  0  0  0  0
  148.1200  140.0252  153.5612 H   0  0  0  0  0  0  0  0  0  0  0  0
  147.5811  141.3864  152.5978 H   0  0  0  0  0  0  0  0  0  0  0  0
  1  2  1  0  0  0  0
  1 22  1  0  0  0  0
  1 23  1  0  0  0  0
  1 24  1  0  0  0  0
  2  3  1  0  0  0  0
  2  4  1  0  0  0  0
  2 25  1  0  0  0  0
  3 26  1  0  0  0  0
  4  5  1  0  0  0  0
  4 27  1  0  0  0  0
  4 28  1  0  0  0  0
  5  6  1  0  0  0  0
  5 29  1  0  0  0  0
  6 14  1  0  0  0  0
  6  7  2  0  0  0  0
  7  8  1  0  0  0  0
  8 13  2  0  0  0  0
  8  9  1  0  0  0  0
  9 10  2  0  0  0  0
  9 30  1  0  0  0  0
 10 11  1  0  0  0  0
 10 31  1  0  0  0  0
 11 12  2  0  0  0  0
 11 32  1  0  0  0  0
 12 13  1  0  0  0  0
 12 33  1  0  0  0  0
 13 14  1  0  0  0  0
 14 15  1  0  0  0  0
 15 16  1  0  0  0  0
 15 34  1  0  0  0  0
 15 35  1  0  0  0  0
 16 21  1  0  0  0  0
 16 17  1  0  0  0  0
 16 36  1  0  0  0  0
 17 18  1  0  0  0  0
 17 37  1  0  0  0  0
 17 38  1  0  0  0  0
 18 19  1  0  0  0  0
 18 39  1  0  0  0  0
 18 40  1  0  0  0  0
 19 20  1  0  0  0  0
 19 41  1  0  0  0  0
 19 42  1  0  0  0  0
 20 21  1  0  0  0  0
 20 43  1  0  0  0  0
 20 44  1  0  0  0  0
M  END
> <s_m_source_file>
AV-unprocessed.smi

> <i_m_source_file_index>
573

> <i_lp_mmshare_version>
43012

> <i_f3d_flags>
0

> <s_epik_input>
W0NIM11bQ0BIXShbT0hdKVtDSDJdW05IXWMobjEpbihjKGMxMilbY0hdW2NIXVtjSF1bY0hdMilbQ0gyXVtDQEBIXTNbQ0gyXVtDSDJdW0NIMl1bQ0gyXU8z

> <s_epik_cmdline>
J2VwaWtfcHl0aG9uJywgJy1waCcsICc3LjAnLCAnLXRuJywgJzgnLCAnLW1hJywgJzIwMCcsICctbWV0YWxfYmluZGluZycsICctaW1hZScsICc8aW5maWxlLm1hZT4nLCAnLW9tYWUnLCAnPG91dGZpbGUubWFlPic=

> <r_epik_Ionization_Penalty>
1.30635

> <r_epik_Ionization_Penalty_Charging>
0

> <r_epik_Ionization_Penalty_Neutral>
1.30635

> <r_epik_State_Penalty>
1.38073

> <r_epik_Charging_Adjusted_Penalty>
1.38073

> <i_epik_Tot_Q>
0

> <i_epik_Tot_abs_Q>
0

> <r_epik_Metal_State_Penalty>
0.00547412

> <b_epik_Metal_Only>
0

> <s_lp_Force_Field>
OPLS_2005

> <r_lp_Energy>
9.89465

> <b_lp_Chiralities_Consistent>
1

> <s_lp_Variant>
AV-unprocessed.smi:573-7

> <Gold.Version>
5.8.1

> <Gold.Id.Protein>
6NUR|6NUR_protein|mol2

> <Gold.PLP.Fitness>
47.8658

> <Gold.PLP.PLP>
-38.6424

> <Gold.PLP.part.hbond>
-4.3114

> <Gold.PLP.part.metal>
0.0000

> <Gold.PLP.part.buried>
-2.4982

> <Gold.PLP.part.nonpolar>
-30.4485

> <Gold.PLP.part.repulsive>
0.3476

> <Gold.PLP.ligand.clash>
0.0000

> <Gold.PLP.ligand.torsion>
0.5233

> <Gold.PLP.Chemscore.Hbond>
3.4210

> <Gold.PLP.Chemscore.CHOScore>
0.0000

> <Gold.PLP.Chemscore.Metal>
0.0000

> <Gold.Chemscore.Hbonds>
donor molecule, donor type, donor heavy atom, donor atom, acceptor molecule, acceptor atom, score
      L1  H     3    26       P1  7949  1.00
      P1  H  7997  8010       L1     7  0.91
      P1  H  8011  8017       L1    21  0.41
      P1  H 10752 10765       L1     3  1.00

> <Gold.PLP.Chemscore.Internal.Correction>
0.0070

> <Gold.Rescore>
     Score         DG    S(hbond)    S(metal)    S(lipo)     H(rot)  DE(clash)    DE(int)     intcor
     18.77     -21.95       2.50        0.00     113.76       2.02       1.90       1.28       ----

> <Gold.Chemscore.Fitness>
18.7719

> <Gold.Chemscore.DG>
-21.9510

> <Gold.Chemscore.ZeroCoef>
-5.4800

> <Gold.Chemscore.Hbond>
2.4967

> <Gold.Chemscore.Metal>
0.0000

> <Gold.Chemscore.Lipo>
113.7555

> <Gold.Chemscore.Internal_Hbond>
0.0000

> <Gold.Chemscore.DEClash>
1.8996

> <Gold.Chemscore.DEInternal>
1.2795

> <Gold.Chemscore.Rot>
2.0224

> <Gold.Chemscore.Internal.Correction>
   9.000000E+99

> <Gold.Chemscore.Hbonds>
donor molecule, donor type, donor heavy atom, donor atom, acceptor molecule, acceptor atom, score
      L1  H     3    26       P1  7949  0.30
      P1  H  7997  8010       L1     7  0.12
      P1  H  8011  8017       L1    21  0.11
      P1  H 10752 10765       L1     3  0.88

> <Gold.Chemscore.Hbond.Weighted>
-8.3389

> <Gold.Chemscore.Metal.Weighted>
-0.0000

> <Gold.Chemscore.Lipo.Weighted>
-13.3094

> <Gold.Chemscore.Internal_Hbond.Weighted>
0.0000

> <Gold.Chemscore.DEClash.Weighted>
1.8996

> <Gold.Chemscore.DEInternal.Weighted>
1.2795

> <Gold.Chemscore.Rot.Weighted>
5.1773

> <Gold.Chemscore.Internal.Correction.Weighted>
   9.000000E+99

> <Gold.Protein.RotatedTorsions>
[ 6907 6896 6895 6894 ] final  178.91 input  -60.11 | X-H torsion
[ 7974 7965 7964 7962 ] final    7.27 input  175.53 | X-H torsion
[ 8008 7997 7996 7995 ] final   46.13 input   59.86 | X-H torsion
[ 10167 10162 10161 10158 ] final  -17.88 input  -65.29 | X-H torsion
[ 10718 10713 10712 10709 ] final -166.21 input   66.30 | X-H torsion
[ 10763 10752 10751 10750 ] final  167.32 input  -60.55 | X-H torsion
[ 11005 11000 10999 10996 ] final   -3.20 input  -57.11 | X-H torsion

> <Gold.Protein.ActiveResidues>
 VAL166  LYS551  ARG553  GLY616  TRP617  ASP618  TYR619  PRO620  LYS621  CYS622 
 ASP623  PHE694  ASN695  SER759  ASP760  ASP761  ALA762  ILE779  LEU786  VAL792 
 PHE793  MET794  SER795  GLU796  ALA797  LYS798  CYS799  TRP800  GLU811  SER814 

> <Gold.Protein.RotatedAtoms>
  151.6802  133.3312  159.3217 H   0  0  0  0  0  0  0  0  0  0  0  0  # atno 6907 bound_to 6896
  150.7826  134.6787  159.6441 H   0  0  0  0  0  0  0  0  0  0  0  0  # atno 6908 bound_to 6896
  152.3888  134.6478  160.0167 H   0  0  0  0  0  0  0  0  0  0  0  0  # atno 6909 bound_to 6896
  146.2428  140.0108  142.8407 H   0  0  0  0  0  0  0  0  0  0  0  0  # atno 7974 bound_to 7965
  155.3473  140.3411  155.4239 H   0  0  0  0  0  0  0  0  0  0  0  0  # atno 8008 bound_to 7997
  156.1782  140.1655  156.8359 H   0  0  0  0  0  0  0  0  0  0  0  0  # atno 8009 bound_to 7997
  154.5305  140.0746  156.8318 H   0  0  0  0  0  0  0  0  0  0  0  0  # atno 8010 bound_to 7997
  140.7252  143.4971  150.9917 H   0  0  0  0  0  0  0  0  0  0  0  0  # atno 10167 bound_to 10162
  156.6646  130.9060  151.3034 H   0  0  0  0  0  0  0  0  0  0  0  0  # atno 10718 bound_to 10713
  154.3521  135.2753  155.2366 H   0  0  0  0  0  0  0  0  0  0  0  0  # atno 10763 bound_to 10752
  154.4591  135.5911  153.6247 H   0  0  0  0  0  0  0  0  0  0  0  0  # atno 10764 bound_to 10752
  152.9849  135.6060  154.3733 H   0  0  0  0  0  0  0  0  0  0  0  0  # atno 10765 bound_to 10752
  140.6667  133.9272  155.8469 H   0  0  0  0  0  0  0  0  0  0  0  0  # atno 11005 bound_to 11000
  145.1329  140.9528  143.4533 LP  0  0  0  0  0  0  0  0  0  0  0  0  # atno 17320 bound_to 7965
  145.0370  139.3292  143.5996 LP  0  0  0  0  0  0  0  0  0  0  0  0  # atno 17321 bound_to 7965
  139.8678  143.7231  152.3169 LP  0  0  0  0  0  0  0  0  0  0  0  0  # atno 17342 bound_to 10162
  139.7469  144.7545  151.0566 LP  0  0  0  0  0  0  0  0  0  0  0  0  # atno 17343 bound_to 10162
  157.7098  130.9427  150.1050 LP  0  0  0  0  0  0  0  0  0  0  0  0  # atno 17370 bound_to 10713
  156.1984  130.3659  149.8819 LP  0  0  0  0  0  0  0  0  0  0  0  0  # atno 17371 bound_to 10713
  141.0423  134.0603  157.3886 LP  0  0  0  0  0  0  0  0  0  0  0  0  # atno 17394 bound_to 11000
  139.8995  135.0159  156.7197 LP  0  0  0  0  0  0  0  0  0  0  0  0  # atno 17395 bound_to 11000

$$$$
