AV-unprocessed.smi:193|AV-procd|sdf|1496|dock10
  -GOLD-   2262019323D 1   1.00000     0.00000
 Structure written by MMmdl.
 62 66  0  0  0  0  0  0  0  0  2 V2000
  146.6224  142.1022  156.7385 C   0  0  0  0  0  0  0  0  0  0  0  0
  148.0893  141.6739  156.9052 C   0  0  2  0  0  0  0  0  0  0  0  0
  148.1454  140.1725  157.2544 C   0  0  0  0  0  0  0  0  0  0  0  0
  149.4314  139.5344  156.9786 N   0  0  0  0  0  0  0  0  0  0  0  0
  149.5282  138.2319  157.3218 C   0  0  0  0  0  0  0  0  0  0  0  0
  149.1306  137.8849  158.5708 N   0  0  0  0  0  0  0  0  0  0  0  0
  149.2058  136.6098  158.9650 C   0  0  0  0  0  0  0  0  0  0  0  0
  149.6309  135.5475  158.2778 N   0  0  0  0  0  0  0  0  0  0  0  0
  150.0121  135.8923  157.0143 C   0  0  0  0  0  0  0  0  0  0  0  0
  149.9918  137.2014  156.4567 C   0  0  0  0  0  0  0  0  0  0  0  0
  150.4355  137.1628  155.1402 N   0  0  0  0  0  0  0  0  0  0  0  0
  150.7140  135.9041  154.9355 C   0  0  0  0  0  0  0  0  0  0  0  0
  150.4855  135.0703  156.0068 N   0  0  0  0  0  0  0  0  0  0  0  0
  150.7084  133.6335  156.0537 C   0  0  0  0  0  0  0  0  0  0  0  0
  149.5692  132.7982  155.4190 C   0  0  0  0  0  0  0  0  0  0  0  0
  148.4234  132.9361  156.2421 O   0  0  0  0  0  0  0  0  0  0  0  0
  149.2284  133.3374  154.0152 C   0  0  0  0  0  0  0  0  0  0  0  0
  148.2226  132.4379  153.2754 C   0  0  0  0  0  0  0  0  0  0  0  0
  148.7174  131.1059  153.2110 O   0  0  0  0  0  0  0  0  0  0  0  0
  148.8760  130.5151  154.4951 C   0  0  0  0  0  0  0  0  0  0  0  0
  149.9184  131.2974  155.3137 C   0  0  0  0  0  0  0  0  0  0  0  0
  150.6932  140.2681  156.9974 C   0  0  0  0  0  0  0  0  0  0  0  0
  150.8365  141.1906  158.2151 C   0  0  0  0  0  0  0  0  0  0  0  0
  150.2447  142.5241  157.9509 N   0  3  2  0  0  0  0  0  0  0  0  0
  150.8226  143.5588  158.8381 C   0  0  2  0  0  0  0  0  0  0  0  0
  151.8951  144.3945  158.1782 C   0  0  0  0  0  0  0  0  0  0  0  0
  152.2783  143.3261  159.1793 C   0  0  1  0  0  0  0  0  0  0  0  0
  152.8227  143.7129  160.5368 C   0  0  0  0  0  0  0  0  0  0  0  0
  148.7611  142.5394  157.9964 C   0  0  0  0  0  0  0  0  0  0  0  0
  146.0601  141.9616  157.6624 H   0  0  0  0  0  0  0  0  0  0  0  0
  146.1281  141.5236  155.9574 H   0  0  0  0  0  0  0  0  0  0  0  0
  146.5457  143.1534  156.4586 H   0  0  0  0  0  0  0  0  0  0  0  0
  148.5772  141.8481  155.9451 H   0  0  0  0  0  0  0  0  0  0  0  0
  147.8518  140.0302  158.2937 H   0  0  0  0  0  0  0  0  0  0  0  0
  147.4036  139.6395  156.6577 H   0  0  0  0  0  0  0  0  0  0  0  0
  148.8777  136.4116  159.9747 H   0  0  0  0  0  0  0  0  0  0  0  0
  151.0917  135.5440  153.9892 H   0  0  0  0  0  0  0  0  0  0  0  0
  151.6557  133.4205  155.5562 H   0  0  0  0  0  0  0  0  0  0  0  0
  150.8446  133.3471  157.0974 H   0  0  0  0  0  0  0  0  0  0  0  0
  148.5748  132.4644  157.0470 H   0  0  0  0  0  0  0  0  0  0  0  0
  148.8437  134.3563  154.0788 H   0  0  0  0  0  0  0  0  0  0  0  0
  150.1408  133.3932  153.4199 H   0  0  0  0  0  0  0  0  0  0  0  0
  147.2469  132.4531  153.7631 H   0  0  0  0  0  0  0  0  0  0  0  0
  148.0723  132.8049  152.2599 H   0  0  0  0  0  0  0  0  0  0  0  0
  147.9162  130.4790  155.0126 H   0  0  0  0  0  0  0  0  0  0  0  0
  149.2025  129.4828  154.3672 H   0  0  0  0  0  0  0  0  0  0  0  0
  150.8897  131.1885  154.8296 H   0  0  0  0  0  0  0  0  0  0  0  0
  150.0175  130.8490  156.3030 H   0  0  0  0  0  0  0  0  0  0  0  0
  151.5200  139.5554  157.0053 H   0  0  0  0  0  0  0  0  0  0  0  0
  150.8028  140.8313  156.0700 H   0  0  0  0  0  0  0  0  0  0  0  0
  150.4313  140.7445  159.1245 H   0  0  0  0  0  0  0  0  0  0  0  0
  151.9043  141.3246  158.3935 H   0  0  0  0  0  0  0  0  0  0  0  0
  150.1446  144.0058  159.5638 H   0  0  0  0  0  0  0  0  0  0  0  0
  152.1275  144.2057  157.1317 H   0  0  0  0  0  0  0  0  0  0  0  0
  151.9819  145.4332  158.4911 H   0  0  0  0  0  0  0  0  0  0  0  0
  152.7420  142.4323  158.7648 H   0  0  0  0  0  0  0  0  0  0  0  0
  152.3291  144.6105  160.9109 H   0  0  0  0  0  0  0  0  0  0  0  0
  153.8933  143.9071  160.4697 H   0  0  0  0  0  0  0  0  0  0  0  0
  152.6594  142.9040  161.2493 H   0  0  0  0  0  0  0  0  0  0  0  0
  148.4424  143.5739  157.8607 H   0  0  0  0  0  0  0  0  0  0  0  0
  148.4160  142.2464  158.9894 H   0  0  0  0  0  0  0  0  0  0  0  0
  150.5141  142.7803  157.0119 H   0  0  0  0  0  0  0  0  0  0  0  0
  1  2  1  0  0  0  0
  1 30  1  0  0  0  0
  1 31  1  0  0  0  0
  1 32  1  0  0  0  0
  2 29  1  0  0  0  0
  2  3  1  0  0  0  0
  2 33  1  0  0  0  0
  3  4  1  0  0  0  0
  3 34  1  0  0  0  0
  3 35  1  0  0  0  0
  4  5  1  0  0  0  0
  4 22  1  0  0  0  0
  5 10  1  0  0  0  0
  5  6  2  0  0  0  0
  6  7  1  0  0  0  0
  7  8  2  0  0  0  0
  7 36  1  0  0  0  0
  8  9  1  0  0  0  0
  9 13  1  0  0  0  0
  9 10  2  0  0  0  0
 10 11  1  0  0  0  0
 11 12  2  0  0  0  0
 12 13  1  0  0  0  0
 12 37  1  0  0  0  0
 13 14  1  0  0  0  0
 14 15  1  0  0  0  0
 14 38  1  0  0  0  0
 14 39  1  0  0  0  0
 15 21  1  0  0  0  0
 15 16  1  0  0  0  0
 15 17  1  0  0  0  0
 16 40  1  0  0  0  0
 17 18  1  0  0  0  0
 17 41  1  0  0  0  0
 17 42  1  0  0  0  0
 18 19  1  0  0  0  0
 18 43  1  0  0  0  0
 18 44  1  0  0  0  0
 19 20  1  0  0  0  0
 20 21  1  0  0  0  0
 20 45  1  0  0  0  0
 20 46  1  0  0  0  0
 21 47  1  0  0  0  0
 21 48  1  0  0  0  0
 22 23  1  0  0  0  0
 22 49  1  0  0  0  0
 22 50  1  0  0  0  0
 23 24  1  0  0  0  0
 23 51  1  0  0  0  0
 23 52  1  0  0  0  0
 24 25  1  0  0  0  0
 24 29  1  0  0  0  0
 24 62  1  0  0  0  0
 25 27  1  0  0  0  0
 25 26  1  0  0  0  0
 25 53  1  0  0  0  0
 26 27  1  0  0  0  0
 26 54  1  0  0  0  0
 26 55  1  0  0  0  0
 27 28  1  0  0  0  0
 27 56  1  0  0  0  0
 28 57  1  0  0  0  0
 28 58  1  0  0  0  0
 28 59  1  0  0  0  0
 29 60  1  0  0  0  0
 29 61  1  0  0  0  0
M  CHG  1  24   1
M  END
> <s_m_source_file>
AV-unprocessed.smi

> <i_m_source_file_index>
193

> <i_lp_mmshare_version>
43012

> <i_f3d_flags>
0

> <s_epik_input>
W0NIM11bQ0BASF0xW0NIMl1bQ0BIXTFOKFtDSDJdMilbQ0gyXVtDSDJdTihbQ0gyXVtDQEhdMltDSDNdKWMobltjSF1uMyljKGMzNCluW2NIXW40W0NIMl1DNShbT0hdKVtDSDJdW0NIMl1PW0NIMl1bQ0gyXTU=

> <s_epik_cmdline>
J2VwaWtfcHl0aG9uJywgJy1waCcsICc3LjAnLCAnLXRuJywgJzgnLCAnLW1hJywgJzIwMCcsICctbWV0YWxfYmluZGluZycsICctaW1hZScsICc8aW5maWxlLm1hZT4nLCAnLW9tYWUnLCAnPG91dGZpbGUubWFlPic=

> <r_lp_tautomer_probability>
1

> <r_epik_Ionization_Penalty>
0.0540825

> <r_epik_Ionization_Penalty_Charging>
0.0538476

> <r_epik_Ionization_Penalty_Neutral>
0.000234891

> <r_epik_State_Penalty>
0.0200719

> <r_epik_Charging_Adjusted_Penalty>
0.0739194

> <i_epik_Tot_Q>
1

> <i_epik_Tot_abs_Q>
1

> <r_epik_Metal_State_Penalty>
0.0199414

> <b_epik_Metal_Only>
0

> <s_lp_Force_Field>
OPLS_2005

> <r_lp_Energy>
53.912

> <b_lp_Chiralities_Consistent>
1

> <s_lp_Variant>
AV-unprocessed.smi:193-1

> <Gold.Version>
5.8.1

> <Gold.Id.Protein>
6NUR|6NUR_protein|mol2

> <Gold.PLP.Fitness>
43.2288

> <Gold.PLP.PLP>
-40.7184

> <Gold.PLP.part.hbond>
-1.0000

> <Gold.PLP.part.metal>
0.0000

> <Gold.PLP.part.buried>
-5.7161

> <Gold.PLP.part.nonpolar>
-34.5059

> <Gold.PLP.part.repulsive>
1.6166

> <Gold.PLP.ligand.clash>
0.0000

> <Gold.PLP.ligand.torsion>
2.3602

> <Gold.PLP.Chemscore.Hbond>
0.9440

> <Gold.PLP.Chemscore.CHOScore>
0.9788

> <Gold.PLP.Chemscore.Metal>
0.0000

> <Gold.Chemscore.Hbonds>
donor molecule, donor type, donor heavy atom, donor atom, acceptor molecule, acceptor atom, score
      P1  H  6896  6909       L1     8  0.94
      L1  C    12    37       P1  7949  0.96

> <Gold.PLP.Chemscore.Internal.Correction>
1.4622

> <Gold.Rescore>
     Score         DG    S(hbond)    S(metal)    S(lipo)     H(rot)  DE(clash)    DE(int)     intcor
     12.45     -14.84       0.84        0.00      98.27       1.93       0.07       2.32       ----

> <Gold.Chemscore.Fitness>
12.4491

> <Gold.Chemscore.DG>
-14.8392

> <Gold.Chemscore.ZeroCoef>
-5.4800

> <Gold.Chemscore.Hbond>
0.8383

> <Gold.Chemscore.Metal>
0.0000

> <Gold.Chemscore.Lipo>
98.2712

> <Gold.Chemscore.Internal_Hbond>
0.0000

> <Gold.Chemscore.DEClash>
0.0678

> <Gold.Chemscore.DEInternal>
2.3223

> <Gold.Chemscore.Rot>
1.9290

> <Gold.Chemscore.Internal.Correction>
   9.000000E+99

> <Gold.Chemscore.Hbonds>
donor molecule, donor type, donor heavy atom, donor atom, acceptor molecule, acceptor atom, score
      P1  H  6896  6909       L1     8  0.70

> <Gold.Chemscore.Hbond.Weighted>
-2.7998

> <Gold.Chemscore.Metal.Weighted>
-0.0000

> <Gold.Chemscore.Lipo.Weighted>
-11.4977

> <Gold.Chemscore.Internal_Hbond.Weighted>
0.0000

> <Gold.Chemscore.DEClash.Weighted>
0.0678

> <Gold.Chemscore.DEInternal.Weighted>
2.3223

> <Gold.Chemscore.Rot.Weighted>
4.9383

> <Gold.Chemscore.Internal.Correction.Weighted>
   9.000000E+99

> <Gold.Protein.RotatedTorsions>
[ 6907 6896 6895 6894 ] final   31.54 input  -60.11 | X-H torsion
[ 7974 7965 7964 7962 ] final -136.40 input  175.53 | X-H torsion
[ 8008 7997 7996 7995 ] final  141.24 input   59.86 | X-H torsion
[ 10167 10162 10161 10158 ] final  -52.27 input  -65.29 | X-H torsion
[ 10718 10713 10712 10709 ] final -101.14 input   66.30 | X-H torsion
[ 10763 10752 10751 10750 ] final  175.50 input  -60.55 | X-H torsion
[ 11005 11000 10999 10996 ] final -134.11 input  -57.11 | X-H torsion

> <Gold.Protein.ActiveResidues>
 VAL166  LYS551  ARG553  GLY616  TRP617  ASP618  TYR619  PRO620  LYS621  CYS622 
 ASP623  PHE694  ASN695  SER759  ASP760  ASP761  ALA762  ILE779  LEU786  VAL792 
 PHE793  MET794  SER795  GLU796  ALA797  LYS798  CYS799  TRP800  GLU811  SER814 

> <Gold.Protein.RotatedAtoms>
  152.0617  134.9590  160.0574 H   0  0  0  0  0  0  0  0  0  0  0  0  # atno 6907 bound_to 6896
  152.0951  133.4215  159.4569 H   0  0  0  0  0  0  0  0  0  0  0  0  # atno 6908 bound_to 6896
  150.6838  134.2746  159.4645 H   0  0  0  0  0  0  0  0  0  0  0  0  # atno 6909 bound_to 6896
  144.8930  140.6668  143.5133 H   0  0  0  0  0  0  0  0  0  0  0  0  # atno 7974 bound_to 7965
  156.2968  140.2320  156.4533 H   0  0  0  0  0  0  0  0  0  0  0  0  # atno 8008 bound_to 7997
  154.8083  140.0444  157.1344 H   0  0  0  0  0  0  0  0  0  0  0  0  # atno 8009 bound_to 7997
  154.9453  140.3035  155.5104 H   0  0  0  0  0  0  0  0  0  0  0  0  # atno 8010 bound_to 7997
  140.6546  143.2590  151.4624 H   0  0  0  0  0  0  0  0  0  0  0  0  # atno 10167 bound_to 10162
  156.0185  130.5360  150.6920 H   0  0  0  0  0  0  0  0  0  0  0  0  # atno 10718 bound_to 10713
  154.4684  135.2770  155.1661 H   0  0  0  0  0  0  0  0  0  0  0  0  # atno 10763 bound_to 10752
  154.3420  135.6168  153.5604 H   0  0  0  0  0  0  0  0  0  0  0  0  # atno 10764 bound_to 10752
  152.9861  135.5791  154.5060 H   0  0  0  0  0  0  0  0  0  0  0  0  # atno 10765 bound_to 10752
  140.9020  134.1678  157.4453 H   0  0  0  0  0  0  0  0  0  0  0  0  # atno 11005 bound_to 11000
  145.3749  139.1650  143.4312 LP  0  0  0  0  0  0  0  0  0  0  0  0  # atno 17320 bound_to 7965
  146.3065  140.3824  142.8685 LP  0  0  0  0  0  0  0  0  0  0  0  0  # atno 17321 bound_to 7965
  139.5766  144.1805  152.1911 LP  0  0  0  0  0  0  0  0  0  0  0  0  # atno 17342 bound_to 10162
  140.1117  144.5451  150.6920 LP  0  0  0  0  0  0  0  0  0  0  0  0  # atno 17343 bound_to 10162
  157.4599  131.0882  151.0756 LP  0  0  0  0  0  0  0  0  0  0  0  0  # atno 17370 bound_to 10713
  157.1247  130.6077  149.5514 LP  0  0  0  0  0  0  0  0  0  0  0  0  # atno 17371 bound_to 10713
  139.8743  134.9902  156.5490 LP  0  0  0  0  0  0  0  0  0  0  0  0  # atno 17394 bound_to 11000
  140.8218  133.8347  155.8903 LP  0  0  0  0  0  0  0  0  0  0  0  0  # atno 17395 bound_to 11000

$$$$
