AV-unprocessed.smi:1439|AV-procd|sdf|5871|dock4
  -GOLD-   22720 5543D 1   1.00000     0.00000
 Structure written by MMmdl.
 35 36  0  0  0  0  0  0  0  0  2 V2000
  147.1386  139.4421  152.5008 N   0  0  0  0  0  0  0  0  0  0  0  0
  147.1852  139.8932  153.7585 C   0  0  0  0  0  0  0  0  0  0  0  0
  146.3170  139.6131  154.5823 O   0  0  0  0  0  0  0  0  0  0  0  0
  148.3852  140.7568  154.1658 C   0  0  0  0  0  0  0  0  0  0  0  0
  149.4138  139.9609  154.9195 C   0  0  0  0  0  0  0  0  0  0  0  0
  150.1295  138.8894  154.4500 C   0  0  0  0  0  0  0  0  0  0  0  0
  151.2190  138.2645  155.6544 S   0  0  0  0  0  0  0  0  0  0  0  0
  150.6609  139.5002  156.7840 C   0  0  0  0  0  0  0  0  0  0  0  0
  151.1028  139.6469  158.0428 N   0  5  0  0  0  0  0  0  0  0  0  0
  152.4352  139.6812  158.2825 C   0  0  0  0  0  0  0  0  0  0  0  0
  153.3513  139.2161  157.6007 O   0  0  0  0  0  0  0  0  0  0  0  0
  152.7416  140.4144  159.5960 C   0  0  0  0  0  0  0  0  0  0  0  0
  153.3820  141.8016  159.3977 C   0  0  0  0  0  0  0  0  0  0  0  0
  152.3546  142.8766  159.0149 C   0  0  2  0  0  0  0  0  0  0  0  0
  152.9568  144.0857  158.3050 C   0  0  0  0  0  0  0  0  0  0  0  0
  151.9288  145.1765  158.5538 C   0  0  0  0  0  0  0  0  0  0  0  0
  151.1395  144.6740  159.7674 C   0  0  0  0  0  0  0  0  0  0  0  0
  151.7775  143.4681  160.1681 O   0  0  0  0  0  0  0  0  0  0  0  0
  149.7185  140.2820  156.2457 N   0  0  0  0  0  0  0  0  0  0  0  0
  146.3483  138.8942  152.1937 H   0  0  0  0  0  0  0  0  0  0  0  0
  147.8797  139.6738  151.8555 H   0  0  0  0  0  0  0  0  0  0  0  0
  148.8294  141.1982  153.2724 H   0  0  0  0  0  0  0  0  0  0  0  0
  148.0235  141.5887  154.7709 H   0  0  0  0  0  0  0  0  0  0  0  0
  150.0850  138.4329  153.4728 H   0  0  0  0  0  0  0  0  0  0  0  0
  151.8142  140.5216  160.1608 H   0  0  0  0  0  0  0  0  0  0  0  0
  153.4049  139.7910  160.1978 H   0  0  0  0  0  0  0  0  0  0  0  0
  153.9039  142.1047  160.3067 H   0  0  0  0  0  0  0  0  0  0  0  0
  154.1361  141.7416  158.6114 H   0  0  0  0  0  0  0  0  0  0  0  0
  151.5622  142.4450  158.4003 H   0  0  0  0  0  0  0  0  0  0  0  0
  153.9039  144.3625  158.7705 H   0  0  0  0  0  0  0  0  0  0  0  0
  153.1407  143.9068  157.2453 H   0  0  0  0  0  0  0  0  0  0  0  0
  152.4059  146.1388  158.7417 H   0  0  0  0  0  0  0  0  0  0  0  0
  151.2669  145.2910  157.6947 H   0  0  0  0  0  0  0  0  0  0  0  0
  151.1310  145.3940  160.5862 H   0  0  0  0  0  0  0  0  0  0  0  0
  150.1058  144.4613  159.4913 H   0  0  0  0  0  0  0  0  0  0  0  0
  1  2  1  0  0  0  0
  1 20  1  0  0  0  0
  1 21  1  0  0  0  0
  2  3  2  0  0  0  0
  2  4  1  0  0  0  0
  4  5  1  0  0  0  0
  4 22  1  0  0  0  0
  4 23  1  0  0  0  0
  5 19  1  0  0  0  0
  5  6  2  0  0  0  0
  6  7  1  0  0  0  0
  6 24  1  0  0  0  0
  7  8  1  0  0  0  0
  8  9  1  0  0  0  0
  8 19  2  0  0  0  0
  9 10  1  0  0  0  0
 10 11  2  0  0  0  0
 10 12  1  0  0  0  0
 12 13  1  0  0  0  0
 12 25  1  0  0  0  0
 12 26  1  0  0  0  0
 13 14  1  0  0  0  0
 13 27  1  0  0  0  0
 13 28  1  0  0  0  0
 14 18  1  0  0  0  0
 14 15  1  0  0  0  0
 14 29  1  0  0  0  0
 15 16  1  0  0  0  0
 15 30  1  0  0  0  0
 15 31  1  0  0  0  0
 16 17  1  0  0  0  0
 16 32  1  0  0  0  0
 16 33  1  0  0  0  0
 17 18  1  0  0  0  0
 17 34  1  0  0  0  0
 17 35  1  0  0  0  0
M  CHG  1   9  -1
M  END
> <s_m_source_file>
AV-unprocessed.smi

> <i_m_source_file_index>
1439

> <i_lp_mmshare_version>
43012

> <i_f3d_flags>
0

> <s_epik_input>
W05IMl1DKD1PKVtDSDJdYzFbY0hdc2MobjEpW05IXUMoPU8pW0NIMl1bQ0gyXVtDQEBIXTJbQ0gyXVtDSDJdW0NIMl1PMg==

> <s_epik_cmdline>
J2VwaWtfcHl0aG9uJywgJy1waCcsICc3LjAnLCAnLXRuJywgJzgnLCAnLW1hJywgJzIwMCcsICctbWV0YWxfYmluZGluZycsICctaW1hZScsICc8aW5maWxlLm1hZT4nLCAnLW9tYWUnLCAnPG91dGZpbGUubWFlPic=

> <r_lp_tautomer_probability>
1

> <r_epik_Ionization_Penalty>
4.85214

> <r_epik_Ionization_Penalty_Charging>
4.5239

> <r_epik_Ionization_Penalty_Neutral>
0.32824

> <r_epik_State_Penalty>
4.52362

> <r_epik_Charging_Adjusted_Penalty>
9.04752

> <i_epik_Tot_Q>
-1

> <i_epik_Tot_abs_Q>
1

> <r_epik_Metal_State_Penalty>
0.831335

> <b_epik_Metal_Only>
1

> <s_lp_Force_Field>
OPLS_2005

> <r_lp_Energy>
14.205

> <b_lp_Chiralities_Consistent>
1

> <s_lp_Variant>
AV-unprocessed.smi:1439-3

> <Gold.Version>
5.8.1

> <Gold.Id.Protein>
6NUR|6NUR_protein|mol2

> <Gold.PLP.Fitness>
46.9254

> <Gold.PLP.PLP>
-40.3796

> <Gold.PLP.part.hbond>
-1.9126

> <Gold.PLP.part.metal>
0.0000

> <Gold.PLP.part.buried>
-5.6973

> <Gold.PLP.part.nonpolar>
-33.1991

> <Gold.PLP.part.repulsive>
0.3001

> <Gold.PLP.ligand.clash>
0.0000

> <Gold.PLP.ligand.torsion>
1.3116

> <Gold.PLP.Chemscore.Hbond>
2.0000

> <Gold.PLP.Chemscore.CHOScore>
1.0000

> <Gold.PLP.Chemscore.Metal>
0.0000

> <Gold.Chemscore.Hbonds>
donor molecule, donor type, donor heavy atom, donor atom, acceptor molecule, acceptor atom, score
      L1  H     1    21       P1  7957  1.00
      P1  H  7997  8009       L1    11  1.00
      L1  C     6    24       P1  7948  0.05
      L1  C     6    24       P1  7957  0.18

> <Gold.PLP.Chemscore.Internal.Correction>
0.1689

> <Gold.Rescore>
     Score         DG    S(hbond)    S(metal)    S(lipo)     H(rot)  DE(clash)    DE(int)     intcor
     14.65     -16.78       1.94        0.00      96.01       2.51       0.05       2.08       ----

> <Gold.Chemscore.Fitness>
14.6477

> <Gold.Chemscore.DG>
-16.7800

> <Gold.Chemscore.ZeroCoef>
-5.4800

> <Gold.Chemscore.Hbond>
1.9441

> <Gold.Chemscore.Metal>
0.0000

> <Gold.Chemscore.Lipo>
96.0100

> <Gold.Chemscore.Internal_Hbond>
0.0000

> <Gold.Chemscore.DEClash>
0.0495

> <Gold.Chemscore.DEInternal>
2.0828

> <Gold.Chemscore.Rot>
2.5103

> <Gold.Chemscore.Internal.Correction>
   9.000000E+99

> <Gold.Chemscore.Hbonds>
donor molecule, donor type, donor heavy atom, donor atom, acceptor molecule, acceptor atom, score
      L1  H     1    21       P1  7957  1.00
      P1  H  7997  8009       L1    11  0.97

> <Gold.Chemscore.Hbond.Weighted>
-6.4933

> <Gold.Chemscore.Metal.Weighted>
-0.0000

> <Gold.Chemscore.Lipo.Weighted>
-11.2332

> <Gold.Chemscore.Internal_Hbond.Weighted>
0.0000

> <Gold.Chemscore.DEClash.Weighted>
0.0495

> <Gold.Chemscore.DEInternal.Weighted>
2.0828

> <Gold.Chemscore.Rot.Weighted>
6.4264

> <Gold.Chemscore.Internal.Correction.Weighted>
   9.000000E+99

> <Gold.Protein.RotatedTorsions>
[ 6907 6896 6895 6894 ] final -148.34 input  -60.11 | X-H torsion
[ 7974 7965 7964 7962 ] final  128.82 input  175.53 | X-H torsion
[ 8008 7997 7996 7995 ] final  179.14 input   59.86 | X-H torsion
[ 10167 10162 10161 10158 ] final -139.29 input  -65.29 | X-H torsion
[ 10718 10713 10712 10709 ] final  165.67 input   66.30 | X-H torsion
[ 10763 10752 10751 10750 ] final  -32.03 input  -60.55 | X-H torsion
[ 11005 11000 10999 10996 ] final   69.15 input  -57.11 | X-H torsion

> <Gold.Protein.ActiveResidues>
 VAL166  LYS551  ARG553  GLY616  TRP617  ASP618  TYR619  PRO620  LYS621  CYS622 
 ASP623  PHE694  ASN695  SER759  ASP760  ASP761  ALA762  ILE779  LEU786  VAL792 
 PHE793  MET794  SER795  GLU796  ALA797  LYS798  CYS799  TRP800  GLU811  SER814 

> <Gold.Protein.RotatedAtoms>
  151.1684  133.4800  159.2593 H   0  0  0  0  0  0  0  0  0  0  0  0  # atno 6907 bound_to 6896
  151.1382  135.0165  159.8623 H   0  0  0  0  0  0  0  0  0  0  0  0  # atno 6908 bound_to 6896
  152.5462  134.1580  159.8599 H   0  0  0  0  0  0  0  0  0  0  0  0  # atno 6909 bound_to 6896
  145.0353  139.4010  143.5129 H   0  0  0  0  0  0  0  0  0  0  0  0  # atno 7974 bound_to 7965
  156.0467  140.1316  157.0096 H   0  0  0  0  0  0  0  0  0  0  0  0  # atno 8008 bound_to 7997
  154.4416  140.1019  156.6387 H   0  0  0  0  0  0  0  0  0  0  0  0  # atno 8009 bound_to 7997
  155.5585  140.3464  155.4488 H   0  0  0  0  0  0  0  0  0  0  0  0  # atno 8010 bound_to 7997
  139.8394  143.7341  152.2663 H   0  0  0  0  0  0  0  0  0  0  0  0  # atno 10167 bound_to 10162
  157.0768  131.0381  151.2590 H   0  0  0  0  0  0  0  0  0  0  0  0  # atno 10718 bound_to 10713
  153.8071  135.6885  153.4846 H   0  0  0  0  0  0  0  0  0  0  0  0  # atno 10763 bound_to 10752
  153.1652  135.4564  154.9825 H   0  0  0  0  0  0  0  0  0  0  0  0  # atno 10764 bound_to 10752
  154.7983  135.3327  154.7555 H   0  0  0  0  0  0  0  0  0  0  0  0  # atno 10765 bound_to 10752
  139.9670  134.6964  156.0524 H   0  0  0  0  0  0  0  0  0  0  0  0  # atno 11005 bound_to 11000
  146.3503  139.9925  142.8684 LP  0  0  0  0  0  0  0  0  0  0  0  0  # atno 17320 bound_to 7965
  145.1717  140.9724  143.4318 LP  0  0  0  0  0  0  0  0  0  0  0  0  # atno 17321 bound_to 7965
  139.7574  144.7517  151.0415 LP  0  0  0  0  0  0  0  0  0  0  0  0  # atno 17342 bound_to 10162
  140.7799  143.4790  151.0043 LP  0  0  0  0  0  0  0  0  0  0  0  0  # atno 17343 bound_to 10162
  157.4833  130.7778  149.7435 LP  0  0  0  0  0  0  0  0  0  0  0  0  # atno 17370 bound_to 10713
  155.9935  130.3924  150.2899 LP  0  0  0  0  0  0  0  0  0  0  0  0  # atno 17371 bound_to 10713
  141.1350  133.6577  156.3568 LP  0  0  0  0  0  0  0  0  0  0  0  0  # atno 17394 bound_to 11000
  140.5375  134.6153  157.5369 LP  0  0  0  0  0  0  0  0  0  0  0  0  # atno 17395 bound_to 11000

$$$$
