AV-unprocessed.smi:1645|AV-procd|sdf|6618|dock1
  -GOLD-   22720 7313D 1   1.00000     0.00000
 Structure written by MMmdl.
 55 58  0  0  0  0  0  0  0  0  4 V2000
  149.9268  135.2116  156.2830 O   0  0  0  0  0  0  0  0  0  0  0  0
  149.7658  135.4912  155.0897 C   0  0  0  0  0  0  0  0  0  0  0  0
  149.9778  136.7440  154.6494 N   0  0  0  0  0  0  0  0  0  0  0  0
  150.3735  137.8924  155.3852 C   0  0  0  0  0  0  0  0  0  0  0  0
  151.0215  138.9318  154.6883 C   0  0  0  0  0  0  0  0  0  0  0  0
  151.4422  140.0846  155.3821 C   0  0  0  0  0  0  0  0  0  0  0  0
  151.2268  140.1858  156.7800 C   0  0  0  0  0  0  0  0  0  0  0  0
  151.6025  141.3055  157.5553 N   0  0  0  0  0  0  0  0  0  0  0  0
  151.0075  142.5894  157.1713 C   0  0  0  0  0  0  0  0  0  0  0  0
  151.7821  143.7721  157.7781 C   0  0  0  0  0  0  0  0  0  0  0  0
  151.9350  143.6142  159.2971 C   0  0  0  0  0  0  0  0  0  0  0  0
  152.5981  142.2672  159.6158 C   0  0  0  0  0  0  0  0  0  0  0  0
  151.8147  141.1011  158.9896 C   0  0  0  0  0  0  0  0  0  0  0  0
  150.6190  139.1496  157.4077 N   0  3  0  0  0  0  0  0  0  0  0  0
  150.1964  138.0298  156.7815 C   0  0  0  0  0  0  0  0  0  0  0  0
  149.3614  134.6616  154.0910 N   0  5  0  0  0  0  0  0  0  0  0  0
  148.8139  133.3181  154.2914 C   0  0  2  0  0  0  0  0  0  0  0  0
  149.8809  132.3390  154.7930 C   0  0  0  0  0  0  0  0  0  0  0  0
  149.4512  130.9627  154.2528 C   0  0  0  0  0  0  0  0  0  0  0  0
  148.4109  131.1974  153.2181 N   0  3  1  0  0  0  0  0  0  0  0  0
  147.0996  130.5880  153.5925 C   0  0  0  0  0  0  0  0  0  0  0  0
  145.9543  131.0379  152.6787 C   0  0  0  0  0  0  0  0  0  0  0  0
  145.8256  132.5609  152.7232 C   0  0  0  0  0  0  0  0  0  0  0  0
  147.1350  133.1898  152.2332 C   0  0  0  0  0  0  0  0  0  0  0  0
  148.4047  132.6650  152.9585 C   0  0  1  0  0  0  0  0  0  0  0  0
  149.7375  136.9059  153.6826 H   0  0  0  0  0  0  0  0  0  0  0  0
  151.1903  138.8528  153.6241 H   0  0  0  0  0  0  0  0  0  0  0  0
  151.9336  140.8673  154.8247 H   0  0  0  0  0  0  0  0  0  0  0  0
  150.9814  142.7131  156.0888 H   0  0  0  0  0  0  0  0  0  0  0  0
  149.9722  142.6083  157.5144 H   0  0  0  0  0  0  0  0  0  0  0  0
  152.7687  143.8369  157.3174 H   0  0  0  0  0  0  0  0  0  0  0  0
  151.2718  144.7080  157.5490 H   0  0  0  0  0  0  0  0  0  0  0  0
  152.5290  144.4331  159.7040 H   0  0  0  0  0  0  0  0  0  0  0  0
  150.9563  143.6675  159.7757 H   0  0  0  0  0  0  0  0  0  0  0  0
  153.6207  142.2658  159.2351 H   0  0  0  0  0  0  0  0  0  0  0  0
  152.6696  142.1302  160.6952 H   0  0  0  0  0  0  0  0  0  0  0  0
  150.8474  140.9922  159.4818 H   0  0  0  0  0  0  0  0  0  0  0  0
  152.3740  140.1808  159.1604 H   0  0  0  0  0  0  0  0  0  0  0  0
  149.7446  137.2884  157.4237 H   0  0  0  0  0  0  0  0  0  0  0  0
  147.9571  133.2972  154.9670 H   0  0  0  0  0  0  0  0  0  0  0  0
  150.8605  132.5925  154.3835 H   0  0  0  0  0  0  0  0  0  0  0  0
  149.9693  132.3499  155.8798 H   0  0  0  0  0  0  0  0  0  0  0  0
  150.3012  130.4471  153.8041 H   0  0  0  0  0  0  0  0  0  0  0  0
  149.0857  130.3234  155.0591 H   0  0  0  0  0  0  0  0  0  0  0  0
  147.1949  129.5022  153.5631 H   0  0  0  0  0  0  0  0  0  0  0  0
  146.8488  130.8497  154.6221 H   0  0  0  0  0  0  0  0  0  0  0  0
  146.1323  130.7023  151.6562 H   0  0  0  0  0  0  0  0  0  0  0  0
  145.0202  130.5770  153.0009 H   0  0  0  0  0  0  0  0  0  0  0  0
  144.9956  132.8886  152.0966 H   0  0  0  0  0  0  0  0  0  0  0  0
  145.6012  132.8927  153.7378 H   0  0  0  0  0  0  0  0  0  0  0  0
  147.2350  132.9537  151.1730 H   0  0  0  0  0  0  0  0  0  0  0  0
  147.0693  134.2789  152.2747 H   0  0  0  0  0  0  0  0  0  0  0  0
  149.2352  132.8291  152.2680 H   0  0  0  0  0  0  0  0  0  0  0  0
  148.7023  130.7486  152.3618 H   0  0  0  0  0  0  0  0  0  0  0  0
  150.4672  139.2186  158.4140 H   0  0  0  0  0  0  0  0  0  0  0  0
  1  2  2  0  0  0  0
  2  3  1  0  0  0  0
  2 16  1  0  0  0  0
  3  4  1  0  0  0  0
  3 26  1  0  0  0  0
  4 15  1  0  0  0  0
  4  5  2  0  0  0  0
  5  6  1  0  0  0  0
  5 27  1  0  0  0  0
  6  7  2  0  0  0  0
  6 28  1  0  0  0  0
  7  8  1  0  0  0  0
  7 14  1  0  0  0  0
  8 13  1  0  0  0  0
  8  9  1  0  0  0  0
  9 10  1  0  0  0  0
  9 29  1  0  0  0  0
  9 30  1  0  0  0  0
 10 11  1  0  0  0  0
 10 31  1  0  0  0  0
 10 32  1  0  0  0  0
 11 12  1  0  0  0  0
 11 33  1  0  0  0  0
 11 34  1  0  0  0  0
 12 13  1  0  0  0  0
 12 35  1  0  0  0  0
 12 36  1  0  0  0  0
 13 37  1  0  0  0  0
 13 38  1  0  0  0  0
 14 15  2  0  0  0  0
 14 55  1  0  0  0  0
 15 39  1  0  0  0  0
 16 17  1  0  0  0  0
 17 25  1  0  0  0  0
 17 18  1  0  0  0  0
 17 40  1  0  0  0  0
 18 19  1  0  0  0  0
 18 41  1  0  0  0  0
 18 42  1  0  0  0  0
 19 20  1  0  0  0  0
 19 43  1  0  0  0  0
 19 44  1  0  0  0  0
 20 25  1  0  0  0  0
 20 21  1  0  0  0  0
 20 54  1  0  0  0  0
 21 22  1  0  0  0  0
 21 45  1  0  0  0  0
 21 46  1  0  0  0  0
 22 23  1  0  0  0  0
 22 47  1  0  0  0  0
 22 48  1  0  0  0  0
 23 24  1  0  0  0  0
 23 49  1  0  0  0  0
 23 50  1  0  0  0  0
 24 25  1  0  0  0  0
 24 51  1  0  0  0  0
 24 52  1  0  0  0  0
 25 53  1  0  0  0  0
M  CHG  1  14   1
M  CHG  1  16  -1
M  CHG  1  20   1
M  END
> <s_m_source_file>
AV-unprocessed.smi

> <i_m_source_file_index>
1645

> <i_lp_mmshare_version>
43012

> <i_f3d_flags>
0

> <s_epik_input>
W0NIMl0xW0NIMl1bQ0gyXVtDSDJdW0NASF0oTjEyKVtDQEBIXShbQ0gyXVtDSDJdMilbTkhdQyg9TylbTkhdYzNbY0hdW2NIXWMobltjSF0zKU40W0NIMl1bQ0gyXVtDSDJdW0NIMl1bQ0gyXTQ=

> <s_epik_cmdline>
J2VwaWtfcHl0aG9uJywgJy1waCcsICc3LjAnLCAnLXRuJywgJzgnLCAnLW1hJywgJzIwMCcsICctbWV0YWxfYmluZGluZycsICctaW1hZScsICc8aW5maWxlLm1hZT4nLCAnLW9tYWUnLCAnPG91dGZpbGUubWFlPic=

> <r_lp_tautomer_probability>
0.999994

> <r_epik_Ionization_Penalty>
8.55589

> <r_epik_Ionization_Penalty_Charging>
8.55589

> <r_epik_Ionization_Penalty_Neutral>
3.8092e-06

> <r_epik_State_Penalty>
8.15703

> <r_epik_Charging_Adjusted_Penalty>
16.7129

> <i_epik_Tot_Q>
1

> <i_epik_Tot_abs_Q>
3

> <r_epik_Metal_State_Penalty>
4.13781

> <b_epik_Metal_Only>
1

> <s_lp_Force_Field>
OPLS_2005

> <r_lp_Energy>
57.5276

> <b_lp_Chiralities_Consistent>
1

> <s_lp_Variant>
AV-unprocessed.smi:1645-19

> <Gold.Version>
5.8.1

> <Gold.Id.Protein>
6NUR|6NUR_protein|mol2

> <Gold.PLP.Fitness>
48.3149

> <Gold.PLP.PLP>
-42.9024

> <Gold.PLP.part.hbond>
-2.0000

> <Gold.PLP.part.metal>
0.0000

> <Gold.PLP.part.buried>
-3.4657

> <Gold.PLP.part.nonpolar>
-40.2812

> <Gold.PLP.part.repulsive>
3.0177

> <Gold.PLP.ligand.clash>
0.0000

> <Gold.PLP.ligand.torsion>
0.5234

> <Gold.PLP.Chemscore.Hbond>
1.9588

> <Gold.PLP.Chemscore.CHOScore>
0.0000

> <Gold.PLP.Chemscore.Metal>
0.0000

> <Gold.Chemscore.Hbonds>
donor molecule, donor type, donor heavy atom, donor atom, acceptor molecule, acceptor atom, score
      L1  H     3    26       P1  7948  0.93
      L1  H    20    54       P1 10747  0.87

> <Gold.PLP.Chemscore.Internal.Correction>
0.5830

> <Gold.Rescore>
     Score         DG    S(hbond)    S(metal)    S(lipo)     H(rot)  DE(clash)    DE(int)     intcor
     17.77     -21.29       1.62        0.00     114.63       1.17       1.67       1.84       ----

> <Gold.Chemscore.Fitness>
17.7722

> <Gold.Chemscore.DG>
-21.2860

> <Gold.Chemscore.ZeroCoef>
-5.4800

> <Gold.Chemscore.Hbond>
1.6161

> <Gold.Chemscore.Metal>
0.0000

> <Gold.Chemscore.Lipo>
114.6289

> <Gold.Chemscore.Internal_Hbond>
0.0000

> <Gold.Chemscore.DEClash>
1.6731

> <Gold.Chemscore.DEInternal>
1.8406

> <Gold.Chemscore.Rot>
1.1731

> <Gold.Chemscore.Internal.Correction>
   9.000000E+99

> <Gold.Chemscore.Hbonds>
donor molecule, donor type, donor heavy atom, donor atom, acceptor molecule, acceptor atom, score
      L1  H     3    26       P1  7948  0.55
      L1  H    20    54       P1 10747  0.57

> <Gold.Chemscore.Hbond.Weighted>
-5.3976

> <Gold.Chemscore.Metal.Weighted>
-0.0000

> <Gold.Chemscore.Lipo.Weighted>
-13.4116

> <Gold.Chemscore.Internal_Hbond.Weighted>
0.0000

> <Gold.Chemscore.DEClash.Weighted>
1.6731

> <Gold.Chemscore.DEInternal.Weighted>
1.8406

> <Gold.Chemscore.Rot.Weighted>
3.0032

> <Gold.Chemscore.Internal.Correction.Weighted>
   9.000000E+99

> <Gold.Protein.RotatedTorsions>
[ 6907 6896 6895 6894 ] final   10.12 input  -60.11 | X-H torsion
[ 7974 7965 7964 7962 ] final -108.47 input  175.53 | X-H torsion
[ 8008 7997 7996 7995 ] final  -90.50 input   59.86 | X-H torsion
[ 10167 10162 10161 10158 ] final -136.94 input  -65.29 | X-H torsion
[ 10718 10713 10712 10709 ] final  -98.15 input   66.30 | X-H torsion
[ 10763 10752 10751 10750 ] final   36.29 input  -60.55 | X-H torsion
[ 11005 11000 10999 10996 ] final  -81.34 input  -57.11 | X-H torsion

> <Gold.Protein.ActiveResidues>
 VAL166  LYS551  ARG553  GLY616  TRP617  ASP618  TYR619  PRO620  LYS621  CYS622 
 ASP623  PHE694  ASN695  SER759  ASP760  ASP761  ALA762  ILE779  LEU786  VAL792 
 PHE793  MET794  SER795  GLU796  ALA797  LYS798  CYS799  TRP800  GLU811  SER814 

> <Gold.Protein.RotatedAtoms>
  151.7332  135.0870  160.0303 H   0  0  0  0  0  0  0  0  0  0  0  0  # atno 6907 bound_to 6896
  152.3528  133.6196  159.5965 H   0  0  0  0  0  0  0  0  0  0  0  0  # atno 6908 bound_to 6896
  150.7551  133.9464  159.3513 H   0  0  0  0  0  0  0  0  0  0  0  0  # atno 6909 bound_to 6896
  145.1925  140.9021  143.3416 H   0  0  0  0  0  0  0  0  0  0  0  0  # atno 7974 bound_to 7965
  154.6993  140.0530  157.0442 H   0  0  0  0  0  0  0  0  0  0  0  0  # atno 8008 bound_to 7997
  155.0707  140.3199  155.4612 H   0  0  0  0  0  0  0  0  0  0  0  0  # atno 8009 bound_to 7997
  156.2755  140.2082  156.5834 H   0  0  0  0  0  0  0  0  0  0  0  0  # atno 8010 bound_to 7997
  139.8628  143.7056  152.2648 H   0  0  0  0  0  0  0  0  0  0  0  0  # atno 10167 bound_to 10162
  156.0100  130.5225  150.6480 H   0  0  0  0  0  0  0  0  0  0  0  0  # atno 10718 bound_to 10713
  153.0083  135.6310  154.1963 H   0  0  0  0  0  0  0  0  0  0  0  0  # atno 10763 bound_to 10752
  154.1706  135.2818  155.3084 H   0  0  0  0  0  0  0  0  0  0  0  0  # atno 10764 bound_to 10752
  154.5912  135.5617  153.7340 H   0  0  0  0  0  0  0  0  0  0  0  0  # atno 10765 bound_to 10752
  141.1666  133.7192  156.8407 H   0  0  0  0  0  0  0  0  0  0  0  0  # atno 11005 bound_to 11000
  145.0028  139.3583  143.6159 LP  0  0  0  0  0  0  0  0  0  0  0  0  # atno 17320 bound_to 7965
  146.3433  139.9258  142.8760 LP  0  0  0  0  0  0  0  0  0  0  0  0  # atno 17321 bound_to 7965
  139.7358  144.7571  151.0730 LP  0  0  0  0  0  0  0  0  0  0  0  0  # atno 17342 bound_to 10162
  140.7772  143.5032  150.9744 LP  0  0  0  0  0  0  0  0  0  0  0  0  # atno 17343 bound_to 10162
  157.4247  131.0841  151.1097 LP  0  0  0  0  0  0  0  0  0  0  0  0  # atno 17370 bound_to 10713
  157.1688  130.6258  149.5634 LP  0  0  0  0  0  0  0  0  0  0  0  0  # atno 17371 bound_to 10713
  140.1985  134.8914  157.3142 LP  0  0  0  0  0  0  0  0  0  0  0  0  # atno 17394 bound_to 11000
  140.2213  134.4020  155.7564 LP  0  0  0  0  0  0  0  0  0  0  0  0  # atno 17395 bound_to 11000

$$$$
