AV-unprocessed.smi:3000|AV-procd|sdf|11429|dock6
  -GOLD-   2272016353D 1   1.00000     0.00000
 Structure written by MMmdl.
 44 45  0  0  0  0  0  0  0  0  1 V2000
  150.2791  141.7066  156.1477 C   0  0  0  0  0  0  0  0  0  0  0  0
  150.1188  140.4812  155.3944 N   0  0  0  0  0  0  0  0  0  0  0  0
  148.9494  139.8323  155.0518 C   0  0  0  0  0  0  0  0  0  0  0  0
  149.3297  138.7322  154.3435 C   0  0  0  0  0  0  0  0  0  0  0  0
  148.4385  137.7780  153.7925 N   0  0  0  0  0  0  0  0  0  0  0  0
  147.1784  137.5231  154.1791 C   0  0  0  0  0  0  0  0  0  0  0  0
  146.5938  138.1003  155.0952 O   0  0  0  0  0  0  0  0  0  0  0  0
  146.6342  136.5515  153.4277 N   0  0  0  0  0  0  0  0  0  0  0  0
  145.2840  135.9713  153.5002 C   0  0  1  0  0  0  0  0  0  0  0  0
  145.1126  135.2097  154.8397 C   0  0  0  0  0  0  0  0  0  0  0  0
  144.2299  137.1163  153.4437 C   0  0  0  0  0  0  0  0  0  0  0  0
  144.1971  137.7551  152.1831 O   0  0  0  0  0  0  0  0  0  0  0  0
  145.1322  134.9854  152.2871 C   0  0  0  0  0  0  0  0  0  0  0  0
  143.8194  134.1559  152.3208 C   0  0  0  0  0  0  0  0  0  0  0  0
  143.6760  133.2409  151.0940 C   0  0  0  0  0  0  0  0  0  0  0  0
  144.8798  132.3010  150.9554 C   0  0  0  0  0  0  0  0  0  0  0  0
  146.1864  133.1015  150.8979 C   0  0  0  0  0  0  0  0  0  0  0  0
  146.3356  134.0173  152.1230 C   0  0  0  0  0  0  0  0  0  0  0  0
  150.7518  138.7747  154.2934 C   0  0  0  0  0  0  0  0  0  0  0  0
  151.2180  139.8381  154.9316 N   0  0  0  0  0  0  0  0  0  0  0  0
  149.3276  141.9997  156.5920 H   0  0  0  0  0  0  0  0  0  0  0  0
  150.6224  142.5023  155.4861 H   0  0  0  0  0  0  0  0  0  0  0  0
  151.0106  141.5611  156.9434 H   0  0  0  0  0  0  0  0  0  0  0  0
  147.9745  140.2015  155.3343 H   0  0  0  0  0  0  0  0  0  0  0  0
  148.7970  137.2339  153.0218 H   0  0  0  0  0  0  0  0  0  0  0  0
  147.2241  136.1604  152.7080 H   0  0  0  0  0  0  0  0  0  0  0  0
  144.2034  134.6079  154.8386 H   0  0  0  0  0  0  0  0  0  0  0  0
  145.0395  135.8897  155.6884 H   0  0  0  0  0  0  0  0  0  0  0  0
  145.9500  134.5437  155.0452 H   0  0  0  0  0  0  0  0  0  0  0  0
  143.2271  136.7383  153.6421 H   0  0  0  0  0  0  0  0  0  0  0  0
  144.4200  137.8686  154.2093 H   0  0  0  0  0  0  0  0  0  0  0  0
  144.2941  138.6857  152.3161 H   0  0  0  0  0  0  0  0  0  0  0  0
  145.0865  135.5891  151.3796 H   0  0  0  0  0  0  0  0  0  0  0  0
  143.7777  133.5470  153.2246 H   0  0  0  0  0  0  0  0  0  0  0  0
  142.9494  134.8101  152.3503 H   0  0  0  0  0  0  0  0  0  0  0  0
  142.7578  132.6578  151.1710 H   0  0  0  0  0  0  0  0  0  0  0  0
  143.5803  133.8491  150.1936 H   0  0  0  0  0  0  0  0  0  0  0  0
  144.9076  131.6106  151.7994 H   0  0  0  0  0  0  0  0  0  0  0  0
  144.7758  131.6910  150.0577 H   0  0  0  0  0  0  0  0  0  0  0  0
  147.0356  132.4201  150.8387 H   0  0  0  0  0  0  0  0  0  0  0  0
  146.2087  133.7024  149.9879 H   0  0  0  0  0  0  0  0  0  0  0  0
  147.2661  134.5720  152.0115 H   0  0  0  0  0  0  0  0  0  0  0  0
  146.4498  133.4013  153.0156 H   0  0  0  0  0  0  0  0  0  0  0  0
  151.4523  138.0960  153.8303 H   0  0  0  0  0  0  0  0  0  0  0  0
  1  2  1  0  0  0  0
  1 21  1  0  0  0  0
  1 22  1  0  0  0  0
  1 23  1  0  0  0  0
  2 20  1  0  0  0  0
  2  3  1  0  0  0  0
  3  4  2  0  0  0  0
  3 24  1  0  0  0  0
  4  5  1  0  0  0  0
  4 19  1  0  0  0  0
  5  6  1  0  0  0  0
  5 25  1  0  0  0  0
  6  7  2  0  0  0  0
  6  8  1  0  0  0  0
  8  9  1  0  0  0  0
  8 26  1  0  0  0  0
  9 10  1  0  0  0  0
  9 11  1  0  0  0  0
  9 13  1  0  0  0  0
 10 27  1  0  0  0  0
 10 28  1  0  0  0  0
 10 29  1  0  0  0  0
 11 12  1  0  0  0  0
 11 30  1  0  0  0  0
 11 31  1  0  0  0  0
 12 32  1  0  0  0  0
 13 18  1  0  0  0  0
 13 14  1  0  0  0  0
 13 33  1  0  0  0  0
 14 15  1  0  0  0  0
 14 34  1  0  0  0  0
 14 35  1  0  0  0  0
 15 16  1  0  0  0  0
 15 36  1  0  0  0  0
 15 37  1  0  0  0  0
 16 17  1  0  0  0  0
 16 38  1  0  0  0  0
 16 39  1  0  0  0  0
 17 18  1  0  0  0  0
 17 40  1  0  0  0  0
 17 41  1  0  0  0  0
 18 42  1  0  0  0  0
 18 43  1  0  0  0  0
 19 20  2  0  0  0  0
 19 44  1  0  0  0  0
M  END
> <s_m_source_file>
AV-unprocessed.smi

> <i_m_source_file_index>
3000

> <i_lp_mmshare_version>
43012

> <i_f3d_flags>
0

> <s_epik_input>
W0NIM11uMVtjSF1jKFtjSF1uMSlbTkhdQyg9TylbTkhdW0NAQF0oW0NIM10pKFtDSDJdW09IXSlbQ0hdMltDSDJdW0NIMl1bQ0gyXVtDSDJdW0NIMl0y

> <s_epik_cmdline>
J2VwaWtfcHl0aG9uJywgJy1waCcsICc3LjAnLCAnLXRuJywgJzgnLCAnLW1hJywgJzIwMCcsICctbWV0YWxfYmluZGluZycsICctaW1hZScsICc8aW5maWxlLm1hZT4nLCAnLW9tYWUnLCAnPG91dGZpbGUubWFlPic=

> <r_lp_tautomer_probability>
1

> <r_epik_Ionization_Penalty>
0.000189471

> <r_epik_Ionization_Penalty_Charging>
0

> <r_epik_Ionization_Penalty_Neutral>
0.000189471

> <r_epik_State_Penalty>
-0

> <r_epik_Charging_Adjusted_Penalty>
0

> <i_epik_Tot_Q>
0

> <i_epik_Tot_abs_Q>
0

> <r_epik_Metal_State_Penalty>
-0

> <b_epik_Metal_Only>
0

> <s_lp_Force_Field>
OPLS_2005

> <r_lp_Energy>
20.4121

> <b_lp_Chiralities_Consistent>
1

> <s_lp_Variant>
AV-unprocessed.smi:3000-1

> <Gold.Version>
5.8.1

> <Gold.Id.Protein>
6NUR|6NUR_protein|mol2

> <Gold.PLP.Fitness>
42.9528

> <Gold.PLP.PLP>
-31.9211

> <Gold.PLP.part.hbond>
-4.4227

> <Gold.PLP.part.metal>
0.0000

> <Gold.PLP.part.buried>
-5.6734

> <Gold.PLP.part.nonpolar>
-22.8080

> <Gold.PLP.part.repulsive>
0.1214

> <Gold.PLP.ligand.clash>
0.0000

> <Gold.PLP.ligand.torsion>
0.3753

> <Gold.PLP.Chemscore.Hbond>
3.9193

> <Gold.PLP.Chemscore.CHOScore>
0.0000

> <Gold.PLP.Chemscore.Metal>
0.0000

> <Gold.Chemscore.Hbonds>
donor molecule, donor type, donor heavy atom, donor atom, acceptor molecule, acceptor atom, score
      L1  H     5    25       P1  7948  0.99
      L1  H     8    26       P1  7948  0.93
      L1  H    12    32       P1 10175  1.00
      P1  H  7989  7998       L1    20  0.95

> <Gold.PLP.Chemscore.Internal.Correction>
0.0246

> <Gold.Rescore>
     Score         DG    S(hbond)    S(metal)    S(lipo)     H(rot)  DE(clash)    DE(int)     intcor
     16.32     -17.95       2.94        0.00      66.84       2.02       0.00       1.62       ----

> <Gold.Chemscore.Fitness>
16.3236

> <Gold.Chemscore.DG>
-17.9483

> <Gold.Chemscore.ZeroCoef>
-5.4800

> <Gold.Chemscore.Hbond>
2.9372

> <Gold.Chemscore.Metal>
0.0000

> <Gold.Chemscore.Lipo>
66.8384

> <Gold.Chemscore.Internal_Hbond>
0.0000

> <Gold.Chemscore.DEClash>
0.0029

> <Gold.Chemscore.DEInternal>
1.6218

> <Gold.Chemscore.Rot>
2.0165

> <Gold.Chemscore.Internal.Correction>
   9.000000E+99

> <Gold.Chemscore.Hbonds>
donor molecule, donor type, donor heavy atom, donor atom, acceptor molecule, acceptor atom, score
      L1  H     5    25       P1  7948  0.92
      L1  H     8    26       P1  7948  0.89
      L1  H    12    32       P1 10175  0.98
      P1  H  7989  7998       L1    20  0.06

> <Gold.Chemscore.Hbond.Weighted>
-9.8104

> <Gold.Chemscore.Metal.Weighted>
-0.0000

> <Gold.Chemscore.Lipo.Weighted>
-7.8201

> <Gold.Chemscore.Internal_Hbond.Weighted>
0.0000

> <Gold.Chemscore.DEClash.Weighted>
0.0029

> <Gold.Chemscore.DEInternal.Weighted>
1.6218

> <Gold.Chemscore.Rot.Weighted>
5.1622

> <Gold.Chemscore.Internal.Correction.Weighted>
   9.000000E+99

> <Gold.Protein.RotatedTorsions>
[ 6907 6896 6895 6894 ] final -116.26 input  -60.11 | X-H torsion
[ 7974 7965 7964 7962 ] final   -1.10 input  175.53 | X-H torsion
[ 8008 7997 7996 7995 ] final   36.18 input   59.86 | X-H torsion
[ 10167 10162 10161 10158 ] final -108.90 input  -65.29 | X-H torsion
[ 10718 10713 10712 10709 ] final   27.88 input   66.30 | X-H torsion
[ 10763 10752 10751 10750 ] final  165.82 input  -60.55 | X-H torsion
[ 11005 11000 10999 10996 ] final -108.78 input  -57.11 | X-H torsion

> <Gold.Protein.ActiveResidues>
 VAL166  LYS551  ARG553  GLY616  TRP617  ASP618  TYR619  PRO620  LYS621  CYS622 
 ASP623  PHE694  ASN695  SER759  ASP760  ASP761  ALA762  ILE779  LEU786  VAL792 
 PHE793  MET794  SER795  GLU796  ALA797  LYS798  CYS799  TRP800  GLU811  SER814 

> <Gold.Protein.RotatedAtoms>
  150.8042  133.8541  159.3213 H   0  0  0  0  0  0  0  0  0  0  0  0  # atno 6907 bound_to 6896
  151.6345  135.1017  160.0138 H   0  0  0  0  0  0  0  0  0  0  0  0  # atno 6908 bound_to 6896
  152.4132  133.6956  159.6451 H   0  0  0  0  0  0  0  0  0  0  0  0  # atno 6909 bound_to 6896
  146.2420  140.1370  142.8336 H   0  0  0  0  0  0  0  0  0  0  0  0  # atno 7974 bound_to 7965
  155.1831  140.3301  155.4371 H   0  0  0  0  0  0  0  0  0  0  0  0  # atno 8008 bound_to 7997
  156.2469  140.1923  156.6878 H   0  0  0  0  0  0  0  0  0  0  0  0  # atno 8009 bound_to 7997
  154.6257  140.0589  156.9656 H   0  0  0  0  0  0  0  0  0  0  0  0  # atno 8010 bound_to 7997
  140.1611  143.4119  152.1425 H   0  0  0  0  0  0  0  0  0  0  0  0  # atno 10167 bound_to 10162
  157.2261  130.7002  149.6292 H   0  0  0  0  0  0  0  0  0  0  0  0  # atno 10718 bound_to 10713
  154.3297  135.2755  155.2478 H   0  0  0  0  0  0  0  0  0  0  0  0  # atno 10763 bound_to 10752
  154.4795  135.5862  153.6382 H   0  0  0  0  0  0  0  0  0  0  0  0  # atno 10764 bound_to 10752
  152.9868  135.6108  154.3489 H   0  0  0  0  0  0  0  0  0  0  0  0  # atno 10765 bound_to 10752
  141.0883  133.9100  157.2134 H   0  0  0  0  0  0  0  0  0  0  0  0  # atno 11005 bound_to 11000
  145.0279  140.8847  143.5127 LP  0  0  0  0  0  0  0  0  0  0  0  0  # atno 17320 bound_to 7965
  145.1429  139.2561  143.5481 LP  0  0  0  0  0  0  0  0  0  0  0  0  # atno 17321 bound_to 7965
  139.5381  144.7229  151.4826 LP  0  0  0  0  0  0  0  0  0  0  0  0  # atno 17342 bound_to 10162
  140.6642  143.8433  150.6923 LP  0  0  0  0  0  0  0  0  0  0  0  0  # atno 17343 bound_to 10162
  155.9678  130.4504  150.5695 LP  0  0  0  0  0  0  0  0  0  0  0  0  # atno 17370 bound_to 10713
  157.3526  131.0736  151.1701 LP  0  0  0  0  0  0  0  0  0  0  0  0  # atno 17371 bound_to 10713
  139.9705  135.0130  156.9499 LP  0  0  0  0  0  0  0  0  0  0  0  0  # atno 17394 bound_to 11000
  140.5311  134.0812  155.7316 LP  0  0  0  0  0  0  0  0  0  0  0  0  # atno 17395 bound_to 11000

$$$$
