AV-unprocessed.smi:169|AV-procd|sdf|1400|dock3
  -GOLD-   2262019143D 1   1.00000     0.00000
 Structure written by MMmdl.
 56 60  0  0  0  0  0  0  0  0  2 V2000
  146.1910  134.8498  151.4507 C   0  0  0  0  0  0  0  0  0  0  0  0
  145.9517  135.5487  152.8010 C   0  0  0  0  0  0  0  0  0  0  0  0
  147.1302  135.5368  153.7059 N   0  3  2  0  0  0  0  0  0  0  0  0
  147.6022  134.1527  154.0638 C   0  0  0  0  0  0  0  0  0  0  0  0
  149.1489  134.0222  154.2788 C   0  0  0  0  0  0  0  0  0  0  0  0
  149.8953  134.9854  155.2610 C   0  0  2  0  0  0  0  0  0  0  0  0
  149.6007  134.8313  156.7890 C   0  0  0  0  0  0  0  0  0  0  0  0
  148.6342  136.0119  157.1363 C   0  0  0  0  0  0  0  0  0  0  0  0
  148.2746  136.5105  155.7296 C   0  0  3  0  0  0  0  0  0  0  0  0
  146.9974  136.5025  154.8572 C   0  0  0  0  0  0  0  0  0  0  0  0
  149.4981  136.3534  154.9573 N   0  0  0  0  0  0  0  0  0  0  0  0
  150.3863  137.3825  155.0493 C   0  0  0  0  0  0  0  0  0  0  0  0
  151.6843  137.1959  154.6897 N   0  0  0  0  0  0  0  0  0  0  0  0
  152.5689  138.1913  154.7897 C   0  0  0  0  0  0  0  0  0  0  0  0
  152.3721  139.4404  155.2121 N   0  0  0  0  0  0  0  0  0  0  0  0
  151.0703  139.6464  155.5586 C   0  0  0  0  0  0  0  0  0  0  0  0
  150.0230  138.6818  155.5105 C   0  0  0  0  0  0  0  0  0  0  0  0
  148.8349  139.2610  155.9398 N   0  0  0  0  0  0  0  0  0  0  0  0
  149.1619  140.4901  156.2315 C   0  0  0  0  0  0  0  0  0  0  0  0
  150.4828  140.8132  156.0191 N   0  0  0  0  0  0  0  0  0  0  0  0
  151.1163  142.1019  156.2632 C   0  0  0  0  0  0  0  0  0  0  0  0
  151.2119  142.4968  157.7535 C   0  0  0  0  0  0  0  0  0  0  0  0
  151.8628  143.8814  157.9055 C   0  0  0  0  0  0  0  0  0  0  0  0
  151.1274  144.8689  157.2122 O   0  0  0  0  0  0  0  0  0  0  0  0
  149.9351  142.2835  158.5808 C   0  0  0  0  0  0  0  0  0  0  0  0
  150.4653  141.1001  159.2133 O   0  0  0  0  0  0  0  0  0  0  0  0
  151.7692  141.4026  158.6744 C   0  0  0  0  0  0  0  0  0  0  0  0
  145.2973  134.9108  150.8292 H   0  0  0  0  0  0  0  0  0  0  0  0
  146.4252  133.7928  151.5723 H   0  0  0  0  0  0  0  0  0  0  0  0
  147.0043  135.3132  150.8923 H   0  0  0  0  0  0  0  0  0  0  0  0
  145.6590  136.5844  152.6248 H   0  0  0  0  0  0  0  0  0  0  0  0
  145.1072  135.0831  153.3108 H   0  0  0  0  0  0  0  0  0  0  0  0
  147.0541  133.7824  154.9317 H   0  0  0  0  0  0  0  0  0  0  0  0
  147.3406  133.4726  153.2518 H   0  0  0  0  0  0  0  0  0  0  0  0
  149.3725  132.9946  154.5668 H   0  0  0  0  0  0  0  0  0  0  0  0
  149.6146  134.1471  153.3004 H   0  0  0  0  0  0  0  0  0  0  0  0
  150.9599  134.8184  155.0973 H   0  0  0  0  0  0  0  0  0  0  0  0
  149.1535  133.8610  157.0077 H   0  0  0  0  0  0  0  0  0  0  0  0
  150.5166  134.9120  157.3756 H   0  0  0  0  0  0  0  0  0  0  0  0
  147.7878  135.7196  157.7657 H   0  0  0  0  0  0  0  0  0  0  0  0
  149.1789  136.7905  157.6720 H   0  0  0  0  0  0  0  0  0  0  0  0
  147.8121  135.5448  155.8489 H   0  0  0  0  0  0  0  0  0  0  0  0
  146.8572  137.4966  154.4332 H   0  0  0  0  0  0  0  0  0  0  0  0
  146.0979  136.3100  155.4493 H   0  0  0  0  0  0  0  0  0  0  0  0
  153.5786  137.9535  154.4882 H   0  0  0  0  0  0  0  0  0  0  0  0
  148.4411  141.1972  156.6150 H   0  0  0  0  0  0  0  0  0  0  0  0
  152.1127  142.0653  155.8203 H   0  0  0  0  0  0  0  0  0  0  0  0
  150.5782  142.8616  155.6954 H   0  0  0  0  0  0  0  0  0  0  0  0
  151.9602  144.1707  158.9515 H   0  0  0  0  0  0  0  0  0  0  0  0
  152.8746  143.8783  157.4992 H   0  0  0  0  0  0  0  0  0  0  0  0
  150.3244  144.4820  156.8979 H   0  0  0  0  0  0  0  0  0  0  0  0
  149.7382  143.0746  159.3061 H   0  0  0  0  0  0  0  0  0  0  0  0
  149.0425  142.0703  157.9946 H   0  0  0  0  0  0  0  0  0  0  0  0
  152.2088  140.5573  158.1435 H   0  0  0  0  0  0  0  0  0  0  0  0
  152.4489  141.7725  159.4437 H   0  0  0  0  0  0  0  0  0  0  0  0
  147.8789  135.9147  153.1428 H   0  0  0  0  0  0  0  0  0  0  0  0
  1  2  1  0  0  0  0
  1 28  1  0  0  0  0
  1 29  1  0  0  0  0
  1 30  1  0  0  0  0
  2  3  1  0  0  0  0
  2 31  1  0  0  0  0
  2 32  1  0  0  0  0
  3 10  1  0  0  0  0
  3  4  1  0  0  0  0
  3 56  1  0  0  0  0
  4  5  1  0  0  0  0
  4 33  1  0  0  0  0
  4 34  1  0  0  0  0
  5  6  1  0  0  0  0
  5 35  1  0  0  0  0
  5 36  1  0  0  0  0
  6 11  1  0  0  0  0
  6  7  1  0  0  0  0
  6 37  1  0  0  0  0
  7  8  1  0  0  0  0
  7 38  1  0  0  0  0
  7 39  1  0  0  0  0
  8  9  1  0  0  0  0
  8 40  1  0  0  0  0
  8 41  1  0  0  0  0
  9 10  1  0  0  0  0
  9 11  1  0  0  0  0
  9 42  1  0  0  0  0
 10 43  1  0  0  0  0
 10 44  1  0  0  0  0
 11 12  1  0  0  0  0
 12 17  1  0  0  0  0
 12 13  2  0  0  0  0
 13 14  1  0  0  0  0
 14 15  2  0  0  0  0
 14 45  1  0  0  0  0
 15 16  1  0  0  0  0
 16 20  1  0  0  0  0
 16 17  2  0  0  0  0
 17 18  1  0  0  0  0
 18 19  2  0  0  0  0
 19 20  1  0  0  0  0
 19 46  1  0  0  0  0
 20 21  1  0  0  0  0
 21 22  1  0  0  0  0
 21 47  1  0  0  0  0
 21 48  1  0  0  0  0
 22 27  1  0  0  0  0
 22 23  1  0  0  0  0
 22 25  1  0  0  0  0
 23 24  1  0  0  0  0
 23 49  1  0  0  0  0
 23 50  1  0  0  0  0
 24 51  1  0  0  0  0
 25 26  1  0  0  0  0
 25 52  1  0  0  0  0
 25 53  1  0  0  0  0
 26 27  1  0  0  0  0
 27 54  1  0  0  0  0
 27 55  1  0  0  0  0
M  CHG  1   3   1
M  END
> <s_m_source_file>
AV-unprocessed.smi

> <i_m_source_file_index>
169

> <i_lp_mmshare_version>
43012

> <i_f3d_flags>
0

> <s_epik_input>
W0NASF0xMltDSDJdW0NIMl1OKFtDSDJdW0NIM10pW0NIMl1bQ0BIXShbQ0gyXVtDSDJdMSlOMmMobltjSF1uMyljKGMzNCluW2NIXW40W0NIMl1DNShbQ0gyXVtPSF0pW0NIMl1PW0NIMl01

> <s_epik_cmdline>
J2VwaWtfcHl0aG9uJywgJy1waCcsICc3LjAnLCAnLXRuJywgJzgnLCAnLW1hJywgJzIwMCcsICctbWV0YWxfYmluZGluZycsICctaW1hZScsICc8aW5maWxlLm1hZT4nLCAnLW9tYWUnLCAnPG91dGZpbGUubWFlPic=

> <r_lp_tautomer_probability>
1

> <r_epik_Ionization_Penalty>
0.00274162

> <r_epik_Ionization_Penalty_Charging>
0.00243722

> <r_epik_Ionization_Penalty_Neutral>
0.000304399

> <r_epik_State_Penalty>
-0

> <r_epik_Charging_Adjusted_Penalty>
0.00243722

> <i_epik_Tot_Q>
1

> <i_epik_Tot_abs_Q>
1

> <r_epik_Metal_State_Penalty>
-0

> <b_epik_Metal_Only>
0

> <s_lp_Force_Field>
OPLS_2005

> <r_lp_Energy>
131.332

> <b_lp_Chiralities_Consistent>
1

> <s_lp_Variant>
AV-unprocessed.smi:169-3

> <Gold.Version>
5.8.1

> <Gold.Id.Protein>
6NUR|6NUR_protein|mol2

> <Gold.PLP.Fitness>
47.2275

> <Gold.PLP.PLP>
-36.5090

> <Gold.PLP.part.hbond>
-4.7071

> <Gold.PLP.part.metal>
0.0000

> <Gold.PLP.part.buried>
-3.6094

> <Gold.PLP.part.nonpolar>
-28.2611

> <Gold.PLP.part.repulsive>
0.3570

> <Gold.PLP.ligand.clash>
0.0000

> <Gold.PLP.ligand.torsion>
0.8644

> <Gold.PLP.Chemscore.Hbond>
4.0061

> <Gold.PLP.Chemscore.CHOScore>
0.0000

> <Gold.PLP.Chemscore.Metal>
0.0000

> <Gold.Chemscore.Hbonds>
donor molecule, donor type, donor heavy atom, donor atom, acceptor molecule, acceptor atom, score
      L1  H     3    56       P1  7948  2.00
      L1  H    24    51       P1  8028  0.83
      P1  H  7997  8010       L1    15  0.28
      P1  H 10752 10765       L1    13  0.80

> <Gold.PLP.Chemscore.Internal.Correction>
0.4290

> <Gold.Rescore>
     Score         DG    S(hbond)    S(metal)    S(lipo)     H(rot)  DE(clash)    DE(int)     intcor
     12.90     -17.48       2.83        0.00      79.05       2.62       1.27       3.31       ----

> <Gold.Chemscore.Fitness>
12.8999

> <Gold.Chemscore.DG>
-17.4848

> <Gold.Chemscore.ZeroCoef>
-5.4800

> <Gold.Chemscore.Hbond>
2.8342

> <Gold.Chemscore.Metal>
0.0000

> <Gold.Chemscore.Lipo>
79.0483

> <Gold.Chemscore.Internal_Hbond>
0.0000

> <Gold.Chemscore.DEClash>
1.2702

> <Gold.Chemscore.DEInternal>
3.3147

> <Gold.Chemscore.Rot>
2.6212

> <Gold.Chemscore.Internal.Correction>
   9.000000E+99

> <Gold.Chemscore.Hbonds>
donor molecule, donor type, donor heavy atom, donor atom, acceptor molecule, acceptor atom, score
      L1  H     3    56       P1  7948  1.00
      L1  H    24    51       P1  8028  0.71
      P1  H  7997  8010       L1    15  0.14
      P1  H 10752 10765       L1    13  0.15

> <Gold.Chemscore.Hbond.Weighted>
-9.4663

> <Gold.Chemscore.Metal.Weighted>
-0.0000

> <Gold.Chemscore.Lipo.Weighted>
-9.2487

> <Gold.Chemscore.Internal_Hbond.Weighted>
0.0000

> <Gold.Chemscore.DEClash.Weighted>
1.2702

> <Gold.Chemscore.DEInternal.Weighted>
3.3147

> <Gold.Chemscore.Rot.Weighted>
6.7102

> <Gold.Chemscore.Internal.Correction.Weighted>
   9.000000E+99

> <Gold.Protein.RotatedTorsions>
[ 6907 6896 6895 6894 ] final   41.65 input  -60.11 | X-H torsion
[ 7974 7965 7964 7962 ] final -135.98 input  175.53 | X-H torsion
[ 8008 7997 7996 7995 ] final  105.73 input   59.86 | X-H torsion
[ 10167 10162 10161 10158 ] final -169.71 input  -65.29 | X-H torsion
[ 10718 10713 10712 10709 ] final -124.82 input   66.30 | X-H torsion
[ 10763 10752 10751 10750 ] final  153.29 input  -60.55 | X-H torsion
[ 11005 11000 10999 10996 ] final  112.03 input  -57.11 | X-H torsion

> <Gold.Protein.ActiveResidues>
 VAL166  LYS551  ARG553  GLY616  TRP617  ASP618  TYR619  PRO620  LYS621  CYS622 
 ASP623  PHE694  ASN695  SER759  ASP760  ASP761  ALA762  ILE779  LEU786  VAL792 
 PHE793  MET794  SER795  GLU796  ALA797  LYS798  CYS799  TRP800  GLU811  SER814 

> <Gold.Protein.RotatedAtoms>
  152.1980  134.8613  160.0510 H   0  0  0  0  0  0  0  0  0  0  0  0  # atno 6907 bound_to 6896
  151.9478  133.3652  159.3997 H   0  0  0  0  0  0  0  0  0  0  0  0  # atno 6908 bound_to 6896
  150.6948  134.4296  159.5286 H   0  0  0  0  0  0  0  0  0  0  0  0  # atno 6909 bound_to 6896
  144.8967  140.6716  143.5111 H   0  0  0  0  0  0  0  0  0  0  0  0  # atno 7974 bound_to 7965
  156.1684  140.3125  155.8929 H   0  0  0  0  0  0  0  0  0  0  0  0  # atno 8008 bound_to 7997
  155.3638  140.0478  157.3063 H   0  0  0  0  0  0  0  0  0  0  0  0  # atno 8009 bound_to 7997
  154.5216  140.2200  155.8977 H   0  0  0  0  0  0  0  0  0  0  0  0  # atno 8010 bound_to 7997
  139.5906  144.1221  152.1630 H   0  0  0  0  0  0  0  0  0  0  0  0  # atno 10167 bound_to 10162
  156.1621  130.6609  151.0064 H   0  0  0  0  0  0  0  0  0  0  0  0  # atno 10718 bound_to 10713
  154.1338  135.2825  155.3178 H   0  0  0  0  0  0  0  0  0  0  0  0  # atno 10763 bound_to 10752
  154.6337  135.5426  153.7712 H   0  0  0  0  0  0  0  0  0  0  0  0  # atno 10764 bound_to 10752
  153.0273  135.6469  154.1487 H   0  0  0  0  0  0  0  0  0  0  0  0  # atno 10765 bound_to 10752
  139.8917  134.9521  156.6523 H   0  0  0  0  0  0  0  0  0  0  0  0  # atno 11005 bound_to 11000
  145.3688  139.1663  143.4343 LP  0  0  0  0  0  0  0  0  0  0  0  0  # atno 17320 bound_to 7965
  146.3085  140.3758  142.8679 LP  0  0  0  0  0  0  0  0  0  0  0  0  # atno 17321 bound_to 7965
  140.0795  144.5712  150.7133 LP  0  0  0  0  0  0  0  0  0  0  0  0  # atno 17342 bound_to 10162
  140.7170  143.2553  151.4403 LP  0  0  0  0  0  0  0  0  0  0  0  0  # atno 17343 bound_to 10162
  157.6740  131.0854  150.7540 LP  0  0  0  0  0  0  0  0  0  0  0  0  # atno 17370 bound_to 10713
  156.7603  130.4796  149.5438 LP  0  0  0  0  0  0  0  0  0  0  0  0  # atno 17371 bound_to 10713
  140.7511  133.8897  155.8347 LP  0  0  0  0  0  0  0  0  0  0  0  0  # atno 17394 bound_to 11000
  141.0000  134.1163  157.4326 LP  0  0  0  0  0  0  0  0  0  0  0  0  # atno 17395 bound_to 11000

$$$$
