AV-unprocessed.smi:890|AV-procd|sdf|4061|dock4
  -GOLD-   22720 1553D 1   1.00000     0.00000
 Structure written by MMmdl.
 53 56  0  0  0  0  0  0  0  0  3 V2000
  148.2966  137.4046  156.1993 O   0  0  0  0  0  0  0  0  0  0  0  0
  148.3082  136.9644  155.0511 C   0  0  0  0  0  0  0  0  0  0  0  0
  147.6779  135.8553  154.6268 N   0  0  0  0  0  0  0  0  0  0  0  0
  146.8772  134.9176  155.3462 C   0  0  0  0  0  0  0  0  0  0  0  0
  147.0437  134.6263  156.7262 C   0  0  0  0  0  0  0  0  0  0  0  0
  146.2052  133.6804  157.3485 C   0  0  0  0  0  0  0  0  0  0  0  0
  145.2128  133.0366  156.5881 C   0  0  0  0  0  0  0  0  0  0  0  0
  145.0785  133.3329  155.2792 N   0  3  0  0  0  0  0  0  0  0  0  0
  145.8572  134.2348  154.6330 C   0  0  0  0  0  0  0  0  0  0  0  0
  145.6343  134.4629  153.2636 N   0  0  0  0  0  0  0  0  0  0  0  0
  144.2773  134.8331  152.8969 C   0  0  0  0  0  0  0  0  0  0  0  0
  144.2016  134.6474  151.3791 C   0  0  0  0  0  0  0  0  0  0  0  0
  145.3376  133.6727  151.0435 C   0  0  0  0  0  0  0  0  0  0  0  0
  146.0008  133.3625  152.3882 C   0  0  0  0  0  0  0  0  0  0  0  0
  148.9718  137.5525  154.0454 N   0  0  0  0  0  0  0  0  0  0  0  0
  149.7668  138.7722  154.1590 C   0  0  2  0  0  0  0  0  0  0  0  0
  151.0174  138.4986  155.0120 C   0  0  0  0  0  0  0  0  0  0  0  0
  151.8300  139.7865  155.2461 C   0  0  0  0  0  0  0  0  0  0  0  0
  151.0053  140.8657  155.8472 N   0  3  2  0  0  0  0  0  0  0  0  0
  150.7060  140.6455  157.2820 C   0  0  0  0  0  0  0  0  0  0  0  0
  150.7007  141.9139  158.1029 C   0  0  0  0  0  0  0  0  0  0  0  0
  151.8674  140.9562  158.1968 C   0  0  0  0  0  0  0  0  0  0  0  0
  149.7990  141.1626  155.0330 C   0  0  0  0  0  0  0  0  0  0  0  0
  148.9388  139.9079  154.7914 C   0  0  0  0  0  0  0  0  0  0  0  0
  147.7862  135.6476  153.6449 H   0  0  0  0  0  0  0  0  0  0  0  0
  147.7966  135.1005  157.3339 H   0  0  0  0  0  0  0  0  0  0  0  0
  146.3245  133.4516  158.3976 H   0  0  0  0  0  0  0  0  0  0  0  0
  144.5291  132.2991  156.9827 H   0  0  0  0  0  0  0  0  0  0  0  0
  143.5537  134.1821  153.3892 H   0  0  0  0  0  0  0  0  0  0  0  0
  144.0587  135.8613  153.1873 H   0  0  0  0  0  0  0  0  0  0  0  0
  143.2262  134.2711  151.0692 H   0  0  0  0  0  0  0  0  0  0  0  0
  144.3669  135.5985  150.8715 H   0  0  0  0  0  0  0  0  0  0  0  0
  144.9767  132.7666  150.5564 H   0  0  0  0  0  0  0  0  0  0  0  0
  146.0496  134.1505  150.3694 H   0  0  0  0  0  0  0  0  0  0  0  0
  147.0838  133.2790  152.2925 H   0  0  0  0  0  0  0  0  0  0  0  0
  145.6236  132.4185  152.7838 H   0  0  0  0  0  0  0  0  0  0  0  0
  148.9245  137.1255  153.1317 H   0  0  0  0  0  0  0  0  0  0  0  0
  150.0935  139.0803  153.1638 H   0  0  0  0  0  0  0  0  0  0  0  0
  150.7284  138.0664  155.9710 H   0  0  0  0  0  0  0  0  0  0  0  0
  151.6466  137.7551  154.5213 H   0  0  0  0  0  0  0  0  0  0  0  0
  152.6942  139.5817  155.8791 H   0  0  0  0  0  0  0  0  0  0  0  0
  152.2255  140.1453  154.2950 H   0  0  0  0  0  0  0  0  0  0  0  0
  150.0205  139.8356  157.5234 H   0  0  0  0  0  0  0  0  0  0  0  0
  150.8687  142.8608  157.5930 H   0  0  0  0  0  0  0  0  0  0  0  0
  150.0229  141.9577  158.9531 H   0  0  0  0  0  0  0  0  0  0  0  0
  151.9589  140.3709  159.1096 H   0  0  0  0  0  0  0  0  0  0  0  0
  152.8091  141.2671  157.7479 H   0  0  0  0  0  0  0  0  0  0  0  0
  149.2078  141.9427  155.5140 H   0  0  0  0  0  0  0  0  0  0  0  0
  150.1231  141.5707  154.0747 H   0  0  0  0  0  0  0  0  0  0  0  0
  148.0989  140.1652  154.1450 H   0  0  0  0  0  0  0  0  0  0  0  0
  148.5043  139.5720  155.7337 H   0  0  0  0  0  0  0  0  0  0  0  0
  151.5733  141.7006  155.8197 H   0  0  0  0  0  0  0  0  0  0  0  0
  144.3526  132.8511  154.7481 H   0  0  0  0  0  0  0  0  0  0  0  0
  1  2  2  0  0  0  0
  2  3  1  0  0  0  0
  2 15  1  0  0  0  0
  3  4  1  0  0  0  0
  3 25  1  0  0  0  0
  4  9  1  0  0  0  0
  4  5  2  0  0  0  0
  5  6  1  0  0  0  0
  5 26  1  0  0  0  0
  6  7  2  0  0  0  0
  6 27  1  0  0  0  0
  7  8  1  0  0  0  0
  7 28  1  0  0  0  0
  8  9  2  0  0  0  0
  8 53  1  0  0  0  0
  9 10  1  0  0  0  0
 10 14  1  0  0  0  0
 10 11  1  0  0  0  0
 11 12  1  0  0  0  0
 11 29  1  0  0  0  0
 11 30  1  0  0  0  0
 12 13  1  0  0  0  0
 12 31  1  0  0  0  0
 12 32  1  0  0  0  0
 13 14  1  0  0  0  0
 13 33  1  0  0  0  0
 13 34  1  0  0  0  0
 14 35  1  0  0  0  0
 14 36  1  0  0  0  0
 15 16  1  0  0  0  0
 15 37  1  0  0  0  0
 16 24  1  0  0  0  0
 16 17  1  0  0  0  0
 16 38  1  0  0  0  0
 17 18  1  0  0  0  0
 17 39  1  0  0  0  0
 17 40  1  0  0  0  0
 18 19  1  0  0  0  0
 18 41  1  0  0  0  0
 18 42  1  0  0  0  0
 19 20  1  0  0  0  0
 19 23  1  0  0  0  0
 19 52  1  0  0  0  0
 20 22  1  0  0  0  0
 20 21  1  0  0  0  0
 20 43  1  0  0  0  0
 21 22  1  0  0  0  0
 21 44  1  0  0  0  0
 21 45  1  0  0  0  0
 22 46  1  0  0  0  0
 22 47  1  0  0  0  0
 23 24  1  0  0  0  0
 23 48  1  0  0  0  0
 23 49  1  0  0  0  0
 24 50  1  0  0  0  0
 24 51  1  0  0  0  0
M  CHG  1   8   1
M  CHG  1  19   1
M  END
> <s_m_source_file>
AV-unprocessed.smi

> <i_m_source_file_index>
890

> <i_lp_mmshare_version>
43012

> <i_f3d_flags>
0

> <s_epik_input>
W0NIMl0xW0NIMl1bQ0hdMU4oW0NIMl1bQ0gyXTIpW0NIMl1bQ0gyXVtDSF0yW05IXUMoPU8pW05IXWMzW2NIXVtjSF1bY0hdbmMzTjRbQ0gyXVtDSDJdW0NIMl1bQ0gyXTQ=

> <s_epik_cmdline>
J2VwaWtfcHl0aG9uJywgJy1waCcsICc3LjAnLCAnLXRuJywgJzgnLCAnLW1hJywgJzIwMCcsICctbWV0YWxfYmluZGluZycsICctaW1hZScsICc8aW5maWxlLm1hZT4nLCAnLW9tYWUnLCAnPG91dGZpbGUubWFlPic=

> <r_lp_tautomer_probability>
0.999994

> <r_epik_Ionization_Penalty>
1.36901

> <r_epik_Ionization_Penalty_Charging>
1.36899

> <r_epik_Ionization_Penalty_Neutral>
1.88098e-05

> <r_epik_State_Penalty>
1.38441

> <r_epik_Charging_Adjusted_Penalty>
2.7534

> <i_epik_Tot_Q>
2

> <i_epik_Tot_abs_Q>
2

> <r_epik_Metal_State_Penalty>
1.45718

> <b_epik_Metal_Only>
0

> <s_lp_Force_Field>
OPLS_2005

> <r_lp_Energy>
67.0325

> <b_lp_Chiralities_Consistent>
1

> <s_lp_Variant>
AV-unprocessed.smi:890-5

> <Gold.Version>
5.8.1

> <Gold.Id.Protein>
6NUR|6NUR_protein|mol2

> <Gold.PLP.Fitness>
38.1466

> <Gold.PLP.PLP>
-28.5426

> <Gold.PLP.part.hbond>
-2.9345

> <Gold.PLP.part.metal>
0.0000

> <Gold.PLP.part.buried>
-3.0858

> <Gold.PLP.part.nonpolar>
-23.2948

> <Gold.PLP.part.repulsive>
0.2587

> <Gold.PLP.ligand.clash>
0.0000

> <Gold.PLP.ligand.torsion>
0.9878

> <Gold.PLP.Chemscore.Hbond>
3.4299

> <Gold.PLP.Chemscore.CHOScore>
0.0000

> <Gold.PLP.Chemscore.Metal>
0.0000

> <Gold.Chemscore.Hbonds>
donor molecule, donor type, donor heavy atom, donor atom, acceptor molecule, acceptor atom, score
      L1  H     3    25       P1  7948  0.48
      L1  H     8    53       P1 10957  1.89
      L1  H    15    37       P1  7948  1.00

> <Gold.PLP.Chemscore.Internal.Correction>
1.2900

> <Gold.Rescore>
     Score         DG    S(hbond)    S(metal)    S(lipo)     H(rot)  DE(clash)    DE(int)     intcor
     17.65     -19.85       2.96        0.00      67.91       1.35       0.05       2.14       ----

> <Gold.Chemscore.Fitness>
17.6548

> <Gold.Chemscore.DG>
-19.8475

> <Gold.Chemscore.ZeroCoef>
-5.4800

> <Gold.Chemscore.Hbond>
2.9566

> <Gold.Chemscore.Metal>
0.0000

> <Gold.Chemscore.Lipo>
67.9128

> <Gold.Chemscore.Internal_Hbond>
0.0000

> <Gold.Chemscore.DEClash>
0.0538

> <Gold.Chemscore.DEInternal>
2.1389

> <Gold.Chemscore.Rot>
1.3489

> <Gold.Chemscore.Internal.Correction>
   9.000000E+99

> <Gold.Chemscore.Hbonds>
donor molecule, donor type, donor heavy atom, donor atom, acceptor molecule, acceptor atom, score
      L1  H     3    25       P1  7948  0.47
      L1  H     8    53       P1 10957  0.88
      L1  H    15    37       P1  7948  0.93

> <Gold.Chemscore.Hbond.Weighted>
-9.8749

> <Gold.Chemscore.Metal.Weighted>
-0.0000

> <Gold.Chemscore.Lipo.Weighted>
-7.9458

> <Gold.Chemscore.Internal_Hbond.Weighted>
0.0000

> <Gold.Chemscore.DEClash.Weighted>
0.0538

> <Gold.Chemscore.DEInternal.Weighted>
2.1389

> <Gold.Chemscore.Rot.Weighted>
3.4532

> <Gold.Chemscore.Internal.Correction.Weighted>
   9.000000E+99

> <Gold.Protein.RotatedTorsions>
[ 6907 6896 6895 6894 ] final  158.57 input  -60.11 | X-H torsion
[ 7974 7965 7964 7962 ] final   12.60 input  175.53 | X-H torsion
[ 8008 7997 7996 7995 ] final  -39.36 input   59.86 | X-H torsion
[ 10167 10162 10161 10158 ] final -129.53 input  -65.29 | X-H torsion
[ 10718 10713 10712 10709 ] final  101.45 input   66.30 | X-H torsion
[ 10763 10752 10751 10750 ] final  -12.78 input  -60.55 | X-H torsion
[ 11005 11000 10999 10996 ] final  163.50 input  -57.11 | X-H torsion

> <Gold.Protein.ActiveResidues>
 VAL166  LYS551  ARG553  GLY616  TRP617  ASP618  TYR619  PRO620  LYS621  CYS622 
 ASP623  PHE694  ASN695  SER759  ASP760  ASP761  ALA762  ILE779  LEU786  VAL792 
 PHE793  MET794  SER795  GLU796  ALA797  LYS798  CYS799  TRP800  GLU811  SER814 

> <Gold.Protein.RotatedAtoms>
  151.9984  133.3816  159.4171 H   0  0  0  0  0  0  0  0  0  0  0  0  # atno 6907 bound_to 6896
  150.6913  134.3861  159.5065 H   0  0  0  0  0  0  0  0  0  0  0  0  # atno 6908 bound_to 6896
  152.1604  134.8916  160.0592 H   0  0  0  0  0  0  0  0  0  0  0  0  # atno 6909 bound_to 6896
  146.2348  139.9313  142.8496 H   0  0  0  0  0  0  0  0  0  0  0  0  # atno 7974 bound_to 7965
  154.4024  140.1553  156.2850 H   0  0  0  0  0  0  0  0  0  0  0  0  # atno 8008 bound_to 7997
  155.8836  140.3442  155.5883 H   0  0  0  0  0  0  0  0  0  0  0  0  # atno 8009 bound_to 7997
  155.7639  140.0821  157.2132 H   0  0  0  0  0  0  0  0  0  0  0  0  # atno 8010 bound_to 7997
  139.9388  143.6187  152.2509 H   0  0  0  0  0  0  0  0  0  0  0  0  # atno 10167 bound_to 10162
  157.6829  131.0726  150.5254 H   0  0  0  0  0  0  0  0  0  0  0  0  # atno 10718 bound_to 10713
  153.5036  135.7017  153.5819 H   0  0  0  0  0  0  0  0  0  0  0  0  # atno 10763 bound_to 10752
  153.3940  135.3889  155.1942 H   0  0  0  0  0  0  0  0  0  0  0  0  # atno 10764 bound_to 10752
  154.8709  135.3865  154.4508 H   0  0  0  0  0  0  0  0  0  0  0  0  # atno 10765 bound_to 10752
  140.2365  134.8084  157.3368 H   0  0  0  0  0  0  0  0  0  0  0  0  # atno 11005 bound_to 11000
  145.2041  140.9867  143.4138 LP  0  0  0  0  0  0  0  0  0  0  0  0  # atno 17320 bound_to 7965
  144.9748  139.3843  143.6291 LP  0  0  0  0  0  0  0  0  0  0  0  0  # atno 17321 bound_to 7965
  139.6722  144.7660  151.1763 LP  0  0  0  0  0  0  0  0  0  0  0  0  # atno 17342 bound_to 10162
  140.7617  143.5849  150.8856 LP  0  0  0  0  0  0  0  0  0  0  0  0  # atno 17343 bound_to 10162
  156.5566  130.4245  149.6082 LP  0  0  0  0  0  0  0  0  0  0  0  0  # atno 17370 bound_to 10713
  156.2857  130.7096  151.1931 LP  0  0  0  0  0  0  0  0  0  0  0  0  # atno 17371 bound_to 10713
  140.1697  134.4624  155.7840 LP  0  0  0  0  0  0  0  0  0  0  0  0  # atno 17394 bound_to 11000
  141.2214  133.6936  156.7686 LP  0  0  0  0  0  0  0  0  0  0  0  0  # atno 17395 bound_to 11000

$$$$
