AV-unprocessed.smi:249|AV-procd|sdf|1903|dock7
  -GOLD-   2262020583D 1   1.00000     0.00000
 Structure written by MMmdl.
 64 67  0  0  0  0  0  0  0  0  2 V2000
  146.1179  129.3465  151.6781 C   0  0  0  0  0  0  0  0  0  0  0  0
  146.3017  130.6569  152.4584 C   0  0  0  0  0  0  0  0  0  0  0  0
  146.7942  131.7814  151.6085 N   0  3  1  0  0  0  0  0  0  0  0  0
  145.7576  132.3708  150.7149 C   0  0  0  0  0  0  0  0  0  0  0  0
  144.7346  133.2126  151.5006 C   0  0  0  0  0  0  0  0  0  0  0  0
  145.4370  134.3256  152.3084 C   0  0  1  0  0  0  0  0  0  0  0  0
  144.5120  135.1884  153.0551 N   0  0  0  0  0  0  0  0  0  0  0  0
  143.3752  135.7424  152.3287 C   0  0  0  0  0  0  0  0  0  0  0  0
  145.0453  136.0342  153.9686 C   0  0  0  0  0  0  0  0  0  0  0  0
  144.7704  135.7970  155.2756 N   0  0  0  0  0  0  0  0  0  0  0  0
  145.2667  136.5999  156.2216 C   0  0  0  0  0  0  0  0  0  0  0  0
  146.0415  137.6773  156.0800 N   0  0  0  0  0  0  0  0  0  0  0  0
  146.3117  137.9246  154.7663 C   0  0  0  0  0  0  0  0  0  0  0  0
  145.8595  137.1598  153.6545 C   0  0  0  0  0  0  0  0  0  0  0  0
  146.3486  137.7077  152.4741 N   0  0  0  0  0  0  0  0  0  0  0  0
  147.0470  138.7382  152.8652 C   0  0  0  0  0  0  0  0  0  0  0  0
  147.0625  138.9532  154.2248 N   0  0  0  0  0  0  0  0  0  0  0  0
  147.7578  140.0172  154.9266 C   0  0  0  0  0  0  0  0  0  0  0  0
  149.2321  140.2243  154.4904 C   0  0  1  0  0  0  0  0  0  0  0  0
  149.6432  141.6885  154.7699 C   0  0  0  0  0  0  0  0  0  0  0  0
  149.5407  142.0061  156.1436 O   0  0  0  0  0  0  0  0  0  0  0  0
  150.2335  139.1972  155.0967 C   0  0  2  0  0  0  0  0  0  0  0  0
  151.6914  139.6278  155.0503 C   0  0  0  0  0  0  0  0  0  0  0  0
  152.4216  138.3092  155.2548 C   0  0  0  0  0  0  0  0  0  0  0  0
  151.6586  137.3696  154.5148 O   0  0  0  0  0  0  0  0  0  0  0  0
  150.3203  137.8397  154.3783 C   0  0  0  0  0  0  0  0  0  0  0  0
  146.5513  133.7151  153.1876 C   0  0  0  0  0  0  0  0  0  0  0  0
  147.5202  132.8624  152.3428 C   0  0  1  0  0  0  0  0  0  0  0  0
  148.7216  132.3542  153.1601 C   0  0  0  0  0  0  0  0  0  0  0  0
  145.9053  128.5242  152.3617 H   0  0  0  0  0  0  0  0  0  0  0  0
  147.0195  129.0869  151.1224 H   0  0  0  0  0  0  0  0  0  0  0  0
  145.2860  129.3968  150.9765 H   0  0  0  0  0  0  0  0  0  0  0  0
  145.3749  130.9243  152.9652 H   0  0  0  0  0  0  0  0  0  0  0  0
  147.0248  130.4456  153.2437 H   0  0  0  0  0  0  0  0  0  0  0  0
  146.2566  133.0065  149.9822 H   0  0  0  0  0  0  0  0  0  0  0  0
  145.2522  131.6029  150.1315 H   0  0  0  0  0  0  0  0  0  0  0  0
  144.0200  133.6571  150.8069 H   0  0  0  0  0  0  0  0  0  0  0  0
  144.1578  132.5584  152.1536 H   0  0  0  0  0  0  0  0  0  0  0  0
  145.9236  134.9786  151.5823 H   0  0  0  0  0  0  0  0  0  0  0  0
  142.7336  136.3259  152.9905 H   0  0  0  0  0  0  0  0  0  0  0  0
  142.7720  134.9375  151.9088 H   0  0  0  0  0  0  0  0  0  0  0  0
  143.6962  136.3853  151.5095 H   0  0  0  0  0  0  0  0  0  0  0  0
  145.0042  136.3434  157.2374 H   0  0  0  0  0  0  0  0  0  0  0  0
  147.5617  139.3820  152.1667 H   0  0  0  0  0  0  0  0  0  0  0  0
  147.1899  140.9340  154.7635 H   0  0  0  0  0  0  0  0  0  0  0  0
  147.7075  139.8141  155.9971 H   0  0  0  0  0  0  0  0  0  0  0  0
  149.2715  140.1101  153.4067 H   0  0  0  0  0  0  0  0  0  0  0  0
  150.6630  141.8820  154.4380 H   0  0  0  0  0  0  0  0  0  0  0  0
  149.0083  142.3738  154.2073 H   0  0  0  0  0  0  0  0  0  0  0  0
  149.3049  142.9179  156.2248 H   0  0  0  0  0  0  0  0  0  0  0  0
  149.9731  139.0168  156.1407 H   0  0  0  0  0  0  0  0  0  0  0  0
  151.9384  140.0426  154.0720 H   0  0  0  0  0  0  0  0  0  0  0  0
  151.9476  140.3648  155.8119 H   0  0  0  0  0  0  0  0  0  0  0  0
  153.4575  138.3412  154.9172 H   0  0  0  0  0  0  0  0  0  0  0  0
  152.4118  138.0251  156.3081 H   0  0  0  0  0  0  0  0  0  0  0  0
  149.6287  137.1107  154.7983 H   0  0  0  0  0  0  0  0  0  0  0  0
  150.1056  137.9369  153.3136 H   0  0  0  0  0  0  0  0  0  0  0  0
  147.1103  134.5084  153.6838 H   0  0  0  0  0  0  0  0  0  0  0  0
  146.1221  133.1016  153.9797 H   0  0  0  0  0  0  0  0  0  0  0  0
  147.9412  133.5143  151.5756 H   0  0  0  0  0  0  0  0  0  0  0  0
  149.3364  133.1902  153.4946 H   0  0  0  0  0  0  0  0  0  0  0  0
  149.3585  131.6989  152.5651 H   0  0  0  0  0  0  0  0  0  0  0  0
  148.4141  131.8128  154.0548 H   0  0  0  0  0  0  0  0  0  0  0  0
  147.4809  131.3640  150.9964 H   0  0  0  0  0  0  0  0  0  0  0  0
  1  2  1  0  0  0  0
  1 30  1  0  0  0  0
  1 31  1  0  0  0  0
  1 32  1  0  0  0  0
  2  3  1  0  0  0  0
  2 33  1  0  0  0  0
  2 34  1  0  0  0  0
  3 28  1  0  0  0  0
  3  4  1  0  0  0  0
  3 64  1  0  0  0  0
  4  5  1  0  0  0  0
  4 35  1  0  0  0  0
  4 36  1  0  0  0  0
  5  6  1  0  0  0  0
  5 37  1  0  0  0  0
  5 38  1  0  0  0  0
  6  7  1  0  0  0  0
  6 27  1  0  0  0  0
  6 39  1  0  0  0  0
  7  8  1  0  0  0  0
  7  9  1  0  0  0  0
  8 40  1  0  0  0  0
  8 41  1  0  0  0  0
  8 42  1  0  0  0  0
  9 14  1  0  0  0  0
  9 10  2  0  0  0  0
 10 11  1  0  0  0  0
 11 12  2  0  0  0  0
 11 43  1  0  0  0  0
 12 13  1  0  0  0  0
 13 17  1  0  0  0  0
 13 14  2  0  0  0  0
 14 15  1  0  0  0  0
 15 16  2  0  0  0  0
 16 17  1  0  0  0  0
 16 44  1  0  0  0  0
 17 18  1  0  0  0  0
 18 19  1  0  0  0  0
 18 45  1  0  0  0  0
 18 46  1  0  0  0  0
 19 20  1  0  0  0  0
 19 22  1  0  0  0  0
 19 47  1  0  0  0  0
 20 21  1  0  0  0  0
 20 48  1  0  0  0  0
 20 49  1  0  0  0  0
 21 50  1  0  0  0  0
 22 26  1  0  0  0  0
 22 23  1  0  0  0  0
 22 51  1  0  0  0  0
 23 24  1  0  0  0  0
 23 52  1  0  0  0  0
 23 53  1  0  0  0  0
 24 25  1  0  0  0  0
 24 54  1  0  0  0  0
 24 55  1  0  0  0  0
 25 26  1  0  0  0  0
 26 56  1  0  0  0  0
 26 57  1  0  0  0  0
 27 28  1  0  0  0  0
 27 58  1  0  0  0  0
 27 59  1  0  0  0  0
 28 29  1  0  0  0  0
 28 60  1  0  0  0  0
 29 61  1  0  0  0  0
 29 62  1  0  0  0  0
 29 63  1  0  0  0  0
M  CHG  1   3   1
M  END
> <s_m_source_file>
AV-unprocessed.smi

> <i_m_source_file_index>
249

> <i_lp_mmshare_version>
43012

> <i_f3d_flags>
0

> <s_epik_input>
W0NIM11bQ0gyXU4xW0NIMl1bQ0gyXVtDQEhdKFtDSDJdW0NASF0xW0NIM10pTihbQ0gzXSljKG5bY0hdbjIpYyhjMjMpbltjSF1uM1tDSDJdW0NASF0oW0NIMl1bT0hdKVtDQEBIXTRbQ0gyXVtDSDJdT1tDSDJdNA==

> <s_epik_cmdline>
J2VwaWtfcHl0aG9uJywgJy1waCcsICc3LjAnLCAnLXRuJywgJzgnLCAnLW1hJywgJzIwMCcsICctbWV0YWxfYmluZGluZycsICctaW1hZScsICc8aW5maWxlLm1hZT4nLCAnLW9tYWUnLCAnPG91dGZpbGUubWFlPic=

> <r_lp_tautomer_probability>
1

> <r_epik_Ionization_Penalty>
0.00294688

> <r_epik_Ionization_Penalty_Charging>
0.00169971

> <r_epik_Ionization_Penalty_Neutral>
0.00124717

> <r_epik_State_Penalty>
-0

> <r_epik_Charging_Adjusted_Penalty>
0.00169971

> <i_epik_Tot_Q>
1

> <i_epik_Tot_abs_Q>
1

> <r_epik_Metal_State_Penalty>
-0

> <b_epik_Metal_Only>
0

> <s_lp_Force_Field>
OPLS_2005

> <r_lp_Energy>
55.2795

> <b_lp_Chiralities_Consistent>
1

> <s_lp_Variant>
AV-unprocessed.smi:249-6

> <Gold.Version>
5.8.1

> <Gold.Id.Protein>
6NUR|6NUR_protein|mol2

> <Gold.PLP.Fitness>
49.6667

> <Gold.PLP.PLP>
-40.2765

> <Gold.PLP.part.hbond>
-2.9122

> <Gold.PLP.part.metal>
0.0000

> <Gold.PLP.part.buried>
-3.0337

> <Gold.PLP.part.nonpolar>
-35.2035

> <Gold.PLP.part.repulsive>
1.1350

> <Gold.PLP.ligand.clash>
0.0000

> <Gold.PLP.ligand.torsion>
1.4407

> <Gold.PLP.Chemscore.Hbond>
2.7800

> <Gold.PLP.Chemscore.CHOScore>
1.0000

> <Gold.PLP.Chemscore.Metal>
0.0000

> <Gold.Chemscore.Hbonds>
donor molecule, donor type, donor heavy atom, donor atom, acceptor molecule, acceptor atom, score
      L1  H     3    64       P1 10747  1.00
      L1  H    21    50       P1  8028  1.00
      P1  H 10752 10765       L1    25  0.73
      L1  C    16    44       P1  7957  1.00

> <Gold.PLP.Chemscore.Internal.Correction>
0.9316

> <Gold.Rescore>
     Score         DG    S(hbond)    S(metal)    S(lipo)     H(rot)  DE(clash)    DE(int)     intcor
     16.80     -18.66       2.51        0.00     104.48       2.90       0.27       1.59       ----

> <Gold.Chemscore.Fitness>
16.7955

> <Gold.Chemscore.DG>
-18.6576

> <Gold.Chemscore.ZeroCoef>
-5.4800

> <Gold.Chemscore.Hbond>
2.5086

> <Gold.Chemscore.Metal>
0.0000

> <Gold.Chemscore.Lipo>
104.4841

> <Gold.Chemscore.Internal_Hbond>
0.0000

> <Gold.Chemscore.DEClash>
0.2702

> <Gold.Chemscore.DEInternal>
1.5920

> <Gold.Chemscore.Rot>
2.9006

> <Gold.Chemscore.Internal.Correction>
   9.000000E+99

> <Gold.Chemscore.Hbonds>
donor molecule, donor type, donor heavy atom, donor atom, acceptor molecule, acceptor atom, score
      L1  H     3    64       P1 10747  1.00
      L1  H    21    50       P1  8028  0.99
      P1  H 10752 10765       L1    25  0.32

> <Gold.Chemscore.Hbond.Weighted>
-8.3786

> <Gold.Chemscore.Metal.Weighted>
-0.0000

> <Gold.Chemscore.Lipo.Weighted>
-12.2246

> <Gold.Chemscore.Internal_Hbond.Weighted>
0.0000

> <Gold.Chemscore.DEClash.Weighted>
0.2702

> <Gold.Chemscore.DEInternal.Weighted>
1.5920

> <Gold.Chemscore.Rot.Weighted>
7.4256

> <Gold.Chemscore.Internal.Correction.Weighted>
   9.000000E+99

> <Gold.Protein.RotatedTorsions>
[ 6907 6896 6895 6894 ] final   11.28 input  -60.11 | X-H torsion
[ 7974 7965 7964 7962 ] final  -62.93 input  175.53 | X-H torsion
[ 8008 7997 7996 7995 ] final -108.35 input   59.86 | X-H torsion
[ 10167 10162 10161 10158 ] final   32.63 input  -65.29 | X-H torsion
[ 10718 10713 10712 10709 ] final   53.53 input   66.30 | X-H torsion
[ 10763 10752 10751 10750 ] final  165.63 input  -60.55 | X-H torsion
[ 11005 11000 10999 10996 ] final   -0.81 input  -57.11 | X-H torsion

> <Gold.Protein.ActiveResidues>
 VAL166  LYS551  ARG553  GLY616  TRP617  ASP618  TYR619  PRO620  LYS621  CYS622 
 ASP623  PHE694  ASN695  SER759  ASP760  ASP761  ALA762  ILE779  LEU786  VAL792 
 PHE793  MET794  SER795  GLU796  ALA797  LYS798  CYS799  TRP800  GLU811  SER814 

> <Gold.Protein.RotatedAtoms>
  151.7517  135.0831  160.0331 H   0  0  0  0  0  0  0  0  0  0  0  0  # atno 6907 bound_to 6896
  152.3412  133.6065  159.5886 H   0  0  0  0  0  0  0  0  0  0  0  0  # atno 6908 bound_to 6896
  150.7480  133.9635  159.3565 H   0  0  0  0  0  0  0  0  0  0  0  0  # atno 6909 bound_to 6896
  145.7853  140.8740  143.0309 H   0  0  0  0  0  0  0  0  0  0  0  0  # atno 7974 bound_to 7965
  154.9429  140.0402  157.2106 H   0  0  0  0  0  0  0  0  0  0  0  0  # atno 8008 bound_to 7997
  154.8051  140.2858  155.5871 H   0  0  0  0  0  0  0  0  0  0  0  0  # atno 8009 bound_to 7997
  156.2966  140.2547  156.2928 H   0  0  0  0  0  0  0  0  0  0  0  0  # atno 8010 bound_to 7997
  140.4481  144.1089  150.6186 H   0  0  0  0  0  0  0  0  0  0  0  0  # atno 10167 bound_to 10162
  157.5175  130.8542  149.8515 H   0  0  0  0  0  0  0  0  0  0  0  0  # atno 10718 bound_to 10713
  154.3269  135.2755  155.2491 H   0  0  0  0  0  0  0  0  0  0  0  0  # atno 10763 bound_to 10752
  154.4820  135.5856  153.6400 H   0  0  0  0  0  0  0  0  0  0  0  0  # atno 10764 bound_to 10752
  152.9870  135.6114  154.3458 H   0  0  0  0  0  0  0  0  0  0  0  0  # atno 10765 bound_to 10752
  140.6404  133.9495  155.8323 H   0  0  0  0  0  0  0  0  0  0  0  0  # atno 11005 bound_to 11000
  144.6790  140.0046  143.7484 LP  0  0  0  0  0  0  0  0  0  0  0  0  # atno 17320 bound_to 7965
  146.0033  139.3109  143.0914 LP  0  0  0  0  0  0  0  0  0  0  0  0  # atno 17321 bound_to 7965
  140.4240  143.2598  151.9680 LP  0  0  0  0  0  0  0  0  0  0  0  0  # atno 17342 bound_to 10162
  139.4794  144.5805  151.7940 LP  0  0  0  0  0  0  0  0  0  0  0  0  # atno 17343 bound_to 10162
  156.0330  130.3759  150.1635 LP  0  0  0  0  0  0  0  0  0  0  0  0  # atno 17370 bound_to 10713
  156.9823  130.9868  151.3434 LP  0  0  0  0  0  0  0  0  0  0  0  0  # atno 17371 bound_to 10713
  141.0611  134.0345  157.3657 LP  0  0  0  0  0  0  0  0  0  0  0  0  # atno 17394 bound_to 11000
  139.9082  135.0184  156.7580 LP  0  0  0  0  0  0  0  0  0  0  0  0  # atno 17395 bound_to 11000

$$$$
