AV-unprocessed.smi:2241|AV-procd|sdf|9058|dock7
  -GOLD-   2272012263D 1   1.00000     0.00000
 Structure written by MMmdl.
 45 47  0  0  0  0  0  0  0  0  1 V2000
  145.2256  135.5790  150.7551 C   0  0  0  0  0  0  0  0  0  0  0  0
  144.8273  136.4529  151.9268 C   0  0  0  0  0  0  0  0  0  0  0  0
  143.6004  136.2404  152.5853 C   0  0  0  0  0  0  0  0  0  0  0  0
  143.2373  137.0550  153.6730 C   0  0  0  0  0  0  0  0  0  0  0  0
  144.0974  138.0825  154.1067 C   0  0  0  0  0  0  0  0  0  0  0  0
  143.6259  139.0674  155.4453 Cl  0  0  0  0  0  0  0  0  0  0  0  0
  145.3325  138.3073  153.4590 C   0  0  0  0  0  0  0  0  0  0  0  0
  146.1233  139.3306  153.9397 O   0  0  0  0  0  0  0  0  0  0  0  0
  147.2770  139.7010  153.1975 C   0  0  0  0  0  0  0  0  0  0  0  0
  148.1357  140.6435  154.0599 C   0  0  2  0  0  0  0  0  0  0  0  0
  149.2470  141.0554  153.2913 O   0  0  0  0  0  0  0  0  0  0  0  0
  148.6896  139.9843  155.3449 C   0  0  0  0  0  0  0  0  0  0  0  0
  149.6366  140.8459  156.0753 N   0  0  0  0  0  0  0  0  0  0  0  0
  149.0818  141.7906  156.9613 C   0  0  0  0  0  0  0  0  0  0  0  0
  149.8232  142.6033  157.6443 N   0  0  0  0  0  0  0  0  0  0  0  0
  151.2157  142.5517  157.5138 C   0  0  0  0  0  0  0  0  0  0  0  0
  152.0363  143.5572  158.3098 C   0  0  0  0  0  0  0  0  0  0  0  0
  151.9571  143.4387  159.8415 C   0  0  0  0  0  0  0  0  0  0  0  0
  151.9633  144.9706  159.8952 C   0  0  0  0  0  0  0  0  0  0  0  0
  151.4184  144.9567  158.4627 C   0  0  0  0  0  0  0  0  0  0  0  0
  151.7964  141.6543  156.6820 C   0  0  0  0  0  0  0  0  0  0  0  0
  150.9851  140.7161  155.9068 C   0  0  0  0  0  0  0  0  0  0  0  0
  151.4808  139.8759  155.1557 O   0  0  0  0  0  0  0  0  0  0  0  0
  145.6894  137.4799  152.3631 C   0  0  0  0  0  0  0  0  0  0  0  0
  144.3600  135.0689  150.3309 H   0  0  0  0  0  0  0  0  0  0  0  0
  145.9453  134.8254  151.0755 H   0  0  0  0  0  0  0  0  0  0  0  0
  145.6828  136.1782  149.9672 H   0  0  0  0  0  0  0  0  0  0  0  0
  142.9349  135.4542  152.2598 H   0  0  0  0  0  0  0  0  0  0  0  0
  142.2959  136.8903  154.1762 H   0  0  0  0  0  0  0  0  0  0  0  0
  147.8341  138.7912  152.9751 H   0  0  0  0  0  0  0  0  0  0  0  0
  147.0150  140.1735  152.2491 H   0  0  0  0  0  0  0  0  0  0  0  0
  147.5576  141.5302  154.3220 H   0  0  0  0  0  0  0  0  0  0  0  0
  149.4677  140.3599  152.6904 H   0  0  0  0  0  0  0  0  0  0  0  0
  147.8588  139.6698  155.9799 H   0  0  0  0  0  0  0  0  0  0  0  0
  149.2018  139.0558  155.0844 H   0  0  0  0  0  0  0  0  0  0  0  0
  147.9924  141.7935  157.0254 H   0  0  0  0  0  0  0  0  0  0  0  0
  153.0687  143.6049  157.9587 H   0  0  0  0  0  0  0  0  0  0  0  0
  151.0168  143.0161  160.2009 H   0  0  0  0  0  0  0  0  0  0  0  0
  152.8189  142.9607  160.3079 H   0  0  0  0  0  0  0  0  0  0  0  0
  151.2917  145.4058  160.6362 H   0  0  0  0  0  0  0  0  0  0  0  0
  152.9690  145.3890  159.9625 H   0  0  0  0  0  0  0  0  0  0  0  0
  151.8407  145.7173  157.8053 H   0  0  0  0  0  0  0  0  0  0  0  0
  150.3268  144.9570  158.4330 H   0  0  0  0  0  0  0  0  0  0  0  0
  152.8717  141.6250  156.5814 H   0  0  0  0  0  0  0  0  0  0  0  0
  146.6232  137.6147  151.8387 H   0  0  0  0  0  0  0  0  0  0  0  0
  1  2  1  0  0  0  0
  1 25  1  0  0  0  0
  1 26  1  0  0  0  0
  1 27  1  0  0  0  0
  2 24  1  0  0  0  0
  2  3  2  0  0  0  0
  3  4  1  0  0  0  0
  3 28  1  0  0  0  0
  4  5  2  0  0  0  0
  4 29  1  0  0  0  0
  5  6  1  0  0  0  0
  5  7  1  0  0  0  0
  7  8  1  0  0  0  0
  7 24  2  0  0  0  0
  8  9  1  0  0  0  0
  9 10  1  0  0  0  0
  9 30  1  0  0  0  0
  9 31  1  0  0  0  0
 10 11  1  0  0  0  0
 10 12  1  0  0  0  0
 10 32  1  0  0  0  0
 11 33  1  0  0  0  0
 12 13  1  0  0  0  0
 12 34  1  0  0  0  0
 12 35  1  0  0  0  0
 13 22  1  0  0  0  0
 13 14  1  0  0  0  0
 14 15  2  0  0  0  0
 14 36  1  0  0  0  0
 15 16  1  0  0  0  0
 16 17  1  0  0  0  0
 16 21  2  0  0  0  0
 17 20  1  0  0  0  0
 17 18  1  0  0  0  0
 17 37  1  0  0  0  0
 18 19  1  0  0  0  0
 18 38  1  0  0  0  0
 18 39  1  0  0  0  0
 19 20  1  0  0  0  0
 19 40  1  0  0  0  0
 19 41  1  0  0  0  0
 20 42  1  0  0  0  0
 20 43  1  0  0  0  0
 21 22  1  0  0  0  0
 21 44  1  0  0  0  0
 22 23  2  0  0  0  0
 24 45  1  0  0  0  0
M  END
> <s_m_source_file>
AV-unprocessed.smi

> <i_m_source_file_index>
2241

> <i_lp_mmshare_version>
43012

> <i_f3d_flags>
0

> <s_epik_input>
W0NIM11jMVtjSF1bY0hdYyhDbCljKFtjSF0xKU9bQ0gyXVtDQEhdKFtPSF0pW0NIMl1uMltjSF1uYyhbY0hdYzI9TylbQ0hdM1tDSDJdW0NIMl1bQ0gyXTM=

> <s_epik_cmdline>
J2VwaWtfcHl0aG9uJywgJy1waCcsICc3LjAnLCAnLXRuJywgJzgnLCAnLW1hJywgJzIwMCcsICctbWV0YWxfYmluZGluZycsICctaW1hZScsICc8aW5maWxlLm1hZT4nLCAnLW9tYWUnLCAnPG91dGZpbGUubWFlPic=

> <r_lp_tautomer_probability>
1

> <r_epik_Ionization_Penalty>
1.78212e-05

> <r_epik_Ionization_Penalty_Charging>
5.61663e-08

> <r_epik_Ionization_Penalty_Neutral>
1.7765e-05

> <r_epik_State_Penalty>
-0

> <r_epik_Charging_Adjusted_Penalty>
5.61663e-08

> <i_epik_Tot_Q>
0

> <i_epik_Tot_abs_Q>
0

> <r_epik_Metal_State_Penalty>
-0

> <b_epik_Metal_Only>
0

> <s_lp_Force_Field>
OPLS_2005

> <r_lp_Energy>
31.1581

> <b_lp_Chiralities_Consistent>
1

> <s_lp_Variant>
AV-unprocessed.smi:2241-1

> <Gold.Version>
5.8.1

> <Gold.Id.Protein>
6NUR|6NUR_protein|mol2

> <Gold.PLP.Fitness>
49.6156

> <Gold.PLP.PLP>
-42.9104

> <Gold.PLP.part.hbond>
-3.6601

> <Gold.PLP.part.metal>
0.0000

> <Gold.PLP.part.buried>
-6.1736

> <Gold.PLP.part.nonpolar>
-33.5105

> <Gold.PLP.part.repulsive>
0.4222

> <Gold.PLP.ligand.clash>
0.0000

> <Gold.PLP.ligand.torsion>
0.8131

> <Gold.PLP.Chemscore.Hbond>
2.6460

> <Gold.PLP.Chemscore.CHOScore>
0.0000

> <Gold.PLP.Chemscore.Metal>
0.0000

> <Gold.Chemscore.Hbonds>
donor molecule, donor type, donor heavy atom, donor atom, acceptor molecule, acceptor atom, score
      L1  H    11    33       P1  7957  0.83
      P1  H  7989  7998       L1    23  1.00
      P1  H  8011  8017       L1    11  0.90

> <Gold.PLP.Chemscore.Internal.Correction>
0.3934

> <Gold.Rescore>
     Score         DG    S(hbond)    S(metal)    S(lipo)     H(rot)  DE(clash)    DE(int)     intcor
     16.63     -17.87       1.92        0.00     103.10       2.38       0.50       0.73       ----

> <Gold.Chemscore.Fitness>
16.6299

> <Gold.Chemscore.DG>
-17.8675

> <Gold.Chemscore.ZeroCoef>
-5.4800

> <Gold.Chemscore.Hbond>
1.9216

> <Gold.Chemscore.Metal>
0.0000

> <Gold.Chemscore.Lipo>
103.0973

> <Gold.Chemscore.Internal_Hbond>
0.0000

> <Gold.Chemscore.DEClash>
0.5035

> <Gold.Chemscore.DEInternal>
0.7341

> <Gold.Chemscore.Rot>
2.3801

> <Gold.Chemscore.Internal.Correction>
   9.000000E+99

> <Gold.Chemscore.Hbonds>
donor molecule, donor type, donor heavy atom, donor atom, acceptor molecule, acceptor atom, score
      L1  H    11    33       P1  7957  0.80
      P1  H  7989  7998       L1    23  0.34
      P1  H  8011  8017       L1    11  0.18

> <Gold.Chemscore.Hbond.Weighted>
-6.4182

> <Gold.Chemscore.Metal.Weighted>
-0.0000

> <Gold.Chemscore.Lipo.Weighted>
-12.0624

> <Gold.Chemscore.Internal_Hbond.Weighted>
0.0000

> <Gold.Chemscore.DEClash.Weighted>
0.5035

> <Gold.Chemscore.DEInternal.Weighted>
0.7341

> <Gold.Chemscore.Rot.Weighted>
6.0931

> <Gold.Chemscore.Internal.Correction.Weighted>
   9.000000E+99

> <Gold.Protein.RotatedTorsions>
[ 6907 6896 6895 6894 ] final  -57.50 input  -60.11 | X-H torsion
[ 7974 7965 7964 7962 ] final  -79.07 input  175.53 | X-H torsion
[ 8008 7997 7996 7995 ] final  -82.44 input   59.86 | X-H torsion
[ 10167 10162 10161 10158 ] final  -52.05 input  -65.29 | X-H torsion
[ 10718 10713 10712 10709 ] final   90.54 input   66.30 | X-H torsion
[ 10763 10752 10751 10750 ] final  138.32 input  -60.55 | X-H torsion
[ 11005 11000 10999 10996 ] final  164.47 input  -57.11 | X-H torsion

> <Gold.Protein.ActiveResidues>
 VAL166  LYS551  ARG553  GLY616  TRP617  ASP618  TYR619  PRO620  LYS621  CYS622 
 ASP623  PHE694  ASN695  SER759  ASP760  ASP761  ALA762  ILE779  LEU786  VAL792 
 PHE793  MET794  SER795  GLU796  ALA797  LYS798  CYS799  TRP800  GLU811  SER814 

> <Gold.Protein.RotatedAtoms>
  150.8081  134.7218  159.6662 H   0  0  0  0  0  0  0  0  0  0  0  0  # atno 6907 bound_to 6896
  152.4200  134.5968  159.9999 H   0  0  0  0  0  0  0  0  0  0  0  0  # atno 6908 bound_to 6896
  151.6186  133.3304  159.3119 H   0  0  0  0  0  0  0  0  0  0  0  0  # atno 6909 bound_to 6896
  145.5781  140.9453  143.1359 H   0  0  0  0  0  0  0  0  0  0  0  0  # atno 7974 bound_to 7965
  154.6086  140.0633  156.9464 H   0  0  0  0  0  0  0  0  0  0  0  0  # atno 8008 bound_to 7997
  155.2010  140.3315  155.4325 H   0  0  0  0  0  0  0  0  0  0  0  0  # atno 8009 bound_to 7997
  156.2363  140.1864  156.7094 H   0  0  0  0  0  0  0  0  0  0  0  0  # atno 8010 bound_to 7997
  140.6557  143.2597  151.4592 H   0  0  0  0  0  0  0  0  0  0  0  0  # atno 10167 bound_to 10162
  157.6959  131.0374  150.3593 H   0  0  0  0  0  0  0  0  0  0  0  0  # atno 10718 bound_to 10713
  153.8877  135.3037  155.3447 H   0  0  0  0  0  0  0  0  0  0  0  0  # atno 10763 bound_to 10752
  154.7731  135.4875  153.9692 H   0  0  0  0  0  0  0  0  0  0  0  0  # atno 10764 bound_to 10752
  153.1315  135.6805  153.9268 H   0  0  0  0  0  0  0  0  0  0  0  0  # atno 10765 bound_to 10752
  140.2463  134.8012  157.3459 H   0  0  0  0  0  0  0  0  0  0  0  0  # atno 11005 bound_to 11000
  144.7407  139.7458  143.7312 LP  0  0  0  0  0  0  0  0  0  0  0  0  # atno 17320 bound_to 7965
  146.1736  139.4897  142.9911 LP  0  0  0  0  0  0  0  0  0  0  0  0  # atno 17321 bound_to 7965
  139.5779  144.1776  152.1929 LP  0  0  0  0  0  0  0  0  0  0  0  0  # atno 17342 bound_to 10162
  140.1092  144.5471  150.6936 LP  0  0  0  0  0  0  0  0  0  0  0  0  # atno 17343 bound_to 10162
  156.4032  130.3920  149.6945 LP  0  0  0  0  0  0  0  0  0  0  0  0  # atno 17370 bound_to 10713
  156.4255  130.7789  151.2808 LP  0  0  0  0  0  0  0  0  0  0  0  0  # atno 17371 bound_to 10713
  140.1603  134.4737  155.7899 LP  0  0  0  0  0  0  0  0  0  0  0  0  # atno 17394 bound_to 11000
  141.2206  133.6898  156.7532 LP  0  0  0  0  0  0  0  0  0  0  0  0  # atno 17395 bound_to 11000

$$$$
