AV-unprocessed.smi:1550|AV-procd|sdf|6230|dock7
  -GOLD-   22720 6413D 1   1.00000     0.00000
 Structure written by MMmdl.
 42 43  0  0  0  0  0  0  0  0  2 V2000
  150.2150  134.1418  155.9622 C   0  0  0  0  0  0  0  0  0  0  0  0
  149.0398  135.0788  155.6459 C   0  0  2  0  0  0  0  0  0  0  0  0
  149.5822  136.3610  155.3449 O   0  0  0  0  0  0  0  0  0  0  0  0
  148.6311  137.3539  154.9746 C   0  0  0  0  0  0  0  0  0  0  0  0
  149.3442  138.6938  154.7466 C   0  0  1  0  0  0  0  0  0  0  0  0
  148.3690  139.8733  154.5575 C   0  0  0  0  0  0  0  0  0  0  0  0
  149.1439  141.1843  154.3856 C   0  0  0  0  0  0  0  0  0  0  0  0
  150.1334  141.3540  155.5439 C   0  0  0  0  0  0  0  0  0  0  0  0
  151.0214  140.1059  155.6788 C   0  0  0  0  0  0  0  0  0  0  0  0
  150.2146  138.9440  155.8482 O   0  0  0  0  0  0  0  0  0  0  0  0
  148.0657  135.1802  156.8312 C   0  0  0  0  0  0  0  0  0  0  0  0
  146.8703  134.9511  156.6499 O   0  0  0  0  0  0  0  0  0  0  0  0
  148.6293  135.5157  158.0084 N   0  0  0  0  0  0  0  0  0  0  0  0
  148.0526  135.6731  159.2812 C   0  0  0  0  0  0  0  0  0  0  0  0
  146.8524  135.1594  159.6712 C   0  0  0  0  0  0  0  0  0  0  0  0
  146.3148  135.3620  161.0110 C   0  0  0  0  0  0  0  0  0  0  0  0
  145.0181  134.7424  161.5019 C   0  0  0  0  0  0  0  0  0  0  0  0
  145.2479  133.8427  162.4585 F   0  0  0  0  0  0  0  0  0  0  0  0
  144.2248  135.6882  162.0031 F   0  0  0  0  0  0  0  0  0  0  0  0
  144.3685  134.1402  160.5056 F   0  0  0  0  0  0  0  0  0  0  0  0
  147.1684  136.0935  161.8138 C   0  0  0  0  0  0  0  0  0  0  0  0
  148.3630  136.6437  161.5054 N   0  5  0  0  0  0  0  0  0  0  0  0
  148.8516  136.4566  160.2470 C   0  0  0  0  0  0  0  0  0  0  0  0
  149.9377  136.9248  159.9028 O   0  0  0  0  0  0  0  0  0  0  0  0
  149.8653  133.1425  156.2242 H   0  0  0  0  0  0  0  0  0  0  0  0
  150.8164  134.5157  156.7919 H   0  0  0  0  0  0  0  0  0  0  0  0
  150.8729  134.0442  155.0984 H   0  0  0  0  0  0  0  0  0  0  0  0
  148.5207  134.6882  154.7683 H   0  0  0  0  0  0  0  0  0  0  0  0
  148.1073  137.0508  154.0669 H   0  0  0  0  0  0  0  0  0  0  0  0
  147.8798  137.4805  155.7546 H   0  0  0  0  0  0  0  0  0  0  0  0
  149.9560  138.5932  153.8484 H   0  0  0  0  0  0  0  0  0  0  0  0
  147.7276  139.6998  153.6928 H   0  0  0  0  0  0  0  0  0  0  0  0
  147.7102  139.9563  155.4228 H   0  0  0  0  0  0  0  0  0  0  0  0
  149.6850  141.1703  153.4386 H   0  0  0  0  0  0  0  0  0  0  0  0
  148.4573  142.0303  154.3432 H   0  0  0  0  0  0  0  0  0  0  0  0
  150.7493  142.2400  155.3871 H   0  0  0  0  0  0  0  0  0  0  0  0
  149.5860  141.5133  156.4738 H   0  0  0  0  0  0  0  0  0  0  0  0
  151.6629  139.9897  154.8039 H   0  0  0  0  0  0  0  0  0  0  0  0
  151.6784  140.2063  156.5427 H   0  0  0  0  0  0  0  0  0  0  0  0
  149.6227  135.6956  157.9853 H   0  0  0  0  0  0  0  0  0  0  0  0
  146.2502  134.5733  158.9984 H   0  0  0  0  0  0  0  0  0  0  0  0
  146.8439  136.2585  162.8635 H   0  0  0  0  0  0  0  0  0  0  0  0
  1  2  1  0  0  0  0
  1 25  1  0  0  0  0
  1 26  1  0  0  0  0
  1 27  1  0  0  0  0
  2  3  1  0  0  0  0
  2 11  1  0  0  0  0
  2 28  1  0  0  0  0
  3  4  1  0  0  0  0
  4  5  1  0  0  0  0
  4 29  1  0  0  0  0
  4 30  1  0  0  0  0
  5 10  1  0  0  0  0
  5  6  1  0  0  0  0
  5 31  1  0  0  0  0
  6  7  1  0  0  0  0
  6 32  1  0  0  0  0
  6 33  1  0  0  0  0
  7  8  1  0  0  0  0
  7 34  1  0  0  0  0
  7 35  1  0  0  0  0
  8  9  1  0  0  0  0
  8 36  1  0  0  0  0
  8 37  1  0  0  0  0
  9 10  1  0  0  0  0
  9 38  1  0  0  0  0
  9 39  1  0  0  0  0
 11 12  2  0  0  0  0
 11 13  1  0  0  0  0
 13 14  1  0  0  0  0
 13 40  1  0  0  0  0
 14 23  1  0  0  0  0
 14 15  2  0  0  0  0
 15 16  1  0  0  0  0
 15 41  1  0  0  0  0
 16 17  1  0  0  0  0
 16 21  2  0  0  0  0
 17 18  1  0  0  0  0
 17 19  1  0  0  0  0
 17 20  1  0  0  0  0
 21 22  1  0  0  0  0
 21 42  1  0  0  0  0
 22 23  1  0  0  0  0
 23 24  2  0  0  0  0
M  CHG  1  22  -1
M  END
> <s_m_source_file>
AV-unprocessed.smi

> <i_m_source_file_index>
1550

> <i_lp_mmshare_version>
43012

> <i_f3d_flags>
0

> <s_epik_input>
TzFbQ0gyXVtDSDJdW0NIMl1bQ0gyXVtDQEhdMVtDSDJdT1tDQEBIXShbQ0gzXSlDKD1PKVtOSF1jMltjSF1jKEMoRikoRilGKVtjSF1bbkhdYzI9Tw==

> <s_epik_cmdline>
J2VwaWtfcHl0aG9uJywgJy1waCcsICc3LjAnLCAnLXRuJywgJzgnLCAnLW1hJywgJzIwMCcsICctbWV0YWxfYmluZGluZycsICctaW1hZScsICc8aW5maWxlLm1hZT4nLCAnLW9tYWUnLCAnPG91dGZpbGUubWFlPic=

> <r_epik_Ionization_Penalty>
2.54933

> <r_epik_Ionization_Penalty_Charging>
0.0583423

> <r_epik_Ionization_Penalty_Neutral>
2.49099

> <r_epik_State_Penalty>
2.65532

> <r_epik_Charging_Adjusted_Penalty>
2.71366

> <i_epik_Tot_Q>
-1

> <i_epik_Tot_abs_Q>
1

> <r_epik_Metal_State_Penalty>
0.516364

> <b_epik_Metal_Only>
0

> <s_lp_Force_Field>
OPLS_2005

> <r_lp_Energy>
26.7738

> <b_lp_Chiralities_Consistent>
1

> <s_lp_Variant>
AV-unprocessed.smi:1550-7

> <Gold.Version>
5.8.1

> <Gold.Id.Protein>
6NUR|6NUR_protein|mol2

> <Gold.PLP.Fitness>
37.8122

> <Gold.PLP.PLP>
-30.0318

> <Gold.PLP.part.hbond>
-2.4342

> <Gold.PLP.part.metal>
0.0000

> <Gold.PLP.part.buried>
-3.7458

> <Gold.PLP.part.nonpolar>
-25.3636

> <Gold.PLP.part.repulsive>
0.1959

> <Gold.PLP.ligand.clash>
0.0000

> <Gold.PLP.ligand.torsion>
0.3057

> <Gold.PLP.Chemscore.Hbond>
2.7475

> <Gold.PLP.Chemscore.CHOScore>
0.0000

> <Gold.PLP.Chemscore.Metal>
0.0000

> <Gold.Chemscore.Hbonds>
donor molecule, donor type, donor heavy atom, donor atom, acceptor molecule, acceptor atom, score
      P1  H  6896  6909       L1    24  0.54
      P1  H  6931  6943       L1    22  2.00

> <Gold.PLP.Chemscore.Internal.Correction>
0.1494

> <Gold.Rescore>
     Score         DG    S(hbond)    S(metal)    S(lipo)     H(rot)  DE(clash)    DE(int)     intcor
     11.59     -12.79       1.15        0.00      69.44       1.82       0.09       1.11       ----

> <Gold.Chemscore.Fitness>
11.5874

> <Gold.Chemscore.DG>
-12.7869

> <Gold.Chemscore.ZeroCoef>
-5.4800

> <Gold.Chemscore.Hbond>
1.1529

> <Gold.Chemscore.Metal>
0.0000

> <Gold.Chemscore.Lipo>
69.4408

> <Gold.Chemscore.Internal_Hbond>
0.0000

> <Gold.Chemscore.DEClash>
0.0934

> <Gold.Chemscore.DEInternal>
1.1062

> <Gold.Chemscore.Rot>
1.8236

> <Gold.Chemscore.Internal.Correction>
   9.000000E+99

> <Gold.Chemscore.Hbonds>
donor molecule, donor type, donor heavy atom, donor atom, acceptor molecule, acceptor atom, score
      P1  H  6896  6909       L1    24  0.19
      P1  H  6931  6943       L1    22  0.30

> <Gold.Chemscore.Hbond.Weighted>
-3.8508

> <Gold.Chemscore.Metal.Weighted>
-0.0000

> <Gold.Chemscore.Lipo.Weighted>
-8.1246

> <Gold.Chemscore.Internal_Hbond.Weighted>
0.0000

> <Gold.Chemscore.DEClash.Weighted>
0.0934

> <Gold.Chemscore.DEInternal.Weighted>
1.1062

> <Gold.Chemscore.Rot.Weighted>
4.6684

> <Gold.Chemscore.Internal.Correction.Weighted>
   9.000000E+99

> <Gold.Protein.RotatedTorsions>
[ 6907 6896 6895 6894 ] final  100.78 input  -60.11 | X-H torsion
[ 7974 7965 7964 7962 ] final -128.33 input  175.53 | X-H torsion
[ 8008 7997 7996 7995 ] final   53.47 input   59.86 | X-H torsion
[ 10167 10162 10161 10158 ] final  -93.49 input  -65.29 | X-H torsion
[ 10718 10713 10712 10709 ] final  -46.24 input   66.30 | X-H torsion
[ 10763 10752 10751 10750 ] final   16.79 input  -60.55 | X-H torsion
[ 11005 11000 10999 10996 ] final   11.05 input  -57.11 | X-H torsion

> <Gold.Protein.ActiveResidues>
 VAL166  LYS551  ARG553  GLY616  TRP617  ASP618  TYR619  PRO620  LYS621  CYS622 
 ASP623  PHE694  ASN695  SER759  ASP760  ASP761  ALA762  ILE779  LEU786  VAL792 
 PHE793  MET794  SER795  GLU796  ALA797  LYS798  CYS799  TRP800  GLU811  SER814 

> <Gold.Protein.RotatedAtoms>
  152.5364  134.0225  159.7987 H   0  0  0  0  0  0  0  0  0  0  0  0  # atno 6907 bound_to 6896
  151.0409  133.5699  159.2658 H   0  0  0  0  0  0  0  0  0  0  0  0  # atno 6908 bound_to 6896
  151.2669  135.0679  159.9173 H   0  0  0  0  0  0  0  0  0  0  0  0  # atno 6909 bound_to 6896
  144.9681  140.7517  143.4687 H   0  0  0  0  0  0  0  0  0  0  0  0  # atno 7974 bound_to 7965
  155.4688  140.3464  155.4323 H   0  0  0  0  0  0  0  0  0  0  0  0  # atno 8008 bound_to 7997
  156.1114  140.1462  156.9363 H   0  0  0  0  0  0  0  0  0  0  0  0  # atno 8009 bound_to 7997
  154.4759  140.0885  156.7238 H   0  0  0  0  0  0  0  0  0  0  0  0  # atno 8010 bound_to 7997
  140.3241  143.3032  152.0014 H   0  0  0  0  0  0  0  0  0  0  0  0  # atno 10167 bound_to 10162
  156.2203  130.4166  149.9001 H   0  0  0  0  0  0  0  0  0  0  0  0  # atno 10718 bound_to 10713
  153.1398  135.6757  153.9045 H   0  0  0  0  0  0  0  0  0  0  0  0  # atno 10763 bound_to 10752
  153.8505  135.3094  155.3433 H   0  0  0  0  0  0  0  0  0  0  0  0  # atno 10764 bound_to 10752
  154.7778  135.4905  153.9864 H   0  0  0  0  0  0  0  0  0  0  0  0  # atno 10765 bound_to 10752
  140.5076  134.0684  155.7810 H   0  0  0  0  0  0  0  0  0  0  0  0  # atno 11005 bound_to 11000
  145.2599  139.1996  143.4897 LP  0  0  0  0  0  0  0  0  0  0  0  0  # atno 17320 bound_to 7965
  146.3374  140.2527  142.8599 LP  0  0  0  0  0  0  0  0  0  0  0  0  # atno 17321 bound_to 7965
  139.4868  144.6287  151.7113 LP  0  0  0  0  0  0  0  0  0  0  0  0  # atno 17342 bound_to 10162
  140.5456  144.0508  150.6106 LP  0  0  0  0  0  0  0  0  0  0  0  0  # atno 17343 bound_to 10162
  156.6650  130.8797  151.3553 LP  0  0  0  0  0  0  0  0  0  0  0  0  # atno 17370 bound_to 10713
  157.7084  130.9411  150.1007 LP  0  0  0  0  0  0  0  0  0  0  0  0  # atno 17371 bound_to 10713
  141.1402  133.9151  157.2342 LP  0  0  0  0  0  0  0  0  0  0  0  0  # atno 17394 bound_to 11000
  139.9677  135.0137  156.9430 LP  0  0  0  0  0  0  0  0  0  0  0  0  # atno 17395 bound_to 11000

$$$$
