AV-unprocessed.smi:1787|AV-procd|sdf|7209|dock6
  -GOLD-   22720 8453D 1   1.00000     0.00000
 Structure written by MMmdl.
 45 47  0  0  0  0  0  0  0  0  2 V2000
  144.8639  135.8888  153.6020 O   0  0  0  0  0  0  0  0  0  0  0  0
  145.9755  135.9151  153.0768 C   0  0  0  0  0  0  0  0  0  0  0  0
  146.8785  136.8760  153.3180 N   0  0  0  0  0  0  0  0  0  0  0  0
  146.7085  138.0067  154.2310 C   0  0  0  0  0  0  0  0  0  0  0  0
  147.9611  138.9359  154.3081 C   0  0  2  0  0  0  0  0  0  0  0  0
  149.1911  138.0678  154.4153 N   0  3  0  0  0  0  0  0  0  0  0  0
  150.4799  138.8151  154.4453 C   0  0  0  0  0  0  0  0  0  0  0  0
  151.6689  137.8511  154.3191 C   0  0  0  0  0  0  0  0  0  0  0  0
  151.6224  136.9165  155.3875 O   0  0  0  0  0  0  0  0  0  0  0  0
  150.4468  136.1213  155.3347 C   0  0  0  0  0  0  0  0  0  0  0  0
  149.1941  137.0075  155.4595 C   0  0  0  0  0  0  0  0  0  0  0  0
  147.7952  139.9394  155.4850 C   0  0  0  0  0  0  0  0  0  0  0  0
  146.7056  140.9485  155.1112 C   0  0  0  0  0  0  0  0  0  0  0  0
  146.8395  141.2330  153.3301 S   0  0  0  0  0  0  0  0  0  0  0  0
  148.0058  139.8666  153.0730 C   0  0  0  0  0  0  0  0  0  0  0  0
  146.4484  135.0209  152.1921 N   0  0  0  0  0  0  0  0  0  0  0  0
  145.8229  133.8659  151.6450 C   0  0  0  0  0  0  0  0  0  0  0  0
  144.4237  133.6746  151.5253 C   0  0  0  0  0  0  0  0  0  0  0  0
  143.9470  132.4753  150.9617 C   0  0  0  0  0  0  0  0  0  0  0  0
  144.8815  131.5106  150.5387 C   0  0  0  0  0  0  0  0  0  0  0  0
  146.2159  131.6790  150.6447 N   0  0  0  0  0  0  0  0  0  0  0  0
  146.6657  132.8307  151.1857 C   0  0  0  0  0  0  0  0  0  0  0  0
  147.7669  136.8147  152.8417 H   0  0  0  0  0  0  0  0  0  0  0  0
  145.8146  138.5689  153.9603 H   0  0  0  0  0  0  0  0  0  0  0  0
  146.4732  137.5868  155.2083 H   0  0  0  0  0  0  0  0  0  0  0  0
  150.5287  139.5423  153.6363 H   0  0  0  0  0  0  0  0  0  0  0  0
  150.5748  139.3704  155.3789 H   0  0  0  0  0  0  0  0  0  0  0  0
  151.6594  137.3341  153.3583 H   0  0  0  0  0  0  0  0  0  0  0  0
  152.6071  138.4034  154.3744 H   0  0  0  0  0  0  0  0  0  0  0  0
  150.4248  135.5506  154.4047 H   0  0  0  0  0  0  0  0  0  0  0  0
  150.4754  135.3968  156.1486 H   0  0  0  0  0  0  0  0  0  0  0  0
  149.1462  137.4617  156.4500 H   0  0  0  0  0  0  0  0  0  0  0  0
  148.3323  136.3504  155.3505 H   0  0  0  0  0  0  0  0  0  0  0  0
  147.5866  139.4528  156.4381 H   0  0  0  0  0  0  0  0  0  0  0  0
  148.7004  140.5301  155.6232 H   0  0  0  0  0  0  0  0  0  0  0  0
  145.7155  140.5490  155.3310 H   0  0  0  0  0  0  0  0  0  0  0  0
  146.8103  141.8837  155.6618 H   0  0  0  0  0  0  0  0  0  0  0  0
  148.9954  140.3133  152.9691 H   0  0  0  0  0  0  0  0  0  0  0  0
  147.7815  139.3472  152.1408 H   0  0  0  0  0  0  0  0  0  0  0  0
  147.3878  135.1883  151.8617 H   0  0  0  0  0  0  0  0  0  0  0  0
  143.7037  134.4090  151.8473 H   0  0  0  0  0  0  0  0  0  0  0  0
  142.8868  132.2977  150.8567 H   0  0  0  0  0  0  0  0  0  0  0  0
  144.5488  130.5800  150.1035 H   0  0  0  0  0  0  0  0  0  0  0  0
  147.7394  132.9288  151.2542 H   0  0  0  0  0  0  0  0  0  0  0  0
  149.2048  137.5552  153.5446 H   0  0  0  0  0  0  0  0  0  0  0  0
  1  2  2  0  0  0  0
  2  3  1  0  0  0  0
  2 16  1  0  0  0  0
  3  4  1  0  0  0  0
  3 23  1  0  0  0  0
  4  5  1  0  0  0  0
  4 24  1  0  0  0  0
  4 25  1  0  0  0  0
  5 15  1  0  0  0  0
  5  6  1  0  0  0  0
  5 12  1  0  0  0  0
  6 11  1  0  0  0  0
  6  7  1  0  0  0  0
  6 45  1  0  0  0  0
  7  8  1  0  0  0  0
  7 26  1  0  0  0  0
  7 27  1  0  0  0  0
  8  9  1  0  0  0  0
  8 28  1  0  0  0  0
  8 29  1  0  0  0  0
  9 10  1  0  0  0  0
 10 11  1  0  0  0  0
 10 30  1  0  0  0  0
 10 31  1  0  0  0  0
 11 32  1  0  0  0  0
 11 33  1  0  0  0  0
 12 13  1  0  0  0  0
 12 34  1  0  0  0  0
 12 35  1  0  0  0  0
 13 14  1  0  0  0  0
 13 36  1  0  0  0  0
 13 37  1  0  0  0  0
 14 15  1  0  0  0  0
 15 38  1  0  0  0  0
 15 39  1  0  0  0  0
 16 17  1  0  0  0  0
 16 40  1  0  0  0  0
 17 22  1  0  0  0  0
 17 18  2  0  0  0  0
 18 19  1  0  0  0  0
 18 41  1  0  0  0  0
 19 20  2  0  0  0  0
 19 42  1  0  0  0  0
 20 21  1  0  0  0  0
 20 43  1  0  0  0  0
 21 22  2  0  0  0  0
 22 44  1  0  0  0  0
M  CHG  1   6   1
M  END
> <s_m_source_file>
AV-unprocessed.smi

> <i_m_source_file_index>
1787

> <i_lp_mmshare_version>
43012

> <i_f3d_flags>
0

> <s_epik_input>
W2NIXTFuW2NIXVtjSF1bY0hdYzFbTkhdQyg9TylbTkhdW0NIMl1bQ0BdMihbQ0gyXVtDSDJdU1tDSDJdMilOM1tDSDJdW0NIMl1PW0NIMl1bQ0gyXTM=

> <s_epik_cmdline>
J2VwaWtfcHl0aG9uJywgJy1waCcsICc3LjAnLCAnLXRuJywgJzgnLCAnLW1hJywgJzIwMCcsICctbWV0YWxfYmluZGluZycsICctaW1hZScsICc8aW5maWxlLm1hZT4nLCAnLW9tYWUnLCAnPG91dGZpbGUubWFlPic=

> <r_epik_Ionization_Penalty>
2.03633

> <r_epik_Ionization_Penalty_Charging>
2.03219

> <r_epik_Ionization_Penalty_Neutral>
0.00414252

> <r_epik_State_Penalty>
2.16328

> <r_epik_Charging_Adjusted_Penalty>
4.19546

> <i_epik_Tot_Q>
1

> <i_epik_Tot_abs_Q>
1

> <r_epik_Metal_State_Penalty>
2.16381

> <b_epik_Metal_Only>
0

> <s_lp_Force_Field>
OPLS_2005

> <r_lp_Energy>
44.9439

> <b_lp_Chiralities_Consistent>
1

> <s_lp_Variant>
AV-unprocessed.smi:1787-4

> <Gold.Version>
5.8.1

> <Gold.Id.Protein>
6NUR|6NUR_protein|mol2

> <Gold.PLP.Fitness>
47.4912

> <Gold.PLP.PLP>
-32.0031

> <Gold.PLP.part.hbond>
-4.0000

> <Gold.PLP.part.metal>
0.0000

> <Gold.PLP.part.buried>
-2.0851

> <Gold.PLP.part.nonpolar>
-27.0534

> <Gold.PLP.part.repulsive>
0.3895

> <Gold.PLP.ligand.clash>
0.0000

> <Gold.PLP.ligand.torsion>
0.3765

> <Gold.PLP.Chemscore.Hbond>
4.9920

> <Gold.PLP.Chemscore.CHOScore>
0.3768

> <Gold.PLP.Chemscore.Metal>
0.0000

> <Gold.Chemscore.Hbonds>
donor molecule, donor type, donor heavy atom, donor atom, acceptor molecule, acceptor atom, score
      L1  H     3    23       P1  7948  1.00
      L1  H     6    45       P1  7948  1.50
      L1  H    16    40       P1  7948  1.00
      P1  H 10752 10764       L1     9  1.00
      L1  C    22    44       P1 10747  0.55

> <Gold.PLP.Chemscore.Internal.Correction>
0.1346

> <Gold.Rescore>
     Score         DG    S(hbond)    S(metal)    S(lipo)     H(rot)  DE(clash)    DE(int)     intcor
     21.70     -22.68       3.41        0.00      82.03       1.49       0.51       0.47       ----

> <Gold.Chemscore.Fitness>
21.6951

> <Gold.Chemscore.DG>
-22.6786

> <Gold.Chemscore.ZeroCoef>
-5.4800

> <Gold.Chemscore.Hbond>
3.4149

> <Gold.Chemscore.Metal>
0.0000

> <Gold.Chemscore.Lipo>
82.0251

> <Gold.Chemscore.Internal_Hbond>
0.0000

> <Gold.Chemscore.DEClash>
0.5141

> <Gold.Chemscore.DEInternal>
0.4693

> <Gold.Chemscore.Rot>
1.4860

> <Gold.Chemscore.Internal.Correction>
   9.000000E+99

> <Gold.Chemscore.Hbonds>
donor molecule, donor type, donor heavy atom, donor atom, acceptor molecule, acceptor atom, score
      L1  H     3    23       P1  7948  0.99
      L1  H     6    45       P1  7948  0.74
      L1  H    16    40       P1  7948  0.92
      P1  H 10752 10764       L1     9  0.06

> <Gold.Chemscore.Hbond.Weighted>
-11.4059

> <Gold.Chemscore.Metal.Weighted>
-0.0000

> <Gold.Chemscore.Lipo.Weighted>
-9.5969

> <Gold.Chemscore.Internal_Hbond.Weighted>
0.0000

> <Gold.Chemscore.DEClash.Weighted>
0.5141

> <Gold.Chemscore.DEInternal.Weighted>
0.4693

> <Gold.Chemscore.Rot.Weighted>
3.8042

> <Gold.Chemscore.Internal.Correction.Weighted>
   9.000000E+99

> <Gold.Protein.RotatedTorsions>
[ 6907 6896 6895 6894 ] final  -49.22 input  -60.11 | X-H torsion
[ 7974 7965 7964 7962 ] final  114.75 input  175.53 | X-H torsion
[ 8008 7997 7996 7995 ] final   10.79 input   59.86 | X-H torsion
[ 10167 10162 10161 10158 ] final   -8.76 input  -65.29 | X-H torsion
[ 10718 10713 10712 10709 ] final -126.95 input   66.30 | X-H torsion
[ 10763 10752 10751 10750 ] final  -49.52 input  -60.55 | X-H torsion
[ 11005 11000 10999 10996 ] final  -86.54 input  -57.11 | X-H torsion

> <Gold.Protein.ActiveResidues>
 VAL166  LYS551  ARG553  GLY616  TRP617  ASP618  TYR619  PRO620  LYS621  CYS622 
 ASP623  PHE694  ASN695  SER759  ASP760  ASP761  ALA762  ILE779  LEU786  VAL792 
 PHE793  MET794  SER795  GLU796  ALA797  LYS798  CYS799  TRP800  GLU811  SER814 

> <Gold.Protein.RotatedAtoms>
  150.8827  134.8220  159.7236 H   0  0  0  0  0  0  0  0  0  0  0  0  # atno 6907 bound_to 6896
  152.4788  134.4771  159.9664 H   0  0  0  0  0  0  0  0  0  0  0  0  # atno 6908 bound_to 6896
  151.4844  133.3500  159.2879 H   0  0  0  0  0  0  0  0  0  0  0  0  # atno 6909 bound_to 6896
  145.2006  139.2954  143.4320 H   0  0  0  0  0  0  0  0  0  0  0  0  # atno 7974 bound_to 7965
  154.7982  140.2847  155.5941 H   0  0  0  0  0  0  0  0  0  0  0  0  # atno 8008 bound_to 7997
  156.2973  140.2591  156.2773 H   0  0  0  0  0  0  0  0  0  0  0  0  # atno 8009 bound_to 7997
  154.9589  140.0378  157.2170 H   0  0  0  0  0  0  0  0  0  0  0  0  # atno 8010 bound_to 7997
  140.7068  143.5932  150.8872 H   0  0  0  0  0  0  0  0  0  0  0  0  # atno 10167 bound_to 10162
  156.1812  130.6733  151.0306 H   0  0  0  0  0  0  0  0  0  0  0  0  # atno 10718 bound_to 10713
  154.0954  135.6571  153.4859 H   0  0  0  0  0  0  0  0  0  0  0  0  # atno 10763 bound_to 10752
  153.0307  135.5212  154.7339 H   0  0  0  0  0  0  0  0  0  0  0  0  # atno 10764 bound_to 10752
  154.6475  135.2996  154.9997 H   0  0  0  0  0  0  0  0  0  0  0  0  # atno 10765 bound_to 10752
  141.1629  133.7460  156.9175 H   0  0  0  0  0  0  0  0  0  0  0  0  # atno 11005 bound_to 11000
  146.3418  140.2249  142.8592 LP  0  0  0  0  0  0  0  0  0  0  0  0  # atno 17320 bound_to 7965
  144.9952  140.8582  143.5315 LP  0  0  0  0  0  0  0  0  0  0  0  0  # atno 17321 bound_to 7965
  139.9658  143.6112  152.2989 LP  0  0  0  0  0  0  0  0  0  0  0  0  # atno 17342 bound_to 10162
  139.6681  144.7661  151.1834 LP  0  0  0  0  0  0  0  0  0  0  0  0  # atno 17343 bound_to 10162
  157.6869  131.0822  150.7217 LP  0  0  0  0  0  0  0  0  0  0  0  0  # atno 17370 bound_to 10713
  156.7274  130.4699  149.5508 LP  0  0  0  0  0  0  0  0  0  0  0  0  # atno 17371 bound_to 10713
  140.1474  134.9253  157.2547 LP  0  0  0  0  0  0  0  0  0  0  0  0  # atno 17394 bound_to 11000
  140.2764  134.3401  155.7357 LP  0  0  0  0  0  0  0  0  0  0  0  0  # atno 17395 bound_to 11000

$$$$
