AV-unprocessed.smi:2694|AV-procd|sdf|10406|dock1
  -GOLD-   2272014443D 1   1.00000     0.00000
 Structure written by MMmdl.
 42 44  0  0  0  0  0  0  0  0  1 V2000
  148.8388  139.0735  156.6353 O   0  0  0  0  0  0  0  0  0  0  0  0
  148.4254  139.9173  155.8397 C   0  0  0  0  0  0  0  0  0  0  0  0
  147.1111  140.5464  155.9700 C   0  0  0  0  0  0  0  0  0  0  0  0
  146.6907  141.4685  155.0713 C   0  0  0  0  0  0  0  0  0  0  0  0
  145.3186  142.1211  155.1690 C   0  0  0  0  0  0  0  0  0  0  0  0
  145.0503  143.2755  154.1895 C   0  0  0  0  0  0  0  0  0  0  0  0
  144.3034  143.9817  155.3263 C   0  0  0  0  0  0  0  0  0  0  0  0
  145.1333  143.1426  156.3041 C   0  0  0  0  0  0  0  0  0  0  0  0
  147.5029  141.8306  153.9904 N   0  0  0  0  0  0  0  0  0  0  0  0
  148.6705  141.2882  153.8522 C   0  0  0  0  0  0  0  0  0  0  0  0
  149.1568  140.3328  154.7648 N   0  0  0  0  0  0  0  0  0  0  0  0
  150.4981  139.7916  154.4928 C   0  0  0  0  0  0  0  0  0  0  0  0
  151.4782  140.0413  155.6613 C   0  0  1  0  0  0  0  0  0  0  0  0
  152.8160  139.9315  155.2175 O   0  0  0  0  0  0  0  0  0  0  0  0
  151.3095  141.4297  156.3023 C   0  0  0  0  0  0  0  0  0  0  0  0
  151.9373  141.4501  157.5784 O   0  0  0  0  0  0  0  0  0  0  0  0
  151.8344  142.5901  158.3473 C   0  0  0  0  0  0  0  0  0  0  0  0
  151.2448  143.7986  157.8957 C   0  0  0  0  0  0  0  0  0  0  0  0
  151.1747  144.9202  158.7446 C   0  0  0  0  0  0  0  0  0  0  0  0
  151.6914  144.8512  160.0512 C   0  0  0  0  0  0  0  0  0  0  0  0
  152.2798  143.6581  160.5082 C   0  0  0  0  0  0  0  0  0  0  0  0
  152.3509  142.5345  159.6613 C   0  0  0  0  0  0  0  0  0  0  0  0
  153.0802  141.0819  160.2466 Cl  0  0  0  0  0  0  0  0  0  0  0  0
  146.4748  140.2657  156.7966 H   0  0  0  0  0  0  0  0  0  0  0  0
  144.5165  141.3808  155.1537 H   0  0  0  0  0  0  0  0  0  0  0  0
  145.9526  143.8113  153.8889 H   0  0  0  0  0  0  0  0  0  0  0  0
  144.4316  143.0121  153.3311 H   0  0  0  0  0  0  0  0  0  0  0  0
  144.4732  145.0571  155.3875 H   0  0  0  0  0  0  0  0  0  0  0  0
  143.2405  143.7358  155.3525 H   0  0  0  0  0  0  0  0  0  0  0  0
  144.5828  142.7703  157.1685 H   0  0  0  0  0  0  0  0  0  0  0  0
  146.0575  143.6437  156.5985 H   0  0  0  0  0  0  0  0  0  0  0  0
  149.3409  141.5320  153.0262 H   0  0  0  0  0  0  0  0  0  0  0  0
  150.4669  138.7291  154.2415 H   0  0  0  0  0  0  0  0  0  0  0  0
  150.8861  140.2696  153.5913 H   0  0  0  0  0  0  0  0  0  0  0  0
  151.3334  139.2951  156.4433 H   0  0  0  0  0  0  0  0  0  0  0  0
  152.8259  139.4431  154.4086 H   0  0  0  0  0  0  0  0  0  0  0  0
  151.7887  142.1718  155.6616 H   0  0  0  0  0  0  0  0  0  0  0  0
  150.2518  141.6889  156.3762 H   0  0  0  0  0  0  0  0  0  0  0  0
  150.8373  143.8916  156.9007 H   0  0  0  0  0  0  0  0  0  0  0  0
  150.7231  145.8356  158.3915 H   0  0  0  0  0  0  0  0  0  0  0  0
  151.6368  145.7118  160.7016 H   0  0  0  0  0  0  0  0  0  0  0  0
  152.6772  143.6051  161.5113 H   0  0  0  0  0  0  0  0  0  0  0  0
  1  2  2  0  0  0  0
  2 11  1  0  0  0  0
  2  3  1  0  0  0  0
  3  4  2  0  0  0  0
  3 24  1  0  0  0  0
  4  5  1  0  0  0  0
  4  9  1  0  0  0  0
  5  8  1  0  0  0  0
  5  6  1  0  0  0  0
  5 25  1  0  0  0  0
  6  7  1  0  0  0  0
  6 26  1  0  0  0  0
  6 27  1  0  0  0  0
  7  8  1  0  0  0  0
  7 28  1  0  0  0  0
  7 29  1  0  0  0  0
  8 30  1  0  0  0  0
  8 31  1  0  0  0  0
  9 10  2  0  0  0  0
 10 11  1  0  0  0  0
 10 32  1  0  0  0  0
 11 12  1  0  0  0  0
 12 13  1  0  0  0  0
 12 33  1  0  0  0  0
 12 34  1  0  0  0  0
 13 14  1  0  0  0  0
 13 15  1  0  0  0  0
 13 35  1  0  0  0  0
 14 36  1  0  0  0  0
 15 16  1  0  0  0  0
 15 37  1  0  0  0  0
 15 38  1  0  0  0  0
 16 17  1  0  0  0  0
 17 22  1  0  0  0  0
 17 18  2  0  0  0  0
 18 19  1  0  0  0  0
 18 39  1  0  0  0  0
 19 20  2  0  0  0  0
 19 40  1  0  0  0  0
 20 21  1  0  0  0  0
 20 41  1  0  0  0  0
 21 22  2  0  0  0  0
 21 42  1  0  0  0  0
 22 23  1  0  0  0  0
M  END
> <s_m_source_file>
AV-unprocessed.smi

> <i_m_source_file_index>
2694

> <i_lp_mmshare_version>
43012

> <i_f3d_flags>
0

> <s_epik_input>
W0NIMl0xW0NIMl1bQ0gyXVtDSF0xYyhbY0hdYzI9TyluW2NIXW4yW0NIMl1bQ0BIXShbT0hdKVtDSDJdT2MzW2NIXVtjSF1bY0hdW2NIXWMzQ2w=

> <s_epik_cmdline>
J2VwaWtfcHl0aG9uJywgJy1waCcsICc3LjAnLCAnLXRuJywgJzgnLCAnLW1hJywgJzIwMCcsICctbWV0YWxfYmluZGluZycsICctaW1hZScsICc8aW5maWxlLm1hZT4nLCAnLW9tYWUnLCAnPG91dGZpbGUubWFlPic=

> <r_lp_tautomer_probability>
1

> <r_epik_Ionization_Penalty>
1.78212e-05

> <r_epik_Ionization_Penalty_Charging>
5.61663e-08

> <r_epik_Ionization_Penalty_Neutral>
1.7765e-05

> <r_epik_State_Penalty>
-0

> <r_epik_Charging_Adjusted_Penalty>
5.61663e-08

> <i_epik_Tot_Q>
0

> <i_epik_Tot_abs_Q>
0

> <r_epik_Metal_State_Penalty>
-0

> <b_epik_Metal_Only>
0

> <s_lp_Force_Field>
OPLS_2005

> <r_lp_Energy>
33.164

> <b_lp_Chiralities_Consistent>
1

> <s_lp_Variant>
AV-unprocessed.smi:2694-2

> <Gold.Version>
5.8.1

> <Gold.Id.Protein>
6NUR|6NUR_protein|mol2

> <Gold.PLP.Fitness>
53.7573

> <Gold.PLP.PLP>
-48.3024

> <Gold.PLP.part.hbond>
-1.5032

> <Gold.PLP.part.metal>
0.0000

> <Gold.PLP.part.buried>
-5.2427

> <Gold.PLP.part.nonpolar>
-41.7427

> <Gold.PLP.part.repulsive>
0.1588

> <Gold.PLP.ligand.clash>
0.0000

> <Gold.PLP.ligand.torsion>
0.5387

> <Gold.PLP.Chemscore.Hbond>
1.0000

> <Gold.PLP.Chemscore.CHOScore>
1.0000

> <Gold.PLP.Chemscore.Metal>
0.0000

> <Gold.Chemscore.Hbonds>
donor molecule, donor type, donor heavy atom, donor atom, acceptor molecule, acceptor atom, score
      P1  H  7997  8009       L1    14  1.00
      L1  C    10    32       P1  7957  0.84

> <Gold.PLP.Chemscore.Internal.Correction>
0.5323

> <Gold.Rescore>
     Score         DG    S(hbond)    S(metal)    S(lipo)     H(rot)  DE(clash)    DE(int)     intcor
     15.91     -16.70       0.99        0.00     120.57       2.42       0.07       0.72       ----

> <Gold.Chemscore.Fitness>
15.9134

> <Gold.Chemscore.DG>
-16.7017

> <Gold.Chemscore.ZeroCoef>
-5.4800

> <Gold.Chemscore.Hbond>
0.9946

> <Gold.Chemscore.Metal>
0.0000

> <Gold.Chemscore.Lipo>
120.5662

> <Gold.Chemscore.Internal_Hbond>
0.0000

> <Gold.Chemscore.DEClash>
0.0650

> <Gold.Chemscore.DEInternal>
0.7232

> <Gold.Chemscore.Rot>
2.4245

> <Gold.Chemscore.Internal.Correction>
   9.000000E+99

> <Gold.Chemscore.Hbonds>
donor molecule, donor type, donor heavy atom, donor atom, acceptor molecule, acceptor atom, score
      P1  H  7997  8009       L1    14  0.85

> <Gold.Chemscore.Hbond.Weighted>
-3.3220

> <Gold.Chemscore.Metal.Weighted>
-0.0000

> <Gold.Chemscore.Lipo.Weighted>
-14.1062

> <Gold.Chemscore.Internal_Hbond.Weighted>
0.0000

> <Gold.Chemscore.DEClash.Weighted>
0.0650

> <Gold.Chemscore.DEInternal.Weighted>
0.7232

> <Gold.Chemscore.Rot.Weighted>
6.2066

> <Gold.Chemscore.Internal.Correction.Weighted>
   9.000000E+99

> <Gold.Protein.RotatedTorsions>
[ 6907 6896 6895 6894 ] final   41.62 input  -60.11 | X-H torsion
[ 7974 7965 7964 7962 ] final  100.89 input  175.53 | X-H torsion
[ 8008 7997 7996 7995 ] final -134.53 input   59.86 | X-H torsion
[ 10167 10162 10161 10158 ] final -172.45 input  -65.29 | X-H torsion
[ 10718 10713 10712 10709 ] final   71.42 input   66.30 | X-H torsion
[ 10763 10752 10751 10750 ] final -117.77 input  -60.55 | X-H torsion
[ 11005 11000 10999 10996 ] final  -40.55 input  -57.11 | X-H torsion

> <Gold.Protein.ActiveResidues>
 VAL166  LYS551  ARG553  GLY616  TRP617  ASP618  TYR619  PRO620  LYS621  CYS622 
 ASP623  PHE694  ASN695  SER759  ASP760  ASP761  ALA762  ILE779  LEU786  VAL792 
 PHE793  MET794  SER795  GLU796  ALA797  LYS798  CYS799  TRP800  GLU811  SER814 

> <Gold.Protein.RotatedAtoms>
  152.1975  134.8617  160.0511 H   0  0  0  0  0  0  0  0  0  0  0  0  # atno 6907 bound_to 6896
  151.9483  133.3653  159.3998 H   0  0  0  0  0  0  0  0  0  0  0  0  # atno 6908 bound_to 6896
  150.6948  134.4291  159.5284 H   0  0  0  0  0  0  0  0  0  0  0  0  # atno 6909 bound_to 6896
  145.3795  139.2382  143.3411 H   0  0  0  0  0  0  0  0  0  0  0  0  # atno 7974 bound_to 7965
  155.3637  140.0484  157.3046 H   0  0  0  0  0  0  0  0  0  0  0  0  # atno 8008 bound_to 7997
  154.5165  140.2210  155.9019 H   0  0  0  0  0  0  0  0  0  0  0  0  # atno 8009 bound_to 7997
  156.1642  140.3110  155.8866 H   0  0  0  0  0  0  0  0  0  0  0  0  # atno 8010 bound_to 7997
  139.5744  144.1567  152.1429 H   0  0  0  0  0  0  0  0  0  0  0  0  # atno 10167 bound_to 10162
  157.6451  130.9527  150.0787 H   0  0  0  0  0  0  0  0  0  0  0  0  # atno 10718 bound_to 10713
  154.8566  135.4298  154.2032 H   0  0  0  0  0  0  0  0  0  0  0  0  # atno 10763 bound_to 10752
  153.3074  135.6973  153.7152 H   0  0  0  0  0  0  0  0  0  0  0  0  # atno 10764 bound_to 10752
  153.6258  135.3493  155.3000 H   0  0  0  0  0  0  0  0  0  0  0  0  # atno 10765 bound_to 10752
  141.0183  133.6875  156.2337 H   0  0  0  0  0  0  0  0  0  0  0  0  # atno 11005 bound_to 11000
  146.2848  140.4460  142.8762 LP  0  0  0  0  0  0  0  0  0  0  0  0  # atno 17320 bound_to 7965
  144.8518  140.7012  143.6163 LP  0  0  0  0  0  0  0  0  0  0  0  0  # atno 17321 bound_to 7965
  140.1107  144.5459  150.6927 LP  0  0  0  0  0  0  0  0  0  0  0  0  # atno 17342 bound_to 10162
  140.7027  143.2446  151.4817 LP  0  0  0  0  0  0  0  0  0  0  0  0  # atno 17343 bound_to 10162
  156.1770  130.3648  149.9087 LP  0  0  0  0  0  0  0  0  0  0  0  0  # atno 17370 bound_to 10713
  156.7049  130.8947  151.3603 LP  0  0  0  0  0  0  0  0  0  0  0  0  # atno 17371 bound_to 10713
  140.6617  134.4961  157.5583 LP  0  0  0  0  0  0  0  0  0  0  0  0  # atno 17394 bound_to 11000
  139.9130  134.8304  156.1461 LP  0  0  0  0  0  0  0  0  0  0  0  0  # atno 17395 bound_to 11000

$$$$
