AV-unprocessed.smi:2496|AV-procd|sdf|9828|dock6
  -GOLD-   2272013453D 1   1.00000     0.00000
 Structure written by MMmdl.
 40 40  0  0  0  0  0  0  0  0  1 V2000
  146.8864  142.3591  155.7107 C   0  0  0  0  0  0  0  0  0  0  0  0
  147.9935  141.5425  155.1042 C   0  0  0  0  0  0  0  0  0  0  0  0
  148.1783  141.6053  153.7939 N   0  0  0  0  0  0  0  0  0  0  0  0
  149.2137  140.7798  153.5703 N   0  0  0  0  0  0  0  0  0  0  0  0
  149.6926  140.1944  154.7175 C   0  0  0  0  0  0  0  0  0  0  0  0
  150.8377  139.2379  154.7001 C   0  0  0  0  0  0  0  0  0  0  0  0
  148.9250  140.6650  155.7492 C   0  0  0  0  0  0  0  0  0  0  0  0
  149.0500  140.3106  157.2171 C   0  0  1  0  0  0  0  0  0  0  0  0
  148.7554  138.8227  157.4849 C   0  0  0  0  0  0  0  0  0  0  0  0
  150.4233  140.7601  157.7396 C   0  0  0  0  0  0  0  0  0  0  0  0
  151.2320  139.9404  158.1765 O   0  0  0  0  0  0  0  0  0  0  0  0
  150.6643  142.0807  157.6901 N   0  0  0  0  0  0  0  0  0  0  0  0
  151.8986  142.7528  158.0950 C   0  0  1  0  0  0  0  0  0  0  0  0
  151.7533  144.2456  157.7524 C   0  0  0  0  0  0  0  0  0  0  0  0
  152.1975  142.4914  159.5960 C   0  0  0  0  0  0  0  0  0  0  0  0
  152.7072  143.7522  160.3172 C   0  0  0  0  0  0  0  0  0  0  0  0
  153.2033  141.3423  159.8043 C   0  0  0  0  0  0  0  0  0  0  0  0
  149.5782  140.6269  152.6408 H   0  0  0  0  0  0  0  0  0  0  0  0
  146.3581  141.8015  156.4830 H   0  0  0  0  0  0  0  0  0  0  0  0
  146.1489  142.6545  154.9635 H   0  0  0  0  0  0  0  0  0  0  0  0
  147.2771  143.2695  156.1647 H   0  0  0  0  0  0  0  0  0  0  0  0
  150.5287  138.2616  155.0737 H   0  0  0  0  0  0  0  0  0  0  0  0
  151.6510  139.5990  155.3298 H   0  0  0  0  0  0  0  0  0  0  0  0
  151.2280  139.1035  153.6908 H   0  0  0  0  0  0  0  0  0  0  0  0
  148.3147  140.8737  157.7935 H   0  0  0  0  0  0  0  0  0  0  0  0
  149.4568  138.1646  156.9726 H   0  0  0  0  0  0  0  0  0  0  0  0
  147.7515  138.5611  157.1493 H   0  0  0  0  0  0  0  0  0  0  0  0
  148.8108  138.5966  158.5504 H   0  0  0  0  0  0  0  0  0  0  0  0
  149.9352  142.6706  157.3164 H   0  0  0  0  0  0  0  0  0  0  0  0
  152.7366  142.3660  157.5124 H   0  0  0  0  0  0  0  0  0  0  0  0
  152.6817  144.7918  157.9149 H   0  0  0  0  0  0  0  0  0  0  0  0
  150.9754  144.7178  158.3536 H   0  0  0  0  0  0  0  0  0  0  0  0
  151.4870  144.3805  156.7032 H   0  0  0  0  0  0  0  0  0  0  0  0
  151.2658  142.1939  160.0797 H   0  0  0  0  0  0  0  0  0  0  0  0
  153.6060  144.1446  159.8406 H   0  0  0  0  0  0  0  0  0  0  0  0
  152.9528  143.5371  161.3576 H   0  0  0  0  0  0  0  0  0  0  0  0
  151.9598  144.5445  160.3284 H   0  0  0  0  0  0  0  0  0  0  0  0
  154.1445  141.5445  159.2922 H   0  0  0  0  0  0  0  0  0  0  0  0
  152.8189  140.3925  159.4322 H   0  0  0  0  0  0  0  0  0  0  0  0
  153.4253  141.2003  160.8622 H   0  0  0  0  0  0  0  0  0  0  0  0
  1  2  1  0  0  0  0
  1 19  1  0  0  0  0
  1 20  1  0  0  0  0
  1 21  1  0  0  0  0
  2  7  1  0  0  0  0
  2  3  2  0  0  0  0
  3  4  1  0  0  0  0
  4 18  1  0  0  0  0
  4  5  1  0  0  0  0
  5  6  1  0  0  0  0
  5  7  2  0  0  0  0
  6 22  1  0  0  0  0
  6 23  1  0  0  0  0
  6 24  1  0  0  0  0
  7  8  1  0  0  0  0
  8  9  1  0  0  0  0
  8 10  1  0  0  0  0
  8 25  1  0  0  0  0
  9 26  1  0  0  0  0
  9 27  1  0  0  0  0
  9 28  1  0  0  0  0
 10 11  2  0  0  0  0
 10 12  1  0  0  0  0
 12 13  1  0  0  0  0
 12 29  1  0  0  0  0
 13 14  1  0  0  0  0
 13 15  1  0  0  0  0
 13 30  1  0  0  0  0
 14 31  1  0  0  0  0
 14 32  1  0  0  0  0
 14 33  1  0  0  0  0
 15 16  1  0  0  0  0
 15 17  1  0  0  0  0
 15 34  1  0  0  0  0
 16 35  1  0  0  0  0
 16 36  1  0  0  0  0
 16 37  1  0  0  0  0
 17 38  1  0  0  0  0
 17 39  1  0  0  0  0
 17 40  1  0  0  0  0
M  END
> <s_m_source_file>
AV-unprocessed.smi

> <i_m_source_file_index>
2496

> <i_lp_mmshare_version>
43012

> <i_f3d_flags>
0

> <s_epik_input>
W0NIM11jMW5bbkhdYyhbQ0gzXSljMVtDQEhdKFtDSDNdKUMoPU8pW05IXVtDQEhdKFtDSDNdKVtDSF0oW0NIM10pW0NIM10=

> <s_epik_cmdline>
J2VwaWtfcHl0aG9uJywgJy1waCcsICc3LjAnLCAnLXRuJywgJzgnLCAnLW1hJywgJzIwMCcsICctbWV0YWxfYmluZGluZycsICctaW1hZScsICc8aW5maWxlLm1hZT4nLCAnLW9tYWUnLCAnPG91dGZpbGUubWFlPic=

> <r_lp_tautomer_probability>
1

> <r_epik_Ionization_Penalty>
0.000456212

> <r_epik_Ionization_Penalty_Charging>
0

> <r_epik_Ionization_Penalty_Neutral>
0.000456212

> <r_epik_State_Penalty>
-0

> <r_epik_Charging_Adjusted_Penalty>
0

> <i_epik_Tot_Q>
0

> <i_epik_Tot_abs_Q>
0

> <r_epik_Metal_State_Penalty>
-0

> <b_epik_Metal_Only>
0

> <s_lp_Force_Field>
OPLS_2005

> <r_lp_Energy>
2.25398

> <b_lp_Chiralities_Consistent>
1

> <s_lp_Variant>
AV-unprocessed.smi:2496-4

> <Gold.Version>
5.8.1

> <Gold.Id.Protein>
6NUR|6NUR_protein|mol2

> <Gold.PLP.Fitness>
32.4115

> <Gold.PLP.PLP>
-31.7450

> <Gold.PLP.part.hbond>
-1.7721

> <Gold.PLP.part.metal>
0.0000

> <Gold.PLP.part.buried>
-3.9572

> <Gold.PLP.part.nonpolar>
-26.6272

> <Gold.PLP.part.repulsive>
1.4754

> <Gold.PLP.ligand.clash>
0.0000

> <Gold.PLP.ligand.torsion>
1.2221

> <Gold.PLP.Chemscore.Hbond>
1.0000

> <Gold.PLP.Chemscore.CHOScore>
0.0000

> <Gold.PLP.Chemscore.Metal>
0.0000

> <Gold.Chemscore.Hbonds>
donor molecule, donor type, donor heavy atom, donor atom, acceptor molecule, acceptor atom, score
      L1  H     4    18       P1  7957  1.00

> <Gold.PLP.Chemscore.Internal.Correction>
0.1107

> <Gold.Rescore>
     Score         DG    S(hbond)    S(metal)    S(lipo)     H(rot)  DE(clash)    DE(int)     intcor
     13.06     -15.38       0.99        0.00      88.36       1.47       0.08       2.24       ----

> <Gold.Chemscore.Fitness>
13.0646

> <Gold.Chemscore.DG>
-15.3771

> <Gold.Chemscore.ZeroCoef>
-5.4800

> <Gold.Chemscore.Hbond>
0.9917

> <Gold.Chemscore.Metal>
0.0000

> <Gold.Chemscore.Lipo>
88.3602

> <Gold.Chemscore.Internal_Hbond>
0.0000

> <Gold.Chemscore.DEClash>
0.0768

> <Gold.Chemscore.DEInternal>
2.2357

> <Gold.Chemscore.Rot>
1.4662

> <Gold.Chemscore.Internal.Correction>
   9.000000E+99

> <Gold.Chemscore.Hbonds>
donor molecule, donor type, donor heavy atom, donor atom, acceptor molecule, acceptor atom, score
      L1  H     4    18       P1  7957  0.97

> <Gold.Chemscore.Hbond.Weighted>
-3.3123

> <Gold.Chemscore.Metal.Weighted>
-0.0000

> <Gold.Chemscore.Lipo.Weighted>
-10.3381

> <Gold.Chemscore.Internal_Hbond.Weighted>
0.0000

> <Gold.Chemscore.DEClash.Weighted>
0.0768

> <Gold.Chemscore.DEInternal.Weighted>
2.2357

> <Gold.Chemscore.Rot.Weighted>
3.7534

> <Gold.Chemscore.Internal.Correction.Weighted>
   9.000000E+99

> <Gold.Protein.RotatedTorsions>
[ 6907 6896 6895 6894 ] final  -90.86 input  -60.11 | X-H torsion
[ 7974 7965 7964 7962 ] final  -58.92 input  175.53 | X-H torsion
[ 8008 7997 7996 7995 ] final   -1.23 input   59.86 | X-H torsion
[ 10167 10162 10161 10158 ] final  106.20 input  -65.29 | X-H torsion
[ 10718 10713 10712 10709 ] final   59.84 input   66.30 | X-H torsion
[ 10763 10752 10751 10750 ] final  -58.27 input  -60.55 | X-H torsion
[ 11005 11000 10999 10996 ] final -116.57 input  -57.11 | X-H torsion

> <Gold.Protein.ActiveResidues>
 VAL166  LYS551  ARG553  GLY616  TRP617  ASP618  TYR619  PRO620  LYS621  CYS622 
 ASP623  PHE694  ASN695  SER759  ASP760  ASP761  ALA762  ILE779  LEU786  VAL792 
 PHE793  MET794  SER795  GLU796  ALA797  LYS798  CYS799  TRP800  GLU811  SER814 

> <Gold.Protein.RotatedAtoms>
  150.6886  134.2367  159.4455 H   0  0  0  0  0  0  0  0  0  0  0  0  # atno 6907 bound_to 6896
  152.0314  134.9763  160.0582 H   0  0  0  0  0  0  0  0  0  0  0  0  # atno 6908 bound_to 6896
  152.1301  133.4368  159.4753 H   0  0  0  0  0  0  0  0  0  0  0  0  # atno 6909 bound_to 6896
  145.8336  140.8464  143.0071 H   0  0  0  0  0  0  0  0  0  0  0  0  # atno 7974 bound_to 7965
  154.6491  140.2564  155.7234 H   0  0  0  0  0  0  0  0  0  0  0  0  # atno 8008 bound_to 7997
  156.2566  140.2871  156.0838 H   0  0  0  0  0  0  0  0  0  0  0  0  # atno 8009 bound_to 7997
  155.1479  140.0381  157.2804 H   0  0  0  0  0  0  0  0  0  0  0  0  # atno 8010 bound_to 7997
  139.7029  144.7091  151.1156 H   0  0  0  0  0  0  0  0  0  0  0  0  # atno 10167 bound_to 10162
  157.5707  130.8905  149.9262 H   0  0  0  0  0  0  0  0  0  0  0  0  # atno 10718 bound_to 10713
  154.2355  135.6353  153.5189 H   0  0  0  0  0  0  0  0  0  0  0  0  # atno 10763 bound_to 10752
  152.9940  135.5529  154.5966 H   0  0  0  0  0  0  0  0  0  0  0  0  # atno 10764 bound_to 10752
  154.5459  135.2898  155.1027 H   0  0  0  0  0  0  0  0  0  0  0  0  # atno 10765 bound_to 10752
  141.0413  133.9831  157.2990 H   0  0  0  0  0  0  0  0  0  0  0  0  # atno 11005 bound_to 11000
  144.6738  140.0708  143.7473 LP  0  0  0  0  0  0  0  0  0  0  0  0  # atno 17320 bound_to 7965
  145.9544  139.2756  143.1193 LP  0  0  0  0  0  0  0  0  0  0  0  0  # atno 17321 bound_to 7965
  140.7714  143.5399  150.9324 LP  0  0  0  0  0  0  0  0  0  0  0  0  # atno 17342 bound_to 10162
  139.9082  143.6753  152.3120 LP  0  0  0  0  0  0  0  0  0  0  0  0  # atno 17343 bound_to 10162
  156.0753  130.3680  150.0691 LP  0  0  0  0  0  0  0  0  0  0  0  0  # atno 17370 bound_to 10713
  156.8844  130.9567  151.3596 LP  0  0  0  0  0  0  0  0  0  0  0  0  # atno 17371 bound_to 10713
  139.9278  135.0201  156.8295 LP  0  0  0  0  0  0  0  0  0  0  0  0  # atno 17394 bound_to 11000
  140.6229  133.9977  155.7626 LP  0  0  0  0  0  0  0  0  0  0  0  0  # atno 17395 bound_to 11000

$$$$
