AV-unprocessed.smi:1525|AV-procd|sdf|6143|dock1
  -GOLD-   22720 6283D 1   1.00000     0.00000
 Structure written by MMmdl.
 49 51  0  0  0  0  0  0  0  0  2 V2000
  148.7398  144.2622  161.3934 O   0  0  0  0  0  0  0  0  0  0  0  0
  148.5253  144.8092  160.3118 C   0  0  0  0  0  0  0  0  0  0  0  0
  149.4919  145.3000  159.5237 N   0  0  0  0  0  0  0  0  0  0  0  0
  150.9159  145.2736  159.8345 C   0  0  0  0  0  0  0  0  0  0  0  0
  151.6840  144.3856  158.8379 C   0  0  0  0  0  0  0  0  0  0  0  0
  152.0581  143.0679  159.3471 N   0  0  0  0  0  0  0  0  0  0  0  0
  152.3020  142.1361  158.2507 C   0  0  0  0  0  0  0  0  0  0  0  0
  152.7013  140.7396  158.7579 C   0  0  0  0  0  0  0  0  0  0  0  0
  153.8513  140.8472  159.5902 O   0  0  0  0  0  0  0  0  0  0  0  0
  153.6440  141.7128  160.7015 C   0  0  0  0  0  0  0  0  0  0  0  0
  153.2427  143.1122  160.2021 C   0  0  0  0  0  0  0  0  0  0  0  0
  147.3094  145.0152  159.7786 N   0  0  0  0  0  0  0  0  0  0  0  0
  146.0430  144.6540  160.3206 C   0  0  0  0  0  0  0  0  0  0  0  0
  145.9057  144.1685  161.6464 C   0  0  0  0  0  0  0  0  0  0  0  0
  144.6327  143.8169  162.1351 C   0  0  0  0  0  0  0  0  0  0  0  0
  143.5173  143.9465  161.2889 C   0  0  0  0  0  0  0  0  0  0  0  0
  143.6835  144.3953  160.0275 N   0  3  0  0  0  0  0  0  0  0  0  0
  144.8831  144.7498  159.5036 C   0  0  0  0  0  0  0  0  0  0  0  0
  144.9402  145.1816  158.1612 N   0  0  0  0  0  0  0  0  0  0  0  0
  144.6325  144.1375  157.1869 C   0  0  0  0  0  0  0  0  0  0  0  0
  143.8239  144.8052  156.0717 C   0  0  0  0  0  0  0  0  0  0  0  0
  143.1776  145.9937  156.7727 C   0  0  0  0  0  0  0  0  0  0  0  0
  144.2565  146.4129  157.7686 C   0  0  0  0  0  0  0  0  0  0  0  0
  149.2264  145.7342  158.6521 H   0  0  0  0  0  0  0  0  0  0  0  0
  151.3045  146.2926  159.8444 H   0  0  0  0  0  0  0  0  0  0  0  0
  151.0345  144.8848  160.8460 H   0  0  0  0  0  0  0  0  0  0  0  0
  151.0512  144.2531  157.9591 H   0  0  0  0  0  0  0  0  0  0  0  0
  152.5753  144.9089  158.4877 H   0  0  0  0  0  0  0  0  0  0  0  0
  151.4084  142.0509  157.6313 H   0  0  0  0  0  0  0  0  0  0  0  0
  153.0925  142.5233  157.6057 H   0  0  0  0  0  0  0  0  0  0  0  0
  151.8821  140.2806  159.3134 H   0  0  0  0  0  0  0  0  0  0  0  0
  152.9286  140.0817  157.9191 H   0  0  0  0  0  0  0  0  0  0  0  0
  152.8723  141.2997  161.3529 H   0  0  0  0  0  0  0  0  0  0  0  0
  154.5616  141.7677  161.2870 H   0  0  0  0  0  0  0  0  0  0  0  0
  154.0777  143.5530  159.6551 H   0  0  0  0  0  0  0  0  0  0  0  0
  153.0634  143.7500  161.0669 H   0  0  0  0  0  0  0  0  0  0  0  0
  147.2818  145.5709  158.9365 H   0  0  0  0  0  0  0  0  0  0  0  0
  146.7603  144.0478  162.2945 H   0  0  0  0  0  0  0  0  0  0  0  0
  144.5157  143.4483  163.1438 H   0  0  0  0  0  0  0  0  0  0  0  0
  142.5058  143.6983  161.5764 H   0  0  0  0  0  0  0  0  0  0  0  0
  145.5437  143.6847  156.7954 H   0  0  0  0  0  0  0  0  0  0  0  0
  144.0405  143.3484  157.6537 H   0  0  0  0  0  0  0  0  0  0  0  0
  144.4955  145.1610  155.2890 H   0  0  0  0  0  0  0  0  0  0  0  0
  143.0985  144.1326  155.6132 H   0  0  0  0  0  0  0  0  0  0  0  0
  142.8965  146.7945  156.0880 H   0  0  0  0  0  0  0  0  0  0  0  0
  142.2821  145.6706  157.3052 H   0  0  0  0  0  0  0  0  0  0  0  0
  143.8421  146.9880  158.5966 H   0  0  0  0  0  0  0  0  0  0  0  0
  144.9871  147.0544  157.2752 H   0  0  0  0  0  0  0  0  0  0  0  0
  142.8582  144.4674  159.4322 H   0  0  0  0  0  0  0  0  0  0  0  0
  1  2  2  0  0  0  0
  2  3  1  0  0  0  0
  2 12  1  0  0  0  0
  3  4  1  0  0  0  0
  3 24  1  0  0  0  0
  4  5  1  0  0  0  0
  4 25  1  0  0  0  0
  4 26  1  0  0  0  0
  5  6  1  0  0  0  0
  5 27  1  0  0  0  0
  5 28  1  0  0  0  0
  6 11  1  0  0  0  0
  6  7  1  0  0  0  0
  7  8  1  0  0  0  0
  7 29  1  0  0  0  0
  7 30  1  0  0  0  0
  8  9  1  0  0  0  0
  8 31  1  0  0  0  0
  8 32  1  0  0  0  0
  9 10  1  0  0  0  0
 10 11  1  0  0  0  0
 10 33  1  0  0  0  0
 10 34  1  0  0  0  0
 11 35  1  0  0  0  0
 11 36  1  0  0  0  0
 12 13  1  0  0  0  0
 12 37  1  0  0  0  0
 13 18  1  0  0  0  0
 13 14  2  0  0  0  0
 14 15  1  0  0  0  0
 14 38  1  0  0  0  0
 15 16  2  0  0  0  0
 15 39  1  0  0  0  0
 16 17  1  0  0  0  0
 16 40  1  0  0  0  0
 17 18  2  0  0  0  0
 17 49  1  0  0  0  0
 18 19  1  0  0  0  0
 19 23  1  0  0  0  0
 19 20  1  0  0  0  0
 20 21  1  0  0  0  0
 20 41  1  0  0  0  0
 20 42  1  0  0  0  0
 21 22  1  0  0  0  0
 21 43  1  0  0  0  0
 21 44  1  0  0  0  0
 22 23  1  0  0  0  0
 22 45  1  0  0  0  0
 22 46  1  0  0  0  0
 23 47  1  0  0  0  0
 23 48  1  0  0  0  0
M  CHG  1  17   1
M  END
> <s_m_source_file>
AV-unprocessed.smi

> <i_m_source_file_index>
1525

> <i_lp_mmshare_version>
43012

> <i_f3d_flags>
0

> <s_epik_input>
W0NIMl0xW0NIMl1PW0NIMl1bQ0gyXU4xW0NIMl1bQ0gyXVtOSF1DKD1PKVtOSF1jMltjSF1bY0hdW2NIXW5jMk4zW0NIMl1bQ0gyXVtDSDJdW0NIMl0z

> <s_epik_cmdline>
J2VwaWtfcHl0aG9uJywgJy1waCcsICc3LjAnLCAnLXRuJywgJzgnLCAnLW1hJywgJzIwMCcsICctbWV0YWxfYmluZGluZycsICctaW1hZScsICc8aW5maWxlLm1hZT4nLCAnLW9tYWUnLCAnPG91dGZpbGUubWFlPic=

> <r_epik_Ionization_Penalty>
1.38385

> <r_epik_Ionization_Penalty_Charging>
1.11784

> <r_epik_Ionization_Penalty_Neutral>
0.26601

> <r_epik_State_Penalty>
1.46794

> <r_epik_Charging_Adjusted_Penalty>
2.58578

> <i_epik_Tot_Q>
1

> <i_epik_Tot_abs_Q>
1

> <r_epik_Metal_State_Penalty>
1.54909

> <b_epik_Metal_Only>
0

> <s_lp_Force_Field>
OPLS_2005

> <r_lp_Energy>
56.1891

> <b_lp_Chiralities_Consistent>
1

> <s_lp_Variant>
AV-unprocessed.smi:1525-3

> <Gold.Version>
5.8.1

> <Gold.Id.Protein>
6NUR|6NUR_protein|mol2

> <Gold.PLP.Fitness>
50.2112

> <Gold.PLP.PLP>
-42.9412

> <Gold.PLP.part.hbond>
-3.0000

> <Gold.PLP.part.metal>
0.0000

> <Gold.PLP.part.buried>
-9.8482

> <Gold.PLP.part.nonpolar>
-31.7415

> <Gold.PLP.part.repulsive>
0.7774

> <Gold.PLP.ligand.clash>
0.0000

> <Gold.PLP.ligand.torsion>
0.6097

> <Gold.PLP.Chemscore.Hbond>
2.7600

> <Gold.PLP.Chemscore.CHOScore>
0.0000

> <Gold.PLP.Chemscore.Metal>
0.0000

> <Gold.Chemscore.Hbonds>
donor molecule, donor type, donor heavy atom, donor atom, acceptor molecule, acceptor atom, score
      L1  H     3    24       P1  8029  0.98
      L1  H    12    37       P1  8029  1.00
      P1  H  6933  6944       L1     1  0.72

> <Gold.PLP.Chemscore.Internal.Correction>
0.2096

> <Gold.Rescore>
     Score         DG    S(hbond)    S(metal)    S(lipo)     H(rot)  DE(clash)    DE(int)     intcor
     20.30     -22.53       2.85        0.00      99.99       1.63       0.04       2.18       ----

> <Gold.Chemscore.Fitness>
20.2996

> <Gold.Chemscore.DG>
-22.5255

> <Gold.Chemscore.ZeroCoef>
-5.4800

> <Gold.Chemscore.Hbond>
2.8517

> <Gold.Chemscore.Metal>
0.0000

> <Gold.Chemscore.Lipo>
99.9948

> <Gold.Chemscore.Internal_Hbond>
0.0000

> <Gold.Chemscore.DEClash>
0.0432

> <Gold.Chemscore.DEInternal>
2.1827

> <Gold.Chemscore.Rot>
1.6323

> <Gold.Chemscore.Internal.Correction>
   9.000000E+99

> <Gold.Chemscore.Hbonds>
donor molecule, donor type, donor heavy atom, donor atom, acceptor molecule, acceptor atom, score
      L1  H     3    24       P1  8029  0.93
      L1  H    12    37       P1  8029  0.96
      P1  H  6933  6944       L1     1  0.68

> <Gold.Chemscore.Hbond.Weighted>
-9.5247

> <Gold.Chemscore.Metal.Weighted>
-0.0000

> <Gold.Chemscore.Lipo.Weighted>
-11.6994

> <Gold.Chemscore.Internal_Hbond.Weighted>
0.0000

> <Gold.Chemscore.DEClash.Weighted>
0.0432

> <Gold.Chemscore.DEInternal.Weighted>
2.1827

> <Gold.Chemscore.Rot.Weighted>
4.1786

> <Gold.Chemscore.Internal.Correction.Weighted>
   9.000000E+99

> <Gold.Protein.RotatedTorsions>
[ 6907 6896 6895 6894 ] final   -3.28 input  -60.11 | X-H torsion
[ 7974 7965 7964 7962 ] final  -81.06 input  175.53 | X-H torsion
[ 8008 7997 7996 7995 ] final   48.10 input   59.86 | X-H torsion
[ 10167 10162 10161 10158 ] final  170.84 input  -65.29 | X-H torsion
[ 10718 10713 10712 10709 ] final  170.00 input   66.30 | X-H torsion
[ 10763 10752 10751 10750 ] final   18.75 input  -60.55 | X-H torsion
[ 11005 11000 10999 10996 ] final   80.44 input  -57.11 | X-H torsion

> <Gold.Protein.ActiveResidues>
 VAL166  LYS551  ARG553  GLY616  TRP617  ASP618  TYR619  PRO620  LYS621  CYS622 
 ASP623  PHE694  ASN695  SER759  ASP760  ASP761  ALA762  ILE779  LEU786  VAL792 
 PHE793  MET794  SER795  GLU796  ALA797  LYS798  CYS799  TRP800  GLU811  SER814 

> <Gold.Protein.RotatedAtoms>
  151.5163  135.1066  159.9866 H   0  0  0  0  0  0  0  0  0  0  0  0  # atno 6907 bound_to 6896
  152.4640  133.7879  159.6896 H   0  0  0  0  0  0  0  0  0  0  0  0  # atno 6908 bound_to 6896
  150.8615  133.7573  159.3016 H   0  0  0  0  0  0  0  0  0  0  0  0  # atno 6909 bound_to 6896
  145.5516  140.9496  143.1496 H   0  0  0  0  0  0  0  0  0  0  0  0  # atno 7974 bound_to 7965
  155.3800  140.3428  155.4246 H   0  0  0  0  0  0  0  0  0  0  0  0  # atno 8008 bound_to 7997
  156.1616  140.1602  156.8636 H   0  0  0  0  0  0  0  0  0  0  0  0  # atno 8009 bound_to 7997
  154.5145  140.0782  156.8035 H   0  0  0  0  0  0  0  0  0  0  0  0  # atno 8010 bound_to 7997
  139.5029  144.3552  151.9881 H   0  0  0  0  0  0  0  0  0  0  0  0  # atno 10167 bound_to 10162
  157.0145  131.0214  151.2793 H   0  0  0  0  0  0  0  0  0  0  0  0  # atno 10718 bound_to 10713
  153.1222  135.6721  153.9317 H   0  0  0  0  0  0  0  0  0  0  0  0  # atno 10763 bound_to 10752
  153.8829  135.3056  155.3447 H   0  0  0  0  0  0  0  0  0  0  0  0  # atno 10764 bound_to 10752
  154.7632  135.4977  153.9583 H   0  0  0  0  0  0  0  0  0  0  0  0  # atno 10765 bound_to 10752
  139.9134  134.7920  156.1909 H   0  0  0  0  0  0  0  0  0  0  0  0  # atno 11005 bound_to 11000
  144.7526  139.7154  143.7267 LP  0  0  0  0  0  0  0  0  0  0  0  0  # atno 17320 bound_to 7965
  146.1913  139.5154  142.9803 LP  0  0  0  0  0  0  0  0  0  0  0  0  # atno 17321 bound_to 7965
  140.2989  144.3669  150.6066 LP  0  0  0  0  0  0  0  0  0  0  0  0  # atno 17342 bound_to 10162
  140.5889  143.2169  151.7290 LP  0  0  0  0  0  0  0  0  0  0  0  0  # atno 17343 bound_to 10162
  157.5296  130.8050  149.7901 LP  0  0  0  0  0  0  0  0  0  0  0  0  # atno 17370 bound_to 10713
  156.0124  130.3827  150.2221 LP  0  0  0  0  0  0  0  0  0  0  0  0  # atno 17371 bound_to 10713
  141.0584  133.6854  156.1905 LP  0  0  0  0  0  0  0  0  0  0  0  0  # atno 17394 bound_to 11000
  140.6700  134.4878  157.5587 LP  0  0  0  0  0  0  0  0  0  0  0  0  # atno 17395 bound_to 11000

$$$$
