AV-unprocessed.smi:2059|AV-procd|sdf|8353|dock1
  -GOLD-   2272011 23D 1   1.00000     0.00000
 Structure written by MMmdl.
 29 30  0  0  0  0  0  0  0  0  2 V2000
  149.8193  134.5783  154.9420 C   0  0  0  0  0  0  0  0  0  0  0  0
  150.3750  135.8308  155.5276 C   0  0  0  0  0  0  0  0  0  0  0  0
  149.9163  137.1170  155.5769 C   0  0  0  0  0  0  0  0  0  0  0  0
  150.9402  137.8008  156.2865 C   0  0  0  0  0  0  0  0  0  0  0  0
  150.8151  139.1960  156.5470 N   0  0  0  0  0  0  0  0  0  0  0  0
  151.4284  140.2681  156.0008 C   0  0  0  0  0  0  0  0  0  0  0  0
  152.2500  140.0048  155.1166 O   0  0  0  0  0  0  0  0  0  0  0  0
  151.0989  141.5095  156.4621 N   0  5  0  0  0  0  0  0  0  0  0  0
  151.1443  141.9320  157.8639 C   0  0  1  0  0  0  0  0  0  0  0  0
  152.5641  141.7598  158.4389 C   0  0  0  0  0  0  0  0  0  0  0  0
  152.6543  142.5262  159.7668 C   0  0  0  0  0  0  0  0  0  0  0  0
  151.5280  143.9642  159.5907 S   0  0  0  0  0  0  0  0  0  0  0  0
  150.5298  143.9235  160.6712 O   0  0  0  0  0  0  0  0  0  0  0  0
  152.3173  145.1806  159.3422 O   0  0  0  0  0  0  0  0  0  0  0  0
  150.7608  143.4121  158.0169 C   0  0  0  0  0  0  0  0  0  0  0  0
  151.9349  136.9972  156.6366 N   0  0  0  0  0  0  0  0  0  0  0  0
  151.5780  135.7331  156.1538 O   0  0  0  0  0  0  0  0  0  0  0  0
  149.1104  134.8029  154.1449 H   0  0  0  0  0  0  0  0  0  0  0  0
  149.3001  133.9951  155.7023 H   0  0  0  0  0  0  0  0  0  0  0  0
  150.6128  133.9592  154.5229 H   0  0  0  0  0  0  0  0  0  0  0  0
  148.9943  137.5051  155.1703 H   0  0  0  0  0  0  0  0  0  0  0  0
  150.1580  139.4237  157.2780 H   0  0  0  0  0  0  0  0  0  0  0  0
  150.4693  141.3434  158.4874 H   0  0  0  0  0  0  0  0  0  0  0  0
  152.8241  140.7086  158.5676 H   0  0  0  0  0  0  0  0  0  0  0  0
  153.2908  142.1835  157.7436 H   0  0  0  0  0  0  0  0  0  0  0  0
  152.3030  141.9174  160.6012 H   0  0  0  0  0  0  0  0  0  0  0  0
  153.6658  142.8662  159.9883 H   0  0  0  0  0  0  0  0  0  0  0  0
  151.1817  144.0156  157.2118 H   0  0  0  0  0  0  0  0  0  0  0  0
  149.6829  143.5709  158.0453 H   0  0  0  0  0  0  0  0  0  0  0  0
  1  2  1  0  0  0  0
  1 18  1  0  0  0  0
  1 19  1  0  0  0  0
  1 20  1  0  0  0  0
  2 17  1  0  0  0  0
  2  3  2  0  0  0  0
  3  4  1  0  0  0  0
  3 21  1  0  0  0  0
  4  5  1  0  0  0  0
  4 16  2  0  0  0  0
  5  6  1  0  0  0  0
  5 22  1  0  0  0  0
  6  7  2  0  0  0  0
  6  8  1  0  0  0  0
  8  9  1  0  0  0  0
  9 15  1  0  0  0  0
  9 10  1  0  0  0  0
  9 23  1  0  0  0  0
 10 11  1  0  0  0  0
 10 24  1  0  0  0  0
 10 25  1  0  0  0  0
 11 12  1  0  0  0  0
 11 26  1  0  0  0  0
 11 27  1  0  0  0  0
 12 13  2  0  0  0  0
 12 14  2  0  0  0  0
 12 15  1  0  0  0  0
 15 28  1  0  0  0  0
 15 29  1  0  0  0  0
 16 17  1  0  0  0  0
M  CHG  1   8  -1
M  END
> <s_m_source_file>
AV-unprocessed.smi

> <i_m_source_file_index>
2059

> <i_lp_mmshare_version>
43012

> <i_f3d_flags>
0

> <s_epik_input>
W0NIM11jMVtjSF1jKG5vMSlbTkhdQyg9TylbTkhdW0NAQEhdKFtDSDJdMilbQ0gyXVtDSDJdUzIoPU8pPU8=

> <s_epik_cmdline>
J2VwaWtfcHl0aG9uJywgJy1waCcsICc3LjAnLCAnLXRuJywgJzgnLCAnLW1hJywgJzIwMCcsICctbWV0YWxfYmluZGluZycsICctaW1hZScsICc8aW5maWxlLm1hZT4nLCAnLW9tYWUnLCAnPG91dGZpbGUubWFlPic=

> <r_lp_tautomer_probability>
1

> <r_epik_Ionization_Penalty>
6.6071

> <r_epik_Ionization_Penalty_Charging>
6.60709

> <r_epik_Ionization_Penalty_Neutral>
5.42629e-06

> <r_epik_State_Penalty>
6.6352

> <r_epik_Charging_Adjusted_Penalty>
13.2423

> <i_epik_Tot_Q>
-1

> <i_epik_Tot_abs_Q>
1

> <r_epik_Metal_State_Penalty>
2.57602

> <b_epik_Metal_Only>
1

> <s_lp_Force_Field>
OPLS_2005

> <r_lp_Energy>
11.3948

> <b_lp_Chiralities_Consistent>
1

> <s_lp_Variant>
AV-unprocessed.smi:2059-6

> <Gold.Version>
5.8.1

> <Gold.Id.Protein>
6NUR|6NUR_protein|mol2

> <Gold.PLP.Fitness>
30.6061

> <Gold.PLP.PLP>
-25.6595

> <Gold.PLP.part.hbond>
-3.9449

> <Gold.PLP.part.metal>
0.0000

> <Gold.PLP.part.buried>
-3.6491

> <Gold.PLP.part.nonpolar>
-17.5804

> <Gold.PLP.part.repulsive>
0.3244

> <Gold.PLP.ligand.clash>
0.0000

> <Gold.PLP.ligand.torsion>
1.1951

> <Gold.PLP.Chemscore.Hbond>
2.4440

> <Gold.PLP.Chemscore.CHOScore>
0.0000

> <Gold.PLP.Chemscore.Metal>
0.0000

> <Gold.Chemscore.Hbonds>
donor molecule, donor type, donor heavy atom, donor atom, acceptor molecule, acceptor atom, score
      P1  H  7989  7998       L1     7  0.70
      P1  H  7997  8009       L1     7  0.26
      P1  H 10752 10765       L1    17  0.80

> <Gold.PLP.Chemscore.Internal.Correction>
0.0047

> <Gold.Rescore>
     Score         DG    S(hbond)    S(metal)    S(lipo)     H(rot)  DE(clash)    DE(int)     intcor
     12.22     -13.78       1.40        0.00      52.75       1.00       0.33       1.24       ----

> <Gold.Chemscore.Fitness>
12.2211

> <Gold.Chemscore.DG>
-13.7836

> <Gold.Chemscore.ZeroCoef>
-5.4800

> <Gold.Chemscore.Hbond>
1.4049

> <Gold.Chemscore.Metal>
0.0000

> <Gold.Chemscore.Lipo>
52.7465

> <Gold.Chemscore.Internal_Hbond>
0.0000

> <Gold.Chemscore.DEClash>
0.3255

> <Gold.Chemscore.DEInternal>
1.2370

> <Gold.Chemscore.Rot>
1.0000

> <Gold.Chemscore.Internal.Correction>
   9.000000E+99

> <Gold.Chemscore.Hbonds>
donor molecule, donor type, donor heavy atom, donor atom, acceptor molecule, acceptor atom, score
      P1  H  7989  7998       L1     7  0.46
      P1  H  7997  8009       L1     7  0.20
      P1  H 10752 10765       L1    17  0.11

> <Gold.Chemscore.Hbond.Weighted>
-4.6923

> <Gold.Chemscore.Metal.Weighted>
-0.0000

> <Gold.Chemscore.Lipo.Weighted>
-6.1713

> <Gold.Chemscore.Internal_Hbond.Weighted>
0.0000

> <Gold.Chemscore.DEClash.Weighted>
0.3255

> <Gold.Chemscore.DEInternal.Weighted>
1.2370

> <Gold.Chemscore.Rot.Weighted>
2.5600

> <Gold.Chemscore.Internal.Correction.Weighted>
   9.000000E+99

> <Gold.Protein.RotatedTorsions>
[ 6907 6896 6895 6894 ] final  118.69 input  -60.11 | X-H torsion
[ 7974 7965 7964 7962 ] final  -79.84 input  175.53 | X-H torsion
[ 8008 7997 7996 7995 ] final -141.19 input   59.86 | X-H torsion
[ 10167 10162 10161 10158 ] final    5.26 input  -65.29 | X-H torsion
[ 10718 10713 10712 10709 ] final  -29.76 input   66.30 | X-H torsion
[ 10763 10752 10751 10750 ] final -145.25 input  -60.55 | X-H torsion
[ 11005 11000 10999 10996 ] final  161.79 input  -57.11 | X-H torsion

> <Gold.Protein.ActiveResidues>
 VAL166  LYS551  ARG553  GLY616  TRP617  ASP618  TYR619  PRO620  LYS621  CYS622 
 ASP623  PHE694  ASN695  SER759  ASP760  ASP761  ALA762  ILE779  LEU786  VAL792 
 PHE793  MET794  SER795  GLU796  ALA797  LYS798  CYS799  TRP800  GLU811  SER814 

> <Gold.Protein.RotatedAtoms>
  152.4525  133.7658  159.6771 H   0  0  0  0  0  0  0  0  0  0  0  0  # atno 6907 bound_to 6896
  150.8441  133.7878  159.3056 H   0  0  0  0  0  0  0  0  0  0  0  0  # atno 6908 bound_to 6896
  151.5494  135.1070  159.9998 H   0  0  0  0  0  0  0  0  0  0  0  0  # atno 6909 bound_to 6896
  145.5679  140.9471  143.1411 H   0  0  0  0  0  0  0  0  0  0  0  0  # atno 7974 bound_to 7965
  155.4737  140.0555  157.2976 H   0  0  0  0  0  0  0  0  0  0  0  0  # atno 8008 bound_to 7997
  154.4688  140.2031  156.0001 H   0  0  0  0  0  0  0  0  0  0  0  0  # atno 8009 bound_to 7997
  156.1021  140.3217  155.7960 H   0  0  0  0  0  0  0  0  0  0  0  0  # atno 8010 bound_to 7997
  140.6491  143.7588  150.7546 H   0  0  0  0  0  0  0  0  0  0  0  0  # atno 10167 bound_to 10162
  156.4084  130.4403  149.7270 H   0  0  0  0  0  0  0  0  0  0  0  0  # atno 10718 bound_to 10713
  154.8392  135.3418  154.6475 H   0  0  0  0  0  0  0  0  0  0  0  0  # atno 10763 bound_to 10752
  153.7087  135.6965  153.5048 H   0  0  0  0  0  0  0  0  0  0  0  0  # atno 10764 bound_to 10752
  153.2468  135.4366  155.0709 H   0  0  0  0  0  0  0  0  0  0  0  0  # atno 10765 bound_to 10752
  140.2193  134.8208  157.3204 H   0  0  0  0  0  0  0  0  0  0  0  0  # atno 11005 bound_to 11000
  144.7451  139.7341  143.7295 LP  0  0  0  0  0  0  0  0  0  0  0  0  # atno 17320 bound_to 7965
  146.1805  139.4995  142.9869 LP  0  0  0  0  0  0  0  0  0  0  0  0  # atno 17321 bound_to 7965
  140.1236  143.4590  152.2298 LP  0  0  0  0  0  0  0  0  0  0  0  0  # atno 17342 bound_to 10162
  139.5704  144.7459  151.3905 LP  0  0  0  0  0  0  0  0  0  0  0  0  # atno 17343 bound_to 10162
  156.4259  130.7791  151.2810 LP  0  0  0  0  0  0  0  0  0  0  0  0  # atno 17370 bound_to 10713
  157.7506  131.0169  150.3562 LP  0  0  0  0  0  0  0  0  0  0  0  0  # atno 17371 bound_to 10713
  140.1866  134.4423  155.7740 LP  0  0  0  0  0  0  0  0  0  0  0  0  # atno 17394 bound_to 11000
  141.2223  133.7008  156.7958 LP  0  0  0  0  0  0  0  0  0  0  0  0  # atno 17395 bound_to 11000

$$$$
