AV-unprocessed.smi:3283|AV-procd|sdf|12570|dock7
  -GOLD-   2272018493D 1   1.00000     0.00000
 Structure written by MMmdl.
 44 45  0  0  0  0  0  0  0  0  2 V2000
  154.0922  140.7525  160.3696 C   0  0  0  0  0  0  0  0  0  0  0  0
  153.2271  142.0016  160.3460 C   0  0  0  0  0  0  0  0  0  0  0  0
  152.8759  142.5922  161.5043 C   0  0  0  0  0  0  0  0  0  0  0  0
  152.0863  143.8769  161.6003 C   0  0  0  0  0  0  0  0  0  0  0  0
  152.1726  144.6729  160.2962 C   0  0  0  0  0  0  0  0  0  0  0  0
  151.8539  143.7909  159.0779 C   0  0  1  0  0  0  0  0  0  0  0  0
  151.8639  144.6574  157.8031 C   0  0  0  0  0  0  0  0  0  0  0  0
  152.8066  142.5599  158.9706 C   0  0  2  0  0  0  0  0  0  0  0  0
  152.1779  141.4796  158.0509 C   0  0  0  0  0  0  0  0  0  0  0  0
  150.7521  141.2341  158.3470 N   0  3  0  0  0  0  0  0  0  0  0  0
  149.9914  140.6452  157.2273 C   0  0  0  0  0  0  0  0  0  0  0  0
  149.7683  141.6610  156.0965 C   0  0  0  0  0  0  0  0  0  0  0  0
  148.7337  141.2339  155.1000 C   0  0  0  0  0  0  0  0  0  0  0  0
  147.5613  141.8435  154.7497 C   0  0  0  0  0  0  0  0  0  0  0  0
  147.0119  140.9946  153.7503 C   0  0  0  0  0  0  0  0  0  0  0  0
  147.7783  139.9480  153.4991 N   0  0  0  0  0  0  0  0  0  0  0  0
  148.8335  140.0865  154.3296 N   0  0  0  0  0  0  0  0  0  0  0  0
  149.8788  139.0800  154.3055 C   0  0  0  0  0  0  0  0  0  0  0  0
  154.9555  140.8750  159.7160 H   0  0  0  0  0  0  0  0  0  0  0  0
  153.5256  139.8775  160.0523 H   0  0  0  0  0  0  0  0  0  0  0  0
  154.4668  140.5492  161.3732 H   0  0  0  0  0  0  0  0  0  0  0  0
  153.1742  142.1544  162.4460 H   0  0  0  0  0  0  0  0  0  0  0  0
  151.0509  143.6339  161.8409 H   0  0  0  0  0  0  0  0  0  0  0  0
  152.4757  144.4762  162.4239 H   0  0  0  0  0  0  0  0  0  0  0  0
  151.4877  145.5204  160.3443 H   0  0  0  0  0  0  0  0  0  0  0  0
  153.1747  145.0919  160.1915 H   0  0  0  0  0  0  0  0  0  0  0  0
  150.8370  143.4195  159.2170 H   0  0  0  0  0  0  0  0  0  0  0  0
  152.8602  145.0530  157.6031 H   0  0  0  0  0  0  0  0  0  0  0  0
  151.1893  145.5080  157.9053 H   0  0  0  0  0  0  0  0  0  0  0  0
  151.5440  144.1063  156.9204 H   0  0  0  0  0  0  0  0  0  0  0  0
  153.7303  142.9089  158.5060 H   0  0  0  0  0  0  0  0  0  0  0  0
  152.2913  141.7733  157.0062 H   0  0  0  0  0  0  0  0  0  0  0  0
  152.6913  140.5253  158.1570 H   0  0  0  0  0  0  0  0  0  0  0  0
  150.6923  140.6099  159.1393 H   0  0  0  0  0  0  0  0  0  0  0  0
  150.5389  139.7840  156.8419 H   0  0  0  0  0  0  0  0  0  0  0  0
  149.0315  140.2775  157.5929 H   0  0  0  0  0  0  0  0  0  0  0  0
  149.5128  142.6318  156.5211 H   0  0  0  0  0  0  0  0  0  0  0  0
  150.7133  141.8141  155.5740 H   0  0  0  0  0  0  0  0  0  0  0  0
  147.1566  142.7626  155.1472 H   0  0  0  0  0  0  0  0  0  0  0  0
  146.0879  141.1083  153.2026 H   0  0  0  0  0  0  0  0  0  0  0  0
  150.1437  138.7897  155.3221 H   0  0  0  0  0  0  0  0  0  0  0  0
  150.7591  139.4772  153.8017 H   0  0  0  0  0  0  0  0  0  0  0  0
  149.5417  138.1906  153.7709 H   0  0  0  0  0  0  0  0  0  0  0  0
  150.3237  142.1139  158.5966 H   0  0  0  0  0  0  0  0  0  0  0  0
  1  2  1  0  0  0  0
  1 19  1  0  0  0  0
  1 20  1  0  0  0  0
  1 21  1  0  0  0  0
  2  8  1  0  0  0  0
  2  3  2  0  0  0  0
  3  4  1  0  0  0  0
  3 22  1  0  0  0  0
  4  5  1  0  0  0  0
  4 23  1  0  0  0  0
  4 24  1  0  0  0  0
  5  6  1  0  0  0  0
  5 25  1  0  0  0  0
  5 26  1  0  0  0  0
  6  7  1  0  0  0  0
  6  8  1  0  0  0  0
  6 27  1  0  0  0  0
  7 28  1  0  0  0  0
  7 29  1  0  0  0  0
  7 30  1  0  0  0  0
  8  9  1  0  0  0  0
  8 31  1  0  0  0  0
  9 10  1  0  0  0  0
  9 32  1  0  0  0  0
  9 33  1  0  0  0  0
 10 11  1  0  0  0  0
 10 34  1  0  0  0  0
 10 44  1  0  0  0  0
 11 12  1  0  0  0  0
 11 35  1  0  0  0  0
 11 36  1  0  0  0  0
 12 13  1  0  0  0  0
 12 37  1  0  0  0  0
 12 38  1  0  0  0  0
 13 17  1  0  0  0  0
 13 14  2  0  0  0  0
 14 15  1  0  0  0  0
 14 39  1  0  0  0  0
 15 16  2  0  0  0  0
 15 40  1  0  0  0  0
 16 17  1  0  0  0  0
 17 18  1  0  0  0  0
 18 41  1  0  0  0  0
 18 42  1  0  0  0  0
 18 43  1  0  0  0  0
M  CHG  1  10   1
M  END
> <s_m_source_file>
AV-unprocessed.smi

> <i_m_source_file_index>
3283

> <i_lp_mmshare_version>
43012

> <i_f3d_flags>
0

> <s_epik_input>
W0NIM11DMT1bQ0hdW0NIMl1bQ0gyXVtDQEBIXShbQ0gzXSlbQ0BIXTFbQ0gyXVtOSF1bQ0gyXVtDSDJdYzJbY0hdW2NIXW5uMltDSDNd

> <s_epik_cmdline>
J2VwaWtfcHl0aG9uJywgJy1waCcsICc3LjAnLCAnLXRuJywgJzgnLCAnLW1hJywgJzIwMCcsICctbWV0YWxfYmluZGluZycsICctaW1hZScsICc8aW5maWxlLm1hZT4nLCAnLW9tYWUnLCAnPG91dGZpbGUubWFlPic=

> <r_lp_tautomer_probability>
1

> <r_epik_Ionization_Penalty>
0.000866911

> <r_epik_Ionization_Penalty_Charging>
0.000836385

> <r_epik_Ionization_Penalty_Neutral>
3.05258e-05

> <r_epik_State_Penalty>
-0

> <r_epik_Charging_Adjusted_Penalty>
0.000836385

> <i_epik_Tot_Q>
1

> <i_epik_Tot_abs_Q>
1

> <r_epik_Metal_State_Penalty>
-0

> <b_epik_Metal_Only>
0

> <s_lp_Force_Field>
OPLS_2005

> <r_lp_Energy>
14.6104

> <b_lp_Chiralities_Consistent>
1

> <s_lp_Variant>
AV-unprocessed.smi:3283-3

> <Gold.Version>
5.8.1

> <Gold.Id.Protein>
6NUR|6NUR_protein|mol2

> <Gold.PLP.Fitness>
48.6240

> <Gold.PLP.PLP>
-46.4238

> <Gold.PLP.part.hbond>
0.0000

> <Gold.PLP.part.metal>
0.0000

> <Gold.PLP.part.buried>
-5.7650

> <Gold.PLP.part.nonpolar>
-41.6143

> <Gold.PLP.part.repulsive>
0.8213

> <Gold.PLP.ligand.clash>
0.0000

> <Gold.PLP.ligand.torsion>
0.3545

> <Gold.PLP.Chemscore.Hbond>
0.0000

> <Gold.PLP.Chemscore.CHOScore>
0.9522

> <Gold.PLP.Chemscore.Metal>
0.0000

> <Gold.Chemscore.Hbonds>
donor molecule, donor type, donor heavy atom, donor atom, acceptor molecule, acceptor atom, score
      L1  C    15    40       P1 10175  0.88

> <Gold.PLP.Chemscore.Internal.Correction>
0.0527

> <Gold.Rescore>
     Score         DG    S(hbond)    S(metal)    S(lipo)     H(rot)  DE(clash)    DE(int)     intcor
     17.63     -18.01       0.00        0.00     139.57       1.48       0.08       0.30       ----

> <Gold.Chemscore.Fitness>
17.6326

> <Gold.Chemscore.DG>
-18.0090

> <Gold.Chemscore.ZeroCoef>
-5.4800

> <Gold.Chemscore.Hbond>
0.0000

> <Gold.Chemscore.Metal>
0.0000

> <Gold.Chemscore.Lipo>
139.5709

> <Gold.Chemscore.Internal_Hbond>
0.0000

> <Gold.Chemscore.DEClash>
0.0758

> <Gold.Chemscore.DEInternal>
0.3005

> <Gold.Chemscore.Rot>
1.4847

> <Gold.Chemscore.Internal.Correction>
   9.000000E+99

> <Gold.Chemscore.Hbond.Weighted>
-0.0000

> <Gold.Chemscore.Metal.Weighted>
-0.0000

> <Gold.Chemscore.Lipo.Weighted>
-16.3298

> <Gold.Chemscore.Internal_Hbond.Weighted>
0.0000

> <Gold.Chemscore.DEClash.Weighted>
0.0758

> <Gold.Chemscore.DEInternal.Weighted>
0.3005

> <Gold.Chemscore.Rot.Weighted>
3.8008

> <Gold.Chemscore.Internal.Correction.Weighted>
   9.000000E+99

> <Gold.Protein.RotatedTorsions>
[ 6907 6896 6895 6894 ] final  120.73 input  -60.11 | X-H torsion
[ 7974 7965 7964 7962 ] final -127.95 input  175.53 | X-H torsion
[ 8008 7997 7996 7995 ] final  -67.42 input   59.86 | X-H torsion
[ 10167 10162 10161 10158 ] final  -12.03 input  -65.29 | X-H torsion
[ 10718 10713 10712 10709 ] final   75.13 input   66.30 | X-H torsion
[ 10763 10752 10751 10750 ] final -106.40 input  -60.55 | X-H torsion
[ 11005 11000 10999 10996 ] final -148.28 input  -57.11 | X-H torsion

> <Gold.Protein.ActiveResidues>
 VAL166  LYS551  ARG553  GLY616  TRP617  ASP618  TYR619  PRO620  LYS621  CYS622 
 ASP623  PHE694  ASN695  SER759  ASP760  ASP761  ALA762  ILE779  LEU786  VAL792 
 PHE793  MET794  SER795  GLU796  ALA797  LYS798  CYS799  TRP800  GLU811  SER814 

> <Gold.Protein.RotatedAtoms>
  152.4376  133.7389  159.6629 H   0  0  0  0  0  0  0  0  0  0  0  0  # atno 6907 bound_to 6896
  150.8262  133.8157  159.3124 H   0  0  0  0  0  0  0  0  0  0  0  0  # atno 6908 bound_to 6896
  151.5825  135.1060  160.0072 H   0  0  0  0  0  0  0  0  0  0  0  0  # atno 6909 bound_to 6896
  144.9719  140.7554  143.4665 H   0  0  0  0  0  0  0  0  0  0  0  0  # atno 7974 bound_to 7965
  154.4799  140.0893  156.7352 H   0  0  0  0  0  0  0  0  0  0  0  0  # atno 8008 bound_to 7997
  155.4498  140.3457  155.4281 H   0  0  0  0  0  0  0  0  0  0  0  0  # atno 8009 bound_to 7997
  156.1175  140.1465  156.9240 H   0  0  0  0  0  0  0  0  0  0  0  0  # atno 8010 bound_to 7997
  140.7152  143.5576  150.9231 H   0  0  0  0  0  0  0  0  0  0  0  0  # atno 10167 bound_to 10162
  157.6621  130.9711  150.1309 H   0  0  0  0  0  0  0  0  0  0  0  0  # atno 10718 bound_to 10713
  154.8009  135.4713  154.0274 H   0  0  0  0  0  0  0  0  0  0  0  0  # atno 10763 bound_to 10752
  153.1780  135.6836  153.8523 H   0  0  0  0  0  0  0  0  0  0  0  0  # atno 10764 bound_to 10752
  153.8083  135.3220  155.3375 H   0  0  0  0  0  0  0  0  0  0  0  0  # atno 10765 bound_to 10752
  140.7629  134.3278  157.5097 H   0  0  0  0  0  0  0  0  0  0  0  0  # atno 11005 bound_to 11000
  145.2546  139.2017  143.4924 LP  0  0  0  0  0  0  0  0  0  0  0  0  # atno 17320 bound_to 7965
  146.3384  140.2466  142.8597 LP  0  0  0  0  0  0  0  0  0  0  0  0  # atno 17321 bound_to 7965
  139.9301  143.6503  152.3078 LP  0  0  0  0  0  0  0  0  0  0  0  0  # atno 17342 bound_to 10162
  139.6951  144.7642  151.1370 LP  0  0  0  0  0  0  0  0  0  0  0  0  # atno 17343 bound_to 10162
  156.2156  130.3670  149.8617 LP  0  0  0  0  0  0  0  0  0  0  0  0  # atno 17370 bound_to 10713
  156.6484  130.8733  151.3527 LP  0  0  0  0  0  0  0  0  0  0  0  0  # atno 17371 bound_to 10713
  139.8768  134.9213  156.3272 LP  0  0  0  0  0  0  0  0  0  0  0  0  # atno 17394 bound_to 11000
  140.9646  133.7366  156.0449 LP  0  0  0  0  0  0  0  0  0  0  0  0  # atno 17395 bound_to 11000

$$$$
