AV-unprocessed.smi:1441|AV-procd|sdf|5875|dock6
  -GOLD-   22720 5553D 1   1.00000     0.00000
 Structure written by MMmdl.
 45 46  0  0  0  0  0  0  0  0  1 V2000
  144.8108  144.6382  152.9918 C   0  0  0  0  0  0  0  0  0  0  0  0
  145.3486  143.6464  153.9807 C   0  0  0  0  0  0  0  0  0  0  0  0
  145.1134  143.5843  155.3825 C   0  0  0  0  0  0  0  0  0  0  0  0
  145.8330  142.4995  155.7977 C   0  0  0  0  0  0  0  0  0  0  0  0
  145.9898  141.9123  157.1618 C   0  0  0  0  0  0  0  0  0  0  0  0
  146.4488  141.9730  154.6758 N   0  0  0  0  0  0  0  0  0  0  0  0
  147.3203  140.8120  154.5646 C   0  0  0  0  0  0  0  0  0  0  0  0
  148.7994  141.1732  154.7457 C   0  0  0  0  0  0  0  0  0  0  0  0
  149.5656  141.1989  153.7813 O   0  0  0  0  0  0  0  0  0  0  0  0
  149.1900  141.4472  155.9997 N   0  0  0  0  0  0  0  0  0  0  0  0
  150.5426  141.8268  156.3884 C   0  0  0  0  0  0  0  0  0  0  0  0
  150.9126  141.2459  157.7657 C   0  0  0  0  0  0  0  0  0  0  0  0
  151.4972  142.2720  158.6424 N   0  0  0  0  0  0  0  0  0  0  0  0
  152.8212  141.9573  159.2019 C   0  0  0  0  0  0  0  0  0  0  0  0
  152.8002  141.8134  160.7359 C   0  0  0  0  0  0  0  0  0  0  0  0
  152.8528  143.1508  161.4895 C   0  0  0  0  0  0  0  0  0  0  0  0
  151.6440  144.0647  161.2429 C   0  0  0  0  0  0  0  0  0  0  0  0
  151.4990  144.4954  159.7738 C   0  0  0  0  0  0  0  0  0  0  0  0
  150.8307  143.4219  158.9048 C   0  0  0  0  0  0  0  0  0  0  0  0
  149.7063  143.6538  158.4586 O   0  0  0  0  0  0  0  0  0  0  0  0
  146.1502  142.6802  153.5640 N   0  0  0  0  0  0  0  0  0  0  0  0
  144.1808  145.3808  153.4817 H   0  0  0  0  0  0  0  0  0  0  0  0
  144.2089  144.1446  152.2284 H   0  0  0  0  0  0  0  0  0  0  0  0
  145.6195  145.1690  152.4890 H   0  0  0  0  0  0  0  0  0  0  0  0
  144.5057  144.2372  155.9913 H   0  0  0  0  0  0  0  0  0  0  0  0
  145.3540  142.4269  157.8823 H   0  0  0  0  0  0  0  0  0  0  0  0
  147.0213  141.9963  157.5039 H   0  0  0  0  0  0  0  0  0  0  0  0
  145.7146  140.8575  157.1662 H   0  0  0  0  0  0  0  0  0  0  0  0
  147.0194  140.0736  155.3102 H   0  0  0  0  0  0  0  0  0  0  0  0
  147.1786  140.3499  153.5875 H   0  0  0  0  0  0  0  0  0  0  0  0
  148.4987  141.4020  156.7344 H   0  0  0  0  0  0  0  0  0  0  0  0
  151.2289  141.4604  155.6250 H   0  0  0  0  0  0  0  0  0  0  0  0
  150.6395  142.9141  156.3932 H   0  0  0  0  0  0  0  0  0  0  0  0
  150.0333  140.7977  158.2297 H   0  0  0  0  0  0  0  0  0  0  0  0
  151.6100  140.4154  157.6410 H   0  0  0  0  0  0  0  0  0  0  0  0
  153.1932  141.0191  158.7894 H   0  0  0  0  0  0  0  0  0  0  0  0
  153.5481  142.7096  158.8926 H   0  0  0  0  0  0  0  0  0  0  0  0
  151.9317  141.2330  161.0498 H   0  0  0  0  0  0  0  0  0  0  0  0
  153.6706  141.2290  161.0358 H   0  0  0  0  0  0  0  0  0  0  0  0
  152.9252  142.9480  162.5585 H   0  0  0  0  0  0  0  0  0  0  0  0
  153.7687  143.6803  161.2247 H   0  0  0  0  0  0  0  0  0  0  0  0
  150.7310  143.5769  161.5887 H   0  0  0  0  0  0  0  0  0  0  0  0
  151.7543  144.9572  161.8596 H   0  0  0  0  0  0  0  0  0  0  0  0
  150.8777  145.3911  159.7345 H   0  0  0  0  0  0  0  0  0  0  0  0
  152.4609  144.7848  159.3493 H   0  0  0  0  0  0  0  0  0  0  0  0
  1  2  1  0  0  0  0
  1 22  1  0  0  0  0
  1 23  1  0  0  0  0
  1 24  1  0  0  0  0
  2 21  2  0  0  0  0
  2  3  1  0  0  0  0
  3  4  2  0  0  0  0
  3 25  1  0  0  0  0
  4  5  1  0  0  0  0
  4  6  1  0  0  0  0
  5 26  1  0  0  0  0
  5 27  1  0  0  0  0
  5 28  1  0  0  0  0
  6  7  1  0  0  0  0
  6 21  1  0  0  0  0
  7  8  1  0  0  0  0
  7 29  1  0  0  0  0
  7 30  1  0  0  0  0
  8  9  2  0  0  0  0
  8 10  1  0  0  0  0
 10 11  1  0  0  0  0
 10 31  1  0  0  0  0
 11 12  1  0  0  0  0
 11 32  1  0  0  0  0
 11 33  1  0  0  0  0
 12 13  1  0  0  0  0
 12 34  1  0  0  0  0
 12 35  1  0  0  0  0
 13 19  1  0  0  0  0
 13 14  1  0  0  0  0
 14 15  1  0  0  0  0
 14 36  1  0  0  0  0
 14 37  1  0  0  0  0
 15 16  1  0  0  0  0
 15 38  1  0  0  0  0
 15 39  1  0  0  0  0
 16 17  1  0  0  0  0
 16 40  1  0  0  0  0
 16 41  1  0  0  0  0
 17 18  1  0  0  0  0
 17 42  1  0  0  0  0
 17 43  1  0  0  0  0
 18 19  1  0  0  0  0
 18 44  1  0  0  0  0
 18 45  1  0  0  0  0
 19 20  2  0  0  0  0
M  END
> <s_m_source_file>
AV-unprocessed.smi

> <i_m_source_file_index>
1441

> <i_lp_mmshare_version>
43012

> <i_f3d_flags>
0

> <s_epik_input>
W0NIM11jMVtjSF1jKFtDSDNdKW4objEpW0NIMl1DKD1PKVtOSF1bQ0gyXVtDSDJdTjJbQ0gyXVtDSDJdW0NIMl1bQ0gyXVtDSDJdQzI9Tw==

> <s_epik_cmdline>
J2VwaWtfcHl0aG9uJywgJy1waCcsICc3LjAnLCAnLXRuJywgJzgnLCAnLW1hJywgJzIwMCcsICctbWV0YWxfYmluZGluZycsICctaW1hZScsICc8aW5maWxlLm1hZT4nLCAnLW9tYWUnLCAnPG91dGZpbGUubWFlPic=

> <r_lp_tautomer_probability>
1

> <r_epik_Ionization_Penalty>
0.000341945

> <r_epik_Ionization_Penalty_Charging>
0

> <r_epik_Ionization_Penalty_Neutral>
0.000341945

> <r_epik_State_Penalty>
-0

> <r_epik_Charging_Adjusted_Penalty>
0

> <i_epik_Tot_Q>
0

> <i_epik_Tot_abs_Q>
0

> <r_epik_Metal_State_Penalty>
-0

> <b_epik_Metal_Only>
0

> <s_lp_Force_Field>
OPLS_2005

> <r_lp_Energy>
16.3244

> <b_lp_Chiralities_Consistent>
1

> <s_lp_Variant>
AV-unprocessed.smi:1441-1

> <Gold.Version>
5.8.1

> <Gold.Id.Protein>
6NUR|6NUR_protein|mol2

> <Gold.PLP.Fitness>
46.1359

> <Gold.PLP.PLP>
-44.6111

> <Gold.PLP.part.hbond>
-2.0509

> <Gold.PLP.part.metal>
0.0000

> <Gold.PLP.part.buried>
-7.4618

> <Gold.PLP.part.nonpolar>
-37.0815

> <Gold.PLP.part.repulsive>
2.8446

> <Gold.PLP.ligand.clash>
0.0000

> <Gold.PLP.ligand.torsion>
1.0770

> <Gold.PLP.Chemscore.Hbond>
1.2178

> <Gold.PLP.Chemscore.CHOScore>
0.0000

> <Gold.PLP.Chemscore.Metal>
0.0000

> <Gold.Chemscore.Hbonds>
donor molecule, donor type, donor heavy atom, donor atom, acceptor molecule, acceptor atom, score
      P1  H  7989  7998       L1     9  0.26
      P1  H  8011  8017       L1     9  0.88

> <Gold.PLP.Chemscore.Internal.Correction>
0.0255

> <Gold.Rescore>
     Score         DG    S(hbond)    S(metal)    S(lipo)     H(rot)  DE(clash)    DE(int)     intcor
     12.93     -16.58       1.23        0.00      98.57       1.77       1.41       2.24       ----

> <Gold.Chemscore.Fitness>
12.9349

> <Gold.Chemscore.DG>
-16.5766

> <Gold.Chemscore.ZeroCoef>
-5.4800

> <Gold.Chemscore.Hbond>
1.2272

> <Gold.Chemscore.Metal>
0.0000

> <Gold.Chemscore.Lipo>
98.5724

> <Gold.Chemscore.Internal_Hbond>
0.0000

> <Gold.Chemscore.DEClash>
1.4054

> <Gold.Chemscore.DEInternal>
2.2362

> <Gold.Chemscore.Rot>
1.7715

> <Gold.Chemscore.Internal.Correction>
   9.000000E+99

> <Gold.Chemscore.Hbonds>
donor molecule, donor type, donor heavy atom, donor atom, acceptor molecule, acceptor atom, score
      P1  H  7989  7998       L1     9  0.24
      P1  H  8011  8017       L1     9  0.86

> <Gold.Chemscore.Hbond.Weighted>
-4.0987

> <Gold.Chemscore.Metal.Weighted>
-0.0000

> <Gold.Chemscore.Lipo.Weighted>
-11.5330

> <Gold.Chemscore.Internal_Hbond.Weighted>
0.0000

> <Gold.Chemscore.DEClash.Weighted>
1.4054

> <Gold.Chemscore.DEInternal.Weighted>
2.2362

> <Gold.Chemscore.Rot.Weighted>
4.5351

> <Gold.Chemscore.Internal.Correction.Weighted>
   9.000000E+99

> <Gold.Protein.RotatedTorsions>
[ 6907 6896 6895 6894 ] final  -95.10 input  -60.11 | X-H torsion
[ 7974 7965 7964 7962 ] final  -46.30 input  175.53 | X-H torsion
[ 8008 7997 7996 7995 ] final -170.28 input   59.86 | X-H torsion
[ 10167 10162 10161 10158 ] final  139.67 input  -65.29 | X-H torsion
[ 10718 10713 10712 10709 ] final  111.64 input   66.30 | X-H torsion
[ 10763 10752 10751 10750 ] final   65.26 input  -60.55 | X-H torsion
[ 11005 11000 10999 10996 ] final -172.57 input  -57.11 | X-H torsion

> <Gold.Protein.ActiveResidues>
 VAL166  LYS551  ARG553  GLY616  TRP617  ASP618  TYR619  PRO620  LYS621  CYS622 
 ASP623  PHE694  ASN695  SER759  ASP760  ASP761  ALA762  ILE779  LEU786  VAL792 
 PHE793  MET794  SER795  GLU796  ALA797  LYS798  CYS799  TRP800  GLU811  SER814 

> <Gold.Protein.RotatedAtoms>
  150.6956  134.1710  159.4211 H   0  0  0  0  0  0  0  0  0  0  0  0  # atno 6907 bound_to 6896
  151.9688  135.0085  160.0561 H   0  0  0  0  0  0  0  0  0  0  0  0  # atno 6908 bound_to 6896
  152.1860  133.4705  159.5020 H   0  0  0  0  0  0  0  0  0  0  0  0  # atno 6909 bound_to 6896
  145.9733  140.7360  142.9399 H   0  0  0  0  0  0  0  0  0  0  0  0  # atno 7974 bound_to 7965
  155.9163  140.1066  157.1241 H   0  0  0  0  0  0  0  0  0  0  0  0  # atno 8008 bound_to 7997
  154.4047  140.1264  156.4686 H   0  0  0  0  0  0  0  0  0  0  0  0  # atno 8009 bound_to 7997
  155.7250  140.3469  155.5035 H   0  0  0  0  0  0  0  0  0  0  0  0  # atno 8010 bound_to 7997
  139.5072  144.6280  151.5888 H   0  0  0  0  0  0  0  0  0  0  0  0  # atno 10167 bound_to 10162
  157.6434  131.0954  150.6779 H   0  0  0  0  0  0  0  0  0  0  0  0  # atno 10718 bound_to 10713
  153.0089  135.5363  154.6639 H   0  0  0  0  0  0  0  0  0  0  0  0  # atno 10763 bound_to 10752
  154.5841  135.2852  155.0705 H   0  0  0  0  0  0  0  0  0  0  0  0  # atno 10764 bound_to 10752
  154.1823  135.6514  153.5090 H   0  0  0  0  0  0  0  0  0  0  0  0  # atno 10765 bound_to 10752
  140.4955  134.5944  157.4970 H   0  0  0  0  0  0  0  0  0  0  0  0  # atno 11005 bound_to 11000
  144.6842  140.2785  143.7295 LP  0  0  0  0  0  0  0  0  0  0  0  0  # atno 17320 bound_to 7965
  145.7875  139.1914  143.2122 LP  0  0  0  0  0  0  0  0  0  0  0  0  # atno 17321 bound_to 7965
  140.6004  143.9620  150.6382 LP  0  0  0  0  0  0  0  0  0  0  0  0  # atno 17342 bound_to 10162
  140.2830  143.3376  152.1133 LP  0  0  0  0  0  0  0  0  0  0  0  0  # atno 17343 bound_to 10162
  156.7099  130.4648  149.5550 LP  0  0  0  0  0  0  0  0  0  0  0  0  # atno 17370 bound_to 10713
  156.1737  130.6454  151.0868 LP  0  0  0  0  0  0  0  0  0  0  0  0  # atno 17371 bound_to 10713
  139.9744  134.7240  155.9979 LP  0  0  0  0  0  0  0  0  0  0  0  0  # atno 17394 bound_to 11000
  141.1462  133.6555  156.3875 LP  0  0  0  0  0  0  0  0  0  0  0  0  # atno 17395 bound_to 11000

$$$$
