AV-unprocessed.smi:833|AV-procd|sdf|3883|dock10
  -GOLD-   22720 1343D 1   1.00000     0.00000
 Structure written by MMmdl.
 40 41  0  0  0  0  0  0  0  0  2 V2000
  151.1148  140.0670  155.9169 C   0  0  0  0  0  0  0  0  0  0  0  0
  150.3825  139.0847  154.9935 C   0  0  1  0  0  0  0  0  0  0  0  0
  150.0674  139.7785  153.8035 O   0  0  0  0  0  0  0  0  0  0  0  0
  151.2562  137.8644  154.6430 C   0  0  0  0  0  0  0  0  0  0  0  0
  150.4531  136.7292  154.1990 N   0  0  0  0  0  0  0  0  0  0  0  0
  150.5339  135.4878  154.6975 C   0  0  0  0  0  0  0  0  0  0  0  0
  151.3044  135.1636  155.6011 O   0  0  0  0  0  0  0  0  0  0  0  0
  149.6562  134.6635  154.1022 N   0  0  0  0  0  0  0  0  0  0  0  0
  149.4252  133.2896  154.3917 C   0  0  0  0  0  0  0  0  0  0  0  0
  150.2309  132.5989  155.3329 C   0  0  0  0  0  0  0  0  0  0  0  0
  150.0349  131.2220  155.5500 C   0  0  0  0  0  0  0  0  0  0  0  0
  149.0454  130.5518  154.8106 C   0  0  0  0  0  0  0  0  0  0  0  0
  148.3032  131.2343  153.9143 N   0  3  0  0  0  0  0  0  0  0  0  0
  148.4341  132.5624  153.6705 C   0  0  0  0  0  0  0  0  0  0  0  0
  147.5760  133.1450  152.7097 N   0  0  0  0  0  0  0  0  0  0  0  0
  146.7975  132.3028  151.8088 C   0  0  0  0  0  0  0  0  0  0  0  0
  145.7577  133.2352  151.1940 C   0  0  0  0  0  0  0  0  0  0  0  0
  145.4488  134.1868  152.3457 C   0  0  0  0  0  0  0  0  0  0  0  0
  146.7872  134.3159  153.0812 C   0  0  0  0  0  0  0  0  0  0  0  0
  151.3656  139.5961  156.8677 H   0  0  0  0  0  0  0  0  0  0  0  0
  150.4958  140.9378  156.1361 H   0  0  0  0  0  0  0  0  0  0  0  0
  152.0429  140.4216  155.4665 H   0  0  0  0  0  0  0  0  0  0  0  0
  149.4566  138.7722  155.4778 H   0  0  0  0  0  0  0  0  0  0  0  0
  150.0632  139.1611  153.0883 H   0  0  0  0  0  0  0  0  0  0  0  0
  151.9829  138.1166  153.8696 H   0  0  0  0  0  0  0  0  0  0  0  0
  151.8388  137.5604  155.5145 H   0  0  0  0  0  0  0  0  0  0  0  0
  149.7915  136.9062  153.4573 H   0  0  0  0  0  0  0  0  0  0  0  0
  149.0146  135.0884  153.4487 H   0  0  0  0  0  0  0  0  0  0  0  0
  151.0158  133.1027  155.8768 H   0  0  0  0  0  0  0  0  0  0  0  0
  150.6442  130.6866  156.2635 H   0  0  0  0  0  0  0  0  0  0  0  0
  148.8287  129.4975  154.9041 H   0  0  0  0  0  0  0  0  0  0  0  0
  147.4285  131.8426  151.0481 H   0  0  0  0  0  0  0  0  0  0  0  0
  146.2946  131.5109  152.3655 H   0  0  0  0  0  0  0  0  0  0  0  0
  146.1962  133.7878  150.3616 H   0  0  0  0  0  0  0  0  0  0  0  0
  144.8774  132.7075  150.8260 H   0  0  0  0  0  0  0  0  0  0  0  0
  145.0543  135.1467  152.0113 H   0  0  0  0  0  0  0  0  0  0  0  0
  144.7093  133.7325  153.0065 H   0  0  0  0  0  0  0  0  0  0  0  0
  146.6407  134.3893  154.1597 H   0  0  0  0  0  0  0  0  0  0  0  0
  147.3105  135.2123  152.7474 H   0  0  0  0  0  0  0  0  0  0  0  0
  147.5938  130.7191  153.3927 H   0  0  0  0  0  0  0  0  0  0  0  0
  1  2  1  0  0  0  0
  1 20  1  0  0  0  0
  1 21  1  0  0  0  0
  1 22  1  0  0  0  0
  2  3  1  0  0  0  0
  2  4  1  0  0  0  0
  2 23  1  0  0  0  0
  3 24  1  0  0  0  0
  4  5  1  0  0  0  0
  4 25  1  0  0  0  0
  4 26  1  0  0  0  0
  5  6  1  0  0  0  0
  5 27  1  0  0  0  0
  6  7  2  0  0  0  0
  6  8  1  0  0  0  0
  8  9  1  0  0  0  0
  8 28  1  0  0  0  0
  9 14  1  0  0  0  0
  9 10  2  0  0  0  0
 10 11  1  0  0  0  0
 10 29  1  0  0  0  0
 11 12  2  0  0  0  0
 11 30  1  0  0  0  0
 12 13  1  0  0  0  0
 12 31  1  0  0  0  0
 13 14  2  0  0  0  0
 13 40  1  0  0  0  0
 14 15  1  0  0  0  0
 15 19  1  0  0  0  0
 15 16  1  0  0  0  0
 16 17  1  0  0  0  0
 16 32  1  0  0  0  0
 16 33  1  0  0  0  0
 17 18  1  0  0  0  0
 17 34  1  0  0  0  0
 17 35  1  0  0  0  0
 18 19  1  0  0  0  0
 18 36  1  0  0  0  0
 18 37  1  0  0  0  0
 19 38  1  0  0  0  0
 19 39  1  0  0  0  0
M  CHG  1  13   1
M  END
> <s_m_source_file>
AV-unprocessed.smi

> <i_m_source_file_index>
833

> <i_lp_mmshare_version>
43012

> <i_f3d_flags>
0

> <s_epik_input>
W0NIM11bQ0BIXShbT0hdKVtDSDJdW05IXUMoPU8pW05IXWMxW2NIXVtjSF1bY0hdbmMxTjJbQ0gyXVtDSDJdW0NIMl1bQ0gyXTI=

> <s_epik_cmdline>
J2VwaWtfcHl0aG9uJywgJy1waCcsICc3LjAnLCAnLXRuJywgJzgnLCAnLW1hJywgJzIwMCcsICctbWV0YWxfYmluZGluZycsICctaW1hZScsICc8aW5maWxlLm1hZT4nLCAnLW9tYWUnLCAnPG91dGZpbGUubWFlPic=

> <r_lp_tautomer_probability>
0.999994

> <r_epik_Ionization_Penalty>
1.11387

> <r_epik_Ionization_Penalty_Charging>
1.11385

> <r_epik_Ionization_Penalty_Neutral>
1.95796e-05

> <r_epik_State_Penalty>
1.17209

> <r_epik_Charging_Adjusted_Penalty>
2.28594

> <i_epik_Tot_Q>
1

> <i_epik_Tot_abs_Q>
1

> <r_epik_Metal_State_Penalty>
1.25763

> <b_epik_Metal_Only>
0

> <s_lp_Force_Field>
OPLS_2005

> <r_lp_Energy>
38.2358

> <b_lp_Chiralities_Consistent>
1

> <s_lp_Variant>
AV-unprocessed.smi:833-4

> <Gold.Version>
5.8.1

> <Gold.Id.Protein>
6NUR|6NUR_protein|mol2

> <Gold.PLP.Fitness>
42.4279

> <Gold.PLP.PLP>
-31.5090

> <Gold.PLP.part.hbond>
-6.2251

> <Gold.PLP.part.metal>
0.0000

> <Gold.PLP.part.buried>
0.9836

> <Gold.PLP.part.nonpolar>
-25.9657

> <Gold.PLP.part.repulsive>
0.3438

> <Gold.PLP.ligand.clash>
0.0000

> <Gold.PLP.ligand.torsion>
0.4480

> <Gold.PLP.Chemscore.Hbond>
3.8106

> <Gold.PLP.Chemscore.CHOScore>
0.0000

> <Gold.PLP.Chemscore.Metal>
0.0000

> <Gold.Chemscore.Hbonds>
donor molecule, donor type, donor heavy atom, donor atom, acceptor molecule, acceptor atom, score
      L1  H     3    24       P1  7957  0.21
      L1  H     5    27       P1  7948  0.91
      L1  H     8    28       P1  7948  0.82
      P1  H  7989  7998       L1     3  0.90
      P1  H 10752 10764       L1     7  0.99

> <Gold.PLP.Chemscore.Internal.Correction>
0.3832

> <Gold.Rescore>
     Score         DG    S(hbond)    S(metal)    S(lipo)     H(rot)  DE(clash)    DE(int)     intcor
     13.27     -15.52       2.52        0.00      58.92       2.06       0.14       2.12       ----

> <Gold.Chemscore.Fitness>
13.2678

> <Gold.Chemscore.DG>
-15.5223

> <Gold.Chemscore.ZeroCoef>
-5.4800

> <Gold.Chemscore.Hbond>
2.5246

> <Gold.Chemscore.Metal>
0.0000

> <Gold.Chemscore.Lipo>
58.9179

> <Gold.Chemscore.Internal_Hbond>
0.0000

> <Gold.Chemscore.DEClash>
0.1390

> <Gold.Chemscore.DEInternal>
2.1156

> <Gold.Chemscore.Rot>
2.0637

> <Gold.Chemscore.Internal.Correction>
   9.000000E+99

> <Gold.Chemscore.Hbonds>
donor molecule, donor type, donor heavy atom, donor atom, acceptor molecule, acceptor atom, score
      L1  H     3    24       P1  7957  0.19
      L1  H     5    27       P1  7948  0.44
      L1  H     8    28       P1  7948  0.28
      P1  H  7989  7998       L1     3  0.18
      P1  H 10752 10764       L1     7  0.28

> <Gold.Chemscore.Hbond.Weighted>
-8.4321

> <Gold.Chemscore.Metal.Weighted>
-0.0000

> <Gold.Chemscore.Lipo.Weighted>
-6.8934

> <Gold.Chemscore.Internal_Hbond.Weighted>
0.0000

> <Gold.Chemscore.DEClash.Weighted>
0.1390

> <Gold.Chemscore.DEInternal.Weighted>
2.1156

> <Gold.Chemscore.Rot.Weighted>
5.2832

> <Gold.Chemscore.Internal.Correction.Weighted>
   9.000000E+99

> <Gold.Protein.RotatedTorsions>
[ 6907 6896 6895 6894 ] final  -79.23 input  -60.11 | X-H torsion
[ 7974 7965 7964 7962 ] final   65.05 input  175.53 | X-H torsion
[ 8008 7997 7996 7995 ] final  156.59 input   59.86 | X-H torsion
[ 10167 10162 10161 10158 ] final  161.69 input  -65.29 | X-H torsion
[ 10718 10713 10712 10709 ] final  175.75 input   66.30 | X-H torsion
[ 10763 10752 10751 10750 ] final  -48.30 input  -60.55 | X-H torsion
[ 11005 11000 10999 10996 ] final    9.44 input  -57.11 | X-H torsion

> <Gold.Protein.ActiveResidues>
 VAL166  LYS551  ARG553  GLY616  TRP617  ASP618  TYR619  PRO620  LYS621  CYS622 
 ASP623  PHE694  ASN695  SER759  ASP760  ASP761  ALA762  ILE779  LEU786  VAL792 
 PHE793  MET794  SER795  GLU796  ALA797  LYS798  CYS799  TRP800  GLU811  SER814 

> <Gold.Protein.RotatedAtoms>
  150.6954  134.4152  159.5179 H   0  0  0  0  0  0  0  0  0  0  0  0  # atno 6907 bound_to 6896
  152.1904  134.8674  160.0527 H   0  0  0  0  0  0  0  0  0  0  0  0  # atno 6908 bound_to 6896
  151.9631  133.3667  159.4080 H   0  0  0  0  0  0  0  0  0  0  0  0  # atno 6909 bound_to 6896
  145.8430  139.3207  143.0920 H   0  0  0  0  0  0  0  0  0  0  0  0  # atno 7974 bound_to 7965
  156.2413  140.1908  156.6979 H   0  0  0  0  0  0  0  0  0  0  0  0  # atno 8008 bound_to 7997
  154.6204  140.0609  156.9634 H   0  0  0  0  0  0  0  0  0  0  0  0  # atno 8009 bound_to 7997
  155.1872  140.3281  155.4367 H   0  0  0  0  0  0  0  0  0  0  0  0  # atno 8010 bound_to 7997
  139.4852  144.4512  151.8828 H   0  0  0  0  0  0  0  0  0  0  0  0  # atno 10167 bound_to 10162
  156.9303  130.9969  151.2988 H   0  0  0  0  0  0  0  0  0  0  0  0  # atno 10718 bound_to 10713
  154.0755  135.6598  153.4830 H   0  0  0  0  0  0  0  0  0  0  0  0  # atno 10763 bound_to 10752
  153.0375  135.5167  154.7525 H   0  0  0  0  0  0  0  0  0  0  0  0  # atno 10764 bound_to 10752
  154.6604  135.3014  154.9841 H   0  0  0  0  0  0  0  0  0  0  0  0  # atno 10765 bound_to 10752
  140.5257  134.0515  155.7858 H   0  0  0  0  0  0  0  0  0  0  0  0  # atno 11005 bound_to 11000
  145.9444  140.8956  143.0291 LP  0  0  0  0  0  0  0  0  0  0  0  0  # atno 17320 bound_to 7965
  144.6732  140.1593  143.7424 LP  0  0  0  0  0  0  0  0  0  0  0  0  # atno 17321 bound_to 7965
  140.3969  144.2544  150.5895 LP  0  0  0  0  0  0  0  0  0  0  0  0  # atno 17342 bound_to 10162
  140.5094  143.2295  151.8558 LP  0  0  0  0  0  0  0  0  0  0  0  0  # atno 17343 bound_to 10162
  157.5851  130.8404  149.8578 LP  0  0  0  0  0  0  0  0  0  0  0  0  # atno 17370 bound_to 10713
  156.0450  130.3730  150.1340 LP  0  0  0  0  0  0  0  0  0  0  0  0  # atno 17371 bound_to 10713
  141.1309  133.9303  157.2536 LP  0  0  0  0  0  0  0  0  0  0  0  0  # atno 17394 bound_to 11000
  139.9581  135.0161  156.9186 LP  0  0  0  0  0  0  0  0  0  0  0  0  # atno 17395 bound_to 11000

$$$$
