AV-unprocessed.smi:3240|AV-procd|sdf|12382|dock4
  -GOLD-   2272018243D 1   1.00000     0.00000
 Structure written by MMmdl.
 44 45  0  0  0  0  0  0  0  0  2 V2000
  144.8583  132.8754  150.3189 C   0  0  0  0  0  0  0  0  0  0  0  0
  144.7302  134.0259  151.2753 C   0  0  0  0  0  0  0  0  0  0  0  0
  144.2583  134.0000  152.6184 C   0  0  0  0  0  0  0  0  0  0  0  0
  144.2698  135.1934  153.1899 N   0  0  0  0  0  0  0  0  0  0  0  0
  144.7463  136.0204  152.2358 N   0  0  0  0  0  0  0  0  0  0  0  0
  144.9011  137.4369  152.5123 C   0  0  0  0  0  0  0  0  0  0  0  0
  146.3065  137.9617  152.1271 C   0  0  1  0  0  0  0  0  0  0  0  0
  146.5210  137.9114  150.6076 C   0  0  0  0  0  0  0  0  0  0  0  0
  146.5218  139.3468  152.6026 N   0  3  0  0  0  0  0  0  0  0  0  0
  147.1981  139.4724  153.9124 C   0  0  0  0  0  0  0  0  0  0  0  0
  147.8690  140.8551  154.0969 C   0  0  0  0  0  0  0  0  0  0  0  0
  149.0342  140.8623  153.2936 O   0  0  0  0  0  0  0  0  0  0  0  0
  146.9700  142.0392  153.6621 C   0  0  0  0  0  0  0  0  0  0  0  0
  145.7872  142.2604  154.6215 C   0  0  0  0  0  0  0  0  0  0  0  0
  146.2723  142.4587  156.0662 C   0  0  0  0  0  0  0  0  0  0  0  0
  147.1603  141.2921  156.5264 C   0  0  0  0  0  0  0  0  0  0  0  0
  148.3350  141.0659  155.5570 C   0  0  0  0  0  0  0  0  0  0  0  0
  145.0334  135.3420  151.0706 C   0  0  0  0  0  0  0  0  0  0  0  0
  144.5967  131.9263  150.7872 H   0  0  0  0  0  0  0  0  0  0  0  0
  145.8767  132.7772  149.9420 H   0  0  0  0  0  0  0  0  0  0  0  0
  144.2049  132.9970  149.4549 H   0  0  0  0  0  0  0  0  0  0  0  0
  143.9092  133.1534  153.1914 H   0  0  0  0  0  0  0  0  0  0  0  0
  144.1254  137.9649  151.9558 H   0  0  0  0  0  0  0  0  0  0  0  0
  144.6779  137.6174  153.5655 H   0  0  0  0  0  0  0  0  0  0  0  0
  147.0768  137.3321  152.5769 H   0  0  0  0  0  0  0  0  0  0  0  0
  146.4188  136.8929  150.2310 H   0  0  0  0  0  0  0  0  0  0  0  0
  147.5185  138.2605  150.3384 H   0  0  0  0  0  0  0  0  0  0  0  0
  145.7968  138.5349  150.0818 H   0  0  0  0  0  0  0  0  0  0  0  0
  147.1037  139.8204  151.9260 H   0  0  0  0  0  0  0  0  0  0  0  0
  146.4688  139.3053  154.7017 H   0  0  0  0  0  0  0  0  0  0  0  0
  147.9428  138.6800  154.0025 H   0  0  0  0  0  0  0  0  0  0  0  0
  148.9130  140.2512  152.5823 H   0  0  0  0  0  0  0  0  0  0  0  0
  147.5652  142.9534  153.6358 H   0  0  0  0  0  0  0  0  0  0  0  0
  146.6012  141.8992  152.6457 H   0  0  0  0  0  0  0  0  0  0  0  0
  145.2137  143.1321  154.3043 H   0  0  0  0  0  0  0  0  0  0  0  0
  145.1023  141.4133  154.5746 H   0  0  0  0  0  0  0  0  0  0  0  0
  146.8336  143.3914  156.1360 H   0  0  0  0  0  0  0  0  0  0  0  0
  145.4177  142.5626  156.7355 H   0  0  0  0  0  0  0  0  0  0  0  0
  147.5434  141.4946  157.5271 H   0  0  0  0  0  0  0  0  0  0  0  0
  146.5622  140.3846  156.6115 H   0  0  0  0  0  0  0  0  0  0  0  0
  148.9325  140.2174  155.8932 H   0  0  0  0  0  0  0  0  0  0  0  0
  148.9931  141.9351  155.6080 H   0  0  0  0  0  0  0  0  0  0  0  0
  145.4256  135.8464  150.1995 H   0  0  0  0  0  0  0  0  0  0  0  0
  145.6313  139.8210  152.6445 H   0  0  0  0  0  0  0  0  0  0  0  0
  1  2  1  0  0  0  0
  1 19  1  0  0  0  0
  1 20  1  0  0  0  0
  1 21  1  0  0  0  0
  2 18  2  0  0  0  0
  2  3  1  0  0  0  0
  3  4  2  0  0  0  0
  3 22  1  0  0  0  0
  4  5  1  0  0  0  0
  5  6  1  0  0  0  0
  5 18  1  0  0  0  0
  6  7  1  0  0  0  0
  6 23  1  0  0  0  0
  6 24  1  0  0  0  0
  7  8  1  0  0  0  0
  7  9  1  0  0  0  0
  7 25  1  0  0  0  0
  8 26  1  0  0  0  0
  8 27  1  0  0  0  0
  8 28  1  0  0  0  0
  9 10  1  0  0  0  0
  9 29  1  0  0  0  0
  9 44  1  0  0  0  0
 10 11  1  0  0  0  0
 10 30  1  0  0  0  0
 10 31  1  0  0  0  0
 11 17  1  0  0  0  0
 11 12  1  0  0  0  0
 11 13  1  0  0  0  0
 12 32  1  0  0  0  0
 13 14  1  0  0  0  0
 13 33  1  0  0  0  0
 13 34  1  0  0  0  0
 14 15  1  0  0  0  0
 14 35  1  0  0  0  0
 14 36  1  0  0  0  0
 15 16  1  0  0  0  0
 15 37  1  0  0  0  0
 15 38  1  0  0  0  0
 16 17  1  0  0  0  0
 16 39  1  0  0  0  0
 16 40  1  0  0  0  0
 17 41  1  0  0  0  0
 17 42  1  0  0  0  0
 18 43  1  0  0  0  0
M  CHG  1   9   1
M  END
> <s_m_source_file>
AV-unprocessed.smi

> <i_m_source_file_index>
3240

> <i_lp_mmshare_version>
43012

> <i_f3d_flags>
0

> <s_epik_input>
W0NIM11jMVtjSF1ubihbY0hdMSlbQ0gyXVtDQEhdKFtDSDNdKVtOSF1bQ0gyXUMyKFtPSF0pW0NIMl1bQ0gyXVtDSDJdW0NIMl1bQ0gyXTI=

> <s_epik_cmdline>
J2VwaWtfcHl0aG9uJywgJy1waCcsICc3LjAnLCAnLXRuJywgJzgnLCAnLW1hJywgJzIwMCcsICctbWV0YWxfYmluZGluZycsICctaW1hZScsICc8aW5maWxlLm1hZT4nLCAnLW9tYWUnLCAnPG91dGZpbGUubWFlPic=

> <r_lp_tautomer_probability>
1

> <r_epik_Ionization_Penalty>
0.0111573

> <r_epik_Ionization_Penalty_Charging>
0.0111472

> <r_epik_Ionization_Penalty_Neutral>
1.01652e-05

> <r_epik_State_Penalty>
0.00856328

> <r_epik_Charging_Adjusted_Penalty>
0.0197104

> <i_epik_Tot_Q>
1

> <i_epik_Tot_abs_Q>
1

> <r_epik_Metal_State_Penalty>
0.00856448

> <b_epik_Metal_Only>
0

> <s_lp_Force_Field>
OPLS_2005

> <r_lp_Energy>
18.8853

> <b_lp_Chiralities_Consistent>
1

> <s_lp_Variant>
AV-unprocessed.smi:3240-2

> <Gold.Version>
5.8.1

> <Gold.Id.Protein>
6NUR|6NUR_protein|mol2

> <Gold.PLP.Fitness>
42.4183

> <Gold.PLP.PLP>
-29.8556

> <Gold.PLP.part.hbond>
-3.0571

> <Gold.PLP.part.metal>
0.0000

> <Gold.PLP.part.buried>
0.7427

> <Gold.PLP.part.nonpolar>
-28.8280

> <Gold.PLP.part.repulsive>
0.0797

> <Gold.PLP.ligand.clash>
0.0000

> <Gold.PLP.ligand.torsion>
0.8649

> <Gold.PLP.Chemscore.Hbond>
3.6880

> <Gold.PLP.Chemscore.CHOScore>
1.0651

> <Gold.PLP.Chemscore.Metal>
0.0000

> <Gold.Chemscore.Hbonds>
donor molecule, donor type, donor heavy atom, donor atom, acceptor molecule, acceptor atom, score
      L1  H     9    44       P1 10175  1.85
      L1  H    12    32       P1  7957  0.69
      P1  H  8011  8017       L1    12  1.00
      L1  C     3    22       P1 10957  1.00
      L1  C    18    43       P1  7921  0.22

> <Gold.PLP.Chemscore.Internal.Correction>
0.0331

> <Gold.Rescore>
     Score         DG    S(hbond)    S(metal)    S(lipo)     H(rot)  DE(clash)    DE(int)     intcor
     14.19     -17.47       2.30        0.00      83.09       2.12       2.54       0.74       ----

> <Gold.Chemscore.Fitness>
14.1898

> <Gold.Chemscore.DG>
-17.4714

> <Gold.Chemscore.ZeroCoef>
-5.4800

> <Gold.Chemscore.Hbond>
2.3038

> <Gold.Chemscore.Metal>
0.0000

> <Gold.Chemscore.Lipo>
83.0936

> <Gold.Chemscore.Internal_Hbond>
0.0000

> <Gold.Chemscore.DEClash>
2.5425

> <Gold.Chemscore.DEInternal>
0.7391

> <Gold.Chemscore.Rot>
2.1193

> <Gold.Chemscore.Internal.Correction>
   9.000000E+99

> <Gold.Chemscore.Hbonds>
donor molecule, donor type, donor heavy atom, donor atom, acceptor molecule, acceptor atom, score
      L1  H     9    44       P1 10175  0.88
      L1  H    12    32       P1  7957  0.67
      P1  H  8011  8017       L1    12  0.29

> <Gold.Chemscore.Hbond.Weighted>
-7.6948

> <Gold.Chemscore.Metal.Weighted>
-0.0000

> <Gold.Chemscore.Lipo.Weighted>
-9.7220

> <Gold.Chemscore.Internal_Hbond.Weighted>
0.0000

> <Gold.Chemscore.DEClash.Weighted>
2.5425

> <Gold.Chemscore.DEInternal.Weighted>
0.7391

> <Gold.Chemscore.Rot.Weighted>
5.4254

> <Gold.Chemscore.Internal.Correction.Weighted>
   9.000000E+99

> <Gold.Protein.RotatedTorsions>
[ 6907 6896 6895 6894 ] final  -70.54 input  -60.11 | X-H torsion
[ 7974 7965 7964 7962 ] final  -17.36 input  175.53 | X-H torsion
[ 8008 7997 7996 7995 ] final  155.84 input   59.86 | X-H torsion
[ 10167 10162 10161 10158 ] final   77.22 input  -65.29 | X-H torsion
[ 10718 10713 10712 10709 ] final -176.47 input   66.30 | X-H torsion
[ 10763 10752 10751 10750 ] final  -15.47 input  -60.55 | X-H torsion
[ 11005 11000 10999 10996 ] final    8.54 input  -57.11 | X-H torsion

> <Gold.Protein.ActiveResidues>
 VAL166  LYS551  ARG553  GLY616  TRP617  ASP618  TYR619  PRO620  LYS621  CYS622 
 ASP623  PHE694  ASN695  SER759  ASP760  ASP761  ALA762  ILE779  LEU786  VAL792 
 PHE793  MET794  SER795  GLU796  ALA797  LYS798  CYS799  TRP800  GLU811  SER814 

> <Gold.Protein.RotatedAtoms>
  150.7253  134.5438  159.5760 H   0  0  0  0  0  0  0  0  0  0  0  0  # atno 6907 bound_to 6896
  152.2942  134.7683  160.0380 H   0  0  0  0  0  0  0  0  0  0  0  0  # atno 6908 bound_to 6896
  151.8286  133.3369  159.3643 H   0  0  0  0  0  0  0  0  0  0  0  0  # atno 6909 bound_to 6896
  146.1944  140.3768  142.8446 H   0  0  0  0  0  0  0  0  0  0  0  0  # atno 7974 bound_to 7965
  156.2456  140.1928  156.6864 H   0  0  0  0  0  0  0  0  0  0  0  0  # atno 8008 bound_to 7997
  154.6284  140.0599  156.9728 H   0  0  0  0  0  0  0  0  0  0  0  0  # atno 8009 bound_to 7997
  155.1750  140.3271  155.4388 H   0  0  0  0  0  0  0  0  0  0  0  0  # atno 8010 bound_to 7997
  139.9839  144.5806  150.7876 H   0  0  0  0  0  0  0  0  0  0  0  0  # atno 10167 bound_to 10162
  156.8152  130.9600  151.3114 H   0  0  0  0  0  0  0  0  0  0  0  0  # atno 10718 bound_to 10713
  153.5439  135.7013  153.5623 H   0  0  0  0  0  0  0  0  0  0  0  0  # atno 10763 bound_to 10752
  153.3577  135.3978  155.1694 H   0  0  0  0  0  0  0  0  0  0  0  0  # atno 10764 bound_to 10752
  154.8670  135.3781  154.4945 H   0  0  0  0  0  0  0  0  0  0  0  0  # atno 10765 bound_to 10752
  140.5358  134.0422  155.7888 H   0  0  0  0  0  0  0  0  0  0  0  0  # atno 11005 bound_to 11000
  144.8551  140.7059  143.6143 LP  0  0  0  0  0  0  0  0  0  0  0  0  # atno 17320 bound_to 7965
  145.3689  139.1663  143.4343 LP  0  0  0  0  0  0  0  0  0  0  0  0  # atno 17321 bound_to 7965
  140.7479  143.2914  151.3321 LP  0  0  0  0  0  0  0  0  0  0  0  0  # atno 17342 bound_to 10162
  139.6389  144.0577  152.2538 LP  0  0  0  0  0  0  0  0  0  0  0  0  # atno 17343 bound_to 10162
  157.6485  130.8865  149.9586 LP  0  0  0  0  0  0  0  0  0  0  0  0  # atno 17370 bound_to 10713
  156.1021  130.3655  150.0199 LP  0  0  0  0  0  0  0  0  0  0  0  0  # atno 17371 bound_to 10713
  141.1255  133.9390  157.2643 LP  0  0  0  0  0  0  0  0  0  0  0  0  # atno 17394 bound_to 11000
  139.9530  135.0171  156.9047 LP  0  0  0  0  0  0  0  0  0  0  0  0  # atno 17395 bound_to 11000

$$$$
