AV-unprocessed.smi:706|AV-procd|sdf|3452|dock10
  -GOLD-   22720 0433D 1   1.00000     0.00000
 Structure written by MMmdl.
 27 27  0  0  0  0  0  0  0  0  1 V2000
  150.3732  145.0420  160.2650 C   0  0  0  0  0  0  0  0  0  0  0  0
  151.8393  145.4043  160.0183 C   0  0  0  0  0  0  0  0  0  0  0  0
  152.3006  144.6907  158.8806 O   0  0  0  0  0  0  0  0  0  0  0  0
  153.1441  143.5902  159.1884 C   0  0  0  0  0  0  0  0  0  0  0  0
  152.3311  142.3046  159.4285 C   0  0  0  0  0  0  0  0  0  0  0  0
  151.8737  141.7022  158.1941 N   0  0  0  0  0  0  0  0  0  0  0  0
  150.9436  142.2965  157.3374 C   0  0  0  0  0  0  0  0  0  0  0  0
  150.4177  143.5347  157.6613 N   0  0  0  0  0  0  0  0  0  0  0  0
  150.5529  141.6944  156.1852 C   0  0  0  0  0  0  0  0  0  0  0  0
  151.0908  140.3997  155.7823 C   0  0  0  0  0  0  0  0  0  0  0  0
  150.7806  139.7899  154.7614 O   0  0  0  0  0  0  0  0  0  0  0  0
  152.0303  139.8635  156.6629 N   0  0  0  0  0  0  0  0  0  0  0  0
  152.4586  140.4585  157.8478 C   0  0  0  0  0  0  0  0  0  0  0  0
  153.3130  139.8958  158.5336 O   0  0  0  0  0  0  0  0  0  0  0  0
  152.4392  138.9735  156.4178 H   0  0  0  0  0  0  0  0  0  0  0  0
  149.9811  145.5719  161.1332 H   0  0  0  0  0  0  0  0  0  0  0  0
  150.2598  143.9730  160.4464 H   0  0  0  0  0  0  0  0  0  0  0  0
  149.7553  145.3044  159.4058 H   0  0  0  0  0  0  0  0  0  0  0  0
  151.9310  146.4785  159.8514 H   0  0  0  0  0  0  0  0  0  0  0  0
  152.4303  145.1553  160.8996 H   0  0  0  0  0  0  0  0  0  0  0  0
  153.8034  143.4389  158.3330 H   0  0  0  0  0  0  0  0  0  0  0  0
  153.7899  143.8221  160.0369 H   0  0  0  0  0  0  0  0  0  0  0  0
  152.8867  141.5456  159.9808 H   0  0  0  0  0  0  0  0  0  0  0  0
  151.4468  142.5052  160.0322 H   0  0  0  0  0  0  0  0  0  0  0  0
  150.6866  144.0251  158.5025 H   0  0  0  0  0  0  0  0  0  0  0  0
  149.7250  143.9876  157.0821 H   0  0  0  0  0  0  0  0  0  0  0  0
  149.8302  142.1756  155.5407 H   0  0  0  0  0  0  0  0  0  0  0  0
  1  2  1  0  0  0  0
  1 16  1  0  0  0  0
  1 17  1  0  0  0  0
  1 18  1  0  0  0  0
  2  3  1  0  0  0  0
  2 19  1  0  0  0  0
  2 20  1  0  0  0  0
  3  4  1  0  0  0  0
  4  5  1  0  0  0  0
  4 21  1  0  0  0  0
  4 22  1  0  0  0  0
  5  6  1  0  0  0  0
  5 23  1  0  0  0  0
  5 24  1  0  0  0  0
  6 13  1  0  0  0  0
  6  7  1  0  0  0  0
  7  8  1  0  0  0  0
  7  9  2  0  0  0  0
  8 25  1  0  0  0  0
  8 26  1  0  0  0  0
  9 10  1  0  0  0  0
  9 27  1  0  0  0  0
 10 11  2  0  0  0  0
 10 12  1  0  0  0  0
 12 15  1  0  0  0  0
 12 13  1  0  0  0  0
 13 14  2  0  0  0  0
M  END
> <s_m_source_file>
AV-unprocessed.smi

> <i_m_source_file_index>
706

> <i_lp_mmshare_version>
43012

> <i_f3d_flags>
0

> <s_epik_input>
W0NIM11bQ0gyXU9bQ0gyXVtDSDJdbjFjKFtOSDJdKVtjSF1jKD1PKVtuSF1jMT1P

> <s_epik_cmdline>
J2VwaWtfcHl0aG9uJywgJy1waCcsICc3LjAnLCAnLXRuJywgJzgnLCAnLW1hJywgJzIwMCcsICctbWV0YWxfYmluZGluZycsICctaW1hZScsICc8aW5maWxlLm1hZT4nLCAnLW9tYWUnLCAnPG91dGZpbGUubWFlPic=

> <r_lp_tautomer_probability>
1

> <r_epik_Ionization_Penalty>
6.92057e-06

> <r_epik_Ionization_Penalty_Charging>
2.18399e-06

> <r_epik_Ionization_Penalty_Neutral>
4.73657e-06

> <r_epik_State_Penalty>
-0

> <r_epik_Charging_Adjusted_Penalty>
2.18399e-06

> <i_epik_Tot_Q>
0

> <i_epik_Tot_abs_Q>
0

> <r_epik_Metal_State_Penalty>
-0

> <b_epik_Metal_Only>
0

> <s_epik_Chemistry_Notes>
This compound has an imine and may undergo hydrolysis.

> <s_lp_Force_Field>
OPLS_2005

> <r_lp_Energy>
11.2939

> <b_lp_Chiralities_Consistent>
1

> <s_lp_Variant>
AV-unprocessed.smi:706-1

> <Gold.Version>
5.8.1

> <Gold.Id.Protein>
6NUR|6NUR_protein|mol2

> <Gold.PLP.Fitness>
38.0889

> <Gold.PLP.PLP>
-30.7616

> <Gold.PLP.part.hbond>
-3.0000

> <Gold.PLP.part.metal>
0.0000

> <Gold.PLP.part.buried>
-4.7434

> <Gold.PLP.part.nonpolar>
-22.8446

> <Gold.PLP.part.repulsive>
0.2461

> <Gold.PLP.ligand.clash>
0.0000

> <Gold.PLP.ligand.torsion>
0.6104

> <Gold.PLP.Chemscore.Hbond>
2.8480

> <Gold.PLP.Chemscore.CHOScore>
0.0000

> <Gold.PLP.Chemscore.Metal>
0.0000

> <Gold.Chemscore.Hbonds>
donor molecule, donor type, donor heavy atom, donor atom, acceptor molecule, acceptor atom, score
      L1  H     8    26       P1  8028  1.00
      P1  H  7989  7998       L1    11  0.95
      P1  H  7997  8008       L1    14  0.79

> <Gold.PLP.Chemscore.Internal.Correction>
0.0042

> <Gold.Rescore>
     Score         DG    S(hbond)    S(metal)    S(lipo)     H(rot)  DE(clash)    DE(int)     intcor
     10.61     -11.28       1.59        0.00      50.80       2.12       0.04       0.63       ----

> <Gold.Chemscore.Fitness>
10.6128

> <Gold.Chemscore.DG>
-11.2841

> <Gold.Chemscore.ZeroCoef>
-5.4800

> <Gold.Chemscore.Hbond>
1.5868

> <Gold.Chemscore.Metal>
0.0000

> <Gold.Chemscore.Lipo>
50.8049

> <Gold.Chemscore.Internal_Hbond>
0.0000

> <Gold.Chemscore.DEClash>
0.0383

> <Gold.Chemscore.DEInternal>
0.6330

> <Gold.Chemscore.Rot>
2.1250

> <Gold.Chemscore.Internal.Correction>
   9.000000E+99

> <Gold.Chemscore.Hbonds>
donor molecule, donor type, donor heavy atom, donor atom, acceptor molecule, acceptor atom, score
      L1  H     8    26       P1  8028  0.78
      P1  H  7989  7998       L1    11  0.22
      P1  H  7997  8008       L1    14  0.19

> <Gold.Chemscore.Hbond.Weighted>
-5.2998

> <Gold.Chemscore.Metal.Weighted>
-0.0000

> <Gold.Chemscore.Lipo.Weighted>
-5.9442

> <Gold.Chemscore.Internal_Hbond.Weighted>
0.0000

> <Gold.Chemscore.DEClash.Weighted>
0.0383

> <Gold.Chemscore.DEInternal.Weighted>
0.6330

> <Gold.Chemscore.Rot.Weighted>
5.4399

> <Gold.Chemscore.Internal.Correction.Weighted>
   9.000000E+99

> <Gold.Protein.RotatedTorsions>
[ 6907 6896 6895 6894 ] final  160.14 input  -60.11 | X-H torsion
[ 7974 7965 7964 7962 ] final  -74.64 input  175.53 | X-H torsion
[ 8008 7997 7996 7995 ] final -111.83 input   59.86 | X-H torsion
[ 10167 10162 10161 10158 ] final  149.19 input  -65.29 | X-H torsion
[ 10718 10713 10712 10709 ] final  -28.73 input   66.30 | X-H torsion
[ 10763 10752 10751 10750 ] final -141.62 input  -60.55 | X-H torsion
[ 11005 11000 10999 10996 ] final -130.36 input  -57.11 | X-H torsion

> <Gold.Protein.ActiveResidues>
 VAL166  LYS551  ARG553  GLY616  TRP617  ASP618  TYR619  PRO620  LYS621  CYS622 
 ASP623  PHE694  ASN695  SER759  ASP760  ASP761  ALA762  ILE779  LEU786  VAL792 
 PHE793  MET794  SER795  GLU796  ALA797  LYS798  CYS799  TRP800  GLU811  SER814 

> <Gold.Protein.RotatedAtoms>
  151.9751  133.3739  159.4085 H   0  0  0  0  0  0  0  0  0  0  0  0  # atno 6907 bound_to 6896
  150.6943  134.4098  159.5166 H   0  0  0  0  0  0  0  0  0  0  0  0  # atno 6908 bound_to 6896
  152.1808  134.8755  160.0577 H   0  0  0  0  0  0  0  0  0  0  0  0  # atno 6909 bound_to 6896
  145.6364  140.9323  143.1059 H   0  0  0  0  0  0  0  0  0  0  0  0  # atno 7974 bound_to 7965
  154.9958  140.0394  157.2339 H   0  0  0  0  0  0  0  0  0  0  0  0  # atno 8008 bound_to 7997
  154.7587  140.2780  155.6209 H   0  0  0  0  0  0  0  0  0  0  0  0  # atno 8009 bound_to 7997
  156.2900  140.2632  156.2360 H   0  0  0  0  0  0  0  0  0  0  0  0  # atno 8010 bound_to 7997
  139.4865  144.5621  151.7212 H   0  0  0  0  0  0  0  0  0  0  0  0  # atno 10167 bound_to 10162
  156.4215  130.4427  149.7180 H   0  0  0  0  0  0  0  0  0  0  0  0  # atno 10718 bound_to 10713
  154.8538  135.3519  154.5897 H   0  0  0  0  0  0  0  0  0  0  0  0  # atno 10763 bound_to 10752
  153.6507  135.6994  153.5214 H   0  0  0  0  0  0  0  0  0  0  0  0  # atno 10764 bound_to 10752
  153.2896  135.4239  155.1113 H   0  0  0  0  0  0  0  0  0  0  0  0  # atno 10765 bound_to 10752
  140.9353  134.1266  157.4199 H   0  0  0  0  0  0  0  0  0  0  0  0  # atno 11005 bound_to 11000
  144.7174  139.8149  143.7394 LP  0  0  0  0  0  0  0  0  0  0  0  0  # atno 17320 bound_to 7965
  146.1316  139.4352  143.0165 LP  0  0  0  0  0  0  0  0  0  0  0  0  # atno 17321 bound_to 7965
  140.5192  144.0905  150.6017 LP  0  0  0  0  0  0  0  0  0  0  0  0  # atno 17342 bound_to 10162
  140.3857  143.2779  152.0119 LP  0  0  0  0  0  0  0  0  0  0  0  0  # atno 17343 bound_to 10162
  156.4119  130.7726  151.2739 LP  0  0  0  0  0  0  0  0  0  0  0  0  # atno 17370 bound_to 10713
  157.7508  131.0209  150.3727 LP  0  0  0  0  0  0  0  0  0  0  0  0  # atno 17371 bound_to 10713
  139.8806  135.0018  156.6092 LP  0  0  0  0  0  0  0  0  0  0  0  0  # atno 17394 bound_to 11000
  140.7808  133.8661  155.8566 LP  0  0  0  0  0  0  0  0  0  0  0  0  # atno 17395 bound_to 11000

$$$$
