AV-unprocessed.smi:153|AV-procd|sdf|1251|dock1
  -GOLD-   2262018483D 1   1.00000     0.00000
 Structure written by MMmdl.
 60 63  0  0  0  0  0  0  0  0  2 V2000
  148.8341  139.1123  154.4372 C   0  0  0  0  0  0  0  0  0  0  0  0
  150.2217  138.7093  154.9618 C   0  0  1  0  0  0  0  0  0  0  0  0
  151.1818  139.6775  154.5554 O   0  0  0  0  0  0  0  0  0  0  0  0
  152.2667  139.6226  155.4632 C   0  0  0  0  0  0  0  0  0  0  0  0
  151.5588  139.5073  156.8045 C   0  0  0  0  0  0  0  0  0  0  0  0
  150.3802  138.5768  156.5020 C   0  0  1  0  0  0  0  0  0  0  0  0
  149.2452  139.0593  157.2010 O   0  0  0  0  0  0  0  0  0  0  0  0
  150.6242  137.0996  156.9104 C   0  0  0  0  0  0  0  0  0  0  0  0
  149.4834  136.2183  156.7036 N   0  0  0  0  0  0  0  0  0  0  0  0
  148.9306  135.8566  155.4971 C   0  0  0  0  0  0  0  0  0  0  0  0
  147.9071  135.0520  155.5750 N   0  0  0  0  0  0  0  0  0  0  0  0
  147.7156  134.8608  156.9397 C   0  0  0  0  0  0  0  0  0  0  0  0
  146.7936  134.1074  157.7299 C   0  0  0  0  0  0  0  0  0  0  0  0
  145.7881  133.3349  157.2329 N   0  0  0  0  0  0  0  0  0  0  0  0
  144.7466  132.8399  158.1242 C   0  0  0  0  0  0  0  0  0  0  0  0
  145.5511  133.2827  155.7882 C   0  0  0  0  0  0  0  0  0  0  0  0
  144.6410  134.4238  155.2899 C   0  0  2  0  0  0  0  0  0  0  0  0
  143.3174  134.0891  155.6563 O   0  0  0  0  0  0  0  0  0  0  0  0
  144.6915  134.6131  153.7570 C   0  0  0  0  0  0  0  0  0  0  0  0
  144.4245  133.3601  153.0067 N   0  3  0  0  0  0  0  0  0  0  0  0
  143.8170  133.5871  151.6709 C   0  0  0  0  0  0  0  0  0  0  0  0
  143.5487  132.2467  150.9657 C   0  0  0  0  0  0  0  0  0  0  0  0
  144.7601  131.5091  150.8643 O   0  0  0  0  0  0  0  0  0  0  0  0
  145.3049  131.2051  152.1420 C   0  0  0  0  0  0  0  0  0  0  0  0
  145.6333  132.5106  152.8858 C   0  0  0  0  0  0  0  0  0  0  0  0
  146.9540  134.1586  159.0787 N   0  0  0  0  0  0  0  0  0  0  0  0
  147.9241  134.8954  159.6252 C   0  0  0  0  0  0  0  0  0  0  0  0
  148.8435  135.6433  159.0161 N   0  0  0  0  0  0  0  0  0  0  0  0
  148.7046  135.5915  157.6613 C   0  0  0  0  0  0  0  0  0  0  0  0
  148.0745  138.3907  154.7393 H   0  0  0  0  0  0  0  0  0  0  0  0
  148.8315  139.1580  153.3481 H   0  0  0  0  0  0  0  0  0  0  0  0
  148.5364  140.0937  154.8074 H   0  0  0  0  0  0  0  0  0  0  0  0
  150.5079  137.7704  154.4844 H   0  0  0  0  0  0  0  0  0  0  0  0
  152.8782  138.7416  155.2618 H   0  0  0  0  0  0  0  0  0  0  0  0
  152.8974  140.5090  155.3918 H   0  0  0  0  0  0  0  0  0  0  0  0
  152.2200  139.1629  157.5978 H   0  0  0  0  0  0  0  0  0  0  0  0
  151.2026  140.4987  157.0903 H   0  0  0  0  0  0  0  0  0  0  0  0
  148.5210  138.4755  157.0359 H   0  0  0  0  0  0  0  0  0  0  0  0
  151.4699  136.6942  156.3529 H   0  0  0  0  0  0  0  0  0  0  0  0
  150.9030  137.0441  157.9639 H   0  0  0  0  0  0  0  0  0  0  0  0
  149.3176  136.2039  154.5500 H   0  0  0  0  0  0  0  0  0  0  0  0
  145.1743  132.4612  159.0532 H   0  0  0  0  0  0  0  0  0  0  0  0
  144.1998  132.0202  157.6573 H   0  0  0  0  0  0  0  0  0  0  0  0
  144.0322  133.6290  158.3594 H   0  0  0  0  0  0  0  0  0  0  0  0
  146.4801  133.2636  155.2180 H   0  0  0  0  0  0  0  0  0  0  0  0
  145.0704  132.3265  155.5777 H   0  0  0  0  0  0  0  0  0  0  0  0
  144.9090  135.3416  155.8117 H   0  0  0  0  0  0  0  0  0  0  0  0
  143.1964  133.1579  155.5545 H   0  0  0  0  0  0  0  0  0  0  0  0
  143.9698  135.3605  153.4289 H   0  0  0  0  0  0  0  0  0  0  0  0
  145.6735  135.0059  153.4880 H   0  0  0  0  0  0  0  0  0  0  0  0
  142.8812  134.1373  151.7625 H   0  0  0  0  0  0  0  0  0  0  0  0
  144.4862  134.1976  151.0619 H   0  0  0  0  0  0  0  0  0  0  0  0
  142.7981  131.6656  151.5041 H   0  0  0  0  0  0  0  0  0  0  0  0
  143.1571  132.4217  149.9635 H   0  0  0  0  0  0  0  0  0  0  0  0
  144.6044  130.5949  152.7147 H   0  0  0  0  0  0  0  0  0  0  0  0
  146.2093  130.6112  152.0091 H   0  0  0  0  0  0  0  0  0  0  0  0
  146.4139  133.0575  152.3544 H   0  0  0  0  0  0  0  0  0  0  0  0
  146.0229  132.2775  153.8775 H   0  0  0  0  0  0  0  0  0  0  0  0
  147.9711  134.8825  160.7043 H   0  0  0  0  0  0  0  0  0  0  0  0
  143.7604  132.8299  153.5526 H   0  0  0  0  0  0  0  0  0  0  0  0
  1  2  1  0  0  0  0
  1 30  1  0  0  0  0
  1 31  1  0  0  0  0
  1 32  1  0  0  0  0
  2  6  1  0  0  0  0
  2  3  1  0  0  0  0
  2 33  1  0  0  0  0
  3  4  1  0  0  0  0
  4  5  1  0  0  0  0
  4 34  1  0  0  0  0
  4 35  1  0  0  0  0
  5  6  1  0  0  0  0
  5 36  1  0  0  0  0
  5 37  1  0  0  0  0
  6  7  1  0  0  0  0
  6  8  1  0  0  0  0
  7 38  1  0  0  0  0
  8  9  1  0  0  0  0
  8 39  1  0  0  0  0
  8 40  1  0  0  0  0
  9 29  1  0  0  0  0
  9 10  1  0  0  0  0
 10 11  2  0  0  0  0
 10 41  1  0  0  0  0
 11 12  1  0  0  0  0
 12 29  2  0  0  0  0
 12 13  1  0  0  0  0
 13 14  1  0  0  0  0
 13 26  2  0  0  0  0
 14 15  1  0  0  0  0
 14 16  1  0  0  0  0
 15 42  1  0  0  0  0
 15 43  1  0  0  0  0
 15 44  1  0  0  0  0
 16 17  1  0  0  0  0
 16 45  1  0  0  0  0
 16 46  1  0  0  0  0
 17 18  1  0  0  0  0
 17 19  1  0  0  0  0
 17 47  1  0  0  0  0
 18 48  1  0  0  0  0
 19 20  1  0  0  0  0
 19 49  1  0  0  0  0
 19 50  1  0  0  0  0
 20 25  1  0  0  0  0
 20 21  1  0  0  0  0
 20 60  1  0  0  0  0
 21 22  1  0  0  0  0
 21 51  1  0  0  0  0
 21 52  1  0  0  0  0
 22 23  1  0  0  0  0
 22 53  1  0  0  0  0
 22 54  1  0  0  0  0
 23 24  1  0  0  0  0
 24 25  1  0  0  0  0
 24 55  1  0  0  0  0
 24 56  1  0  0  0  0
 25 57  1  0  0  0  0
 25 58  1  0  0  0  0
 26 27  1  0  0  0  0
 27 28  2  0  0  0  0
 27 59  1  0  0  0  0
 28 29  1  0  0  0  0
M  CHG  1  20   1
M  END
> <s_m_source_file>
AV-unprocessed.smi

> <i_m_source_file_index>
153

> <i_lp_mmshare_version>
43012

> <i_f3d_flags>
0

> <s_epik_input>
W0NIMl0xW0NIMl1PW0NAQEhdKFtDSDNdKVtDQEBdMShbT0hdKVtDSDJdbihbY0hdbjIpYyhjMjMpbltjSF1uYzNOKFtDSDNdKVtDSDJdW0NASF0oW09IXSlbQ0gyXU40W0NIMl1bQ0gyXU9bQ0gyXVtDSDJdNA==

> <s_epik_cmdline>
J2VwaWtfcHl0aG9uJywgJy1waCcsICc3LjAnLCAnLXRuJywgJzgnLCAnLW1hJywgJzIwMCcsICctbWV0YWxfYmluZGluZycsICctaW1hZScsICc8aW5maWxlLm1hZT4nLCAnLW9tYWUnLCAnPG91dGZpbGUubWFlPic=

> <r_lp_tautomer_probability>
1

> <r_epik_Ionization_Penalty>
0.403509

> <r_epik_Ionization_Penalty_Charging>
0.40072

> <r_epik_Ionization_Penalty_Neutral>
0.00278876

> <r_epik_State_Penalty>
0.400058

> <r_epik_Charging_Adjusted_Penalty>
0.800778

> <i_epik_Tot_Q>
1

> <i_epik_Tot_abs_Q>
1

> <r_epik_Metal_State_Penalty>
0.400321

> <b_epik_Metal_Only>
0

> <s_lp_Force_Field>
OPLS_2005

> <r_lp_Energy>
45.7554

> <b_lp_Chiralities_Consistent>
1

> <s_lp_Variant>
AV-unprocessed.smi:153-2

> <Gold.Version>
5.8.1

> <Gold.Id.Protein>
6NUR|6NUR_protein|mol2

> <Gold.PLP.Fitness>
45.2317

> <Gold.PLP.PLP>
-28.3744

> <Gold.PLP.part.hbond>
-4.2793

> <Gold.PLP.part.metal>
0.0000

> <Gold.PLP.part.buried>
-4.4202

> <Gold.PLP.part.nonpolar>
-20.5368

> <Gold.PLP.part.repulsive>
0.3107

> <Gold.PLP.ligand.clash>
0.0000

> <Gold.PLP.ligand.torsion>
0.8565

> <Gold.PLP.Chemscore.Hbond>
5.0000

> <Gold.PLP.Chemscore.CHOScore>
1.0000

> <Gold.PLP.Chemscore.Metal>
0.0000

> <Gold.Chemscore.Hbonds>
donor molecule, donor type, donor heavy atom, donor atom, acceptor molecule, acceptor atom, score
      L1  H    18    48       P1 10957  1.00
      L1  H    20    60       P1 10957  2.00
      P1  H  6896  6909       L1    28  0.62
      P1  H  7989  7998       L1     3  1.00
      L1  C    10    41       P1  7948  0.60

> <Gold.PLP.Chemscore.Internal.Correction>
0.5704

> <Gold.Rescore>
     Score         DG    S(hbond)    S(metal)    S(lipo)     H(rot)  DE(clash)    DE(int)     intcor
     13.01     -15.44       3.48        0.00      65.07       3.62       0.26       2.17       ----

> <Gold.Chemscore.Fitness>
13.0127

> <Gold.Chemscore.DG>
-15.4443

> <Gold.Chemscore.ZeroCoef>
-5.4800

> <Gold.Chemscore.Hbond>
3.4771

> <Gold.Chemscore.Metal>
0.0000

> <Gold.Chemscore.Lipo>
65.0698

> <Gold.Chemscore.Internal_Hbond>
0.0000

> <Gold.Chemscore.DEClash>
0.2639

> <Gold.Chemscore.DEInternal>
2.1677

> <Gold.Chemscore.Rot>
3.6182

> <Gold.Chemscore.Internal.Correction>
   9.000000E+99

> <Gold.Chemscore.Hbonds>
donor molecule, donor type, donor heavy atom, donor atom, acceptor molecule, acceptor atom, score
      L1  H    18    48       P1 10957  0.98
      L1  H    20    60       P1 10957  0.74
      P1  H  6896  6909       L1    28  0.18
      P1  H  7989  7998       L1     3  0.40

> <Gold.Chemscore.Hbond.Weighted>
-11.6136

> <Gold.Chemscore.Metal.Weighted>
-0.0000

> <Gold.Chemscore.Lipo.Weighted>
-7.6132

> <Gold.Chemscore.Internal_Hbond.Weighted>
0.0000

> <Gold.Chemscore.DEClash.Weighted>
0.2639

> <Gold.Chemscore.DEInternal.Weighted>
2.1677

> <Gold.Chemscore.Rot.Weighted>
9.2625

> <Gold.Chemscore.Internal.Correction.Weighted>
   9.000000E+99

> <Gold.Protein.RotatedTorsions>
[ 6907 6896 6895 6894 ] final   58.76 input  -60.11 | X-H torsion
[ 7974 7965 7964 7962 ] final  -27.57 input  175.53 | X-H torsion
[ 8008 7997 7996 7995 ] final  -49.72 input   59.86 | X-H torsion
[ 10167 10162 10161 10158 ] final  111.86 input  -65.29 | X-H torsion
[ 10718 10713 10712 10709 ] final -141.01 input   66.30 | X-H torsion
[ 10763 10752 10751 10750 ] final  -96.79 input  -60.55 | X-H torsion
[ 11005 11000 10999 10996 ] final  134.89 input  -57.11 | X-H torsion

> <Gold.Protein.ActiveResidues>
 VAL166  LYS551  ARG553  GLY616  TRP617  ASP618  TYR619  PRO620  LYS621  CYS622 
 ASP623  PHE694  ASN695  SER759  ASP760  ASP761  ALA762  ILE779  LEU786  VAL792 
 PHE793  MET794  SER795  GLU796  ALA797  LYS798  CYS799  TRP800  GLU811  SER814 

> <Gold.Protein.RotatedAtoms>
  152.3853  134.6527  160.0127 H   0  0  0  0  0  0  0  0  0  0  0  0  # atno 6907 bound_to 6896
  151.6777  133.3307  159.3220 H   0  0  0  0  0  0  0  0  0  0  0  0  # atno 6908 bound_to 6896
  150.7781  134.6744  159.6454 H   0  0  0  0  0  0  0  0  0  0  0  0  # atno 6909 bound_to 6896
  146.1349  140.5169  142.8677 H   0  0  0  0  0  0  0  0  0  0  0  0  # atno 7974 bound_to 7965
  154.4049  140.1290  156.4549 H   0  0  0  0  0  0  0  0  0  0  0  0  # atno 8008 bound_to 7997
  155.7330  140.3491  155.5048 H   0  0  0  0  0  0  0  0  0  0  0  0  # atno 8009 bound_to 7997
  155.9109  140.1036  157.1270 H   0  0  0  0  0  0  0  0  0  0  0  0  # atno 8010 bound_to 7997
  139.6579  144.7129  151.1921 H   0  0  0  0  0  0  0  0  0  0  0  0  # atno 10167 bound_to 10162
  156.3290  130.7576  151.1690 H   0  0  0  0  0  0  0  0  0  0  0  0  # atno 10718 bound_to 10713
  154.7271  135.5070  153.8903 H   0  0  0  0  0  0  0  0  0  0  0  0  # atno 10763 bound_to 10752
  153.0915  135.6660  153.9854 H   0  0  0  0  0  0  0  0  0  0  0  0  # atno 10764 bound_to 10752
  153.9664  135.3042  155.3409 H   0  0  0  0  0  0  0  0  0  0  0  0  # atno 10765 bound_to 10752
  139.9944  134.9503  156.9930 H   0  0  0  0  0  0  0  0  0  0  0  0  # atno 11005 bound_to 11000
  144.7729  140.5676  143.6658 LP  0  0  0  0  0  0  0  0  0  0  0  0  # atno 17320 bound_to 7965
  145.5179  139.1477  143.3569 LP  0  0  0  0  0  0  0  0  0  0  0  0  # atno 17321 bound_to 7965
  140.7567  143.6042  150.8670 LP  0  0  0  0  0  0  0  0  0  0  0  0  # atno 17342 bound_to 10162
  139.9696  143.6071  152.2977 LP  0  0  0  0  0  0  0  0  0  0  0  0  # atno 17343 bound_to 10162
  157.7427  131.0486  150.5005 LP  0  0  0  0  0  0  0  0  0  0  0  0  # atno 17370 bound_to 10713
  156.5169  130.4152  149.6271 LP  0  0  0  0  0  0  0  0  0  0  0  0  # atno 17371 bound_to 10713
  140.4847  134.1254  155.7222 LP  0  0  0  0  0  0  0  0  0  0  0  0  # atno 17394 bound_to 11000
  141.1592  133.8825  157.1894 LP  0  0  0  0  0  0  0  0  0  0  0  0  # atno 17395 bound_to 11000

$$$$
