AV-unprocessed.smi:1199|AV-procd|sdf|5017|dock1
  -GOLD-   22720 4 33D 1   1.00000     0.00000
 Structure written by MMmdl.
 41 42  0  0  0  0  0  0  0  0  3 V2000
  147.9098  136.5245  154.9615 C   0  0  0  0  0  0  0  0  0  0  0  0
  147.4432  135.1182  155.3659 C   0  0  1  0  0  0  0  0  0  0  0  0
  147.6873  134.0798  154.2484 C   0  0  0  0  0  0  0  0  0  0  0  0
  146.9964  134.3984  152.9695 N   0  3  0  0  0  0  0  0  0  0  0  0
  146.9158  133.2558  152.0267 C   0  0  0  0  0  0  0  0  0  0  0  0
  146.2285  133.6895  150.7210 C   0  0  0  0  0  0  0  0  0  0  0  0
  144.9354  134.2048  151.0125 O   0  0  0  0  0  0  0  0  0  0  0  0
  144.9986  135.3549  151.8464 C   0  0  0  0  0  0  0  0  0  0  0  0
  145.6543  134.9881  153.1877 C   0  0  0  0  0  0  0  0  0  0  0  0
  148.1071  134.6930  156.5929 N   0  0  0  0  0  0  0  0  0  0  0  0
  147.6935  134.9361  157.8467 C   0  0  0  0  0  0  0  0  0  0  0  0
  146.7440  135.6740  158.1075 O   0  0  0  0  0  0  0  0  0  0  0  0
  148.4273  134.2128  158.9885 C   0  0  0  0  0  0  0  0  0  0  0  0
  147.8706  134.4720  160.3274 N   0  0  0  0  0  0  0  0  0  0  0  0
  147.7671  135.8924  160.6547 N   0  5  0  0  0  0  0  0  0  0  0  0
  147.3084  136.2577  161.8806 C   0  0  0  0  0  0  0  0  0  0  0  0
  147.2348  137.4299  162.2405 O   0  0  0  0  0  0  0  0  0  0  0  0
  146.8756  135.2091  162.7889 C   0  0  0  0  0  0  0  0  0  0  0  0
  146.9364  133.9084  162.4415 C   0  0  0  0  0  0  0  0  0  0  0  0
  147.4462  133.4693  161.1482 C   0  0  0  0  0  0  0  0  0  0  0  0
  147.4869  132.2848  160.8173 O   0  0  0  0  0  0  0  0  0  0  0  0
  147.4111  136.8552  154.0501 H   0  0  0  0  0  0  0  0  0  0  0  0
  148.9850  136.5509  154.7811 H   0  0  0  0  0  0  0  0  0  0  0  0
  147.6857  137.2534  155.7411 H   0  0  0  0  0  0  0  0  0  0  0  0
  146.3683  135.1650  155.5481 H   0  0  0  0  0  0  0  0  0  0  0  0
  148.7568  133.9540  154.0729 H   0  0  0  0  0  0  0  0  0  0  0  0
  147.3176  133.1133  154.5944 H   0  0  0  0  0  0  0  0  0  0  0  0
  147.9130  132.8823  151.7955 H   0  0  0  0  0  0  0  0  0  0  0  0
  146.3635  132.4359  152.4880 H   0  0  0  0  0  0  0  0  0  0  0  0
  146.8236  134.4367  150.1940 H   0  0  0  0  0  0  0  0  0  0  0  0
  146.1250  132.8364  150.0504 H   0  0  0  0  0  0  0  0  0  0  0  0
  145.5500  136.1527  151.3500 H   0  0  0  0  0  0  0  0  0  0  0  0
  143.9871  135.7258  152.0127 H   0  0  0  0  0  0  0  0  0  0  0  0
  145.0265  134.2771  153.7272 H   0  0  0  0  0  0  0  0  0  0  0  0
  145.7376  135.8802  153.8092 H   0  0  0  0  0  0  0  0  0  0  0  0
  148.9086  134.0873  156.4891 H   0  0  0  0  0  0  0  0  0  0  0  0
  148.4389  133.1435  158.7722 H   0  0  0  0  0  0  0  0  0  0  0  0
  149.4742  134.5208  158.9674 H   0  0  0  0  0  0  0  0  0  0  0  0
  146.4938  135.4790  163.7625 H   0  0  0  0  0  0  0  0  0  0  0  0
  146.6006  133.1627  163.1468 H   0  0  0  0  0  0  0  0  0  0  0  0
  147.5503  135.1090  152.5105 H   0  0  0  0  0  0  0  0  0  0  0  0
  1  2  1  0  0  0  0
  1 22  1  0  0  0  0
  1 23  1  0  0  0  0
  1 24  1  0  0  0  0
  2  3  1  0  0  0  0
  2 10  1  0  0  0  0
  2 25  1  0  0  0  0
  3  4  1  0  0  0  0
  3 26  1  0  0  0  0
  3 27  1  0  0  0  0
  4  9  1  0  0  0  0
  4  5  1  0  0  0  0
  4 41  1  0  0  0  0
  5  6  1  0  0  0  0
  5 28  1  0  0  0  0
  5 29  1  0  0  0  0
  6  7  1  0  0  0  0
  6 30  1  0  0  0  0
  6 31  1  0  0  0  0
  7  8  1  0  0  0  0
  8  9  1  0  0  0  0
  8 32  1  0  0  0  0
  8 33  1  0  0  0  0
  9 34  1  0  0  0  0
  9 35  1  0  0  0  0
 10 11  1  0  0  0  0
 10 36  1  0  0  0  0
 11 12  2  0  0  0  0
 11 13  1  0  0  0  0
 13 37  1  0  0  0  0
 13 38  1  0  0  0  0
 13 14  1  0  0  0  0
 14 15  1  0  0  0  0
 14 20  1  0  0  0  0
 15 16  1  0  0  0  0
 16 17  2  0  0  0  0
 16 18  1  0  0  0  0
 18 39  1  0  0  0  0
 18 19  2  0  0  0  0
 19 40  1  0  0  0  0
 19 20  1  0  0  0  0
 20 21  2  0  0  0  0
M  CHG  1   4   1
M  CHG  1  15  -1
M  END
> <s_m_source_file>
AV-unprocessed.smi

> <i_m_source_file_index>
1199

> <i_lp_mmshare_version>
43012

> <i_f3d_flags>
0

> <s_epik_input>
W0NIMl0xW0NIMl1PW0NIMl1bQ0gyXU4xW0NIMl1bQ0BASF0oW0NIM10pW05IXUMoPU8pW0NIMl1uMltuSF1jKD1PKVtjSF1bY0hdYzI9Tw==

> <s_epik_cmdline>
J2VwaWtfcHl0aG9uJywgJy1waCcsICc3LjAnLCAnLXRuJywgJzgnLCAnLW1hJywgJzIwMCcsICctbWV0YWxfYmluZGluZycsICctaW1hZScsICc8aW5maWxlLm1hZT4nLCAnLW9tYWUnLCAnPG91dGZpbGUubWFlPic=

> <r_lp_tautomer_probability>
1

> <r_epik_Ionization_Penalty>
0.741876

> <r_epik_Ionization_Penalty_Charging>
0.741876

> <r_epik_Ionization_Penalty_Neutral>
9.12373e-08

> <r_epik_State_Penalty>
0.692284

> <r_epik_Charging_Adjusted_Penalty>
1.43416

> <i_epik_Tot_Q>
0

> <i_epik_Tot_abs_Q>
2

> <r_epik_Metal_State_Penalty>
0.692284

> <b_epik_Metal_Only>
0

> <s_lp_Force_Field>
OPLS_2005

> <r_lp_Energy>
27.3091

> <b_lp_Chiralities_Consistent>
1

> <s_lp_Variant>
AV-unprocessed.smi:1199-4

> <Gold.Version>
5.8.1

> <Gold.Id.Protein>
6NUR|6NUR_protein|mol2

> <Gold.PLP.Fitness>
37.7919

> <Gold.PLP.PLP>
-29.0926

> <Gold.PLP.part.hbond>
-3.0000

> <Gold.PLP.part.metal>
0.0000

> <Gold.PLP.part.buried>
-2.8298

> <Gold.PLP.part.nonpolar>
-23.0912

> <Gold.PLP.part.repulsive>
0.1502

> <Gold.PLP.ligand.clash>
0.0000

> <Gold.PLP.ligand.torsion>
0.5738

> <Gold.PLP.Chemscore.Hbond>
3.2480

> <Gold.PLP.Chemscore.CHOScore>
0.0000

> <Gold.PLP.Chemscore.Metal>
0.0000

> <Gold.Chemscore.Hbonds>
donor molecule, donor type, donor heavy atom, donor atom, acceptor molecule, acceptor atom, score
      L1  H     4    41       P1  7948  2.00
      P1  H  6931  6943       L1    17  0.70
      P1  H  6934  6947       L1    17  0.58

> <Gold.PLP.Chemscore.Internal.Correction>
0.1028

> <Gold.Rescore>
     Score         DG    S(hbond)    S(metal)    S(lipo)     H(rot)  DE(clash)    DE(int)     intcor
      9.82     -12.14       2.08        0.00      49.58       2.37       0.27       2.04       ----

> <Gold.Chemscore.Fitness>
9.8208

> <Gold.Chemscore.DG>
-12.1360

> <Gold.Chemscore.ZeroCoef>
-5.4800

> <Gold.Chemscore.Hbond>
2.0761

> <Gold.Chemscore.Metal>
0.0000

> <Gold.Chemscore.Lipo>
49.5816

> <Gold.Chemscore.Internal_Hbond>
0.0000

> <Gold.Chemscore.DEClash>
0.2746

> <Gold.Chemscore.DEInternal>
2.0406

> <Gold.Chemscore.Rot>
2.3747

> <Gold.Chemscore.Internal.Correction>
   9.000000E+99

> <Gold.Chemscore.Hbonds>
donor molecule, donor type, donor heavy atom, donor atom, acceptor molecule, acceptor atom, score
      L1  H     4    41       P1  7948  0.99
      P1  H  6931  6943       L1    17  0.44
      P1  H  6934  6947       L1    17  0.55

> <Gold.Chemscore.Hbond.Weighted>
-6.9341

> <Gold.Chemscore.Metal.Weighted>
-0.0000

> <Gold.Chemscore.Lipo.Weighted>
-5.8010

> <Gold.Chemscore.Internal_Hbond.Weighted>
0.0000

> <Gold.Chemscore.DEClash.Weighted>
0.2746

> <Gold.Chemscore.DEInternal.Weighted>
2.0406

> <Gold.Chemscore.Rot.Weighted>
6.0791

> <Gold.Chemscore.Internal.Correction.Weighted>
   9.000000E+99

> <Gold.Protein.RotatedTorsions>
[ 6907 6896 6895 6894 ] final  -64.74 input  -60.11 | X-H torsion
[ 7974 7965 7964 7962 ] final   -7.43 input  175.53 | X-H torsion
[ 8008 7997 7996 7995 ] final  101.09 input   59.86 | X-H torsion
[ 10167 10162 10161 10158 ] final  143.28 input  -65.29 | X-H torsion
[ 10718 10713 10712 10709 ] final   98.41 input   66.30 | X-H torsion
[ 10763 10752 10751 10750 ] final  -20.35 input  -60.55 | X-H torsion
[ 11005 11000 10999 10996 ] final   63.74 input  -57.11 | X-H torsion

> <Gold.Protein.ActiveResidues>
 VAL166  LYS551  ARG553  GLY616  TRP617  ASP618  TYR619  PRO620  LYS621  CYS622 
 ASP623  PHE694  ASN695  SER759  ASP760  ASP761  ALA762  ILE779  LEU786  VAL792 
 PHE793  MET794  SER795  GLU796  ALA797  LYS798  CYS799  TRP800  GLU811  SER814 

> <Gold.Protein.RotatedAtoms>
  150.7566  134.6256  159.6158 H   0  0  0  0  0  0  0  0  0  0  0  0  # atno 6907 bound_to 6896
  152.3549  134.6951  160.0234 H   0  0  0  0  0  0  0  0  0  0  0  0  # atno 6908 bound_to 6896
  151.7360  133.3283  159.3389 H   0  0  0  0  0  0  0  0  0  0  0  0  # atno 6909 bound_to 6896
  146.2307  140.2319  142.8340 H   0  0  0  0  0  0  0  0  0  0  0  0  # atno 7974 bound_to 7965
  156.1266  140.3203  155.8286 H   0  0  0  0  0  0  0  0  0  0  0  0  # atno 8008 bound_to 7997
  155.4408  140.0525  157.3027 H   0  0  0  0  0  0  0  0  0  0  0  0  # atno 8009 bound_to 7997
  154.4867  140.2075  155.9652 H   0  0  0  0  0  0  0  0  0  0  0  0  # atno 8010 bound_to 7997
  139.4973  144.6051  151.6396 H   0  0  0  0  0  0  0  0  0  0  0  0  # atno 10167 bound_to 10162
  157.6896  131.0639  150.4792 H   0  0  0  0  0  0  0  0  0  0  0  0  # atno 10718 bound_to 10713
  153.6191  135.6993  153.5317 H   0  0  0  0  0  0  0  0  0  0  0  0  # atno 10763 bound_to 10752
  153.2953  135.4145  155.1203 H   0  0  0  0  0  0  0  0  0  0  0  0  # atno 10764 bound_to 10752
  154.8547  135.3635  154.5731 H   0  0  0  0  0  0  0  0  0  0  0  0  # atno 10765 bound_to 10752
  140.0005  134.6450  155.9939 H   0  0  0  0  0  0  0  0  0  0  0  0  # atno 11005 bound_to 11000
  144.9552  140.8219  143.5547 LP  0  0  0  0  0  0  0  0  0  0  0  0  # atno 17320 bound_to 7965
  145.2283  139.2126  143.5056 LP  0  0  0  0  0  0  0  0  0  0  0  0  # atno 17321 bound_to 7965
  140.5711  144.0107  150.6217 LP  0  0  0  0  0  0  0  0  0  0  0  0  # atno 17342 bound_to 10162
  140.3225  143.3128  152.0769 LP  0  0  0  0  0  0  0  0  0  0  0  0  # atno 17343 bound_to 10162
  156.5125  130.4142  149.6293 LP  0  0  0  0  0  0  0  0  0  0  0  0  # atno 17370 bound_to 10713
  156.3228  130.7289  151.2204 LP  0  0  0  0  0  0  0  0  0  0  0  0  # atno 17371 bound_to 10713
  141.1638  133.6537  156.4408 LP  0  0  0  0  0  0  0  0  0  0  0  0  # atno 17394 bound_to 11000
  140.4737  134.6729  157.5141 LP  0  0  0  0  0  0  0  0  0  0  0  0  # atno 17395 bound_to 11000

$$$$
