AV-unprocessed.smi:1362|AV-procd|sdf|5560|dock2
  -GOLD-   22720 5153D 1   1.00000     0.00000
 Structure written by MMmdl.
 39 39  0  0  0  0  0  0  0  0  1 V2000
  150.9601  142.6531  157.3637 C   0  0  0  0  0  0  0  0  0  0  0  0
  150.3679  141.7239  156.3266 C   0  0  0  0  0  0  0  0  0  0  0  0
  149.2364  142.2303  155.7092 N   0  0  0  0  0  0  0  0  0  0  0  0
  148.6219  141.4527  154.7438 C   0  0  0  0  0  0  0  0  0  0  0  0
  147.3895  142.0836  154.1194 C   0  0  0  0  0  0  0  0  0  0  0  0
  149.1105  140.2310  154.4107 C   0  0  0  0  0  0  0  0  0  0  0  0
  148.4610  139.3371  153.3558 C   0  0  0  0  0  0  0  0  0  0  0  0
  147.0969  138.7655  153.7415 C   0  0  0  0  0  0  0  0  0  0  0  0
  146.2471  139.4895  154.2591 O   0  0  0  0  0  0  0  0  0  0  0  0
  146.9083  137.4616  153.4858 N   0  0  0  0  0  0  0  0  0  0  0  0
  145.7001  136.6957  153.7862 C   0  0  2  0  0  0  0  0  0  0  0  0
  146.1121  135.3861  154.4842 C   0  0  0  0  0  0  0  0  0  0  0  0
  144.8764  136.4706  152.4908 C   0  0  0  0  0  0  0  0  0  0  0  0
  143.5577  135.7203  152.7627 C   0  0  0  0  0  0  0  0  0  0  0  0
  145.6763  135.7235  151.4084 C   0  0  0  0  0  0  0  0  0  0  0  0
  150.3212  139.7400  155.1109 C   0  0  0  0  0  0  0  0  0  0  0  0
  150.8027  138.6346  154.8652 O   0  0  0  0  0  0  0  0  0  0  0  0
  150.9087  140.5698  156.0794 N   0  0  0  0  0  0  0  0  0  0  0  0
  148.8394  143.1331  155.9268 H   0  0  0  0  0  0  0  0  0  0  0  0
  151.8811  142.2402  157.7776 H   0  0  0  0  0  0  0  0  0  0  0  0
  150.2559  142.8050  158.1821 H   0  0  0  0  0  0  0  0  0  0  0  0
  151.1908  143.6219  156.9196 H   0  0  0  0  0  0  0  0  0  0  0  0
  147.5326  142.2213  153.0475 H   0  0  0  0  0  0  0  0  0  0  0  0
  147.1734  143.0601  154.5547 H   0  0  0  0  0  0  0  0  0  0  0  0
  146.5163  141.4497  154.2736 H   0  0  0  0  0  0  0  0  0  0  0  0
  149.1257  138.5151  153.0866 H   0  0  0  0  0  0  0  0  0  0  0  0
  148.3446  139.9061  152.4332 H   0  0  0  0  0  0  0  0  0  0  0  0
  147.6676  136.9544  153.0544 H   0  0  0  0  0  0  0  0  0  0  0  0
  145.0808  137.2689  154.4787 H   0  0  0  0  0  0  0  0  0  0  0  0
  145.2471  134.8297  154.8434 H   0  0  0  0  0  0  0  0  0  0  0  0
  146.7404  135.5852  155.3531 H   0  0  0  0  0  0  0  0  0  0  0  0
  146.6744  134.7377  153.8115 H   0  0  0  0  0  0  0  0  0  0  0  0
  144.6130  137.4480  152.0835 H   0  0  0  0  0  0  0  0  0  0  0  0
  143.7454  134.7452  153.2133 H   0  0  0  0  0  0  0  0  0  0  0  0
  143.0010  135.5565  151.8396 H   0  0  0  0  0  0  0  0  0  0  0  0
  142.9023  136.2765  153.4330 H   0  0  0  0  0  0  0  0  0  0  0  0
  146.0355  134.7612  151.7742 H   0  0  0  0  0  0  0  0  0  0  0  0
  146.5381  136.2987  151.0715 H   0  0  0  0  0  0  0  0  0  0  0  0
  145.0620  135.5338  150.5277 H   0  0  0  0  0  0  0  0  0  0  0  0
  1 20  1  0  0  0  0
  1 21  1  0  0  0  0
  1 22  1  0  0  0  0
  1  2  1  0  0  0  0
  2  3  1  0  0  0  0
  2 18  2  0  0  0  0
  3  4  1  0  0  0  0
  3 19  1  0  0  0  0
  4  6  2  0  0  0  0
  4  5  1  0  0  0  0
  5 23  1  0  0  0  0
  5 24  1  0  0  0  0
  5 25  1  0  0  0  0
  6 16  1  0  0  0  0
  6  7  1  0  0  0  0
  7  8  1  0  0  0  0
  7 26  1  0  0  0  0
  7 27  1  0  0  0  0
  8  9  2  0  0  0  0
  8 10  1  0  0  0  0
 10 11  1  0  0  0  0
 10 28  1  0  0  0  0
 11 12  1  0  0  0  0
 11 13  1  0  0  0  0
 11 29  1  0  0  0  0
 12 30  1  0  0  0  0
 12 31  1  0  0  0  0
 12 32  1  0  0  0  0
 13 14  1  0  0  0  0
 13 15  1  0  0  0  0
 13 33  1  0  0  0  0
 14 34  1  0  0  0  0
 14 35  1  0  0  0  0
 14 36  1  0  0  0  0
 15 37  1  0  0  0  0
 15 38  1  0  0  0  0
 15 39  1  0  0  0  0
 16 17  2  0  0  0  0
 16 18  1  0  0  0  0
M  END
> <s_m_source_file>
AV-unprocessed.smi

> <i_m_source_file_index>
1362

> <i_lp_mmshare_version>
43012

> <i_f3d_flags>
0

> <s_epik_input>
W0NIM11jMW5jKFtDSDNdKWMoYyg9TylbbkhdMSlbQ0gyXUMoPU8pW05IXVtDQEhdKFtDSDNdKVtDSF0oW0NIM10pW0NIM10=

> <s_epik_cmdline>
J2VwaWtfcHl0aG9uJywgJy1waCcsICc3LjAnLCAnLXRuJywgJzgnLCAnLW1hJywgJzIwMCcsICctbWV0YWxfYmluZGluZycsICctaW1hZScsICc8aW5maWxlLm1hZT4nLCAnLW9tYWUnLCAnPG91dGZpbGUubWFlPic=

> <r_lp_tautomer_probability>
0.156392

> <r_epik_Ionization_Penalty>
0.0140737

> <r_epik_Ionization_Penalty_Charging>
0.0139511

> <r_epik_Ionization_Penalty_Neutral>
0.000122633

> <r_epik_State_Penalty>
1.53034

> <r_epik_Charging_Adjusted_Penalty>
1.54429

> <i_epik_Tot_Q>
0

> <i_epik_Tot_abs_Q>
0

> <r_epik_Metal_State_Penalty>
1.70655

> <b_epik_Metal_Only>
0

> <s_lp_Force_Field>
OPLS_2005

> <r_lp_Energy>
10.2097

> <b_lp_Chiralities_Consistent>
1

> <s_lp_Variant>
AV-unprocessed.smi:1362-3

> <Gold.Version>
5.8.1

> <Gold.Id.Protein>
6NUR|6NUR_protein|mol2

> <Gold.PLP.Fitness>
33.2419

> <Gold.PLP.PLP>
-28.2255

> <Gold.PLP.part.hbond>
-1.9374

> <Gold.PLP.part.metal>
0.0000

> <Gold.PLP.part.buried>
-0.4555

> <Gold.PLP.part.nonpolar>
-26.8339

> <Gold.PLP.part.repulsive>
0.4593

> <Gold.PLP.ligand.clash>
0.0000

> <Gold.PLP.ligand.torsion>
0.4453

> <Gold.PLP.Chemscore.Hbond>
1.9600

> <Gold.PLP.Chemscore.CHOScore>
0.0000

> <Gold.PLP.Chemscore.Metal>
0.0000

> <Gold.Chemscore.Hbonds>
donor molecule, donor type, donor heavy atom, donor atom, acceptor molecule, acceptor atom, score
      L1  H     3    19       P1  8028  0.94
      L1  H    10    28       P1  7948  1.00

> <Gold.PLP.Chemscore.Internal.Correction>
0.0271

> <Gold.Rescore>
     Score         DG    S(hbond)    S(metal)    S(lipo)     H(rot)  DE(clash)    DE(int)     intcor
     12.22     -14.58       1.98        0.00      58.15       1.69       1.77       0.59       ----

> <Gold.Chemscore.Fitness>
12.2189

> <Gold.Chemscore.DG>
-14.5770

> <Gold.Chemscore.ZeroCoef>
-5.4800

> <Gold.Chemscore.Hbond>
1.9832

> <Gold.Chemscore.Metal>
0.0000

> <Gold.Chemscore.Lipo>
58.1519

> <Gold.Chemscore.Internal_Hbond>
0.0000

> <Gold.Chemscore.DEClash>
1.7687

> <Gold.Chemscore.DEInternal>
0.5894

> <Gold.Chemscore.Rot>
1.6916

> <Gold.Chemscore.Internal.Correction>
   9.000000E+99

> <Gold.Chemscore.Hbonds>
donor molecule, donor type, donor heavy atom, donor atom, acceptor molecule, acceptor atom, score
      L1  H     3    19       P1  8028  0.90
      L1  H    10    28       P1  7948  1.00

> <Gold.Chemscore.Hbond.Weighted>
-6.6238

> <Gold.Chemscore.Metal.Weighted>
-0.0000

> <Gold.Chemscore.Lipo.Weighted>
-6.8038

> <Gold.Chemscore.Internal_Hbond.Weighted>
0.0000

> <Gold.Chemscore.DEClash.Weighted>
1.7687

> <Gold.Chemscore.DEInternal.Weighted>
0.5894

> <Gold.Chemscore.Rot.Weighted>
4.3305

> <Gold.Chemscore.Internal.Correction.Weighted>
   9.000000E+99

> <Gold.Protein.RotatedTorsions>
[ 6907 6896 6895 6894 ] final  -67.77 input  -60.11 | X-H torsion
[ 7974 7965 7964 7962 ] final -131.85 input  175.53 | X-H torsion
[ 8008 7997 7996 7995 ] final  100.87 input   59.86 | X-H torsion
[ 10167 10162 10161 10158 ] final -140.79 input  -65.29 | X-H torsion
[ 10718 10713 10712 10709 ] final  -58.36 input   66.30 | X-H torsion
[ 10763 10752 10751 10750 ] final  145.58 input  -60.55 | X-H torsion
[ 11005 11000 10999 10996 ] final -157.74 input  -57.11 | X-H torsion

> <Gold.Protein.ActiveResidues>
 VAL166  LYS551  ARG553  GLY616  TRP617  ASP618  TYR619  PRO620  LYS621  CYS622 
 ASP623  PHE694  ASN695  SER759  ASP760  ASP761  ALA762  ILE779  LEU786  VAL792 
 PHE793  MET794  SER795  GLU796  ALA797  LYS798  CYS799  TRP800  GLU811  SER814 

> <Gold.Protein.RotatedAtoms>
  150.7391  134.5833  159.5949 H   0  0  0  0  0  0  0  0  0  0  0  0  # atno 6907 bound_to 6896
  152.3241  134.7340  160.0315 H   0  0  0  0  0  0  0  0  0  0  0  0  # atno 6908 bound_to 6896
  151.7846  133.3317  159.3518 H   0  0  0  0  0  0  0  0  0  0  0  0  # atno 6909 bound_to 6896
  144.9341  140.7162  143.4888 H   0  0  0  0  0  0  0  0  0  0  0  0  # atno 7974 bound_to 7965
  156.1245  140.3206  155.8257 H   0  0  0  0  0  0  0  0  0  0  0  0  # atno 8008 bound_to 7997
  155.4444  140.0528  157.3024 H   0  0  0  0  0  0  0  0  0  0  0  0  # atno 8009 bound_to 7997
  154.4852  140.2070  155.9684 H   0  0  0  0  0  0  0  0  0  0  0  0  # atno 8010 bound_to 7997
  139.8248  143.7526  152.2666 H   0  0  0  0  0  0  0  0  0  0  0  0  # atno 10167 bound_to 10162
  156.1141  130.4172  150.0567 H   0  0  0  0  0  0  0  0  0  0  0  0  # atno 10718 bound_to 10713
  154.0078  135.2917  155.3396 H   0  0  0  0  0  0  0  0  0  0  0  0  # atno 10763 bound_to 10752
  154.7121  135.5145  153.8686 H   0  0  0  0  0  0  0  0  0  0  0  0  # atno 10764 bound_to 10752
  153.0737  135.6656  154.0312 H   0  0  0  0  0  0  0  0  0  0  0  0  # atno 10765 bound_to 10752
  140.6613  134.4346  157.5234 H   0  0  0  0  0  0  0  0  0  0  0  0  # atno 11005 bound_to 11000
  145.3095  139.1823  143.4646 LP  0  0  0  0  0  0  0  0  0  0  0  0  # atno 17320 bound_to 7965
  146.3259  140.3098  142.8626 LP  0  0  0  0  0  0  0  0  0  0  0  0  # atno 17321 bound_to 7965
  139.7715  144.7475  151.0217 LP  0  0  0  0  0  0  0  0  0  0  0  0  # atno 17342 bound_to 10162
  140.7811  143.4640  151.0238 LP  0  0  0  0  0  0  0  0  0  0  0  0  # atno 17343 bound_to 10162
  156.8523  130.9463  151.3624 LP  0  0  0  0  0  0  0  0  0  0  0  0  # atno 17370 bound_to 10713
  157.6323  130.8739  149.9296 LP  0  0  0  0  0  0  0  0  0  0  0  0  # atno 17371 bound_to 10713
  139.9012  134.8552  156.1888 LP  0  0  0  0  0  0  0  0  0  0  0  0  # atno 17394 bound_to 11000
  141.0463  133.6911  156.1689 LP  0  0  0  0  0  0  0  0  0  0  0  0  # atno 17395 bound_to 11000

$$$$
