AV-unprocessed.smi:213|AV-procd|sdf|1634|dock4
  -GOLD-   2262019593D 1   1.00000     0.00000
 Structure written by MMmdl.
 59 62  0  0  0  0  0  0  0  0  2 V2000
  146.4564  135.2937  156.8898 C   0  0  0  0  0  0  0  0  0  0  0  0
  147.1202  135.4448  155.5083 C   0  0  1  0  0  0  0  0  0  0  0  0
  146.4195  136.5132  154.6366 C   0  0  0  0  0  0  0  0  0  0  0  0
  146.2835  136.0933  153.2194 N   0  3  0  0  0  0  0  0  0  0  0  0
  145.7924  134.7016  153.0830 C   0  0  0  0  0  0  0  0  0  0  0  0
  145.7183  134.2999  151.6000 C   0  0  0  0  0  0  0  0  0  0  0  0
  144.8812  135.2117  150.9000 O   0  0  0  0  0  0  0  0  0  0  0  0
  145.3855  136.5405  150.9474 C   0  0  0  0  0  0  0  0  0  0  0  0
  145.4520  137.0173  152.4082 C   0  0  0  0  0  0  0  0  0  0  0  0
  148.5573  135.7199  155.6431 N   0  0  0  0  0  0  0  0  0  0  0  0
  149.5266  134.6404  155.4664 C   0  0  0  0  0  0  0  0  0  0  0  0
  148.9769  136.8138  156.3407 C   0  0  0  0  0  0  0  0  0  0  0  0
  148.8448  136.8327  157.6952 N   0  0  0  0  0  0  0  0  0  0  0  0
  149.2555  137.8854  158.4075 C   0  0  0  0  0  0  0  0  0  0  0  0
  149.8176  139.0144  157.9765 N   0  0  0  0  0  0  0  0  0  0  0  0
  149.9511  139.0114  156.6197 C   0  0  0  0  0  0  0  0  0  0  0  0
  149.5609  137.9663  155.7335 C   0  0  0  0  0  0  0  0  0  0  0  0
  149.8456  138.3380  154.4233 N   0  0  0  0  0  0  0  0  0  0  0  0
  150.3909  139.5181  154.5317 C   0  0  0  0  0  0  0  0  0  0  0  0
  150.5008  139.9957  155.8169 N   0  0  0  0  0  0  0  0  0  0  0  0
  151.0720  141.2672  156.2291 C   0  0  0  0  0  0  0  0  0  0  0  0
  151.0782  141.4898  157.7587 C   0  0  2  0  0  0  0  0  0  0  0  0
  149.7588  141.5830  158.2608 O   0  0  0  0  0  0  0  0  0  0  0  0
  151.9298  142.6835  158.2494 C   0  0  2  0  0  0  0  0  0  0  0  0
  152.0258  142.8576  159.7655 C   0  0  0  0  0  0  0  0  0  0  0  0
  152.4800  144.2969  159.8663 C   0  0  0  0  0  0  0  0  0  0  0  0
  151.7059  144.9589  158.7278 C   0  0  0  0  0  0  0  0  0  0  0  0
  151.4722  143.9406  157.7593 O   0  0  0  0  0  0  0  0  0  0  0  0
  145.4205  134.9680  156.7951 H   0  0  0  0  0  0  0  0  0  0  0  0
  146.4543  136.2293  157.4488 H   0  0  0  0  0  0  0  0  0  0  0  0
  146.9758  134.5474  157.4918 H   0  0  0  0  0  0  0  0  0  0  0  0
  147.0146  134.4710  155.0320 H   0  0  0  0  0  0  0  0  0  0  0  0
  145.4299  136.7096  155.0513 H   0  0  0  0  0  0  0  0  0  0  0  0
  146.9541  137.4634  154.6756 H   0  0  0  0  0  0  0  0  0  0  0  0
  146.4584  134.0192  153.6123 H   0  0  0  0  0  0  0  0  0  0  0  0
  144.8078  134.6136  153.5451 H   0  0  0  0  0  0  0  0  0  0  0  0
  146.7126  134.2812  151.1506 H   0  0  0  0  0  0  0  0  0  0  0  0
  145.3062  133.2955  151.5027 H   0  0  0  0  0  0  0  0  0  0  0  0
  146.3688  136.5870  150.4764 H   0  0  0  0  0  0  0  0  0  0  0  0
  144.7254  137.1884  150.3705 H   0  0  0  0  0  0  0  0  0  0  0  0
  144.4456  137.0679  152.8270 H   0  0  0  0  0  0  0  0  0  0  0  0
  145.8596  138.0271  152.4391 H   0  0  0  0  0  0  0  0  0  0  0  0
  150.2203  134.5868  156.3067 H   0  0  0  0  0  0  0  0  0  0  0  0
  150.1009  134.7971  154.5532 H   0  0  0  0  0  0  0  0  0  0  0  0
  149.0399  133.6691  155.3889 H   0  0  0  0  0  0  0  0  0  0  0  0
  149.1148  137.8123  159.4758 H   0  0  0  0  0  0  0  0  0  0  0  0
  150.7354  140.0740  153.6719 H   0  0  0  0  0  0  0  0  0  0  0  0
  152.0885  141.3262  155.8380 H   0  0  0  0  0  0  0  0  0  0  0  0
  150.5150  142.0692  155.7440 H   0  0  0  0  0  0  0  0  0  0  0  0
  151.5007  140.5902  158.2073 H   0  0  0  0  0  0  0  0  0  0  0  0
  149.1607  141.2929  157.5895 H   0  0  0  0  0  0  0  0  0  0  0  0
  152.9436  142.5587  157.8648 H   0  0  0  0  0  0  0  0  0  0  0  0
  151.0514  142.7444  160.2417 H   0  0  0  0  0  0  0  0  0  0  0  0
  152.7190  142.1572  160.2316 H   0  0  0  0  0  0  0  0  0  0  0  0
  152.2760  144.7461  160.8384 H   0  0  0  0  0  0  0  0  0  0  0  0
  153.5524  144.3627  159.6779 H   0  0  0  0  0  0  0  0  0  0  0  0
  150.7416  145.3244  159.0820 H   0  0  0  0  0  0  0  0  0  0  0  0
  152.2480  145.7990  158.2938 H   0  0  0  0  0  0  0  0  0  0  0  0
  147.2132  136.1041  152.8250 H   0  0  0  0  0  0  0  0  0  0  0  0
  1  2  1  0  0  0  0
  1 29  1  0  0  0  0
  1 30  1  0  0  0  0
  1 31  1  0  0  0  0
  2  3  1  0  0  0  0
  2 10  1  0  0  0  0
  2 32  1  0  0  0  0
  3  4  1  0  0  0  0
  3 33  1  0  0  0  0
  3 34  1  0  0  0  0
  4  9  1  0  0  0  0
  4  5  1  0  0  0  0
  4 59  1  0  0  0  0
  5  6  1  0  0  0  0
  5 35  1  0  0  0  0
  5 36  1  0  0  0  0
  6  7  1  0  0  0  0
  6 37  1  0  0  0  0
  6 38  1  0  0  0  0
  7  8  1  0  0  0  0
  8  9  1  0  0  0  0
  8 39  1  0  0  0  0
  8 40  1  0  0  0  0
  9 41  1  0  0  0  0
  9 42  1  0  0  0  0
 10 11  1  0  0  0  0
 10 12  1  0  0  0  0
 11 43  1  0  0  0  0
 11 44  1  0  0  0  0
 11 45  1  0  0  0  0
 12 17  1  0  0  0  0
 12 13  2  0  0  0  0
 13 14  1  0  0  0  0
 14 15  2  0  0  0  0
 14 46  1  0  0  0  0
 15 16  1  0  0  0  0
 16 20  1  0  0  0  0
 16 17  2  0  0  0  0
 17 18  1  0  0  0  0
 18 19  2  0  0  0  0
 19 20  1  0  0  0  0
 19 47  1  0  0  0  0
 20 21  1  0  0  0  0
 21 22  1  0  0  0  0
 21 48  1  0  0  0  0
 21 49  1  0  0  0  0
 22 23  1  0  0  0  0
 22 24  1  0  0  0  0
 22 50  1  0  0  0  0
 23 51  1  0  0  0  0
 24 28  1  0  0  0  0
 24 25  1  0  0  0  0
 24 52  1  0  0  0  0
 25 26  1  0  0  0  0
 25 53  1  0  0  0  0
 25 54  1  0  0  0  0
 26 27  1  0  0  0  0
 26 55  1  0  0  0  0
 26 56  1  0  0  0  0
 27 28  1  0  0  0  0
 27 57  1  0  0  0  0
 27 58  1  0  0  0  0
M  CHG  1   4   1
M  END
> <s_m_source_file>
AV-unprocessed.smi

> <i_m_source_file_index>
213

> <i_lp_mmshare_version>
43012

> <i_f3d_flags>
0

> <s_epik_input>
W0NIMl0xW0NIMl1PW0NIMl1bQ0gyXU4xW0NIMl1bQ0BASF0oW0NIM10pTihbQ0gzXSljKG5bY0hdbjIpYyhjMjMpbltjSF1uM1tDSDJdW0NASF0oW09IXSlbQ0BASF00W0NIMl1bQ0gyXVtDSDJdTzQ=

> <s_epik_cmdline>
J2VwaWtfcHl0aG9uJywgJy1waCcsICc3LjAnLCAnLXRuJywgJzgnLCAnLW1hJywgJzIwMCcsICctbWV0YWxfYmluZGluZycsICctaW1hZScsICc8aW5maWxlLm1hZT4nLCAnLW9tYWUnLCAnPG91dGZpbGUubWFlPic=

> <r_lp_tautomer_probability>
1

> <r_epik_Ionization_Penalty>
0.399679

> <r_epik_Ionization_Penalty_Charging>
0.399433

> <r_epik_Ionization_Penalty_Neutral>
0.000246213

> <r_epik_State_Penalty>
0.286032

> <r_epik_Charging_Adjusted_Penalty>
0.685465

> <i_epik_Tot_Q>
1

> <i_epik_Tot_abs_Q>
1

> <r_epik_Metal_State_Penalty>
0.286072

> <b_epik_Metal_Only>
0

> <s_lp_Force_Field>
OPLS_2005

> <r_lp_Energy>
46.153

> <b_lp_Chiralities_Consistent>
1

> <s_lp_Variant>
AV-unprocessed.smi:213-2

> <Gold.Version>
5.8.1

> <Gold.Id.Protein>
6NUR|6NUR_protein|mol2

> <Gold.PLP.Fitness>
44.3412

> <Gold.PLP.PLP>
-39.1080

> <Gold.PLP.part.hbond>
-1.0000

> <Gold.PLP.part.metal>
0.0000

> <Gold.PLP.part.buried>
-6.5414

> <Gold.PLP.part.nonpolar>
-32.5473

> <Gold.PLP.part.repulsive>
0.5707

> <Gold.PLP.ligand.clash>
0.0000

> <Gold.PLP.ligand.torsion>
2.3311

> <Gold.PLP.Chemscore.Hbond>
2.0000

> <Gold.PLP.Chemscore.CHOScore>
1.0000

> <Gold.PLP.Chemscore.Metal>
0.0000

> <Gold.Chemscore.Hbonds>
donor molecule, donor type, donor heavy atom, donor atom, acceptor molecule, acceptor atom, score
      L1  H     4    59       P1  7948  2.00
      L1  C    19    47       P1  7957  0.45

> <Gold.PLP.Chemscore.Internal.Correction>
0.8955

> <Gold.Rescore>
     Score         DG    S(hbond)    S(metal)    S(lipo)     H(rot)  DE(clash)    DE(int)     intcor
      7.17     -11.97       0.99        0.00      88.98       2.83       0.08       4.73       ----

> <Gold.Chemscore.Fitness>
7.1651

> <Gold.Chemscore.DG>
-11.9741

> <Gold.Chemscore.ZeroCoef>
-5.4800

> <Gold.Chemscore.Hbond>
0.9930

> <Gold.Chemscore.Metal>
0.0000

> <Gold.Chemscore.Lipo>
88.9794

> <Gold.Chemscore.Internal_Hbond>
0.0000

> <Gold.Chemscore.DEClash>
0.0821

> <Gold.Chemscore.DEInternal>
4.7269

> <Gold.Chemscore.Rot>
2.8254

> <Gold.Chemscore.Internal.Correction>
   9.000000E+99

> <Gold.Chemscore.Hbonds>
donor molecule, donor type, donor heavy atom, donor atom, acceptor molecule, acceptor atom, score
      L1  H     4    59       P1  7948  0.97

> <Gold.Chemscore.Hbond.Weighted>
-3.3165

> <Gold.Chemscore.Metal.Weighted>
-0.0000

> <Gold.Chemscore.Lipo.Weighted>
-10.4106

> <Gold.Chemscore.Internal_Hbond.Weighted>
0.0000

> <Gold.Chemscore.DEClash.Weighted>
0.0821

> <Gold.Chemscore.DEInternal.Weighted>
4.7269

> <Gold.Chemscore.Rot.Weighted>
7.2330

> <Gold.Chemscore.Internal.Correction.Weighted>
   9.000000E+99

> <Gold.Protein.RotatedTorsions>
[ 6907 6896 6895 6894 ] final -176.05 input  -60.11 | X-H torsion
[ 7974 7965 7964 7962 ] final   56.92 input  175.53 | X-H torsion
[ 8008 7997 7996 7995 ] final   76.49 input   59.86 | X-H torsion
[ 10167 10162 10161 10158 ] final  -96.41 input  -65.29 | X-H torsion
[ 10718 10713 10712 10709 ] final  -60.80 input   66.30 | X-H torsion
[ 10763 10752 10751 10750 ] final  -61.03 input  -60.55 | X-H torsion
[ 11005 11000 10999 10996 ] final   66.59 input  -57.11 | X-H torsion

> <Gold.Protein.ActiveResidues>
 VAL166  LYS551  ARG553  GLY616  TRP617  ASP618  TYR619  PRO620  LYS621  CYS622 
 ASP623  PHE694  ASN695  SER759  ASP760  ASP761  ALA762  ILE779  LEU786  VAL792 
 PHE793  MET794  SER795  GLU796  ALA797  LYS798  CYS799  TRP800  GLU811  SER814 

> <Gold.Protein.RotatedAtoms>
  151.5986  133.3359  159.3042 H   0  0  0  0  0  0  0  0  0  0  0  0  # atno 6907 bound_to 6896
  150.8220  134.7436  159.6792 H   0  0  0  0  0  0  0  0  0  0  0  0  # atno 6908 bound_to 6896
  152.4313  134.5778  159.9991 H   0  0  0  0  0  0  0  0  0  0  0  0  # atno 6909 bound_to 6896
  145.9346  139.3836  143.0400 H   0  0  0  0  0  0  0  0  0  0  0  0  # atno 7974 bound_to 7965
  155.8281  140.3467  155.5555 H   0  0  0  0  0  0  0  0  0  0  0  0  # atno 8008 bound_to 7997
  155.8271  140.0921  157.1834 H   0  0  0  0  0  0  0  0  0  0  0  0  # atno 8009 bound_to 7997
  154.4004  140.1419  156.3557 H   0  0  0  0  0  0  0  0  0  0  0  0  # atno 8010 bound_to 7997
  140.2940  143.3203  152.0316 H   0  0  0  0  0  0  0  0  0  0  0  0  # atno 10167 bound_to 10162
  156.0965  130.4192  150.0905 H   0  0  0  0  0  0  0  0  0  0  0  0  # atno 10718 bound_to 10713
  154.2783  135.6277  153.5337 H   0  0  0  0  0  0  0  0  0  0  0  0  # atno 10763 bound_to 10752
  152.9869  135.5627  154.5523 H   0  0  0  0  0  0  0  0  0  0  0  0  # atno 10764 bound_to 10752
  154.5109  135.2877  155.1319 H   0  0  0  0  0  0  0  0  0  0  0  0  # atno 10765 bound_to 10752
  139.9822  134.6725  156.0241 H   0  0  0  0  0  0  0  0  0  0  0  0  # atno 11005 bound_to 11000
  145.8381  140.9595  143.0814 LP  0  0  0  0  0  0  0  0  0  0  0  0  # atno 17320 bound_to 7965
  144.6770  140.0248  143.7483 LP  0  0  0  0  0  0  0  0  0  0  0  0  # atno 17321 bound_to 7965
  139.4931  144.6504  151.6688 LP  0  0  0  0  0  0  0  0  0  0  0  0  # atno 17342 bound_to 10162
  140.5708  144.0113  150.6215 LP  0  0  0  0  0  0  0  0  0  0  0  0  # atno 17343 bound_to 10162
  156.8902  130.9586  151.3589 LP  0  0  0  0  0  0  0  0  0  0  0  0  # atno 17370 bound_to 10713
  157.6127  130.8595  149.8978 LP  0  0  0  0  0  0  0  0  0  0  0  0  # atno 17371 bound_to 10713
  141.1493  133.6551  156.3962 LP  0  0  0  0  0  0  0  0  0  0  0  0  # atno 17394 bound_to 11000
  140.5073  134.6428  157.5271 LP  0  0  0  0  0  0  0  0  0  0  0  0  # atno 17395 bound_to 11000

$$$$
