AV-unprocessed.smi:2492|AV-procd|sdf|9815|dock8
  -GOLD-   2272013443D 1   1.00000     0.00000
 Structure written by MMmdl.
 32 33  0  0  0  0  0  0  0  0  2 V2000
  154.1678  140.7700  161.0556 C   0  0  0  0  0  0  0  0  0  0  0  0
  153.1699  142.1024  161.7722 S   0  0  0  0  0  0  0  0  0  0  0  0
  152.4733  142.8256  160.2591 C   0  0  2  0  0  0  0  0  0  0  0  0
  153.5182  143.5615  159.4249 C   0  0  0  0  0  0  0  0  0  0  0  0
  152.6971  144.4768  158.5145 C   0  0  0  0  0  0  0  0  0  0  0  0
  151.4104  144.8120  159.2936 C   0  0  1  0  0  0  0  0  0  0  0  0
  150.2288  144.5926  158.4619 N   0  0  0  0  0  0  0  0  0  0  0  0
  149.8832  143.4382  157.8734 C   0  0  0  0  0  0  0  0  0  0  0  0
  150.5959  142.4411  158.0102 O   0  0  0  0  0  0  0  0  0  0  0  0
  148.7355  143.5120  157.1619 N   0  5  0  0  0  0  0  0  0  0  0  0
  147.5507  143.4265  157.7889 C   0  0  0  0  0  0  0  0  0  0  0  0
  147.3436  142.9288  159.0088 N   0  0  0  0  0  0  0  0  0  0  0  0
  146.0015  143.0925  159.1532 C   0  0  0  0  0  0  0  0  0  0  0  0
  145.2615  142.6808  160.3795 C   0  0  0  0  0  0  0  0  0  0  0  0
  145.3751  143.6559  158.1310 N   0  0  0  0  0  0  0  0  0  0  0  0
  146.4095  143.8867  157.2130 O   0  0  0  0  0  0  0  0  0  0  0  0
  151.4114  143.8937  160.5322 C   0  0  0  0  0  0  0  0  0  0  0  0
  154.6968  140.2331  161.8429 H   0  0  0  0  0  0  0  0  0  0  0  0
  154.9024  141.1762  160.3602 H   0  0  0  0  0  0  0  0  0  0  0  0
  153.5358  140.0609  160.5208 H   0  0  0  0  0  0  0  0  0  0  0  0
  152.0376  142.0292  159.6535 H   0  0  0  0  0  0  0  0  0  0  0  0
  154.1538  144.1680  160.0720 H   0  0  0  0  0  0  0  0  0  0  0  0
  154.1629  142.8836  158.8649 H   0  0  0  0  0  0  0  0  0  0  0  0
  153.2518  145.3719  158.2315 H   0  0  0  0  0  0  0  0  0  0  0  0
  152.4613  143.9412  157.5932 H   0  0  0  0  0  0  0  0  0  0  0  0
  151.4402  145.8554  159.6127 H   0  0  0  0  0  0  0  0  0  0  0  0
  149.6160  145.3827  158.3237 H   0  0  0  0  0  0  0  0  0  0  0  0
  145.0198  143.5555  160.9834 H   0  0  0  0  0  0  0  0  0  0  0  0
  145.8642  142.0001  160.9816 H   0  0  0  0  0  0  0  0  0  0  0  0
  144.3339  142.1736  160.1129 H   0  0  0  0  0  0  0  0  0  0  0  0
  150.4357  143.4558  160.7469 H   0  0  0  0  0  0  0  0  0  0  0  0
  151.6963  144.4805  161.4065 H   0  0  0  0  0  0  0  0  0  0  0  0
  1  2  1  0  0  0  0
  1 18  1  0  0  0  0
  1 19  1  0  0  0  0
  1 20  1  0  0  0  0
  2  3  1  0  0  0  0
  3 17  1  0  0  0  0
  3  4  1  0  0  0  0
  3 21  1  0  0  0  0
  4  5  1  0  0  0  0
  4 22  1  0  0  0  0
  4 23  1  0  0  0  0
  5  6  1  0  0  0  0
  5 24  1  0  0  0  0
  5 25  1  0  0  0  0
  6  7  1  0  0  0  0
  6 17  1  0  0  0  0
  6 26  1  0  0  0  0
  7  8  1  0  0  0  0
  7 27  1  0  0  0  0
  8  9  2  0  0  0  0
  8 10  1  0  0  0  0
 10 11  1  0  0  0  0
 11 16  1  0  0  0  0
 11 12  2  0  0  0  0
 12 13  1  0  0  0  0
 13 14  1  0  0  0  0
 13 15  2  0  0  0  0
 14 28  1  0  0  0  0
 14 29  1  0  0  0  0
 14 30  1  0  0  0  0
 15 16  1  0  0  0  0
 17 31  1  0  0  0  0
 17 32  1  0  0  0  0
M  CHG  1  10  -1
M  END
> <s_m_source_file>
AV-unprocessed.smi

> <i_m_source_file_index>
2492

> <i_lp_mmshare_version>
43012

> <i_f3d_flags>
0

> <s_epik_input>
W0NIM11TW0NAQEhdMVtDSDJdW0NIMl1bQ0BIXShbQ0gyXTEpW05IXUMoPU8pW05IXWMybmMoW0NIM10pbm8y

> <s_epik_cmdline>
J2VwaWtfcHl0aG9uJywgJy1waCcsICc3LjAnLCAnLXRuJywgJzgnLCAnLW1hJywgJzIwMCcsICctbWV0YWxfYmluZGluZycsICctaW1hZScsICc8aW5maWxlLm1hZT4nLCAnLW9tYWUnLCAnPG91dGZpbGUubWFlPic=

> <r_lp_tautomer_probability>
1

> <r_epik_Ionization_Penalty>
6.26454

> <r_epik_Ionization_Penalty_Charging>
6.26445

> <r_epik_Ionization_Penalty_Neutral>
9.05726e-05

> <r_epik_State_Penalty>
6.26444

> <r_epik_Charging_Adjusted_Penalty>
12.5289

> <i_epik_Tot_Q>
-1

> <i_epik_Tot_abs_Q>
1

> <r_epik_Metal_State_Penalty>
2.20125

> <b_epik_Metal_Only>
1

> <s_lp_Force_Field>
OPLS_2005

> <r_lp_Energy>
10.5247

> <b_lp_Chiralities_Consistent>
1

> <s_lp_Variant>
AV-unprocessed.smi:2492-5

> <Gold.Version>
5.8.1

> <Gold.Id.Protein>
6NUR|6NUR_protein|mol2

> <Gold.PLP.Fitness>
42.6358

> <Gold.PLP.PLP>
-37.0593

> <Gold.PLP.part.hbond>
-4.4605

> <Gold.PLP.part.metal>
0.0000

> <Gold.PLP.part.buried>
-5.6686

> <Gold.PLP.part.nonpolar>
-29.1420

> <Gold.PLP.part.repulsive>
0.7223

> <Gold.PLP.ligand.clash>
0.0000

> <Gold.PLP.ligand.torsion>
0.8591

> <Gold.PLP.Chemscore.Hbond>
2.4291

> <Gold.PLP.Chemscore.CHOScore>
0.0000

> <Gold.PLP.Chemscore.Metal>
0.0000

> <Gold.Chemscore.Hbonds>
donor molecule, donor type, donor heavy atom, donor atom, acceptor molecule, acceptor atom, score
      L1  H     7    27       P1  8029  0.73

> <Gold.PLP.Chemscore.Internal.Correction>
0.0075

> <Gold.Rescore>
     Score         DG    S(hbond)    S(metal)    S(lipo)     H(rot)  DE(clash)    DE(int)     intcor
     15.16     -18.56       1.74        0.00      90.05       1.27       0.01       3.39       ----

> <Gold.Chemscore.Fitness>
15.1638

> <Gold.Chemscore.DG>
-18.5629

> <Gold.Chemscore.ZeroCoef>
-5.4800

> <Gold.Chemscore.Hbond>
1.7369

> <Gold.Chemscore.Metal>
0.0000

> <Gold.Chemscore.Lipo>
90.0512

> <Gold.Chemscore.Internal_Hbond>
0.0000

> <Gold.Chemscore.DEClash>
0.0098

> <Gold.Chemscore.DEInternal>
3.3894

> <Gold.Chemscore.Rot>
1.2712

> <Gold.Chemscore.Internal.Correction>
   9.000000E+99

> <Gold.Chemscore.Hbonds>
donor molecule, donor type, donor heavy atom, donor atom, acceptor molecule, acceptor atom, score
      L1  H     7    27       P1  8029  0.43

> <Gold.Chemscore.Hbond.Weighted>
-5.8011

> <Gold.Chemscore.Metal.Weighted>
-0.0000

> <Gold.Chemscore.Lipo.Weighted>
-10.5360

> <Gold.Chemscore.Internal_Hbond.Weighted>
0.0000

> <Gold.Chemscore.DEClash.Weighted>
0.0098

> <Gold.Chemscore.DEInternal.Weighted>
3.3894

> <Gold.Chemscore.Rot.Weighted>
3.2542

> <Gold.Chemscore.Internal.Correction.Weighted>
   9.000000E+99

> <Gold.Protein.RotatedTorsions>
[ 6907 6896 6895 6894 ] final -155.09 input  -60.11 | X-H torsion
[ 7974 7965 7964 7962 ] final -170.95 input  175.53 | X-H torsion
[ 8008 7997 7996 7995 ] final -114.32 input   59.86 | X-H torsion
[ 10167 10162 10161 10158 ] final  153.76 input  -65.29 | X-H torsion
[ 10718 10713 10712 10709 ] final   50.51 input   66.30 | X-H torsion
[ 10763 10752 10751 10750 ] final  129.94 input  -60.55 | X-H torsion
[ 11005 11000 10999 10996 ] final -170.15 input  -57.11 | X-H torsion

> <Gold.Protein.ActiveResidues>
 VAL166  LYS551  ARG553  GLY616  TRP617  ASP618  TYR619  PRO620  LYS621  CYS622 
 ASP623  PHE694  ASN695  SER759  ASP760  ASP761  ALA762  ILE779  LEU786  VAL792 
 PHE793  MET794  SER795  GLU796  ALA797  LYS798  CYS799  TRP800  GLU811  SER814 

> <Gold.Protein.RotatedAtoms>
  151.2673  133.4272  159.2619 H   0  0  0  0  0  0  0  0  0  0  0  0  # atno 6907 bound_to 6896
  151.0476  134.9651  159.8205 H   0  0  0  0  0  0  0  0  0  0  0  0  # atno 6908 bound_to 6896
  152.5377  134.2629  159.8995 H   0  0  0  0  0  0  0  0  0  0  0  0  # atno 6909 bound_to 6896
  144.7163  140.1995  143.6340 H   0  0  0  0  0  0  0  0  0  0  0  0  # atno 7974 bound_to 7965
  155.0345  140.0392  157.2486 H   0  0  0  0  0  0  0  0  0  0  0  0  # atno 8008 bound_to 7997
  154.7268  140.2723  155.6468 H   0  0  0  0  0  0  0  0  0  0  0  0  # atno 8009 bound_to 7997
  156.2831  140.2692  156.1956 H   0  0  0  0  0  0  0  0  0  0  0  0  # atno 8010 bound_to 7997
  139.4826  144.5245  151.7822 H   0  0  0  0  0  0  0  0  0  0  0  0  # atno 10167 bound_to 10162
  157.4891  130.8364  149.8182 H   0  0  0  0  0  0  0  0  0  0  0  0  # atno 10718 bound_to 10713
  153.7500  135.3211  155.3319 H   0  0  0  0  0  0  0  0  0  0  0  0  # atno 10763 bound_to 10752
  154.8266  135.4565  154.0942 H   0  0  0  0  0  0  0  0  0  0  0  0  # atno 10764 bound_to 10752
  153.2141  135.6939  153.8160 H   0  0  0  0  0  0  0  0  0  0  0  0  # atno 10765 bound_to 10752
  140.5227  134.5693  157.5052 H   0  0  0  0  0  0  0  0  0  0  0  0  # atno 11005 bound_to 11000
  145.8693  139.2263  143.1670 LP  0  0  0  0  0  0  0  0  0  0  0  0  # atno 17320 bound_to 7965
  146.0100  140.8444  142.9976 LP  0  0  0  0  0  0  0  0  0  0  0  0  # atno 17321 bound_to 7965
  140.4764  144.1513  150.5925 LP  0  0  0  0  0  0  0  0  0  0  0  0  # atno 17342 bound_to 10162
  140.4326  143.2561  151.9576 LP  0  0  0  0  0  0  0  0  0  0  0  0  # atno 17343 bound_to 10162
  156.0163  130.3812  150.2100 LP  0  0  0  0  0  0  0  0  0  0  0  0  # atno 17370 bound_to 10713
  157.0288  131.0001  151.3318 LP  0  0  0  0  0  0  0  0  0  0  0  0  # atno 17371 bound_to 10713
  139.9597  134.7474  156.0264 LP  0  0  0  0  0  0  0  0  0  0  0  0  # atno 17394 bound_to 11000
  141.1325  133.6583  156.3503 LP  0  0  0  0  0  0  0  0  0  0  0  0  # atno 17395 bound_to 11000

$$$$
