AV-unprocessed.smi:671|AV-procd|sdf|3276|dock2
  -GOLD-   22720 0233D 1   1.00000     0.00000
 Structure written by MMmdl.
 49 50  0  0  0  0  0  0  0  0  1 V2000
  152.7882  138.3898  154.7059 C   0  0  0  0  0  0  0  0  0  0  0  0
  152.0273  139.4122  155.5006 C   0  0  0  0  0  0  0  0  0  0  0  0
  152.5738  139.9280  156.5894 N   0  0  0  0  0  0  0  0  0  0  0  0
  151.6547  140.7956  157.0589 N   0  0  0  0  0  0  0  0  0  0  0  0
  151.9379  141.5505  158.2641 C   0  0  0  0  0  0  0  0  0  0  0  0
  150.5245  140.8261  156.2657 C   0  0  0  0  0  0  0  0  0  0  0  0
  149.3558  141.7063  156.5689 C   0  0  0  0  0  0  0  0  0  0  0  0
  150.7308  139.9447  155.2392 C   0  0  0  0  0  0  0  0  0  0  0  0
  149.8088  139.6098  154.0953 C   0  0  0  0  0  0  0  0  0  0  0  0
  148.3943  139.2165  154.5744 C   0  0  1  0  0  0  0  0  0  0  0  0
  147.3421  140.2865  154.2419 C   0  0  0  0  0  0  0  0  0  0  0  0
  147.9870  137.9485  153.9652 N   0  0  0  0  0  0  0  0  0  0  0  0
  146.7746  137.3647  153.9819 C   0  0  0  0  0  0  0  0  0  0  0  0
  145.8174  137.8779  154.5583 O   0  0  0  0  0  0  0  0  0  0  0  0
  146.7059  136.1913  153.3289 N   0  0  0  0  0  0  0  0  0  0  0  0
  145.5068  135.3668  153.1741 C   0  0  1  0  0  0  0  0  0  0  0  0
  144.5400  136.0457  152.1944 C   0  0  0  0  0  0  0  0  0  0  0  0
  144.8206  135.3915  150.8451 C   0  0  0  0  0  0  0  0  0  0  0  0
  145.1295  133.9368  151.1888 C   0  0  0  0  0  0  0  0  0  0  0  0
  145.7824  133.9552  152.5832 C   0  0  1  0  0  0  0  0  0  0  0  0
  147.2557  133.5053  152.5468 C   0  0  0  0  0  0  0  0  0  0  0  0
  152.2203  137.4635  154.6187 H   0  0  0  0  0  0  0  0  0  0  0  0
  153.7463  138.1475  155.1676 H   0  0  0  0  0  0  0  0  0  0  0  0
  152.9892  138.7522  153.6976 H   0  0  0  0  0  0  0  0  0  0  0  0
  151.1951  141.3158  159.0268 H   0  0  0  0  0  0  0  0  0  0  0  0
  151.8995  142.6177  158.0450 H   0  0  0  0  0  0  0  0  0  0  0  0
  152.9285  141.3047  158.6499 H   0  0  0  0  0  0  0  0  0  0  0  0
  148.4989  141.4425  155.9502 H   0  0  0  0  0  0  0  0  0  0  0  0
  149.5988  142.7517  156.3785 H   0  0  0  0  0  0  0  0  0  0  0  0
  149.0525  141.6113  157.6117 H   0  0  0  0  0  0  0  0  0  0  0  0
  149.7322  140.4479  153.4016 H   0  0  0  0  0  0  0  0  0  0  0  0
  150.2363  138.7960  153.5091 H   0  0  0  0  0  0  0  0  0  0  0  0
  148.4024  139.1013  155.6596 H   0  0  0  0  0  0  0  0  0  0  0  0
  147.5669  141.2336  154.7330 H   0  0  0  0  0  0  0  0  0  0  0  0
  146.3507  139.9779  154.5751 H   0  0  0  0  0  0  0  0  0  0  0  0
  147.2897  140.4728  153.1688 H   0  0  0  0  0  0  0  0  0  0  0  0
  148.7152  137.4473  153.4770 H   0  0  0  0  0  0  0  0  0  0  0  0
  147.5491  135.8472  152.8935 H   0  0  0  0  0  0  0  0  0  0  0  0
  145.0119  135.2738  154.1426 H   0  0  0  0  0  0  0  0  0  0  0  0
  143.5130  135.8272  152.4905 H   0  0  0  0  0  0  0  0  0  0  0  0
  144.6431  137.1315  152.1646 H   0  0  0  0  0  0  0  0  0  0  0  0
  143.9882  135.4911  150.1479 H   0  0  0  0  0  0  0  0  0  0  0  0
  145.6961  135.8504  150.3856 H   0  0  0  0  0  0  0  0  0  0  0  0
  144.1971  133.3723  151.2336 H   0  0  0  0  0  0  0  0  0  0  0  0
  145.7531  133.4642  150.4290 H   0  0  0  0  0  0  0  0  0  0  0  0
  145.2495  133.2300  153.1997 H   0  0  0  0  0  0  0  0  0  0  0  0
  147.8617  134.1586  151.9180 H   0  0  0  0  0  0  0  0  0  0  0  0
  147.3420  132.4945  152.1476 H   0  0  0  0  0  0  0  0  0  0  0  0
  147.6907  133.4962  153.5464 H   0  0  0  0  0  0  0  0  0  0  0  0
  1  2  1  0  0  0  0
  1 22  1  0  0  0  0
  1 23  1  0  0  0  0
  1 24  1  0  0  0  0
  2  8  1  0  0  0  0
  2  3  2  0  0  0  0
  3  4  1  0  0  0  0
  4  5  1  0  0  0  0
  4  6  1  0  0  0  0
  5 25  1  0  0  0  0
  5 26  1  0  0  0  0
  5 27  1  0  0  0  0
  6  7  1  0  0  0  0
  6  8  2  0  0  0  0
  7 28  1  0  0  0  0
  7 29  1  0  0  0  0
  7 30  1  0  0  0  0
  8  9  1  0  0  0  0
  9 10  1  0  0  0  0
  9 31  1  0  0  0  0
  9 32  1  0  0  0  0
 10 11  1  0  0  0  0
 10 12  1  0  0  0  0
 10 33  1  0  0  0  0
 11 34  1  0  0  0  0
 11 35  1  0  0  0  0
 11 36  1  0  0  0  0
 12 13  1  0  0  0  0
 12 37  1  0  0  0  0
 13 14  2  0  0  0  0
 13 15  1  0  0  0  0
 15 16  1  0  0  0  0
 15 38  1  0  0  0  0
 16 20  1  0  0  0  0
 16 17  1  0  0  0  0
 16 39  1  0  0  0  0
 17 18  1  0  0  0  0
 17 40  1  0  0  0  0
 17 41  1  0  0  0  0
 18 19  1  0  0  0  0
 18 42  1  0  0  0  0
 18 43  1  0  0  0  0
 19 20  1  0  0  0  0
 19 44  1  0  0  0  0
 19 45  1  0  0  0  0
 20 21  1  0  0  0  0
 20 46  1  0  0  0  0
 21 47  1  0  0  0  0
 21 48  1  0  0  0  0
 21 49  1  0  0  0  0
M  END
> <s_m_source_file>
AV-unprocessed.smi

> <i_m_source_file_index>
671

> <i_lp_mmshare_version>
43012

> <i_f3d_flags>
0

> <s_epik_input>
W0NIM11jMW5uKFtDSDNdKWMoW0NIM10pYzFbQ0gyXVtDQEhdKFtDSDNdKVtOSF1DKD1PKVtOSF1bQ0BASF0yW0NIMl1bQ0gyXVtDSDJdW0NASF0yW0NIM10=

> <s_epik_cmdline>
J2VwaWtfcHl0aG9uJywgJy1waCcsICc3LjAnLCAnLXRuJywgJzgnLCAnLW1hJywgJzIwMCcsICctbWV0YWxfYmluZGluZycsICctaW1hZScsICc8aW5maWxlLm1hZT4nLCAnLW9tYWUnLCAnPG91dGZpbGUubWFlPic=

> <r_lp_tautomer_probability>
1

> <r_epik_Ionization_Penalty>
0.0126855

> <r_epik_Ionization_Penalty_Charging>
0

> <r_epik_Ionization_Penalty_Neutral>
0.0126855

> <r_epik_State_Penalty>
0.00977547

> <r_epik_Charging_Adjusted_Penalty>
0.00977547

> <i_epik_Tot_Q>
0

> <i_epik_Tot_abs_Q>
0

> <r_epik_Metal_State_Penalty>
0.00957132

> <b_epik_Metal_Only>
0

> <s_lp_Force_Field>
OPLS_2005

> <r_lp_Energy>
24.0852

> <b_lp_Chiralities_Consistent>
1

> <s_lp_Variant>
AV-unprocessed.smi:671-4

> <Gold.Version>
5.8.1

> <Gold.Id.Protein>
6NUR|6NUR_protein|mol2

> <Gold.PLP.Fitness>
41.2177

> <Gold.PLP.PLP>
-34.6911

> <Gold.PLP.part.hbond>
-3.0000

> <Gold.PLP.part.metal>
0.0000

> <Gold.PLP.part.buried>
-0.1156

> <Gold.PLP.part.nonpolar>
-30.9418

> <Gold.PLP.part.repulsive>
0.0931

> <Gold.PLP.ligand.clash>
0.0000

> <Gold.PLP.ligand.torsion>
0.9935

> <Gold.PLP.Chemscore.Hbond>
2.8320

> <Gold.PLP.Chemscore.CHOScore>
0.0000

> <Gold.PLP.Chemscore.Metal>
0.0000

> <Gold.Chemscore.Hbonds>
donor molecule, donor type, donor heavy atom, donor atom, acceptor molecule, acceptor atom, score
      L1  H    12    37       P1  7948  0.82
      L1  H    15    38       P1  7948  0.94
      P1  H  7997  8008       L1     3  1.00

> <Gold.PLP.Chemscore.Internal.Correction>
0.0176

> <Gold.Rescore>
     Score         DG    S(hbond)    S(metal)    S(lipo)     H(rot)  DE(clash)    DE(int)     intcor
     18.54     -21.15       2.74        0.00      87.49       1.45       0.33       2.28       ----

> <Gold.Chemscore.Fitness>
18.5350

> <Gold.Chemscore.DG>
-21.1480

> <Gold.Chemscore.ZeroCoef>
-5.4800

> <Gold.Chemscore.Hbond>
2.7377

> <Gold.Chemscore.Metal>
0.0000

> <Gold.Chemscore.Lipo>
87.4856

> <Gold.Chemscore.Internal_Hbond>
0.0000

> <Gold.Chemscore.DEClash>
0.3345

> <Gold.Chemscore.DEInternal>
2.2786

> <Gold.Chemscore.Rot>
1.4499

> <Gold.Chemscore.Internal.Correction>
   9.000000E+99

> <Gold.Chemscore.Hbonds>
donor molecule, donor type, donor heavy atom, donor atom, acceptor molecule, acceptor atom, score
      L1  H    12    37       P1  7948  0.77
      L1  H    15    38       P1  7948  0.91
      P1  H  7997  8008       L1     3  0.92

> <Gold.Chemscore.Hbond.Weighted>
-9.1441

> <Gold.Chemscore.Metal.Weighted>
-0.0000

> <Gold.Chemscore.Lipo.Weighted>
-10.2358

> <Gold.Chemscore.Internal_Hbond.Weighted>
0.0000

> <Gold.Chemscore.DEClash.Weighted>
0.3345

> <Gold.Chemscore.DEInternal.Weighted>
2.2786

> <Gold.Chemscore.Rot.Weighted>
3.7118

> <Gold.Chemscore.Internal.Correction.Weighted>
   9.000000E+99

> <Gold.Protein.RotatedTorsions>
[ 6907 6896 6895 6894 ] final  163.80 input  -60.11 | X-H torsion
[ 7974 7965 7964 7962 ] final -125.54 input  175.53 | X-H torsion
[ 8008 7997 7996 7995 ] final  -57.07 input   59.86 | X-H torsion
[ 10167 10162 10161 10158 ] final   47.03 input  -65.29 | X-H torsion
[ 10718 10713 10712 10709 ] final   63.48 input   66.30 | X-H torsion
[ 10763 10752 10751 10750 ] final  135.82 input  -60.55 | X-H torsion
[ 11005 11000 10999 10996 ] final  -17.88 input  -57.11 | X-H torsion

> <Gold.Protein.ActiveResidues>
 VAL166  LYS551  ARG553  GLY616  TRP617  ASP618  TYR619  PRO620  LYS621  CYS622 
 ASP623  PHE694  ASN695  SER759  ASP760  ASP761  ALA762  ILE779  LEU786  VAL792 
 PHE793  MET794  SER795  GLU796  ALA797  LYS798  CYS799  TRP800  GLU811  SER814 

> <Gold.Protein.RotatedAtoms>
  151.9196  133.3582  159.3891 H   0  0  0  0  0  0  0  0  0  0  0  0  # atno 6907 bound_to 6896
  150.7040  134.4649  159.5407 H   0  0  0  0  0  0  0  0  0  0  0  0  # atno 6908 bound_to 6896
  152.2270  134.8359  160.0529 H   0  0  0  0  0  0  0  0  0  0  0  0  # atno 6909 bound_to 6896
  144.9965  140.7781  143.4522 H   0  0  0  0  0  0  0  0  0  0  0  0  # atno 7974 bound_to 7965
  154.4254  140.1115  156.5738 H   0  0  0  0  0  0  0  0  0  0  0  0  # atno 8008 bound_to 7997
  155.6184  140.3495  155.4625 H   0  0  0  0  0  0  0  0  0  0  0  0  # atno 8009 bound_to 7997
  156.0043  140.1206  157.0506 H   0  0  0  0  0  0  0  0  0  0  0  0  # atno 8010 bound_to 7997
  140.3078  144.2857  150.6206 H   0  0  0  0  0  0  0  0  0  0  0  0  # atno 10167 bound_to 10162
  157.5974  130.9107  149.9721 H   0  0  0  0  0  0  0  0  0  0  0  0  # atno 10718 bound_to 10713
  153.8464  135.3085  155.3429 H   0  0  0  0  0  0  0  0  0  0  0  0  # atno 10763 bound_to 10752
  154.7910  135.4782  154.0056 H   0  0  0  0  0  0  0  0  0  0  0  0  # atno 10764 bound_to 10752
  153.1545  135.6849  153.8926 H   0  0  0  0  0  0  0  0  0  0  0  0  # atno 10765 bound_to 10752
  140.8212  133.8066  155.9662 H   0  0  0  0  0  0  0  0  0  0  0  0  # atno 11005 bound_to 11000
  145.2212  139.2158  143.5092 LP  0  0  0  0  0  0  0  0  0  0  0  0  # atno 17320 bound_to 7965
  146.3443  140.2071  142.8589 LP  0  0  0  0  0  0  0  0  0  0  0  0  # atno 17321 bound_to 7965
  140.5595  143.2194  151.7790 LP  0  0  0  0  0  0  0  0  0  0  0  0  # atno 17342 bound_to 10162
  139.4900  144.4368  151.9810 LP  0  0  0  0  0  0  0  0  0  0  0  0  # atno 17343 bound_to 10162
  156.1039  130.3654  150.0168 LP  0  0  0  0  0  0  0  0  0  0  0  0  # atno 17370 bound_to 10713
  156.8279  130.9382  151.3638 LP  0  0  0  0  0  0  0  0  0  0  0  0  # atno 17371 bound_to 10713
  140.9096  134.2276  157.4993 LP  0  0  0  0  0  0  0  0  0  0  0  0  # atno 17394 bound_to 11000
  139.8708  134.9744  156.4845 LP  0  0  0  0  0  0  0  0  0  0  0  0  # atno 17395 bound_to 11000

$$$$
