AV-unprocessed.smi:2269|AV-procd|sdf|9152|dock1
  -GOLD-   2272012363D 1   1.00000     0.00000
 Structure written by MMmdl.
 41 42  0  0  0  0  0  0  0  0  1 V2000
  152.4754  144.6449  160.6295 C   0  0  0  0  0  0  0  0  0  0  0  0
  152.0752  143.7246  159.4899 C   0  0  0  0  0  0  0  0  0  0  0  0
  151.5473  144.3568  158.3606 N   0  0  0  0  0  0  0  0  0  0  0  0
  151.1831  143.6531  157.3389 C   0  0  0  0  0  0  0  0  0  0  0  0
  151.2992  142.2534  157.3274 N   0  0  0  0  0  0  0  0  0  0  0  0
  150.8590  141.5721  156.0979 C   0  0  0  0  0  0  0  0  0  0  0  0
  149.3275  141.3654  156.0655 C   0  0  2  0  0  0  0  0  0  0  0  0
  149.0246  140.2357  156.8609 O   0  0  0  0  0  0  0  0  0  0  0  0
  148.8175  141.0633  154.6469 C   0  0  0  0  0  0  0  0  0  0  0  0
  147.8389  142.0306  154.2952 O   0  0  0  0  0  0  0  0  0  0  0  0
  146.8074  142.1776  155.2595 C   0  0  0  0  0  0  0  0  0  0  0  0
  145.8232  143.2834  154.9003 C   0  0  0  0  0  0  0  0  0  0  0  0
  145.8771  143.8310  153.6004 C   0  0  0  0  0  0  0  0  0  0  0  0
  144.9888  144.8530  153.2161 C   0  0  0  0  0  0  0  0  0  0  0  0
  144.0357  145.3352  154.1315 C   0  0  0  0  0  0  0  0  0  0  0  0
  143.9749  144.7957  155.4302 C   0  0  0  0  0  0  0  0  0  0  0  0
  144.8632  143.7733  155.8212 C   0  0  0  0  0  0  0  0  0  0  0  0
  144.7520  143.1595  157.4337 Cl  0  0  0  0  0  0  0  0  0  0  0  0
  151.8083  141.5580  158.3853 C   0  0  0  0  0  0  0  0  0  0  0  0
  151.9180  140.3305  158.3599 O   0  0  0  0  0  0  0  0  0  0  0  0
  152.2156  142.3718  159.5422 C   0  0  0  0  0  0  0  0  0  0  0  0
  152.7851  141.6286  160.7443 C   0  0  0  0  0  0  0  0  0  0  0  0
  151.9005  144.4147  161.5267 H   0  0  0  0  0  0  0  0  0  0  0  0
  152.2969  145.6909  160.3771 H   0  0  0  0  0  0  0  0  0  0  0  0
  153.5360  144.5333  160.8558 H   0  0  0  0  0  0  0  0  0  0  0  0
  150.7713  144.0981  156.4314 H   0  0  0  0  0  0  0  0  0  0  0  0
  151.1638  142.1810  155.2450 H   0  0  0  0  0  0  0  0  0  0  0  0
  151.3786  140.6239  155.9442 H   0  0  0  0  0  0  0  0  0  0  0  0
  148.8146  142.2453  156.4564 H   0  0  0  0  0  0  0  0  0  0  0  0
  149.7181  139.6019  156.7595 H   0  0  0  0  0  0  0  0  0  0  0  0
  149.6363  141.1429  153.9302 H   0  0  0  0  0  0  0  0  0  0  0  0
  148.4314  140.0447  154.5801 H   0  0  0  0  0  0  0  0  0  0  0  0
  146.2508  141.2406  155.2876 H   0  0  0  0  0  0  0  0  0  0  0  0
  147.2350  142.2938  156.2546 H   0  0  0  0  0  0  0  0  0  0  0  0
  146.6073  143.4668  152.8925 H   0  0  0  0  0  0  0  0  0  0  0  0
  145.0389  145.2660  152.2194 H   0  0  0  0  0  0  0  0  0  0  0  0
  143.3524  146.1187  153.8385 H   0  0  0  0  0  0  0  0  0  0  0  0
  143.2429  145.1711  156.1303 H   0  0  0  0  0  0  0  0  0  0  0  0
  153.6940  141.0972  160.4608 H   0  0  0  0  0  0  0  0  0  0  0  0
  152.0646  140.8961  161.1101 H   0  0  0  0  0  0  0  0  0  0  0  0
  153.0336  142.2848  161.5769 H   0  0  0  0  0  0  0  0  0  0  0  0
  1  2  1  0  0  0  0
  1 23  1  0  0  0  0
  1 24  1  0  0  0  0
  1 25  1  0  0  0  0
  2 21  2  0  0  0  0
  2  3  1  0  0  0  0
  3  4  2  0  0  0  0
  4  5  1  0  0  0  0
  4 26  1  0  0  0  0
  5  6  1  0  0  0  0
  5 19  1  0  0  0  0
  6  7  1  0  0  0  0
  6 27  1  0  0  0  0
  6 28  1  0  0  0  0
  7  8  1  0  0  0  0
  7  9  1  0  0  0  0
  7 29  1  0  0  0  0
  8 30  1  0  0  0  0
  9 10  1  0  0  0  0
  9 31  1  0  0  0  0
  9 32  1  0  0  0  0
 10 11  1  0  0  0  0
 11 12  1  0  0  0  0
 11 33  1  0  0  0  0
 11 34  1  0  0  0  0
 12 17  1  0  0  0  0
 12 13  2  0  0  0  0
 13 14  1  0  0  0  0
 13 35  1  0  0  0  0
 14 15  2  0  0  0  0
 14 36  1  0  0  0  0
 15 16  1  0  0  0  0
 15 37  1  0  0  0  0
 16 17  2  0  0  0  0
 16 38  1  0  0  0  0
 17 18  1  0  0  0  0
 19 20  2  0  0  0  0
 19 21  1  0  0  0  0
 21 22  1  0  0  0  0
 22 39  1  0  0  0  0
 22 40  1  0  0  0  0
 22 41  1  0  0  0  0
M  END
> <s_m_source_file>
AV-unprocessed.smi

> <i_m_source_file_index>
2269

> <i_lp_mmshare_version>
43012

> <i_f3d_flags>
0

> <s_epik_input>
W0NIM11jMW5bY0hdbihjKD1PKWMxW0NIM10pW0NIMl1bQ0BIXShbT0hdKVtDSDJdT1tDSDJdYzJbY0hdW2NIXVtjSF1bY0hdYzJDbA==

> <s_epik_cmdline>
J2VwaWtfcHl0aG9uJywgJy1waCcsICc3LjAnLCAnLXRuJywgJzgnLCAnLW1hJywgJzIwMCcsICctbWV0YWxfYmluZGluZycsICctaW1hZScsICc8aW5maWxlLm1hZT4nLCAnLW9tYWUnLCAnPG91dGZpbGUubWFlPic=

> <r_lp_tautomer_probability>
1

> <r_epik_Ionization_Penalty>
5.36022e-05

> <r_epik_Ionization_Penalty_Charging>
1.17753e-07

> <r_epik_Ionization_Penalty_Neutral>
5.34845e-05

> <r_epik_State_Penalty>
-0

> <r_epik_Charging_Adjusted_Penalty>
1.17753e-07

> <i_epik_Tot_Q>
0

> <i_epik_Tot_abs_Q>
0

> <r_epik_Metal_State_Penalty>
-0

> <b_epik_Metal_Only>
0

> <s_lp_Force_Field>
OPLS_2005

> <r_lp_Energy>
24.1822

> <b_lp_Chiralities_Consistent>
1

> <s_lp_Variant>
AV-unprocessed.smi:2269-1

> <Gold.Version>
5.8.1

> <Gold.Id.Protein>
6NUR|6NUR_protein|mol2

> <Gold.PLP.Fitness>
46.2502

> <Gold.PLP.PLP>
-45.7713

> <Gold.PLP.part.hbond>
0.0000

> <Gold.PLP.part.metal>
0.0000

> <Gold.PLP.part.buried>
-5.6505

> <Gold.PLP.part.nonpolar>
-39.9083

> <Gold.PLP.part.repulsive>
0.2817

> <Gold.PLP.ligand.clash>
0.0000

> <Gold.PLP.ligand.torsion>
1.3669

> <Gold.PLP.Chemscore.Hbond>
0.0000

> <Gold.PLP.Chemscore.CHOScore>
0.9971

> <Gold.PLP.Chemscore.Metal>
0.0000

> <Gold.Chemscore.Hbonds>
donor molecule, donor type, donor heavy atom, donor atom, acceptor molecule, acceptor atom, score
      L1  C     4    26       P1  8028  1.00

> <Gold.PLP.Chemscore.Internal.Correction>
0.2216

> <Gold.Rescore>
     Score         DG    S(hbond)    S(metal)    S(lipo)     H(rot)  DE(clash)    DE(int)     intcor
     10.73     -11.97       0.00        0.00     110.54       2.52       0.10       1.14       ----

> <Gold.Chemscore.Fitness>
10.7300

> <Gold.Chemscore.DG>
-11.9721

> <Gold.Chemscore.ZeroCoef>
-5.4800

> <Gold.Chemscore.Hbond>
0.0000

> <Gold.Chemscore.Metal>
0.0000

> <Gold.Chemscore.Lipo>
110.5423

> <Gold.Chemscore.Internal_Hbond>
0.0000

> <Gold.Chemscore.DEClash>
0.1011

> <Gold.Chemscore.DEInternal>
1.1411

> <Gold.Chemscore.Rot>
2.5162

> <Gold.Chemscore.Internal.Correction>
   9.000000E+99

> <Gold.Chemscore.Hbond.Weighted>
-0.0000

> <Gold.Chemscore.Metal.Weighted>
-0.0000

> <Gold.Chemscore.Lipo.Weighted>
-12.9334

> <Gold.Chemscore.Internal_Hbond.Weighted>
0.0000

> <Gold.Chemscore.DEClash.Weighted>
0.1011

> <Gold.Chemscore.DEInternal.Weighted>
1.1411

> <Gold.Chemscore.Rot.Weighted>
6.4414

> <Gold.Chemscore.Internal.Correction.Weighted>
   9.000000E+99

> <Gold.Protein.RotatedTorsions>
[ 6907 6896 6895 6894 ] final   46.14 input  -60.11 | X-H torsion
[ 7974 7965 7964 7962 ] final  143.81 input  175.53 | X-H torsion
[ 8008 7997 7996 7995 ] final  -66.20 input   59.86 | X-H torsion
[ 10167 10162 10161 10158 ] final    3.83 input  -65.29 | X-H torsion
[ 10718 10713 10712 10709 ] final  100.22 input   66.30 | X-H torsion
[ 10763 10752 10751 10750 ] final  -96.96 input  -60.55 | X-H torsion
[ 11005 11000 10999 10996 ] final   77.63 input  -57.11 | X-H torsion

> <Gold.Protein.ActiveResidues>
 VAL166  LYS551  ARG553  GLY616  TRP617  ASP618  TYR619  PRO620  LYS621  CYS622 
 ASP623  PHE694  ASN695  SER759  ASP760  ASP761  ALA762  ILE779  LEU786  VAL792 
 PHE793  MET794  SER795  GLU796  ALA797  LYS798  CYS799  TRP800  GLU811  SER814 

> <Gold.Protein.RotatedAtoms>
  152.2529  134.8114  160.0442 H   0  0  0  0  0  0  0  0  0  0  0  0  # atno 6907 bound_to 6896
  151.8788  133.3485  159.3767 H   0  0  0  0  0  0  0  0  0  0  0  0  # atno 6908 bound_to 6896
  150.7090  134.4966  159.5585 H   0  0  0  0  0  0  0  0  0  0  0  0  # atno 6909 bound_to 6896
  144.8889  139.5587  143.5808 H   0  0  0  0  0  0  0  0  0  0  0  0  # atno 7974 bound_to 7965
  154.4719  140.0917  156.7166 H   0  0  0  0  0  0  0  0  0  0  0  0  # atno 8008 bound_to 7997
  155.4701  140.3464  155.4306 H   0  0  0  0  0  0  0  0  0  0  0  0  # atno 8009 bound_to 7997
  156.1053  140.1433  156.9401 H   0  0  0  0  0  0  0  0  0  0  0  0  # atno 8010 bound_to 7997
  140.6566  143.7412  150.7664 H   0  0  0  0  0  0  0  0  0  0  0  0  # atno 10167 bound_to 10162
  157.6859  131.0692  150.5068 H   0  0  0  0  0  0  0  0  0  0  0  0  # atno 10718 bound_to 10713
  154.7286  135.5064  153.8926 H   0  0  0  0  0  0  0  0  0  0  0  0  # atno 10763 bound_to 10752
  153.0928  135.6664  153.9829 H   0  0  0  0  0  0  0  0  0  0  0  0  # atno 10764 bound_to 10752
  153.9636  135.3045  155.3411 H   0  0  0  0  0  0  0  0  0  0  0  0  # atno 10765 bound_to 10752
  139.9246  134.7699  156.1547 H   0  0  0  0  0  0  0  0  0  0  0  0  # atno 11005 bound_to 11000
  146.3042  139.7524  142.9069 LP  0  0  0  0  0  0  0  0  0  0  0  0  # atno 17320 bound_to 7965
  145.3818  141.0359  143.3173 LP  0  0  0  0  0  0  0  0  0  0  0  0  # atno 17321 bound_to 7965
  140.1073  143.4732  152.2391 LP  0  0  0  0  0  0  0  0  0  0  0  0  # atno 17342 bound_to 10162
  139.5790  144.7501  151.3690 LP  0  0  0  0  0  0  0  0  0  0  0  0  # atno 17343 bound_to 10162
  156.5387  130.4202  149.6165 LP  0  0  0  0  0  0  0  0  0  0  0  0  # atno 17370 bound_to 10713
  156.3004  130.7174  151.2044 LP  0  0  0  0  0  0  0  0  0  0  0  0  # atno 17371 bound_to 10713
  141.0794  133.6761  156.2304 LP  0  0  0  0  0  0  0  0  0  0  0  0  # atno 17394 bound_to 11000
  140.6373  134.5202  157.5566 LP  0  0  0  0  0  0  0  0  0  0  0  0  # atno 17395 bound_to 11000

$$$$
