AV-unprocessed.smi:3000|AV-procd|sdf|11429|dock7
  -GOLD-   2272016353D 1   1.00000     0.00000
 Structure written by MMmdl.
 44 45  0  0  0  0  0  0  0  0  1 V2000
  147.0465  142.5712  154.1844 C   0  0  0  0  0  0  0  0  0  0  0  0
  147.4346  141.1845  154.0388 N   0  0  0  0  0  0  0  0  0  0  0  0
  146.7965  140.1855  153.3313 C   0  0  0  0  0  0  0  0  0  0  0  0
  147.5559  139.0672  153.5021 C   0  0  0  0  0  0  0  0  0  0  0  0
  147.2649  137.7990  152.9403 N   0  0  0  0  0  0  0  0  0  0  0  0
  146.0653  137.2019  152.8572 C   0  0  0  0  0  0  0  0  0  0  0  0
  145.0101  137.6843  153.2668 O   0  0  0  0  0  0  0  0  0  0  0  0
  146.1679  136.0024  152.2608 N   0  0  0  0  0  0  0  0  0  0  0  0
  145.1104  135.0248  151.9594 C   0  0  1  0  0  0  0  0  0  0  0  0
  144.1033  134.9631  153.1364 C   0  0  0  0  0  0  0  0  0  0  0  0
  144.3473  135.4733  150.6781 C   0  0  0  0  0  0  0  0  0  0  0  0
  145.2032  136.0675  149.7229 O   0  0  0  0  0  0  0  0  0  0  0  0
  145.8050  133.6303  151.7602 C   0  0  0  0  0  0  0  0  0  0  0  0
  144.8529  132.5351  151.2065 C   0  0  0  0  0  0  0  0  0  0  0  0
  145.5749  131.1983  150.9727 C   0  0  0  0  0  0  0  0  0  0  0  0
  146.2509  130.6977  152.2549 C   0  0  0  0  0  0  0  0  0  0  0  0
  147.2131  131.7563  152.8070 C   0  0  0  0  0  0  0  0  0  0  0  0
  146.4961  133.0948  153.0439 C   0  0  0  0  0  0  0  0  0  0  0  0
  148.6463  139.4603  154.3288 C   0  0  0  0  0  0  0  0  0  0  0  0
  148.5629  140.7439  154.6463 N   0  0  0  0  0  0  0  0  0  0  0  0
  146.0412  142.7217  153.7899 H   0  0  0  0  0  0  0  0  0  0  0  0
  147.7422  143.2069  153.6361 H   0  0  0  0  0  0  0  0  0  0  0  0
  147.0581  142.8521  155.2382 H   0  0  0  0  0  0  0  0  0  0  0  0
  145.8820  140.3541  152.7820 H   0  0  0  0  0  0  0  0  0  0  0  0
  148.0519  137.2945  152.5600 H   0  0  0  0  0  0  0  0  0  0  0  0
  147.0946  135.7249  151.9726 H   0  0  0  0  0  0  0  0  0  0  0  0
  143.4258  134.1151  153.0329 H   0  0  0  0  0  0  0  0  0  0  0  0
  143.4828  135.8577  153.1889 H   0  0  0  0  0  0  0  0  0  0  0  0
  144.6018  134.8726  154.1011 H   0  0  0  0  0  0  0  0  0  0  0  0
  143.8588  134.6275  150.1946 H   0  0  0  0  0  0  0  0  0  0  0  0
  143.5511  136.1784  150.9172 H   0  0  0  0  0  0  0  0  0  0  0  0
  145.5398  135.3882  149.1585 H   0  0  0  0  0  0  0  0  0  0  0  0
  146.5873  133.7594  151.0108 H   0  0  0  0  0  0  0  0  0  0  0  0
  144.0201  132.3736  151.8918 H   0  0  0  0  0  0  0  0  0  0  0  0
  144.4155  132.8461  150.2590 H   0  0  0  0  0  0  0  0  0  0  0  0
  144.8666  130.4520  150.6117 H   0  0  0  0  0  0  0  0  0  0  0  0
  146.3223  131.3191  150.1874 H   0  0  0  0  0  0  0  0  0  0  0  0
  145.4931  130.4625  153.0035 H   0  0  0  0  0  0  0  0  0  0  0  0
  146.7896  129.7711  152.0556 H   0  0  0  0  0  0  0  0  0  0  0  0
  147.6567  131.4034  153.7385 H   0  0  0  0  0  0  0  0  0  0  0  0
  148.0378  131.9025  152.1082 H   0  0  0  0  0  0  0  0  0  0  0  0
  147.2340  133.8062  153.4117 H   0  0  0  0  0  0  0  0  0  0  0  0
  145.7645  132.9697  153.8429 H   0  0  0  0  0  0  0  0  0  0  0  0
  149.4785  138.8836  154.7036 H   0  0  0  0  0  0  0  0  0  0  0  0
  1  2  1  0  0  0  0
  1 21  1  0  0  0  0
  1 22  1  0  0  0  0
  1 23  1  0  0  0  0
  2 20  1  0  0  0  0
  2  3  1  0  0  0  0
  3  4  2  0  0  0  0
  3 24  1  0  0  0  0
  4  5  1  0  0  0  0
  4 19  1  0  0  0  0
  5  6  1  0  0  0  0
  5 25  1  0  0  0  0
  6  7  2  0  0  0  0
  6  8  1  0  0  0  0
  8  9  1  0  0  0  0
  8 26  1  0  0  0  0
  9 10  1  0  0  0  0
  9 11  1  0  0  0  0
  9 13  1  0  0  0  0
 10 27  1  0  0  0  0
 10 28  1  0  0  0  0
 10 29  1  0  0  0  0
 11 12  1  0  0  0  0
 11 30  1  0  0  0  0
 11 31  1  0  0  0  0
 12 32  1  0  0  0  0
 13 18  1  0  0  0  0
 13 14  1  0  0  0  0
 13 33  1  0  0  0  0
 14 15  1  0  0  0  0
 14 34  1  0  0  0  0
 14 35  1  0  0  0  0
 15 16  1  0  0  0  0
 15 36  1  0  0  0  0
 15 37  1  0  0  0  0
 16 17  1  0  0  0  0
 16 38  1  0  0  0  0
 16 39  1  0  0  0  0
 17 18  1  0  0  0  0
 17 40  1  0  0  0  0
 17 41  1  0  0  0  0
 18 42  1  0  0  0  0
 18 43  1  0  0  0  0
 19 20  2  0  0  0  0
 19 44  1  0  0  0  0
M  END
> <s_m_source_file>
AV-unprocessed.smi

> <i_m_source_file_index>
3000

> <i_lp_mmshare_version>
43012

> <i_f3d_flags>
0

> <s_epik_input>
W0NIM11uMVtjSF1jKFtjSF1uMSlbTkhdQyg9TylbTkhdW0NAQF0oW0NIM10pKFtDSDJdW09IXSlbQ0hdMltDSDJdW0NIMl1bQ0gyXVtDSDJdW0NIMl0y

> <s_epik_cmdline>
J2VwaWtfcHl0aG9uJywgJy1waCcsICc3LjAnLCAnLXRuJywgJzgnLCAnLW1hJywgJzIwMCcsICctbWV0YWxfYmluZGluZycsICctaW1hZScsICc8aW5maWxlLm1hZT4nLCAnLW9tYWUnLCAnPG91dGZpbGUubWFlPic=

> <r_lp_tautomer_probability>
1

> <r_epik_Ionization_Penalty>
0.000189471

> <r_epik_Ionization_Penalty_Charging>
0

> <r_epik_Ionization_Penalty_Neutral>
0.000189471

> <r_epik_State_Penalty>
-0

> <r_epik_Charging_Adjusted_Penalty>
0

> <i_epik_Tot_Q>
0

> <i_epik_Tot_abs_Q>
0

> <r_epik_Metal_State_Penalty>
-0

> <b_epik_Metal_Only>
0

> <s_lp_Force_Field>
OPLS_2005

> <r_lp_Energy>
20.4121

> <b_lp_Chiralities_Consistent>
1

> <s_lp_Variant>
AV-unprocessed.smi:3000-1

> <Gold.Version>
5.8.1

> <Gold.Id.Protein>
6NUR|6NUR_protein|mol2

> <Gold.PLP.Fitness>
44.0931

> <Gold.PLP.PLP>
-34.6393

> <Gold.PLP.part.hbond>
-3.7757

> <Gold.PLP.part.metal>
0.0000

> <Gold.PLP.part.buried>
-4.3913

> <Gold.PLP.part.nonpolar>
-27.5098

> <Gold.PLP.part.repulsive>
0.5156

> <Gold.PLP.ligand.clash>
0.0000

> <Gold.PLP.ligand.torsion>
1.2014

> <Gold.PLP.Chemscore.Hbond>
2.9440

> <Gold.PLP.Chemscore.CHOScore>
1.0000

> <Gold.PLP.Chemscore.Metal>
0.0000

> <Gold.Chemscore.Hbonds>
donor molecule, donor type, donor heavy atom, donor atom, acceptor molecule, acceptor atom, score
      L1  H     5    25       P1  7948  1.00
      L1  H     8    26       P1  7948  0.94
      L1  H    12    32       P1  7921  1.00
      L1  C     3    24       P1 10175  1.00

> <Gold.PLP.Chemscore.Internal.Correction>
0.0246

> <Gold.Rescore>
     Score         DG    S(hbond)    S(metal)    S(lipo)     H(rot)  DE(clash)    DE(int)     intcor
     16.34     -19.11       2.86        0.00      79.04       2.02       0.38       2.39       ----

> <Gold.Chemscore.Fitness>
16.3446

> <Gold.Chemscore.DG>
-19.1100

> <Gold.Chemscore.ZeroCoef>
-5.4800

> <Gold.Chemscore.Hbond>
2.8575

> <Gold.Chemscore.Metal>
0.0000

> <Gold.Chemscore.Lipo>
79.0447

> <Gold.Chemscore.Internal_Hbond>
0.0000

> <Gold.Chemscore.DEClash>
0.3782

> <Gold.Chemscore.DEInternal>
2.3871

> <Gold.Chemscore.Rot>
2.0165

> <Gold.Chemscore.Internal.Correction>
   9.000000E+99

> <Gold.Chemscore.Hbonds>
donor molecule, donor type, donor heavy atom, donor atom, acceptor molecule, acceptor atom, score
      L1  H     5    25       P1  7948  0.95
      L1  H     8    26       P1  7948  0.91
      L1  H    12    32       P1  7921  0.95

> <Gold.Chemscore.Hbond.Weighted>
-9.5439

> <Gold.Chemscore.Metal.Weighted>
-0.0000

> <Gold.Chemscore.Lipo.Weighted>
-9.2482

> <Gold.Chemscore.Internal_Hbond.Weighted>
0.0000

> <Gold.Chemscore.DEClash.Weighted>
0.3782

> <Gold.Chemscore.DEInternal.Weighted>
2.3871

> <Gold.Chemscore.Rot.Weighted>
5.1622

> <Gold.Chemscore.Internal.Correction.Weighted>
   9.000000E+99

> <Gold.Protein.RotatedTorsions>
[ 6907 6896 6895 6894 ] final    7.28 input  -60.11 | X-H torsion
[ 7974 7965 7964 7962 ] final  163.14 input  175.53 | X-H torsion
[ 8008 7997 7996 7995 ] final  -95.25 input   59.86 | X-H torsion
[ 10167 10162 10161 10158 ] final   15.72 input  -65.29 | X-H torsion
[ 10718 10713 10712 10709 ] final  -40.28 input   66.30 | X-H torsion
[ 10763 10752 10751 10750 ] final  -48.07 input  -60.55 | X-H torsion
[ 11005 11000 10999 10996 ] final  119.27 input  -57.11 | X-H torsion

> <Gold.Protein.ActiveResidues>
 VAL166  LYS551  ARG553  GLY616  TRP617  ASP618  TYR619  PRO620  LYS621  CYS622 
 ASP623  PHE694  ASN695  SER759  ASP760  ASP761  ALA762  ILE779  LEU786  VAL792 
 PHE793  MET794  SER795  GLU796  ALA797  LYS798  CYS799  TRP800  GLU811  SER814 

> <Gold.Protein.RotatedAtoms>
  151.6873  135.0952  160.0226 H   0  0  0  0  0  0  0  0  0  0  0  0  # atno 6907 bound_to 6896
  152.3800  133.6528  159.6162 H   0  0  0  0  0  0  0  0  0  0  0  0  # atno 6908 bound_to 6896
  150.7739  133.9047  159.3393 H   0  0  0  0  0  0  0  0  0  0  0  0  # atno 6909 bound_to 6896
  144.7603  139.8140  143.6335 H   0  0  0  0  0  0  0  0  0  0  0  0  # atno 7974 bound_to 7965
  154.7590  140.0482  157.0957 H   0  0  0  0  0  0  0  0  0  0  0  0  # atno 8008 bound_to 7997
  154.9962  140.3119  155.4866 H   0  0  0  0  0  0  0  0  0  0  0  0  # atno 8009 bound_to 7997
  156.2900  140.2209  156.5069 H   0  0  0  0  0  0  0  0  0  0  0  0  # atno 8010 bound_to 7997
  140.5847  143.8912  150.6820 H   0  0  0  0  0  0  0  0  0  0  0  0  # atno 10167 bound_to 10162
  156.2831  130.4219  149.8316 H   0  0  0  0  0  0  0  0  0  0  0  0  # atno 10718 bound_to 10713
  154.0718  135.6603  153.4825 H   0  0  0  0  0  0  0  0  0  0  0  0  # atno 10763 bound_to 10752
  153.0388  135.5159  154.7559 H   0  0  0  0  0  0  0  0  0  0  0  0  # atno 10764 bound_to 10752
  154.6627  135.3017  154.9812 H   0  0  0  0  0  0  0  0  0  0  0  0  # atno 10765 bound_to 10752
  139.9140  134.9627  156.7630 H   0  0  0  0  0  0  0  0  0  0  0  0  # atno 11005 bound_to 11000
  146.1659  139.4791  142.9958 LP  0  0  0  0  0  0  0  0  0  0  0  0  # atno 17320 bound_to 7965
  145.6641  141.0233  143.1693 LP  0  0  0  0  0  0  0  0  0  0  0  0  # atno 17321 bound_to 7965
  140.2420  143.3657  152.1478 LP  0  0  0  0  0  0  0  0  0  0  0  0  # atno 17342 bound_to 10162
  139.5191  144.7014  151.5481 LP  0  0  0  0  0  0  0  0  0  0  0  0  # atno 17343 bound_to 10162
  156.5756  130.8443  151.3369 LP  0  0  0  0  0  0  0  0  0  0  0  0  # atno 17370 bound_to 10713
  157.7320  130.9709  150.1909 LP  0  0  0  0  0  0  0  0  0  0  0  0  # atno 17371 bound_to 10713
  140.6682  133.9584  155.7842 LP  0  0  0  0  0  0  0  0  0  0  0  0  # atno 17394 bound_to 11000
  141.0596  134.0365  157.3676 LP  0  0  0  0  0  0  0  0  0  0  0  0  # atno 17395 bound_to 11000

$$$$
