AV-unprocessed.smi:140|AV-procd|sdf|1185|dock3
  -GOLD-   2262018333D 1   1.00000     0.00000
 Structure written by MMmdl.
 52 55  0  0  0  0  0  0  0  0  1 V2000
  146.6906  137.2258  156.4722 C   0  0  0  0  0  0  0  0  0  0  0  0
  147.9143  137.2302  157.3311 C   0  0  0  0  0  0  0  0  0  0  0  0
  149.2262  137.3394  156.9766 C   0  0  0  0  0  0  0  0  0  0  0  0
  150.0211  137.2824  158.1554 C   0  0  0  0  0  0  0  0  0  0  0  0
  151.4979  137.3811  158.2738 C   0  0  0  0  0  0  0  0  0  0  0  0
  152.1395  136.8526  159.1832 O   0  0  0  0  0  0  0  0  0  0  0  0
  152.2018  138.2078  157.1814 C   0  0  0  0  0  0  0  0  0  0  0  0
  151.6052  139.5235  156.9870 N   0  0  0  0  0  0  0  0  0  0  0  0
  150.8572  139.7466  155.8039 C   0  0  0  0  0  0  0  0  0  0  0  0
  150.7025  138.8707  154.9511 O   0  0  0  0  0  0  0  0  0  0  0  0
  150.2843  141.0837  155.6932 C   0  0  0  0  0  0  0  0  0  0  0  0
  149.5617  141.4087  154.6078 F   0  0  0  0  0  0  0  0  0  0  0  0
  150.4649  142.0042  156.6650 C   0  0  0  0  0  0  0  0  0  0  0  0
  151.1910  141.7532  157.8177 N   0  0  0  0  0  0  0  0  0  0  0  0
  151.3650  142.7958  158.9000 C   0  0  2  0  0  0  0  0  0  0  0  0
  150.5172  144.0420  158.5899 C   0  0  0  0  0  0  0  0  0  0  0  0
  151.5091  145.1711  158.7798 C   0  0  0  0  0  0  0  0  0  0  0  0
  152.8197  144.5049  158.3877 C   0  0  0  0  0  0  0  0  0  0  0  0
  152.7019  143.2061  158.9548 O   0  0  0  0  0  0  0  0  0  0  0  0
  151.7830  140.4863  158.0093 C   0  0  0  0  0  0  0  0  0  0  0  0
  152.4172  140.2358  159.0372 O   0  0  0  0  0  0  0  0  0  0  0  0
  149.1640  137.1196  159.2202 C   0  0  0  0  0  0  0  0  0  0  0  0
  149.4334  136.9695  160.6918 C   0  0  0  0  0  0  0  0  0  0  0  0
  147.8626  137.1136  158.7150 N   0  0  0  0  0  0  0  0  0  0  0  0
  146.6356  136.9946  159.4995 C   0  0  0  0  0  0  0  0  0  0  0  0
  146.6438  135.8799  160.5045 C   0  0  0  0  0  0  0  0  0  0  0  0
  146.4732  136.0094  161.8596 C   0  0  0  0  0  0  0  0  0  0  0  0
  146.5215  134.7675  162.5584 C   0  0  0  0  0  0  0  0  0  0  0  0
  146.7294  133.6988  161.7283 C   0  0  0  0  0  0  0  0  0  0  0  0
  146.8672  134.1991  160.0660 S   0  0  0  0  0  0  0  0  0  0  0  0
  146.9579  137.1898  155.4160 H   0  0  0  0  0  0  0  0  0  0  0  0
  146.0971  138.1254  156.6353 H   0  0  0  0  0  0  0  0  0  0  0  0
  146.0651  136.3587  156.6858 H   0  0  0  0  0  0  0  0  0  0  0  0
  149.5786  137.4537  155.9620 H   0  0  0  0  0  0  0  0  0  0  0  0
  153.2579  138.3498  157.4165 H   0  0  0  0  0  0  0  0  0  0  0  0
  152.1870  137.6825  156.2254 H   0  0  0  0  0  0  0  0  0  0  0  0
  150.0128  142.9727  156.5176 H   0  0  0  0  0  0  0  0  0  0  0  0
  151.1066  142.3019  159.8385 H   0  0  0  0  0  0  0  0  0  0  0  0
  150.1688  144.0131  157.5560 H   0  0  0  0  0  0  0  0  0  0  0  0
  149.6549  144.1055  159.2535 H   0  0  0  0  0  0  0  0  0  0  0  0
  151.2788  146.0495  158.1763 H   0  0  0  0  0  0  0  0  0  0  0  0
  151.5406  145.4721  159.8279 H   0  0  0  0  0  0  0  0  0  0  0  0
  152.9088  144.4351  157.3030 H   0  0  0  0  0  0  0  0  0  0  0  0
  153.6930  145.0320  158.7721 H   0  0  0  0  0  0  0  0  0  0  0  0
  150.3128  136.3511  160.8687 H   0  0  0  0  0  0  0  0  0  0  0  0
  148.6136  136.4838  161.2190 H   0  0  0  0  0  0  0  0  0  0  0  0
  149.6053  137.9417  161.1539 H   0  0  0  0  0  0  0  0  0  0  0  0
  146.4470  137.9446  159.9999 H   0  0  0  0  0  0  0  0  0  0  0  0
  145.7916  136.8642  158.8230 H   0  0  0  0  0  0  0  0  0  0  0  0
  146.3149  136.9476  162.3706 H   0  0  0  0  0  0  0  0  0  0  0  0
  146.4038  134.7026  163.6301 H   0  0  0  0  0  0  0  0  0  0  0  0
  146.8086  132.6540  161.9895 H   0  0  0  0  0  0  0  0  0  0  0  0
  1  2  1  0  0  0  0
  1 31  1  0  0  0  0
  1 32  1  0  0  0  0
  1 33  1  0  0  0  0
  2 24  1  0  0  0  0
  2  3  2  0  0  0  0
  3  4  1  0  0  0  0
  3 34  1  0  0  0  0
  4  5  1  0  0  0  0
  4 22  2  0  0  0  0
  5  6  2  0  0  0  0
  5  7  1  0  0  0  0
  7  8  1  0  0  0  0
  7 35  1  0  0  0  0
  7 36  1  0  0  0  0
  8 20  1  0  0  0  0
  8  9  1  0  0  0  0
  9 10  2  0  0  0  0
  9 11  1  0  0  0  0
 11 12  1  0  0  0  0
 11 13  2  0  0  0  0
 13 14  1  0  0  0  0
 13 37  1  0  0  0  0
 14 15  1  0  0  0  0
 14 20  1  0  0  0  0
 15 19  1  0  0  0  0
 15 16  1  0  0  0  0
 15 38  1  0  0  0  0
 16 17  1  0  0  0  0
 16 39  1  0  0  0  0
 16 40  1  0  0  0  0
 17 18  1  0  0  0  0
 17 41  1  0  0  0  0
 17 42  1  0  0  0  0
 18 19  1  0  0  0  0
 18 43  1  0  0  0  0
 18 44  1  0  0  0  0
 20 21  2  0  0  0  0
 22 23  1  0  0  0  0
 22 24  1  0  0  0  0
 23 45  1  0  0  0  0
 23 46  1  0  0  0  0
 23 47  1  0  0  0  0
 24 25  1  0  0  0  0
 25 26  1  0  0  0  0
 25 48  1  0  0  0  0
 25 49  1  0  0  0  0
 26 30  1  0  0  0  0
 26 27  2  0  0  0  0
 27 28  1  0  0  0  0
 27 50  1  0  0  0  0
 28 29  2  0  0  0  0
 28 51  1  0  0  0  0
 29 30  1  0  0  0  0
 29 52  1  0  0  0  0
M  END
> <s_m_source_file>
AV-unprocessed.smi

> <i_m_source_file_index>
140

> <i_lp_mmshare_version>
43012

> <i_f3d_flags>
0

> <s_epik_input>
czFbY0hdW2NIXVtjSF1jMVtDSDJdbjJjKFtDSDNdKWMoW2NIXWMyW0NIM10pQyg9TylbQ0gyXW4zYyg9TyljKEYpW2NIXW4oYzM9TylbQ0BASF00W0NIMl1bQ0gyXVtDSDJdTzQ=

> <s_epik_cmdline>
J2VwaWtfcHl0aG9uJywgJy1waCcsICc3LjAnLCAnLXRuJywgJzgnLCAnLW1hJywgJzIwMCcsICctbWV0YWxfYmluZGluZycsICctaW1hZScsICc8aW5maWxlLm1hZT4nLCAnLW9tYWUnLCAnPG91dGZpbGUubWFlPic=

> <r_lp_tautomer_probability>
1

> <r_epik_Ionization_Penalty>
5.024e-09

> <r_epik_Ionization_Penalty_Charging>
5.01743e-09

> <r_epik_Ionization_Penalty_Neutral>
6.5712e-12

> <r_epik_State_Penalty>
-0

> <r_epik_Charging_Adjusted_Penalty>
5.01743e-09

> <i_epik_Tot_Q>
0

> <i_epik_Tot_abs_Q>
0

> <r_epik_Metal_State_Penalty>
-0

> <b_epik_Metal_Only>
0

> <s_epik_Chemistry_Notes>
This compound contains an acetal/aminal-like group ( X-CH(R)-Y where X, Y are N, S, or O) that may be acid/base labile, releasing an aldehyde.

> <s_lp_Force_Field>
OPLS_2005

> <r_lp_Energy>
39.7817

> <b_lp_Chiralities_Consistent>
1

> <s_lp_Variant>
AV-unprocessed.smi:140-1

> <Gold.Version>
5.8.1

> <Gold.Id.Protein>
6NUR|6NUR_protein|mol2

> <Gold.PLP.Fitness>
50.5781

> <Gold.PLP.PLP>
-45.9108

> <Gold.PLP.part.hbond>
-1.0000

> <Gold.PLP.part.metal>
0.0000

> <Gold.PLP.part.buried>
-3.7321

> <Gold.PLP.part.nonpolar>
-42.0363

> <Gold.PLP.part.repulsive>
0.0950

> <Gold.PLP.ligand.clash>
0.0000

> <Gold.PLP.ligand.torsion>
0.7608

> <Gold.PLP.Chemscore.Hbond>
0.9913

> <Gold.PLP.Chemscore.CHOScore>
1.0000

> <Gold.PLP.Chemscore.Metal>
0.0000

> <Gold.Chemscore.Hbonds>
donor molecule, donor type, donor heavy atom, donor atom, acceptor molecule, acceptor atom, score
      P1  H  6896  6909       L1     6  0.99
      L1  C    13    37       P1  8028  1.00

> <Gold.PLP.Chemscore.Internal.Correction>
0.2151

> <Gold.Rescore>
     Score         DG    S(hbond)    S(metal)    S(lipo)     H(rot)  DE(clash)    DE(int)     intcor
     11.32     -16.83       0.92        0.00     111.74       1.87       2.76       2.74       ----

> <Gold.Chemscore.Fitness>
11.3205

> <Gold.Chemscore.DG>
-16.8266

> <Gold.Chemscore.ZeroCoef>
-5.4800

> <Gold.Chemscore.Hbond>
0.9172

> <Gold.Chemscore.Metal>
0.0000

> <Gold.Chemscore.Lipo>
111.7399

> <Gold.Chemscore.Internal_Hbond>
0.0000

> <Gold.Chemscore.DEClash>
2.7634

> <Gold.Chemscore.DEInternal>
2.7427

> <Gold.Chemscore.Rot>
1.8713

> <Gold.Chemscore.Internal.Correction>
   9.000000E+99

> <Gold.Chemscore.Hbonds>
donor molecule, donor type, donor heavy atom, donor atom, acceptor molecule, acceptor atom, score
      P1  H  6896  6909       L1     6  0.93

> <Gold.Chemscore.Hbond.Weighted>
-3.0635

> <Gold.Chemscore.Metal.Weighted>
-0.0000

> <Gold.Chemscore.Lipo.Weighted>
-13.0736

> <Gold.Chemscore.Internal_Hbond.Weighted>
0.0000

> <Gold.Chemscore.DEClash.Weighted>
2.7634

> <Gold.Chemscore.DEInternal.Weighted>
2.7427

> <Gold.Chemscore.Rot.Weighted>
4.7905

> <Gold.Chemscore.Internal.Correction.Weighted>
   9.000000E+99

> <Gold.Protein.RotatedTorsions>
[ 6907 6896 6895 6894 ] final  135.66 input  -60.11 | X-H torsion
[ 7974 7965 7964 7962 ] final  -59.74 input  175.53 | X-H torsion
[ 8008 7997 7996 7995 ] final  155.62 input   59.86 | X-H torsion
[ 10167 10162 10161 10158 ] final -154.30 input  -65.29 | X-H torsion
[ 10718 10713 10712 10709 ] final   68.18 input   66.30 | X-H torsion
[ 10763 10752 10751 10750 ] final  165.18 input  -60.55 | X-H torsion
[ 11005 11000 10999 10996 ] final -142.46 input  -57.11 | X-H torsion

> <Gold.Protein.ActiveResidues>
 VAL166  LYS551  ARG553  GLY616  TRP617  ASP618  TYR619  PRO620  LYS621  CYS622 
 ASP623  PHE694  ASN695  SER759  ASP760  ASP761  ALA762  ILE779  LEU786  VAL792 
 PHE793  MET794  SER795  GLU796  ALA797  LYS798  CYS799  TRP800  GLU811  SER814 

> <Gold.Protein.RotatedAtoms>
  152.2980  133.5627  159.5599 H   0  0  0  0  0  0  0  0  0  0  0  0  # atno 6907 bound_to 6896
  150.7265  134.0333  159.3749 H   0  0  0  0  0  0  0  0  0  0  0  0  # atno 6908 bound_to 6896
  151.8234  135.0645  160.0479 H   0  0  0  0  0  0  0  0  0  0  0  0  # atno 6909 bound_to 6896
  145.8239  140.8523  143.0118 H   0  0  0  0  0  0  0  0  0  0  0  0  # atno 7974 bound_to 7965
  156.2468  140.1934  156.6829 H   0  0  0  0  0  0  0  0  0  0  0  0  # atno 8008 bound_to 7997
  154.6308  140.0596  156.9756 H   0  0  0  0  0  0  0  0  0  0  0  0  # atno 8009 bound_to 7997
  155.1713  140.3268  155.4395 H   0  0  0  0  0  0  0  0  0  0  0  0  # atno 8010 bound_to 7997
  139.7025  143.9240  152.2434 H   0  0  0  0  0  0  0  0  0  0  0  0  # atno 10167 bound_to 10162
  157.6274  130.9360  150.0342 H   0  0  0  0  0  0  0  0  0  0  0  0  # atno 10718 bound_to 10713
  154.3201  135.2756  155.2523 H   0  0  0  0  0  0  0  0  0  0  0  0  # atno 10763 bound_to 10752
  154.4880  135.5841  153.6442 H   0  0  0  0  0  0  0  0  0  0  0  0  # atno 10764 bound_to 10752
  152.9877  135.6127  154.3385 H   0  0  0  0  0  0  0  0  0  0  0  0  # atno 10765 bound_to 10752
  140.8223  134.2617  157.4895 H   0  0  0  0  0  0  0  0  0  0  0  0  # atno 11005 bound_to 11000
  144.6745  140.0573  143.7477 LP  0  0  0  0  0  0  0  0  0  0  0  0  # atno 17320 bound_to 7965
  145.9645  139.2824  143.1136 LP  0  0  0  0  0  0  0  0  0  0  0  0  # atno 17321 bound_to 7965
  139.9087  144.6869  150.8586 LP  0  0  0  0  0  0  0  0  0  0  0  0  # atno 17342 bound_to 10162
  140.7713  143.3459  151.2111 LP  0  0  0  0  0  0  0  0  0  0  0  0  # atno 17343 bound_to 10162
  156.1455  130.3642  149.9517 LP  0  0  0  0  0  0  0  0  0  0  0  0  # atno 17370 bound_to 10713
  156.7549  130.9129  151.3639 LP  0  0  0  0  0  0  0  0  0  0  0  0  # atno 17371 bound_to 10713
  139.8708  134.9542  156.4168 LP  0  0  0  0  0  0  0  0  0  0  0  0  # atno 17394 bound_to 11000
  140.9086  133.7728  155.9765 LP  0  0  0  0  0  0  0  0  0  0  0  0  # atno 17395 bound_to 11000

$$$$
