AV-unprocessed.smi:249|AV-procd|sdf|1929|dock7
  -GOLD-   2262021 43D 1   1.00000     0.00000
 Structure written by MMmdl.
 64 67  0  0  0  0  0  0  0  0  2 V2000
  146.7005  132.7759  151.2773 C   0  0  0  0  0  0  0  0  0  0  0  0
  145.4682  133.2082  152.0892 C   0  0  0  0  0  0  0  0  0  0  0  0
  145.5819  134.5861  152.6499 N   0  3  1  0  0  0  0  0  0  0  0  0
  146.5869  134.6490  153.7511 C   0  0  0  0  0  0  0  0  0  0  0  0
  146.6308  136.0293  154.4199 C   0  0  0  0  0  0  0  0  0  0  0  0
  146.9361  137.1157  153.3812 C   0  0  2  0  0  0  0  0  0  0  0  0
  147.0432  138.4518  153.9784 N   0  0  0  0  0  0  0  0  0  0  0  0
  146.0073  138.9301  154.8931 C   0  0  0  0  0  0  0  0  0  0  0  0
  148.3094  138.8798  154.2178 C   0  0  0  0  0  0  0  0  0  0  0  0
  149.3526  138.2801  153.5848 N   0  0  0  0  0  0  0  0  0  0  0  0
  150.6015  138.7070  153.7916 C   0  0  0  0  0  0  0  0  0  0  0  0
  151.0244  139.6961  154.5802 N   0  0  0  0  0  0  0  0  0  0  0  0
  149.9859  140.2916  155.2338 C   0  0  0  0  0  0  0  0  0  0  0  0
  148.6089  139.9531  155.1038 C   0  0  0  0  0  0  0  0  0  0  0  0
  147.8391  140.7832  155.9093 N   0  0  0  0  0  0  0  0  0  0  0  0
  148.7096  141.5757  156.4718 C   0  0  0  0  0  0  0  0  0  0  0  0
  150.0261  141.3325  156.1481 N   0  0  0  0  0  0  0  0  0  0  0  0
  151.1848  142.0777  156.6215 C   0  0  0  0  0  0  0  0  0  0  0  0
  151.4580  141.9575  158.1489 C   0  0  1  0  0  0  0  0  0  0  0  0
  151.8622  140.5002  158.4763 C   0  0  0  0  0  0  0  0  0  0  0  0
  152.8494  140.0336  157.5795 O   0  0  0  0  0  0  0  0  0  0  0  0
  152.5396  142.9437  158.6889 C   0  0  1  0  0  0  0  0  0  0  0  0
  152.2849  144.4281  158.4685 C   0  0  0  0  0  0  0  0  0  0  0  0
  151.3023  144.7792  159.5801 C   0  0  0  0  0  0  0  0  0  0  0  0
  151.6238  143.8987  160.6513 O   0  0  0  0  0  0  0  0  0  0  0  0
  152.6059  142.9587  160.2244 C   0  0  0  0  0  0  0  0  0  0  0  0
  145.8813  137.0463  152.2684 C   0  0  0  0  0  0  0  0  0  0  0  0
  145.8274  135.6467  151.6166 C   0  0  2  0  0  0  0  0  0  0  0  0
  144.7635  135.6683  150.4986 C   0  0  0  0  0  0  0  0  0  0  0  0
  146.6354  131.7175  151.0244 H   0  0  0  0  0  0  0  0  0  0  0  0
  147.6191  132.9204  151.8466 H   0  0  0  0  0  0  0  0  0  0  0  0
  146.7922  133.3173  150.3366 H   0  0  0  0  0  0  0  0  0  0  0  0
  144.5639  133.1256  151.4842 H   0  0  0  0  0  0  0  0  0  0  0  0
  145.3729  132.4770  152.8882 H   0  0  0  0  0  0  0  0  0  0  0  0
  146.3588  133.9168  154.5236 H   0  0  0  0  0  0  0  0  0  0  0  0
  147.5726  134.3940  153.3580 H   0  0  0  0  0  0  0  0  0  0  0  0
  145.6768  136.2250  154.9110 H   0  0  0  0  0  0  0  0  0  0  0  0
  147.3911  136.0323  155.2021 H   0  0  0  0  0  0  0  0  0  0  0  0
  147.8916  136.8597  152.9240 H   0  0  0  0  0  0  0  0  0  0  0  0
  146.1421  139.9911  155.1075 H   0  0  0  0  0  0  0  0  0  0  0  0
  146.0368  138.3856  155.8376 H   0  0  0  0  0  0  0  0  0  0  0  0
  145.0137  138.8139  154.4623 H   0  0  0  0  0  0  0  0  0  0  0  0
  151.3721  138.1816  153.2470 H   0  0  0  0  0  0  0  0  0  0  0  0
  148.4132  142.3572  157.1564 H   0  0  0  0  0  0  0  0  0  0  0  0
  152.0335  141.7041  156.0481 H   0  0  0  0  0  0  0  0  0  0  0  0
  151.0781  143.1260  156.3396 H   0  0  0  0  0  0  0  0  0  0  0  0
  150.5353  142.1580  158.6921 H   0  0  0  0  0  0  0  0  0  0  0  0
  152.2373  140.4247  159.4975 H   0  0  0  0  0  0  0  0  0  0  0  0
  151.0179  139.8169  158.4042 H   0  0  0  0  0  0  0  0  0  0  0  0
  152.5203  139.2625  157.1433 H   0  0  0  0  0  0  0  0  0  0  0  0
  153.5057  142.6698  158.2629 H   0  0  0  0  0  0  0  0  0  0  0  0
  153.2144  144.9757  158.6314 H   0  0  0  0  0  0  0  0  0  0  0  0
  151.9434  144.7021  157.4756 H   0  0  0  0  0  0  0  0  0  0  0  0
  151.3766  145.8233  159.8845 H   0  0  0  0  0  0  0  0  0  0  0  0
  150.2763  144.5890  159.2632 H   0  0  0  0  0  0  0  0  0  0  0  0
  152.4429  141.9907  160.6956 H   0  0  0  0  0  0  0  0  0  0  0  0
  153.5833  143.3169  160.5516 H   0  0  0  0  0  0  0  0  0  0  0  0
  144.8945  137.2914  152.6621 H   0  0  0  0  0  0  0  0  0  0  0  0
  146.1095  137.7988  151.5121 H   0  0  0  0  0  0  0  0  0  0  0  0
  146.7966  135.4482  151.1557 H   0  0  0  0  0  0  0  0  0  0  0  0
  144.8800  136.5506  149.8682 H   0  0  0  0  0  0  0  0  0  0  0  0
  143.7534  135.6909  150.9087 H   0  0  0  0  0  0  0  0  0  0  0  0
  144.8441  134.8122  149.8299 H   0  0  0  0  0  0  0  0  0  0  0  0
  144.6854  134.8002  153.0632 H   0  0  0  0  0  0  0  0  0  0  0  0
  1  2  1  0  0  0  0
  1 30  1  0  0  0  0
  1 31  1  0  0  0  0
  1 32  1  0  0  0  0
  2  3  1  0  0  0  0
  2 33  1  0  0  0  0
  2 34  1  0  0  0  0
  3 28  1  0  0  0  0
  3  4  1  0  0  0  0
  3 64  1  0  0  0  0
  4  5  1  0  0  0  0
  4 35  1  0  0  0  0
  4 36  1  0  0  0  0
  5  6  1  0  0  0  0
  5 37  1  0  0  0  0
  5 38  1  0  0  0  0
  6  7  1  0  0  0  0
  6 27  1  0  0  0  0
  6 39  1  0  0  0  0
  7  8  1  0  0  0  0
  7  9  1  0  0  0  0
  8 40  1  0  0  0  0
  8 41  1  0  0  0  0
  8 42  1  0  0  0  0
  9 14  1  0  0  0  0
  9 10  2  0  0  0  0
 10 11  1  0  0  0  0
 11 12  2  0  0  0  0
 11 43  1  0  0  0  0
 12 13  1  0  0  0  0
 13 17  1  0  0  0  0
 13 14  2  0  0  0  0
 14 15  1  0  0  0  0
 15 16  2  0  0  0  0
 16 17  1  0  0  0  0
 16 44  1  0  0  0  0
 17 18  1  0  0  0  0
 18 19  1  0  0  0  0
 18 45  1  0  0  0  0
 18 46  1  0  0  0  0
 19 20  1  0  0  0  0
 19 22  1  0  0  0  0
 19 47  1  0  0  0  0
 20 21  1  0  0  0  0
 20 48  1  0  0  0  0
 20 49  1  0  0  0  0
 21 50  1  0  0  0  0
 22 26  1  0  0  0  0
 22 23  1  0  0  0  0
 22 51  1  0  0  0  0
 23 24  1  0  0  0  0
 23 52  1  0  0  0  0
 23 53  1  0  0  0  0
 24 25  1  0  0  0  0
 24 54  1  0  0  0  0
 24 55  1  0  0  0  0
 25 26  1  0  0  0  0
 26 56  1  0  0  0  0
 26 57  1  0  0  0  0
 27 28  1  0  0  0  0
 27 58  1  0  0  0  0
 27 59  1  0  0  0  0
 28 29  1  0  0  0  0
 28 60  1  0  0  0  0
 29 61  1  0  0  0  0
 29 62  1  0  0  0  0
 29 63  1  0  0  0  0
M  CHG  1   3   1
M  END
> <s_m_source_file>
AV-unprocessed.smi

> <i_m_source_file_index>
249

> <i_lp_mmshare_version>
43012

> <i_f3d_flags>
0

> <s_epik_input>
W0NIM11bQ0gyXU4xW0NIMl1bQ0gyXVtDQEhdKFtDSDJdW0NASF0xW0NIM10pTihbQ0gzXSljKG5bY0hdbjIpYyhjMjMpbltjSF1uM1tDSDJdW0NASF0oW0NIMl1bT0hdKVtDQEBIXTRbQ0gyXVtDSDJdT1tDSDJdNA==

> <s_epik_cmdline>
J2VwaWtfcHl0aG9uJywgJy1waCcsICc3LjAnLCAnLXRuJywgJzgnLCAnLW1hJywgJzIwMCcsICctbWV0YWxfYmluZGluZycsICctaW1hZScsICc8aW5maWxlLm1hZT4nLCAnLW9tYWUnLCAnPG91dGZpbGUubWFlPic=

> <r_lp_tautomer_probability>
1

> <r_epik_Ionization_Penalty>
0.00294688

> <r_epik_Ionization_Penalty_Charging>
0.00169971

> <r_epik_Ionization_Penalty_Neutral>
0.00124717

> <r_epik_State_Penalty>
-0

> <r_epik_Charging_Adjusted_Penalty>
0.00169971

> <i_epik_Tot_Q>
1

> <i_epik_Tot_abs_Q>
1

> <r_epik_Metal_State_Penalty>
-0

> <b_epik_Metal_Only>
0

> <s_lp_Force_Field>
OPLS_2005

> <r_lp_Energy>
57.6505

> <b_lp_Chiralities_Consistent>
1

> <s_lp_Variant>
AV-unprocessed.smi:249-32

> <Gold.Version>
5.8.1

> <Gold.Id.Protein>
6NUR|6NUR_protein|mol2

> <Gold.PLP.Fitness>
50.6518

> <Gold.PLP.PLP>
-42.2902

> <Gold.PLP.part.hbond>
-2.0000

> <Gold.PLP.part.metal>
0.0000

> <Gold.PLP.part.buried>
-4.3150

> <Gold.PLP.part.nonpolar>
-39.8570

> <Gold.PLP.part.repulsive>
3.1860

> <Gold.PLP.ligand.clash>
0.0000

> <Gold.PLP.ligand.torsion>
0.7678

> <Gold.PLP.Chemscore.Hbond>
2.0000

> <Gold.PLP.Chemscore.CHOScore>
0.9352

> <Gold.PLP.Chemscore.Metal>
0.0000

> <Gold.Chemscore.Hbonds>
donor molecule, donor type, donor heavy atom, donor atom, acceptor molecule, acceptor atom, score
      P1  H  7989  7998       L1    12  1.00
      P1  H  7997  8009       L1    21  0.90
      L1  C    11    43       P1  7949  0.30
      L1  C    16    44       P1  8028  0.12

> <Gold.PLP.Chemscore.Internal.Correction>
1.0915

> <Gold.Rescore>
     Score         DG    S(hbond)    S(metal)    S(lipo)     H(rot)  DE(clash)    DE(int)     intcor
     10.68     -14.19       1.04        0.00     102.90       2.65       1.18       2.33       ----

> <Gold.Chemscore.Fitness>
10.6777

> <Gold.Chemscore.DG>
-14.1898

> <Gold.Chemscore.ZeroCoef>
-5.4800

> <Gold.Chemscore.Hbond>
1.0355

> <Gold.Chemscore.Metal>
0.0000

> <Gold.Chemscore.Lipo>
102.8992

> <Gold.Chemscore.Internal_Hbond>
0.0000

> <Gold.Chemscore.DEClash>
1.1809

> <Gold.Chemscore.DEInternal>
2.3312

> <Gold.Chemscore.Rot>
2.6515

> <Gold.Chemscore.Internal.Correction>
   9.000000E+99

> <Gold.Chemscore.Hbonds>
donor molecule, donor type, donor heavy atom, donor atom, acceptor molecule, acceptor atom, score
      P1  H  7989  7998       L1    12  0.25
      P1  H  7997  8009       L1    21  0.18

> <Gold.Chemscore.Hbond.Weighted>
-3.4586

> <Gold.Chemscore.Metal.Weighted>
-0.0000

> <Gold.Chemscore.Lipo.Weighted>
-12.0392

> <Gold.Chemscore.Internal_Hbond.Weighted>
0.0000

> <Gold.Chemscore.DEClash.Weighted>
1.1809

> <Gold.Chemscore.DEInternal.Weighted>
2.3312

> <Gold.Chemscore.Rot.Weighted>
6.7880

> <Gold.Chemscore.Internal.Correction.Weighted>
   9.000000E+99

> <Gold.Protein.RotatedTorsions>
[ 6907 6896 6895 6894 ] final   42.86 input  -60.11 | X-H torsion
[ 7974 7965 7964 7962 ] final  -68.21 input  175.53 | X-H torsion
[ 8008 7997 7996 7995 ] final  168.69 input   59.86 | X-H torsion
[ 10167 10162 10161 10158 ] final  -19.14 input  -65.29 | X-H torsion
[ 10718 10713 10712 10709 ] final  -93.66 input   66.30 | X-H torsion
[ 10763 10752 10751 10750 ] final   92.10 input  -60.55 | X-H torsion
[ 11005 11000 10999 10996 ] final  -40.87 input  -57.11 | X-H torsion

> <Gold.Protein.ActiveResidues>
 VAL166  LYS551  ARG553  GLY616  TRP617  ASP618  TYR619  PRO620  LYS621  CYS622 
 ASP623  PHE694  ASN695  SER759  ASP760  ASP761  ALA762  ILE779  LEU786  VAL792 
 PHE793  MET794  SER795  GLU796  ALA797  LYS798  CYS799  TRP800  GLU811  SER814 

> <Gold.Protein.RotatedAtoms>
  152.2131  134.8483  160.0494 H   0  0  0  0  0  0  0  0  0  0  0  0  # atno 6907 bound_to 6896
  151.9294  133.3602  159.3933 H   0  0  0  0  0  0  0  0  0  0  0  0  # atno 6908 bound_to 6896
  150.6981  134.4478  159.5366 H   0  0  0  0  0  0  0  0  0  0  0  0  # atno 6909 bound_to 6896
  145.7194  140.9045  143.0638 H   0  0  0  0  0  0  0  0  0  0  0  0  # atno 7974 bound_to 7965
  156.1525  140.1584  156.8747 H   0  0  0  0  0  0  0  0  0  0  0  0  # atno 8008 bound_to 7997
  154.5084  140.0807  156.7977 H   0  0  0  0  0  0  0  0  0  0  0  0  # atno 8009 bound_to 7997
  155.3869  140.3408  155.4251 H   0  0  0  0  0  0  0  0  0  0  0  0  # atno 8010 bound_to 7997
  140.7265  143.4847  151.0070 H   0  0  0  0  0  0  0  0  0  0  0  0  # atno 10167 bound_to 10162
  156.0016  130.5036  150.5810 H   0  0  0  0  0  0  0  0  0  0  0  0  # atno 10718 bound_to 10713
  153.2155  135.4373  155.0429 H   0  0  0  0  0  0  0  0  0  0  0  0  # atno 10763 bound_to 10752
  154.8223  135.3343  154.7005 H   0  0  0  0  0  0  0  0  0  0  0  0  # atno 10764 bound_to 10752
  153.7440  135.7003  153.5016 H   0  0  0  0  0  0  0  0  0  0  0  0  # atno 10765 bound_to 10752
  141.0205  133.6865  156.2380 H   0  0  0  0  0  0  0  0  0  0  0  0  # atno 11005 bound_to 11000
  144.6920  139.9182  143.7466 LP  0  0  0  0  0  0  0  0  0  0  0  0  # atno 17320 bound_to 7965
  146.0639  139.3631  143.0564 LP  0  0  0  0  0  0  0  0  0  0  0  0  # atno 17321 bound_to 7965
  139.8548  143.7391  152.3176 LP  0  0  0  0  0  0  0  0  0  0  0  0  # atno 17342 bound_to 10162
  139.7586  144.7513  151.0398 LP  0  0  0  0  0  0  0  0  0  0  0  0  # atno 17343 bound_to 10162
  157.3690  131.0762  151.1573 LP  0  0  0  0  0  0  0  0  0  0  0  0  # atno 17370 bound_to 10713
  157.2333  130.6535  149.5859 LP  0  0  0  0  0  0  0  0  0  0  0  0  # atno 17371 bound_to 10713
  140.6581  134.4997  157.5582 LP  0  0  0  0  0  0  0  0  0  0  0  0  # atno 17394 bound_to 11000
  139.9143  134.8278  156.1419 LP  0  0  0  0  0  0  0  0  0  0  0  0  # atno 17395 bound_to 11000

$$$$
