AV-unprocessed.smi:1844|AV-procd|sdf|7511|dock1
  -GOLD-   22720 9213D 1   1.00000     0.00000
 Structure written by MMmdl.
 45 46  0  0  0  0  0  0  0  0  1 V2000
  145.7494  135.2185  160.4427 C   0  0  0  0  0  0  0  0  0  0  0  0
  146.9505  135.5613  159.6963 N   0  0  0  0  0  0  0  0  0  0  0  0
  147.8557  136.4732  160.0878 C   0  0  0  0  0  0  0  0  0  0  0  0
  147.7269  137.1023  161.1394 O   0  0  0  0  0  0  0  0  0  0  0  0
  148.9755  136.6334  159.1570 C   0  0  0  0  0  0  0  0  0  0  0  0
  148.9600  136.1193  157.7954 C   0  0  0  0  0  0  0  0  0  0  0  0
  150.0095  136.3207  156.9747 C   0  0  0  0  0  0  0  0  0  0  0  0
  151.2001  137.0567  157.4097 C   0  0  0  0  0  0  0  0  0  0  0  0
  152.1502  137.2657  156.6555 O   0  0  0  0  0  0  0  0  0  0  0  0
  151.1830  137.5025  158.7022 N   0  0  0  0  0  0  0  0  0  0  0  0
  152.3147  138.2683  159.2560 C   0  0  0  0  0  0  0  0  0  0  0  0
  152.4965  139.6712  158.6507 C   0  0  0  0  0  0  0  0  0  0  0  0
  152.8377  139.7755  157.4732 O   0  0  0  0  0  0  0  0  0  0  0  0
  152.2807  140.7344  159.4440 N   0  0  0  0  0  0  0  0  0  0  0  0
  152.4488  142.1345  159.0685 C   0  0  1  0  0  0  0  0  0  0  0  0
  151.5122  142.4810  157.8921 C   0  0  0  0  0  0  0  0  0  0  0  0
  151.6140  143.9640  157.5073 C   0  0  0  0  0  0  0  0  0  0  0  0
  151.3334  144.8682  158.7155 C   0  0  0  0  0  0  0  0  0  0  0  0
  152.2710  144.5330  159.8853 C   0  0  0  0  0  0  0  0  0  0  0  0
  152.1749  143.0479  160.2893 C   0  0  2  0  0  0  0  0  0  0  0  0
  153.1074  142.7453  161.4768 C   0  0  0  0  0  0  0  0  0  0  0  0
  150.0800  137.2951  159.5536 C   0  0  0  0  0  0  0  0  0  0  0  0
  145.1968  134.4384  159.9190 H   0  0  0  0  0  0  0  0  0  0  0  0
  145.0972  136.0865  160.5485 H   0  0  0  0  0  0  0  0  0  0  0  0
  146.0015  134.8482  161.4373 H   0  0  0  0  0  0  0  0  0  0  0  0
  147.1069  135.0744  158.8255 H   0  0  0  0  0  0  0  0  0  0  0  0
  148.1144  135.5674  157.4124 H   0  0  0  0  0  0  0  0  0  0  0  0
  149.9744  135.9299  155.9684 H   0  0  0  0  0  0  0  0  0  0  0  0
  152.1889  138.3805  160.3338 H   0  0  0  0  0  0  0  0  0  0  0  0
  153.2501  137.7181  159.1408 H   0  0  0  0  0  0  0  0  0  0  0  0
  152.0009  140.5567  160.3976 H   0  0  0  0  0  0  0  0  0  0  0  0
  153.4817  142.2923  158.7511 H   0  0  0  0  0  0  0  0  0  0  0  0
  151.7518  141.8648  157.0247 H   0  0  0  0  0  0  0  0  0  0  0  0
  150.4809  142.2469  158.1601 H   0  0  0  0  0  0  0  0  0  0  0  0
  152.6105  144.1725  157.1164 H   0  0  0  0  0  0  0  0  0  0  0  0
  150.9131  144.1885  156.7029 H   0  0  0  0  0  0  0  0  0  0  0  0
  151.4523  145.9144  158.4325 H   0  0  0  0  0  0  0  0  0  0  0  0
  150.2961  144.7484  159.0301 H   0  0  0  0  0  0  0  0  0  0  0  0
  153.2981  144.7725  159.6065 H   0  0  0  0  0  0  0  0  0  0  0  0
  152.0284  145.1684  160.7378 H   0  0  0  0  0  0  0  0  0  0  0  0
  151.1528  142.8648  160.6251 H   0  0  0  0  0  0  0  0  0  0  0  0
  154.1539  142.8751  161.1998 H   0  0  0  0  0  0  0  0  0  0  0  0
  152.9830  141.7248  161.8402 H   0  0  0  0  0  0  0  0  0  0  0  0
  152.9013  143.4115  162.3149 H   0  0  0  0  0  0  0  0  0  0  0  0
  150.1941  137.7260  160.5389 H   0  0  0  0  0  0  0  0  0  0  0  0
  1  2  1  0  0  0  0
  1 23  1  0  0  0  0
  1 24  1  0  0  0  0
  1 25  1  0  0  0  0
  2  3  1  0  0  0  0
  2 26  1  0  0  0  0
  3  4  2  0  0  0  0
  3  5  1  0  0  0  0
  5 22  2  0  0  0  0
  5  6  1  0  0  0  0
  6  7  2  0  0  0  0
  6 27  1  0  0  0  0
  7  8  1  0  0  0  0
  7 28  1  0  0  0  0
  8  9  2  0  0  0  0
  8 10  1  0  0  0  0
 10 11  1  0  0  0  0
 10 22  1  0  0  0  0
 11 12  1  0  0  0  0
 11 29  1  0  0  0  0
 11 30  1  0  0  0  0
 12 13  2  0  0  0  0
 12 14  1  0  0  0  0
 14 15  1  0  0  0  0
 14 31  1  0  0  0  0
 15 20  1  0  0  0  0
 15 16  1  0  0  0  0
 15 32  1  0  0  0  0
 16 17  1  0  0  0  0
 16 33  1  0  0  0  0
 16 34  1  0  0  0  0
 17 18  1  0  0  0  0
 17 35  1  0  0  0  0
 17 36  1  0  0  0  0
 18 19  1  0  0  0  0
 18 37  1  0  0  0  0
 18 38  1  0  0  0  0
 19 20  1  0  0  0  0
 19 39  1  0  0  0  0
 19 40  1  0  0  0  0
 20 21  1  0  0  0  0
 20 41  1  0  0  0  0
 21 42  1  0  0  0  0
 21 43  1  0  0  0  0
 21 44  1  0  0  0  0
 22 45  1  0  0  0  0
M  END
> <s_m_source_file>
AV-unprocessed.smi

> <i_m_source_file_index>
1844

> <i_lp_mmshare_version>
43012

> <i_f3d_flags>
0

> <s_epik_input>
W0NIM11bTkhdQyg9TyljMVtjSF1bY0hdYyg9TyluKFtjSF0xKVtDSDJdQyg9TylbTkhdW0NAQEhdMltDSDJdW0NIMl1bQ0gyXVtDSDJdW0NASF0yW0NIM10=

> <s_epik_cmdline>
J2VwaWtfcHl0aG9uJywgJy1waCcsICc3LjAnLCAnLXRuJywgJzgnLCAnLW1hJywgJzIwMCcsICctbWV0YWxfYmluZGluZycsICctaW1hZScsICc8aW5maWxlLm1hZT4nLCAnLW9tYWUnLCAnPG91dGZpbGUubWFlPic=

> <r_lp_tautomer_probability>
1

> <r_epik_Ionization_Penalty>
3.66612e-07

> <r_epik_Ionization_Penalty_Charging>
5.18929e-08

> <r_epik_Ionization_Penalty_Neutral>
3.14719e-07

> <r_epik_State_Penalty>
-0

> <r_epik_Charging_Adjusted_Penalty>
5.18929e-08

> <i_epik_Tot_Q>
0

> <i_epik_Tot_abs_Q>
0

> <r_epik_Metal_State_Penalty>
-0

> <b_epik_Metal_Only>
0

> <s_lp_Force_Field>
OPLS_2005

> <r_lp_Energy>
22.567

> <b_lp_Chiralities_Consistent>
1

> <s_lp_Variant>
AV-unprocessed.smi:1844-4

> <Gold.Version>
5.8.1

> <Gold.Id.Protein>
6NUR|6NUR_protein|mol2

> <Gold.PLP.Fitness>
46.9840

> <Gold.PLP.PLP>
-38.8008

> <Gold.PLP.part.hbond>
-3.0000

> <Gold.PLP.part.metal>
0.0000

> <Gold.PLP.part.buried>
-4.9562

> <Gold.PLP.part.nonpolar>
-31.3924

> <Gold.PLP.part.repulsive>
0.1656

> <Gold.PLP.ligand.clash>
0.0000

> <Gold.PLP.ligand.torsion>
0.2259

> <Gold.PLP.Chemscore.Hbond>
2.8560

> <Gold.PLP.Chemscore.CHOScore>
0.0000

> <Gold.PLP.Chemscore.Metal>
0.0000

> <Gold.Chemscore.Hbonds>
donor molecule, donor type, donor heavy atom, donor atom, acceptor molecule, acceptor atom, score
      P1  H  6931  6943       L1     4  0.98
      P1  H  6934  6947       L1     4  0.86
      P1  H  7997  8009       L1    13  1.00

> <Gold.PLP.Chemscore.Internal.Correction>
0.0670

> <Gold.Rescore>
     Score         DG    S(hbond)    S(metal)    S(lipo)     H(rot)  DE(clash)    DE(int)     intcor
     24.75     -25.39       3.67        0.00      98.02       1.49       0.13       0.50       ----

> <Gold.Chemscore.Fitness>
24.7543

> <Gold.Chemscore.DG>
-25.3876

> <Gold.Chemscore.ZeroCoef>
-5.4800

> <Gold.Chemscore.Hbond>
3.6705

> <Gold.Chemscore.Metal>
0.0000

> <Gold.Chemscore.Lipo>
98.0201

> <Gold.Chemscore.Internal_Hbond>
0.0000

> <Gold.Chemscore.DEClash>
0.1318

> <Gold.Chemscore.DEInternal>
0.5015

> <Gold.Chemscore.Rot>
1.4923

> <Gold.Chemscore.Internal.Correction>
   9.000000E+99

> <Gold.Chemscore.Hbonds>
donor molecule, donor type, donor heavy atom, donor atom, acceptor molecule, acceptor atom, score
      P1  H  6931  6943       L1     4  0.93
      P1  H  6934  6947       L1     4  0.76
      P1  H  7997  8009       L1    13  0.96

> <Gold.Chemscore.Hbond.Weighted>
-12.2596

> <Gold.Chemscore.Metal.Weighted>
-0.0000

> <Gold.Chemscore.Lipo.Weighted>
-11.4684

> <Gold.Chemscore.Internal_Hbond.Weighted>
0.0000

> <Gold.Chemscore.DEClash.Weighted>
0.1318

> <Gold.Chemscore.DEInternal.Weighted>
0.5015

> <Gold.Chemscore.Rot.Weighted>
3.8204

> <Gold.Chemscore.Internal.Correction.Weighted>
   9.000000E+99

> <Gold.Protein.RotatedTorsions>
[ 6907 6896 6895 6894 ] final  141.45 input  -60.11 | X-H torsion
[ 7974 7965 7964 7962 ] final  -28.50 input  175.53 | X-H torsion
[ 8008 7997 7996 7995 ] final -172.50 input   59.86 | X-H torsion
[ 10167 10162 10161 10158 ] final -161.67 input  -65.29 | X-H torsion
[ 10718 10713 10712 10709 ] final  159.19 input   66.30 | X-H torsion
[ 10763 10752 10751 10750 ] final -138.94 input  -60.55 | X-H torsion
[ 11005 11000 10999 10996 ] final -141.64 input  -57.11 | X-H torsion

> <Gold.Protein.ActiveResidues>
 VAL166  LYS551  ARG553  GLY616  TRP617  ASP618  TYR619  PRO620  LYS621  CYS622 
 ASP623  PHE694  ASN695  SER759  ASP760  ASP761  ALA762  ILE779  LEU786  VAL792 
 PHE793  MET794  SER795  GLU796  ALA797  LYS798  CYS799  TRP800  GLU811  SER814 

> <Gold.Protein.RotatedAtoms>
  152.2308  133.5057  159.5214 H   0  0  0  0  0  0  0  0  0  0  0  0  # atno 6907 bound_to 6896
  150.7037  134.1218  159.4046 H   0  0  0  0  0  0  0  0  0  0  0  0  # atno 6908 bound_to 6896
  151.9139  135.0327  160.0567 H   0  0  0  0  0  0  0  0  0  0  0  0  # atno 6909 bound_to 6896
  146.1284  140.5290  142.8704 H   0  0  0  0  0  0  0  0  0  0  0  0  # atno 7974 bound_to 7965
  155.9454  140.1116  157.1021 H   0  0  0  0  0  0  0  0  0  0  0  0  # atno 8008 bound_to 7997
  154.4098  140.1211  156.5048 H   0  0  0  0  0  0  0  0  0  0  0  0  # atno 8009 bound_to 7997
  155.6909  140.3472  155.4895 H   0  0  0  0  0  0  0  0  0  0  0  0  # atno 8010 bound_to 7997
  139.6448  144.0192  152.2119 H   0  0  0  0  0  0  0  0  0  0  0  0  # atno 10167 bound_to 10162
  157.1675  131.0602  151.2200 H   0  0  0  0  0  0  0  0  0  0  0  0  # atno 10718 bound_to 10713
  154.8623  135.3597  154.5466 H   0  0  0  0  0  0  0  0  0  0  0  0  # atno 10763 bound_to 10752
  153.6085  135.7010  153.5361 H   0  0  0  0  0  0  0  0  0  0  0  0  # atno 10764 bound_to 10752
  153.3229  135.4146  155.1393 H   0  0  0  0  0  0  0  0  0  0  0  0  # atno 10765 bound_to 10752
  140.8304  134.2523  157.4859 H   0  0  0  0  0  0  0  0  0  0  0  0  # atno 11005 bound_to 11000
  144.7665  140.5542  143.6699 LP  0  0  0  0  0  0  0  0  0  0  0  0  # atno 17320 bound_to 7965
  145.5315  139.1475  143.3497 LP  0  0  0  0  0  0  0  0  0  0  0  0  # atno 17321 bound_to 7965
  139.9891  144.6374  150.7831 LP  0  0  0  0  0  0  0  0  0  0  0  0  # atno 17342 bound_to 10162
  140.7509  143.2964  151.3195 LP  0  0  0  0  0  0  0  0  0  0  0  0  # atno 17343 bound_to 10162
  157.4074  130.7366  149.6813 LP  0  0  0  0  0  0  0  0  0  0  0  0  # atno 17370 bound_to 10713
  155.9743  130.4104  150.3930 LP  0  0  0  0  0  0  0  0  0  0  0  0  # atno 17371 bound_to 10713
  139.8705  134.9583  156.4296 LP  0  0  0  0  0  0  0  0  0  0  0  0  # atno 17394 bound_to 11000
  140.9004  133.7784  155.9673 LP  0  0  0  0  0  0  0  0  0  0  0  0  # atno 17395 bound_to 11000

$$$$
