AV-unprocessed.smi:1423|AV-procd|sdf|5796|dock9
  -GOLD-   22720 5443D 1   1.00000     0.00000
 Structure written by MMmdl.
 44 45  0  0  0  0  0  0  0  0  2 V2000
  152.3131  140.6097  158.3091 C   0  0  0  0  0  0  0  0  0  0  0  0
  152.5038  140.2717  156.9398 O   0  0  0  0  0  0  0  0  0  0  0  0
  151.4813  139.6254  156.2759 C   0  0  0  0  0  0  0  0  0  0  0  0
  150.4466  139.0440  157.0348 C   0  0  0  0  0  0  0  0  0  0  0  0
  149.4005  138.3797  156.3662 C   0  0  0  0  0  0  0  0  0  0  0  0
  149.4268  138.3100  154.9524 C   0  0  0  0  0  0  0  0  0  0  0  0
  148.4305  137.6807  154.1562 N   0  0  0  0  0  0  0  0  0  0  0  0
  147.1293  137.4861  154.4322 C   0  0  0  0  0  0  0  0  0  0  0  0
  146.5596  137.8273  155.4679 O   0  0  0  0  0  0  0  0  0  0  0  0
  146.5116  136.8450  153.4292 N   0  0  0  0  0  0  0  0  0  0  0  0
  145.0924  136.4907  153.4021 C   0  0  2  0  0  0  0  0  0  0  0  0
  144.8544  135.0264  153.8236 C   0  0  0  0  0  0  0  0  0  0  0  0
  145.3386  134.0317  152.7547 C   0  0  0  0  0  0  0  0  0  0  0  0
  144.7004  134.3087  151.4403 N   0  3  2  0  0  0  0  0  0  0  0  0
  145.0185  133.2872  150.4092 C   0  0  0  0  0  0  0  0  0  0  0  0
  144.0675  132.0858  150.4393 C   0  0  0  0  0  0  0  0  0  0  0  0
  142.7767  132.3350  150.2076 N   0  0  0  0  0  0  0  0  0  0  0  0
  144.4827  130.9539  150.6814 O   0  0  0  0  0  0  0  0  0  0  0  0
  144.9851  135.6907  150.9775 C   0  0  0  0  0  0  0  0  0  0  0  0
  144.5007  136.7331  152.0023 C   0  0  0  0  0  0  0  0  0  0  0  0
  150.5009  138.9368  154.2867 C   0  0  0  0  0  0  0  0  0  0  0  0
  151.5062  139.5755  154.9211 N   0  0  0  0  0  0  0  0  0  0  0  0
  153.2009  141.1209  158.6810 H   0  0  0  0  0  0  0  0  0  0  0  0
  152.1628  139.7195  158.9215 H   0  0  0  0  0  0  0  0  0  0  0  0
  151.4647  141.2825  158.4410 H   0  0  0  0  0  0  0  0  0  0  0  0
  150.4533  139.1094  158.1127 H   0  0  0  0  0  0  0  0  0  0  0  0
  148.6021  137.9521  156.9516 H   0  0  0  0  0  0  0  0  0  0  0  0
  148.7622  137.2870  153.2880 H   0  0  0  0  0  0  0  0  0  0  0  0
  147.0586  136.6037  152.6158 H   0  0  0  0  0  0  0  0  0  0  0  0
  144.5729  137.1461  154.1038 H   0  0  0  0  0  0  0  0  0  0  0  0
  145.3382  134.8150  154.7779 H   0  0  0  0  0  0  0  0  0  0  0  0
  143.7872  134.8736  153.9901 H   0  0  0  0  0  0  0  0  0  0  0  0
  146.4239  134.0831  152.6543 H   0  0  0  0  0  0  0  0  0  0  0  0
  145.1033  133.0183  153.0810 H   0  0  0  0  0  0  0  0  0  0  0  0
  144.9296  133.7283  149.4155 H   0  0  0  0  0  0  0  0  0  0  0  0
  146.0538  132.9580  150.5141 H   0  0  0  0  0  0  0  0  0  0  0  0
  142.1046  131.5811  150.2100 H   0  0  0  0  0  0  0  0  0  0  0  0
  142.4742  133.2815  150.0246 H   0  0  0  0  0  0  0  0  0  0  0  0
  146.0553  135.8017  150.7958 H   0  0  0  0  0  0  0  0  0  0  0  0
  144.4833  135.8707  150.0261 H   0  0  0  0  0  0  0  0  0  0  0  0
  143.4125  136.6881  152.0640 H   0  0  0  0  0  0  0  0  0  0  0  0
  144.7418  137.7397  151.6580 H   0  0  0  0  0  0  0  0  0  0  0  0
  150.5600  138.9228  153.2080 H   0  0  0  0  0  0  0  0  0  0  0  0
  143.7012  134.2573  151.5821 H   0  0  0  0  0  0  0  0  0  0  0  0
  1  2  1  0  0  0  0
  1 23  1  0  0  0  0
  1 24  1  0  0  0  0
  1 25  1  0  0  0  0
  2  3  1  0  0  0  0
  3 22  1  0  0  0  0
  3  4  2  0  0  0  0
  4  5  1  0  0  0  0
  4 26  1  0  0  0  0
  5  6  2  0  0  0  0
  5 27  1  0  0  0  0
  6  7  1  0  0  0  0
  6 21  1  0  0  0  0
  7  8  1  0  0  0  0
  7 28  1  0  0  0  0
  8  9  2  0  0  0  0
  8 10  1  0  0  0  0
 10 11  1  0  0  0  0
 10 29  1  0  0  0  0
 11 20  1  0  0  0  0
 11 12  1  0  0  0  0
 11 30  1  0  0  0  0
 12 13  1  0  0  0  0
 12 31  1  0  0  0  0
 12 32  1  0  0  0  0
 13 14  1  0  0  0  0
 13 33  1  0  0  0  0
 13 34  1  0  0  0  0
 14 15  1  0  0  0  0
 14 19  1  0  0  0  0
 14 44  1  0  0  0  0
 15 16  1  0  0  0  0
 15 35  1  0  0  0  0
 15 36  1  0  0  0  0
 16 17  1  0  0  0  0
 16 18  2  0  0  0  0
 17 37  1  0  0  0  0
 17 38  1  0  0  0  0
 19 20  1  0  0  0  0
 19 39  1  0  0  0  0
 19 40  1  0  0  0  0
 20 41  1  0  0  0  0
 20 42  1  0  0  0  0
 21 22  2  0  0  0  0
 21 43  1  0  0  0  0
M  CHG  1  14   1
M  END
> <s_m_source_file>
AV-unprocessed.smi

> <i_m_source_file_index>
1423

> <i_lp_mmshare_version>
43012

> <i_f3d_flags>
0

> <s_epik_input>
W0NIM11PYzFbY0hdW2NIXWMoW2NIXW4xKVtOSF1DKD1PKVtOSF1bQ0hdMltDSDJdW0NIMl1OKFtDSDJdW0NIMl0yKVtDSDJdQyg9TylbTkgyXQ==

> <s_epik_cmdline>
J2VwaWtfcHl0aG9uJywgJy1waCcsICc3LjAnLCAnLXRuJywgJzgnLCAnLW1hJywgJzIwMCcsICctbWV0YWxfYmluZGluZycsICctaW1hZScsICc8aW5maWxlLm1hZT4nLCAnLW9tYWUnLCAnPG91dGZpbGUubWFlPic=

> <r_lp_tautomer_probability>
1

> <r_epik_Ionization_Penalty>
0.838963

> <r_epik_Ionization_Penalty_Charging>
0.838844

> <r_epik_Ionization_Penalty_Neutral>
0.0001192

> <r_epik_State_Penalty>
0.8734

> <r_epik_Charging_Adjusted_Penalty>
1.71224

> <i_epik_Tot_Q>
1

> <i_epik_Tot_abs_Q>
1

> <r_epik_Metal_State_Penalty>
0.890706

> <b_epik_Metal_Only>
0

> <s_lp_Force_Field>
OPLS_2005

> <r_lp_Energy>
16.4792

> <b_lp_Chiralities_Consistent>
1

> <s_lp_Variant>
AV-unprocessed.smi:1423-3

> <Gold.Version>
5.8.1

> <Gold.Id.Protein>
6NUR|6NUR_protein|mol2

> <Gold.PLP.Fitness>
44.5543

> <Gold.PLP.PLP>
-27.2340

> <Gold.PLP.part.hbond>
-7.0000

> <Gold.PLP.part.metal>
0.0000

> <Gold.PLP.part.buried>
-0.9512

> <Gold.PLP.part.nonpolar>
-18.7241

> <Gold.PLP.part.repulsive>
0.2946

> <Gold.PLP.ligand.clash>
0.0212

> <Gold.PLP.ligand.torsion>
1.0265

> <Gold.PLP.Chemscore.Hbond>
5.4570

> <Gold.PLP.Chemscore.CHOScore>
1.0000

> <Gold.PLP.Chemscore.Metal>
0.0000

> <Gold.Chemscore.Hbonds>
donor molecule, donor type, donor heavy atom, donor atom, acceptor molecule, acceptor atom, score
      L1  H     7    28       P1  7948  1.00
      L1  H    10    29       P1  7948  0.86
      L1  H    17    37       P1 10952  1.00
      L1  H    17    38       P1 10186  0.91
      P1  H  7989  7998       L1    22  0.60
      P1  H  7997  8010       L1     2  1.00
      L1  C    21    43       P1  7957  1.00

> <Gold.PLP.Chemscore.Internal.Correction>
0.0234

> <Gold.Rescore>
     Score         DG    S(hbond)    S(metal)    S(lipo)     H(rot)  DE(clash)    DE(int)     intcor
     18.16     -20.54       4.47        0.00      52.20       2.33       1.16       1.23       ----

> <Gold.Chemscore.Fitness>
18.1577

> <Gold.Chemscore.DG>
-20.5448

> <Gold.Chemscore.ZeroCoef>
-5.4800

> <Gold.Chemscore.Hbond>
4.4654

> <Gold.Chemscore.Metal>
0.0000

> <Gold.Chemscore.Lipo>
52.2026

> <Gold.Chemscore.Internal_Hbond>
0.0000

> <Gold.Chemscore.DEClash>
1.1618

> <Gold.Chemscore.DEInternal>
1.2254

> <Gold.Chemscore.Rot>
2.3271

> <Gold.Chemscore.Internal.Correction>
   9.000000E+99

> <Gold.Chemscore.Hbonds>
donor molecule, donor type, donor heavy atom, donor atom, acceptor molecule, acceptor atom, score
      L1  H     7    28       P1  7948  1.00
      L1  H    10    29       P1  7948  0.81
      L1  H    17    37       P1 10952  0.70
      L1  H    17    38       P1 10186  0.89
      P1  H  7989  7998       L1    22  0.04
      P1  H  7997  8010       L1     2  0.67

> <Gold.Chemscore.Hbond.Weighted>
-14.9145

> <Gold.Chemscore.Metal.Weighted>
-0.0000

> <Gold.Chemscore.Lipo.Weighted>
-6.1077

> <Gold.Chemscore.Internal_Hbond.Weighted>
0.0000

> <Gold.Chemscore.DEClash.Weighted>
1.1618

> <Gold.Chemscore.DEInternal.Weighted>
1.2254

> <Gold.Chemscore.Rot.Weighted>
5.9573

> <Gold.Chemscore.Internal.Correction.Weighted>
   9.000000E+99

> <Gold.Protein.RotatedTorsions>
[ 6907 6896 6895 6894 ] final -126.04 input  -60.11 | X-H torsion
[ 7974 7965 7964 7962 ] final  105.54 input  175.53 | X-H torsion
[ 8008 7997 7996 7995 ] final   62.12 input   59.86 | X-H torsion
[ 10167 10162 10161 10158 ] final  -16.72 input  -65.29 | X-H torsion
[ 10718 10713 10712 10709 ] final -147.87 input   66.30 | X-H torsion
[ 10763 10752 10751 10750 ] final  -39.68 input  -60.55 | X-H torsion
[ 11005 11000 10999 10996 ] final   92.64 input  -57.11 | X-H torsion

> <Gold.Protein.ActiveResidues>
 VAL166  LYS551  ARG553  GLY616  TRP617  ASP618  TYR619  PRO620  LYS621  CYS622 
 ASP623  PHE694  ASN695  SER759  ASP760  ASP761  ALA762  ILE779  LEU786  VAL792 
 PHE793  MET794  SER795  GLU796  ALA797  LYS798  CYS799  TRP800  GLU811  SER814 

> <Gold.Protein.RotatedAtoms>
  150.8928  133.7220  159.2899 H   0  0  0  0  0  0  0  0  0  0  0  0  # atno 6907 bound_to 6896
  151.4765  135.1048  159.9775 H   0  0  0  0  0  0  0  0  0  0  0  0  # atno 6908 bound_to 6896
  152.4830  133.8256  159.7131 H   0  0  0  0  0  0  0  0  0  0  0  0  # atno 6909 bound_to 6896
  145.3183  139.2520  143.3725 H   0  0  0  0  0  0  0  0  0  0  0  0  # atno 7974 bound_to 7965
  155.6092  140.3495  155.4617 H   0  0  0  0  0  0  0  0  0  0  0  0  # atno 8008 bound_to 7997
  156.0167  140.1245  157.0423 H   0  0  0  0  0  0  0  0  0  0  0  0  # atno 8009 bound_to 7997
  154.4300  140.1070  156.5892 H   0  0  0  0  0  0  0  0  0  0  0  0  # atno 8010 bound_to 7997
  140.7238  143.5087  150.9777 H   0  0  0  0  0  0  0  0  0  0  0  0  # atno 10167 bound_to 10162
  156.4130  130.7991  151.2209 H   0  0  0  0  0  0  0  0  0  0  0  0  # atno 10718 bound_to 10713
  153.9333  135.6769  153.4745 H   0  0  0  0  0  0  0  0  0  0  0  0  # atno 10763 bound_to 10752
  153.0968  135.4847  154.8791 H   0  0  0  0  0  0  0  0  0  0  0  0  # atno 10764 bound_to 10752
  154.7416  135.3162  154.8675 H   0  0  0  0  0  0  0  0  0  0  0  0  # atno 10765 bound_to 10752
  139.8821  134.8744  156.3601 H   0  0  0  0  0  0  0  0  0  0  0  0  # atno 11005 bound_to 11000
  146.3092  140.3735  142.8676 LP  0  0  0  0  0  0  0  0  0  0  0  0  # atno 17320 bound_to 7965
  144.8959  140.7583  143.5897 LP  0  0  0  0  0  0  0  0  0  0  0  0  # atno 17321 bound_to 7965
  139.8800  143.7084  152.3158 LP  0  0  0  0  0  0  0  0  0  0  0  0  # atno 17342 bound_to 10162
  139.7363  144.7570  151.0722 LP  0  0  0  0  0  0  0  0  0  0  0  0  # atno 17343 bound_to 10162
  157.7507  131.0252  150.3907 LP  0  0  0  0  0  0  0  0  0  0  0  0  # atno 17370 bound_to 10713
  156.4209  130.3953  149.6825 LP  0  0  0  0  0  0  0  0  0  0  0  0  # atno 17371 bound_to 10713
  140.9535  133.7435  156.0304 LP  0  0  0  0  0  0  0  0  0  0  0  0  # atno 17394 bound_to 11000
  140.8077  134.3436  157.5421 LP  0  0  0  0  0  0  0  0  0  0  0  0  # atno 17395 bound_to 11000

$$$$
