AV-unprocessed.smi:258|AV-procd|sdf|1971|dock4
  -GOLD-   2262021133D 1   1.00000     0.00000
 Structure written by MMmdl.
 57 60  0  0  0  0  0  0  0  0  1 V2000
  151.7711  142.7936  162.3540 O   0  0  0  0  0  0  0  0  0  0  0  0
  153.1570  142.5458  162.4586 C   0  0  0  0  0  0  0  0  0  0  0  0
  153.6973  141.9987  161.1318 C   0  0  0  0  0  0  0  0  0  0  0  0
  152.6375  141.3646  160.4302 O   0  0  0  0  0  0  0  0  0  0  0  0
  152.5514  141.7060  159.0528 C   0  0  2  0  0  0  0  0  0  0  0  0
  151.8381  143.0595  158.8605 C   0  0  0  0  0  0  0  0  0  0  0  0
  151.6146  143.3354  157.3662 C   0  0  0  0  0  0  0  0  0  0  0  0
  150.8486  142.1810  156.7017 C   0  0  0  0  0  0  0  0  0  0  0  0
  151.5157  140.9040  156.9469 N   0  0  0  0  0  0  0  0  0  0  0  0
  151.2215  139.8471  156.1460 C   0  0  0  0  0  0  0  0  0  0  0  0
  150.9831  140.1110  154.8345 N   0  0  0  0  0  0  0  0  0  0  0  0
  150.6857  139.1242  153.9848 C   0  0  0  0  0  0  0  0  0  0  0  0
  150.5786  137.8179  154.2294 N   0  0  0  0  0  0  0  0  0  0  0  0
  150.8198  137.5411  155.5423 C   0  0  0  0  0  0  0  0  0  0  0  0
  151.1407  138.4832  156.5628 C   0  0  0  0  0  0  0  0  0  0  0  0
  151.3204  137.8138  157.7699 N   0  0  0  0  0  0  0  0  0  0  0  0
  151.1147  136.5583  157.4809 C   0  0  0  0  0  0  0  0  0  0  0  0
  150.8180  136.3048  156.1621 N   0  0  0  0  0  0  0  0  0  0  0  0
  150.5587  135.0095  155.5596 C   0  0  0  0  0  0  0  0  0  0  0  0
  149.2051  134.3853  155.9838 C   0  0  1  0  0  0  0  0  0  0  0  0
  147.9839  135.2024  155.4868 C   0  0  0  0  0  0  0  0  0  0  0  0
  148.0191  135.3931  154.0874 O   0  0  0  0  0  0  0  0  0  0  0  0
  149.1687  132.8919  155.5665 C   0  0  1  0  0  0  0  0  0  0  0  0
  149.1734  132.6085  154.0752 C   0  0  0  0  0  0  0  0  0  0  0  0
  149.5026  131.1186  154.0499 C   0  0  0  0  0  0  0  0  0  0  0  0
  150.3378  130.8833  155.1810 O   0  0  0  0  0  0  0  0  0  0  0  0
  150.3274  132.0142  156.0482 C   0  0  0  0  0  0  0  0  0  0  0  0
  151.7665  140.5821  158.3531 C   0  0  0  0  0  0  0  0  0  0  0  0
  151.6454  143.6986  162.1138 H   0  0  0  0  0  0  0  0  0  0  0  0
  153.6442  143.4927  162.6935 H   0  0  0  0  0  0  0  0  0  0  0  0
  153.3627  141.8631  163.2836 H   0  0  0  0  0  0  0  0  0  0  0  0
  154.1650  142.7913  160.5473 H   0  0  0  0  0  0  0  0  0  0  0  0
  154.4671  141.2550  161.3422 H   0  0  0  0  0  0  0  0  0  0  0  0
  153.5508  141.7485  158.6152 H   0  0  0  0  0  0  0  0  0  0  0  0
  150.8781  143.0475  159.3782 H   0  0  0  0  0  0  0  0  0  0  0  0
  152.4183  143.8726  159.2962 H   0  0  0  0  0  0  0  0  0  0  0  0
  151.0681  144.2694  157.2349 H   0  0  0  0  0  0  0  0  0  0  0  0
  152.5776  143.4668  156.8712 H   0  0  0  0  0  0  0  0  0  0  0  0
  149.8334  142.1373  157.0978 H   0  0  0  0  0  0  0  0  0  0  0  0
  150.7753  142.3678  155.6296 H   0  0  0  0  0  0  0  0  0  0  0  0
  150.5098  139.4244  152.9623 H   0  0  0  0  0  0  0  0  0  0  0  0
  151.1868  135.7772  158.2235 H   0  0  0  0  0  0  0  0  0  0  0  0
  150.5994  135.1202  154.4754 H   0  0  0  0  0  0  0  0  0  0  0  0
  151.3823  134.3484  155.8323 H   0  0  0  0  0  0  0  0  0  0  0  0
  149.1759  134.3856  157.0746 H   0  0  0  0  0  0  0  0  0  0  0  0
  147.0503  134.7091  155.7586 H   0  0  0  0  0  0  0  0  0  0  0  0
  147.9539  136.1940  155.9337 H   0  0  0  0  0  0  0  0  0  0  0  0
  147.4004  134.8016  153.6867 H   0  0  0  0  0  0  0  0  0  0  0  0
  148.2456  132.4576  155.9546 H   0  0  0  0  0  0  0  0  0  0  0  0
  148.2219  132.8376  153.5946 H   0  0  0  0  0  0  0  0  0  0  0  0
  149.9551  133.1622  153.5575 H   0  0  0  0  0  0  0  0  0  0  0  0
  148.5930  130.5273  154.1622 H   0  0  0  0  0  0  0  0  0  0  0  0
  149.9902  130.8149  153.1233 H   0  0  0  0  0  0  0  0  0  0  0  0
  151.2869  132.5208  155.9469 H   0  0  0  0  0  0  0  0  0  0  0  0
  150.2155  131.7116  157.0893 H   0  0  0  0  0  0  0  0  0  0  0  0
  152.3166  139.6466  158.4584 H   0  0  0  0  0  0  0  0  0  0  0  0
  150.8057  140.4358  158.8488 H   0  0  0  0  0  0  0  0  0  0  0  0
  1  2  1  0  0  0  0
  1 29  1  0  0  0  0
  2  3  1  0  0  0  0
  2 30  1  0  0  0  0
  2 31  1  0  0  0  0
  3  4  1  0  0  0  0
  3 32  1  0  0  0  0
  3 33  1  0  0  0  0
  4  5  1  0  0  0  0
  5 28  1  0  0  0  0
  5  6  1  0  0  0  0
  5 34  1  0  0  0  0
  6  7  1  0  0  0  0
  6 35  1  0  0  0  0
  6 36  1  0  0  0  0
  7  8  1  0  0  0  0
  7 37  1  0  0  0  0
  7 38  1  0  0  0  0
  8  9  1  0  0  0  0
  8 39  1  0  0  0  0
  8 40  1  0  0  0  0
  9 10  1  0  0  0  0
  9 28  1  0  0  0  0
 10 15  1  0  0  0  0
 10 11  2  0  0  0  0
 11 12  1  0  0  0  0
 12 13  2  0  0  0  0
 12 41  1  0  0  0  0
 13 14  1  0  0  0  0
 14 18  1  0  0  0  0
 14 15  2  0  0  0  0
 15 16  1  0  0  0  0
 16 17  2  0  0  0  0
 17 18  1  0  0  0  0
 17 42  1  0  0  0  0
 18 19  1  0  0  0  0
 19 20  1  0  0  0  0
 19 43  1  0  0  0  0
 19 44  1  0  0  0  0
 20 21  1  0  0  0  0
 20 23  1  0  0  0  0
 20 45  1  0  0  0  0
 21 22  1  0  0  0  0
 21 46  1  0  0  0  0
 21 47  1  0  0  0  0
 22 48  1  0  0  0  0
 23 27  1  0  0  0  0
 23 24  1  0  0  0  0
 23 49  1  0  0  0  0
 24 25  1  0  0  0  0
 24 50  1  0  0  0  0
 24 51  1  0  0  0  0
 25 26  1  0  0  0  0
 25 52  1  0  0  0  0
 25 53  1  0  0  0  0
 26 27  1  0  0  0  0
 27 54  1  0  0  0  0
 27 55  1  0  0  0  0
 28 56  1  0  0  0  0
 28 57  1  0  0  0  0
M  END
> <s_m_source_file>
AV-unprocessed.smi

> <i_m_source_file_index>
258

> <i_lp_mmshare_version>
43012

> <i_f3d_flags>
0

> <s_epik_input>
W09IXVtDSDJdW0NIMl1PW0NAQEhdMVtDSDJdW0NIMl1bQ0gyXU4oW0NIMl0xKWMobltjSF1uMiljKGMyMyluW2NIXW4zW0NIMl1bQ0BIXShbQ0gyXVtPSF0pW0NAQEhdNFtDSDJdW0NIMl1PW0NIMl00

> <s_epik_cmdline>
J2VwaWtfcHl0aG9uJywgJy1waCcsICc3LjAnLCAnLXRuJywgJzgnLCAnLW1hJywgJzIwMCcsICctbWV0YWxfYmluZGluZycsICctaW1hZScsICc8aW5maWxlLm1hZT4nLCAnLW9tYWUnLCAnPG91dGZpbGUubWFlPic=

> <r_lp_tautomer_probability>
1

> <r_epik_Ionization_Penalty>
0.00349036

> <r_epik_Ionization_Penalty_Charging>
0

> <r_epik_Ionization_Penalty_Neutral>
0.00349036

> <r_epik_State_Penalty>
0.00229798

> <r_epik_Charging_Adjusted_Penalty>
0.00229798

> <i_epik_Tot_Q>
0

> <i_epik_Tot_abs_Q>
0

> <r_epik_Metal_State_Penalty>
-0

> <b_epik_Metal_Only>
0

> <s_lp_Force_Field>
OPLS_2005

> <r_lp_Energy>
47.622

> <b_lp_Chiralities_Consistent>
1

> <s_lp_Variant>
AV-unprocessed.smi:258-7

> <Gold.Version>
5.8.1

> <Gold.Id.Protein>
6NUR|6NUR_protein|mol2

> <Gold.PLP.Fitness>
49.4828

> <Gold.PLP.PLP>
-44.3129

> <Gold.PLP.part.hbond>
-4.0000

> <Gold.PLP.part.metal>
0.0000

> <Gold.PLP.part.buried>
-7.0570

> <Gold.PLP.part.nonpolar>
-33.8219

> <Gold.PLP.part.repulsive>
0.3096

> <Gold.PLP.ligand.clash>
0.0000

> <Gold.PLP.ligand.torsion>
1.3154

> <Gold.PLP.Chemscore.Hbond>
1.2920

> <Gold.PLP.Chemscore.CHOScore>
1.0000

> <Gold.PLP.Chemscore.Metal>
0.0000

> <Gold.Chemscore.Hbonds>
donor molecule, donor type, donor heavy atom, donor atom, acceptor molecule, acceptor atom, score
      P1  H  6933  6945       L1     1  1.00
      P1  H  7989  7998       L1    11  0.25
      L1  C    12    41       P1  7957  1.00

> <Gold.PLP.Chemscore.Internal.Correction>
0.9248

> <Gold.Rescore>
     Score         DG    S(hbond)    S(metal)    S(lipo)     H(rot)  DE(clash)    DE(int)     intcor
      5.09      -9.83       0.90        0.00     103.84       4.22       2.07       2.67       ----

> <Gold.Chemscore.Fitness>
5.0887

> <Gold.Chemscore.DG>
-9.8308

> <Gold.Chemscore.ZeroCoef>
-5.4800

> <Gold.Chemscore.Hbond>
0.9030

> <Gold.Chemscore.Metal>
0.0000

> <Gold.Chemscore.Lipo>
103.8429

> <Gold.Chemscore.Internal_Hbond>
0.0000

> <Gold.Chemscore.DEClash>
2.0689

> <Gold.Chemscore.DEInternal>
2.6731

> <Gold.Chemscore.Rot>
4.2246

> <Gold.Chemscore.Internal.Correction>
   9.000000E+99

> <Gold.Chemscore.Hbonds>
donor molecule, donor type, donor heavy atom, donor atom, acceptor molecule, acceptor atom, score
      P1  H  6933  6945       L1     1  0.71

> <Gold.Chemscore.Hbond.Weighted>
-3.0160

> <Gold.Chemscore.Metal.Weighted>
-0.0000

> <Gold.Chemscore.Lipo.Weighted>
-12.1496

> <Gold.Chemscore.Internal_Hbond.Weighted>
0.0000

> <Gold.Chemscore.DEClash.Weighted>
2.0689

> <Gold.Chemscore.DEInternal.Weighted>
2.6731

> <Gold.Chemscore.Rot.Weighted>
10.8149

> <Gold.Chemscore.Internal.Correction.Weighted>
   9.000000E+99

> <Gold.Protein.RotatedTorsions>
[ 6907 6896 6895 6894 ] final  104.72 input  -60.11 | X-H torsion
[ 7974 7965 7964 7962 ] final   53.48 input  175.53 | X-H torsion
[ 8008 7997 7996 7995 ] final  -84.78 input   59.86 | X-H torsion
[ 10167 10162 10161 10158 ] final  -98.11 input  -65.29 | X-H torsion
[ 10718 10713 10712 10709 ] final  150.03 input   66.30 | X-H torsion
[ 10763 10752 10751 10750 ] final  134.21 input  -60.55 | X-H torsion
[ 11005 11000 10999 10996 ] final -126.64 input  -57.11 | X-H torsion

> <Gold.Protein.ActiveResidues>
 VAL166  LYS551  ARG553  GLY616  TRP617  ASP618  TYR619  PRO620  LYS621  CYS622 
 ASP623  PHE694  ASN695  SER759  ASP760  ASP761  ALA762  ILE779  LEU786  VAL792 
 PHE793  MET794  SER795  GLU796  ALA797  LYS798  CYS799  TRP800  GLU811  SER814 

> <Gold.Protein.RotatedAtoms>
  152.5255  133.9635  159.7728 H   0  0  0  0  0  0  0  0  0  0  0  0  # atno 6907 bound_to 6896
  150.9921  133.6131  159.2714 H   0  0  0  0  0  0  0  0  0  0  0  0  # atno 6908 bound_to 6896
  151.3270  135.0838  159.9378 H   0  0  0  0  0  0  0  0  0  0  0  0  # atno 6909 bound_to 6896
  145.9707  139.4146  143.0192 H   0  0  0  0  0  0  0  0  0  0  0  0  # atno 7974 bound_to 7965
  154.6335  140.0600  156.9761 H   0  0  0  0  0  0  0  0  0  0  0  0  # atno 8008 bound_to 7997
  155.1628  140.3284  155.4389 H   0  0  0  0  0  0  0  0  0  0  0  0  # atno 8009 bound_to 7997
  156.2495  140.1928  156.6734 H   0  0  0  0  0  0  0  0  0  0  0  0  # atno 8010 bound_to 7997
  140.2764  143.3310  152.0484 H   0  0  0  0  0  0  0  0  0  0  0  0  # atno 10167 bound_to 10162
  157.2887  131.0849  151.1478 H   0  0  0  0  0  0  0  0  0  0  0  0  # atno 10718 bound_to 10713
  153.8198  135.3118  155.3409 H   0  0  0  0  0  0  0  0  0  0  0  0  # atno 10763 bound_to 10752
  154.8017  135.4722  154.0296 H   0  0  0  0  0  0  0  0  0  0  0  0  # atno 10764 bound_to 10752
  153.1701  135.6876  153.8710 H   0  0  0  0  0  0  0  0  0  0  0  0  # atno 10765 bound_to 10752
  140.9664  134.0865  157.3915 H   0  0  0  0  0  0  0  0  0  0  0  0  # atno 11005 bound_to 11000
  145.7910  140.9814  143.1049 LP  0  0  0  0  0  0  0  0  0  0  0  0  # atno 17320 bound_to 7965
  144.6836  139.9682  143.7481 LP  0  0  0  0  0  0  0  0  0  0  0  0  # atno 17321 bound_to 7965
  139.4974  144.6622  151.6439 LP  0  0  0  0  0  0  0  0  0  0  0  0  # atno 17342 bound_to 10162
  140.5848  143.9883  150.6289 LP  0  0  0  0  0  0  0  0  0  0  0  0  # atno 17343 bound_to 10162
  157.2883  130.6784  149.6101 LP  0  0  0  0  0  0  0  0  0  0  0  0  # atno 17370 bound_to 10713
  155.9666  130.4428  150.5397 LP  0  0  0  0  0  0  0  0  0  0  0  0  # atno 17371 bound_to 10713
  139.8896  135.0106  156.6689 LP  0  0  0  0  0  0  0  0  0  0  0  0  # atno 17394 bound_to 11000
  140.7392  133.8992  155.8266 LP  0  0  0  0  0  0  0  0  0  0  0  0  # atno 17395 bound_to 11000

$$$$
