AV-unprocessed.smi:1720|AV-procd|sdf|6931|dock9
  -GOLD-   22720 8143D 1   1.00000     0.00000
 Structure written by MMmdl.
 32 33  0  0  0  0  0  0  0  0  1 V2000
  151.7931  145.6964  159.7896 C   0  0  0  0  0  0  0  0  0  0  0  0
  152.2902  144.3415  159.2627 C   0  0  2  0  0  0  0  0  0  0  0  0
  151.4458  143.9434  158.1382 N   0  0  0  0  0  0  0  0  0  0  0  0
  151.3552  142.7064  157.6287 C   0  0  0  0  0  0  0  0  0  0  0  0
  151.9917  141.7425  158.0549 O   0  0  0  0  0  0  0  0  0  0  0  0
  150.4863  142.6648  156.6054 N   0  0  0  0  0  0  0  0  0  0  0  0
  150.1225  141.5350  155.8298 C   0  0  0  0  0  0  0  0  0  0  0  0
  149.0805  141.5183  154.8632 C   0  0  0  0  0  0  0  0  0  0  0  0
  148.9671  140.3262  154.2949 N   0  0  0  0  0  0  0  0  0  0  0  0
  149.9271  139.5822  154.8894 N   0  0  0  0  0  0  0  0  0  0  0  0
  150.6552  140.2762  155.8303 C   0  0  0  0  0  0  0  0  0  0  0  0
  152.2680  143.2473  160.3504 C   0  0  2  0  0  0  0  0  0  0  0  0
  152.5331  143.7507  161.7699 C   0  0  0  0  0  0  0  0  0  0  0  0
  153.0625  142.5226  162.4928 C   0  0  0  0  0  0  0  0  0  0  0  0
  153.4554  141.5661  161.3638 C   0  0  0  0  0  0  0  0  0  0  0  0
  153.3345  142.3277  160.1708 O   0  0  0  0  0  0  0  0  0  0  0  0
  150.0714  138.6128  154.6451 H   0  0  0  0  0  0  0  0  0  0  0  0
  152.4307  146.0699  160.5910 H   0  0  0  0  0  0  0  0  0  0  0  0
  150.7772  145.6228  160.1793 H   0  0  0  0  0  0  0  0  0  0  0  0
  151.7936  146.4480  158.9996 H   0  0  0  0  0  0  0  0  0  0  0  0
  153.3175  144.4777  158.9198 H   0  0  0  0  0  0  0  0  0  0  0  0
  150.8800  144.6678  157.7215 H   0  0  0  0  0  0  0  0  0  0  0  0
  150.0324  143.5319  156.3587 H   0  0  0  0  0  0  0  0  0  0  0  0
  148.4161  142.3147  154.5615 H   0  0  0  0  0  0  0  0  0  0  0  0
  151.4575  139.8211  156.3921 H   0  0  0  0  0  0  0  0  0  0  0  0
  151.3234  142.7002  160.3220 H   0  0  0  0  0  0  0  0  0  0  0  0
  153.3017  144.5248  161.7572 H   0  0  0  0  0  0  0  0  0  0  0  0
  151.6436  144.1676  162.2434 H   0  0  0  0  0  0  0  0  0  0  0  0
  153.9137  142.7771  163.1249 H   0  0  0  0  0  0  0  0  0  0  0  0
  152.2966  142.0724  163.1252 H   0  0  0  0  0  0  0  0  0  0  0  0
  154.4674  141.1771  161.4778 H   0  0  0  0  0  0  0  0  0  0  0  0
  152.7683  140.7199  161.3210 H   0  0  0  0  0  0  0  0  0  0  0  0
  1  2  1  0  0  0  0
  1 18  1  0  0  0  0
  1 19  1  0  0  0  0
  1 20  1  0  0  0  0
  2  3  1  0  0  0  0
  2 12  1  0  0  0  0
  2 21  1  0  0  0  0
  3  4  1  0  0  0  0
  3 22  1  0  0  0  0
  4  5  2  0  0  0  0
  4  6  1  0  0  0  0
  6  7  1  0  0  0  0
  6 23  1  0  0  0  0
  7 11  2  0  0  0  0
  7  8  1  0  0  0  0
  8  9  2  0  0  0  0
  8 24  1  0  0  0  0
  9 10  1  0  0  0  0
 10 17  1  0  0  0  0
 10 11  1  0  0  0  0
 11 25  1  0  0  0  0
 12 16  1  0  0  0  0
 12 13  1  0  0  0  0
 12 26  1  0  0  0  0
 13 14  1  0  0  0  0
 13 27  1  0  0  0  0
 13 28  1  0  0  0  0
 14 15  1  0  0  0  0
 14 29  1  0  0  0  0
 14 30  1  0  0  0  0
 15 16  1  0  0  0  0
 15 31  1  0  0  0  0
 15 32  1  0  0  0  0
M  END
> <s_m_source_file>
AV-unprocessed.smi

> <i_m_source_file_index>
1720

> <i_lp_mmshare_version>
43012

> <i_f3d_flags>
0

> <s_epik_input>
TzFbQ0gyXVtDSDJdW0NIMl1bQ0BIXTFbQ0BIXShbQ0gzXSlbTkhdQyg9TylbTkhdYzJbY0hdbltuSF1bY0hdMg==

> <s_epik_cmdline>
J2VwaWtfcHl0aG9uJywgJy1waCcsICc3LjAnLCAnLXRuJywgJzgnLCAnLW1hJywgJzIwMCcsICctbWV0YWxfYmluZGluZycsICctaW1hZScsICc8aW5maWxlLm1hZT4nLCAnLW9tYWUnLCAnPG91dGZpbGUubWFlPic=

> <r_lp_tautomer_probability>
1

> <r_epik_Ionization_Penalty>
4.95841e-05

> <r_epik_Ionization_Penalty_Charging>
0

> <r_epik_Ionization_Penalty_Neutral>
4.95841e-05

> <r_epik_State_Penalty>
-0

> <r_epik_Charging_Adjusted_Penalty>
0

> <i_epik_Tot_Q>
0

> <i_epik_Tot_abs_Q>
0

> <r_epik_Metal_State_Penalty>
-0

> <b_epik_Metal_Only>
0

> <s_lp_Force_Field>
OPLS_2005

> <r_lp_Energy>
20.531

> <b_lp_Chiralities_Consistent>
1

> <s_lp_Variant>
AV-unprocessed.smi:1720-1

> <Gold.Version>
5.8.1

> <Gold.Id.Protein>
6NUR|6NUR_protein|mol2

> <Gold.PLP.Fitness>
43.0585

> <Gold.PLP.PLP>
-39.9020

> <Gold.PLP.part.hbond>
-1.0000

> <Gold.PLP.part.metal>
0.0000

> <Gold.PLP.part.buried>
-4.5526

> <Gold.PLP.part.nonpolar>
-33.5682

> <Gold.PLP.part.repulsive>
0.9006

> <Gold.PLP.ligand.clash>
0.0000

> <Gold.PLP.ligand.torsion>
1.0200

> <Gold.PLP.Chemscore.Hbond>
1.0000

> <Gold.PLP.Chemscore.CHOScore>
0.7249

> <Gold.PLP.Chemscore.Metal>
0.0000

> <Gold.Chemscore.Hbonds>
donor molecule, donor type, donor heavy atom, donor atom, acceptor molecule, acceptor atom, score
      L1  H     6    23       P1  8028  1.00
      L1  C     8    24       P1  8028  0.50

> <Gold.PLP.Chemscore.Internal.Correction>
0.0218

> <Gold.Rescore>
     Score         DG    S(hbond)    S(metal)    S(lipo)     H(rot)  DE(clash)    DE(int)     intcor
     14.65     -18.73       1.92        0.00      86.90       1.31       0.07       4.01       ----

> <Gold.Chemscore.Fitness>
14.6478

> <Gold.Chemscore.DG>
-18.7253

> <Gold.Chemscore.ZeroCoef>
-5.4800

> <Gold.Chemscore.Hbond>
1.9242

> <Gold.Chemscore.Metal>
0.0000

> <Gold.Chemscore.Lipo>
86.8958

> <Gold.Chemscore.Internal_Hbond>
0.0000

> <Gold.Chemscore.DEClash>
0.0656

> <Gold.Chemscore.DEInternal>
4.0119

> <Gold.Chemscore.Rot>
1.3079

> <Gold.Chemscore.Internal.Correction>
   9.000000E+99

> <Gold.Chemscore.Hbonds>
donor molecule, donor type, donor heavy atom, donor atom, acceptor molecule, acceptor atom, score
      L1  H     6    23       P1  8028  1.00

> <Gold.Chemscore.Hbond.Weighted>
-6.4268

> <Gold.Chemscore.Metal.Weighted>
-0.0000

> <Gold.Chemscore.Lipo.Weighted>
-10.1668

> <Gold.Chemscore.Internal_Hbond.Weighted>
0.0000

> <Gold.Chemscore.DEClash.Weighted>
0.0656

> <Gold.Chemscore.DEInternal.Weighted>
4.0119

> <Gold.Chemscore.Rot.Weighted>
3.3483

> <Gold.Chemscore.Internal.Correction.Weighted>
   9.000000E+99

> <Gold.Protein.RotatedTorsions>
[ 6907 6896 6895 6894 ] final  -58.50 input  -60.11 | X-H torsion
[ 7974 7965 7964 7962 ] final  -27.49 input  175.53 | X-H torsion
[ 8008 7997 7996 7995 ] final  135.41 input   59.86 | X-H torsion
[ 10167 10162 10161 10158 ] final   55.53 input  -65.29 | X-H torsion
[ 10718 10713 10712 10709 ] final  -32.31 input   66.30 | X-H torsion
[ 10763 10752 10751 10750 ] final   -1.08 input  -60.55 | X-H torsion
[ 11005 11000 10999 10996 ] final -116.05 input  -57.11 | X-H torsion

> <Gold.Protein.ActiveResidues>
 VAL166  LYS551  ARG553  GLY616  TRP617  ASP618  TYR619  PRO620  LYS621  CYS622 
 ASP623  PHE694  ASN695  SER759  ASP760  ASP761  ALA762  ILE779  LEU786  VAL792 
 PHE793  MET794  SER795  GLU796  ALA797  LYS798  CYS799  TRP800  GLU811  SER814 

> <Gold.Protein.RotatedAtoms>
  150.8002  134.7091  159.6593 H   0  0  0  0  0  0  0  0  0  0  0  0  # atno 6907 bound_to 6896
  152.4119  134.6107  160.0034 H   0  0  0  0  0  0  0  0  0  0  0  0  # atno 6908 bound_to 6896
  151.6347  133.3292  159.3153 H   0  0  0  0  0  0  0  0  0  0  0  0  # atno 6909 bound_to 6896
  146.1354  140.5158  142.8675 H   0  0  0  0  0  0  0  0  0  0  0  0  # atno 7974 bound_to 7965
  156.3003  140.2471  156.3576 H   0  0  0  0  0  0  0  0  0  0  0  0  # atno 8008 bound_to 7997
  154.8907  140.0409  157.1856 H   0  0  0  0  0  0  0  0  0  0  0  0  # atno 8009 bound_to 7997
  154.8601  140.2919  155.5548 H   0  0  0  0  0  0  0  0  0  0  0  0  # atno 8010 bound_to 7997
  140.2185  144.3814  150.6460 H   0  0  0  0  0  0  0  0  0  0  0  0  # atno 10167 bound_to 10162
  156.3765  130.4348  149.7503 H   0  0  0  0  0  0  0  0  0  0  0  0  # atno 10718 bound_to 10713
  153.3402  135.6980  153.6873 H   0  0  0  0  0  0  0  0  0  0  0  0  # atno 10763 bound_to 10752
  153.5641  135.3529  155.2812 H   0  0  0  0  0  0  0  0  0  0  0  0  # atno 10764 bound_to 10752
  154.8635  135.4256  154.2613 H   0  0  0  0  0  0  0  0  0  0  0  0  # atno 10765 bound_to 10752
  141.0447  133.9780  157.2936 H   0  0  0  0  0  0  0  0  0  0  0  0  # atno 11005 bound_to 11000
  144.7734  140.5688  143.6654 LP  0  0  0  0  0  0  0  0  0  0  0  0  # atno 17320 bound_to 7965
  145.5167  139.1477  143.3575 LP  0  0  0  0  0  0  0  0  0  0  0  0  # atno 17321 bound_to 7965
  140.6272  143.2183  151.6571 LP  0  0  0  0  0  0  0  0  0  0  0  0  # atno 17342 bound_to 10162
  139.5153  144.3383  152.0763 LP  0  0  0  0  0  0  0  0  0  0  0  0  # atno 17343 bound_to 10162
  156.4610  130.7952  151.2972 LP  0  0  0  0  0  0  0  0  0  0  0  0  # atno 17370 bound_to 10713
  157.7489  131.0066  150.3157 LP  0  0  0  0  0  0  0  0  0  0  0  0  # atno 17371 bound_to 10713
  139.9303  135.0200  156.8376 LP  0  0  0  0  0  0  0  0  0  0  0  0  # atno 17394 bound_to 11000
  140.6168  134.0031  155.7601 LP  0  0  0  0  0  0  0  0  0  0  0  0  # atno 17395 bound_to 11000

$$$$
