AV-unprocessed.smi:1575|AV-procd|sdf|6341|dock2
  -GOLD-   22720 6553D 1   1.00000     0.00000
 Structure written by MMmdl.
 40 40  0  0  0  0  0  0  0  0  2 V2000
  151.3120  143.4374  157.9582 C   0  0  0  0  0  0  0  0  0  0  0  0
  150.6028  142.9477  156.7864 N   0  0  0  0  0  0  0  0  0  0  0  0
  150.4023  141.6505  156.5130 C   0  0  0  0  0  0  0  0  0  0  0  0
  150.8009  140.7408  157.2427 O   0  0  0  0  0  0  0  0  0  0  0  0
  149.6127  141.3403  155.2299 C   0  0  2  0  0  0  0  0  0  0  0  0
  148.1147  141.6076  155.5145 C   0  0  0  0  0  0  0  0  0  0  0  0
  147.3113  142.2107  154.3378 C   0  0  0  0  0  0  0  0  0  0  0  0
  145.9294  142.7280  154.7694 C   0  0  0  0  0  0  0  0  0  0  0  0
  147.1717  141.1880  153.2002 C   0  0  0  0  0  0  0  0  0  0  0  0
  149.7687  139.9348  154.8648 N   0  0  0  0  0  0  0  0  0  0  0  0
  150.9281  139.3045  154.6124 C   0  0  0  0  0  0  0  0  0  0  0  0
  152.0238  139.8554  154.7150 O   0  0  0  0  0  0  0  0  0  0  0  0
  150.8621  137.8343  154.1641 C   0  0  0  0  0  0  0  0  0  0  0  0
  150.5353  136.8798  155.2404 N   0  0  0  0  0  0  0  0  0  0  0  0
  149.5574  135.9052  154.9734 C   0  0  0  0  0  0  0  0  0  0  0  0
  149.2110  134.9778  155.8863 C   0  0  0  0  0  0  0  0  0  0  0  0
  149.8791  135.0005  157.1817 C   0  0  0  0  0  0  0  0  0  0  0  0
  149.5764  134.1604  158.0268 O   0  0  0  0  0  0  0  0  0  0  0  0
  150.8207  135.9661  157.3932 N   0  5  0  0  0  0  0  0  0  0  0  0
  151.1641  136.9021  156.4550 C   0  0  0  0  0  0  0  0  0  0  0  0
  152.0260  137.7567  156.6621 O   0  0  0  0  0  0  0  0  0  0  0  0
  151.3804  144.5245  157.9235 H   0  0  0  0  0  0  0  0  0  0  0  0
  152.3243  143.0328  157.9992 H   0  0  0  0  0  0  0  0  0  0  0  0
  150.7873  143.1574  158.8725 H   0  0  0  0  0  0  0  0  0  0  0  0
  150.2444  143.6359  156.1402 H   0  0  0  0  0  0  0  0  0  0  0  0
  149.9655  141.9780  154.4178 H   0  0  0  0  0  0  0  0  0  0  0  0
  147.6358  140.6723  155.8113 H   0  0  0  0  0  0  0  0  0  0  0  0
  148.0248  142.2716  156.3759 H   0  0  0  0  0  0  0  0  0  0  0  0
  147.8672  143.0556  153.9297 H   0  0  0  0  0  0  0  0  0  0  0  0
  145.3354  141.9383  155.2300 H   0  0  0  0  0  0  0  0  0  0  0  0
  145.3706  143.1085  153.9140 H   0  0  0  0  0  0  0  0  0  0  0  0
  146.0131  143.5468  155.4836 H   0  0  0  0  0  0  0  0  0  0  0  0
  146.6182  140.3065  153.5247 H   0  0  0  0  0  0  0  0  0  0  0  0
  148.1487  140.8574  152.8464 H   0  0  0  0  0  0  0  0  0  0  0  0
  146.6448  141.6176  152.3476 H   0  0  0  0  0  0  0  0  0  0  0  0
  148.9182  139.4009  154.7572 H   0  0  0  0  0  0  0  0  0  0  0  0
  150.1355  137.7486  153.3543 H   0  0  0  0  0  0  0  0  0  0  0  0
  151.8209  137.5774  153.7121 H   0  0  0  0  0  0  0  0  0  0  0  0
  149.1168  135.9532  153.9885 H   0  0  0  0  0  0  0  0  0  0  0  0
  148.4605  134.2335  155.6643 H   0  0  0  0  0  0  0  0  0  0  0  0
  1  2  1  0  0  0  0
  1 22  1  0  0  0  0
  1 23  1  0  0  0  0
  1 24  1  0  0  0  0
  2  3  1  0  0  0  0
  2 25  1  0  0  0  0
  3  4  2  0  0  0  0
  3  5  1  0  0  0  0
  5  6  1  0  0  0  0
  5 10  1  0  0  0  0
  5 26  1  0  0  0  0
  6  7  1  0  0  0  0
  6 27  1  0  0  0  0
  6 28  1  0  0  0  0
  7  8  1  0  0  0  0
  7  9  1  0  0  0  0
  7 29  1  0  0  0  0
  8 30  1  0  0  0  0
  8 31  1  0  0  0  0
  8 32  1  0  0  0  0
  9 33  1  0  0  0  0
  9 34  1  0  0  0  0
  9 35  1  0  0  0  0
 10 11  1  0  0  0  0
 10 36  1  0  0  0  0
 11 12  2  0  0  0  0
 11 13  1  0  0  0  0
 13 14  1  0  0  0  0
 13 37  1  0  0  0  0
 13 38  1  0  0  0  0
 14 20  1  0  0  0  0
 14 15  1  0  0  0  0
 15 16  2  0  0  0  0
 15 39  1  0  0  0  0
 16 17  1  0  0  0  0
 16 40  1  0  0  0  0
 17 18  2  0  0  0  0
 17 19  1  0  0  0  0
 19 20  1  0  0  0  0
 20 21  2  0  0  0  0
M  CHG  1  19  -1
M  END
> <s_m_source_file>
AV-unprocessed.smi

> <i_m_source_file_index>
1575

> <i_lp_mmshare_version>
43012

> <i_f3d_flags>
0

> <s_epik_input>
W0NIM11bTkhdQyg9TylbQ0BIXShbQ0gyXVtDSF0oW0NIM10pW0NIM10pW05IXUMoPU8pW0NIMl1uMVtjSF1bY0hdYyg9TylbbkhdYzE9Tw==

> <s_epik_cmdline>
J2VwaWtfcHl0aG9uJywgJy1waCcsICc3LjAnLCAnLXRuJywgJzgnLCAnLW1hJywgJzIwMCcsICctbWV0YWxfYmluZGluZycsICctaW1hZScsICc8aW5maWxlLm1hZT4nLCAnLW9tYWUnLCAnPG91dGZpbGUubWFlPic=

> <r_lp_tautomer_probability>
0.999537

> <r_epik_Ionization_Penalty>
3.03017

> <r_epik_Ionization_Penalty_Charging>
2.35557e-08

> <r_epik_Ionization_Penalty_Neutral>
3.03017

> <r_epik_State_Penalty>
3.02913

> <r_epik_Charging_Adjusted_Penalty>
3.02913

> <i_epik_Tot_Q>
-1

> <i_epik_Tot_abs_Q>
1

> <r_epik_Metal_State_Penalty>
0.455824

> <b_epik_Metal_Only>
1

> <s_lp_Force_Field>
OPLS_2005

> <r_lp_Energy>
14.6611

> <b_lp_Chiralities_Consistent>
1

> <s_lp_Variant>
AV-unprocessed.smi:1575-3

> <Gold.Version>
5.8.1

> <Gold.Id.Protein>
6NUR|6NUR_protein|mol2

> <Gold.PLP.Fitness>
41.2888

> <Gold.PLP.PLP>
-32.9956

> <Gold.PLP.part.hbond>
-3.4990

> <Gold.PLP.part.metal>
0.0000

> <Gold.PLP.part.buried>
-3.1287

> <Gold.PLP.part.nonpolar>
-26.9993

> <Gold.PLP.part.repulsive>
0.2265

> <Gold.PLP.ligand.clash>
0.0000

> <Gold.PLP.ligand.torsion>
1.3076

> <Gold.PLP.Chemscore.Hbond>
2.6160

> <Gold.PLP.Chemscore.CHOScore>
1.0000

> <Gold.PLP.Chemscore.Metal>
0.0000

> <Gold.Chemscore.Hbonds>
donor molecule, donor type, donor heavy atom, donor atom, acceptor molecule, acceptor atom, score
      L1  H     2    25       P1  8028  0.98
      P1  H  6896  6907       L1    18  1.00
      P1  H  7989  7998       L1    12  0.48
      L1  C    15    39       P1  7948  1.00

> <Gold.PLP.Chemscore.Internal.Correction>
0.0605

> <Gold.Rescore>
     Score         DG    S(hbond)    S(metal)    S(lipo)     H(rot)  DE(clash)    DE(int)     intcor
      7.72     -13.41       2.83        0.00      46.99       2.74       0.34       5.36       ----

> <Gold.Chemscore.Fitness>
7.7162

> <Gold.Chemscore.DG>
-13.4083

> <Gold.Chemscore.ZeroCoef>
-5.4800

> <Gold.Chemscore.Hbond>
2.8304

> <Gold.Chemscore.Metal>
0.0000

> <Gold.Chemscore.Lipo>
46.9926

> <Gold.Chemscore.Internal_Hbond>
0.0000

> <Gold.Chemscore.DEClash>
0.3364

> <Gold.Chemscore.DEInternal>
5.3556

> <Gold.Chemscore.Rot>
2.7435

> <Gold.Chemscore.Internal.Correction>
   9.000000E+99

> <Gold.Chemscore.Hbonds>
donor molecule, donor type, donor heavy atom, donor atom, acceptor molecule, acceptor atom, score
      L1  H     2    25       P1  8028  0.93
      P1  H  6896  6907       L1    18  0.88
      P1  H  7989  7998       L1    12  0.03

> <Gold.Chemscore.Hbond.Weighted>
-9.4534

> <Gold.Chemscore.Metal.Weighted>
-0.0000

> <Gold.Chemscore.Lipo.Weighted>
-5.4981

> <Gold.Chemscore.Internal_Hbond.Weighted>
0.0000

> <Gold.Chemscore.DEClash.Weighted>
0.3364

> <Gold.Chemscore.DEInternal.Weighted>
5.3556

> <Gold.Chemscore.Rot.Weighted>
7.0233

> <Gold.Chemscore.Internal.Correction.Weighted>
   9.000000E+99

> <Gold.Protein.RotatedTorsions>
[ 6907 6896 6895 6894 ] final -102.38 input  -60.11 | X-H torsion
[ 7974 7965 7964 7962 ] final -129.51 input  175.53 | X-H torsion
[ 8008 7997 7996 7995 ] final -129.22 input   59.86 | X-H torsion
[ 10167 10162 10161 10158 ] final   88.65 input  -65.29 | X-H torsion
[ 10718 10713 10712 10709 ] final   43.92 input   66.30 | X-H torsion
[ 10763 10752 10751 10750 ] final  169.43 input  -60.55 | X-H torsion
[ 11005 11000 10999 10996 ] final  170.83 input  -57.11 | X-H torsion

> <Gold.Protein.ActiveResidues>
 VAL166  LYS551  ARG553  GLY616  TRP617  ASP618  TYR619  PRO620  LYS621  CYS622 
 ASP623  PHE694  ASN695  SER759  ASP760  ASP761  ALA762  ILE779  LEU786  VAL792 
 PHE793  MET794  SER795  GLU796  ALA797  LYS798  CYS799  TRP800  GLU811  SER814 

> <Gold.Protein.RotatedAtoms>
  150.7194  134.0590  159.3824 H   0  0  0  0  0  0  0  0  0  0  0  0  # atno 6907 bound_to 6896
  151.8569  135.0536  160.0474 H   0  0  0  0  0  0  0  0  0  0  0  0  # atno 6908 bound_to 6896
  152.2747  133.5379  159.5497 H   0  0  0  0  0  0  0  0  0  0  0  0  # atno 6909 bound_to 6896
  144.9565  140.7401  143.4756 H   0  0  0  0  0  0  0  0  0  0  0  0  # atno 7974 bound_to 7965
  155.2757  140.0442  157.3011 H   0  0  0  0  0  0  0  0  0  0  0  0  # atno 8008 bound_to 7997
  154.5627  140.2351  155.8279 H   0  0  0  0  0  0  0  0  0  0  0  0  # atno 8009 bound_to 7997
  156.2060  140.3012  155.9635 H   0  0  0  0  0  0  0  0  0  0  0  0  # atno 8010 bound_to 7997
  139.8652  144.6523  150.9013 H   0  0  0  0  0  0  0  0  0  0  0  0  # atno 10167 bound_to 10162
  157.4212  130.7970  149.7517 H   0  0  0  0  0  0  0  0  0  0  0  0  # atno 10718 bound_to 10713
  154.3831  135.2753  155.2199 H   0  0  0  0  0  0  0  0  0  0  0  0  # atno 10763 bound_to 10752
  154.4298  135.5980  153.6065 H   0  0  0  0  0  0  0  0  0  0  0  0  # atno 10764 bound_to 10752
  152.9834  135.5993  154.4076 H   0  0  0  0  0  0  0  0  0  0  0  0  # atno 10765 bound_to 10752
  140.3126  134.7504  157.4002 H   0  0  0  0  0  0  0  0  0  0  0  0  # atno 11005 bound_to 11000
  145.2765  139.1934  143.4814 LP  0  0  0  0  0  0  0  0  0  0  0  0  # atno 17320 bound_to 7965
  146.3339  140.2720  142.8606 LP  0  0  0  0  0  0  0  0  0  0  0  0  # atno 17321 bound_to 7965
  140.7769  143.3710  151.1649 LP  0  0  0  0  0  0  0  0  0  0  0  0  # atno 17342 bound_to 10162
  139.7336  143.9034  152.3027 LP  0  0  0  0  0  0  0  0  0  0  0  0  # atno 17343 bound_to 10162
  155.9881  130.3961  150.3133 LP  0  0  0  0  0  0  0  0  0  0  0  0  # atno 17370 bound_to 10713
  157.1281  131.0264  151.2981 LP  0  0  0  0  0  0  0  0  0  0  0  0  # atno 17371 bound_to 10713
  140.1012  134.5470  155.8351 LP  0  0  0  0  0  0  0  0  0  0  0  0  # atno 17394 bound_to 11000
  141.2105  133.6695  156.6512 LP  0  0  0  0  0  0  0  0  0  0  0  0  # atno 17395 bound_to 11000

$$$$
