AV-unprocessed.smi:3195|AV-procd|sdf|12217|dock2
  -GOLD-   2272018 53D 1   1.00000     0.00000
 Structure written by MMmdl.
 29 30  0  0  0  0  0  0  0  0  2 V2000
  149.3982  140.5476  154.4329 C   0  0  0  0  0  0  0  0  0  0  0  0
  150.4383  139.9889  155.4183 C   0  0  1  0  0  0  0  0  0  0  0  0
  150.5886  140.9355  156.6355 C   0  0  0  0  0  0  0  0  0  0  0  0
  149.8078  141.8847  156.7506 O   0  0  0  0  0  0  0  0  0  0  0  0
  151.6523  140.5728  157.4612 N   0  0  0  0  0  0  0  0  0  0  0  0
  152.1124  141.3253  158.4233 C   0  0  0  0  0  0  0  0  0  0  0  0
  151.5787  142.5866  158.7403 N   0  0  0  0  0  0  0  0  0  0  0  0
  152.0660  143.3751  159.7609 C   0  0  0  0  0  0  0  0  0  0  0  0
  153.0900  142.9804  160.5192 C   0  0  0  0  0  0  0  0  0  0  0  0
  153.6982  141.6921  160.2580 C   0  0  0  0  0  0  0  0  0  0  0  0
  153.2464  140.8489  159.2359 C   0  0  0  0  0  0  0  0  0  0  0  0
  153.8028  139.7424  159.0464 O   0  5  0  0  0  0  0  0  0  0  0  0
  150.1585  138.5280  155.8077 C   0  0  0  0  0  0  0  0  0  0  0  0
  151.5261  137.9924  156.1982 C   0  0  0  0  0  0  0  0  0  0  0  0
  152.4964  138.8733  155.4058 C   0  0  0  0  0  0  0  0  0  0  0  0
  151.6893  139.8477  154.7457 O   0  0  0  0  0  0  0  0  0  0  0  0
  148.4071  140.5906  154.8861 H   0  0  0  0  0  0  0  0  0  0  0  0
  149.3272  139.9250  153.5408 H   0  0  0  0  0  0  0  0  0  0  0  0
  149.6595  141.5545  154.1051 H   0  0  0  0  0  0  0  0  0  0  0  0
  151.5562  144.3184  159.8882 H   0  0  0  0  0  0  0  0  0  0  0  0
  153.4596  143.6103  161.3148 H   0  0  0  0  0  0  0  0  0  0  0  0
  154.5270  141.3826  160.8784 H   0  0  0  0  0  0  0  0  0  0  0  0
  150.8017  142.9629  158.2178 H   0  0  0  0  0  0  0  0  0  0  0  0
  149.4173  138.4087  156.5987 H   0  0  0  0  0  0  0  0  0  0  0  0
  149.7924  137.9768  154.9404 H   0  0  0  0  0  0  0  0  0  0  0  0
  151.6938  138.1198  157.2684 H   0  0  0  0  0  0  0  0  0  0  0  0
  151.6349  136.9331  155.9645 H   0  0  0  0  0  0  0  0  0  0  0  0
  153.2071  139.3658  156.0708 H   0  0  0  0  0  0  0  0  0  0  0  0
  153.0619  138.3013  154.6700 H   0  0  0  0  0  0  0  0  0  0  0  0
  1  2  1  0  0  0  0
  1 17  1  0  0  0  0
  1 18  1  0  0  0  0
  1 19  1  0  0  0  0
  2 16  1  0  0  0  0
  2  3  1  0  0  0  0
  2 13  1  0  0  0  0
  3  4  2  0  0  0  0
  3  5  1  0  0  0  0
  5  6  2  0  0  0  0
  6 11  1  0  0  0  0
  6  7  1  0  0  0  0
  7 23  1  0  0  0  0
  7  8  1  0  0  0  0
  8 20  1  0  0  0  0
  8  9  2  0  0  0  0
  9 21  1  0  0  0  0
  9 10  1  0  0  0  0
 10 11  2  0  0  0  0
 10 22  1  0  0  0  0
 11 12  1  0  0  0  0
 13 14  1  0  0  0  0
 13 24  1  0  0  0  0
 13 25  1  0  0  0  0
 14 15  1  0  0  0  0
 14 26  1  0  0  0  0
 14 27  1  0  0  0  0
 15 16  1  0  0  0  0
 15 28  1  0  0  0  0
 15 29  1  0  0  0  0
M  CHG  1  12  -1
M  END
> <s_m_source_file>
AV-unprocessed.smi

> <i_m_source_file_index>
3195

> <i_lp_mmshare_version>
43012

> <i_f3d_flags>
0

> <s_epik_input>
TzFbQ0gyXVtDSDJdW0NIMl1bQ0BAXTEoW0NIM10pQyg9TylbTkhdYzJuW2NIXVtjSF1bY0hdYzJbT0hd

> <s_epik_cmdline>
J2VwaWtfcHl0aG9uJywgJy1waCcsICc3LjAnLCAnLXRuJywgJzgnLCAnLW1hJywgJzIwMCcsICctbWV0YWxfYmluZGluZycsICctaW1hZScsICc8aW5maWxlLm1hZT4nLCAnLW9tYWUnLCAnPG91dGZpbGUubWFlPic=

> <r_epik_Ionization_Penalty>
0.780444

> <r_epik_Ionization_Penalty_Charging>
0.780444

> <r_epik_Ionization_Penalty_Neutral>
6.55423e-13

> <r_epik_State_Penalty>
1.40445

> <r_epik_Charging_Adjusted_Penalty>
2.18489

> <i_epik_Tot_Q>
-1

> <i_epik_Tot_abs_Q>
1

> <r_epik_Metal_State_Penalty>
1.36467

> <b_epik_Metal_Only>
0

> <s_lp_Force_Field>
OPLS_2005

> <r_lp_Energy>
50.4099

> <b_lp_Chiralities_Consistent>
1

> <s_lp_Variant>
AV-unprocessed.smi:3195-5

> <Gold.Version>
5.8.1

> <Gold.Id.Protein>
6NUR|6NUR_protein|mol2

> <Gold.PLP.Fitness>
38.6059

> <Gold.PLP.PLP>
-29.8433

> <Gold.PLP.part.hbond>
-1.8425

> <Gold.PLP.part.metal>
0.0000

> <Gold.PLP.part.buried>
-4.2179

> <Gold.PLP.part.nonpolar>
-24.4806

> <Gold.PLP.part.repulsive>
0.2501

> <Gold.PLP.ligand.clash>
0.0000

> <Gold.PLP.ligand.torsion>
0.1595

> <Gold.PLP.Chemscore.Hbond>
3.0000

> <Gold.PLP.Chemscore.CHOScore>
0.0000

> <Gold.PLP.Chemscore.Metal>
0.0000

> <Gold.Chemscore.Hbonds>
donor molecule, donor type, donor heavy atom, donor atom, acceptor molecule, acceptor atom, score
      P1  H  7989  7998       L1    16  1.00
      P1  H  7997  8008       L1    12  1.62

> <Gold.PLP.Chemscore.Internal.Correction>
0.0816

> <Gold.Rescore>
     Score         DG    S(hbond)    S(metal)    S(lipo)     H(rot)  DE(clash)    DE(int)     intcor
     14.69     -17.58       1.88        0.00      71.47       1.00       0.06       2.83       ----

> <Gold.Chemscore.Fitness>
14.6877

> <Gold.Chemscore.DG>
-17.5780

> <Gold.Chemscore.ZeroCoef>
-5.4800

> <Gold.Chemscore.Hbond>
1.8849

> <Gold.Chemscore.Metal>
0.0000

> <Gold.Chemscore.Lipo>
71.4727

> <Gold.Chemscore.Internal_Hbond>
0.0000

> <Gold.Chemscore.DEClash>
0.0636

> <Gold.Chemscore.DEInternal>
2.8266

> <Gold.Chemscore.Rot>
1.0000

> <Gold.Chemscore.Internal.Correction>
   9.000000E+99

> <Gold.Chemscore.Hbonds>
donor molecule, donor type, donor heavy atom, donor atom, acceptor molecule, acceptor atom, score
      P1  H  7989  7998       L1    16  0.58
      P1  H  7997  8008       L1    12  0.31

> <Gold.Chemscore.Hbond.Weighted>
-6.2956

> <Gold.Chemscore.Metal.Weighted>
-0.0000

> <Gold.Chemscore.Lipo.Weighted>
-8.3623

> <Gold.Chemscore.Internal_Hbond.Weighted>
0.0000

> <Gold.Chemscore.DEClash.Weighted>
0.0636

> <Gold.Chemscore.DEInternal.Weighted>
2.8266

> <Gold.Chemscore.Rot.Weighted>
2.5600

> <Gold.Chemscore.Internal.Correction.Weighted>
   9.000000E+99

> <Gold.Protein.RotatedTorsions>
[ 6907 6896 6895 6894 ] final  -83.71 input  -60.11 | X-H torsion
[ 7974 7965 7964 7962 ] final   82.51 input  175.53 | X-H torsion
[ 8008 7997 7996 7995 ] final -102.59 input   59.86 | X-H torsion
[ 10167 10162 10161 10158 ] final  174.54 input  -65.29 | X-H torsion
[ 10718 10713 10712 10709 ] final  107.62 input   66.30 | X-H torsion
[ 10763 10752 10751 10750 ] final  127.42 input  -60.55 | X-H torsion
[ 11005 11000 10999 10996 ] final   29.68 input  -57.11 | X-H torsion

> <Gold.Protein.ActiveResidues>
 VAL166  LYS551  ARG553  GLY616  TRP617  ASP618  TYR619  PRO620  LYS621  CYS622 
 ASP623  PHE694  ASN695  SER759  ASP760  ASP761  ALA762  ILE779  LEU786  VAL792 
 PHE793  MET794  SER795  GLU796  ALA797  LYS798  CYS799  TRP800  GLU811  SER814 

> <Gold.Protein.RotatedAtoms>
  150.6883  134.3470  159.4892 H   0  0  0  0  0  0  0  0  0  0  0  0  # atno 6907 bound_to 6896
  152.1316  134.9128  160.0567 H   0  0  0  0  0  0  0  0  0  0  0  0  # atno 6908 bound_to 6896
  152.0295  133.3897  159.4328 H   0  0  0  0  0  0  0  0  0  0  0  0  # atno 6909 bound_to 6896
  145.6241  139.2391  143.2121 H   0  0  0  0  0  0  0  0  0  0  0  0  # atno 7974 bound_to 7965
  154.8588  140.0427  157.1651 H   0  0  0  0  0  0  0  0  0  0  0  0  # atno 8008 bound_to 7997
  154.8863  140.2980  155.5376 H   0  0  0  0  0  0  0  0  0  0  0  0  # atno 8009 bound_to 7997
  156.2998  140.2402  156.3872 H   0  0  0  0  0  0  0  0  0  0  0  0  # atno 8010 bound_to 7997
  139.5145  144.3135  152.0269 H   0  0  0  0  0  0  0  0  0  0  0  0  # atno 10167 bound_to 10162
  157.6621  131.0876  150.6184 H   0  0  0  0  0  0  0  0  0  0  0  0  # atno 10718 bound_to 10713
  153.7091  135.3271  155.3242 H   0  0  0  0  0  0  0  0  0  0  0  0  # atno 10763 bound_to 10752
  154.8390  135.4472  154.1332 H   0  0  0  0  0  0  0  0  0  0  0  0  # atno 10764 bound_to 10752
  153.2421  135.6972  153.7851 H   0  0  0  0  0  0  0  0  0  0  0  0  # atno 10765 bound_to 10752
  140.3024  134.2741  155.7751 H   0  0  0  0  0  0  0  0  0  0  0  0  # atno 11005 bound_to 11000
  146.1408  140.7060  142.9368 LP  0  0  0  0  0  0  0  0  0  0  0  0  # atno 17320 bound_to 7965
  144.7219  140.4401  143.7002 LP  0  0  0  0  0  0  0  0  0  0  0  0  # atno 17321 bound_to 7965
  140.2579  144.4099  150.6197 LP  0  0  0  0  0  0  0  0  0  0  0  0  # atno 17342 bound_to 10162
  140.6178  143.2174  151.6756 LP  0  0  0  0  0  0  0  0  0  0  0  0  # atno 17343 bound_to 10162
  156.6486  130.4478  149.5727 LP  0  0  0  0  0  0  0  0  0  0  0  0  # atno 17370 bound_to 10713
  156.2155  130.6705  151.1314 LP  0  0  0  0  0  0  0  0  0  0  0  0  # atno 17371 bound_to 10713
  141.2125  133.7655  156.9787 LP  0  0  0  0  0  0  0  0  0  0  0  0  # atno 17394 bound_to 11000
  140.1097  134.9484  157.2047 LP  0  0  0  0  0  0  0  0  0  0  0  0  # atno 17395 bound_to 11000

$$$$
