AV-unprocessed.smi:1607|AV-procd|sdf|6463|dock10
  -GOLD-   22720 7123D 1   1.00000     0.00000
 Structure written by MMmdl.
 39 40  0  0  0  0  0  0  0  0  2 V2000
  144.9923  133.5068  150.1249 C   0  0  0  0  0  0  0  0  0  0  0  0
  145.8676  134.2851  151.1176 C   0  0  2  0  0  0  0  0  0  0  0  0
  145.6849  133.7659  152.5537 C   0  0  0  0  0  0  0  0  0  0  0  0
  146.5475  134.5793  153.5262 C   0  0  0  0  0  0  0  0  0  0  0  0
  146.2414  136.0801  153.4067 C   0  0  0  0  0  0  0  0  0  0  0  0
  146.4334  136.5562  152.0125 N   0  3  2  0  0  0  0  0  0  0  0  0
  146.2751  138.0279  151.8980 C   0  0  0  0  0  0  0  0  0  0  0  0
  146.9232  138.7831  153.0748 C   0  0  0  0  0  0  0  0  0  0  0  0
  148.3027  138.3608  153.2870 N   0  0  0  0  0  0  0  0  0  0  0  0
  149.1408  138.8981  154.1873 C   0  0  0  0  0  0  0  0  0  0  0  0
  148.8248  139.8174  154.9421 O   0  0  0  0  0  0  0  0  0  0  0  0
  150.5497  138.3084  154.2486 C   0  0  0  0  0  0  0  0  0  0  0  0
  151.3520  138.9838  155.2502 N   0  0  0  0  0  0  0  0  0  0  0  0
  152.2352  138.5107  156.1321 C   0  0  0  0  0  0  0  0  0  0  0  0
  152.7458  139.4778  156.8786 N   0  0  0  0  0  0  0  0  0  0  0  0
  152.1129  140.6129  156.3998 N   0  0  0  0  0  0  0  0  0  0  0  0
  151.2837  140.3258  155.4341 N   0  0  0  0  0  0  0  0  0  0  0  0
  145.5813  135.7996  151.0555 C   0  0  0  0  0  0  0  0  0  0  0  0
  143.9325  133.6269  150.3512 H   0  0  0  0  0  0  0  0  0  0  0  0
  145.2195  132.4407  150.1526 H   0  0  0  0  0  0  0  0  0  0  0  0
  145.1553  133.8503  149.1030 H   0  0  0  0  0  0  0  0  0  0  0  0
  146.9087  134.1267  150.8314 H   0  0  0  0  0  0  0  0  0  0  0  0
  144.6364  133.8373  152.8466 H   0  0  0  0  0  0  0  0  0  0  0  0
  145.9540  132.7106  152.6129 H   0  0  0  0  0  0  0  0  0  0  0  0
  146.3736  134.2436  154.5488 H   0  0  0  0  0  0  0  0  0  0  0  0
  147.6036  134.4023  153.3176 H   0  0  0  0  0  0  0  0  0  0  0  0
  145.2176  136.2834  153.7254 H   0  0  0  0  0  0  0  0  0  0  0  0
  146.8995  136.6309  154.0801 H   0  0  0  0  0  0  0  0  0  0  0  0
  146.6787  138.3635  150.9412 H   0  0  0  0  0  0  0  0  0  0  0  0
  145.2131  138.2768  151.8854 H   0  0  0  0  0  0  0  0  0  0  0  0
  146.9255  139.8543  152.8712 H   0  0  0  0  0  0  0  0  0  0  0  0
  146.3628  138.6448  153.9998 H   0  0  0  0  0  0  0  0  0  0  0  0
  148.6493  137.6142  152.7012 H   0  0  0  0  0  0  0  0  0  0  0  0
  150.4964  137.2479  154.4982 H   0  0  0  0  0  0  0  0  0  0  0  0
  151.0400  138.3855  153.2768 H   0  0  0  0  0  0  0  0  0  0  0  0
  152.4995  137.4678  156.2271 H   0  0  0  0  0  0  0  0  0  0  0  0
  145.7585  136.1507  150.0396 H   0  0  0  0  0  0  0  0  0  0  0  0
  144.5300  135.9939  151.2746 H   0  0  0  0  0  0  0  0  0  0  0  0
  147.3943  136.3527  151.7773 H   0  0  0  0  0  0  0  0  0  0  0  0
  1  2  1  0  0  0  0
  1 19  1  0  0  0  0
  1 20  1  0  0  0  0
  1 21  1  0  0  0  0
  2 18  1  0  0  0  0
  2  3  1  0  0  0  0
  2 22  1  0  0  0  0
  3  4  1  0  0  0  0
  3 23  1  0  0  0  0
  3 24  1  0  0  0  0
  4  5  1  0  0  0  0
  4 25  1  0  0  0  0
  4 26  1  0  0  0  0
  5  6  1  0  0  0  0
  5 27  1  0  0  0  0
  5 28  1  0  0  0  0
  6  7  1  0  0  0  0
  6 18  1  0  0  0  0
  6 39  1  0  0  0  0
  7  8  1  0  0  0  0
  7 29  1  0  0  0  0
  7 30  1  0  0  0  0
  8  9  1  0  0  0  0
  8 31  1  0  0  0  0
  8 32  1  0  0  0  0
  9 10  1  0  0  0  0
  9 33  1  0  0  0  0
 10 11  2  0  0  0  0
 10 12  1  0  0  0  0
 12 13  1  0  0  0  0
 12 34  1  0  0  0  0
 12 35  1  0  0  0  0
 13 17  1  0  0  0  0
 13 14  1  0  0  0  0
 14 15  2  0  0  0  0
 14 36  1  0  0  0  0
 15 16  1  0  0  0  0
 16 17  2  0  0  0  0
 18 37  1  0  0  0  0
 18 38  1  0  0  0  0
M  CHG  1   6   1
M  END
> <s_m_source_file>
AV-unprocessed.smi

> <i_m_source_file_index>
1607

> <i_lp_mmshare_version>
43012

> <i_f3d_flags>
0

> <s_epik_input>
W0NIM11bQ0BASF0xW0NIMl1bQ0gyXVtDSDJdTihbQ0gyXTEpW0NIMl1bQ0gyXVtOSF1DKD1PKVtDSDJdbjJbY0hdbm5uMg==

> <s_epik_cmdline>
J2VwaWtfcHl0aG9uJywgJy1waCcsICc3LjAnLCAnLXRuJywgJzgnLCAnLW1hJywgJzIwMCcsICctbWV0YWxfYmluZGluZycsICctaW1hZScsICc8aW5maWxlLm1hZT4nLCAnLW9tYWUnLCAnPG91dGZpbGUubWFlPic=

> <r_lp_tautomer_probability>
1

> <r_epik_Ionization_Penalty>
0.00268321

> <r_epik_Ionization_Penalty_Charging>
0.00267875

> <r_epik_Ionization_Penalty_Neutral>
4.46125e-06

> <r_epik_State_Penalty>
0.00186642

> <r_epik_Charging_Adjusted_Penalty>
0.00454517

> <i_epik_Tot_Q>
1

> <i_epik_Tot_abs_Q>
1

> <r_epik_Metal_State_Penalty>
-0

> <b_epik_Metal_Only>
0

> <s_lp_Force_Field>
OPLS_2005

> <r_lp_Energy>
18.3574

> <b_lp_Chiralities_Consistent>
1

> <s_lp_Variant>
AV-unprocessed.smi:1607-1

> <Gold.Version>
5.8.1

> <Gold.Id.Protein>
6NUR|6NUR_protein|mol2

> <Gold.PLP.Fitness>
44.0772

> <Gold.PLP.PLP>
-30.0008

> <Gold.PLP.part.hbond>
-5.7957

> <Gold.PLP.part.metal>
0.0000

> <Gold.PLP.part.buried>
1.1013

> <Gold.PLP.part.nonpolar>
-24.8245

> <Gold.PLP.part.repulsive>
0.2143

> <Gold.PLP.ligand.clash>
0.0000

> <Gold.PLP.ligand.torsion>
0.4355

> <Gold.PLP.Chemscore.Hbond>
4.9760

> <Gold.PLP.Chemscore.CHOScore>
0.0000

> <Gold.PLP.Chemscore.Metal>
0.0000

> <Gold.Chemscore.Hbonds>
donor molecule, donor type, donor heavy atom, donor atom, acceptor molecule, acceptor atom, score
      L1  H     6    39       P1  7948  2.00
      L1  H     9    33       P1  7948  1.00
      P1  H  7989  7998       L1    17  0.87
      P1  H  7997  8008       L1    15  0.75

> <Gold.PLP.Chemscore.Internal.Correction>
0.0195

> <Gold.Rescore>
     Score         DG    S(hbond)    S(metal)    S(lipo)     H(rot)  DE(clash)    DE(int)     intcor
     11.47     -13.89       2.78        0.00      51.43       2.69       0.45       1.97       ----

> <Gold.Chemscore.Fitness>
11.4720

> <Gold.Chemscore.DG>
-13.8907

> <Gold.Chemscore.ZeroCoef>
-5.4800

> <Gold.Chemscore.Hbond>
2.7808

> <Gold.Chemscore.Metal>
0.0000

> <Gold.Chemscore.Lipo>
51.4311

> <Gold.Chemscore.Internal_Hbond>
0.0000

> <Gold.Chemscore.DEClash>
0.4537

> <Gold.Chemscore.DEInternal>
1.9651

> <Gold.Chemscore.Rot>
2.6932

> <Gold.Chemscore.Internal.Correction>
   9.000000E+99

> <Gold.Chemscore.Hbonds>
donor molecule, donor type, donor heavy atom, donor atom, acceptor molecule, acceptor atom, score
      L1  H     6    39       P1  7948  0.94
      L1  H     9    33       P1  7948  0.99
      P1  H  7989  7998       L1    17  0.15
      P1  H  7997  8008       L1    15  0.09

> <Gold.Chemscore.Hbond.Weighted>
-9.2878

> <Gold.Chemscore.Metal.Weighted>
-0.0000

> <Gold.Chemscore.Lipo.Weighted>
-6.0174

> <Gold.Chemscore.Internal_Hbond.Weighted>
0.0000

> <Gold.Chemscore.DEClash.Weighted>
0.4537

> <Gold.Chemscore.DEInternal.Weighted>
1.9651

> <Gold.Chemscore.Rot.Weighted>
6.8945

> <Gold.Chemscore.Internal.Correction.Weighted>
   9.000000E+99

> <Gold.Protein.RotatedTorsions>
[ 6907 6896 6895 6894 ] final  -73.63 input  -60.11 | X-H torsion
[ 7974 7965 7964 7962 ] final  -72.54 input  175.53 | X-H torsion
[ 8008 7997 7996 7995 ] final  -57.34 input   59.86 | X-H torsion
[ 10167 10162 10161 10158 ] final  173.77 input  -65.29 | X-H torsion
[ 10718 10713 10712 10709 ] final  -48.46 input   66.30 | X-H torsion
[ 10763 10752 10751 10750 ] final  153.32 input  -60.55 | X-H torsion
[ 11005 11000 10999 10996 ] final -156.05 input  -57.11 | X-H torsion

> <Gold.Protein.ActiveResidues>
 VAL166  LYS551  ARG553  GLY616  TRP617  ASP618  TYR619  PRO620  LYS621  CYS622 
 ASP623  PHE694  ASN695  SER759  ASP760  ASP761  ALA762  ILE779  LEU786  VAL792 
 PHE793  MET794  SER795  GLU796  ALA797  LYS798  CYS799  TRP800  GLU811  SER814 

> <Gold.Protein.RotatedAtoms>
  150.7123  134.4988  159.5551 H   0  0  0  0  0  0  0  0  0  0  0  0  # atno 6907 bound_to 6896
  152.2590  134.8051  160.0443 H   0  0  0  0  0  0  0  0  0  0  0  0  # atno 6908 bound_to 6896
  151.8771  133.3452  159.3791 H   0  0  0  0  0  0  0  0  0  0  0  0  # atno 6909 bound_to 6896
  145.6638  140.9244  143.0919 H   0  0  0  0  0  0  0  0  0  0  0  0  # atno 7974 bound_to 7965
  154.4264  140.1109  156.5782 H   0  0  0  0  0  0  0  0  0  0  0  0  # atno 8008 bound_to 7997
  155.6140  140.3494  155.4612 H   0  0  0  0  0  0  0  0  0  0  0  0  # atno 8009 bound_to 7997
  156.0077  140.1212  157.0475 H   0  0  0  0  0  0  0  0  0  0  0  0  # atno 8010 bound_to 7997
  139.5119  144.3222  152.0191 H   0  0  0  0  0  0  0  0  0  0  0  0  # atno 10167 bound_to 10162
  156.1986  130.4155  149.9273 H   0  0  0  0  0  0  0  0  0  0  0  0  # atno 10718 bound_to 10713
  154.1343  135.2824  155.3177 H   0  0  0  0  0  0  0  0  0  0  0  0  # atno 10763 bound_to 10752
  154.6333  135.5428  153.7708 H   0  0  0  0  0  0  0  0  0  0  0  0  # atno 10764 bound_to 10752
  153.0271  135.6468  154.1492 H   0  0  0  0  0  0  0  0  0  0  0  0  # atno 10765 bound_to 10752
  140.6797  134.4157  157.5227 H   0  0  0  0  0  0  0  0  0  0  0  0  # atno 11005 bound_to 11000
  144.7080  139.8483  143.7424 LP  0  0  0  0  0  0  0  0  0  0  0  0  # atno 17320 bound_to 7965
  146.1103  139.4107  143.0292 LP  0  0  0  0  0  0  0  0  0  0  0  0  # atno 17321 bound_to 7965
  140.2664  144.4012  150.6167 LP  0  0  0  0  0  0  0  0  0  0  0  0  # atno 17342 bound_to 10162
  140.6120  143.2170  151.6867 LP  0  0  0  0  0  0  0  0  0  0  0  0  # atno 17343 bound_to 10162
  156.6989  130.8925  151.3597 LP  0  0  0  0  0  0  0  0  0  0  0  0  # atno 17370 bound_to 10713
  157.6972  130.9294  150.0679 LP  0  0  0  0  0  0  0  0  0  0  0  0  # atno 17371 bound_to 10713
  139.8955  134.8680  156.2127 LP  0  0  0  0  0  0  0  0  0  0  0  0  # atno 17394 bound_to 11000
  141.0327  133.6980  156.1458 LP  0  0  0  0  0  0  0  0  0  0  0  0  # atno 17395 bound_to 11000

$$$$
