AV-unprocessed.smi:970|AV-procd|sdf|4291|dock4
  -GOLD-   22720 2193D 1   1.00000     0.00000
 Structure written by MMmdl.
 31 31  0  0  0  0  0  0  0  0  1 V2000
  145.8273  137.6477  152.1593 C   0  0  0  0  0  0  0  0  0  0  0  0
  145.8679  138.8737  152.9414 N   0  0  0  0  0  0  0  0  0  0  0  0
  146.8669  139.2052  153.7718 C   0  0  0  0  0  0  0  0  0  0  0  0
  147.8591  138.4956  153.9477 O   0  0  0  0  0  0  0  0  0  0  0  0
  146.7288  140.5532  154.4980 C   0  0  2  0  0  0  0  0  0  0  0  0
  146.6835  141.6629  153.4345 C   0  0  0  0  0  0  0  0  0  0  0  0
  147.8903  140.7968  155.3510 N   0  0  0  0  0  0  0  0  0  0  0  0
  149.1348  141.0572  154.9163 C   0  0  0  0  0  0  0  0  0  0  0  0
  149.4256  141.1162  153.7206 O   0  0  0  0  0  0  0  0  0  0  0  0
  150.2003  141.2983  156.0009 C   0  0  2  0  0  0  0  0  0  0  0  0
  150.6452  142.7718  156.0961 C   0  0  0  0  0  0  0  0  0  0  0  0
  151.3387  140.4050  155.8189 N   0  0  0  0  0  0  0  0  0  0  0  0
  152.3827  140.1711  156.6171 C   0  0  0  0  0  0  0  0  0  0  0  0
  153.2235  139.2587  156.1507 N   0  0  0  0  0  0  0  0  0  0  0  0
  152.5917  138.9431  154.9814 C   0  0  0  0  0  0  0  0  0  0  0  0
  151.4558  139.5960  154.7363 N   0  0  0  0  0  0  0  0  0  0  0  0
  144.8951  137.5954  151.5971 H   0  0  0  0  0  0  0  0  0  0  0  0
  145.8851  136.7707  152.8056 H   0  0  0  0  0  0  0  0  0  0  0  0
  146.6558  137.6135  151.4505 H   0  0  0  0  0  0  0  0  0  0  0  0
  145.0881  139.5085  152.8481 H   0  0  0  0  0  0  0  0  0  0  0  0
  145.8124  140.5757  155.0914 H   0  0  0  0  0  0  0  0  0  0  0  0
  145.8274  141.5394  152.7700 H   0  0  0  0  0  0  0  0  0  0  0  0
  147.5844  141.6752  152.8188 H   0  0  0  0  0  0  0  0  0  0  0  0
  146.5914  142.6443  153.9009 H   0  0  0  0  0  0  0  0  0  0  0  0
  147.7319  140.7755  156.3478 H   0  0  0  0  0  0  0  0  0  0  0  0
  149.7370  141.0374  156.9537 H   0  0  0  0  0  0  0  0  0  0  0  0
  149.8003  143.4265  156.3124 H   0  0  0  0  0  0  0  0  0  0  0  0
  151.1056  143.1194  155.1704 H   0  0  0  0  0  0  0  0  0  0  0  0
  151.3727  142.9056  156.8969 H   0  0  0  0  0  0  0  0  0  0  0  0
  152.5281  140.6755  157.5611 H   0  0  0  0  0  0  0  0  0  0  0  0
  152.9776  138.2063  154.2925 H   0  0  0  0  0  0  0  0  0  0  0  0
  1  2  1  0  0  0  0
  1 17  1  0  0  0  0
  1 18  1  0  0  0  0
  1 19  1  0  0  0  0
  2  3  1  0  0  0  0
  2 20  1  0  0  0  0
  3  4  2  0  0  0  0
  3  5  1  0  0  0  0
  5  6  1  0  0  0  0
  5  7  1  0  0  0  0
  5 21  1  0  0  0  0
  6 22  1  0  0  0  0
  6 23  1  0  0  0  0
  6 24  1  0  0  0  0
  7  8  1  0  0  0  0
  7 25  1  0  0  0  0
  8  9  2  0  0  0  0
  8 10  1  0  0  0  0
 10 11  1  0  0  0  0
 10 12  1  0  0  0  0
 10 26  1  0  0  0  0
 11 27  1  0  0  0  0
 11 28  1  0  0  0  0
 11 29  1  0  0  0  0
 12 16  1  0  0  0  0
 12 13  1  0  0  0  0
 13 14  2  0  0  0  0
 13 30  1  0  0  0  0
 14 15  1  0  0  0  0
 15 16  2  0  0  0  0
 15 31  1  0  0  0  0
M  END
> <s_m_source_file>
AV-unprocessed.smi

> <i_m_source_file_index>
970

> <i_lp_mmshare_version>
43012

> <i_f3d_flags>
0

> <s_epik_input>
W0NIM11bTkhdQyg9TylbQ0BIXShbQ0gzXSlbTkhdQyg9TylbQ0BIXShbQ0gzXSluMVtjSF1uW2NIXW4x

> <s_epik_cmdline>
J2VwaWtfcHl0aG9uJywgJy1waCcsICc3LjAnLCAnLXRuJywgJzgnLCAnLW1hJywgJzIwMCcsICctbWV0YWxfYmluZGluZycsICctaW1hZScsICc8aW5maWxlLm1hZT4nLCAnLW9tYWUnLCAnPG91dGZpbGUubWFlPic=

> <r_lp_tautomer_probability>
1

> <r_epik_Ionization_Penalty>
1.07271e-05

> <r_epik_Ionization_Penalty_Charging>
0

> <r_epik_Ionization_Penalty_Neutral>
1.07271e-05

> <r_epik_State_Penalty>
-0

> <r_epik_Charging_Adjusted_Penalty>
0

> <i_epik_Tot_Q>
0

> <i_epik_Tot_abs_Q>
0

> <r_epik_Metal_State_Penalty>
-0

> <b_epik_Metal_Only>
0

> <s_lp_Force_Field>
OPLS_2005

> <r_lp_Energy>
8.61602

> <b_lp_Chiralities_Consistent>
1

> <s_lp_Variant>
AV-unprocessed.smi:970-1

> <Gold.Version>
5.8.1

> <Gold.Id.Protein>
6NUR|6NUR_protein|mol2

> <Gold.PLP.Fitness>
36.9922

> <Gold.PLP.PLP>
-26.3792

> <Gold.PLP.part.hbond>
-5.0000

> <Gold.PLP.part.metal>
0.0000

> <Gold.PLP.part.buried>
-0.1259

> <Gold.PLP.part.nonpolar>
-23.3169

> <Gold.PLP.part.repulsive>
1.7851

> <Gold.PLP.ligand.clash>
0.0000

> <Gold.PLP.ligand.torsion>
0.3156

> <Gold.PLP.Chemscore.Hbond>
3.7096

> <Gold.PLP.Chemscore.CHOScore>
0.0000

> <Gold.PLP.Chemscore.Metal>
0.0000

> <Gold.Chemscore.Hbonds>
donor molecule, donor type, donor heavy atom, donor atom, acceptor molecule, acceptor atom, score
      L1  H     2    20       P1 10175  1.00
      P1  H  7989  7998       L1    16  0.90
      P1  H  7997  8009       L1    14  0.65
      P1  H  8011  8017       L1     9  0.94

> <Gold.PLP.Chemscore.Internal.Correction>
0.1154

> <Gold.Rescore>
     Score         DG    S(hbond)    S(metal)    S(lipo)     H(rot)  DE(clash)    DE(int)     intcor
      6.79     -11.33       2.52        0.00      34.77       2.59       0.95       3.59       ----

> <Gold.Chemscore.Fitness>
6.7852

> <Gold.Chemscore.DG>
-11.3308

> <Gold.Chemscore.ZeroCoef>
-5.4800

> <Gold.Chemscore.Hbond>
2.5154

> <Gold.Chemscore.Metal>
0.0000

> <Gold.Chemscore.Lipo>
34.7658

> <Gold.Chemscore.Internal_Hbond>
0.0000

> <Gold.Chemscore.DEClash>
0.9542

> <Gold.Chemscore.DEInternal>
3.5914

> <Gold.Chemscore.Rot>
2.5852

> <Gold.Chemscore.Internal.Correction>
   9.000000E+99

> <Gold.Chemscore.Hbonds>
donor molecule, donor type, donor heavy atom, donor atom, acceptor molecule, acceptor atom, score
      L1  H     2    20       P1 10175  1.00
      P1  H  7989  7998       L1    16  0.15
      P1  H  7997  8009       L1    14  0.09
      P1  H  8011  8017       L1     9  0.90

> <Gold.Chemscore.Hbond.Weighted>
-8.4014

> <Gold.Chemscore.Metal.Weighted>
-0.0000

> <Gold.Chemscore.Lipo.Weighted>
-4.0676

> <Gold.Chemscore.Internal_Hbond.Weighted>
0.0000

> <Gold.Chemscore.DEClash.Weighted>
0.9542

> <Gold.Chemscore.DEInternal.Weighted>
3.5914

> <Gold.Chemscore.Rot.Weighted>
6.6182

> <Gold.Chemscore.Internal.Correction.Weighted>
   9.000000E+99

> <Gold.Protein.RotatedTorsions>
[ 6907 6896 6895 6894 ] final  -46.52 input  -60.11 | X-H torsion
[ 7974 7965 7964 7962 ] final  163.40 input  175.53 | X-H torsion
[ 8008 7997 7996 7995 ] final -147.74 input   59.86 | X-H torsion
[ 10167 10162 10161 10158 ] final -170.97 input  -65.29 | X-H torsion
[ 10718 10713 10712 10709 ] final  151.96 input   66.30 | X-H torsion
[ 10763 10752 10751 10750 ] final -133.90 input  -60.55 | X-H torsion
[ 11005 11000 10999 10996 ] final  -34.95 input  -57.11 | X-H torsion

> <Gold.Protein.ActiveResidues>
 VAL166  LYS551  ARG553  GLY616  TRP617  ASP618  TYR619  PRO620  LYS621  CYS622 
 ASP623  PHE694  ASN695  SER759  ASP760  ASP761  ALA762  ILE779  LEU786  VAL792 
 PHE793  MET794  SER795  GLU796  ALA797  LYS798  CYS799  TRP800  GLU811  SER814 

> <Gold.Protein.RotatedAtoms>
  150.9104  134.8521  159.7421 H   0  0  0  0  0  0  0  0  0  0  0  0  # atno 6907 bound_to 6896
  152.4941  134.4367  159.9540 H   0  0  0  0  0  0  0  0  0  0  0  0  # atno 6908 bound_to 6896
  151.4410  133.3604  159.2817 H   0  0  0  0  0  0  0  0  0  0  0  0  # atno 6909 bound_to 6896
  144.7591  139.8177  143.6339 H   0  0  0  0  0  0  0  0  0  0  0  0  # atno 7974 bound_to 7965
  155.5805  140.0643  157.2784 H   0  0  0  0  0  0  0  0  0  0  0  0  # atno 8008 bound_to 7997
  154.4334  140.1853  156.1018 H   0  0  0  0  0  0  0  0  0  0  0  0  # atno 8009 bound_to 7997
  156.0309  140.3306  155.7142 H   0  0  0  0  0  0  0  0  0  0  0  0  # atno 8010 bound_to 7997
  139.5830  144.1381  152.1539 H   0  0  0  0  0  0  0  0  0  0  0  0  # atno 10167 bound_to 10162
  157.2639  131.0803  151.1646 H   0  0  0  0  0  0  0  0  0  0  0  0  # atno 10718 bound_to 10713
  154.8726  135.3751  154.4649 H   0  0  0  0  0  0  0  0  0  0  0  0  # atno 10763 bound_to 10752
  153.5314  135.7028  153.5686 H   0  0  0  0  0  0  0  0  0  0  0  0  # atno 10764 bound_to 10752
  153.3889  135.3977  155.1875 H   0  0  0  0  0  0  0  0  0  0  0  0  # atno 10765 bound_to 10752
  140.9757  133.7084  156.1598 H   0  0  0  0  0  0  0  0  0  0  0  0  # atno 11005 bound_to 11000
  146.1636  139.4759  142.9973 LP  0  0  0  0  0  0  0  0  0  0  0  0  # atno 17320 bound_to 7965
  145.6677  141.0224  143.1674 LP  0  0  0  0  0  0  0  0  0  0  0  0  # atno 17321 bound_to 7965
  140.0939  144.5597  150.7036 LP  0  0  0  0  0  0  0  0  0  0  0  0  # atno 17342 bound_to 10162
  140.7105  143.2502  151.4594 LP  0  0  0  0  0  0  0  0  0  0  0  0  # atno 17343 bound_to 10162
  157.3145  130.6906  149.6234 LP  0  0  0  0  0  0  0  0  0  0  0  0  # atno 17370 bound_to 10713
  155.9663  130.4353  150.5088 LP  0  0  0  0  0  0  0  0  0  0  0  0  # atno 17371 bound_to 10713
  140.7262  134.4304  157.5570 LP  0  0  0  0  0  0  0  0  0  0  0  0  # atno 17394 bound_to 11000
  139.8929  134.8742  156.2246 LP  0  0  0  0  0  0  0  0  0  0  0  0  # atno 17395 bound_to 11000

$$$$
