AV-unprocessed.smi:932|AV-procd|sdf|4200|dock1
  -GOLD-   22720 2103D 1   1.00000     0.00000
 Structure written by MMmdl.
 43 44  0  0  0  0  0  0  0  0  1 V2000
  146.3367  138.3790  154.5487 O   0  0  0  0  0  0  0  0  0  0  0  0
  147.1073  137.7296  153.8442 C   0  0  0  0  0  0  0  0  0  0  0  0
  146.7075  136.7318  153.0381 N   0  0  0  0  0  0  0  0  0  0  0  0
  145.3299  136.2857  152.8740 C   0  0  0  0  0  0  0  0  0  0  0  0
  144.9987  136.0141  151.3972 C   0  0  0  0  0  0  0  0  0  0  0  0
  145.2485  134.6323  151.0401 N   0  0  0  0  0  0  0  0  0  0  0  0
  146.4521  133.9455  151.1295 C   0  0  0  0  0  0  0  0  0  0  0  0
  146.2093  132.6676  150.6778 C   0  0  0  0  0  0  0  0  0  0  0  0
  144.8716  132.5472  150.3077 N   0  0  0  0  0  0  0  0  0  0  0  0
  144.3671  133.7505  150.5489 C   0  0  0  0  0  0  0  0  0  0  0  0
  148.4290  137.9838  153.8179 N   0  0  0  0  0  0  0  0  0  0  0  0
  149.1847  138.9932  154.5666 C   0  0  0  0  0  0  0  0  0  0  0  0
  148.7001  140.3819  154.0942 C   0  0  0  0  0  0  0  0  0  0  0  0
  149.2402  141.6176  154.8414 C   0  0  0  0  0  0  0  0  0  0  0  0
  149.2827  141.5039  156.3787 C   0  0  0  0  0  0  0  0  0  0  0  0
  150.6810  141.2204  156.9631 C   0  0  0  0  0  0  0  0  0  0  0  0
  151.2834  139.8292  156.6819 C   0  0  0  0  0  0  0  0  0  0  0  0
  151.6773  139.5861  155.2111 C   0  0  0  0  0  0  0  0  0  0  0  0
  150.6989  138.7209  154.3925 C   0  0  0  0  0  0  0  0  0  0  0  0
  147.4101  136.2542  152.4926 H   0  0  0  0  0  0  0  0  0  0  0  0
  145.1980  135.3749  153.4585 H   0  0  0  0  0  0  0  0  0  0  0  0
  144.6462  137.0264  153.2927 H   0  0  0  0  0  0  0  0  0  0  0  0
  143.9514  136.2370  151.1884 H   0  0  0  0  0  0  0  0  0  0  0  0
  145.5959  136.6560  150.7479 H   0  0  0  0  0  0  0  0  0  0  0  0
  147.3565  134.4087  151.4961 H   0  0  0  0  0  0  0  0  0  0  0  0
  146.8887  131.8325  150.5910 H   0  0  0  0  0  0  0  0  0  0  0  0
  143.3313  133.9968  150.3657 H   0  0  0  0  0  0  0  0  0  0  0  0
  148.9756  137.4178  153.1850 H   0  0  0  0  0  0  0  0  0  0  0  0
  148.9132  138.8871  155.6154 H   0  0  0  0  0  0  0  0  0  0  0  0
  148.9042  140.4993  153.0289 H   0  0  0  0  0  0  0  0  0  0  0  0
  147.6128  140.4017  154.1853 H   0  0  0  0  0  0  0  0  0  0  0  0
  150.2134  141.9110  154.4517 H   0  0  0  0  0  0  0  0  0  0  0  0
  148.5892  142.4535  154.5820 H   0  0  0  0  0  0  0  0  0  0  0  0
  148.9608  142.4630  156.7861 H   0  0  0  0  0  0  0  0  0  0  0  0
  148.5495  140.7862  156.7468 H   0  0  0  0  0  0  0  0  0  0  0  0
  151.3767  141.9911  156.6284 H   0  0  0  0  0  0  0  0  0  0  0  0
  150.6175  141.3411  158.0450 H   0  0  0  0  0  0  0  0  0  0  0  0
  152.1922  139.7540  157.2797 H   0  0  0  0  0  0  0  0  0  0  0  0
  150.6369  139.0365  157.0584 H   0  0  0  0  0  0  0  0  0  0  0  0
  151.8765  140.5291  154.7053 H   0  0  0  0  0  0  0  0  0  0  0  0
  152.6394  139.0722  155.1994 H   0  0  0  0  0  0  0  0  0  0  0  0
  150.8916  137.6827  154.6655 H   0  0  0  0  0  0  0  0  0  0  0  0
  150.9640  138.7939  153.3370 H   0  0  0  0  0  0  0  0  0  0  0  0
  1  2  2  0  0  0  0
  2  3  1  0  0  0  0
  2 11  1  0  0  0  0
  3  4  1  0  0  0  0
  3 20  1  0  0  0  0
  4  5  1  0  0  0  0
  4 21  1  0  0  0  0
  4 22  1  0  0  0  0
  5  6  1  0  0  0  0
  5 23  1  0  0  0  0
  5 24  1  0  0  0  0
  6 10  1  0  0  0  0
  6  7  1  0  0  0  0
  7  8  2  0  0  0  0
  7 25  1  0  0  0  0
  8  9  1  0  0  0  0
  8 26  1  0  0  0  0
  9 10  2  0  0  0  0
 10 27  1  0  0  0  0
 11 12  1  0  0  0  0
 11 28  1  0  0  0  0
 12 19  1  0  0  0  0
 12 13  1  0  0  0  0
 12 29  1  0  0  0  0
 13 14  1  0  0  0  0
 13 30  1  0  0  0  0
 13 31  1  0  0  0  0
 14 15  1  0  0  0  0
 14 32  1  0  0  0  0
 14 33  1  0  0  0  0
 15 16  1  0  0  0  0
 15 34  1  0  0  0  0
 15 35  1  0  0  0  0
 16 17  1  0  0  0  0
 16 36  1  0  0  0  0
 16 37  1  0  0  0  0
 17 18  1  0  0  0  0
 17 38  1  0  0  0  0
 17 39  1  0  0  0  0
 18 19  1  0  0  0  0
 18 40  1  0  0  0  0
 18 41  1  0  0  0  0
 19 42  1  0  0  0  0
 19 43  1  0  0  0  0
M  END
> <s_m_source_file>
AV-unprocessed.smi

> <i_m_source_file_index>
932

> <i_lp_mmshare_version>
43012

> <i_f3d_flags>
0

> <s_epik_input>
W2NIXTFuW2NIXVtjSF1uMVtDSDJdW0NIMl1bTkhdQyg9TylbTkhdW0NIXTJbQ0gyXVtDSDJdW0NIMl1bQ0gyXVtDSDJdW0NIMl1bQ0gyXTI=

> <s_epik_cmdline>
J2VwaWtfcHl0aG9uJywgJy1waCcsICc3LjAnLCAnLXRuJywgJzgnLCAnLW1hJywgJzIwMCcsICctbWV0YWxfYmluZGluZycsICctaW1hZScsICc8aW5maWxlLm1hZT4nLCAnLW9tYWUnLCAnPG91dGZpbGUubWFlPic=

> <r_lp_tautomer_probability>
1

> <r_epik_Ionization_Penalty>
0.623246

> <r_epik_Ionization_Penalty_Charging>
0.623187

> <r_epik_Ionization_Penalty_Neutral>
5.92239e-05

> <r_epik_State_Penalty>
0.639392

> <r_epik_Charging_Adjusted_Penalty>
1.26258

> <i_epik_Tot_Q>
0

> <i_epik_Tot_abs_Q>
0

> <r_epik_Metal_State_Penalty>
0.307266

> <b_epik_Metal_Only>
0

> <s_lp_Force_Field>
OPLS_2005

> <r_lp_Energy>
28.9425

> <b_lp_Chiralities_Consistent>
1

> <s_lp_Variant>
AV-unprocessed.smi:932-2

> <Gold.Version>
5.8.1

> <Gold.Id.Protein>
6NUR|6NUR_protein|mol2

> <Gold.PLP.Fitness>
47.5357

> <Gold.PLP.PLP>
-33.3996

> <Gold.PLP.part.hbond>
-2.0000

> <Gold.PLP.part.metal>
0.0000

> <Gold.PLP.part.buried>
-1.3907

> <Gold.PLP.part.nonpolar>
-30.0810

> <Gold.PLP.part.repulsive>
0.2566

> <Gold.PLP.ligand.clash>
0.0000

> <Gold.PLP.ligand.torsion>
0.3815

> <Gold.PLP.Chemscore.Hbond>
1.9520

> <Gold.PLP.Chemscore.CHOScore>
3.0000

> <Gold.PLP.Chemscore.Metal>
0.0000

> <Gold.Chemscore.Hbonds>
donor molecule, donor type, donor heavy atom, donor atom, acceptor molecule, acceptor atom, score
      L1  H     3    20       P1  7948  0.99
      L1  H    11    28       P1  7948  0.96
      L1  C     7    25       P1  7948  1.00
      L1  C     8    26       P1 10747  1.00
      L1  C    10    27       P1 10186  1.00

> <Gold.PLP.Chemscore.Internal.Correction>
0.0431

> <Gold.Rescore>
     Score         DG    S(hbond)    S(metal)    S(lipo)     H(rot)  DE(clash)    DE(int)     intcor
     15.74     -16.19       1.90        0.00      77.45       1.83       0.07       0.38       ----

> <Gold.Chemscore.Fitness>
15.7387

> <Gold.Chemscore.DG>
-16.1935

> <Gold.Chemscore.ZeroCoef>
-5.4800

> <Gold.Chemscore.Hbond>
1.8977

> <Gold.Chemscore.Metal>
0.0000

> <Gold.Chemscore.Lipo>
77.4500

> <Gold.Chemscore.Internal_Hbond>
0.0000

> <Gold.Chemscore.DEClash>
0.0717

> <Gold.Chemscore.DEInternal>
0.3831

> <Gold.Chemscore.Rot>
1.8307

> <Gold.Chemscore.Internal.Correction>
   9.000000E+99

> <Gold.Chemscore.Hbonds>
donor molecule, donor type, donor heavy atom, donor atom, acceptor molecule, acceptor atom, score
      L1  H     3    20       P1  7948  0.94
      L1  H    11    28       P1  7948  0.92

> <Gold.Chemscore.Hbond.Weighted>
-6.3384

> <Gold.Chemscore.Metal.Weighted>
-0.0000

> <Gold.Chemscore.Lipo.Weighted>
-9.0616

> <Gold.Chemscore.Internal_Hbond.Weighted>
0.0000

> <Gold.Chemscore.DEClash.Weighted>
0.0717

> <Gold.Chemscore.DEInternal.Weighted>
0.3831

> <Gold.Chemscore.Rot.Weighted>
4.6866

> <Gold.Chemscore.Internal.Correction.Weighted>
   9.000000E+99

> <Gold.Protein.RotatedTorsions>
[ 6907 6896 6895 6894 ] final  -51.97 input  -60.11 | X-H torsion
[ 7974 7965 7964 7962 ] final  129.25 input  175.53 | X-H torsion
[ 8008 7997 7996 7995 ] final -115.82 input   59.86 | X-H torsion
[ 10167 10162 10161 10158 ] final  114.63 input  -65.29 | X-H torsion
[ 10718 10713 10712 10709 ] final   55.24 input   66.30 | X-H torsion
[ 10763 10752 10751 10750 ] final -113.89 input  -60.55 | X-H torsion
[ 11005 11000 10999 10996 ] final   98.61 input  -57.11 | X-H torsion

> <Gold.Protein.ActiveResidues>
 VAL166  LYS551  ARG553  GLY616  TRP617  ASP618  TYR619  PRO620  LYS621  CYS622 
 ASP623  PHE694  ASN695  SER759  ASP760  ASP761  ALA762  ILE779  LEU786  VAL792 
 PHE793  MET794  SER795  GLU796  ALA797  LYS798  CYS799  TRP800  GLU811  SER814 

> <Gold.Protein.RotatedAtoms>
  150.8561  134.7900  159.7046 H   0  0  0  0  0  0  0  0  0  0  0  0  # atno 6907 bound_to 6896
  152.4612  134.5176  159.9782 H   0  0  0  0  0  0  0  0  0  0  0  0  # atno 6908 bound_to 6896
  151.5288  133.3414  159.2950 H   0  0  0  0  0  0  0  0  0  0  0  0  # atno 6909 bound_to 6896
  145.0307  139.4049  143.5151 H   0  0  0  0  0  0  0  0  0  0  0  0  # atno 7974 bound_to 7965
  155.0580  140.0393  157.2567 H   0  0  0  0  0  0  0  0  0  0  0  0  # atno 8008 bound_to 7997
  154.7083  140.2687  155.6629 H   0  0  0  0  0  0  0  0  0  0  0  0  # atno 8009 bound_to 7997
  156.2782  140.2727  156.1716 H   0  0  0  0  0  0  0  0  0  0  0  0  # atno 8010 bound_to 7997
  139.6375  144.7121  151.2305 H   0  0  0  0  0  0  0  0  0  0  0  0  # atno 10167 bound_to 10162
  157.5327  130.8642  149.8710 H   0  0  0  0  0  0  0  0  0  0  0  0  # atno 10718 bound_to 10713
  154.8416  135.4437  154.1420 H   0  0  0  0  0  0  0  0  0  0  0  0  # atno 10763 bound_to 10752
  153.2603  135.6935  153.7591 H   0  0  0  0  0  0  0  0  0  0  0  0  # atno 10764 bound_to 10752
  153.6870  135.3393  155.3168 H   0  0  0  0  0  0  0  0  0  0  0  0  # atno 10765 bound_to 10752
  139.8772  134.9057  156.4482 H   0  0  0  0  0  0  0  0  0  0  0  0  # atno 11005 bound_to 11000
  146.3498  139.9855  142.8691 LP  0  0  0  0  0  0  0  0  0  0  0  0  # atno 17320 bound_to 7965
  145.1774  140.9751  143.4286 LP  0  0  0  0  0  0  0  0  0  0  0  0  # atno 17321 bound_to 7965
  140.7473  143.6370  150.8370 LP  0  0  0  0  0  0  0  0  0  0  0  0  # atno 17342 bound_to 10162
  140.0003  143.5751  152.2878 LP  0  0  0  0  0  0  0  0  0  0  0  0  # atno 17343 bound_to 10162
  156.0435  130.3733  150.1376 LP  0  0  0  0  0  0  0  0  0  0  0  0  # atno 17370 bound_to 10713
  156.9560  130.9790  151.3489 LP  0  0  0  0  0  0  0  0  0  0  0  0  # atno 17371 bound_to 10713
  140.8951  133.7820  155.9616 LP  0  0  0  0  0  0  0  0  0  0  0  0  # atno 17394 bound_to 11000
  140.8712  134.2724  157.5190 LP  0  0  0  0  0  0  0  0  0  0  0  0  # atno 17395 bound_to 11000

$$$$
