AV-unprocessed.smi:213|AV-procd|sdf|1641|dock8
  -GOLD-   2262020 13D 1   1.00000     0.00000
 Structure written by MMmdl.
 58 61  0  0  0  0  0  0  0  0  1 V2000
  148.4135  141.0118  157.4069 C   0  0  0  0  0  0  0  0  0  0  0  0
  149.8626  140.5060  157.5182 C   0  0  2  0  0  0  0  0  0  0  0  0
  150.9006  141.6316  157.3096 C   0  0  0  0  0  0  0  0  0  0  0  0
  151.1751  142.4658  158.4805 N   0  0  0  0  0  0  0  0  0  0  0  0
  151.4210  143.8492  158.0874 C   0  0  0  0  0  0  0  0  0  0  0  0
  151.7054  144.7512  159.3006 C   0  0  0  0  0  0  0  0  0  0  0  0
  152.8126  144.2317  160.0295 O   0  0  0  0  0  0  0  0  0  0  0  0
  152.5967  142.8967  160.4742 C   0  0  0  0  0  0  0  0  0  0  0  0
  152.3110  141.9871  159.2664 C   0  0  0  0  0  0  0  0  0  0  0  0
  150.1017  139.3972  156.5901 N   0  0  0  0  0  0  0  0  0  0  0  0
  150.6094  139.6407  155.2412 C   0  0  0  0  0  0  0  0  0  0  0  0
  149.9732  138.1089  157.0062 C   0  0  0  0  0  0  0  0  0  0  0  0
  149.6081  137.8836  158.2969 N   0  0  0  0  0  0  0  0  0  0  0  0
  149.4654  136.6374  158.7563 C   0  0  0  0  0  0  0  0  0  0  0  0
  149.6414  135.4851  158.1090 N   0  0  0  0  0  0  0  0  0  0  0  0
  150.0214  135.6994  156.8174 C   0  0  0  0  0  0  0  0  0  0  0  0
  150.2109  136.9636  156.1882 C   0  0  0  0  0  0  0  0  0  0  0  0
  150.6200  136.7694  154.8721 N   0  0  0  0  0  0  0  0  0  0  0  0
  150.6545  135.4730  154.7294 C   0  0  0  0  0  0  0  0  0  0  0  0
  150.3112  134.7543  155.8506 N   0  0  0  0  0  0  0  0  0  0  0  0
  150.2749  133.3094  155.9852 C   0  0  0  0  0  0  0  0  0  0  0  0
  149.4573  132.6412  154.8630 C   0  0  2  0  0  0  0  0  0  0  0  0
  148.1684  133.2183  154.7777 O   0  0  0  0  0  0  0  0  0  0  0  0
  149.3578  131.1114  155.0249 C   0  0  2  0  0  0  0  0  0  0  0  0
  150.6800  130.3460  155.1169 C   0  0  0  0  0  0  0  0  0  0  0  0
  150.2375  128.9548  154.7220 C   0  0  0  0  0  0  0  0  0  0  0  0
  149.2090  129.2475  153.6308 C   0  0  0  0  0  0  0  0  0  0  0  0
  148.6282  130.5074  153.9598 O   0  0  0  0  0  0  0  0  0  0  0  0
  148.2035  141.7711  158.1602 H   0  0  0  0  0  0  0  0  0  0  0  0
  147.7031  140.1988  157.5593 H   0  0  0  0  0  0  0  0  0  0  0  0
  148.2110  141.4528  156.4311 H   0  0  0  0  0  0  0  0  0  0  0  0
  150.0069  140.1361  158.5297 H   0  0  0  0  0  0  0  0  0  0  0  0
  151.8354  141.1941  156.9554 H   0  0  0  0  0  0  0  0  0  0  0  0
  150.5489  142.2730  156.5006 H   0  0  0  0  0  0  0  0  0  0  0  0
  152.2675  143.8938  157.4000 H   0  0  0  0  0  0  0  0  0  0  0  0
  150.5588  144.2393  157.5453 H   0  0  0  0  0  0  0  0  0  0  0  0
  151.9366  145.7650  158.9740 H   0  0  0  0  0  0  0  0  0  0  0  0
  150.8303  144.8140  159.9493 H   0  0  0  0  0  0  0  0  0  0  0  0
  153.4813  142.5512  161.0090 H   0  0  0  0  0  0  0  0  0  0  0  0
  151.7652  142.8721  161.1802 H   0  0  0  0  0  0  0  0  0  0  0  0
  152.1234  140.9793  159.6346 H   0  0  0  0  0  0  0  0  0  0  0  0
  153.2004  141.9313  158.6368 H   0  0  0  0  0  0  0  0  0  0  0  0
  150.1250  138.9807  154.5206 H   0  0  0  0  0  0  0  0  0  0  0  0
  151.6850  139.4662  155.2015 H   0  0  0  0  0  0  0  0  0  0  0  0
  150.4243  140.6669  154.9252 H   0  0  0  0  0  0  0  0  0  0  0  0
  149.1689  136.5518  159.7913 H   0  0  0  0  0  0  0  0  0  0  0  0
  150.9416  135.0029  153.8000 H   0  0  0  0  0  0  0  0  0  0  0  0
  151.3013  132.9407  155.9753 H   0  0  0  0  0  0  0  0  0  0  0  0
  149.8631  133.0599  156.9640 H   0  0  0  0  0  0  0  0  0  0  0  0
  149.9499  132.8421  153.9108 H   0  0  0  0  0  0  0  0  0  0  0  0
  147.8563  133.1167  153.8916 H   0  0  0  0  0  0  0  0  0  0  0  0
  148.7896  130.9013  155.9327 H   0  0  0  0  0  0  0  0  0  0  0  0
  151.4114  130.7143  154.3967 H   0  0  0  0  0  0  0  0  0  0  0  0
  151.1278  130.3875  156.1101 H   0  0  0  0  0  0  0  0  0  0  0  0
  151.0574  128.3239  154.3776 H   0  0  0  0  0  0  0  0  0  0  0  0
  149.7579  128.4609  155.5683 H   0  0  0  0  0  0  0  0  0  0  0  0
  149.6995  129.3378  152.6609 H   0  0  0  0  0  0  0  0  0  0  0  0
  148.4510  128.4675  153.5555 H   0  0  0  0  0  0  0  0  0  0  0  0
  1  2  1  0  0  0  0
  1 29  1  0  0  0  0
  1 30  1  0  0  0  0
  1 31  1  0  0  0  0
  2  3  1  0  0  0  0
  2 10  1  0  0  0  0
  2 32  1  0  0  0  0
  3  4  1  0  0  0  0
  3 33  1  0  0  0  0
  3 34  1  0  0  0  0
  4  9  1  0  0  0  0
  4  5  1  0  0  0  0
  5  6  1  0  0  0  0
  5 35  1  0  0  0  0
  5 36  1  0  0  0  0
  6  7  1  0  0  0  0
  6 37  1  0  0  0  0
  6 38  1  0  0  0  0
  7  8  1  0  0  0  0
  8  9  1  0  0  0  0
  8 39  1  0  0  0  0
  8 40  1  0  0  0  0
  9 41  1  0  0  0  0
  9 42  1  0  0  0  0
 10 11  1  0  0  0  0
 10 12  1  0  0  0  0
 11 43  1  0  0  0  0
 11 44  1  0  0  0  0
 11 45  1  0  0  0  0
 12 17  1  0  0  0  0
 12 13  2  0  0  0  0
 13 14  1  0  0  0  0
 14 15  2  0  0  0  0
 14 46  1  0  0  0  0
 15 16  1  0  0  0  0
 16 20  1  0  0  0  0
 16 17  2  0  0  0  0
 17 18  1  0  0  0  0
 18 19  2  0  0  0  0
 19 20  1  0  0  0  0
 19 47  1  0  0  0  0
 20 21  1  0  0  0  0
 21 22  1  0  0  0  0
 21 48  1  0  0  0  0
 21 49  1  0  0  0  0
 22 23  1  0  0  0  0
 22 24  1  0  0  0  0
 22 50  1  0  0  0  0
 23 51  1  0  0  0  0
 24 28  1  0  0  0  0
 24 25  1  0  0  0  0
 24 52  1  0  0  0  0
 25 26  1  0  0  0  0
 25 53  1  0  0  0  0
 25 54  1  0  0  0  0
 26 27  1  0  0  0  0
 26 55  1  0  0  0  0
 26 56  1  0  0  0  0
 27 28  1  0  0  0  0
 27 57  1  0  0  0  0
 27 58  1  0  0  0  0
M  END
> <s_m_source_file>
AV-unprocessed.smi

> <i_m_source_file_index>
213

> <i_lp_mmshare_version>
43012

> <i_f3d_flags>
0

> <s_epik_input>
W0NIMl0xW0NIMl1PW0NIMl1bQ0gyXU4xW0NIMl1bQ0BASF0oW0NIM10pTihbQ0gzXSljKG5bY0hdbjIpYyhjMjMpbltjSF1uM1tDSDJdW0NASF0oW09IXSlbQ0BASF00W0NIMl1bQ0gyXVtDSDJdTzQ=

> <s_epik_cmdline>
J2VwaWtfcHl0aG9uJywgJy1waCcsICc3LjAnLCAnLXRuJywgJzgnLCAnLW1hJywgJzIwMCcsICctbWV0YWxfYmluZGluZycsICctaW1hZScsICc8aW5maWxlLm1hZT4nLCAnLW9tYWUnLCAnPG91dGZpbGUubWFlPic=

> <r_lp_tautomer_probability>
1

> <r_epik_Ionization_Penalty>
0.423322

> <r_epik_Ionization_Penalty_Charging>
0

> <r_epik_Ionization_Penalty_Neutral>
0.423322

> <r_epik_State_Penalty>
0.569486

> <r_epik_Charging_Adjusted_Penalty>
0.569486

> <i_epik_Tot_Q>
0

> <i_epik_Tot_abs_Q>
0

> <r_epik_Metal_State_Penalty>
0.568671

> <b_epik_Metal_Only>
0

> <s_lp_Force_Field>
OPLS_2005

> <r_lp_Energy>
51.8913

> <b_lp_Chiralities_Consistent>
1

> <s_lp_Variant>
AV-unprocessed.smi:213-9

> <Gold.Version>
5.8.1

> <Gold.Id.Protein>
6NUR|6NUR_protein|mol2

> <Gold.PLP.Fitness>
41.8533

> <Gold.PLP.PLP>
-40.3027

> <Gold.PLP.part.hbond>
-1.0000

> <Gold.PLP.part.metal>
0.0000

> <Gold.PLP.part.buried>
-4.2454

> <Gold.PLP.part.nonpolar>
-35.6040

> <Gold.PLP.part.repulsive>
0.2983

> <Gold.PLP.ligand.clash>
0.0000

> <Gold.PLP.ligand.torsion>
1.4999

> <Gold.PLP.Chemscore.Hbond>
0.6864

> <Gold.PLP.Chemscore.CHOScore>
0.7111

> <Gold.PLP.Chemscore.Metal>
0.0000

> <Gold.Chemscore.Hbonds>
donor molecule, donor type, donor heavy atom, donor atom, acceptor molecule, acceptor atom, score
      P1  H  6896  6907       L1    15  0.64
      L1  C    19    47       P1  7949  0.66

> <Gold.PLP.Chemscore.Internal.Correction>
0.3579

> <Gold.Rescore>
     Score         DG    S(hbond)    S(metal)    S(lipo)     H(rot)  DE(clash)    DE(int)     intcor
      8.57     -11.40       0.58        0.00      93.88       2.74       0.01       2.82       ----

> <Gold.Chemscore.Fitness>
8.5661

> <Gold.Chemscore.DG>
-11.4043

> <Gold.Chemscore.ZeroCoef>
-5.4800

> <Gold.Chemscore.Hbond>
0.5836

> <Gold.Chemscore.Metal>
0.0000

> <Gold.Chemscore.Lipo>
93.8776

> <Gold.Chemscore.Internal_Hbond>
0.0000

> <Gold.Chemscore.DEClash>
0.0149

> <Gold.Chemscore.DEInternal>
2.8234

> <Gold.Chemscore.Rot>
2.7378

> <Gold.Chemscore.Internal.Correction>
   9.000000E+99

> <Gold.Chemscore.Hbonds>
donor molecule, donor type, donor heavy atom, donor atom, acceptor molecule, acceptor atom, score
      P1  H  6896  6907       L1    15  0.43

> <Gold.Chemscore.Hbond.Weighted>
-1.9493

> <Gold.Chemscore.Metal.Weighted>
-0.0000

> <Gold.Chemscore.Lipo.Weighted>
-10.9837

> <Gold.Chemscore.Internal_Hbond.Weighted>
0.0000

> <Gold.Chemscore.DEClash.Weighted>
0.0149

> <Gold.Chemscore.DEInternal.Weighted>
2.8234

> <Gold.Chemscore.Rot.Weighted>
7.0087

> <Gold.Chemscore.Internal.Correction.Weighted>
   9.000000E+99

> <Gold.Protein.RotatedTorsions>
[ 6907 6896 6895 6894 ] final  -99.24 input  -60.11 | X-H torsion
[ 7974 7965 7964 7962 ] final  -78.62 input  175.53 | X-H torsion
[ 8008 7997 7996 7995 ] final   49.73 input   59.86 | X-H torsion
[ 10167 10162 10161 10158 ] final  144.39 input  -65.29 | X-H torsion
[ 10718 10713 10712 10709 ] final  -69.55 input   66.30 | X-H torsion
[ 10763 10752 10751 10750 ] final  -56.00 input  -60.55 | X-H torsion
[ 11005 11000 10999 10996 ] final  150.08 input  -57.11 | X-H torsion

> <Gold.Protein.ActiveResidues>
 VAL166  LYS551  ARG553  GLY616  TRP617  ASP618  TYR619  PRO620  LYS621  CYS622 
 ASP623  PHE694  ASN695  SER759  ASP760  ASP761  ALA762  ILE779  LEU786  VAL792 
 PHE793  MET794  SER795  GLU796  ALA797  LYS798  CYS799  TRP800  GLU811  SER814 

> <Gold.Protein.RotatedAtoms>
  150.7073  134.1071  159.3986 H   0  0  0  0  0  0  0  0  0  0  0  0  # atno 6907 bound_to 6896
  151.9058  135.0357  160.0519 H   0  0  0  0  0  0  0  0  0  0  0  0  # atno 6908 bound_to 6896
  152.2377  133.5074  159.5288 H   0  0  0  0  0  0  0  0  0  0  0  0  # atno 6909 bound_to 6896
  145.5840  140.9443  143.1328 H   0  0  0  0  0  0  0  0  0  0  0  0  # atno 7974 bound_to 7965
  155.4071  140.3440  155.4261 H   0  0  0  0  0  0  0  0  0  0  0  0  # atno 8008 bound_to 7997
  156.1470  140.1559  156.8863 H   0  0  0  0  0  0  0  0  0  0  0  0  # atno 8009 bound_to 7997
  154.5019  140.0812  156.7796 H   0  0  0  0  0  0  0  0  0  0  0  0  # atno 8010 bound_to 7997
  139.4948  144.5975  151.6552 H   0  0  0  0  0  0  0  0  0  0  0  0  # atno 10167 bound_to 10162
  156.0450  130.4315  150.2165 H   0  0  0  0  0  0  0  0  0  0  0  0  # atno 10718 bound_to 10713
  154.1997  135.6413  153.5083 H   0  0  0  0  0  0  0  0  0  0  0  0  # atno 10763 bound_to 10752
  153.0015  135.5448  154.6328 H   0  0  0  0  0  0  0  0  0  0  0  0  # atno 10764 bound_to 10752
  154.5738  135.2919  155.0774 H   0  0  0  0  0  0  0  0  0  0  0  0  # atno 10765 bound_to 10752
  140.1100  134.8930  157.1922 H   0  0  0  0  0  0  0  0  0  0  0  0  # atno 11005 bound_to 11000
  144.7381  139.7528  143.7321 LP  0  0  0  0  0  0  0  0  0  0  0  0  # atno 17320 bound_to 7965
  146.1695  139.4840  142.9936 LP  0  0  0  0  0  0  0  0  0  0  0  0  # atno 17321 bound_to 7965
  140.5616  144.0258  150.6172 LP  0  0  0  0  0  0  0  0  0  0  0  0  # atno 17342 bound_to 10162
  140.3346  143.3056  152.0651 LP  0  0  0  0  0  0  0  0  0  0  0  0  # atno 17343 bound_to 10162
  157.0255  130.9992  151.3327 LP  0  0  0  0  0  0  0  0  0  0  0  0  # atno 17370 bound_to 10713
  157.5314  130.8061  149.7921 LP  0  0  0  0  0  0  0  0  0  0  0  0  # atno 17371 bound_to 10713
  140.3104  134.3031  155.7268 LP  0  0  0  0  0  0  0  0  0  0  0  0  # atno 17394 bound_to 11000
  141.2128  133.7646  156.9768 LP  0  0  0  0  0  0  0  0  0  0  0  0  # atno 17395 bound_to 11000

$$$$
