AV-unprocessed.smi:1916|AV-procd|sdf|7767|dock7
  -GOLD-   22720 9513D 1   1.00000     0.00000
 Structure written by MMmdl.
 46 48  0  0  0  0  0  0  0  0  2 V2000
  149.6008  139.7114  154.1370 O   0  0  0  0  0  0  0  0  0  0  0  0
  148.8837  140.6814  154.3831 C   0  0  0  0  0  0  0  0  0  0  0  0
  149.2517  141.6771  155.2033 N   0  0  0  0  0  0  0  0  0  0  0  0
  150.5279  141.7583  155.9086 C   0  0  0  0  0  0  0  0  0  0  0  0
  150.3885  141.7304  157.4455 C   0  0  0  0  0  0  0  0  0  0  0  0
  151.1600  142.8302  158.1551 C   0  0  0  0  0  0  0  0  0  0  0  0
  152.1543  142.5471  159.1163 C   0  0  0  0  0  0  0  0  0  0  0  0
  152.8453  143.6143  159.7275 C   0  0  0  0  0  0  0  0  0  0  0  0
  152.5297  144.9400  159.3640 C   0  0  0  0  0  0  0  0  0  0  0  0
  151.5283  145.1659  158.3977 C   0  0  0  0  0  0  0  0  0  0  0  0
  150.8880  144.1172  157.8365 N   0  3  0  0  0  0  0  0  0  0  0  0
  147.4811  140.7863  153.7644 C   0  0  1  0  0  0  0  0  0  0  0  0
  147.5058  140.5072  152.2504 C   0  0  0  0  0  0  0  0  0  0  0  0
  146.7706  139.1852  152.1069 C   0  0  0  0  0  0  0  0  0  0  0  0
  146.6691  138.6028  151.0286 O   0  0  0  0  0  0  0  0  0  0  0  0
  146.2784  138.7723  153.2849 N   0  0  0  0  0  0  0  0  0  0  0  0
  145.5007  137.5585  153.5727 C   0  0  0  0  0  0  0  0  0  0  0  0
  145.4820  136.5513  152.4012 C   0  0  0  0  0  0  0  0  0  0  0  0
  144.0283  136.4714  151.9289 C   0  0  0  0  0  0  0  0  0  0  0  0
  143.2065  136.7948  153.1731 C   0  0  0  0  0  0  0  0  0  0  0  0
  144.0239  137.8616  153.9032 C   0  0  0  0  0  0  0  0  0  0  0  0
  146.5065  139.7408  154.3463 C   0  0  0  0  0  0  0  0  0  0  0  0
  148.6020  142.4371  155.3467 H   0  0  0  0  0  0  0  0  0  0  0  0
  151.1900  140.9583  155.5738 H   0  0  0  0  0  0  0  0  0  0  0  0
  151.0017  142.6933  155.6084 H   0  0  0  0  0  0  0  0  0  0  0  0
  149.3362  141.8091  157.7222 H   0  0  0  0  0  0  0  0  0  0  0  0
  150.7219  140.7635  157.8237 H   0  0  0  0  0  0  0  0  0  0  0  0
  152.3875  141.5259  159.3811 H   0  0  0  0  0  0  0  0  0  0  0  0
  153.6097  143.4179  160.4652 H   0  0  0  0  0  0  0  0  0  0  0  0
  153.0481  145.7709  159.8201 H   0  0  0  0  0  0  0  0  0  0  0  0
  151.2227  146.1451  158.0589 H   0  0  0  0  0  0  0  0  0  0  0  0
  147.0871  141.7879  153.9458 H   0  0  0  0  0  0  0  0  0  0  0  0
  146.9702  141.2813  151.7002 H   0  0  0  0  0  0  0  0  0  0  0  0
  148.5113  140.4321  151.8329 H   0  0  0  0  0  0  0  0  0  0  0  0
  145.9492  137.0576  154.4323 H   0  0  0  0  0  0  0  0  0  0  0  0
  146.1617  136.8099  151.5882 H   0  0  0  0  0  0  0  0  0  0  0  0
  145.7926  135.5723  152.7681 H   0  0  0  0  0  0  0  0  0  0  0  0
  143.8448  137.2259  151.1631 H   0  0  0  0  0  0  0  0  0  0  0  0
  143.7794  135.4997  151.5019 H   0  0  0  0  0  0  0  0  0  0  0  0
  142.1969  137.1302  152.9349 H   0  0  0  0  0  0  0  0  0  0  0  0
  143.1229  135.9046  153.7980 H   0  0  0  0  0  0  0  0  0  0  0  0
  143.8341  137.8574  154.9768 H   0  0  0  0  0  0  0  0  0  0  0  0
  143.7302  138.8441  153.5320 H   0  0  0  0  0  0  0  0  0  0  0  0
  146.8952  139.2483  155.2397 H   0  0  0  0  0  0  0  0  0  0  0  0
  145.5578  140.2067  154.6161 H   0  0  0  0  0  0  0  0  0  0  0  0
  150.1672  144.3024  157.1382 H   0  0  0  0  0  0  0  0  0  0  0  0
  1  2  2  0  0  0  0
  2  3  1  0  0  0  0
  2 12  1  0  0  0  0
  3  4  1  0  0  0  0
  3 23  1  0  0  0  0
  4  5  1  0  0  0  0
  4 24  1  0  0  0  0
  4 25  1  0  0  0  0
  5  6  1  0  0  0  0
  5 26  1  0  0  0  0
  5 27  1  0  0  0  0
  6 11  1  0  0  0  0
  6  7  2  0  0  0  0
  7  8  1  0  0  0  0
  7 28  1  0  0  0  0
  8  9  2  0  0  0  0
  8 29  1  0  0  0  0
  9 10  1  0  0  0  0
  9 30  1  0  0  0  0
 10 11  2  0  0  0  0
 10 31  1  0  0  0  0
 11 46  1  0  0  0  0
 12 22  1  0  0  0  0
 12 13  1  0  0  0  0
 12 32  1  0  0  0  0
 13 14  1  0  0  0  0
 13 33  1  0  0  0  0
 13 34  1  0  0  0  0
 14 15  2  0  0  0  0
 14 16  1  0  0  0  0
 16 17  1  0  0  0  0
 16 22  1  0  0  0  0
 17 21  1  0  0  0  0
 17 18  1  0  0  0  0
 17 35  1  0  0  0  0
 18 19  1  0  0  0  0
 18 36  1  0  0  0  0
 18 37  1  0  0  0  0
 19 20  1  0  0  0  0
 19 38  1  0  0  0  0
 19 39  1  0  0  0  0
 20 21  1  0  0  0  0
 20 40  1  0  0  0  0
 20 41  1  0  0  0  0
 21 42  1  0  0  0  0
 21 43  1  0  0  0  0
 22 44  1  0  0  0  0
 22 45  1  0  0  0  0
M  CHG  1  11   1
M  END
> <s_m_source_file>
AV-unprocessed.smi

> <i_m_source_file_index>
1916

> <i_lp_mmshare_version>
43012

> <i_f3d_flags>
0

> <s_epik_input>
W0NIMl0xW0NIMl1bQ0gyXVtDSDJdW0NIXTFOKFtDSDJdMilDKD1PKVtDSDJdW0NASF0yQyg9TylbTkhdW0NIMl1bQ0gyXWMzW2NIXVtjSF1bY0hdW2NIXW4z

> <s_epik_cmdline>
J2VwaWtfcHl0aG9uJywgJy1waCcsICc3LjAnLCAnLXRuJywgJzgnLCAnLW1hJywgJzIwMCcsICctbWV0YWxfYmluZGluZycsICctaW1hZScsICc8aW5maWxlLm1hZT4nLCAnLW9tYWUnLCAnPG91dGZpbGUubWFlPic=

> <r_epik_Ionization_Penalty>
1.88249

> <r_epik_Ionization_Penalty_Charging>
1.88249

> <r_epik_Ionization_Penalty_Neutral>
3.64574e-08

> <r_epik_State_Penalty>
2.00238

> <r_epik_Charging_Adjusted_Penalty>
3.88487

> <i_epik_Tot_Q>
1

> <i_epik_Tot_abs_Q>
1

> <r_epik_Metal_State_Penalty>
2.02676

> <b_epik_Metal_Only>
0

> <s_lp_Force_Field>
OPLS_2005

> <r_lp_Energy>
36.1777

> <b_lp_Chiralities_Consistent>
1

> <s_lp_Variant>
AV-unprocessed.smi:1916-4

> <Gold.Version>
5.8.1

> <Gold.Id.Protein>
6NUR|6NUR_protein|mol2

> <Gold.PLP.Fitness>
47.8591

> <Gold.PLP.PLP>
-39.7295

> <Gold.PLP.part.hbond>
-3.0470

> <Gold.PLP.part.metal>
0.0000

> <Gold.PLP.part.buried>
-1.6206

> <Gold.PLP.part.nonpolar>
-36.4375

> <Gold.PLP.part.repulsive>
1.9601

> <Gold.PLP.ligand.clash>
0.4035

> <Gold.PLP.ligand.torsion>
0.7348

> <Gold.PLP.Chemscore.Hbond>
3.3112

> <Gold.PLP.Chemscore.CHOScore>
0.0000

> <Gold.PLP.Chemscore.Metal>
0.0000

> <Gold.Chemscore.Hbonds>
donor molecule, donor type, donor heavy atom, donor atom, acceptor molecule, acceptor atom, score
      L1  H     3    23       P1  8028  0.20
      L1  H    11    46       P1  8028  2.00
      P1  H  7954  7966       L1    15  0.99
      P1  H  7989  7998       L1     1  0.04

> <Gold.PLP.Chemscore.Internal.Correction>
0.0690

> <Gold.Rescore>
     Score         DG    S(hbond)    S(metal)    S(lipo)     H(rot)  DE(clash)    DE(int)     intcor
     14.86     -20.51       1.94        0.00     110.65       1.72       3.60       2.04       ----

> <Gold.Chemscore.Fitness>
14.8562

> <Gold.Chemscore.DG>
-20.5053

> <Gold.Chemscore.ZeroCoef>
-5.4800

> <Gold.Chemscore.Hbond>
1.9374

> <Gold.Chemscore.Metal>
0.0000

> <Gold.Chemscore.Lipo>
110.6545

> <Gold.Chemscore.Internal_Hbond>
0.0000

> <Gold.Chemscore.DEClash>
3.6044

> <Gold.Chemscore.DEInternal>
2.0447

> <Gold.Chemscore.Rot>
1.7158

> <Gold.Chemscore.Internal.Correction>
   9.000000E+99

> <Gold.Chemscore.Hbonds>
donor molecule, donor type, donor heavy atom, donor atom, acceptor molecule, acceptor atom, score
      L1  H     3    23       P1  8028  0.21
      L1  H    11    46       P1  8028  0.73
      P1  H  7954  7966       L1    15  0.90
      P1  H  7989  7998       L1     1  0.02

> <Gold.Chemscore.Hbond.Weighted>
-6.4711

> <Gold.Chemscore.Metal.Weighted>
-0.0000

> <Gold.Chemscore.Lipo.Weighted>
-12.9466

> <Gold.Chemscore.Internal_Hbond.Weighted>
0.0000

> <Gold.Chemscore.DEClash.Weighted>
3.6044

> <Gold.Chemscore.DEInternal.Weighted>
2.0447

> <Gold.Chemscore.Rot.Weighted>
4.3924

> <Gold.Chemscore.Internal.Correction.Weighted>
   9.000000E+99

> <Gold.Protein.RotatedTorsions>
[ 6907 6896 6895 6894 ] final  -21.59 input  -60.11 | X-H torsion
[ 7974 7965 7964 7962 ] final -115.32 input  175.53 | X-H torsion
[ 8008 7997 7996 7995 ] final  -46.09 input   59.86 | X-H torsion
[ 10167 10162 10161 10158 ] final  137.52 input  -65.29 | X-H torsion
[ 10718 10713 10712 10709 ] final -129.09 input   66.30 | X-H torsion
[ 10763 10752 10751 10750 ] final   62.00 input  -60.55 | X-H torsion
[ 11005 11000 10999 10996 ] final  -64.63 input  -57.11 | X-H torsion

> <Gold.Protein.ActiveResidues>
 VAL166  LYS551  ARG553  GLY616  TRP617  ASP618  TYR619  PRO620  LYS621  CYS622 
 ASP623  PHE694  ASN695  SER759  ASP760  ASP761  ALA762  ILE779  LEU786  VAL792 
 PHE793  MET794  SER795  GLU796  ALA797  LYS798  CYS799  TRP800  GLU811  SER814 

> <Gold.Protein.RotatedAtoms>
  151.2311  135.0555  159.8987 H   0  0  0  0  0  0  0  0  0  0  0  0  # atno 6907 bound_to 6896
  152.5404  134.0536  159.8131 H   0  0  0  0  0  0  0  0  0  0  0  0  # atno 6908 bound_to 6896
  151.0716  133.5413  159.2658 H   0  0  0  0  0  0  0  0  0  0  0  0  # atno 6909 bound_to 6896
  145.1098  140.8604  143.3876 H   0  0  0  0  0  0  0  0  0  0  0  0  # atno 7974 bound_to 7965
  154.4005  140.1380  156.3955 H   0  0  0  0  0  0  0  0  0  0  0  0  # atno 8008 bound_to 7997
  155.7874  140.3480  155.5310 H   0  0  0  0  0  0  0  0  0  0  0  0  # atno 8009 bound_to 7997
  155.8614  140.0957  157.1601 H   0  0  0  0  0  0  0  0  0  0  0  0  # atno 8010 bound_to 7997
  139.5141  144.6405  151.5581 H   0  0  0  0  0  0  0  0  0  0  0  0  # atno 10167 bound_to 10162
  156.2013  130.6859  151.0543 H   0  0  0  0  0  0  0  0  0  0  0  0  # atno 10718 bound_to 10713
  152.9968  135.5480  154.6124 H   0  0  0  0  0  0  0  0  0  0  0  0  # atno 10763 bound_to 10752
  154.5442  135.2822  155.1070 H   0  0  0  0  0  0  0  0  0  0  0  0  # atno 10764 bound_to 10752
  154.2336  135.6429  153.5236 H   0  0  0  0  0  0  0  0  0  0  0  0  # atno 10765 bound_to 10752
  141.1430  133.6669  156.5863 H   0  0  0  0  0  0  0  0  0  0  0  0  # atno 11005 bound_to 11000
  145.0860  139.2925  143.5759 LP  0  0  0  0  0  0  0  0  0  0  0  0  # atno 17320 bound_to 7965
  146.3526  140.0381  142.8645 LP  0  0  0  0  0  0  0  0  0  0  0  0  # atno 17321 bound_to 7965
  140.6170  143.9330  150.6496 LP  0  0  0  0  0  0  0  0  0  0  0  0  # atno 17342 bound_to 10162
  140.2591  143.3537  152.1339 LP  0  0  0  0  0  0  0  0  0  0  0  0  # atno 17343 bound_to 10162
  157.6987  131.0784  150.6887 LP  0  0  0  0  0  0  0  0  0  0  0  0  # atno 17370 bound_to 10713
  156.6945  130.4605  149.5590 LP  0  0  0  0  0  0  0  0  0  0  0  0  # atno 17371 bound_to 10713
  140.3798  134.7533  157.4654 LP  0  0  0  0  0  0  0  0  0  0  0  0  # atno 17394 bound_to 11000
  140.0646  134.5947  155.8710 LP  0  0  0  0  0  0  0  0  0  0  0  0  # atno 17395 bound_to 11000

$$$$
