AV-unprocessed.smi:790|AV-procd|sdf|3744|dock2
  -GOLD-   22720 1173D 1   1.00000     0.00000
 Structure written by MMmdl.
 38 40  0  0  0  0  0  0  0  0  1 V2000
  145.9240  137.7455  154.6693 O   0  0  0  0  0  0  0  0  0  0  0  0
  146.7689  137.3388  153.8724 C   0  0  0  0  0  0  0  0  0  0  0  0
  147.8971  137.9878  153.5366 N   0  0  0  0  0  0  0  0  0  0  0  0
  148.3441  139.2696  153.9578 C   0  0  0  0  0  0  0  0  0  0  0  0
  147.5093  140.4066  154.0827 C   0  0  0  0  0  0  0  0  0  0  0  0
  148.0799  141.6273  154.4917 C   0  0  0  0  0  0  0  0  0  0  0  0
  149.4630  141.6698  154.7532 C   0  0  0  0  0  0  0  0  0  0  0  0
  150.2728  140.5975  154.6262 N   0  0  0  0  0  0  0  0  0  0  0  0
  149.7187  139.4306  154.2339 C   0  0  0  0  0  0  0  0  0  0  0  0
  146.6845  136.1636  153.2342 N   0  0  0  0  0  0  0  0  0  0  0  0
  145.5950  135.1928  153.3615 C   0  0  2  0  0  0  0  0  0  0  0  0
  145.8407  133.9087  152.5294 C   0  0  2  0  0  0  0  0  0  0  0  0
  146.2426  134.2462  151.0777 C   0  0  0  0  0  0  0  0  0  0  0  0
  144.9358  134.8112  150.4919 C   0  0  0  0  0  0  0  0  0  0  0  0
  143.9442  134.6825  151.6680 C   0  0  1  0  0  0  0  0  0  0  0  0
  144.4219  133.3891  152.3180 C   0  0  0  0  0  0  0  0  0  0  0  0
  144.2395  135.7020  152.7953 C   0  0  2  0  0  0  0  0  0  0  0  0
  144.1513  137.1949  152.4055 C   0  0  0  0  0  0  0  0  0  0  0  0
  143.0936  137.8205  153.1007 O   0  0  0  0  0  0  0  0  0  0  0  0
  148.5346  137.4859  152.9358 H   0  0  0  0  0  0  0  0  0  0  0  0
  146.4541  140.3741  153.8618 H   0  0  0  0  0  0  0  0  0  0  0  0
  147.4709  142.5130  154.5976 H   0  0  0  0  0  0  0  0  0  0  0  0
  149.9319  142.5907  155.0668 H   0  0  0  0  0  0  0  0  0  0  0  0
  150.3975  138.5952  154.1403 H   0  0  0  0  0  0  0  0  0  0  0  0
  147.4339  135.9151  152.6050 H   0  0  0  0  0  0  0  0  0  0  0  0
  145.4499  134.9130  154.4066 H   0  0  0  0  0  0  0  0  0  0  0  0
  146.5171  133.2025  153.0116 H   0  0  0  0  0  0  0  0  0  0  0  0
  147.0773  134.9426  150.9999 H   0  0  0  0  0  0  0  0  0  0  0  0
  146.5316  133.3392  150.5449 H   0  0  0  0  0  0  0  0  0  0  0  0
  145.0447  135.8323  150.1294 H   0  0  0  0  0  0  0  0  0  0  0  0
  144.6082  134.2029  149.6479 H   0  0  0  0  0  0  0  0  0  0  0  0
  142.8991  134.6709  151.3566 H   0  0  0  0  0  0  0  0  0  0  0  0
  144.3696  132.5245  151.6535 H   0  0  0  0  0  0  0  0  0  0  0  0
  143.9038  133.1518  153.2491 H   0  0  0  0  0  0  0  0  0  0  0  0
  143.4910  135.5443  153.5744 H   0  0  0  0  0  0  0  0  0  0  0  0
  145.0786  137.7043  152.6698 H   0  0  0  0  0  0  0  0  0  0  0  0
  144.0088  137.3358  151.3347 H   0  0  0  0  0  0  0  0  0  0  0  0
  143.0879  138.7389  152.8775 H   0  0  0  0  0  0  0  0  0  0  0  0
  1  2  2  0  0  0  0
  2  3  1  0  0  0  0
  2 10  1  0  0  0  0
  3  4  1  0  0  0  0
  3 20  1  0  0  0  0
  4  9  1  0  0  0  0
  4  5  2  0  0  0  0
  5  6  1  0  0  0  0
  5 21  1  0  0  0  0
  6  7  2  0  0  0  0
  6 22  1  0  0  0  0
  7  8  1  0  0  0  0
  7 23  1  0  0  0  0
  8  9  2  0  0  0  0
  9 24  1  0  0  0  0
 10 11  1  0  0  0  0
 10 25  1  0  0  0  0
 11 17  1  0  0  0  0
 11 12  1  0  0  0  0
 11 26  1  0  0  0  0
 12 16  1  0  0  0  0
 12 13  1  0  0  0  0
 12 27  1  0  0  0  0
 13 14  1  0  0  0  0
 13 28  1  0  0  0  0
 13 29  1  0  0  0  0
 14 15  1  0  0  0  0
 14 30  1  0  0  0  0
 14 31  1  0  0  0  0
 15 16  1  0  0  0  0
 15 17  1  0  0  0  0
 15 32  1  0  0  0  0
 16 33  1  0  0  0  0
 16 34  1  0  0  0  0
 17 18  1  0  0  0  0
 17 35  1  0  0  0  0
 18 19  1  0  0  0  0
 18 36  1  0  0  0  0
 18 37  1  0  0  0  0
 19 38  1  0  0  0  0
M  END
> <s_m_source_file>
AV-unprocessed.smi

> <i_m_source_file_index>
790

> <i_lp_mmshare_version>
43012

> <i_f3d_flags>
0

> <s_epik_input>
W0NIMl0xW0NIMl1bQ0BASF0oW0NIMl0yKVtDQEBIXShbQ0gyXVtPSF0pW0NAQEhdKFtDQEhdMTIpW05IXUMoPU8pW05IXWMzW2NIXVtjSF1bY0hdbltjSF0z

> <s_epik_cmdline>
J2VwaWtfcHl0aG9uJywgJy1waCcsICc3LjAnLCAnLXRuJywgJzgnLCAnLW1hJywgJzIwMCcsICctbWV0YWxfYmluZGluZycsICctaW1hZScsICc8aW5maWxlLm1hZT4nLCAnLW9tYWUnLCAnPG91dGZpbGUubWFlPic=

> <r_epik_Ionization_Penalty>
0.00497582

> <r_epik_Ionization_Penalty_Charging>
0

> <r_epik_Ionization_Penalty_Neutral>
0.00497582

> <r_epik_State_Penalty>
0.00358602

> <r_epik_Charging_Adjusted_Penalty>
0.00358602

> <i_epik_Tot_Q>
0

> <i_epik_Tot_abs_Q>
0

> <r_epik_Metal_State_Penalty>
-0

> <b_epik_Metal_Only>
0

> <s_lp_Force_Field>
OPLS_2005

> <r_lp_Energy>
54.3883

> <b_lp_Chiralities_Consistent>
1

> <s_lp_Variant>
AV-unprocessed.smi:790-5

> <Gold.Version>
5.8.1

> <Gold.Id.Protein>
6NUR|6NUR_protein|mol2

> <Gold.PLP.Fitness>
40.9349

> <Gold.PLP.PLP>
-28.2844

> <Gold.PLP.part.hbond>
-4.0000

> <Gold.PLP.part.metal>
0.0000

> <Gold.PLP.part.buried>
-1.1927

> <Gold.PLP.part.nonpolar>
-23.1701

> <Gold.PLP.part.repulsive>
0.1757

> <Gold.PLP.ligand.clash>
0.0000

> <Gold.PLP.ligand.torsion>
1.0835

> <Gold.PLP.Chemscore.Hbond>
3.9760

> <Gold.PLP.Chemscore.CHOScore>
0.9595

> <Gold.PLP.Chemscore.Metal>
0.0000

> <Gold.Chemscore.Hbonds>
donor molecule, donor type, donor heavy atom, donor atom, acceptor molecule, acceptor atom, score
      L1  H     3    20       P1  7948  1.00
      L1  H    10    25       P1  7948  1.00
      L1  H    19    38       P1 10175  1.00
      P1  H  7989  7998       L1     8  0.90
      L1  C     7    23       P1  8028  0.98

> <Gold.PLP.Chemscore.Internal.Correction>
0.0109

> <Gold.Rescore>
     Score         DG    S(hbond)    S(metal)    S(lipo)     H(rot)  DE(clash)    DE(int)     intcor
     18.54     -20.48       3.60        0.00      64.35       1.78       0.11       1.83       ----

> <Gold.Chemscore.Fitness>
18.5432

> <Gold.Chemscore.DG>
-20.4787

> <Gold.Chemscore.ZeroCoef>
-5.4800

> <Gold.Chemscore.Hbond>
3.5993

> <Gold.Chemscore.Metal>
0.0000

> <Gold.Chemscore.Lipo>
64.3548

> <Gold.Chemscore.Internal_Hbond>
0.0000

> <Gold.Chemscore.DEClash>
0.1073

> <Gold.Chemscore.DEInternal>
1.8282

> <Gold.Chemscore.Rot>
1.7783

> <Gold.Chemscore.Internal.Correction>
   9.000000E+99

> <Gold.Chemscore.Hbonds>
donor molecule, donor type, donor heavy atom, donor atom, acceptor molecule, acceptor atom, score
      L1  H     3    20       P1  7948  0.98
      L1  H    10    25       P1  7948  0.97
      L1  H    19    38       P1 10175  1.00
      P1  H  7989  7998       L1     8  0.36

> <Gold.Chemscore.Hbond.Weighted>
-12.0217

> <Gold.Chemscore.Metal.Weighted>
-0.0000

> <Gold.Chemscore.Lipo.Weighted>
-7.5295

> <Gold.Chemscore.Internal_Hbond.Weighted>
0.0000

> <Gold.Chemscore.DEClash.Weighted>
0.1073

> <Gold.Chemscore.DEInternal.Weighted>
1.8282

> <Gold.Chemscore.Rot.Weighted>
4.5525

> <Gold.Chemscore.Internal.Correction.Weighted>
   9.000000E+99

> <Gold.Protein.RotatedTorsions>
[ 6907 6896 6895 6894 ] final  -84.81 input  -60.11 | X-H torsion
[ 7974 7965 7964 7962 ] final   15.89 input  175.53 | X-H torsion
[ 8008 7997 7996 7995 ] final   70.60 input   59.86 | X-H torsion
[ 10167 10162 10161 10158 ] final   39.51 input  -65.29 | X-H torsion
[ 10718 10713 10712 10709 ] final  107.68 input   66.30 | X-H torsion
[ 10763 10752 10751 10750 ] final   23.24 input  -60.55 | X-H torsion
[ 11005 11000 10999 10996 ] final  -54.08 input  -57.11 | X-H torsion

> <Gold.Protein.ActiveResidues>
 VAL166  LYS551  ARG553  GLY616  TRP617  ASP618  TYR619  PRO620  LYS621  CYS622 
 ASP623  PHE694  ASN695  SER759  ASP760  ASP761  ALA762  ILE779  LEU786  VAL792 
 PHE793  MET794  SER795  GLU796  ALA797  LYS798  CYS799  TRP800  GLU811  SER814 

> <Gold.Protein.RotatedAtoms>
  150.6874  134.3301  159.4823 H   0  0  0  0  0  0  0  0  0  0  0  0  # atno 6907 bound_to 6896
  152.1167  134.9233  160.0574 H   0  0  0  0  0  0  0  0  0  0  0  0  # atno 6908 bound_to 6896
  152.0454  133.3961  159.4391 H   0  0  0  0  0  0  0  0  0  0  0  0  # atno 6909 bound_to 6896
  146.2265  139.8827  142.8568 H   0  0  0  0  0  0  0  0  0  0  0  0  # atno 7974 bound_to 7965
  155.7413  140.3490  155.5106 H   0  0  0  0  0  0  0  0  0  0  0  0  # atno 8008 bound_to 7997
  155.9091  140.1047  157.1314 H   0  0  0  0  0  0  0  0  0  0  0  0  # atno 8009 bound_to 7997
  154.4053  140.1271  156.4521 H   0  0  0  0  0  0  0  0  0  0  0  0  # atno 8010 bound_to 7997
  140.3832  144.1952  150.6130 H   0  0  0  0  0  0  0  0  0  0  0  0  # atno 10167 bound_to 10162
  157.6618  131.0878  150.6192 H   0  0  0  0  0  0  0  0  0  0  0  0  # atno 10718 bound_to 10713
  153.0854  135.6631  153.9961 H   0  0  0  0  0  0  0  0  0  0  0  0  # atno 10763 bound_to 10752
  153.9571  135.2978  155.3437 H   0  0  0  0  0  0  0  0  0  0  0  0  # atno 10764 bound_to 10752
  154.7261  135.5143  153.8960 H   0  0  0  0  0  0  0  0  0  0  0  0  # atno 10765 bound_to 10752
  141.1008  133.6618  156.4268 H   0  0  0  0  0  0  0  0  0  0  0  0  # atno 11005 bound_to 11000
  145.2496  141.0039  143.3888 LP  0  0  0  0  0  0  0  0  0  0  0  0  # atno 17320 bound_to 7965
  144.9385  139.4216  143.6460 LP  0  0  0  0  0  0  0  0  0  0  0  0  # atno 17321 bound_to 7965
  140.4916  143.2345  151.8810 LP  0  0  0  0  0  0  0  0  0  0  0  0  # atno 17342 bound_to 10162
  139.4794  144.5159  151.8868 LP  0  0  0  0  0  0  0  0  0  0  0  0  # atno 17343 bound_to 10162
  156.6494  130.4481  149.5724 LP  0  0  0  0  0  0  0  0  0  0  0  0  # atno 17370 bound_to 10713
  156.2149  130.6701  151.1308 LP  0  0  0  0  0  0  0  0  0  0  0  0  # atno 17371 bound_to 10713
  140.5026  134.6471  157.5254 LP  0  0  0  0  0  0  0  0  0  0  0  0  # atno 17394 bound_to 11000
  139.9859  134.7062  155.9775 LP  0  0  0  0  0  0  0  0  0  0  0  0  # atno 17395 bound_to 11000

$$$$
