AV-unprocessed.smi:923|AV-procd|sdf|4178|dock10
  -GOLD-   22720 2 83D 1   1.00000     0.00000
 Structure written by MMmdl.
 34 35  0  0  0  0  0  0  0  0  2 V2000
  149.7027  135.4520  155.2726 C   0  0  0  0  0  0  0  0  0  0  0  0
  150.6539  136.5965  155.3535 C   0  0  0  0  0  0  0  0  0  0  0  0
  151.8698  136.5651  154.8027 N   0  0  0  0  0  0  0  0  0  0  0  0
  152.5669  137.7470  155.0073 N   0  0  0  0  0  0  0  0  0  0  0  0
  151.8665  138.6579  155.6983 C   0  0  0  0  0  0  0  0  0  0  0  0
  152.3603  139.8698  156.0017 N   0  5  0  0  0  0  0  0  0  0  0  0
  151.6081  140.7489  156.7028 C   0  0  0  0  0  0  0  0  0  0  0  0
  150.4341  141.0491  156.4737 O   0  0  0  0  0  0  0  0  0  0  0  0
  152.2567  141.3127  157.7330 N   0  0  0  0  0  0  0  0  0  0  0  0
  151.7093  142.2883  158.6747 C   0  0  0  0  0  0  0  0  0  0  0  0
  151.3885  143.5949  157.9200 C   0  0  0  0  0  0  0  0  0  0  0  0
  150.8422  144.7401  158.7903 C   0  0  0  0  0  0  0  0  0  0  0  0
  151.9262  145.3957  159.6608 C   0  0  0  0  0  0  0  0  0  0  0  0
  152.1754  144.7224  161.0215 C   0  0  0  0  0  0  0  0  0  0  0  0
  152.0949  143.1859  161.0543 C   0  0  0  0  0  0  0  0  0  0  0  0
  152.7034  142.4608  159.8419 C   0  0  0  0  0  0  0  0  0  0  0  0
  150.2648  138.0971  156.1773 S   0  0  0  0  0  0  0  0  0  0  0  0
  149.2634  135.4033  154.2762 H   0  0  0  0  0  0  0  0  0  0  0  0
  148.9024  135.5724  156.0031 H   0  0  0  0  0  0  0  0  0  0  0  0
  150.2213  134.5147  155.4750 H   0  0  0  0  0  0  0  0  0  0  0  0
  153.2170  141.0366  157.8760 H   0  0  0  0  0  0  0  0  0  0  0  0
  150.7812  141.8877  159.0864 H   0  0  0  0  0  0  0  0  0  0  0  0
  152.2728  143.9382  157.3811 H   0  0  0  0  0  0  0  0  0  0  0  0
  150.6470  143.3737  157.1511 H   0  0  0  0  0  0  0  0  0  0  0  0
  150.4470  145.5023  158.1178 H   0  0  0  0  0  0  0  0  0  0  0  0
  149.9964  144.4094  159.3941 H   0  0  0  0  0  0  0  0  0  0  0  0
  152.8606  145.4425  159.1003 H   0  0  0  0  0  0  0  0  0  0  0  0
  151.6527  146.4350  159.8463 H   0  0  0  0  0  0  0  0  0  0  0  0
  153.1558  145.0370  161.3807 H   0  0  0  0  0  0  0  0  0  0  0  0
  151.4607  145.1120  161.7474 H   0  0  0  0  0  0  0  0  0  0  0  0
  152.6016  142.8461  161.9580 H   0  0  0  0  0  0  0  0  0  0  0  0
  151.0565  142.8762  161.1783 H   0  0  0  0  0  0  0  0  0  0  0  0
  153.0063  141.4675  160.1765 H   0  0  0  0  0  0  0  0  0  0  0  0
  153.6186  142.9543  159.5117 H   0  0  0  0  0  0  0  0  0  0  0  0
  1  2  1  0  0  0  0
  1 18  1  0  0  0  0
  1 19  1  0  0  0  0
  1 20  1  0  0  0  0
  2 17  1  0  0  0  0
  2  3  2  0  0  0  0
  3  4  1  0  0  0  0
  4  5  2  0  0  0  0
  5  6  1  0  0  0  0
  5 17  1  0  0  0  0
  6  7  1  0  0  0  0
  7  8  2  0  0  0  0
  7  9  1  0  0  0  0
  9 10  1  0  0  0  0
  9 21  1  0  0  0  0
 10 16  1  0  0  0  0
 10 11  1  0  0  0  0
 10 22  1  0  0  0  0
 11 12  1  0  0  0  0
 11 23  1  0  0  0  0
 11 24  1  0  0  0  0
 12 13  1  0  0  0  0
 12 25  1  0  0  0  0
 12 26  1  0  0  0  0
 13 14  1  0  0  0  0
 13 27  1  0  0  0  0
 13 28  1  0  0  0  0
 14 15  1  0  0  0  0
 14 29  1  0  0  0  0
 14 30  1  0  0  0  0
 15 16  1  0  0  0  0
 15 31  1  0  0  0  0
 15 32  1  0  0  0  0
 16 33  1  0  0  0  0
 16 34  1  0  0  0  0
M  CHG  1   6  -1
M  END
> <s_m_source_file>
AV-unprocessed.smi

> <i_m_source_file_index>
923

> <i_lp_mmshare_version>
43012

> <i_f3d_flags>
0

> <s_epik_input>
W0NIM11jMW5uYyhzMSlbTkhdQyg9TylbTkhdW0NIXTJbQ0gyXVtDSDJdW0NIMl1bQ0gyXVtDSDJdW0NIMl0y

> <s_epik_cmdline>
J2VwaWtfcHl0aG9uJywgJy1waCcsICc3LjAnLCAnLXRuJywgJzgnLCAnLW1hJywgJzIwMCcsICctbWV0YWxfYmluZGluZycsICctaW1hZScsICc8aW5maWxlLm1hZT4nLCAnLW9tYWUnLCAnPG91dGZpbGUubWFlPic=

> <r_lp_tautomer_probability>
1

> <r_epik_Ionization_Penalty>
4.57867

> <r_epik_Ionization_Penalty_Charging>
4.42407

> <r_epik_Ionization_Penalty_Neutral>
0.154599

> <r_epik_State_Penalty>
4.42373

> <r_epik_Charging_Adjusted_Penalty>
8.84779

> <i_epik_Tot_Q>
-1

> <i_epik_Tot_abs_Q>
1

> <r_epik_Metal_State_Penalty>
0.782603

> <b_epik_Metal_Only>
1

> <s_lp_Force_Field>
OPLS_2005

> <r_lp_Energy>
12.5708

> <b_lp_Chiralities_Consistent>
1

> <s_lp_Variant>
AV-unprocessed.smi:923-2

> <Gold.Version>
5.8.1

> <Gold.Id.Protein>
6NUR|6NUR_protein|mol2

> <Gold.PLP.Fitness>
40.9830

> <Gold.PLP.PLP>
-32.9548

> <Gold.PLP.part.hbond>
-2.7516

> <Gold.PLP.part.metal>
0.0000

> <Gold.PLP.part.buried>
-3.4338

> <Gold.PLP.part.nonpolar>
-26.7443

> <Gold.PLP.part.repulsive>
0.3244

> <Gold.PLP.ligand.clash>
0.0000

> <Gold.PLP.ligand.torsion>
0.4816

> <Gold.PLP.Chemscore.Hbond>
2.9920

> <Gold.PLP.Chemscore.CHOScore>
0.0000

> <Gold.PLP.Chemscore.Metal>
0.0000

> <Gold.Chemscore.Hbonds>
donor molecule, donor type, donor heavy atom, donor atom, acceptor molecule, acceptor atom, score
      P1  H  7997  8009       L1     6  2.00
      P1  H 10752 10764       L1     3  0.91

> <Gold.PLP.Chemscore.Internal.Correction>
0.0154

> <Gold.Rescore>
     Score         DG    S(hbond)    S(metal)    S(lipo)     H(rot)  DE(clash)    DE(int)     intcor
     16.80     -18.34       1.41        0.00      91.43       1.00       0.83       0.71       ----

> <Gold.Chemscore.Fitness>
16.7988

> <Gold.Chemscore.DG>
-18.3388

> <Gold.Chemscore.ZeroCoef>
-5.4800

> <Gold.Chemscore.Hbond>
1.4137

> <Gold.Chemscore.Metal>
0.0000

> <Gold.Chemscore.Lipo>
91.4293

> <Gold.Chemscore.Internal_Hbond>
0.0000

> <Gold.Chemscore.DEClash>
0.8281

> <Gold.Chemscore.DEInternal>
0.7119

> <Gold.Chemscore.Rot>
1.0000

> <Gold.Chemscore.Internal.Correction>
   9.000000E+99

> <Gold.Chemscore.Hbonds>
donor molecule, donor type, donor heavy atom, donor atom, acceptor molecule, acceptor atom, score
      P1  H  7997  8009       L1     6  0.76
      P1  H 10752 10764       L1     3  0.30

> <Gold.Chemscore.Hbond.Weighted>
-4.7216

> <Gold.Chemscore.Metal.Weighted>
-0.0000

> <Gold.Chemscore.Lipo.Weighted>
-10.6972

> <Gold.Chemscore.Internal_Hbond.Weighted>
0.0000

> <Gold.Chemscore.DEClash.Weighted>
0.8281

> <Gold.Chemscore.DEInternal.Weighted>
0.7119

> <Gold.Chemscore.Rot.Weighted>
2.5600

> <Gold.Chemscore.Internal.Correction.Weighted>
   9.000000E+99

> <Gold.Protein.RotatedTorsions>
[ 6907 6896 6895 6894 ] final -113.33 input  -60.11 | X-H torsion
[ 7974 7965 7964 7962 ] final  -36.00 input  175.53 | X-H torsion
[ 8008 7997 7996 7995 ] final -164.01 input   59.86 | X-H torsion
[ 10167 10162 10161 10158 ] final -117.77 input  -65.29 | X-H torsion
[ 10718 10713 10712 10709 ] final -140.80 input   66.30 | X-H torsion
[ 10763 10752 10751 10750 ] final  -48.84 input  -60.55 | X-H torsion
[ 11005 11000 10999 10996 ] final  141.27 input  -57.11 | X-H torsion

> <Gold.Protein.ActiveResidues>
 VAL166  LYS551  ARG553  GLY616  TRP617  ASP618  TYR619  PRO620  LYS621  CYS622 
 ASP623  PHE694  ASN695  SER759  ASP760  ASP761  ALA762  ILE779  LEU786  VAL792 
 PHE793  MET794  SER795  GLU796  ALA797  LYS798  CYS799  TRP800  GLU811  SER814 

> <Gold.Protein.RotatedAtoms>
  150.7822  133.8960  159.3326 H   0  0  0  0  0  0  0  0  0  0  0  0  # atno 6907 bound_to 6896
  151.6819  135.0958  160.0227 H   0  0  0  0  0  0  0  0  0  0  0  0  # atno 6908 bound_to 6896
  152.3876  133.6595  159.6247 H   0  0  0  0  0  0  0  0  0  0  0  0  # atno 6909 bound_to 6896
  146.0699  140.6227  142.8957 H   0  0  0  0  0  0  0  0  0  0  0  0  # atno 7974 bound_to 7965
  155.8295  140.0931  157.1801 H   0  0  0  0  0  0  0  0  0  0  0  0  # atno 8008 bound_to 7997
  154.3979  140.1421  156.3657 H   0  0  0  0  0  0  0  0  0  0  0  0  # atno 8009 bound_to 7997
  155.8181  140.3447  155.5500 H   0  0  0  0  0  0  0  0  0  0  0  0  # atno 8010 bound_to 7997
  140.0648  143.4934  152.2012 H   0  0  0  0  0  0  0  0  0  0  0  0  # atno 10167 bound_to 10162
  156.3266  130.7563  151.1672 H   0  0  0  0  0  0  0  0  0  0  0  0  # atno 10718 bound_to 10713
  154.0843  135.6586  153.4842 H   0  0  0  0  0  0  0  0  0  0  0  0  # atno 10763 bound_to 10752
  153.0344  135.5187  154.7443 H   0  0  0  0  0  0  0  0  0  0  0  0  # atno 10764 bound_to 10752
  154.6548  135.3006  154.9910 H   0  0  0  0  0  0  0  0  0  0  0  0  # atno 10765 bound_to 10752
  140.0389  134.9315  157.0805 H   0  0  0  0  0  0  0  0  0  0  0  0  # atno 11005 bound_to 11000
  144.7225  140.4419  143.6997 LP  0  0  0  0  0  0  0  0  0  0  0  0  # atno 17320 bound_to 7965
  145.6411  139.1550  143.2915 LP  0  0  0  0  0  0  0  0  0  0  0  0  # atno 17321 bound_to 7965
  139.5872  144.7536  151.3491 LP  0  0  0  0  0  0  0  0  0  0  0  0  # atno 17342 bound_to 10162
  140.7154  143.7279  150.7646 LP  0  0  0  0  0  0  0  0  0  0  0  0  # atno 17343 bound_to 10162
  157.7422  131.0493  150.5039 LP  0  0  0  0  0  0  0  0  0  0  0  0  # atno 17370 bound_to 10713
  156.5199  130.4159  149.6256 LP  0  0  0  0  0  0  0  0  0  0  0  0  # atno 17371 bound_to 10713
  140.4102  134.1990  155.7163 LP  0  0  0  0  0  0  0  0  0  0  0  0  # atno 17394 bound_to 11000
  141.1872  133.8286  157.1039 LP  0  0  0  0  0  0  0  0  0  0  0  0  # atno 17395 bound_to 11000

$$$$
