AV-unprocessed.smi:249|AV-procd|sdf|1906|dock7
  -GOLD-   2262020593D 1   1.00000     0.00000
 Structure written by MMmdl.
 64 67  0  0  0  0  0  0  0  0  2 V2000
  146.8430  133.2057  151.1103 C   0  0  0  0  0  0  0  0  0  0  0  0
  145.9904  134.3184  151.7422 C   0  0  0  0  0  0  0  0  0  0  0  0
  146.7227  135.1193  152.7659 N   0  3  2  0  0  0  0  0  0  0  0  0
  147.3093  134.2547  153.8298 C   0  0  0  0  0  0  0  0  0  0  0  0
  148.1855  135.0524  154.8048 C   0  0  0  0  0  0  0  0  0  0  0  0
  147.3781  136.1828  155.4649 C   0  0  1  0  0  0  0  0  0  0  0  0
  148.1485  136.9435  156.4614 N   0  0  0  0  0  0  0  0  0  0  0  0
  148.6576  136.2098  157.6146 C   0  0  0  0  0  0  0  0  0  0  0  0
  149.0049  137.8799  155.9863 C   0  0  0  0  0  0  0  0  0  0  0  0
  149.4007  137.8397  154.6865 N   0  0  0  0  0  0  0  0  0  0  0  0
  150.1868  138.8036  154.1972 C   0  0  0  0  0  0  0  0  0  0  0  0
  150.6691  139.8825  154.8177 N   0  0  0  0  0  0  0  0  0  0  0  0
  150.2891  139.9119  156.1271 C   0  0  0  0  0  0  0  0  0  0  0  0
  149.4844  138.9466  156.7921 C   0  0  0  0  0  0  0  0  0  0  0  0
  149.3221  139.2970  158.1267 N   0  0  0  0  0  0  0  0  0  0  0  0
  149.9706  140.4240  158.2386 C   0  0  0  0  0  0  0  0  0  0  0  0
  150.5447  140.8861  157.0753 N   0  0  0  0  0  0  0  0  0  0  0  0
  151.2734  142.1280  156.9008 C   0  0  0  0  0  0  0  0  0  0  0  0
  151.7415  142.7930  158.2268 C   0  0  2  0  0  0  0  0  0  0  0  0
  151.9930  144.2995  157.9725 C   0  0  0  0  0  0  0  0  0  0  0  0
  150.7797  145.0200  157.8999 O   0  0  0  0  0  0  0  0  0  0  0  0
  152.9857  142.0981  158.8644 C   0  0  1  0  0  0  0  0  0  0  0  0
  153.4061  142.6391  160.2237 C   0  0  0  0  0  0  0  0  0  0  0  0
  154.2715  141.5140  160.7700 C   0  0  0  0  0  0  0  0  0  0  0  0
  153.5918  140.3349  160.3724 O   0  0  0  0  0  0  0  0  0  0  0  0
  152.8230  140.6025  159.2033 C   0  0  0  0  0  0  0  0  0  0  0  0
  146.7658  137.0546  154.3516 C   0  0  0  0  0  0  0  0  0  0  0  0
  145.9165  136.2376  153.3557 C   0  0  1  0  0  0  0  0  0  0  0  0
  145.3479  137.2063  152.2970 C   0  0  0  0  0  0  0  0  0  0  0  0
  146.3189  132.7610  150.2638 H   0  0  0  0  0  0  0  0  0  0  0  0
  147.0552  132.3957  151.8070 H   0  0  0  0  0  0  0  0  0  0  0  0
  147.7913  133.5958  150.7399 H   0  0  0  0  0  0  0  0  0  0  0  0
  145.6789  134.9527  150.9158 H   0  0  0  0  0  0  0  0  0  0  0  0
  145.0797  133.9025  152.1758 H   0  0  0  0  0  0  0  0  0  0  0  0
  146.5083  133.7504  154.3729 H   0  0  0  0  0  0  0  0  0  0  0  0
  147.9320  133.4751  153.3949 H   0  0  0  0  0  0  0  0  0  0  0  0
  148.5850  134.3768  155.5612 H   0  0  0  0  0  0  0  0  0  0  0  0
  149.0420  135.4567  154.2645 H   0  0  0  0  0  0  0  0  0  0  0  0
  146.5506  135.7263  156.0098 H   0  0  0  0  0  0  0  0  0  0  0  0
  149.0294  136.8984  158.3745 H   0  0  0  0  0  0  0  0  0  0  0  0
  149.4699  135.5381  157.3352 H   0  0  0  0  0  0  0  0  0  0  0  0
  147.8637  135.6141  158.0659 H   0  0  0  0  0  0  0  0  0  0  0  0
  150.4549  138.7048  153.1555 H   0  0  0  0  0  0  0  0  0  0  0  0
  150.0199  140.9685  159.1704 H   0  0  0  0  0  0  0  0  0  0  0  0
  152.1350  141.9326  156.2613 H   0  0  0  0  0  0  0  0  0  0  0  0
  150.6249  142.8024  156.3409 H   0  0  0  0  0  0  0  0  0  0  0  0
  150.9268  142.7267  158.9495 H   0  0  0  0  0  0  0  0  0  0  0  0
  152.5685  144.7514  158.7793 H   0  0  0  0  0  0  0  0  0  0  0  0
  152.5578  144.4495  157.0518 H   0  0  0  0  0  0  0  0  0  0  0  0
  150.3792  144.8516  157.0606 H   0  0  0  0  0  0  0  0  0  0  0  0
  153.8370  142.2101  158.1907 H   0  0  0  0  0  0  0  0  0  0  0  0
  153.9509  143.5819  160.1624 H   0  0  0  0  0  0  0  0  0  0  0  0
  152.5361  142.7837  160.8665 H   0  0  0  0  0  0  0  0  0  0  0  0
  155.2596  141.5313  160.3079 H   0  0  0  0  0  0  0  0  0  0  0  0
  154.3958  141.5624  161.8519 H   0  0  0  0  0  0  0  0  0  0  0  0
  151.7848  140.3514  159.4223 H   0  0  0  0  0  0  0  0  0  0  0  0
  153.1623  139.9587  158.3932 H   0  0  0  0  0  0  0  0  0  0  0  0
  146.1474  137.8304  154.8040 H   0  0  0  0  0  0  0  0  0  0  0  0
  147.5516  137.5655  153.7933 H   0  0  0  0  0  0  0  0  0  0  0  0
  145.0779  135.7989  153.8993 H   0  0  0  0  0  0  0  0  0  0  0  0
  144.9090  138.0850  152.7708 H   0  0  0  0  0  0  0  0  0  0  0  0
  144.5511  136.7578  151.7050 H   0  0  0  0  0  0  0  0  0  0  0  0
  146.1259  137.5573  151.6179 H   0  0  0  0  0  0  0  0  0  0  0  0
  147.4972  135.5542  152.2851 H   0  0  0  0  0  0  0  0  0  0  0  0
  1  2  1  0  0  0  0
  1 30  1  0  0  0  0
  1 31  1  0  0  0  0
  1 32  1  0  0  0  0
  2  3  1  0  0  0  0
  2 33  1  0  0  0  0
  2 34  1  0  0  0  0
  3 28  1  0  0  0  0
  3  4  1  0  0  0  0
  3 64  1  0  0  0  0
  4  5  1  0  0  0  0
  4 35  1  0  0  0  0
  4 36  1  0  0  0  0
  5  6  1  0  0  0  0
  5 37  1  0  0  0  0
  5 38  1  0  0  0  0
  6  7  1  0  0  0  0
  6 27  1  0  0  0  0
  6 39  1  0  0  0  0
  7  8  1  0  0  0  0
  7  9  1  0  0  0  0
  8 40  1  0  0  0  0
  8 41  1  0  0  0  0
  8 42  1  0  0  0  0
  9 14  1  0  0  0  0
  9 10  2  0  0  0  0
 10 11  1  0  0  0  0
 11 12  2  0  0  0  0
 11 43  1  0  0  0  0
 12 13  1  0  0  0  0
 13 17  1  0  0  0  0
 13 14  2  0  0  0  0
 14 15  1  0  0  0  0
 15 16  2  0  0  0  0
 16 17  1  0  0  0  0
 16 44  1  0  0  0  0
 17 18  1  0  0  0  0
 18 19  1  0  0  0  0
 18 45  1  0  0  0  0
 18 46  1  0  0  0  0
 19 20  1  0  0  0  0
 19 22  1  0  0  0  0
 19 47  1  0  0  0  0
 20 21  1  0  0  0  0
 20 48  1  0  0  0  0
 20 49  1  0  0  0  0
 21 50  1  0  0  0  0
 22 26  1  0  0  0  0
 22 23  1  0  0  0  0
 22 51  1  0  0  0  0
 23 24  1  0  0  0  0
 23 52  1  0  0  0  0
 23 53  1  0  0  0  0
 24 25  1  0  0  0  0
 24 54  1  0  0  0  0
 24 55  1  0  0  0  0
 25 26  1  0  0  0  0
 26 56  1  0  0  0  0
 26 57  1  0  0  0  0
 27 28  1  0  0  0  0
 27 58  1  0  0  0  0
 27 59  1  0  0  0  0
 28 29  1  0  0  0  0
 28 60  1  0  0  0  0
 29 61  1  0  0  0  0
 29 62  1  0  0  0  0
 29 63  1  0  0  0  0
M  CHG  1   3   1
M  END
> <s_m_source_file>
AV-unprocessed.smi

> <i_m_source_file_index>
249

> <i_lp_mmshare_version>
43012

> <i_f3d_flags>
0

> <s_epik_input>
W0NIM11bQ0gyXU4xW0NIMl1bQ0gyXVtDQEhdKFtDSDJdW0NASF0xW0NIM10pTihbQ0gzXSljKG5bY0hdbjIpYyhjMjMpbltjSF1uM1tDSDJdW0NASF0oW0NIMl1bT0hdKVtDQEBIXTRbQ0gyXVtDSDJdT1tDSDJdNA==

> <s_epik_cmdline>
J2VwaWtfcHl0aG9uJywgJy1waCcsICc3LjAnLCAnLXRuJywgJzgnLCAnLW1hJywgJzIwMCcsICctbWV0YWxfYmluZGluZycsICctaW1hZScsICc8aW5maWxlLm1hZT4nLCAnLW9tYWUnLCAnPG91dGZpbGUubWFlPic=

> <r_lp_tautomer_probability>
1

> <r_epik_Ionization_Penalty>
0.00294688

> <r_epik_Ionization_Penalty_Charging>
0.00169971

> <r_epik_Ionization_Penalty_Neutral>
0.00124717

> <r_epik_State_Penalty>
-0

> <r_epik_Charging_Adjusted_Penalty>
0.00169971

> <i_epik_Tot_Q>
1

> <i_epik_Tot_abs_Q>
1

> <r_epik_Metal_State_Penalty>
-0

> <b_epik_Metal_Only>
0

> <s_lp_Force_Field>
OPLS_2005

> <r_lp_Energy>
53.7377

> <b_lp_Chiralities_Consistent>
1

> <s_lp_Variant>
AV-unprocessed.smi:249-9

> <Gold.Version>
5.8.1

> <Gold.Id.Protein>
6NUR|6NUR_protein|mol2

> <Gold.PLP.Fitness>
55.3747

> <Gold.PLP.PLP>
-41.3981

> <Gold.PLP.part.hbond>
-4.0000

> <Gold.PLP.part.metal>
0.0000

> <Gold.PLP.part.buried>
-4.2746

> <Gold.PLP.part.nonpolar>
-32.2175

> <Gold.PLP.part.repulsive>
0.2527

> <Gold.PLP.ligand.clash>
0.0000

> <Gold.PLP.ligand.torsion>
1.0196

> <Gold.PLP.Chemscore.Hbond>
4.0000

> <Gold.PLP.Chemscore.CHOScore>
1.0000

> <Gold.PLP.Chemscore.Metal>
0.0000

> <Gold.Chemscore.Hbonds>
donor molecule, donor type, donor heavy atom, donor atom, acceptor molecule, acceptor atom, score
      L1  H     3    64       P1  7948  2.00
      L1  H    21    50       P1  8028  1.00
      P1  H  7989  7998       L1    12  1.00
      L1  C    11    43       P1  7957  1.00

> <Gold.PLP.Chemscore.Internal.Correction>
1.0157

> <Gold.Rescore>
     Score         DG    S(hbond)    S(metal)    S(lipo)     H(rot)  DE(clash)    DE(int)     intcor
     14.02     -17.67       2.30        0.00     102.06       2.90       0.37       3.28       ----

> <Gold.Chemscore.Fitness>
14.0187

> <Gold.Chemscore.DG>
-17.6684

> <Gold.Chemscore.ZeroCoef>
-5.4800

> <Gold.Chemscore.Hbond>
2.2974

> <Gold.Chemscore.Metal>
0.0000

> <Gold.Chemscore.Lipo>
102.0568

> <Gold.Chemscore.Internal_Hbond>
0.0000

> <Gold.Chemscore.DEClash>
0.3719

> <Gold.Chemscore.DEInternal>
3.2778

> <Gold.Chemscore.Rot>
2.9006

> <Gold.Chemscore.Internal.Correction>
   9.000000E+99

> <Gold.Chemscore.Hbonds>
donor molecule, donor type, donor heavy atom, donor atom, acceptor molecule, acceptor atom, score
      L1  H     3    64       P1  7948  1.00
      L1  H    21    50       P1  8028  0.42
      P1  H  7989  7998       L1    12  0.55

> <Gold.Chemscore.Hbond.Weighted>
-7.6734

> <Gold.Chemscore.Metal.Weighted>
-0.0000

> <Gold.Chemscore.Lipo.Weighted>
-11.9406

> <Gold.Chemscore.Internal_Hbond.Weighted>
0.0000

> <Gold.Chemscore.DEClash.Weighted>
0.3719

> <Gold.Chemscore.DEInternal.Weighted>
3.2778

> <Gold.Chemscore.Rot.Weighted>
7.4256

> <Gold.Chemscore.Internal.Correction.Weighted>
   9.000000E+99

> <Gold.Protein.RotatedTorsions>
[ 6907 6896 6895 6894 ] final  106.31 input  -60.11 | X-H torsion
[ 7974 7965 7964 7962 ] final  -80.10 input  175.53 | X-H torsion
[ 8008 7997 7996 7995 ] final -173.58 input   59.86 | X-H torsion
[ 10167 10162 10161 10158 ] final  101.72 input  -65.29 | X-H torsion
[ 10718 10713 10712 10709 ] final   49.01 input   66.30 | X-H torsion
[ 10763 10752 10751 10750 ] final -166.37 input  -60.55 | X-H torsion
[ 11005 11000 10999 10996 ] final  -59.67 input  -57.11 | X-H torsion

> <Gold.Protein.ActiveResidues>
 VAL166  LYS551  ARG553  GLY616  TRP617  ASP618  TYR619  PRO620  LYS621  CYS622 
 ASP623  PHE694  ASN695  SER759  ASP760  ASP761  ALA762  ILE779  LEU786  VAL792 
 PHE793  MET794  SER795  GLU796  ALA797  LYS798  CYS799  TRP800  GLU811  SER814 

> <Gold.Protein.RotatedAtoms>
  152.5198  133.9399  159.7621 H   0  0  0  0  0  0  0  0  0  0  0  0  # atno 6907 bound_to 6896
  150.9731  133.6314  159.2741 H   0  0  0  0  0  0  0  0  0  0  0  0  # atno 6908 bound_to 6896
  151.3518  135.0891  159.9458 H   0  0  0  0  0  0  0  0  0  0  0  0  # atno 6909 bound_to 6896
  145.5644  140.9477  143.1430 H   0  0  0  0  0  0  0  0  0  0  0  0  # atno 7974 bound_to 7965
  155.9593  140.1141  157.0910 H   0  0  0  0  0  0  0  0  0  0  0  0  # atno 8008 bound_to 7997
  154.4128  140.1185  156.5223 H   0  0  0  0  0  0  0  0  0  0  0  0  # atno 8009 bound_to 7997
  155.6742  140.3473  155.4832 H   0  0  0  0  0  0  0  0  0  0  0  0  # atno 8010 bound_to 7997
  139.7413  144.7010  151.0571 H   0  0  0  0  0  0  0  0  0  0  0  0  # atno 10167 bound_to 10162
  157.4744  130.8275  149.8023 H   0  0  0  0  0  0  0  0  0  0  0  0  # atno 10718 bound_to 10713
  154.6840  135.2959  154.9573 H   0  0  0  0  0  0  0  0  0  0  0  0  # atno 10763 bound_to 10752
  154.0559  135.6638  153.4810 H   0  0  0  0  0  0  0  0  0  0  0  0  # atno 10764 bound_to 10752
  153.0566  135.5141  154.7897 H   0  0  0  0  0  0  0  0  0  0  0  0  # atno 10765 bound_to 10752
  141.1257  133.6617  156.5107 H   0  0  0  0  0  0  0  0  0  0  0  0  # atno 11005 bound_to 11000
  144.7468  139.7300  143.7289 LP  0  0  0  0  0  0  0  0  0  0  0  0  # atno 17320 bound_to 7965
  146.1829  139.5030  142.9855 LP  0  0  0  0  0  0  0  0  0  0  0  0  # atno 17321 bound_to 7965
  140.7786  143.4921  150.9880 LP  0  0  0  0  0  0  0  0  0  0  0  0  # atno 17342 bound_to 10162
  139.8609  143.7316  152.3173 LP  0  0  0  0  0  0  0  0  0  0  0  0  # atno 17343 bound_to 10162
  156.0089  130.3842  150.2332 LP  0  0  0  0  0  0  0  0  0  0  0  0  # atno 17370 bound_to 10713
  157.0516  131.0064  151.3252 LP  0  0  0  0  0  0  0  0  0  0  0  0  # atno 17371 bound_to 10713
  140.4371  134.7049  157.4972 LP  0  0  0  0  0  0  0  0  0  0  0  0  # atno 17394 bound_to 11000
  140.0254  134.6484  155.9180 LP  0  0  0  0  0  0  0  0  0  0  0  0  # atno 17395 bound_to 11000

$$$$
