AV-unprocessed.smi:265|AV-procd|sdf|2020|dock1
  -GOLD-   2262021223D 1   1.00000     0.00000
 Structure written by MMmdl.
 52 56  0  0  0  0  0  0  0  0  1 V2000
  146.8276  132.6614  151.6161 C   0  0  0  0  0  0  0  0  0  0  0  0
  145.7692  133.4715  150.8479 C   0  0  1  0  0  0  0  0  0  0  0  0
  145.4886  132.7499  149.6472 O   0  0  0  0  0  0  0  0  0  0  0  0
  144.0870  132.6142  149.4676 C   0  0  0  0  0  0  0  0  0  0  0  0
  143.5453  132.6047  150.8880 C   0  0  0  0  0  0  0  0  0  0  0  0
  144.4088  133.6620  151.5683 C   0  0  1  0  0  0  0  0  0  0  0  0
  144.4756  133.3739  152.9540 O   0  0  0  0  0  0  0  0  0  0  0  0
  143.8866  135.1140  151.3947 C   0  0  0  0  0  0  0  0  0  0  0  0
  144.8111  136.1439  151.8456 N   0  0  0  0  0  0  0  0  0  0  0  0
  145.4621  137.0648  151.0560 C   0  0  0  0  0  0  0  0  0  0  0  0
  146.2460  137.8905  151.6937 N   0  0  0  0  0  0  0  0  0  0  0  0
  146.1447  137.4969  153.0230 C   0  0  0  0  0  0  0  0  0  0  0  0
  146.7254  137.9557  154.2393 C   0  0  0  0  0  0  0  0  0  0  0  0
  147.6087  138.9851  154.2866 N   0  0  0  0  0  0  0  0  0  0  0  0
  147.1520  140.2459  154.8714 C   0  0  0  0  0  0  0  0  0  0  0  0
  148.1006  141.3945  154.4962 C   0  0  0  0  0  0  0  0  0  0  0  0
  149.5602  141.0711  154.8549 C   0  0  1  0  0  0  0  0  0  0  0  0
  149.7233  141.0303  156.2668 O   0  0  0  0  0  0  0  0  0  0  0  0
  151.0844  140.9162  156.6856 C   0  0  0  0  0  0  0  0  0  0  0  0
  151.8321  139.7907  155.9466 C   0  0  0  0  0  0  0  0  0  0  0  0
  152.9004  139.3724  156.3872 O   0  0  0  0  0  0  0  0  0  0  0  0
  151.3042  139.3255  154.8028 N   0  0  0  0  0  0  0  0  0  0  0  0
  149.9874  139.6965  154.2956 C   0  0  1  0  0  0  0  0  0  0  0  0
  148.9684  138.5966  154.6561 C   0  0  0  0  0  0  0  0  0  0  0  0
  146.3665  137.3140  155.3837 N   0  0  0  0  0  0  0  0  0  0  0  0
  145.5100  136.2892  155.3436 C   0  0  0  0  0  0  0  0  0  0  0  0
  144.9002  135.7530  154.2852 N   0  0  0  0  0  0  0  0  0  0  0  0
  145.2458  136.3984  153.1350 C   0  0  0  0  0  0  0  0  0  0  0  0
  150.1992  141.8588  154.4505 H   0  0  0  0  0  0  0  0  0  0  0  0
  150.0541  139.7657  153.2091 H   0  0  0  0  0  0  0  0  0  0  0  0
  147.1301  133.1706  152.5315 H   0  0  0  0  0  0  0  0  0  0  0  0
  147.7229  132.5215  151.0099 H   0  0  0  0  0  0  0  0  0  0  0  0
  146.4535  131.6731  151.8860 H   0  0  0  0  0  0  0  0  0  0  0  0
  146.1991  134.4378  150.5810 H   0  0  0  0  0  0  0  0  0  0  0  0
  143.7052  133.4693  148.9084 H   0  0  0  0  0  0  0  0  0  0  0  0
  143.8408  131.7068  148.9162 H   0  0  0  0  0  0  0  0  0  0  0  0
  142.4726  132.7853  150.9403 H   0  0  0  0  0  0  0  0  0  0  0  0
  143.7303  131.6229  151.3277 H   0  0  0  0  0  0  0  0  0  0  0  0
  143.7058  132.8819  153.1963 H   0  0  0  0  0  0  0  0  0  0  0  0
  143.6499  135.3040  150.3468 H   0  0  0  0  0  0  0  0  0  0  0  0
  142.9512  135.2464  151.9395 H   0  0  0  0  0  0  0  0  0  0  0  0
  145.3284  137.1113  149.9850 H   0  0  0  0  0  0  0  0  0  0  0  0
  146.1458  140.4809  154.5214 H   0  0  0  0  0  0  0  0  0  0  0  0
  147.1006  140.1436  155.9565 H   0  0  0  0  0  0  0  0  0  0  0  0
  148.0296  141.5776  153.4233 H   0  0  0  0  0  0  0  0  0  0  0  0
  147.7876  142.3161  154.9874 H   0  0  0  0  0  0  0  0  0  0  0  0
  151.5996  141.8602  156.5040 H   0  0  0  0  0  0  0  0  0  0  0  0
  151.1115  140.7343  157.7602 H   0  0  0  0  0  0  0  0  0  0  0  0
  151.8119  138.6154  154.2957 H   0  0  0  0  0  0  0  0  0  0  0  0
  148.9873  138.4070  155.7304 H   0  0  0  0  0  0  0  0  0  0  0  0
  149.2611  137.6641  154.1746 H   0  0  0  0  0  0  0  0  0  0  0  0
  145.2811  135.8337  156.2958 H   0  0  0  0  0  0  0  0  0  0  0  0
  1  2  1  0  0  0  0
  1 31  1  0  0  0  0
  1 32  1  0  0  0  0
  1 33  1  0  0  0  0
  2  6  1  0  0  0  0
  2  3  1  0  0  0  0
  2 34  1  0  0  0  0
  3  4  1  0  0  0  0
  4  5  1  0  0  0  0
  4 35  1  0  0  0  0
  4 36  1  0  0  0  0
  5  6  1  0  0  0  0
  5 37  1  0  0  0  0
  5 38  1  0  0  0  0
  6  7  1  0  0  0  0
  6  8  1  0  0  0  0
  7 39  1  0  0  0  0
  8  9  1  0  0  0  0
  8 40  1  0  0  0  0
  8 41  1  0  0  0  0
  9 28  1  0  0  0  0
  9 10  1  0  0  0  0
 10 11  2  0  0  0  0
 10 42  1  0  0  0  0
 11 12  1  0  0  0  0
 12 28  2  0  0  0  0
 12 13  1  0  0  0  0
 13 14  1  0  0  0  0
 13 25  2  0  0  0  0
 14 24  1  0  0  0  0
 14 15  1  0  0  0  0
 15 16  1  0  0  0  0
 15 43  1  0  0  0  0
 15 44  1  0  0  0  0
 16 17  1  0  0  0  0
 16 45  1  0  0  0  0
 16 46  1  0  0  0  0
 17 29  1  0  0  0  0
 17 23  1  0  0  0  0
 17 18  1  0  0  0  0
 18 19  1  0  0  0  0
 19 20  1  0  0  0  0
 19 47  1  0  0  0  0
 19 48  1  0  0  0  0
 20 21  2  0  0  0  0
 20 22  1  0  0  0  0
 22 23  1  0  0  0  0
 22 49  1  0  0  0  0
 23 30  1  0  0  0  0
 23 24  1  0  0  0  0
 24 50  1  0  0  0  0
 24 51  1  0  0  0  0
 25 26  1  0  0  0  0
 26 27  2  0  0  0  0
 26 52  1  0  0  0  0
 27 28  1  0  0  0  0
M  END
> <s_m_source_file>
AV-unprocessed.smi

> <i_m_source_file_index>
265

> <i_lp_mmshare_version>
43012

> <i_f3d_flags>
0

> <s_epik_input>
W0NIMl0xW0NIMl1PW0NAQEhdKFtDSDNdKVtDQEBdMShbT0hdKVtDSDJdbihbY0hdbjIpYyhjMjMpbltjSF1uYzNOKFtDSDJdW0NIMl00KVtDSDJdW0NAQEhdKFtDQEhdNDUpW05IXUMoPU8pW0NIMl1PNQ==

> <s_epik_cmdline>
J2VwaWtfcHl0aG9uJywgJy1waCcsICc3LjAnLCAnLXRuJywgJzgnLCAnLW1hJywgJzIwMCcsICctbWV0YWxfYmluZGluZycsICctaW1hZScsICc8aW5maWxlLm1hZT4nLCAnLW9tYWUnLCAnPG91dGZpbGUubWFlPic=

> <r_lp_tautomer_probability>
1

> <r_epik_Ionization_Penalty>
0.00221504

> <r_epik_Ionization_Penalty_Charging>
0

> <r_epik_Ionization_Penalty_Neutral>
0.00221504

> <r_epik_State_Penalty>
-0

> <r_epik_Charging_Adjusted_Penalty>
0

> <i_epik_Tot_Q>
0

> <i_epik_Tot_abs_Q>
0

> <r_epik_Metal_State_Penalty>
-0

> <b_epik_Metal_Only>
0

> <s_lp_Force_Field>
OPLS_2005

> <r_lp_Energy>
44.9484

> <b_lp_Chiralities_Consistent>
1

> <s_lp_Variant>
AV-unprocessed.smi:265-6

> <Gold.Version>
5.8.1

> <Gold.Id.Protein>
6NUR|6NUR_protein|mol2

> <Gold.PLP.Fitness>
44.6826

> <Gold.PLP.PLP>
-37.3661

> <Gold.PLP.part.hbond>
-2.0000

> <Gold.PLP.part.metal>
0.0000

> <Gold.PLP.part.buried>
-2.6272

> <Gold.PLP.part.nonpolar>
-34.7381

> <Gold.PLP.part.repulsive>
1.4429

> <Gold.PLP.ligand.clash>
0.0000

> <Gold.PLP.ligand.torsion>
0.2623

> <Gold.PLP.Chemscore.Hbond>
2.0000

> <Gold.PLP.Chemscore.CHOScore>
0.4792

> <Gold.PLP.Chemscore.Metal>
0.0000

> <Gold.Chemscore.Hbonds>
donor molecule, donor type, donor heavy atom, donor atom, acceptor molecule, acceptor atom, score
      L1  H     7    39       P1 10957  0.57
      P1  H  7997  8010       L1    21  1.00
      L1  C    10    42       P1 10171  0.46

> <Gold.PLP.Chemscore.Internal.Correction>
0.4036

> <Gold.Rescore>
     Score         DG    S(hbond)    S(metal)    S(lipo)     H(rot)  DE(clash)    DE(int)     intcor
     12.22     -15.34       1.88        0.00      79.91       2.25       1.47       1.66       ----

> <Gold.Chemscore.Fitness>
12.2155

> <Gold.Chemscore.DG>
-15.3444

> <Gold.Chemscore.ZeroCoef>
-5.4800

> <Gold.Chemscore.Hbond>
1.8752

> <Gold.Chemscore.Metal>
0.0000

> <Gold.Chemscore.Lipo>
79.9078

> <Gold.Chemscore.Internal_Hbond>
0.0000

> <Gold.Chemscore.DEClash>
1.4673

> <Gold.Chemscore.DEInternal>
1.6616

> <Gold.Chemscore.Rot>
2.2453

> <Gold.Chemscore.Internal.Correction>
   9.000000E+99

> <Gold.Chemscore.Hbonds>
donor molecule, donor type, donor heavy atom, donor atom, acceptor molecule, acceptor atom, score
      L1  H     7    39       P1 10957  0.30
      P1  H  7997  8010       L1    21  0.99

> <Gold.Chemscore.Hbond.Weighted>
-6.2631

> <Gold.Chemscore.Metal.Weighted>
-0.0000

> <Gold.Chemscore.Lipo.Weighted>
-9.3492

> <Gold.Chemscore.Internal_Hbond.Weighted>
0.0000

> <Gold.Chemscore.DEClash.Weighted>
1.4673

> <Gold.Chemscore.DEInternal.Weighted>
1.6616

> <Gold.Chemscore.Rot.Weighted>
5.7479

> <Gold.Chemscore.Internal.Correction.Weighted>
   9.000000E+99

> <Gold.Protein.RotatedTorsions>
[ 6907 6896 6895 6894 ] final   26.47 input  -60.11 | X-H torsion
[ 7974 7965 7964 7962 ] final   31.21 input  175.53 | X-H torsion
[ 8008 7997 7996 7995 ] final   63.04 input   59.86 | X-H torsion
[ 10167 10162 10161 10158 ] final  166.29 input  -65.29 | X-H torsion
[ 10718 10713 10712 10709 ] final   69.49 input   66.30 | X-H torsion
[ 10763 10752 10751 10750 ] final  -93.13 input  -60.55 | X-H torsion
[ 11005 11000 10999 10996 ] final   -3.77 input  -57.11 | X-H torsion

> <Gold.Protein.ActiveResidues>
 VAL166  LYS551  ARG553  GLY616  TRP617  ASP618  TYR619  PRO620  LYS621  CYS622 
 ASP623  PHE694  ASN695  SER759  ASP760  ASP761  ALA762  ILE779  LEU786  VAL792 
 PHE793  MET794  SER795  GLU796  ALA797  LYS798  CYS799  TRP800  GLU811  SER814 

> <Gold.Protein.RotatedAtoms>
  151.9879  134.9994  160.0560 H   0  0  0  0  0  0  0  0  0  0  0  0  # atno 6907 bound_to 6896
  152.1636  133.4593  159.4881 H   0  0  0  0  0  0  0  0  0  0  0  0  # atno 6908 bound_to 6896
  150.6891  134.1959  159.4346 H   0  0  0  0  0  0  0  0  0  0  0  0  # atno 6909 bound_to 6896
  146.1564  139.6686  142.9063 H   0  0  0  0  0  0  0  0  0  0  0  0  # atno 7974 bound_to 7965
  155.6239  140.3496  155.4661 H   0  0  0  0  0  0  0  0  0  0  0  0  # atno 8008 bound_to 7997
  156.0057  140.1222  157.0527 H   0  0  0  0  0  0  0  0  0  0  0  0  # atno 8009 bound_to 7997
  154.4263  140.1091  156.5745 H   0  0  0  0  0  0  0  0  0  0  0  0  # atno 8010 bound_to 7997
  139.4922  144.4043  151.9373 H   0  0  0  0  0  0  0  0  0  0  0  0  # atno 10167 bound_to 10162
  157.6348  130.9428  150.0520 H   0  0  0  0  0  0  0  0  0  0  0  0  # atno 10718 bound_to 10713
  154.6929  135.5206  153.8417 H   0  0  0  0  0  0  0  0  0  0  0  0  # atno 10763 bound_to 10752
  153.0645  135.6580  154.0395 H   0  0  0  0  0  0  0  0  0  0  0  0  # atno 10764 bound_to 10752
  154.0266  135.2989  155.3353 H   0  0  0  0  0  0  0  0  0  0  0  0  # atno 10765 bound_to 10752
  140.6730  133.9220  155.8506 H   0  0  0  0  0  0  0  0  0  0  0  0  # atno 11005 bound_to 11000
  145.4697  141.0435  143.2705 LP  0  0  0  0  0  0  0  0  0  0  0  0  # atno 17320 bound_to 7965
  144.7969  139.6217  143.7089 LP  0  0  0  0  0  0  0  0  0  0  0  0  # atno 17321 bound_to 7965
  140.3483  144.3120  150.5954 LP  0  0  0  0  0  0  0  0  0  0  0  0  # atno 17342 bound_to 10162
  140.5507  143.2207  151.7932 LP  0  0  0  0  0  0  0  0  0  0  0  0  # atno 17343 bound_to 10162
  156.1579  130.3643  149.9342 LP  0  0  0  0  0  0  0  0  0  0  0  0  # atno 17370 bound_to 10713
  156.7346  130.9056  151.3628 LP  0  0  0  0  0  0  0  0  0  0  0  0  # atno 17371 bound_to 10713
  141.0377  134.0666  157.3939 LP  0  0  0  0  0  0  0  0  0  0  0  0  # atno 17394 bound_to 11000
  139.8975  135.0151  156.7106 LP  0  0  0  0  0  0  0  0  0  0  0  0  # atno 17395 bound_to 11000

$$$$
