AV-unprocessed.smi:474|AV-procd|sdf|2665|dock9
  -GOLD-   2262023 83D 1   1.00000     0.00000
 Structure written by MMmdl.
 37 38  0  0  0  0  0  0  0  0  1 V2000
  146.5306  138.8158  152.3552 C   0  0  0  0  0  0  0  0  0  0  0  0
  147.3742  139.4753  153.3918 C   0  0  0  0  0  0  0  0  0  0  0  0
  147.4543  140.7618  153.8450 C   0  0  0  0  0  0  0  0  0  0  0  0
  148.4690  140.6860  154.8432 C   0  0  0  0  0  0  0  0  0  0  0  0
  148.9465  141.7579  155.6408 N   0  0  0  0  0  0  0  0  0  0  0  0
  149.5547  141.7030  156.8377 C   0  0  0  0  0  0  0  0  0  0  0  0
  149.7873  140.6750  157.4737 O   0  0  0  0  0  0  0  0  0  0  0  0
  149.8880  142.9285  157.2678 N   0  0  0  0  0  0  0  0  0  0  0  0
  150.5706  143.2204  158.5230 C   0  0  0  0  0  0  0  0  0  0  0  0
  151.9507  142.5429  158.5859 C   0  0  0  0  0  0  0  0  0  0  0  0
  152.5595  142.5767  159.9777 C   0  0  0  0  0  0  0  0  0  0  0  0
  153.5038  141.6969  160.3643 C   0  0  0  0  0  0  0  0  0  0  0  0
  154.1355  141.6744  161.7452 C   0  0  0  0  0  0  0  0  0  0  0  0
  153.3578  142.5285  162.7605 C   0  0  0  0  0  0  0  0  0  0  0  0
  152.9354  143.8694  162.1479 C   0  0  0  0  0  0  0  0  0  0  0  0
  152.0403  143.6634  160.9127 C   0  0  0  0  0  0  0  0  0  0  0  0
  148.9587  139.4674  154.9791 N   0  0  0  0  0  0  0  0  0  0  0  0
  148.2624  138.6840  154.0513 O   0  0  0  0  0  0  0  0  0  0  0  0
  145.6884  139.4499  152.0778 H   0  0  0  0  0  0  0  0  0  0  0  0
  146.1332  137.8695  152.7228 H   0  0  0  0  0  0  0  0  0  0  0  0
  147.1125  138.6131  151.4562 H   0  0  0  0  0  0  0  0  0  0  0  0
  146.8724  141.6058  153.5070 H   0  0  0  0  0  0  0  0  0  0  0  0
  148.8201  142.6776  155.2446 H   0  0  0  0  0  0  0  0  0  0  0  0
  149.6578  143.7181  156.6822 H   0  0  0  0  0  0  0  0  0  0  0  0
  150.6760  144.3027  158.5966 H   0  0  0  0  0  0  0  0  0  0  0  0
  149.9530  142.9097  159.3676 H   0  0  0  0  0  0  0  0  0  0  0  0
  151.8654  141.5056  158.2587 H   0  0  0  0  0  0  0  0  0  0  0  0
  152.6397  143.0262  157.8923 H   0  0  0  0  0  0  0  0  0  0  0  0
  153.8613  140.9518  159.6683 H   0  0  0  0  0  0  0  0  0  0  0  0
  154.1953  140.6440  162.0969 H   0  0  0  0  0  0  0  0  0  0  0  0
  155.1588  142.0386  161.6523 H   0  0  0  0  0  0  0  0  0  0  0  0
  152.4673  141.9883  163.0850 H   0  0  0  0  0  0  0  0  0  0  0  0
  153.9631  142.6907  163.6528 H   0  0  0  0  0  0  0  0  0  0  0  0
  152.4140  144.4776  162.8875 H   0  0  0  0  0  0  0  0  0  0  0  0
  153.8274  144.4288  161.8622 H   0  0  0  0  0  0  0  0  0  0  0  0
  151.9524  144.6036  160.3672 H   0  0  0  0  0  0  0  0  0  0  0  0
  151.0347  143.3871  161.2310 H   0  0  0  0  0  0  0  0  0  0  0  0
  1  2  1  0  0  0  0
  1 19  1  0  0  0  0
  1 20  1  0  0  0  0
  1 21  1  0  0  0  0
  2 18  1  0  0  0  0
  2  3  2  0  0  0  0
  3  4  1  0  0  0  0
  3 22  1  0  0  0  0
  4  5  1  0  0  0  0
  4 17  2  0  0  0  0
  5  6  1  0  0  0  0
  5 23  1  0  0  0  0
  6  7  2  0  0  0  0
  6  8  1  0  0  0  0
  8  9  1  0  0  0  0
  8 24  1  0  0  0  0
  9 10  1  0  0  0  0
  9 25  1  0  0  0  0
  9 26  1  0  0  0  0
 10 11  1  0  0  0  0
 10 27  1  0  0  0  0
 10 28  1  0  0  0  0
 11 16  1  0  0  0  0
 11 12  2  0  0  0  0
 12 13  1  0  0  0  0
 12 29  1  0  0  0  0
 13 14  1  0  0  0  0
 13 30  1  0  0  0  0
 13 31  1  0  0  0  0
 14 15  1  0  0  0  0
 14 32  1  0  0  0  0
 14 33  1  0  0  0  0
 15 16  1  0  0  0  0
 15 34  1  0  0  0  0
 15 35  1  0  0  0  0
 16 36  1  0  0  0  0
 16 37  1  0  0  0  0
 17 18  1  0  0  0  0
M  END
> <s_m_source_file>
AV-unprocessed.smi

> <i_m_source_file_index>
474

> <i_lp_mmshare_version>
43012

> <i_f3d_flags>
0

> <s_epik_input>
W0NIM11jMVtjSF1jKG5vMSlbTkhdQyg9TylbTkhdW0NIMl1bQ0gyXUMyPVtDSF1bQ0gyXVtDSDJdW0NIMl1bQ0gyXTI=

> <s_epik_cmdline>
J2VwaWtfcHl0aG9uJywgJy1waCcsICc3LjAnLCAnLXRuJywgJzgnLCAnLW1hJywgJzIwMCcsICctbWV0YWxfYmluZGluZycsICctaW1hZScsICc8aW5maWxlLm1hZT4nLCAnLW9tYWUnLCAnPG91dGZpbGUubWFlPic=

> <r_lp_tautomer_probability>
1

> <r_epik_Ionization_Penalty>
2.87157e-05

> <r_epik_Ionization_Penalty_Charging>
0

> <r_epik_Ionization_Penalty_Neutral>
2.87157e-05

> <r_epik_State_Penalty>
-0

> <r_epik_Charging_Adjusted_Penalty>
0

> <i_epik_Tot_Q>
0

> <i_epik_Tot_abs_Q>
0

> <r_epik_Metal_State_Penalty>
0.00793999

> <b_epik_Metal_Only>
0

> <s_lp_Force_Field>
OPLS_2005

> <r_lp_Energy>
6.67712

> <b_lp_Chiralities_Consistent>
1

> <s_lp_Variant>
AV-unprocessed.smi:474-1

> <Gold.Version>
5.8.1

> <Gold.Id.Protein>
6NUR|6NUR_protein|mol2

> <Gold.PLP.Fitness>
43.7393

> <Gold.PLP.PLP>
-38.9795

> <Gold.PLP.part.hbond>
-2.0000

> <Gold.PLP.part.metal>
0.0000

> <Gold.PLP.part.buried>
-0.8117

> <Gold.PLP.part.nonpolar>
-36.4573

> <Gold.PLP.part.repulsive>
0.5248

> <Gold.PLP.ligand.clash>
0.0000

> <Gold.PLP.ligand.torsion>
0.4715

> <Gold.PLP.Chemscore.Hbond>
1.8960

> <Gold.PLP.Chemscore.CHOScore>
0.0000

> <Gold.PLP.Chemscore.Metal>
0.0000

> <Gold.Chemscore.Hbonds>
donor molecule, donor type, donor heavy atom, donor atom, acceptor molecule, acceptor atom, score
      L1  H     5    23       P1  8028  0.80
      L1  H     8    24       P1  8028  1.00

> <Gold.PLP.Chemscore.Internal.Correction>
0.0150

> <Gold.Rescore>
     Score         DG    S(hbond)    S(metal)    S(lipo)     H(rot)  DE(clash)    DE(int)     intcor
     18.38     -20.00       1.86        0.00     103.54       1.48       0.28       1.34       ----

> <Gold.Chemscore.Fitness>
18.3827

> <Gold.Chemscore.DG>
-19.9987

> <Gold.Chemscore.ZeroCoef>
-5.4800

> <Gold.Chemscore.Hbond>
1.8555

> <Gold.Chemscore.Metal>
0.0000

> <Gold.Chemscore.Lipo>
103.5442

> <Gold.Chemscore.Internal_Hbond>
0.0000

> <Gold.Chemscore.DEClash>
0.2760

> <Gold.Chemscore.DEInternal>
1.3400

> <Gold.Chemscore.Rot>
1.4818

> <Gold.Chemscore.Internal.Correction>
   9.000000E+99

> <Gold.Chemscore.Hbonds>
donor molecule, donor type, donor heavy atom, donor atom, acceptor molecule, acceptor atom, score
      L1  H     5    23       P1  8028  0.75
      L1  H     8    24       P1  8028  0.99

> <Gold.Chemscore.Hbond.Weighted>
-6.1973

> <Gold.Chemscore.Metal.Weighted>
-0.0000

> <Gold.Chemscore.Lipo.Weighted>
-12.1147

> <Gold.Chemscore.Internal_Hbond.Weighted>
0.0000

> <Gold.Chemscore.DEClash.Weighted>
0.2760

> <Gold.Chemscore.DEInternal.Weighted>
1.3400

> <Gold.Chemscore.Rot.Weighted>
3.7933

> <Gold.Chemscore.Internal.Correction.Weighted>
   9.000000E+99

> <Gold.Protein.RotatedTorsions>
[ 6907 6896 6895 6894 ] final   79.98 input  -60.11 | X-H torsion
[ 7974 7965 7964 7962 ] final   80.58 input  175.53 | X-H torsion
[ 8008 7997 7996 7995 ] final   -5.40 input   59.86 | X-H torsion
[ 10167 10162 10161 10158 ] final  -10.67 input  -65.29 | X-H torsion
[ 10718 10713 10712 10709 ] final  150.11 input   66.30 | X-H torsion
[ 10763 10752 10751 10750 ] final   84.08 input  -60.55 | X-H torsion
[ 11005 11000 10999 10996 ] final  -17.05 input  -57.11 | X-H torsion

> <Gold.Protein.ActiveResidues>
 VAL166  LYS551  ARG553  GLY616  TRP617  ASP618  TYR619  PRO620  LYS621  CYS622 
 ASP623  PHE694  ASN695  SER759  ASP760  ASP761  ALA762  ILE779  LEU786  VAL792 
 PHE793  MET794  SER795  GLU796  ALA797  LYS798  CYS799  TRP800  GLU811  SER814 

> <Gold.Protein.RotatedAtoms>
  152.5218  134.3428  159.9223 H   0  0  0  0  0  0  0  0  0  0  0  0  # atno 6907 bound_to 6896
  151.3378  133.3968  159.2676 H   0  0  0  0  0  0  0  0  0  0  0  0  # atno 6908 bound_to 6896
  150.9828  134.9197  159.7912 H   0  0  0  0  0  0  0  0  0  0  0  0  # atno 6909 bound_to 6896
  145.6493  139.2444  143.1985 H   0  0  0  0  0  0  0  0  0  0  0  0  # atno 7974 bound_to 7965
  154.6042  140.2459  155.7752 H   0  0  0  0  0  0  0  0  0  0  0  0  # atno 8008 bound_to 7997
  156.2330  140.2960  156.0191 H   0  0  0  0  0  0  0  0  0  0  0  0  # atno 8009 bound_to 7997
  155.2159  140.0399  157.2931 H   0  0  0  0  0  0  0  0  0  0  0  0  # atno 8010 bound_to 7997
  140.7120  143.5722  150.9080 H   0  0  0  0  0  0  0  0  0  0  0  0  # atno 10167 bound_to 10162
  157.2876  131.0847  151.1486 H   0  0  0  0  0  0  0  0  0  0  0  0  # atno 10718 bound_to 10713
  153.1349  135.4667  154.9407 H   0  0  0  0  0  0  0  0  0  0  0  0  # atno 10763 bound_to 10752
  154.7697  135.3155  154.8217 H   0  0  0  0  0  0  0  0  0  0  0  0  # atno 10764 bound_to 10752
  153.8751  135.6899  153.4825 H   0  0  0  0  0  0  0  0  0  0  0  0  # atno 10765 bound_to 10752
  140.8130  133.8126  155.9582 H   0  0  0  0  0  0  0  0  0  0  0  0  # atno 11005 bound_to 11000
  146.1216  140.7301  142.9455 LP  0  0  0  0  0  0  0  0  0  0  0  0  # atno 17320 bound_to 7965
  144.7128  140.4102  143.7067 LP  0  0  0  0  0  0  0  0  0  0  0  0  # atno 17321 bound_to 7965
  139.9448  143.6340  152.3044 LP  0  0  0  0  0  0  0  0  0  0  0  0  # atno 17342 bound_to 10162
  139.6837  144.7653  151.1562 LP  0  0  0  0  0  0  0  0  0  0  0  0  # atno 17343 bound_to 10162
  157.2895  130.6789  149.6107 LP  0  0  0  0  0  0  0  0  0  0  0  0  # atno 17370 bound_to 10713
  155.9666  130.4425  150.5384 LP  0  0  0  0  0  0  0  0  0  0  0  0  # atno 17371 bound_to 10713
  140.9178  134.2179  157.4945 LP  0  0  0  0  0  0  0  0  0  0  0  0  # atno 17394 bound_to 11000
  139.8713  134.9779  156.4976 LP  0  0  0  0  0  0  0  0  0  0  0  0  # atno 17395 bound_to 11000

$$$$
