AV-unprocessed.smi:1093|AV-procd|sdf|4742|dock1
  -GOLD-   22720 3273D 1   1.00000     0.00000
 Structure written by MMmdl.
 47 48  0  0  0  0  0  0  0  0  2 V2000
  146.1272  135.3096  153.5671 C   0  0  0  0  0  0  0  0  0  0  0  0
  146.4949  136.5056  154.4574 C   0  0  0  0  0  0  0  0  0  0  0  0
  147.0644  137.6393  153.6854 N   0  3  1  0  0  0  0  0  0  0  0  0
  146.1430  138.1033  152.6152 C   0  0  0  0  0  0  0  0  0  0  0  0
  146.8010  139.1844  151.7428 C   0  0  0  0  0  0  0  0  0  0  0  0
  147.2790  140.3653  152.5961 C   0  0  0  0  0  0  0  0  0  0  0  0
  148.2092  139.8635  153.7149 C   0  0  1  0  0  0  0  0  0  0  0  0
  148.6117  140.9619  154.5885 N   0  0  0  0  0  0  0  0  0  0  0  0
  149.4398  140.8509  155.6370 C   0  0  0  0  0  0  0  0  0  0  0  0
  149.9579  139.7892  155.9818 O   0  0  0  0  0  0  0  0  0  0  0  0
  149.6023  142.0335  156.2542 N   0  0  0  0  0  0  0  0  0  0  0  0
  150.4071  142.3342  157.3853 C   0  0  0  0  0  0  0  0  0  0  0  0
  151.4264  141.4253  157.7334 C   0  0  0  0  0  0  0  0  0  0  0  0
  152.2272  141.6890  158.8603 C   0  0  0  0  0  0  0  0  0  0  0  0
  151.9744  142.8543  159.6128 C   0  0  0  0  0  0  0  0  0  0  0  0
  152.7669  143.1284  160.7361 N   0  0  0  0  0  0  0  0  0  0  0  0
  152.2183  144.1858  161.5720 C   0  0  0  0  0  0  0  0  0  0  0  0
  153.2016  141.9272  161.4331 C   0  0  0  0  0  0  0  0  0  0  0  0
  150.9873  143.7257  159.2973 N   0  0  0  0  0  0  0  0  0  0  0  0
  150.2241  143.4683  158.2137 C   0  0  0  0  0  0  0  0  0  0  0  0
  147.5130  138.7679  154.5448 C   0  0  0  0  0  0  0  0  0  0  0  0
  145.6280  134.5370  154.1525 H   0  0  0  0  0  0  0  0  0  0  0  0
  147.0038  134.8501  153.1117 H   0  0  0  0  0  0  0  0  0  0  0  0
  145.4482  135.6069  152.7675 H   0  0  0  0  0  0  0  0  0  0  0  0
  145.5841  136.8355  154.9589 H   0  0  0  0  0  0  0  0  0  0  0  0
  147.1866  136.2028  155.2447 H   0  0  0  0  0  0  0  0  0  0  0  0
  145.8579  137.2617  151.9828 H   0  0  0  0  0  0  0  0  0  0  0  0
  145.2257  138.4879  153.0642 H   0  0  0  0  0  0  0  0  0  0  0  0
  147.6473  138.7559  151.2039 H   0  0  0  0  0  0  0  0  0  0  0  0
  146.0968  139.5329  150.9867 H   0  0  0  0  0  0  0  0  0  0  0  0
  147.7931  141.0923  151.9661 H   0  0  0  0  0  0  0  0  0  0  0  0
  146.4177  140.8784  153.0267 H   0  0  0  0  0  0  0  0  0  0  0  0
  149.1032  139.4279  153.2638 H   0  0  0  0  0  0  0  0  0  0  0  0
  148.2306  141.8737  154.3817 H   0  0  0  0  0  0  0  0  0  0  0  0
  149.0416  142.7978  155.9073 H   0  0  0  0  0  0  0  0  0  0  0  0
  151.5980  140.5367  157.1434 H   0  0  0  0  0  0  0  0  0  0  0  0
  153.0181  141.0087  159.1407 H   0  0  0  0  0  0  0  0  0  0  0  0
  151.9390  145.0514  160.9698 H   0  0  0  0  0  0  0  0  0  0  0  0
  152.9585  144.5095  162.3041 H   0  0  0  0  0  0  0  0  0  0  0  0
  151.3349  143.8392  162.1098 H   0  0  0  0  0  0  0  0  0  0  0  0
  153.6083  141.1971  160.7323 H   0  0  0  0  0  0  0  0  0  0  0  0
  152.3723  141.4657  161.9705 H   0  0  0  0  0  0  0  0  0  0  0  0
  153.9815  142.1719  162.1545 H   0  0  0  0  0  0  0  0  0  0  0  0
  149.4397  144.1867  158.0338 H   0  0  0  0  0  0  0  0  0  0  0  0
  146.6541  139.1822  155.0757 H   0  0  0  0  0  0  0  0  0  0  0  0
  148.2076  138.4069  155.3028 H   0  0  0  0  0  0  0  0  0  0  0  0
  147.8840  137.2820  153.2155 H   0  0  0  0  0  0  0  0  0  0  0  0
  1  2  1  0  0  0  0
  1 22  1  0  0  0  0
  1 23  1  0  0  0  0
  1 24  1  0  0  0  0
  2  3  1  0  0  0  0
  2 25  1  0  0  0  0
  2 26  1  0  0  0  0
  3 21  1  0  0  0  0
  3  4  1  0  0  0  0
  3 47  1  0  0  0  0
  4  5  1  0  0  0  0
  4 27  1  0  0  0  0
  4 28  1  0  0  0  0
  5  6  1  0  0  0  0
  5 29  1  0  0  0  0
  5 30  1  0  0  0  0
  6  7  1  0  0  0  0
  6 31  1  0  0  0  0
  6 32  1  0  0  0  0
  7  8  1  0  0  0  0
  7 21  1  0  0  0  0
  7 33  1  0  0  0  0
  8  9  1  0  0  0  0
  8 34  1  0  0  0  0
  9 10  2  0  0  0  0
  9 11  1  0  0  0  0
 11 12  1  0  0  0  0
 11 35  1  0  0  0  0
 12 20  1  0  0  0  0
 12 13  2  0  0  0  0
 13 14  1  0  0  0  0
 13 36  1  0  0  0  0
 14 15  2  0  0  0  0
 14 37  1  0  0  0  0
 15 16  1  0  0  0  0
 15 19  1  0  0  0  0
 16 17  1  0  0  0  0
 16 18  1  0  0  0  0
 17 38  1  0  0  0  0
 17 39  1  0  0  0  0
 17 40  1  0  0  0  0
 18 41  1  0  0  0  0
 18 42  1  0  0  0  0
 18 43  1  0  0  0  0
 19 20  2  0  0  0  0
 20 44  1  0  0  0  0
 21 45  1  0  0  0  0
 21 46  1  0  0  0  0
M  CHG  1   3   1
M  END
> <s_m_source_file>
AV-unprocessed.smi

> <i_m_source_file_index>
1093

> <i_lp_mmshare_version>
43012

> <i_f3d_flags>
0

> <s_epik_input>
W0NIM11bQ0gyXU4xW0NIMl1bQ0gyXVtDSDJdW0NASF0oW0NIMl0xKVtOSF1DKD1PKVtOSF1jMltjSF1bY0hdYyhOKFtDSDNdKVtDSDNdKW5bY0hdMg==

> <s_epik_cmdline>
J2VwaWtfcHl0aG9uJywgJy1waCcsICc3LjAnLCAnLXRuJywgJzgnLCAnLW1hJywgJzIwMCcsICctbWV0YWxfYmluZGluZycsICctaW1hZScsICc8aW5maWxlLm1hZT4nLCAnLW9tYWUnLCAnPG91dGZpbGUubWFlPic=

> <r_lp_tautomer_probability>
1

> <r_epik_Ionization_Penalty>
0.489418

> <r_epik_Ionization_Penalty_Charging>
0.00268196

> <r_epik_Ionization_Penalty_Neutral>
0.486736

> <r_epik_State_Penalty>
0.491157

> <r_epik_Charging_Adjusted_Penalty>
0.493839

> <i_epik_Tot_Q>
1

> <i_epik_Tot_abs_Q>
1

> <r_epik_Metal_State_Penalty>
0.266953

> <b_epik_Metal_Only>
0

> <s_lp_Force_Field>
OPLS_2005

> <r_lp_Energy>
24.8298

> <b_lp_Chiralities_Consistent>
1

> <s_lp_Variant>
AV-unprocessed.smi:1093-5

> <Gold.Version>
5.8.1

> <Gold.Id.Protein>
6NUR|6NUR_protein|mol2

> <Gold.PLP.Fitness>
43.7705

> <Gold.PLP.PLP>
-33.4240

> <Gold.PLP.part.hbond>
-2.0000

> <Gold.PLP.part.metal>
0.0000

> <Gold.PLP.part.buried>
0.5494

> <Gold.PLP.part.nonpolar>
-31.4277

> <Gold.PLP.part.repulsive>
0.2800

> <Gold.PLP.ligand.clash>
0.0000

> <Gold.PLP.ligand.torsion>
0.5881

> <Gold.PLP.Chemscore.Hbond>
2.7840

> <Gold.PLP.Chemscore.CHOScore>
0.9803

> <Gold.PLP.Chemscore.Metal>
0.0000

> <Gold.Chemscore.Hbonds>
donor molecule, donor type, donor heavy atom, donor atom, acceptor molecule, acceptor atom, score
      L1  H     3    47       P1  7948  2.00
      L1  H    11    35       P1  8028  0.94
      L1  C    20    44       P1  8028  0.43
      L1  C    20    44       P1  8029  0.58

> <Gold.PLP.Chemscore.Internal.Correction>
0.2297

> <Gold.Rescore>
     Score         DG    S(hbond)    S(metal)    S(lipo)     H(rot)  DE(clash)    DE(int)     intcor
     15.72     -18.19       1.65        0.00      91.63       1.37       0.45       2.03       ----

> <Gold.Chemscore.Fitness>
15.7155

> <Gold.Chemscore.DG>
-18.1924

> <Gold.Chemscore.ZeroCoef>
-5.4800

> <Gold.Chemscore.Hbond>
1.6468

> <Gold.Chemscore.Metal>
0.0000

> <Gold.Chemscore.Lipo>
91.6273

> <Gold.Chemscore.Internal_Hbond>
0.0000

> <Gold.Chemscore.DEClash>
0.4498

> <Gold.Chemscore.DEInternal>
2.0272

> <Gold.Chemscore.Rot>
1.3704

> <Gold.Chemscore.Internal.Correction>
   9.000000E+99

> <Gold.Chemscore.Hbonds>
donor molecule, donor type, donor heavy atom, donor atom, acceptor molecule, acceptor atom, score
      L1  H     3    47       P1  7948  0.94
      L1  H    11    35       P1  8028  0.90

> <Gold.Chemscore.Hbond.Weighted>
-5.5003

> <Gold.Chemscore.Metal.Weighted>
-0.0000

> <Gold.Chemscore.Lipo.Weighted>
-10.7204

> <Gold.Chemscore.Internal_Hbond.Weighted>
0.0000

> <Gold.Chemscore.DEClash.Weighted>
0.4498

> <Gold.Chemscore.DEInternal.Weighted>
2.0272

> <Gold.Chemscore.Rot.Weighted>
3.5082

> <Gold.Chemscore.Internal.Correction.Weighted>
   9.000000E+99

> <Gold.Protein.RotatedTorsions>
[ 6907 6896 6895 6894 ] final  -26.22 input  -60.11 | X-H torsion
[ 7974 7965 7964 7962 ] final   62.86 input  175.53 | X-H torsion
[ 8008 7997 7996 7995 ] final  109.87 input   59.86 | X-H torsion
[ 10167 10162 10161 10158 ] final -136.51 input  -65.29 | X-H torsion
[ 10718 10713 10712 10709 ] final   14.46 input   66.30 | X-H torsion
[ 10763 10752 10751 10750 ] final -171.44 input  -60.55 | X-H torsion
[ 11005 11000 10999 10996 ] final -104.86 input  -57.11 | X-H torsion

> <Gold.Protein.ActiveResidues>
 VAL166  LYS551  ARG553  GLY616  TRP617  ASP618  TYR619  PRO620  LYS621  CYS622 
 ASP623  PHE694  ASN695  SER759  ASP760  ASP761  ALA762  ILE779  LEU786  VAL792 
 PHE793  MET794  SER795  GLU796  ALA797  LYS798  CYS799  TRP800  GLU811  SER814 

> <Gold.Protein.RotatedAtoms>
  151.1641  135.0287  159.8722 H   0  0  0  0  0  0  0  0  0  0  0  0  # atno 6907 bound_to 6896
  152.5451  134.1246  159.8423 H   0  0  0  0  0  0  0  0  0  0  0  0  # atno 6908 bound_to 6896
  151.1344  133.4968  159.2631 H   0  0  0  0  0  0  0  0  0  0  0  0  # atno 6909 bound_to 6896
  145.8685  139.3362  143.0776 H   0  0  0  0  0  0  0  0  0  0  0  0  # atno 7974 bound_to 7965
  156.2011  140.3049  155.9528 H   0  0  0  0  0  0  0  0  0  0  0  0  # atno 8008 bound_to 7997
  155.2951  140.0444  157.3043 H   0  0  0  0  0  0  0  0  0  0  0  0  # atno 8009 bound_to 7997
  154.5572  140.2309  155.8401 H   0  0  0  0  0  0  0  0  0  0  0  0  # atno 8010 bound_to 7997
  139.8671  143.7004  152.2644 H   0  0  0  0  0  0  0  0  0  0  0  0  # atno 10167 bound_to 10162
  157.0395  130.6225  149.5748 H   0  0  0  0  0  0  0  0  0  0  0  0  # atno 10718 bound_to 10713
  154.6305  135.2886  155.0222 H   0  0  0  0  0  0  0  0  0  0  0  0  # atno 10763 bound_to 10752
  154.1384  135.6522  153.4941 H   0  0  0  0  0  0  0  0  0  0  0  0  # atno 10764 bound_to 10752
  153.0277  135.5327  154.7130 H   0  0  0  0  0  0  0  0  0  0  0  0  # atno 10765 bound_to 10752
  141.1081  133.8759  157.1663 H   0  0  0  0  0  0  0  0  0  0  0  0  # atno 11005 bound_to 11000
  145.9164  140.9145  143.0427 LP  0  0  0  0  0  0  0  0  0  0  0  0  # atno 17320 bound_to 7965
  144.6726  140.1230  143.7448 LP  0  0  0  0  0  0  0  0  0  0  0  0  # atno 17321 bound_to 7965
  139.7319  144.7580  151.0788 LP  0  0  0  0  0  0  0  0  0  0  0  0  # atno 17342 bound_to 10162
  140.7766  143.5078  150.9691 LP  0  0  0  0  0  0  0  0  0  0  0  0  # atno 17343 bound_to 10162
  156.0043  130.5127  150.7774 LP  0  0  0  0  0  0  0  0  0  0  0  0  # atno 17370 bound_to 10713
  157.5116  131.0926  151.0191 LP  0  0  0  0  0  0  0  0  0  0  0  0  # atno 17371 bound_to 10713
  139.9960  135.0046  157.0084 LP  0  0  0  0  0  0  0  0  0  0  0  0  # atno 17394 bound_to 11000
  140.4850  134.1251  155.7223 LP  0  0  0  0  0  0  0  0  0  0  0  0  # atno 17395 bound_to 11000

$$$$
