AV-unprocessed.smi:399|AV-procd|sdf|2491|dock1
  -GOLD-   2262022433D 1   1.00000     0.00000
 Structure written by MMmdl.
 47 48  0  0  0  0  0  0  0  0  4 V2000
  148.8818  133.8749  154.4727 C   0  0  0  0  0  0  0  0  0  0  0  0
  147.4285  134.4114  154.5088 C   0  0  0  0  0  0  0  0  0  0  0  0
  146.6265  133.4273  155.3966 C   0  0  0  0  0  0  0  0  0  0  0  0
  147.4043  135.8309  155.1448 C   0  0  0  0  0  0  0  0  0  0  0  0
  148.1423  135.8978  156.4026 N   0  0  0  0  0  0  0  0  0  0  0  0
  147.6028  136.2420  157.5804 C   0  0  0  0  0  0  0  0  0  0  0  0
  146.4107  136.5207  157.7163 O   0  0  0  0  0  0  0  0  0  0  0  0
  148.5616  136.2579  158.7800 C   0  0  0  0  0  0  0  0  0  0  0  0
  147.9918  135.6490  159.9943 N   0  0  0  0  0  0  0  0  0  0  0  0
  147.8690  134.2454  160.0098 C   0  0  0  0  0  0  0  0  0  0  0  0
  147.3549  133.5834  161.0649 C   0  0  0  0  0  0  0  0  0  0  0  0
  147.2351  132.1419  161.0635 N   0  3  0  0  0  0  0  0  0  0  0  0
  146.4394  131.6170  161.8355 O   0  0  0  0  0  0  0  0  0  0  0  0
  147.9317  131.4870  160.2938 O   0  5  0  0  0  0  0  0  0  0  0  0
  146.9228  134.3660  162.2064 C   0  0  0  0  0  0  0  0  0  0  0  0
  147.0365  135.7087  162.1975 C   0  0  0  0  0  0  0  0  0  0  0  0
  147.5953  136.4272  161.0477 C   0  0  0  0  0  0  0  0  0  0  0  0
  147.6997  137.6538  161.0317 O   0  0  0  0  0  0  0  0  0  0  0  0
  146.8508  134.4225  153.1158 N   0  3  0  0  0  0  0  0  0  0  0  0
  146.8366  133.1098  152.4090 C   0  0  0  0  0  0  0  0  0  0  0  0
  146.3987  133.2855  150.9456 C   0  0  0  0  0  0  0  0  0  0  0  0
  145.1154  133.8923  150.9010 O   0  0  0  0  0  0  0  0  0  0  0  0
  145.1276  135.1860  151.4868 C   0  0  0  0  0  0  0  0  0  0  0  0
  145.5212  135.0812  152.9698 C   0  0  0  0  0  0  0  0  0  0  0  0
  149.2591  133.6587  155.4729 H   0  0  0  0  0  0  0  0  0  0  0  0
  149.5774  134.5925  154.0377 H   0  0  0  0  0  0  0  0  0  0  0  0
  148.9499  132.9489  153.9002 H   0  0  0  0  0  0  0  0  0  0  0  0
  147.1251  133.2428  156.3489 H   0  0  0  0  0  0  0  0  0  0  0  0
  146.5046  132.4601  154.9075 H   0  0  0  0  0  0  0  0  0  0  0  0
  145.6355  133.8059  155.6453 H   0  0  0  0  0  0  0  0  0  0  0  0
  147.8390  136.5675  154.4690 H   0  0  0  0  0  0  0  0  0  0  0  0
  146.3776  136.1450  155.3354 H   0  0  0  0  0  0  0  0  0  0  0  0
  149.1278  135.6792  156.3727 H   0  0  0  0  0  0  0  0  0  0  0  0
  149.4789  135.7443  158.4887 H   0  0  0  0  0  0  0  0  0  0  0  0
  148.8639  137.2870  158.9834 H   0  0  0  0  0  0  0  0  0  0  0  0
  148.2131  133.7546  159.1106 H   0  0  0  0  0  0  0  0  0  0  0  0
  146.5052  133.8817  163.0768 H   0  0  0  0  0  0  0  0  0  0  0  0
  146.7075  136.2719  163.0584 H   0  0  0  0  0  0  0  0  0  0  0  0
  147.8200  132.6443  152.4080 H   0  0  0  0  0  0  0  0  0  0  0  0
  146.1533  132.4200  152.9044 H   0  0  0  0  0  0  0  0  0  0  0  0
  147.1210  133.8860  150.3902 H   0  0  0  0  0  0  0  0  0  0  0  0
  146.3457  132.3153  150.4516 H   0  0  0  0  0  0  0  0  0  0  0  0
  145.8146  135.8390  150.9457 H   0  0  0  0  0  0  0  0  0  0  0  0
  144.1337  135.6239  151.3932 H   0  0  0  0  0  0  0  0  0  0  0  0
  144.7583  134.5165  153.5058 H   0  0  0  0  0  0  0  0  0  0  0  0
  145.5254  136.0887  153.3809 H   0  0  0  0  0  0  0  0  0  0  0  0
  147.4866  134.9993  152.5835 H   0  0  0  0  0  0  0  0  0  0  0  0
  1  2  1  0  0  0  0
  1 25  1  0  0  0  0
  1 26  1  0  0  0  0
  1 27  1  0  0  0  0
  2  3  1  0  0  0  0
  2  4  1  0  0  0  0
  2 19  1  0  0  0  0
  3 28  1  0  0  0  0
  3 29  1  0  0  0  0
  3 30  1  0  0  0  0
  4  5  1  0  0  0  0
  4 31  1  0  0  0  0
  4 32  1  0  0  0  0
  5  6  1  0  0  0  0
  5 33  1  0  0  0  0
  6  7  2  0  0  0  0
  6  8  1  0  0  0  0
  8  9  1  0  0  0  0
  8 34  1  0  0  0  0
  8 35  1  0  0  0  0
  9 17  1  0  0  0  0
  9 10  1  0  0  0  0
 10 11  2  0  0  0  0
 10 36  1  0  0  0  0
 11 12  1  0  0  0  0
 11 15  1  0  0  0  0
 12 13  2  0  0  0  0
 12 14  1  0  0  0  0
 15 16  2  0  0  0  0
 15 37  1  0  0  0  0
 16 17  1  0  0  0  0
 16 38  1  0  0  0  0
 17 18  2  0  0  0  0
 19 24  1  0  0  0  0
 19 20  1  0  0  0  0
 19 47  1  0  0  0  0
 20 21  1  0  0  0  0
 20 39  1  0  0  0  0
 20 40  1  0  0  0  0
 21 22  1  0  0  0  0
 21 41  1  0  0  0  0
 21 42  1  0  0  0  0
 22 23  1  0  0  0  0
 23 24  1  0  0  0  0
 23 43  1  0  0  0  0
 23 44  1  0  0  0  0
 24 45  1  0  0  0  0
 24 46  1  0  0  0  0
M  CHG  1  12   1
M  CHG  1  14  -1
M  CHG  1  19   1
M  END
> <s_m_source_file>
AV-unprocessed.smi

> <i_m_source_file_index>
399

> <i_lp_mmshare_version>
43012

> <i_f3d_flags>
0

> <s_epik_input>
W0NIMl0xW0NIMl1PW0NIMl1bQ0gyXU4xQyhbQ0gzXSkoW0NIM10pW0NIMl1bTkhdQyg9TylbQ0gyXW4yW2NIXWMoW04rXSg9TylbTy1dKVtjSF1bY0hdYzI9Tw==

> <s_epik_cmdline>
J2VwaWtfcHl0aG9uJywgJy1waCcsICc3LjAnLCAnLXRuJywgJzgnLCAnLW1hJywgJzIwMCcsICctbWV0YWxfYmluZGluZycsICctaW1hZScsICc8aW5maWxlLm1hZT4nLCAnLW9tYWUnLCAnPG91dGZpbGUubWFlPic=

> <r_lp_tautomer_probability>
1

> <r_epik_Ionization_Penalty>
0.656654

> <r_epik_Ionization_Penalty_Charging>
0.656653

> <r_epik_Ionization_Penalty_Neutral>
9.12373e-08

> <r_epik_State_Penalty>
0.675641

> <r_epik_Charging_Adjusted_Penalty>
1.33229

> <i_epik_Tot_Q>
1

> <i_epik_Tot_abs_Q>
3

> <r_epik_Metal_State_Penalty>
0.675694

> <b_epik_Metal_Only>
0

> <s_lp_Force_Field>
OPLS_2005

> <r_lp_Energy>
37.786

> <b_lp_Chiralities_Consistent>
1

> <s_lp_Variant>
AV-unprocessed.smi:399-2

> <Gold.Version>
5.8.1

> <Gold.Id.Protein>
6NUR|6NUR_protein|mol2

> <Gold.PLP.Fitness>
44.2333

> <Gold.PLP.PLP>
-33.8678

> <Gold.PLP.part.hbond>
-3.0000

> <Gold.PLP.part.metal>
0.0000

> <Gold.PLP.part.buried>
-4.7906

> <Gold.PLP.part.nonpolar>
-25.5315

> <Gold.PLP.part.repulsive>
0.1930

> <Gold.PLP.ligand.clash>
0.0000

> <Gold.PLP.ligand.torsion>
0.7059

> <Gold.PLP.Chemscore.Hbond>
3.7920

> <Gold.PLP.Chemscore.CHOScore>
0.0000

> <Gold.PLP.Chemscore.Metal>
0.0000

> <Gold.Chemscore.Hbonds>
donor molecule, donor type, donor heavy atom, donor atom, acceptor molecule, acceptor atom, score
      L1  H    19    47       P1  7948  2.00
      P1  H  6931  6943       L1    18  0.66
      P1  H  6934  6947       L1    18  0.65

> <Gold.PLP.Chemscore.Internal.Correction>
0.4013

> <Gold.Rescore>
     Score         DG    S(hbond)    S(metal)    S(lipo)     H(rot)  DE(clash)    DE(int)     intcor
     15.83     -16.56       2.79        0.00      62.75       2.18       0.00       0.73       ----

> <Gold.Chemscore.Fitness>
15.8293

> <Gold.Chemscore.DG>
-16.5552

> <Gold.Chemscore.ZeroCoef>
-5.4800

> <Gold.Chemscore.Hbond>
2.7893

> <Gold.Chemscore.Metal>
0.0000

> <Gold.Chemscore.Lipo>
62.7473

> <Gold.Chemscore.Internal_Hbond>
0.0000

> <Gold.Chemscore.DEClash>
0.0009

> <Gold.Chemscore.DEInternal>
0.7250

> <Gold.Chemscore.Rot>
2.1806

> <Gold.Chemscore.Internal.Correction>
   9.000000E+99

> <Gold.Chemscore.Hbonds>
donor molecule, donor type, donor heavy atom, donor atom, acceptor molecule, acceptor atom, score
      L1  H    19    47       P1  7948  0.94
      P1  H  6931  6943       L1    18  0.60
      P1  H  6934  6947       L1    18  0.64

> <Gold.Chemscore.Hbond.Weighted>
-9.3162

> <Gold.Chemscore.Metal.Weighted>
-0.0000

> <Gold.Chemscore.Lipo.Weighted>
-7.3414

> <Gold.Chemscore.Internal_Hbond.Weighted>
0.0000

> <Gold.Chemscore.DEClash.Weighted>
0.0009

> <Gold.Chemscore.DEInternal.Weighted>
0.7250

> <Gold.Chemscore.Rot.Weighted>
5.5825

> <Gold.Chemscore.Internal.Correction.Weighted>
   9.000000E+99

> <Gold.Protein.RotatedTorsions>
[ 6907 6896 6895 6894 ] final  156.46 input  -60.11 | X-H torsion
[ 7974 7965 7964 7962 ] final  101.90 input  175.53 | X-H torsion
[ 8008 7997 7996 7995 ] final  -64.25 input   59.86 | X-H torsion
[ 10167 10162 10161 10158 ] final -175.94 input  -65.29 | X-H torsion
[ 10718 10713 10712 10709 ] final -136.25 input   66.30 | X-H torsion
[ 10763 10752 10751 10750 ] final   16.32 input  -60.55 | X-H torsion
[ 11005 11000 10999 10996 ] final  176.03 input  -57.11 | X-H torsion

> <Gold.Protein.ActiveResidues>
 VAL166  LYS551  ARG553  GLY616  TRP617  ASP618  TYR619  PRO620  LYS621  CYS622 
 ASP623  PHE694  ASN695  SER759  ASP760  ASP761  ALA762  ILE779  LEU786  VAL792 
 PHE793  MET794  SER795  GLU796  ALA797  LYS798  CYS799  TRP800  GLU811  SER814 

> <Gold.Protein.RotatedAtoms>
  152.0293  133.3931  159.4290 H   0  0  0  0  0  0  0  0  0  0  0  0  # atno 6907 bound_to 6896
  150.6883  134.3538  159.4930 H   0  0  0  0  0  0  0  0  0  0  0  0  # atno 6908 bound_to 6896
  152.1322  134.9125  160.0609 H   0  0  0  0  0  0  0  0  0  0  0  0  # atno 6909 bound_to 6896
  145.3662  139.2407  143.3480 H   0  0  0  0  0  0  0  0  0  0  0  0  # atno 7974 bound_to 7965
  154.4601  140.0958  156.6868 H   0  0  0  0  0  0  0  0  0  0  0  0  # atno 8008 bound_to 7997
  155.5021  140.3474  155.4354 H   0  0  0  0  0  0  0  0  0  0  0  0  # atno 8009 bound_to 7997
  156.0853  140.1383  156.9650 H   0  0  0  0  0  0  0  0  0  0  0  0  # atno 8010 bound_to 7997
  139.5555  144.2001  152.1151 H   0  0  0  0  0  0  0  0  0  0  0  0  # atno 10167 bound_to 10162
  156.2750  130.7288  151.1267 H   0  0  0  0  0  0  0  0  0  0  0  0  # atno 10718 bound_to 10713
  153.1442  135.6766  153.8981 H   0  0  0  0  0  0  0  0  0  0  0  0  # atno 10763 bound_to 10752
  153.8428  135.3103  155.3428 H   0  0  0  0  0  0  0  0  0  0  0  0  # atno 10764 bound_to 10752
  154.7811  135.4887  153.9932 H   0  0  0  0  0  0  0  0  0  0  0  0  # atno 10765 bound_to 10752
  140.3686  134.7050  157.4378 H   0  0  0  0  0  0  0  0  0  0  0  0  # atno 11005 bound_to 11000
  146.2906  140.4304  142.8741 LP  0  0  0  0  0  0  0  0  0  0  0  0  # atno 17320 bound_to 7965
  144.8610  140.7139  143.6107 LP  0  0  0  0  0  0  0  0  0  0  0  0  # atno 17321 bound_to 7965
  140.1504  144.5120  150.6691 LP  0  0  0  0  0  0  0  0  0  0  0  0  # atno 17342 bound_to 10162
  140.6826  143.2334  151.5343 LP  0  0  0  0  0  0  0  0  0  0  0  0  # atno 17343 bound_to 10162
  157.7296  131.0623  150.5765 LP  0  0  0  0  0  0  0  0  0  0  0  0  # atno 17370 bound_to 10713
  156.5865  130.4318  149.5955 LP  0  0  0  0  0  0  0  0  0  0  0  0  # atno 17371 bound_to 10713
  140.0569  134.6050  155.8794 LP  0  0  0  0  0  0  0  0  0  0  0  0  # atno 17394 bound_to 11000
  141.1961  133.6590  156.5678 LP  0  0  0  0  0  0  0  0  0  0  0  0  # atno 17395 bound_to 11000

$$$$
