AV-unprocessed.smi:196|AV-procd|sdf|1532|dock7
  -GOLD-   2262019383D 1   1.00000     0.00000
 Structure written by MMmdl.
 47 50  0  0  0  0  0  0  0  0  1 V2000
  150.6412  137.4849  154.6542 C   0  0  0  0  0  0  0  0  0  0  0  0
  150.9260  138.9902  154.5361 C   0  0  2  0  0  0  0  0  0  0  0  0
  151.8015  139.3597  155.5971 O   0  0  0  0  0  0  0  0  0  0  0  0
  151.5924  140.7280  155.8949 C   0  0  0  0  0  0  0  0  0  0  0  0
  150.0772  140.8437  155.8297 C   0  0  0  0  0  0  0  0  0  0  0  0
  149.7070  139.9505  154.6461 C   0  0  1  0  0  0  0  0  0  0  0  0
  149.6895  140.7584  153.4815 O   0  0  0  0  0  0  0  0  0  0  0  0
  148.3144  139.2815  154.7915 C   0  0  0  0  0  0  0  0  0  0  0  0
  147.3133  140.1512  155.3908 N   0  0  0  0  0  0  0  0  0  0  0  0
  146.7298  140.0071  156.6302 C   0  0  0  0  0  0  0  0  0  0  0  0
  145.8550  140.9232  156.9449 N   0  0  0  0  0  0  0  0  0  0  0  0
  145.8279  141.7569  155.8346 C   0  0  0  0  0  0  0  0  0  0  0  0
  145.1105  142.9356  155.5027 C   0  0  0  0  0  0  0  0  0  0  0  0
  144.2262  143.5029  156.3559 N   0  0  0  0  0  0  0  0  0  0  0  0
  142.9691  143.9333  155.7475 C   0  0  0  0  0  0  0  0  0  0  0  0
  142.9155  145.4457  155.9338 C   0  0  1  0  0  0  0  0  0  0  0  0
  141.6696  145.9179  155.9598 F   0  0  0  0  0  0  0  0  0  0  0  0
  143.6422  145.6343  157.2569 C   0  0  0  0  0  0  0  0  0  0  0  0
  144.7706  144.5915  157.1841 C   0  0  1  0  0  0  0  0  0  0  0  0
  145.2302  144.1515  158.5858 C   0  0  0  0  0  0  0  0  0  0  0  0
  146.5019  144.3561  158.9432 N   0  0  0  0  0  0  0  0  0  0  0  0
  144.4244  143.6293  159.3528 O   0  0  0  0  0  0  0  0  0  0  0  0
  145.3350  143.4959  154.2845 N   0  0  0  0  0  0  0  0  0  0  0  0
  146.2139  142.9386  153.4459 C   0  0  0  0  0  0  0  0  0  0  0  0
  146.9599  141.8457  153.6233 N   0  0  0  0  0  0  0  0  0  0  0  0
  146.7318  141.2819  154.8442 C   0  0  0  0  0  0  0  0  0  0  0  0
  143.4504  145.9516  155.1288 H   0  0  0  0  0  0  0  0  0  0  0  0
  145.6284  145.0500  156.6877 H   0  0  0  0  0  0  0  0  0  0  0  0
  149.9826  137.1409  153.8565 H   0  0  0  0  0  0  0  0  0  0  0  0
  150.1808  137.2358  155.6104 H   0  0  0  0  0  0  0  0  0  0  0  0
  151.5666  136.9134  154.5809 H   0  0  0  0  0  0  0  0  0  0  0  0
  151.4614  139.1650  153.6007 H   0  0  0  0  0  0  0  0  0  0  0  0
  151.9952  140.9940  156.8723 H   0  0  0  0  0  0  0  0  0  0  0  0
  152.0703  141.3517  155.1379 H   0  0  0  0  0  0  0  0  0  0  0  0
  149.6606  140.4365  156.7517 H   0  0  0  0  0  0  0  0  0  0  0  0
  149.7289  141.8731  155.7354 H   0  0  0  0  0  0  0  0  0  0  0  0
  149.3879  140.2336  152.7556 H   0  0  0  0  0  0  0  0  0  0  0  0
  147.9438  138.9546  153.8190 H   0  0  0  0  0  0  0  0  0  0  0  0
  148.3844  138.3877  155.4119 H   0  0  0  0  0  0  0  0  0  0  0  0
  146.9780  139.1972  157.3009 H   0  0  0  0  0  0  0  0  0  0  0  0
  142.8615  143.6518  154.6984 H   0  0  0  0  0  0  0  0  0  0  0  0
  142.1559  143.4541  156.2941 H   0  0  0  0  0  0  0  0  0  0  0  0
  144.0150  146.6509  157.3869 H   0  0  0  0  0  0  0  0  0  0  0  0
  142.9625  145.4176  158.0834 H   0  0  0  0  0  0  0  0  0  0  0  0
  146.8193  144.0708  159.8588 H   0  0  0  0  0  0  0  0  0  0  0  0
  147.1413  144.7931  158.2957 H   0  0  0  0  0  0  0  0  0  0  0  0
  146.3382  143.4407  152.4978 H   0  0  0  0  0  0  0  0  0  0  0  0
  1  2  1  0  0  0  0
  1 29  1  0  0  0  0
  1 30  1  0  0  0  0
  1 31  1  0  0  0  0
  2  6  1  0  0  0  0
  2  3  1  0  0  0  0
  2 32  1  0  0  0  0
  3  4  1  0  0  0  0
  4  5  1  0  0  0  0
  4 33  1  0  0  0  0
  4 34  1  0  0  0  0
  5  6  1  0  0  0  0
  5 35  1  0  0  0  0
  5 36  1  0  0  0  0
  6  7  1  0  0  0  0
  6  8  1  0  0  0  0
  7 37  1  0  0  0  0
  8  9  1  0  0  0  0
  8 38  1  0  0  0  0
  8 39  1  0  0  0  0
  9 26  1  0  0  0  0
  9 10  1  0  0  0  0
 10 11  2  0  0  0  0
 10 40  1  0  0  0  0
 11 12  1  0  0  0  0
 12 26  2  0  0  0  0
 12 13  1  0  0  0  0
 13 14  1  0  0  0  0
 13 23  2  0  0  0  0
 14 19  1  0  0  0  0
 14 15  1  0  0  0  0
 15 16  1  0  0  0  0
 15 41  1  0  0  0  0
 15 42  1  0  0  0  0
 16 27  1  0  0  0  0
 16 17  1  0  0  0  0
 16 18  1  0  0  0  0
 18 19  1  0  0  0  0
 18 43  1  0  0  0  0
 18 44  1  0  0  0  0
 19 28  1  0  0  0  0
 19 20  1  0  0  0  0
 20 21  1  0  0  0  0
 20 22  2  0  0  0  0
 21 45  1  0  0  0  0
 21 46  1  0  0  0  0
 23 24  1  0  0  0  0
 24 25  2  0  0  0  0
 24 47  1  0  0  0  0
 25 26  1  0  0  0  0
M  END
> <s_m_source_file>
AV-unprocessed.smi

> <i_m_source_file_index>
196

> <i_lp_mmshare_version>
43012

> <i_f3d_flags>
0

> <s_epik_input>
W0NIMl0xW0NIMl1PW0NAQEhdKFtDSDNdKVtDQEBdMShbT0hdKVtDSDJdbihbY0hdbjIpYyhjMjMpbltjSF1uYzNONFtDSDJdW0NASF0oRilbQ0gyXVtDQEhdNEMoPU8pW05IMl0=

> <s_epik_cmdline>
J2VwaWtfcHl0aG9uJywgJy1waCcsICc3LjAnLCAnLXRuJywgJzgnLCAnLW1hJywgJzIwMCcsICctbWV0YWxfYmluZGluZycsICctaW1hZScsICc8aW5maWxlLm1hZT4nLCAnLW9tYWUnLCAnPG91dGZpbGUubWFlPic=

> <r_lp_tautomer_probability>
1

> <r_epik_Ionization_Penalty>
0.000857933

> <r_epik_Ionization_Penalty_Charging>
0

> <r_epik_Ionization_Penalty_Neutral>
0.000857933

> <r_epik_State_Penalty>
0.000462053

> <r_epik_Charging_Adjusted_Penalty>
0.000462053

> <i_epik_Tot_Q>
0

> <i_epik_Tot_abs_Q>
0

> <r_epik_Metal_State_Penalty>
-0

> <b_epik_Metal_Only>
0

> <s_lp_Force_Field>
OPLS_2005

> <r_lp_Energy>
45.3025

> <b_lp_Chiralities_Consistent>
1

> <s_lp_Variant>
AV-unprocessed.smi:196-5

> <Gold.Version>
5.8.1

> <Gold.Id.Protein>
6NUR|6NUR_protein|mol2

> <Gold.PLP.Fitness>
38.4908

> <Gold.PLP.PLP>
-32.2961

> <Gold.PLP.part.hbond>
-3.6979

> <Gold.PLP.part.metal>
0.0000

> <Gold.PLP.part.buried>
-5.7261

> <Gold.PLP.part.nonpolar>
-22.3050

> <Gold.PLP.part.repulsive>
0.4947

> <Gold.PLP.ligand.clash>
0.0000

> <Gold.PLP.ligand.torsion>
0.9528

> <Gold.PLP.Chemscore.Hbond>
2.6732

> <Gold.PLP.Chemscore.CHOScore>
0.0000

> <Gold.PLP.Chemscore.Metal>
0.0000

> <Gold.Chemscore.Hbonds>
donor molecule, donor type, donor heavy atom, donor atom, acceptor molecule, acceptor atom, score
      L1  H     7    37       P1  7957  0.82
      L1  H    21    46       P1  8029  1.00
      P1  H  7989  7998       L1     7  0.23
      P1  H  8011  8017       L1     7  0.60

> <Gold.PLP.Chemscore.Internal.Correction>
0.0806

> <Gold.Rescore>
     Score         DG    S(hbond)    S(metal)    S(lipo)     H(rot)  DE(clash)    DE(int)     intcor
      9.35     -10.73       2.13        0.00      50.58       3.04       0.12       1.26       ----

> <Gold.Chemscore.Fitness>
9.3541

> <Gold.Chemscore.DG>
-10.7346

> <Gold.Chemscore.ZeroCoef>
-5.4800

> <Gold.Chemscore.Hbond>
2.1326

> <Gold.Chemscore.Metal>
0.0000

> <Gold.Chemscore.Lipo>
50.5759

> <Gold.Chemscore.Internal_Hbond>
0.0000

> <Gold.Chemscore.DEClash>
0.1214

> <Gold.Chemscore.DEInternal>
1.2591

> <Gold.Chemscore.Rot>
3.0413

> <Gold.Chemscore.Internal.Correction>
   9.000000E+99

> <Gold.Chemscore.Hbonds>
donor molecule, donor type, donor heavy atom, donor atom, acceptor molecule, acceptor atom, score
      L1  H     7    37       P1  7957  0.81
      L1  H    21    46       P1  8029  0.95
      P1  H  7989  7998       L1     7  0.02
      P1  H  8011  8017       L1     7  0.04

> <Gold.Chemscore.Hbond.Weighted>
-7.1229

> <Gold.Chemscore.Metal.Weighted>
-0.0000

> <Gold.Chemscore.Lipo.Weighted>
-5.9174

> <Gold.Chemscore.Internal_Hbond.Weighted>
0.0000

> <Gold.Chemscore.DEClash.Weighted>
0.1214

> <Gold.Chemscore.DEInternal.Weighted>
1.2591

> <Gold.Chemscore.Rot.Weighted>
7.7856

> <Gold.Chemscore.Internal.Correction.Weighted>
   9.000000E+99

> <Gold.Protein.RotatedTorsions>
[ 6907 6896 6895 6894 ] final  -51.53 input  -60.11 | X-H torsion
[ 7974 7965 7964 7962 ] final  -90.36 input  175.53 | X-H torsion
[ 8008 7997 7996 7995 ] final  -60.83 input   59.86 | X-H torsion
[ 10167 10162 10161 10158 ] final  118.69 input  -65.29 | X-H torsion
[ 10718 10713 10712 10709 ] final  -16.54 input   66.30 | X-H torsion
[ 10763 10752 10751 10750 ] final  -91.24 input  -60.55 | X-H torsion
[ 11005 11000 10999 10996 ] final   95.35 input  -57.11 | X-H torsion

> <Gold.Protein.ActiveResidues>
 VAL166  LYS551  ARG553  GLY616  TRP617  ASP618  TYR619  PRO620  LYS621  CYS622 
 ASP623  PHE694  ASN695  SER759  ASP760  ASP761  ALA762  ILE779  LEU786  VAL792 
 PHE793  MET794  SER795  GLU796  ALA797  LYS798  CYS799  TRP800  GLU811  SER814 

> <Gold.Protein.RotatedAtoms>
  150.8602  134.7952  159.7076 H   0  0  0  0  0  0  0  0  0  0  0  0  # atno 6907 bound_to 6896
  152.4642  134.5112  159.9764 H   0  0  0  0  0  0  0  0  0  0  0  0  # atno 6908 bound_to 6896
  151.5217  133.3427  159.2938 H   0  0  0  0  0  0  0  0  0  0  0  0  # atno 6909 bound_to 6896
  145.4275  140.9554  143.2146 H   0  0  0  0  0  0  0  0  0  0  0  0  # atno 7974 bound_to 7965
  154.4418  140.1031  156.6336 H   0  0  0  0  0  0  0  0  0  0  0  0  # atno 8008 bound_to 7997
  155.5578  140.3487  155.4465 H   0  0  0  0  0  0  0  0  0  0  0  0  # atno 8009 bound_to 7997
  156.0482  140.1297  157.0069 H   0  0  0  0  0  0  0  0  0  0  0  0  # atno 8010 bound_to 7997
  139.6095  144.7078  151.2877 H   0  0  0  0  0  0  0  0  0  0  0  0  # atno 10167 bound_to 10162
  156.5861  130.4787  149.6299 H   0  0  0  0  0  0  0  0  0  0  0  0  # atno 10718 bound_to 10713
  154.6740  135.5275  153.8176 H   0  0  0  0  0  0  0  0  0  0  0  0  # atno 10763 bound_to 10752
  153.0520  135.6536  154.0679 H   0  0  0  0  0  0  0  0  0  0  0  0  # atno 10764 bound_to 10752
  154.0575  135.2964  155.3310 H   0  0  0  0  0  0  0  0  0  0  0  0  # atno 10765 bound_to 10752
  139.8790  134.8894  156.3999 H   0  0  0  0  0  0  0  0  0  0  0  0  # atno 11005 bound_to 11000
  144.8204  139.5801  143.6989 LP  0  0  0  0  0  0  0  0  0  0  0  0  # atno 17320 bound_to 7965
  146.2624  139.6441  142.9352 LP  0  0  0  0  0  0  0  0  0  0  0  0  # atno 17321 bound_to 7965
  140.7309  143.6867  150.7956 LP  0  0  0  0  0  0  0  0  0  0  0  0  # atno 17342 bound_to 10162
  140.0459  143.5299  152.2696 LP  0  0  0  0  0  0  0  0  0  0  0  0  # atno 17343 bound_to 10162
  156.2589  130.6951  151.1713 LP  0  0  0  0  0  0  0  0  0  0  0  0  # atno 17370 bound_to 10713
  157.7315  131.0608  150.5675 LP  0  0  0  0  0  0  0  0  0  0  0  0  # atno 17371 bound_to 10713
  140.9274  133.7603  155.9982 LP  0  0  0  0  0  0  0  0  0  0  0  0  # atno 17394 bound_to 11000
  140.8370  134.3112  157.5328 LP  0  0  0  0  0  0  0  0  0  0  0  0  # atno 17395 bound_to 11000

$$$$
