AV-unprocessed.smi:2137|AV-procd|sdf|8706|dock4
  -GOLD-   2272011463D 1   1.00000     0.00000
 Structure written by MMmdl.
 50 51  0  0  0  0  0  0  0  0  2 V2000
  144.9757  133.7595  150.5290 C   0  0  0  0  0  0  0  0  0  0  0  0
  145.6896  132.5888  151.2186 C   0  0  2  0  0  0  0  0  0  0  0  0
  144.7027  131.4692  151.5894 C   0  0  0  0  0  0  0  0  0  0  0  0
  145.4379  130.3265  152.3007 C   0  0  0  0  0  0  0  0  0  0  0  0
  146.2175  130.8470  153.5188 C   0  0  0  0  0  0  0  0  0  0  0  0
  147.1651  131.9230  153.1287 N   0  3  2  0  0  0  0  0  0  0  0  0
  148.0266  132.3490  154.2603 C   0  0  0  0  0  0  0  0  0  0  0  0
  148.8836  133.5823  153.9160 C   0  0  0  0  0  0  0  0  0  0  0  0
  148.9860  134.5953  155.0703 C   0  0  0  0  0  0  0  0  0  0  0  0
  149.7488  135.7824  154.7009 N   0  0  0  0  0  0  0  0  0  0  0  0
  150.9027  136.1690  155.2665 C   0  0  0  0  0  0  0  0  0  0  0  0
  151.4588  135.5416  156.1672 O   0  0  0  0  0  0  0  0  0  0  0  0
  151.5298  137.4608  154.7334 C   0  0  0  0  0  0  0  0  0  0  0  0
  151.6313  138.4880  155.7773 N   0  0  0  0  0  0  0  0  0  0  0  0
  151.8416  138.1038  157.0896 C   0  0  0  0  0  0  0  0  0  0  0  0
  151.9414  138.9769  158.1154 C   0  0  0  0  0  0  0  0  0  0  0  0
  151.8260  140.4119  157.8884 C   0  0  0  0  0  0  0  0  0  0  0  0
  151.9207  141.2500  158.7862 O   0  0  0  0  0  0  0  0  0  0  0  0
  151.6007  140.7788  156.5419 N   0  0  0  0  0  0  0  0  0  0  0  0
  151.4842  142.1962  156.2676 C   0  0  0  0  0  0  0  0  0  0  0  0
  151.5093  139.8612  155.4692 C   0  0  0  0  0  0  0  0  0  0  0  0
  151.3309  140.2241  154.3039 O   0  0  0  0  0  0  0  0  0  0  0  0
  146.4616  133.0562  152.4691 C   0  0  0  0  0  0  0  0  0  0  0  0
  144.2330  134.2138  151.1855 H   0  0  0  0  0  0  0  0  0  0  0  0
  144.4631  133.4289  149.6253 H   0  0  0  0  0  0  0  0  0  0  0  0
  145.6838  134.5367  150.2396 H   0  0  0  0  0  0  0  0  0  0  0  0
  146.4121  132.1815  150.5095 H   0  0  0  0  0  0  0  0  0  0  0  0
  143.9193  131.8622  152.2391 H   0  0  0  0  0  0  0  0  0  0  0  0
  144.2054  131.0905  150.6955 H   0  0  0  0  0  0  0  0  0  0  0  0
  144.7247  129.5628  152.6129 H   0  0  0  0  0  0  0  0  0  0  0  0
  146.1245  129.8425  151.6048 H   0  0  0  0  0  0  0  0  0  0  0  0
  145.5279  131.2237  154.2761 H   0  0  0  0  0  0  0  0  0  0  0  0
  146.7642  130.0184  153.9707 H   0  0  0  0  0  0  0  0  0  0  0  0
  147.4111  132.5288  155.1430 H   0  0  0  0  0  0  0  0  0  0  0  0
  148.7050  131.5348  154.5198 H   0  0  0  0  0  0  0  0  0  0  0  0
  149.8898  133.2551  153.6513 H   0  0  0  0  0  0  0  0  0  0  0  0
  148.4907  134.0893  153.0352 H   0  0  0  0  0  0  0  0  0  0  0  0
  147.9887  134.9139  155.3748 H   0  0  0  0  0  0  0  0  0  0  0  0
  149.4359  134.1232  155.9455 H   0  0  0  0  0  0  0  0  0  0  0  0
  149.3606  136.3692  153.9759 H   0  0  0  0  0  0  0  0  0  0  0  0
  152.5243  137.2364  154.3440 H   0  0  0  0  0  0  0  0  0  0  0  0
  150.9588  137.8191  153.8751 H   0  0  0  0  0  0  0  0  0  0  0  0
  151.9305  137.0495  157.3085 H   0  0  0  0  0  0  0  0  0  0  0  0
  152.1082  138.6087  159.1173 H   0  0  0  0  0  0  0  0  0  0  0  0
  151.1177  142.3728  155.2566 H   0  0  0  0  0  0  0  0  0  0  0  0
  152.4777  142.6279  156.3983 H   0  0  0  0  0  0  0  0  0  0  0  0
  150.7692  142.6167  156.9771 H   0  0  0  0  0  0  0  0  0  0  0  0
  147.1792  133.8213  152.1746 H   0  0  0  0  0  0  0  0  0  0  0  0
  145.7794  133.5241  153.1812 H   0  0  0  0  0  0  0  0  0  0  0  0
  147.7807  131.5167  152.4387 H   0  0  0  0  0  0  0  0  0  0  0  0
  1  2  1  0  0  0  0
  1 24  1  0  0  0  0
  1 25  1  0  0  0  0
  1 26  1  0  0  0  0
  2 23  1  0  0  0  0
  2  3  1  0  0  0  0
  2 27  1  0  0  0  0
  3  4  1  0  0  0  0
  3 28  1  0  0  0  0
  3 29  1  0  0  0  0
  4  5  1  0  0  0  0
  4 30  1  0  0  0  0
  4 31  1  0  0  0  0
  5  6  1  0  0  0  0
  5 32  1  0  0  0  0
  5 33  1  0  0  0  0
  6  7  1  0  0  0  0
  6 23  1  0  0  0  0
  6 50  1  0  0  0  0
  7  8  1  0  0  0  0
  7 34  1  0  0  0  0
  7 35  1  0  0  0  0
  8  9  1  0  0  0  0
  8 36  1  0  0  0  0
  8 37  1  0  0  0  0
  9 10  1  0  0  0  0
  9 38  1  0  0  0  0
  9 39  1  0  0  0  0
 10 11  1  0  0  0  0
 10 40  1  0  0  0  0
 11 12  2  0  0  0  0
 11 13  1  0  0  0  0
 13 14  1  0  0  0  0
 13 41  1  0  0  0  0
 13 42  1  0  0  0  0
 14 21  1  0  0  0  0
 14 15  1  0  0  0  0
 15 16  2  0  0  0  0
 15 43  1  0  0  0  0
 16 17  1  0  0  0  0
 16 44  1  0  0  0  0
 17 18  2  0  0  0  0
 17 19  1  0  0  0  0
 19 20  1  0  0  0  0
 19 21  1  0  0  0  0
 20 45  1  0  0  0  0
 20 46  1  0  0  0  0
 20 47  1  0  0  0  0
 21 22  2  0  0  0  0
 23 48  1  0  0  0  0
 23 49  1  0  0  0  0
M  CHG  1   6   1
M  END
> <s_m_source_file>
AV-unprocessed.smi

> <i_m_source_file_index>
2137

> <i_lp_mmshare_version>
43012

> <i_f3d_flags>
0

> <s_epik_input>
W0NIM11bQ0BASF0xW0NIMl1bQ0gyXVtDSDJdTihbQ0gyXTEpW0NIMl1bQ0gyXVtDSDJdW05IXUMoPU8pW0NIMl1uMltjSF1bY0hdYyg9TyluKFtDSDNdKWMyPU8=

> <s_epik_cmdline>
J2VwaWtfcHl0aG9uJywgJy1waCcsICc3LjAnLCAnLXRuJywgJzgnLCAnLW1hJywgJzIwMCcsICctbWV0YWxfYmluZGluZycsICctaW1hZScsICc8aW5maWxlLm1hZT4nLCAnLW9tYWUnLCAnPG91dGZpbGUubWFlPic=

> <r_lp_tautomer_probability>
1

> <r_epik_Ionization_Penalty>
0.000384839

> <r_epik_Ionization_Penalty_Charging>
0.000384812

> <r_epik_Ionization_Penalty_Neutral>
2.6907e-08

> <r_epik_State_Penalty>
0.000235226

> <r_epik_Charging_Adjusted_Penalty>
0.000620038

> <i_epik_Tot_Q>
1

> <i_epik_Tot_abs_Q>
1

> <r_epik_Metal_State_Penalty>
-0

> <b_epik_Metal_Only>
0

> <s_lp_Force_Field>
OPLS_2005

> <r_lp_Energy>
29.3938

> <b_lp_Chiralities_Consistent>
1

> <s_lp_Variant>
AV-unprocessed.smi:2137-1

> <Gold.Version>
5.8.1

> <Gold.Id.Protein>
6NUR|6NUR_protein|mol2

> <Gold.PLP.Fitness>
52.7206

> <Gold.PLP.PLP>
-43.0540

> <Gold.PLP.part.hbond>
-4.0149

> <Gold.PLP.part.metal>
0.0000

> <Gold.PLP.part.buried>
-5.0476

> <Gold.PLP.part.nonpolar>
-35.2162

> <Gold.PLP.part.repulsive>
0.2042

> <Gold.PLP.ligand.clash>
0.0015

> <Gold.PLP.ligand.torsion>
0.7267

> <Gold.PLP.Chemscore.Hbond>
3.6880

> <Gold.PLP.Chemscore.CHOScore>
0.0000

> <Gold.PLP.Chemscore.Metal>
0.0000

> <Gold.Chemscore.Hbonds>
donor molecule, donor type, donor heavy atom, donor atom, acceptor molecule, acceptor atom, score
      L1  H    10    40       P1  7948  0.55
      P1  H 10752 10765       L1    12  0.50

> <Gold.PLP.Chemscore.Internal.Correction>
0.0574

> <Gold.Rescore>
     Score         DG    S(hbond)    S(metal)    S(lipo)     H(rot)  DE(clash)    DE(int)     intcor
     18.74     -21.14       3.30        0.00      89.49       2.27       0.07       2.32       ----

> <Gold.Chemscore.Fitness>
18.7432

> <Gold.Chemscore.DG>
-21.1382

> <Gold.Chemscore.ZeroCoef>
-5.4800

> <Gold.Chemscore.Hbond>
3.2967

> <Gold.Chemscore.Metal>
0.0000

> <Gold.Chemscore.Lipo>
89.4932

> <Gold.Chemscore.Internal_Hbond>
0.0000

> <Gold.Chemscore.DEClash>
0.0704

> <Gold.Chemscore.DEInternal>
2.3246

> <Gold.Chemscore.Rot>
2.2748

> <Gold.Chemscore.Internal.Correction>
   9.000000E+99

> <Gold.Chemscore.Hbonds>
donor molecule, donor type, donor heavy atom, donor atom, acceptor molecule, acceptor atom, score
      L1  H    10    40       P1  7948  0.49
      P1  H  7989  7998       L1    22  0.02
      P1  H 10752 10765       L1    12  0.02

> <Gold.Chemscore.Hbond.Weighted>
-11.0108

> <Gold.Chemscore.Metal.Weighted>
-0.0000

> <Gold.Chemscore.Lipo.Weighted>
-10.4707

> <Gold.Chemscore.Internal_Hbond.Weighted>
0.0000

> <Gold.Chemscore.DEClash.Weighted>
0.0704

> <Gold.Chemscore.DEInternal.Weighted>
2.3246

> <Gold.Chemscore.Rot.Weighted>
5.8234

> <Gold.Chemscore.Internal.Correction.Weighted>
   9.000000E+99

> <Gold.Protein.RotatedTorsions>
[ 6907 6896 6895 6894 ] final   42.70 input  -60.11 | X-H torsion
[ 7974 7965 7964 7962 ] final  163.64 input  175.53 | X-H torsion
[ 8008 7997 7996 7995 ] final  162.94 input   59.86 | X-H torsion
[ 10167 10162 10161 10158 ] final  104.90 input  -65.29 | X-H torsion
[ 10718 10713 10712 10709 ] final  -37.56 input   66.30 | X-H torsion
[ 10763 10752 10751 10750 ] final -149.67 input  -60.55 | X-H torsion
[ 11005 11000 10999 10996 ] final   85.56 input  -57.11 | X-H torsion

> <Gold.Protein.ActiveResidues>
 VAL166  LYS551  ARG553  GLY616  TRP617  ASP618  TYR619  PRO620  LYS621  CYS622 
 ASP623  PHE694  ASN695  SER759  ASP760  ASP761  ALA762  ILE779  LEU786  VAL792 
 PHE793  MET794  SER795  GLU796  ALA797  LYS798  CYS799  TRP800  GLU811  SER814 

> <Gold.Protein.RotatedAtoms>
  152.2111  134.8501  160.0497 H   0  0  0  0  0  0  0  0  0  0  0  0  # atno 6907 bound_to 6896
  151.9319  133.3608  159.3942 H   0  0  0  0  0  0  0  0  0  0  0  0  # atno 6908 bound_to 6896
  150.6976  134.4453  159.5355 H   0  0  0  0  0  0  0  0  0  0  0  0  # atno 6909 bound_to 6896
  144.7580  139.8211  143.6343 H   0  0  0  0  0  0  0  0  0  0  0  0  # atno 7974 bound_to 7965
  156.1994  140.1737  156.7930 H   0  0  0  0  0  0  0  0  0  0  0  0  # atno 8008 bound_to 7997
  154.5572  140.0706  156.8793 H   0  0  0  0  0  0  0  0  0  0  0  0  # atno 8009 bound_to 7997
  155.2916  140.3355  155.4254 H   0  0  0  0  0  0  0  0  0  0  0  0  # atno 8010 bound_to 7997
  139.7138  144.7072  151.0984 H   0  0  0  0  0  0  0  0  0  0  0  0  # atno 10167 bound_to 10162
  156.3138  130.4256  149.8025 H   0  0  0  0  0  0  0  0  0  0  0  0  # atno 10718 bound_to 10713
  154.8163  135.3303  154.7165 H   0  0  0  0  0  0  0  0  0  0  0  0  # atno 10763 bound_to 10752
  153.7805  135.6919  153.4894 H   0  0  0  0  0  0  0  0  0  0  0  0  # atno 10764 bound_to 10752
  153.1983  135.4525  155.0183 H   0  0  0  0  0  0  0  0  0  0  0  0  # atno 10765 bound_to 10752
  139.8968  134.8295  156.2600 H   0  0  0  0  0  0  0  0  0  0  0  0  # atno 11005 bound_to 11000
  146.1613  139.4729  142.9986 LP  0  0  0  0  0  0  0  0  0  0  0  0  # atno 17320 bound_to 7965
  145.6712  141.0216  143.1656 LP  0  0  0  0  0  0  0  0  0  0  0  0  # atno 17321 bound_to 7965
  140.7739  143.5257  150.9483 LP  0  0  0  0  0  0  0  0  0  0  0  0  # atno 17342 bound_to 10162
  139.8943  143.6915  152.3141 LP  0  0  0  0  0  0  0  0  0  0  0  0  # atno 17343 bound_to 10162
  156.5359  130.8278  151.3252 LP  0  0  0  0  0  0  0  0  0  0  0  0  # atno 17370 bound_to 10713
  157.7397  130.9836  150.2329 LP  0  0  0  0  0  0  0  0  0  0  0  0  # atno 17371 bound_to 10713
  141.0169  133.7063  156.1203 LP  0  0  0  0  0  0  0  0  0  0  0  0  # atno 17394 bound_to 11000
  140.7289  134.4276  157.5568 LP  0  0  0  0  0  0  0  0  0  0  0  0  # atno 17395 bound_to 11000

$$$$
