AV-unprocessed.smi:91|AV-procd|sdf|835|dock7
  -GOLD-   2262017263D 1   1.00000     0.00000
 Structure written by MMmdl.
 60 63  0  0  0  0  0  0  0  0  1 V2000
  145.5167  136.8296  161.9578 C   0  0  0  0  0  0  0  0  0  0  0  0
  146.8919  137.1559  161.8638 O   0  0  0  0  0  0  0  0  0  0  0  0
  147.7244  136.1879  162.4833 C   0  0  0  0  0  0  0  0  0  0  0  0
  147.8912  134.9698  161.5643 C   0  0  2  0  0  0  0  0  0  0  0  0
  147.9432  135.3470  160.0734 C   0  0  0  0  0  0  0  0  0  0  0  0
  147.9909  134.1420  159.2551 N   0  0  0  0  0  0  0  0  0  0  0  0
  148.3416  134.3475  157.9601 C   0  0  0  0  0  0  0  0  0  0  0  0
  149.5441  134.9092  157.6609 N   0  0  0  0  0  0  0  0  0  0  0  0
  149.9030  135.1024  156.3883 C   0  0  0  0  0  0  0  0  0  0  0  0
  149.2233  134.8147  155.2770 N   0  0  0  0  0  0  0  0  0  0  0  0
  148.0123  134.2610  155.5698 C   0  0  0  0  0  0  0  0  0  0  0  0
  147.4960  133.9963  156.8697 C   0  0  0  0  0  0  0  0  0  0  0  0
  146.2250  133.4412  156.7681 N   0  0  0  0  0  0  0  0  0  0  0  0
  146.0073  133.3731  155.4829 C   0  0  0  0  0  0  0  0  0  0  0  0
  147.0324  133.8373  154.6908 N   0  0  0  0  0  0  0  0  0  0  0  0
  147.0658  133.8763  153.2398 C   0  0  0  0  0  0  0  0  0  0  0  0
  145.6882  134.1973  152.6089 C   0  0  1  0  0  0  0  0  0  0  0  0
  145.3495  135.7073  152.6528 C   0  0  0  0  0  0  0  0  0  0  0  0
  146.1366  136.4408  151.7367 O   0  0  0  0  0  0  0  0  0  0  0  0
  145.5659  133.6035  151.1830 C   0  0  2  0  0  0  0  0  0  0  0  0
  144.2196  133.8137  150.5127 C   0  0  0  0  0  0  0  0  0  0  0  0
  144.2406  132.7630  149.4081 C   0  0  0  0  0  0  0  0  0  0  0  0
  145.0077  131.6799  149.9215 O   0  0  0  0  0  0  0  0  0  0  0  0
  145.6684  132.0758  151.1192 C   0  0  0  0  0  0  0  0  0  0  0  0
  146.8842  133.2291  159.5303 C   0  0  0  0  0  0  0  0  0  0  0  0
  146.8199  132.8642  161.0307 C   0  0  0  0  0  0  0  0  0  0  0  0
  145.4825  132.1723  161.3367 C   0  0  0  0  0  0  0  0  0  0  0  0
  147.9786  131.9336  161.4484 C   0  0  0  0  0  0  0  0  0  0  0  0
  146.8160  134.0635  161.8131 O   0  0  0  0  0  0  0  0  0  0  0  0
  144.9228  137.6005  161.4671 H   0  0  0  0  0  0  0  0  0  0  0  0
  145.1958  136.7694  162.9986 H   0  0  0  0  0  0  0  0  0  0  0  0
  145.3026  135.8779  161.4695 H   0  0  0  0  0  0  0  0  0  0  0  0
  148.7021  136.6265  162.6903 H   0  0  0  0  0  0  0  0  0  0  0  0
  147.2988  135.8778  163.4390 H   0  0  0  0  0  0  0  0  0  0  0  0
  148.8288  134.4874  161.8400 H   0  0  0  0  0  0  0  0  0  0  0  0
  147.0569  135.9184  159.7944 H   0  0  0  0  0  0  0  0  0  0  0  0
  148.8032  135.9908  159.8922 H   0  0  0  0  0  0  0  0  0  0  0  0
  150.8745  135.5506  156.2395 H   0  0  0  0  0  0  0  0  0  0  0  0
  145.0906  132.9729  155.0741 H   0  0  0  0  0  0  0  0  0  0  0  0
  147.8062  134.6149  152.9304 H   0  0  0  0  0  0  0  0  0  0  0  0
  147.4328  132.9102  152.8930 H   0  0  0  0  0  0  0  0  0  0  0  0
  144.9366  133.7014  153.2253 H   0  0  0  0  0  0  0  0  0  0  0  0
  144.2976  135.8773  152.4247 H   0  0  0  0  0  0  0  0  0  0  0  0
  145.5050  136.1136  153.6521 H   0  0  0  0  0  0  0  0  0  0  0  0
  147.0440  136.2142  151.8720 H   0  0  0  0  0  0  0  0  0  0  0  0
  146.3404  134.0281  150.5420 H   0  0  0  0  0  0  0  0  0  0  0  0
  143.4082  133.6053  151.2116 H   0  0  0  0  0  0  0  0  0  0  0  0
  144.0840  134.8224  150.1216 H   0  0  0  0  0  0  0  0  0  0  0  0
  143.2396  132.4431  149.1183 H   0  0  0  0  0  0  0  0  0  0  0  0
  144.7417  133.1535  148.5216 H   0  0  0  0  0  0  0  0  0  0  0  0
  146.7008  131.7253  151.1297 H   0  0  0  0  0  0  0  0  0  0  0  0
  145.1489  131.6170  151.9621 H   0  0  0  0  0  0  0  0  0  0  0  0
  145.9538  133.7114  159.2263 H   0  0  0  0  0  0  0  0  0  0  0  0
  146.9845  132.3212  158.9335 H   0  0  0  0  0  0  0  0  0  0  0  0
  145.3734  131.2490  160.7667 H   0  0  0  0  0  0  0  0  0  0  0  0
  144.6388  132.8164  161.0866 H   0  0  0  0  0  0  0  0  0  0  0  0
  145.4002  131.9213  162.3946 H   0  0  0  0  0  0  0  0  0  0  0  0
  147.9084  130.9719  160.9398 H   0  0  0  0  0  0  0  0  0  0  0  0
  147.9592  131.7401  162.5214 H   0  0  0  0  0  0  0  0  0  0  0  0
  148.9561  132.3482  161.2045 H   0  0  0  0  0  0  0  0  0  0  0  0
  1  2  1  0  0  0  0
  1 30  1  0  0  0  0
  1 31  1  0  0  0  0
  1 32  1  0  0  0  0
  2  3  1  0  0  0  0
  3  4  1  0  0  0  0
  3 33  1  0  0  0  0
  3 34  1  0  0  0  0
  4 29  1  0  0  0  0
  4  5  1  0  0  0  0
  4 35  1  0  0  0  0
  5  6  1  0  0  0  0
  5 36  1  0  0  0  0
  5 37  1  0  0  0  0
  6  7  1  0  0  0  0
  6 25  1  0  0  0  0
  7 12  1  0  0  0  0
  7  8  2  0  0  0  0
  8  9  1  0  0  0  0
  9 10  2  0  0  0  0
  9 38  1  0  0  0  0
 10 11  1  0  0  0  0
 11 15  1  0  0  0  0
 11 12  2  0  0  0  0
 12 13  1  0  0  0  0
 13 14  2  0  0  0  0
 14 15  1  0  0  0  0
 14 39  1  0  0  0  0
 15 16  1  0  0  0  0
 16 17  1  0  0  0  0
 16 40  1  0  0  0  0
 16 41  1  0  0  0  0
 17 18  1  0  0  0  0
 17 20  1  0  0  0  0
 17 42  1  0  0  0  0
 18 19  1  0  0  0  0
 18 43  1  0  0  0  0
 18 44  1  0  0  0  0
 19 45  1  0  0  0  0
 20 24  1  0  0  0  0
 20 21  1  0  0  0  0
 20 46  1  0  0  0  0
 21 22  1  0  0  0  0
 21 47  1  0  0  0  0
 21 48  1  0  0  0  0
 22 23  1  0  0  0  0
 22 49  1  0  0  0  0
 22 50  1  0  0  0  0
 23 24  1  0  0  0  0
 24 51  1  0  0  0  0
 24 52  1  0  0  0  0
 25 26  1  0  0  0  0
 25 53  1  0  0  0  0
 25 54  1  0  0  0  0
 26 27  1  0  0  0  0
 26 28  1  0  0  0  0
 26 29  1  0  0  0  0
 27 55  1  0  0  0  0
 27 56  1  0  0  0  0
 27 57  1  0  0  0  0
 28 58  1  0  0  0  0
 28 59  1  0  0  0  0
 28 60  1  0  0  0  0
M  END
> <s_m_source_file>
AV-unprocessed.smi

> <i_m_source_file_index>
91

> <i_lp_mmshare_version>
43012

> <i_f3d_flags>
0

> <s_epik_input>
W0NIM11PW0NIMl1bQ0BASF0oTzEpW0NIMl1OKFtDSDJdQzEoW0NIM10pW0NIM10pYyhuW2NIXW4yKWMoYzIzKW5bY0hdbjNbQ0gyXVtDQEhdKFtDSDJdW09IXSlbQ0BASF00W0NIMl1bQ0gyXU9bQ0gyXTQ=

> <s_epik_cmdline>
J2VwaWtfcHl0aG9uJywgJy1waCcsICc3LjAnLCAnLXRuJywgJzgnLCAnLW1hJywgJzIwMCcsICctbWV0YWxfYmluZGluZycsICctaW1hZScsICc8aW5maWxlLm1hZT4nLCAnLW9tYWUnLCAnPG91dGZpbGUubWFlPic=

> <r_lp_tautomer_probability>
1

> <r_epik_Ionization_Penalty>
8.63591e-05

> <r_epik_Ionization_Penalty_Charging>
0

> <r_epik_Ionization_Penalty_Neutral>
8.63591e-05

> <r_epik_State_Penalty>
-0

> <r_epik_Charging_Adjusted_Penalty>
0

> <i_epik_Tot_Q>
0

> <i_epik_Tot_abs_Q>
0

> <r_epik_Metal_State_Penalty>
-0

> <b_epik_Metal_Only>
0

> <s_lp_Force_Field>
OPLS_2005

> <r_lp_Energy>
46.4326

> <b_lp_Chiralities_Consistent>
1

> <s_lp_Variant>
AV-unprocessed.smi:91-3

> <Gold.Version>
5.8.1

> <Gold.Id.Protein>
6NUR|6NUR_protein|mol2

> <Gold.PLP.Fitness>
47.2900

> <Gold.PLP.PLP>
-37.9341

> <Gold.PLP.part.hbond>
-4.1080

> <Gold.PLP.part.metal>
0.0000

> <Gold.PLP.part.buried>
-8.6903

> <Gold.PLP.part.nonpolar>
-26.5030

> <Gold.PLP.part.repulsive>
0.2527

> <Gold.PLP.ligand.clash>
0.0000

> <Gold.PLP.ligand.torsion>
1.2423

> <Gold.PLP.Chemscore.Hbond>
2.9579

> <Gold.PLP.Chemscore.CHOScore>
0.8064

> <Gold.PLP.Chemscore.Metal>
0.0000

> <Gold.Chemscore.Hbonds>
donor molecule, donor type, donor heavy atom, donor atom, acceptor molecule, acceptor atom, score
      L1  H    19    45       P1  7948  1.00
      P1  H  6896  6908       L1     8  0.57
      P1  H  6934  6947       L1     2  0.76
      L1  C    14    39       P1 10957  0.56

> <Gold.PLP.Chemscore.Internal.Correction>
0.5474

> <Gold.Rescore>
     Score         DG    S(hbond)    S(metal)    S(lipo)     H(rot)  DE(clash)    DE(int)     intcor
     14.70     -17.51       2.75        0.00      90.70       3.03       0.00       2.81       ----

> <Gold.Chemscore.Fitness>
14.6993

> <Gold.Chemscore.DG>
-17.5105

> <Gold.Chemscore.ZeroCoef>
-5.4800

> <Gold.Chemscore.Hbond>
2.7460

> <Gold.Chemscore.Metal>
0.0000

> <Gold.Chemscore.Lipo>
90.6991

> <Gold.Chemscore.Internal_Hbond>
0.0000

> <Gold.Chemscore.DEClash>
0.0038

> <Gold.Chemscore.DEInternal>
2.8074

> <Gold.Chemscore.Rot>
3.0284

> <Gold.Chemscore.Internal.Correction>
   9.000000E+99

> <Gold.Chemscore.Hbonds>
donor molecule, donor type, donor heavy atom, donor atom, acceptor molecule, acceptor atom, score
      L1  H    19    45       P1  7948  1.00
      P1  H  6896  6908       L1     8  0.11
      P1  H  6934  6947       L1     2  0.57

> <Gold.Chemscore.Hbond.Weighted>
-9.1715

> <Gold.Chemscore.Metal.Weighted>
-0.0000

> <Gold.Chemscore.Lipo.Weighted>
-10.6118

> <Gold.Chemscore.Internal_Hbond.Weighted>
0.0000

> <Gold.Chemscore.DEClash.Weighted>
0.0038

> <Gold.Chemscore.DEInternal.Weighted>
2.8074

> <Gold.Chemscore.Rot.Weighted>
7.7528

> <Gold.Chemscore.Internal.Correction.Weighted>
   9.000000E+99

> <Gold.Protein.RotatedTorsions>
[ 6907 6896 6895 6894 ] final  139.49 input  -60.11 | X-H torsion
[ 7974 7965 7964 7962 ] final  144.02 input  175.53 | X-H torsion
[ 8008 7997 7996 7995 ] final -169.61 input   59.86 | X-H torsion
[ 10167 10162 10161 10158 ] final   72.82 input  -65.29 | X-H torsion
[ 10718 10713 10712 10709 ] final -157.20 input   66.30 | X-H torsion
[ 10763 10752 10751 10750 ] final -163.94 input  -60.55 | X-H torsion
[ 11005 11000 10999 10996 ] final   48.00 input  -57.11 | X-H torsion

> <Gold.Protein.ActiveResidues>
 VAL166  LYS551  ARG553  GLY616  TRP617  ASP618  TYR619  PRO620  LYS621  CYS622 
 ASP623  PHE694  ASN695  SER759  ASP760  ASP761  ALA762  ILE779  LEU786  VAL792 
 PHE793  MET794  SER795  GLU796  ALA797  LYS798  CYS799  TRP800  GLU811  SER814 

> <Gold.Protein.RotatedAtoms>
  152.2543  133.5242  159.5343 H   0  0  0  0  0  0  0  0  0  0  0  0  # atno 6907 bound_to 6896
  150.7104  134.0917  159.3943 H   0  0  0  0  0  0  0  0  0  0  0  0  # atno 6908 bound_to 6896
  151.8836  135.0444  160.0542 H   0  0  0  0  0  0  0  0  0  0  0  0  # atno 6909 bound_to 6896
  144.8871  139.5612  143.5816 H   0  0  0  0  0  0  0  0  0  0  0  0  # atno 7974 bound_to 7965
  155.9072  140.1051  157.1306 H   0  0  0  0  0  0  0  0  0  0  0  0  # atno 8008 bound_to 7997
  154.4034  140.1281  156.4576 H   0  0  0  0  0  0  0  0  0  0  0  0  # atno 8009 bound_to 7997
  155.7352  140.3468  155.5080 H   0  0  0  0  0  0  0  0  0  0  0  0  # atno 8010 bound_to 7997
  140.0312  144.5464  150.7506 H   0  0  0  0  0  0  0  0  0  0  0  0  # atno 10167 bound_to 10162
  156.5370  130.8546  151.2736 H   0  0  0  0  0  0  0  0  0  0  0  0  # atno 10718 bound_to 10713
  154.7075  135.3000  154.9248 H   0  0  0  0  0  0  0  0  0  0  0  0  # atno 10763 bound_to 10752
  154.0160  135.6688  153.4773 H   0  0  0  0  0  0  0  0  0  0  0  0  # atno 10764 bound_to 10752
  153.0729  135.5051  154.8254 H   0  0  0  0  0  0  0  0  0  0  0  0  # atno 10765 bound_to 10752
  140.1230  134.4805  155.8582 H   0  0  0  0  0  0  0  0  0  0  0  0  # atno 11005 bound_to 11000
  146.3031  139.7491  142.9076 LP  0  0  0  0  0  0  0  0  0  0  0  0  # atno 17320 bound_to 7965
  145.3849  141.0364  143.3156 LP  0  0  0  0  0  0  0  0  0  0  0  0  # atno 17321 bound_to 7965
  140.7301  143.2680  151.3982 LP  0  0  0  0  0  0  0  0  0  0  0  0  # atno 17342 bound_to 10162
  139.6075  144.1167  152.2264 LP  0  0  0  0  0  0  0  0  0  0  0  0  # atno 17343 bound_to 10162
  157.7412  130.9865  150.2428 LP  0  0  0  0  0  0  0  0  0  0  0  0  # atno 17370 bound_to 10713
  156.3007  130.3758  149.7753 LP  0  0  0  0  0  0  0  0  0  0  0  0  # atno 17371 bound_to 10713
  141.2155  133.6767  156.6924 LP  0  0  0  0  0  0  0  0  0  0  0  0  # atno 17394 bound_to 11000
  140.2941  134.8217  157.4042 LP  0  0  0  0  0  0  0  0  0  0  0  0  # atno 17395 bound_to 11000

$$$$
