AV-unprocessed.smi:48|AV-procd|sdf|450|dock1
  -GOLD-   2262016313D 1   1.00000     0.00000
 Structure written by MMmdl.
 30 32  0  0  0  0  0  0  0  0  1 V2000
  144.0425  141.6668  154.9633 O   0  0  0  0  0  0  0  0  0  0  0  0
  144.9300  141.0385  155.8638 C   0  0  0  0  0  0  0  0  0  0  0  0
  146.2575  140.7050  155.1599 C   0  0  2  0  0  0  0  0  0  0  0  0
  147.2457  140.3070  156.1006 O   0  0  0  0  0  0  0  0  0  0  0  0
  148.5022  140.3966  155.5048 C   0  0  2  0  0  0  0  0  0  0  0  0
  149.4842  140.8535  156.5387 N   0  0  0  0  0  0  0  0  0  0  0  0
  149.4272  141.9831  157.2734 C   0  0  0  0  0  0  0  0  0  0  0  0
  150.4102  142.1990  158.1466 N   0  0  0  0  0  0  0  0  0  0  0  0
  151.1990  141.0765  157.9566 C   0  0  0  0  0  0  0  0  0  0  0  0
  152.4086  140.6429  158.5518 C   0  0  0  0  0  0  0  0  0  0  0  0
  153.1857  141.5831  159.7725 Cl  0  0  0  0  0  0  0  0  0  0  0  0
  152.9457  139.4694  158.1410 N   0  0  0  0  0  0  0  0  0  0  0  0
  152.3230  138.7607  157.1913 C   0  0  0  0  0  0  0  0  0  0  0  0
  151.1872  139.0411  156.5428 N   0  0  0  0  0  0  0  0  0  0  0  0
  150.6452  140.2237  156.9592 C   0  0  0  0  0  0  0  0  0  0  0  0
  148.3872  141.3629  154.3051 C   0  0  2  0  0  0  0  0  0  0  0  0
  149.3260  142.4246  154.2767 O   0  0  0  0  0  0  0  0  0  0  0  0
  146.9355  141.8351  154.3703 C   0  0  2  0  0  0  0  0  0  0  0  0
  146.7951  143.0823  155.0293 O   0  0  0  0  0  0  0  0  0  0  0  0
  146.1011  139.8576  154.4896 H   0  0  0  0  0  0  0  0  0  0  0  0
  148.8508  139.4051  155.2120 H   0  0  0  0  0  0  0  0  0  0  0  0
  148.5259  140.7642  153.4040 H   0  0  0  0  0  0  0  0  0  0  0  0
  146.5056  141.9369  153.3733 H   0  0  0  0  0  0  0  0  0  0  0  0
  143.9712  141.1303  154.1883 H   0  0  0  0  0  0  0  0  0  0  0  0
  145.0845  141.6748  156.7357 H   0  0  0  0  0  0  0  0  0  0  0  0
  144.4617  140.1216  156.2222 H   0  0  0  0  0  0  0  0  0  0  0  0
  148.6149  142.6866  157.1633 H   0  0  0  0  0  0  0  0  0  0  0  0
  152.8038  137.8357  156.9094 H   0  0  0  0  0  0  0  0  0  0  0  0
  148.9400  143.1684  154.7144 H   0  0  0  0  0  0  0  0  0  0  0  0
  147.6496  143.3641  155.3184 H   0  0  0  0  0  0  0  0  0  0  0  0
  1  2  1  0  0  0  0
  1 24  1  0  0  0  0
  2  3  1  0  0  0  0
  2 25  1  0  0  0  0
  2 26  1  0  0  0  0
  3 20  1  0  0  0  0
  3 18  1  0  0  0  0
  3  4  1  0  0  0  0
  4  5  1  0  0  0  0
  5 21  1  0  0  0  0
  5  6  1  0  0  0  0
  5 16  1  0  0  0  0
  6 15  1  0  0  0  0
  6  7  1  0  0  0  0
  7  8  2  0  0  0  0
  7 27  1  0  0  0  0
  8  9  1  0  0  0  0
  9 15  2  0  0  0  0
  9 10  1  0  0  0  0
 10 11  1  0  0  0  0
 10 12  2  0  0  0  0
 12 13  1  0  0  0  0
 13 14  2  0  0  0  0
 13 28  1  0  0  0  0
 14 15  1  0  0  0  0
 16 22  1  0  0  0  0
 16 17  1  0  0  0  0
 16 18  1  0  0  0  0
 17 29  1  0  0  0  0
 18 23  1  0  0  0  0
 18 19  1  0  0  0  0
 19 30  1  0  0  0  0
M  END
> <s_m_source_file>
AV-unprocessed.smi

> <i_m_source_file_index>
48

> <i_lp_mmshare_version>
43012

> <i_f3d_flags>
0

> <s_epik_input>
W09IXVtDSDJdW0NASF0xT1tDQEhdKFtDQEhdKFtPSF0pW0NAQEhdMVtPSF0pbihbY0hdbjIpYyhjMjMpbltjSF1uYzNDbA==

> <s_epik_cmdline>
J2VwaWtfcHl0aG9uJywgJy1waCcsICc3LjAnLCAnLXRuJywgJzgnLCAnLW1hJywgJzIwMCcsICctbWV0YWxfYmluZGluZycsICctaW1hZScsICc8aW5maWxlLm1hZT4nLCAnLW9tYWUnLCAnPG91dGZpbGUubWFlPic=

> <r_lp_tautomer_probability>
1

> <r_epik_Ionization_Penalty>
3.45505e-06

> <r_epik_Ionization_Penalty_Charging>
0

> <r_epik_Ionization_Penalty_Neutral>
3.45505e-06

> <r_epik_State_Penalty>
-0

> <r_epik_Charging_Adjusted_Penalty>
0

> <i_epik_Tot_Q>
0

> <i_epik_Tot_abs_Q>
0

> <r_epik_Metal_State_Penalty>
-0

> <b_epik_Metal_Only>
0

> <s_epik_Chemistry_Notes>
This compound contains an acetal/aminal-like group ( X-CH(R)-Y where X, Y are N, S, or O) that may be acid/base labile, releasing an aldehyde.

> <s_lp_Force_Field>
OPLS_2005

> <r_lp_Energy>
43.6519

> <b_lp_Chiralities_Consistent>
1

> <s_lp_Variant>
AV-unprocessed.smi:48-4

> <Gold.Version>
5.8.1

> <Gold.Id.Protein>
6NUR|6NUR_protein|mol2

> <Gold.PLP.Fitness>
38.6459

> <Gold.PLP.PLP>
-23.7968

> <Gold.PLP.part.hbond>
-5.3330

> <Gold.PLP.part.metal>
0.0000

> <Gold.PLP.part.buried>
-0.7252

> <Gold.PLP.part.nonpolar>
-16.6053

> <Gold.PLP.part.repulsive>
0.0965

> <Gold.PLP.ligand.clash>
0.0000

> <Gold.PLP.ligand.torsion>
0.0652

> <Gold.PLP.Chemscore.Hbond>
4.2240

> <Gold.PLP.Chemscore.CHOScore>
0.7690

> <Gold.PLP.Chemscore.Metal>
0.0000

> <Gold.Chemscore.Hbonds>
donor molecule, donor type, donor heavy atom, donor atom, acceptor molecule, acceptor atom, score
      L1  H     1    24       P1 10175  1.00
      L1  H    17    29       P1  8028  1.00
      L1  H    19    30       P1  8028  0.98
      P1  H  7997  8010       L1    12  0.76
      P1  H  8011  8017       L1    17  0.14
      L1  C     7    27       P1  8028  0.81

> <Gold.PLP.Chemscore.Internal.Correction>
0.0006

> <Gold.Rescore>
     Score         DG    S(hbond)    S(metal)    S(lipo)     H(rot)  DE(clash)    DE(int)     intcor
      7.21      -8.70       2.41        0.00      41.84       3.80       0.50       1.00       ----

> <Gold.Chemscore.Fitness>
7.2064

> <Gold.Chemscore.DG>
-8.7022

> <Gold.Chemscore.ZeroCoef>
-5.4800

> <Gold.Chemscore.Hbond>
2.4129

> <Gold.Chemscore.Metal>
0.0000

> <Gold.Chemscore.Lipo>
41.8415

> <Gold.Chemscore.Internal_Hbond>
0.0000

> <Gold.Chemscore.DEClash>
0.4961

> <Gold.Chemscore.DEInternal>
0.9997

> <Gold.Chemscore.Rot>
3.8017

> <Gold.Chemscore.Internal.Correction>
   9.000000E+99

> <Gold.Chemscore.Hbonds>
donor molecule, donor type, donor heavy atom, donor atom, acceptor molecule, acceptor atom, score
      L1  H     1    24       P1 10175  0.70
      L1  H    17    29       P1  8028  0.99
      L1  H    19    30       P1  8028  0.24
      P1  H  7997  8010       L1    12  0.12
      P1  H  8011  8017       L1    17  0.04

> <Gold.Chemscore.Hbond.Weighted>
-8.0591

> <Gold.Chemscore.Metal.Weighted>
-0.0000

> <Gold.Chemscore.Lipo.Weighted>
-4.8955

> <Gold.Chemscore.Internal_Hbond.Weighted>
0.0000

> <Gold.Chemscore.DEClash.Weighted>
0.4961

> <Gold.Chemscore.DEInternal.Weighted>
0.9997

> <Gold.Chemscore.Rot.Weighted>
9.7324

> <Gold.Chemscore.Internal.Correction.Weighted>
   9.000000E+99

> <Gold.Protein.RotatedTorsions>
[ 6907 6896 6895 6894 ] final  -30.42 input  -60.11 | X-H torsion
[ 7974 7965 7964 7962 ] final   27.94 input  175.53 | X-H torsion
[ 8008 7997 7996 7995 ] final   21.39 input   59.86 | X-H torsion
[ 10167 10162 10161 10158 ] final   79.29 input  -65.29 | X-H torsion
[ 10718 10713 10712 10709 ] final -139.76 input   66.30 | X-H torsion
[ 10763 10752 10751 10750 ] final   79.96 input  -60.55 | X-H torsion
[ 11005 11000 10999 10996 ] final   -0.79 input  -57.11 | X-H torsion

> <Gold.Protein.ActiveResidues>
 VAL166  LYS551  ARG553  GLY616  TRP617  ASP618  TYR619  PRO620  LYS621  CYS622 
 ASP623  PHE694  ASN695  SER759  ASP760  ASP761  ALA762  ILE779  LEU786  VAL792 
 PHE793  MET794  SER795  GLU796  ALA797  LYS798  CYS799  TRP800  GLU811  SER814 

> <Gold.Protein.RotatedAtoms>
  151.1058  134.9998  159.8470 H   0  0  0  0  0  0  0  0  0  0  0  0  # atno 6907 bound_to 6896
  152.5440  134.1895  159.8678 H   0  0  0  0  0  0  0  0  0  0  0  0  # atno 6908 bound_to 6896
  151.1941  133.4605  159.2628 H   0  0  0  0  0  0  0  0  0  0  0  0  # atno 6909 bound_to 6896
  146.1756  139.7123  142.8936 H   0  0  0  0  0  0  0  0  0  0  0  0  # atno 7974 bound_to 7965
  154.9498  140.3064  155.5080 H   0  0  0  0  0  0  0  0  0  0  0  0  # atno 8008 bound_to 7997
  156.2988  140.2321  156.4513 H   0  0  0  0  0  0  0  0  0  0  0  0  # atno 8009 bound_to 7997
  154.8065  140.0431  157.1300 H   0  0  0  0  0  0  0  0  0  0  0  0  # atno 8010 bound_to 7997
  139.9619  144.5955  150.8064 H   0  0  0  0  0  0  0  0  0  0  0  0  # atno 10167 bound_to 10162
  156.3144  130.7500  151.1583 H   0  0  0  0  0  0  0  0  0  0  0  0  # atno 10718 bound_to 10713
  153.0994  135.4820  154.8839 H   0  0  0  0  0  0  0  0  0  0  0  0  # atno 10763 bound_to 10752
  154.7362  135.3071  154.8810 H   0  0  0  0  0  0  0  0  0  0  0  0  # atno 10764 bound_to 10752
  153.9431  135.6832  153.4797 H   0  0  0  0  0  0  0  0  0  0  0  0  # atno 10765 bound_to 10752
  140.6402  133.9496  155.8322 H   0  0  0  0  0  0  0  0  0  0  0  0  # atno 11005 bound_to 11000
  145.4220  141.0407  143.2958 LP  0  0  0  0  0  0  0  0  0  0  0  0  # atno 17320 bound_to 7965
  144.8231  139.5756  143.6978 LP  0  0  0  0  0  0  0  0  0  0  0  0  # atno 17321 bound_to 7965
  140.7550  143.3038  151.3013 LP  0  0  0  0  0  0  0  0  0  0  0  0  # atno 17342 bound_to 10162
  139.6547  144.0298  152.2651 LP  0  0  0  0  0  0  0  0  0  0  0  0  # atno 17343 bound_to 10162
  157.7398  131.0524  150.5206 LP  0  0  0  0  0  0  0  0  0  0  0  0  # atno 17370 bound_to 10713
  156.5350  130.4194  149.6182 LP  0  0  0  0  0  0  0  0  0  0  0  0  # atno 17371 bound_to 10713
  141.0612  134.0343  157.3655 LP  0  0  0  0  0  0  0  0  0  0  0  0  # atno 17394 bound_to 11000
  139.9083  135.0185  156.7582 LP  0  0  0  0  0  0  0  0  0  0  0  0  # atno 17395 bound_to 11000

$$$$
