AV-unprocessed.smi:3220|AV-procd|sdf|12299|dock9
  -GOLD-   2272018143D 1   1.00000     0.00000
 Structure written by MMmdl.
 33 34  0  0  0  0  0  0  0  0  1 V2000
  154.1392  140.5372  161.4522 C   0  0  0  0  0  0  0  0  0  0  0  0
  153.6651  141.4263  160.2947 C   0  0  2  0  0  0  0  0  0  0  0  0
  152.8973  142.6613  160.8132 C   0  0  0  0  0  0  0  0  0  0  0  0
  152.2106  143.3820  159.7558 N   0  0  0  0  0  0  0  0  0  0  0  0
  152.7540  144.0284  158.6653 C   0  0  0  0  0  0  0  0  0  0  0  0
  151.7199  144.5740  157.9601 C   0  0  0  0  0  0  0  0  0  0  0  0
  150.5675  144.1981  158.7054 C   0  0  0  0  0  0  0  0  0  0  0  0
  150.8641  143.4810  159.7770 N   0  0  0  0  0  0  0  0  0  0  0  0
  152.8254  140.6307  159.3996 N   0  0  0  0  0  0  0  0  0  0  0  0
  153.2332  139.5858  158.6620 C   0  0  0  0  0  0  0  0  0  0  0  0
  154.3861  139.1534  158.6749 O   0  0  0  0  0  0  0  0  0  0  0  0
  152.1748  138.9314  157.7686 C   0  0  1  0  0  0  0  0  0  0  0  0
  151.6111  139.8730  156.6880 C   0  0  0  0  0  0  0  0  0  0  0  0
  152.1462  139.2966  155.3915 C   0  0  0  0  0  0  0  0  0  0  0  0
  152.2861  137.8216  155.7383 C   0  0  0  0  0  0  0  0  0  0  0  0
  152.7892  137.8542  157.0641 O   0  0  0  0  0  0  0  0  0  0  0  0
  154.7861  141.0917  162.1327 H   0  0  0  0  0  0  0  0  0  0  0  0
  154.7076  139.6828  161.0832 H   0  0  0  0  0  0  0  0  0  0  0  0
  153.2980  140.1543  162.0310 H   0  0  0  0  0  0  0  0  0  0  0  0
  154.5575  141.7644  159.7647 H   0  0  0  0  0  0  0  0  0  0  0  0
  152.1670  142.3694  161.5693 H   0  0  0  0  0  0  0  0  0  0  0  0
  153.5860  143.3542  161.2990 H   0  0  0  0  0  0  0  0  0  0  0  0
  153.8192  144.0527  158.4889 H   0  0  0  0  0  0  0  0  0  0  0  0
  151.7774  145.1548  157.0516 H   0  0  0  0  0  0  0  0  0  0  0  0
  149.5312  144.4226  158.5006 H   0  0  0  0  0  0  0  0  0  0  0  0
  151.8565  140.9052  159.3259 H   0  0  0  0  0  0  0  0  0  0  0  0
  151.3570  138.5378  158.3749 H   0  0  0  0  0  0  0  0  0  0  0  0
  150.5215  139.8277  156.6949 H   0  0  0  0  0  0  0  0  0  0  0  0
  151.8937  140.9191  156.8161 H   0  0  0  0  0  0  0  0  0  0  0  0
  151.4903  139.4759  154.5392 H   0  0  0  0  0  0  0  0  0  0  0  0
  153.1255  139.7220  155.1677 H   0  0  0  0  0  0  0  0  0  0  0  0
  151.3156  137.3234  155.7264 H   0  0  0  0  0  0  0  0  0  0  0  0
  152.9589  137.2897  155.0654 H   0  0  0  0  0  0  0  0  0  0  0  0
  1  2  1  0  0  0  0
  1 17  1  0  0  0  0
  1 18  1  0  0  0  0
  1 19  1  0  0  0  0
  2  3  1  0  0  0  0
  2  9  1  0  0  0  0
  2 20  1  0  0  0  0
  3  4  1  0  0  0  0
  3 21  1  0  0  0  0
  3 22  1  0  0  0  0
  4  8  1  0  0  0  0
  4  5  1  0  0  0  0
  5  6  2  0  0  0  0
  5 23  1  0  0  0  0
  6  7  1  0  0  0  0
  6 24  1  0  0  0  0
  7  8  2  0  0  0  0
  7 25  1  0  0  0  0
  9 10  1  0  0  0  0
  9 26  1  0  0  0  0
 10 11  2  0  0  0  0
 10 12  1  0  0  0  0
 12 16  1  0  0  0  0
 12 13  1  0  0  0  0
 12 27  1  0  0  0  0
 13 14  1  0  0  0  0
 13 28  1  0  0  0  0
 13 29  1  0  0  0  0
 14 15  1  0  0  0  0
 14 30  1  0  0  0  0
 14 31  1  0  0  0  0
 15 16  1  0  0  0  0
 15 32  1  0  0  0  0
 15 33  1  0  0  0  0
M  END
> <s_m_source_file>
AV-unprocessed.smi

> <i_m_source_file_index>
3220

> <i_lp_mmshare_version>
43012

> <i_f3d_flags>
0

> <s_epik_input>
bjFbY0hdW2NIXVtjSF1uMVtDSDJdW0NAQEhdKFtDSDNdKVtOSF1DKD1PKVtDQEBIXTJbQ0gyXVtDSDJdW0NIMl1PMg==

> <s_epik_cmdline>
J2VwaWtfcHl0aG9uJywgJy1waCcsICc3LjAnLCAnLXRuJywgJzgnLCAnLW1hJywgJzIwMCcsICctbWV0YWxfYmluZGluZycsICctaW1hZScsICc8aW5maWxlLm1hZT4nLCAnLW9tYWUnLCAnPG91dGZpbGUubWFlPic=

> <r_lp_tautomer_probability>
1

> <r_epik_Ionization_Penalty>
0.00033363

> <r_epik_Ionization_Penalty_Charging>
0

> <r_epik_Ionization_Penalty_Neutral>
0.00033363

> <r_epik_State_Penalty>
-0

> <r_epik_Charging_Adjusted_Penalty>
0

> <i_epik_Tot_Q>
0

> <i_epik_Tot_abs_Q>
0

> <r_epik_Metal_State_Penalty>
-0

> <b_epik_Metal_Only>
0

> <s_lp_Force_Field>
OPLS_2005

> <r_lp_Energy>
17.4241

> <b_lp_Chiralities_Consistent>
1

> <s_lp_Variant>
AV-unprocessed.smi:3220-3

> <Gold.Version>
5.8.1

> <Gold.Id.Protein>
6NUR|6NUR_protein|mol2

> <Gold.PLP.Fitness>
42.5590

> <Gold.PLP.PLP>
-36.8021

> <Gold.PLP.part.hbond>
-1.0898

> <Gold.PLP.part.metal>
0.0000

> <Gold.PLP.part.buried>
-2.9074

> <Gold.PLP.part.nonpolar>
-32.3716

> <Gold.PLP.part.repulsive>
0.1889

> <Gold.PLP.ligand.clash>
0.0000

> <Gold.PLP.ligand.torsion>
0.1325

> <Gold.PLP.Chemscore.Hbond>
1.0000

> <Gold.PLP.Chemscore.CHOScore>
1.0014

> <Gold.PLP.Chemscore.Metal>
0.0000

> <Gold.Chemscore.Hbonds>
donor molecule, donor type, donor heavy atom, donor atom, acceptor molecule, acceptor atom, score
      P1  H  7997  8008       L1    11  0.90
      L1  C     7    25       P1  8028  0.02
      L1  C     7    25       P1  8029  0.97

> <Gold.PLP.Chemscore.Internal.Correction>
0.0180

> <Gold.Rescore>
     Score         DG    S(hbond)    S(metal)    S(lipo)     H(rot)  DE(clash)    DE(int)     intcor
     14.58     -14.74       0.89        0.00      89.23       1.62       0.00       0.16       ----

> <Gold.Chemscore.Fitness>
14.5819

> <Gold.Chemscore.DG>
-14.7403

> <Gold.Chemscore.ZeroCoef>
-5.4800

> <Gold.Chemscore.Hbond>
0.8898

> <Gold.Chemscore.Metal>
0.0000

> <Gold.Chemscore.Lipo>
89.2338

> <Gold.Chemscore.Internal_Hbond>
0.0000

> <Gold.Chemscore.DEClash>
0.0015

> <Gold.Chemscore.DEInternal>
0.1569

> <Gold.Chemscore.Rot>
1.6219

> <Gold.Chemscore.Internal.Correction>
   9.000000E+99

> <Gold.Chemscore.Hbonds>
donor molecule, donor type, donor heavy atom, donor atom, acceptor molecule, acceptor atom, score
      P1  H  7997  8008       L1    11  0.18

> <Gold.Chemscore.Hbond.Weighted>
-2.9719

> <Gold.Chemscore.Metal.Weighted>
-0.0000

> <Gold.Chemscore.Lipo.Weighted>
-10.4404

> <Gold.Chemscore.Internal_Hbond.Weighted>
0.0000

> <Gold.Chemscore.DEClash.Weighted>
0.0015

> <Gold.Chemscore.DEInternal.Weighted>
0.1569

> <Gold.Chemscore.Rot.Weighted>
4.1520

> <Gold.Chemscore.Internal.Correction.Weighted>
   9.000000E+99

> <Gold.Protein.RotatedTorsions>
[ 6907 6896 6895 6894 ] final  115.80 input  -60.11 | X-H torsion
[ 7974 7965 7964 7962 ] final   31.23 input  175.53 | X-H torsion
[ 8008 7997 7996 7995 ] final -112.49 input   59.86 | X-H torsion
[ 10167 10162 10161 10158 ] final   49.88 input  -65.29 | X-H torsion
[ 10718 10713 10712 10709 ] final  -36.58 input   66.30 | X-H torsion
[ 10763 10752 10751 10750 ] final -110.05 input  -60.55 | X-H torsion
[ 11005 11000 10999 10996 ] final -165.67 input  -57.11 | X-H torsion

> <Gold.Protein.ActiveResidues>
 VAL166  LYS551  ARG553  GLY616  TRP617  ASP618  TYR619  PRO620  LYS621  CYS622 
 ASP623  PHE694  ASN695  SER759  ASP760  ASP761  ALA762  ILE779  LEU786  VAL792 
 PHE793  MET794  SER795  GLU796  ALA797  LYS798  CYS799  TRP800  GLU811  SER814 

> <Gold.Protein.RotatedAtoms>
  152.4718  133.8048  159.6971 H   0  0  0  0  0  0  0  0  0  0  0  0  # atno 6907 bound_to 6896
  150.8712  133.7493  159.2967 H   0  0  0  0  0  0  0  0  0  0  0  0  # atno 6908 bound_to 6896
  151.5027  135.1065  159.9885 H   0  0  0  0  0  0  0  0  0  0  0  0  # atno 6909 bound_to 6896
  146.1563  139.6684  142.9064 H   0  0  0  0  0  0  0  0  0  0  0  0  # atno 7974 bound_to 7965
  155.0061  140.0394  157.2380 H   0  0  0  0  0  0  0  0  0  0  0  0  # atno 8008 bound_to 7997
  154.7501  140.2765  155.6276 H   0  0  0  0  0  0  0  0  0  0  0  0  # atno 8009 bound_to 7997
  156.2883  140.2648  156.2253 H   0  0  0  0  0  0  0  0  0  0  0  0  # atno 8010 bound_to 7997
  140.2782  144.3186  150.6271 H   0  0  0  0  0  0  0  0  0  0  0  0  # atno 10167 bound_to 10162
  156.3252  130.4271  149.7923 H   0  0  0  0  0  0  0  0  0  0  0  0  # atno 10718 bound_to 10713
  154.8227  135.4578  154.0826 H   0  0  0  0  0  0  0  0  0  0  0  0  # atno 10763 bound_to 10752
  153.2166  135.6889  153.8056 H   0  0  0  0  0  0  0  0  0  0  0  0  # atno 10764 bound_to 10752
  153.7488  135.3301  155.3294 H   0  0  0  0  0  0  0  0  0  0  0  0  # atno 10765 bound_to 10752
  140.5730  134.5218  157.5165 H   0  0  0  0  0  0  0  0  0  0  0  0  # atno 11005 bound_to 11000
  145.4700  141.0436  143.2704 LP  0  0  0  0  0  0  0  0  0  0  0  0  # atno 17320 bound_to 7965
  144.7967  139.6220  143.7089 LP  0  0  0  0  0  0  0  0  0  0  0  0  # atno 17321 bound_to 7965
  140.5833  143.2171  151.7388 LP  0  0  0  0  0  0  0  0  0  0  0  0  # atno 17342 bound_to 10162
  139.4970  144.4048  152.0143 LP  0  0  0  0  0  0  0  0  0  0  0  0  # atno 17343 bound_to 10162
  156.5216  130.8217  151.3205 LP  0  0  0  0  0  0  0  0  0  0  0  0  # atno 17370 bound_to 10713
  157.7420  130.9881  150.2483 LP  0  0  0  0  0  0  0  0  0  0  0  0  # atno 17371 bound_to 10713
  139.9352  134.7888  156.0821 LP  0  0  0  0  0  0  0  0  0  0  0  0  # atno 17394 bound_to 11000
  141.1044  133.6665  156.2829 LP  0  0  0  0  0  0  0  0  0  0  0  0  # atno 17395 bound_to 11000

$$$$
