AV-unprocessed.smi:1726|AV-procd|sdf|6962|dock3
  -GOLD-   22720 8173D 1   1.00000     0.00000
 Structure written by MMmdl.
 42 43  0  0  0  0  0  0  0  0  3 V2000
  144.0710  135.6917  150.8247 C   0  0  0  0  0  0  0  0  0  0  0  0
  145.5121  136.2198  150.7670 C   0  0  0  0  0  0  0  0  0  0  0  0
  146.3712  135.6258  151.8212 N   0  3  2  0  0  0  0  0  0  0  0  0
  146.5666  134.1637  151.6409 C   0  0  0  0  0  0  0  0  0  0  0  0
  147.5865  133.6101  152.6517 C   0  0  0  0  0  0  0  0  0  0  0  0
  147.1938  133.9590  154.0976 C   0  0  0  0  0  0  0  0  0  0  0  0
  146.9404  135.4695  154.2517 C   0  0  1  0  0  0  0  0  0  0  0  0
  148.2026  136.2010  154.1345 N   0  0  0  0  0  0  0  0  0  0  0  0
  148.6350  137.1458  154.9821 C   0  0  0  0  0  0  0  0  0  0  0  0
  147.9990  137.4971  155.9751 O   0  0  0  0  0  0  0  0  0  0  0  0
  149.8277  137.6288  154.5908 N   0  0  0  0  0  0  0  0  0  0  0  0
  150.6094  138.6543  155.1507 C   0  0  0  0  0  0  0  0  0  0  0  0
  150.1425  139.6337  155.9750 C   0  0  0  0  0  0  0  0  0  0  0  0
  151.0073  140.6777  156.5112 C   0  0  0  0  0  0  0  0  0  0  0  0
  150.5417  141.7826  157.4421 C   0  0  0  0  0  0  0  0  0  0  0  0
  151.1498  141.6765  158.6232 F   0  0  0  0  0  0  0  0  0  0  0  0
  150.8434  142.9749  156.9290 F   0  0  0  0  0  0  0  0  0  0  0  0
  149.2244  141.7310  157.6405 F   0  0  0  0  0  0  0  0  0  0  0  0
  152.3124  140.5534  156.0793 C   0  0  0  0  0  0  0  0  0  0  0  0
  152.8521  139.6250  155.2597 N   0  5  0  0  0  0  0  0  0  0  0  0
  152.0367  138.6505  154.7672 C   0  0  0  0  0  0  0  0  0  0  0  0
  152.4625  137.7749  154.0130 O   0  0  0  0  0  0  0  0  0  0  0  0
  145.9090  135.9356  153.2001 C   0  0  0  0  0  0  0  0  0  0  0  0
  143.4469  136.2005  150.0897 H   0  0  0  0  0  0  0  0  0  0  0  0
  143.6285  135.8621  151.8067 H   0  0  0  0  0  0  0  0  0  0  0  0
  144.0140  134.6247  150.6122 H   0  0  0  0  0  0  0  0  0  0  0  0
  145.9496  136.0463  149.7829 H   0  0  0  0  0  0  0  0  0  0  0  0
  145.4727  137.3015  150.9006 H   0  0  0  0  0  0  0  0  0  0  0  0
  145.6094  133.6515  151.7520 H   0  0  0  0  0  0  0  0  0  0  0  0
  146.9204  133.9584  150.6297 H   0  0  0  0  0  0  0  0  0  0  0  0
  147.6690  132.5285  152.5411 H   0  0  0  0  0  0  0  0  0  0  0  0
  148.5746  134.0153  152.4300 H   0  0  0  0  0  0  0  0  0  0  0  0
  146.2885  133.4125  154.3655 H   0  0  0  0  0  0  0  0  0  0  0  0
  147.9676  133.6271  154.7910 H   0  0  0  0  0  0  0  0  0  0  0  0
  146.5377  135.6499  155.2499 H   0  0  0  0  0  0  0  0  0  0  0  0
  148.7963  135.9621  153.3535 H   0  0  0  0  0  0  0  0  0  0  0  0
  150.2472  137.1888  153.7847 H   0  0  0  0  0  0  0  0  0  0  0  0
  149.1024  139.6780  156.2493 H   0  0  0  0  0  0  0  0  0  0  0  0
  153.0294  141.3167  156.4504 H   0  0  0  0  0  0  0  0  0  0  0  0
  145.7269  137.0036  153.3106 H   0  0  0  0  0  0  0  0  0  0  0  0
  144.9496  135.4467  153.3779 H   0  0  0  0  0  0  0  0  0  0  0  0
  147.2826  136.0482  151.7152 H   0  0  0  0  0  0  0  0  0  0  0  0
  1  2  1  0  0  0  0
  1 24  1  0  0  0  0
  1 25  1  0  0  0  0
  1 26  1  0  0  0  0
  2  3  1  0  0  0  0
  2 27  1  0  0  0  0
  2 28  1  0  0  0  0
  3 23  1  0  0  0  0
  3  4  1  0  0  0  0
  3 42  1  0  0  0  0
  4  5  1  0  0  0  0
  4 29  1  0  0  0  0
  4 30  1  0  0  0  0
  5  6  1  0  0  0  0
  5 31  1  0  0  0  0
  5 32  1  0  0  0  0
  6  7  1  0  0  0  0
  6 33  1  0  0  0  0
  6 34  1  0  0  0  0
  7  8  1  0  0  0  0
  7 23  1  0  0  0  0
  7 35  1  0  0  0  0
  8  9  1  0  0  0  0
  8 36  1  0  0  0  0
  9 10  2  0  0  0  0
  9 11  1  0  0  0  0
 11 12  1  0  0  0  0
 11 37  1  0  0  0  0
 12 21  1  0  0  0  0
 12 13  2  0  0  0  0
 13 14  1  0  0  0  0
 13 38  1  0  0  0  0
 14 15  1  0  0  0  0
 14 19  2  0  0  0  0
 15 16  1  0  0  0  0
 15 17  1  0  0  0  0
 15 18  1  0  0  0  0
 19 20  1  0  0  0  0
 19 39  1  0  0  0  0
 20 21  1  0  0  0  0
 21 22  2  0  0  0  0
 23 40  1  0  0  0  0
 23 41  1  0  0  0  0
M  CHG  1   3   1
M  CHG  1  20  -1
M  END
> <s_m_source_file>
AV-unprocessed.smi

> <i_m_source_file_index>
1726

> <i_lp_mmshare_version>
43012

> <i_f3d_flags>
0

> <s_epik_input>
W0NIM11bQ0gyXU4xW0NIMl1bQ0gyXVtDSDJdW0NASF0oW0NIMl0xKVtOSF1DKD1PKVtOSF1jMltjSF1jKEMoRikoRilGKVtjSF1bbkhdYzI9Tw==

> <s_epik_cmdline>
J2VwaWtfcHl0aG9uJywgJy1waCcsICc3LjAnLCAnLXRuJywgJzgnLCAnLW1hJywgJzIwMCcsICctbWV0YWxfYmluZGluZycsICctaW1hZScsICc8aW5maWxlLm1hZT4nLCAnLW9tYWUnLCAnPG91dGZpbGUubWFlPic=

> <r_lp_tautomer_probability>
1

> <r_epik_Ionization_Penalty>
3.01007

> <r_epik_Ionization_Penalty_Charging>
0.14897

> <r_epik_Ionization_Penalty_Neutral>
2.8611

> <r_epik_State_Penalty>
2.85632

> <r_epik_Charging_Adjusted_Penalty>
3.00529

> <i_epik_Tot_Q>
0

> <i_epik_Tot_abs_Q>
2

> <r_epik_Metal_State_Penalty>
0.443826

> <b_epik_Metal_Only>
1

> <s_lp_Force_Field>
OPLS_2005

> <r_lp_Energy>
34.8935

> <b_lp_Chiralities_Consistent>
1

> <s_lp_Variant>
AV-unprocessed.smi:1726-6

> <Gold.Version>
5.8.1

> <Gold.Id.Protein>
6NUR|6NUR_protein|mol2

> <Gold.PLP.Fitness>
44.2336

> <Gold.PLP.PLP>
-30.0648

> <Gold.PLP.part.hbond>
-4.6749

> <Gold.PLP.part.metal>
0.0000

> <Gold.PLP.part.buried>
-1.2943

> <Gold.PLP.part.nonpolar>
-25.2547

> <Gold.PLP.part.repulsive>
0.2274

> <Gold.PLP.ligand.clash>
0.0000

> <Gold.PLP.ligand.torsion>
0.2769

> <Gold.PLP.Chemscore.Hbond>
4.8898

> <Gold.PLP.Chemscore.CHOScore>
0.0000

> <Gold.PLP.Chemscore.Metal>
0.0000

> <Gold.Chemscore.Hbonds>
donor molecule, donor type, donor heavy atom, donor atom, acceptor molecule, acceptor atom, score
      L1  H     3    42       P1  7948  2.00
      L1  H     8    36       P1  7948  0.80
      P1  H  7997  8008       L1    20  0.80
      P1  H 10752 10763       L1    22  0.47

> <Gold.PLP.Chemscore.Internal.Correction>
0.0532

> <Gold.Rescore>
     Score         DG    S(hbond)    S(metal)    S(lipo)     H(rot)  DE(clash)    DE(int)     intcor
     16.31     -18.08       2.71        0.00      58.46       1.28       0.67       1.11       ----

> <Gold.Chemscore.Fitness>
16.3108

> <Gold.Chemscore.DG>
-18.0822

> <Gold.Chemscore.ZeroCoef>
-5.4800

> <Gold.Chemscore.Hbond>
2.7059

> <Gold.Chemscore.Metal>
0.0000

> <Gold.Chemscore.Lipo>
58.4643

> <Gold.Chemscore.Internal_Hbond>
0.0000

> <Gold.Chemscore.DEClash>
0.6661

> <Gold.Chemscore.DEInternal>
1.1054

> <Gold.Chemscore.Rot>
1.2796

> <Gold.Chemscore.Internal.Correction>
   9.000000E+99

> <Gold.Chemscore.Hbonds>
donor molecule, donor type, donor heavy atom, donor atom, acceptor molecule, acceptor atom, score
      L1  H     3    42       P1  7948  0.99
      L1  H     8    36       P1  7948  0.76
      P1  H  7997  8008       L1    20  0.01
      P1  H 10752 10763       L1    22  0.47

> <Gold.Chemscore.Hbond.Weighted>
-9.0377

> <Gold.Chemscore.Metal.Weighted>
-0.0000

> <Gold.Chemscore.Lipo.Weighted>
-6.8403

> <Gold.Chemscore.Internal_Hbond.Weighted>
0.0000

> <Gold.Chemscore.DEClash.Weighted>
0.6661

> <Gold.Chemscore.DEInternal.Weighted>
1.1054

> <Gold.Chemscore.Rot.Weighted>
3.2759

> <Gold.Chemscore.Internal.Correction.Weighted>
   9.000000E+99

> <Gold.Protein.RotatedTorsions>
[ 6907 6896 6895 6894 ] final   83.96 input  -60.11 | X-H torsion
[ 7974 7965 7964 7962 ] final  170.86 input  175.53 | X-H torsion
[ 8008 7997 7996 7995 ] final   -6.82 input   59.86 | X-H torsion
[ 10167 10162 10161 10158 ] final -110.62 input  -65.29 | X-H torsion
[ 10718 10713 10712 10709 ] final  -62.75 input   66.30 | X-H torsion
[ 10763 10752 10751 10750 ] final   34.44 input  -60.55 | X-H torsion
[ 11005 11000 10999 10996 ] final -166.37 input  -57.11 | X-H torsion

> <Gold.Protein.ActiveResidues>
 VAL166  LYS551  ARG553  GLY616  TRP617  ASP618  TYR619  PRO620  LYS621  CYS622 
 ASP623  PHE694  ASN695  SER759  ASP760  ASP761  ALA762  ILE779  LEU786  VAL792 
 PHE793  MET794  SER795  GLU796  ALA797  LYS798  CYS799  TRP800  GLU811  SER814 

> <Gold.Protein.RotatedAtoms>
  152.5340  134.2814  159.9008 H   0  0  0  0  0  0  0  0  0  0  0  0  # atno 6907 bound_to 6896
  151.2768  133.4222  159.2632 H   0  0  0  0  0  0  0  0  0  0  0  0  # atno 6908 bound_to 6896
  151.0319  134.9560  159.8172 H   0  0  0  0  0  0  0  0  0  0  0  0  # atno 6909 bound_to 6896
  144.7311  139.9265  143.6422 H   0  0  0  0  0  0  0  0  0  0  0  0  # atno 7974 bound_to 7965
  154.5900  140.2423  155.7934 H   0  0  0  0  0  0  0  0  0  0  0  0  # atno 8008 bound_to 7997
  156.2240  140.2988  155.9976 H   0  0  0  0  0  0  0  0  0  0  0  0  # atno 8009 bound_to 7997
  155.2391  140.0406  157.2963 H   0  0  0  0  0  0  0  0  0  0  0  0  # atno 8010 bound_to 7997
  140.1425  143.4267  152.1552 H   0  0  0  0  0  0  0  0  0  0  0  0  # atno 10167 bound_to 10162
  156.0835  130.4212  150.1180 H   0  0  0  0  0  0  0  0  0  0  0  0  # atno 10718 bound_to 10713
  153.0164  135.6360  154.1670 H   0  0  0  0  0  0  0  0  0  0  0  0  # atno 10763 bound_to 10752
  154.1408  135.2835  155.3163 H   0  0  0  0  0  0  0  0  0  0  0  0  # atno 10764 bound_to 10752
  154.6125  135.5551  153.7550 H   0  0  0  0  0  0  0  0  0  0  0  0  # atno 10765 bound_to 10752
  140.5653  134.5292  157.5151 H   0  0  0  0  0  0  0  0  0  0  0  0  # atno 11005 bound_to 11000
  146.0890  139.3879  143.0417 LP  0  0  0  0  0  0  0  0  0  0  0  0  # atno 17320 bound_to 7965
  145.7737  140.9886  143.1136 LP  0  0  0  0  0  0  0  0  0  0  0  0  # atno 17321 bound_to 7965
  139.5465  144.7302  151.4567 LP  0  0  0  0  0  0  0  0  0  0  0  0  # atno 17342 bound_to 10162
  140.6752  143.8206  150.7049 LP  0  0  0  0  0  0  0  0  0  0  0  0  # atno 17343 bound_to 10162
  156.9206  130.9681  151.3549 LP  0  0  0  0  0  0  0  0  0  0  0  0  # atno 17370 bound_to 10713
  157.5960  130.8478  149.8730 LP  0  0  0  0  0  0  0  0  0  0  0  0  # atno 17371 bound_to 10713
  139.9388  134.7825  156.0732 LP  0  0  0  0  0  0  0  0  0  0  0  0  # atno 17394 bound_to 11000
  141.1090  133.6650  156.2932 LP  0  0  0  0  0  0  0  0  0  0  0  0  # atno 17395 bound_to 11000

$$$$
