AV-unprocessed.smi:1|AV-procd|sdf|23|dock10
  -GOLD-   2262015133D 1   1.00000     0.00000
 Structure written by MMmdl.
 56 61  0  0  0  0  0  0  0  0  2 V2000
  153.4633  140.1280  158.6219 O   0  0  0  0  0  0  0  0  0  0  0  0
  152.3934  140.6571  158.3134 C   0  0  0  0  0  0  0  0  0  0  0  0
  151.3488  140.1004  157.6500 N   0  5  0  0  0  0  0  0  0  0  0  0
  150.9734  138.8431  157.9274 C   0  0  0  0  0  0  0  0  0  0  0  0
  151.0399  138.3678  159.1974 N   0  0  0  0  0  0  0  0  0  0  0  0
  150.6771  137.1082  159.4677 C   0  0  0  0  0  0  0  0  0  0  0  0
  150.2341  136.1633  158.6324 N   0  0  0  0  0  0  0  0  0  0  0  0
  150.1692  136.6294  157.3506 C   0  0  0  0  0  0  0  0  0  0  0  0
  150.5196  137.9431  156.9253 C   0  0  0  0  0  0  0  0  0  0  0  0
  150.3380  138.0830  155.5568 N   0  0  0  0  0  0  0  0  0  0  0  0
  149.8949  136.8740  155.2193 C   0  0  0  0  0  0  0  0  0  0  0  0
  149.7735  135.9620  156.2037 N   0  0  0  0  0  0  0  0  0  0  0  0
  149.3136  134.5507  156.0858 C   0  0  2  0  0  0  0  0  0  0  0  0
  148.0012  134.5412  155.6287 O   0  0  0  0  0  0  0  0  0  0  0  0
  147.3173  133.4020  156.1466 C   0  0  2  0  0  0  0  0  0  0  0  0
  145.9633  133.8694  156.6940 C   0  0  0  0  0  0  0  0  0  0  0  0
  145.2798  132.7613  157.2563 O   0  0  0  0  0  0  0  0  0  0  0  0
  143.9729  132.8584  157.5662 C   0  0  0  0  0  0  0  0  0  0  0  0
  143.2717  133.8285  157.2712 O   0  0  0  0  0  0  0  0  0  0  0  0
  143.4627  131.6661  158.3031 C   0  0  0  0  0  0  0  0  0  0  0  0
  144.3310  130.5759  158.5447 C   0  0  0  0  0  0  0  0  0  0  0  0
  143.8774  129.4372  159.2388 C   0  0  0  0  0  0  0  0  0  0  0  0
  142.5493  129.3744  159.6992 C   0  0  0  0  0  0  0  0  0  0  0  0
  141.6752  130.4516  159.4643 C   0  0  0  0  0  0  0  0  0  0  0  0
  142.1273  131.5913  158.7709 C   0  0  0  0  0  0  0  0  0  0  0  0
  148.2327  132.7933  157.2215 C   0  0  1  0  0  0  0  0  0  0  0  0
  148.8571  131.6233  156.7195 O   0  0  0  0  0  0  0  0  0  0  0  0
  150.4767  131.6614  157.1294 S   0  0  0  0  0  0  0  0  0  0  0  0
  150.6894  130.7468  158.2614 O   0  0  0  0  0  0  0  0  0  0  0  0
  151.2657  131.5862  155.8903 O   0  0  0  0  0  0  0  0  0  0  0  0
  150.5501  133.2282  157.7036 O   0  0  0  0  0  0  0  0  0  0  0  0
  149.3090  133.8582  157.4453 C   0  0  1  0  0  0  0  0  0  0  0  0
  152.1846  142.1126  158.6343 C   0  0  0  0  0  0  0  0  0  0  0  0
  151.5927  142.9638  157.6737 C   0  0  0  0  0  0  0  0  0  0  0  0
  151.4151  144.3347  157.9442 C   0  0  0  0  0  0  0  0  0  0  0  0
  151.8374  144.8713  159.1749 C   0  0  0  0  0  0  0  0  0  0  0  0
  152.4406  144.0362  160.1340 C   0  0  0  0  0  0  0  0  0  0  0  0
  152.6174  142.6650  159.8647 C   0  0  0  0  0  0  0  0  0  0  0  0
  150.7564  136.8139  160.5036 H   0  0  0  0  0  0  0  0  0  0  0  0
  149.6508  136.6354  154.1945 H   0  0  0  0  0  0  0  0  0  0  0  0
  149.9706  134.0807  155.3525 H   0  0  0  0  0  0  0  0  0  0  0  0
  147.1594  132.6940  155.3318 H   0  0  0  0  0  0  0  0  0  0  0  0
  146.1020  134.6520  157.4414 H   0  0  0  0  0  0  0  0  0  0  0  0
  145.3633  134.2889  155.8854 H   0  0  0  0  0  0  0  0  0  0  0  0
  145.3554  130.6014  158.2015 H   0  0  0  0  0  0  0  0  0  0  0  0
  144.5498  128.6113  159.4186 H   0  0  0  0  0  0  0  0  0  0  0  0
  142.2017  128.5016  160.2320 H   0  0  0  0  0  0  0  0  0  0  0  0
  140.6553  130.4047  159.8169 H   0  0  0  0  0  0  0  0  0  0  0  0
  141.4296  132.3997  158.6077 H   0  0  0  0  0  0  0  0  0  0  0  0
  147.7076  132.5434  158.1443 H   0  0  0  0  0  0  0  0  0  0  0  0
  149.0202  134.5506  158.2365 H   0  0  0  0  0  0  0  0  0  0  0  0
  151.2659  142.5680  156.7228 H   0  0  0  0  0  0  0  0  0  0  0  0
  150.9560  144.9748  157.2054 H   0  0  0  0  0  0  0  0  0  0  0  0
  151.7026  145.9226  159.3813 H   0  0  0  0  0  0  0  0  0  0  0  0
  152.7716  144.4470  161.0764 H   0  0  0  0  0  0  0  0  0  0  0  0
  153.0931  142.0433  160.6099 H   0  0  0  0  0  0  0  0  0  0  0  0
  1  2  2  0  0  0  0
  2  3  1  0  0  0  0
  2 33  1  0  0  0  0
  3  4  1  0  0  0  0
  4  9  1  0  0  0  0
  4  5  2  0  0  0  0
  5  6  1  0  0  0  0
  6  7  2  0  0  0  0
  6 39  1  0  0  0  0
  7  8  1  0  0  0  0
  8 12  1  0  0  0  0
  8  9  2  0  0  0  0
  9 10  1  0  0  0  0
 10 11  2  0  0  0  0
 11 12  1  0  0  0  0
 11 40  1  0  0  0  0
 12 13  1  0  0  0  0
 13 32  1  0  0  0  0
 13 14  1  0  0  0  0
 13 41  1  0  0  0  0
 14 15  1  0  0  0  0
 15 16  1  0  0  0  0
 15 26  1  0  0  0  0
 15 42  1  0  0  0  0
 16 17  1  0  0  0  0
 16 43  1  0  0  0  0
 16 44  1  0  0  0  0
 17 18  1  0  0  0  0
 18 19  2  0  0  0  0
 18 20  1  0  0  0  0
 20 25  1  0  0  0  0
 20 21  2  0  0  0  0
 21 22  1  0  0  0  0
 21 45  1  0  0  0  0
 22 23  2  0  0  0  0
 22 46  1  0  0  0  0
 23 24  1  0  0  0  0
 23 47  1  0  0  0  0
 24 25  2  0  0  0  0
 24 48  1  0  0  0  0
 25 49  1  0  0  0  0
 26 32  1  0  0  0  0
 26 27  1  0  0  0  0
 26 50  1  0  0  0  0
 27 28  1  0  0  0  0
 28 29  2  0  0  0  0
 28 30  2  0  0  0  0
 28 31  1  0  0  0  0
 31 32  1  0  0  0  0
 32 51  1  0  0  0  0
 33 38  1  0  0  0  0
 33 34  2  0  0  0  0
 34 35  1  0  0  0  0
 34 52  1  0  0  0  0
 35 36  2  0  0  0  0
 35 53  1  0  0  0  0
 36 37  1  0  0  0  0
 36 54  1  0  0  0  0
 37 38  2  0  0  0  0
 37 55  1  0  0  0  0
 38 56  1  0  0  0  0
M  CHG  1   3  -1
M  END
> <s_m_source_file>
AV-unprocessed.smi

> <i_m_source_file_index>
1

> <i_lp_mmshare_version>
43012

> <i_f3d_flags>
0

> <s_epik_input>
W2NIXTFbY0hdW2NIXVtjSF1bY0hdYzFDKD1PKVtOSF1jKG5bY0hdbjIpYyhjMjMpbltjSF1uM1tDQEBIXShbQ0BIXShbQ0BIXTQ1KU9TKE81KSg9Tyk9TylPW0NASF00W0NIMl1PQyg9TyljNltjSF1bY0hdW2NIXVtjSF1bY0hdNg==

> <s_epik_cmdline>
J2VwaWtfcHl0aG9uJywgJy1waCcsICc3LjAnLCAnLXRuJywgJzgnLCAnLW1hJywgJzIwMCcsICctbWV0YWxfYmluZGluZycsICctaW1hZScsICc8aW5maWxlLm1hZT4nLCAnLW9tYWUnLCAnPG91dGZpbGUubWFlPic=

> <r_lp_tautomer_probability>
1

> <r_epik_Ionization_Penalty>
4.39121

> <r_epik_Ionization_Penalty_Charging>
3.39398

> <r_epik_Ionization_Penalty_Neutral>
0.997232

> <r_epik_State_Penalty>
3.39839

> <r_epik_Charging_Adjusted_Penalty>
6.79237

> <i_epik_Tot_Q>
-1

> <i_epik_Tot_abs_Q>
1

> <r_epik_Metal_State_Penalty>
0.497663

> <b_epik_Metal_Only>
1

> <s_epik_Chemistry_Notes>
This compound has an ester and may undergo hydrolysis at high or low pH. This compound contains an acetal/aminal-like group ( X-CH(R)-Y where X, Y are N, S, or O) that may be acid/base labile, releasing an aldehyde.

> <s_lp_Force_Field>
OPLS_2005

> <r_lp_Energy>
40.5787

> <b_lp_Chiralities_Consistent>
1

> <s_lp_Variant>
AV-unprocessed.smi:1-23

> <Gold.Version>
5.8.1

> <Gold.Id.Protein>
6NUR|6NUR_protein|mol2

> <Gold.PLP.Fitness>
55.7054

> <Gold.PLP.PLP>
-46.6618

> <Gold.PLP.part.hbond>
-4.3404

> <Gold.PLP.part.metal>
0.0000

> <Gold.PLP.part.buried>
-7.3646

> <Gold.PLP.part.nonpolar>
-34.1621

> <Gold.PLP.part.repulsive>
0.2511

> <Gold.PLP.ligand.clash>
0.0000

> <Gold.PLP.ligand.torsion>
1.3174

> <Gold.PLP.Chemscore.Hbond>
2.6940

> <Gold.PLP.Chemscore.CHOScore>
1.0000

> <Gold.PLP.Chemscore.Metal>
0.0000

> <Gold.Chemscore.Hbonds>
donor molecule, donor type, donor heavy atom, donor atom, acceptor molecule, acceptor atom, score
      P1  H  6896  6908       L1     7  0.70
      P1  H  7997  8009       L1     1  0.99
      P1  H 11000 11005       L1    19  0.86
      L1  C    11    40       P1  7948  1.00

> <Gold.PLP.Chemscore.Internal.Correction>
0.5964

> <Gold.Rescore>
     Score         DG    S(hbond)    S(metal)    S(lipo)     H(rot)  DE(clash)    DE(int)     intcor
     14.71     -18.59       1.97        0.00     102.02       2.11       0.31       3.56       ----

> <Gold.Chemscore.Fitness>
14.7121

> <Gold.Chemscore.DG>
-18.5886

> <Gold.Chemscore.ZeroCoef>
-5.4800

> <Gold.Chemscore.Hbond>
1.9709

> <Gold.Chemscore.Metal>
0.0000

> <Gold.Chemscore.Lipo>
102.0220

> <Gold.Chemscore.Internal_Hbond>
0.0000

> <Gold.Chemscore.DEClash>
0.3143

> <Gold.Chemscore.DEInternal>
3.5623

> <Gold.Chemscore.Rot>
2.1136

> <Gold.Chemscore.Internal.Correction>
   9.000000E+99

> <Gold.Chemscore.Hbonds>
donor molecule, donor type, donor heavy atom, donor atom, acceptor molecule, acceptor atom, score
      P1  H  6896  6908       L1     7  0.07
      P1  H  7997  8009       L1     1  0.79
      P1  H 11000 11005       L1    19  0.81

> <Gold.Chemscore.Hbond.Weighted>
-6.5828

> <Gold.Chemscore.Metal.Weighted>
-0.0000

> <Gold.Chemscore.Lipo.Weighted>
-11.9366

> <Gold.Chemscore.Internal_Hbond.Weighted>
0.0000

> <Gold.Chemscore.DEClash.Weighted>
0.3143

> <Gold.Chemscore.DEInternal.Weighted>
3.5623

> <Gold.Chemscore.Rot.Weighted>
5.4107

> <Gold.Chemscore.Internal.Correction.Weighted>
   9.000000E+99

> <Gold.Protein.RotatedTorsions>
[ 6907 6896 6895 6894 ] final -173.93 input  -60.11 | X-H torsion
[ 7974 7965 7964 7962 ] final   10.35 input  175.53 | X-H torsion
[ 8008 7997 7996 7995 ] final  144.00 input   59.86 | X-H torsion
[ 10167 10162 10161 10158 ] final  127.73 input  -65.29 | X-H torsion
[ 10718 10713 10712 10709 ] final    8.80 input   66.30 | X-H torsion
[ 10763 10752 10751 10750 ] final   35.24 input  -60.55 | X-H torsion
[ 11005 11000 10999 10996 ] final -102.04 input  -57.11 | X-H torsion

> <Gold.Protein.ActiveResidues>
 VAL166  LYS551  ARG553  GLY616  TRP617  ASP618  TYR619  PRO620  LYS621  CYS622 
 ASP623  PHE694  ASN695  SER759  ASP760  ASP761  ALA762  ILE779  LEU786  VAL792 
 PHE793  MET794  SER795  GLU796  ALA797  LYS798  CYS799  TRP800  GLU811  SER814 

> <Gold.Protein.RotatedAtoms>
  151.5642  133.3399  159.2976 H   0  0  0  0  0  0  0  0  0  0  0  0  # atno 6907 bound_to 6896
  150.8405  134.7698  159.6939 H   0  0  0  0  0  0  0  0  0  0  0  0  # atno 6908 bound_to 6896
  152.4473  134.5474  159.9908 H   0  0  0  0  0  0  0  0  0  0  0  0  # atno 6909 bound_to 6896
  146.2390  139.9648  142.8454 H   0  0  0  0  0  0  0  0  0  0  0  0  # atno 7974 bound_to 7965
  156.2918  140.2247  156.4983 H   0  0  0  0  0  0  0  0  0  0  0  0  # atno 8008 bound_to 7997
  154.7712  140.0466  157.1074 H   0  0  0  0  0  0  0  0  0  0  0  0  # atno 8009 bound_to 7997
  154.9872  140.3085  155.4925 H   0  0  0  0  0  0  0  0  0  0  0  0  # atno 8010 bound_to 7997
  139.5563  144.6851  151.4173 H   0  0  0  0  0  0  0  0  0  0  0  0  # atno 10167 bound_to 10162
  156.9570  130.5918  149.5660 H   0  0  0  0  0  0  0  0  0  0  0  0  # atno 10718 bound_to 10713
  153.0128  135.6338  154.1795 H   0  0  0  0  0  0  0  0  0  0  0  0  # atno 10763 bound_to 10752
  154.1536  135.2827  155.3130 H   0  0  0  0  0  0  0  0  0  0  0  0  # atno 10764 bound_to 10752
  154.6035  135.5580  153.7459 H   0  0  0  0  0  0  0  0  0  0  0  0  # atno 10765 bound_to 10752
  141.1206  133.8526  157.1309 H   0  0  0  0  0  0  0  0  0  0  0  0  # atno 11005 bound_to 11000
  145.1737  140.9733  143.4307 LP  0  0  0  0  0  0  0  0  0  0  0  0  # atno 17320 bound_to 7965
  145.0005  139.3603  143.6170 LP  0  0  0  0  0  0  0  0  0  0  0  0  # atno 17321 bound_to 7965
  140.6836  143.8025  150.7155 LP  0  0  0  0  0  0  0  0  0  0  0  0  # atno 17342 bound_to 10162
  140.1486  143.4378  152.2146 LP  0  0  0  0  0  0  0  0  0  0  0  0  # atno 17343 bound_to 10162
  156.0338  130.5427  150.8603 LP  0  0  0  0  0  0  0  0  0  0  0  0  # atno 17370 bound_to 10713
  157.5684  131.0946  150.9455 LP  0  0  0  0  0  0  0  0  0  0  0  0  # atno 17371 bound_to 10713
  140.0160  134.9967  157.0494 LP  0  0  0  0  0  0  0  0  0  0  0  0  # atno 17394 bound_to 11000
  140.4519  134.1573  155.7182 LP  0  0  0  0  0  0  0  0  0  0  0  0  # atno 17395 bound_to 11000

$$$$
