AV-unprocessed.smi:1406|AV-procd|sdf|5721|dock1
  -GOLD-   22720 5353D 1   1.00000     0.00000
 Structure written by MMmdl.
 41 43  0  0  0  0  0  0  0  0  2 V2000
  153.1005  137.5682  160.7211 C   0  0  0  0  0  0  0  0  0  0  0  0
  154.2996  138.2528  160.0348 C   0  0  2  0  0  0  0  0  0  0  0  0
  154.0633  139.7484  159.7674 C   0  0  0  0  0  0  0  0  0  0  0  0
  153.9633  140.1770  158.6171 O   0  0  0  0  0  0  0  0  0  0  0  0
  153.9644  140.5382  160.8487 N   0  0  0  0  0  0  0  0  0  0  0  0
  153.7597  141.9834  160.8081 C   0  0  2  0  0  0  0  0  0  0  0  0
  153.0883  142.5348  162.0593 C   0  0  0  0  0  0  0  0  0  0  0  0
  152.5652  143.8998  161.5987 C   0  0  0  0  0  0  0  0  0  0  0  0
  152.3559  143.8084  160.1323 N   0  3  2  0  0  0  0  0  0  0  0  0
  150.9841  144.1782  159.6903 C   0  0  0  0  0  0  0  0  0  0  0  0
  150.7093  143.6725  158.2664 C   0  0  0  0  0  0  0  0  0  0  0  0
  150.7836  142.1357  158.1909 C   0  0  0  0  0  0  0  0  0  0  0  0
  151.6699  141.5332  159.2982 C   0  0  0  0  0  0  0  0  0  0  0  0
  152.8401  142.4753  159.6742 C   0  0  2  0  0  0  0  0  0  0  0  0
  154.6854  137.5677  158.8073 N   0  0  0  0  0  0  0  0  0  0  0  0
  154.2221  136.4351  158.2743 C   0  0  0  0  0  0  0  0  0  0  0  0
  154.8288  136.0810  157.1502 N   0  0  0  0  0  0  0  0  0  0  0  0
  155.7235  137.1074  157.0407 C   0  0  0  0  0  0  0  0  0  0  0  0
  155.6867  138.0199  158.0116 N   0  0  0  0  0  0  0  0  0  0  0  0
  152.8565  138.0550  161.6660 H   0  0  0  0  0  0  0  0  0  0  0  0
  153.3249  136.5243  160.9417 H   0  0  0  0  0  0  0  0  0  0  0  0
  152.2053  137.5875  160.0979 H   0  0  0  0  0  0  0  0  0  0  0  0
  155.1455  138.1818  160.7206 H   0  0  0  0  0  0  0  0  0  0  0  0
  154.0538  140.1116  161.7594 H   0  0  0  0  0  0  0  0  0  0  0  0
  154.7308  142.4740  160.7103 H   0  0  0  0  0  0  0  0  0  0  0  0
  152.2516  141.8982  162.3516 H   0  0  0  0  0  0  0  0  0  0  0  0
  153.7677  142.6089  162.9090 H   0  0  0  0  0  0  0  0  0  0  0  0
  151.6655  144.1873  162.1444 H   0  0  0  0  0  0  0  0  0  0  0  0
  153.3151  144.6700  161.7822 H   0  0  0  0  0  0  0  0  0  0  0  0
  150.2415  143.7535  160.3681 H   0  0  0  0  0  0  0  0  0  0  0  0
  150.8754  145.2620  159.7416 H   0  0  0  0  0  0  0  0  0  0  0  0
  149.7347  144.0162  157.9184 H   0  0  0  0  0  0  0  0  0  0  0  0
  151.4452  144.1065  157.5879 H   0  0  0  0  0  0  0  0  0  0  0  0
  149.7833  141.7079  158.2674 H   0  0  0  0  0  0  0  0  0  0  0  0
  151.1622  141.8470  157.2097 H   0  0  0  0  0  0  0  0  0  0  0  0
  151.0616  141.3443  160.1838 H   0  0  0  0  0  0  0  0  0  0  0  0
  152.0354  140.5603  158.9689 H   0  0  0  0  0  0  0  0  0  0  0  0
  153.4405  142.6259  158.7756 H   0  0  0  0  0  0  0  0  0  0  0  0
  153.4251  135.8568  158.7179 H   0  0  0  0  0  0  0  0  0  0  0  0
  156.4264  137.1813  156.2238 H   0  0  0  0  0  0  0  0  0  0  0  0
  152.9833  144.4820  159.7162 H   0  0  0  0  0  0  0  0  0  0  0  0
  1  2  1  0  0  0  0
  1 20  1  0  0  0  0
  1 21  1  0  0  0  0
  1 22  1  0  0  0  0
  2  3  1  0  0  0  0
  2 15  1  0  0  0  0
  2 23  1  0  0  0  0
  3  4  2  0  0  0  0
  3  5  1  0  0  0  0
  5  6  1  0  0  0  0
  5 24  1  0  0  0  0
  6 14  1  0  0  0  0
  6  7  1  0  0  0  0
  6 25  1  0  0  0  0
  7  8  1  0  0  0  0
  7 26  1  0  0  0  0
  7 27  1  0  0  0  0
  8  9  1  0  0  0  0
  8 28  1  0  0  0  0
  8 29  1  0  0  0  0
  9 14  1  0  0  0  0
  9 10  1  0  0  0  0
  9 41  1  0  0  0  0
 10 11  1  0  0  0  0
 10 30  1  0  0  0  0
 10 31  1  0  0  0  0
 11 12  1  0  0  0  0
 11 32  1  0  0  0  0
 11 33  1  0  0  0  0
 12 13  1  0  0  0  0
 12 34  1  0  0  0  0
 12 35  1  0  0  0  0
 13 14  1  0  0  0  0
 13 36  1  0  0  0  0
 13 37  1  0  0  0  0
 14 38  1  0  0  0  0
 15 19  1  0  0  0  0
 15 16  1  0  0  0  0
 16 17  2  0  0  0  0
 16 39  1  0  0  0  0
 17 18  1  0  0  0  0
 18 19  2  0  0  0  0
 18 40  1  0  0  0  0
M  CHG  1   9   1
M  END
> <s_m_source_file>
AV-unprocessed.smi

> <i_m_source_file_index>
1406

> <i_lp_mmshare_version>
43012

> <i_f3d_flags>
0

> <s_epik_input>
bjFbY0hdbltjSF1uMVtDQEhdKFtDSDNdKUMoPU8pW05IXVtDQEhdKFtDSDJdW0NIMl0yKVtDQEBIXShOMjMpW0NIMl1bQ0gyXVtDSDJdW0NIMl0z

> <s_epik_cmdline>
J2VwaWtfcHl0aG9uJywgJy1waCcsICc3LjAnLCAnLXRuJywgJzgnLCAnLW1hJywgJzIwMCcsICctbWV0YWxfYmluZGluZycsICctaW1hZScsICc8aW5maWxlLm1hZT4nLCAnLW9tYWUnLCAnPG91dGZpbGUubWFlPic=

> <r_lp_tautomer_probability>
1

> <r_epik_Ionization_Penalty>
0.00197066

> <r_epik_Ionization_Penalty_Charging>
0.00196223

> <r_epik_Ionization_Penalty_Neutral>
8.43107e-06

> <r_epik_State_Penalty>
0.00133866

> <r_epik_Charging_Adjusted_Penalty>
0.00330089

> <i_epik_Tot_Q>
1

> <i_epik_Tot_abs_Q>
1

> <r_epik_Metal_State_Penalty>
-0

> <b_epik_Metal_Only>
0

> <s_lp_Force_Field>
OPLS_2005

> <r_lp_Energy>
46.3739

> <b_lp_Chiralities_Consistent>
1

> <s_lp_Variant>
AV-unprocessed.smi:1406-13

> <Gold.Version>
5.8.1

> <Gold.Id.Protein>
6NUR|6NUR_protein|mol2

> <Gold.PLP.Fitness>
38.3449

> <Gold.PLP.PLP>
-33.5802

> <Gold.PLP.part.hbond>
-3.0000

> <Gold.PLP.part.metal>
0.0000

> <Gold.PLP.part.buried>
-4.5419

> <Gold.PLP.part.nonpolar>
-25.9346

> <Gold.PLP.part.repulsive>
0.0902

> <Gold.PLP.ligand.clash>
0.0000

> <Gold.PLP.ligand.torsion>
0.6568

> <Gold.PLP.Chemscore.Hbond>
1.9920

> <Gold.PLP.Chemscore.CHOScore>
0.0000

> <Gold.PLP.Chemscore.Metal>
0.0000

> <Gold.Chemscore.Hbonds>
donor molecule, donor type, donor heavy atom, donor atom, acceptor molecule, acceptor atom, score
      P1  H  7997  8009       L1     4  0.91
      P1  H 10752 10763       L1    17  0.94

> <Gold.PLP.Chemscore.Internal.Correction>
0.1022

> <Gold.Rescore>
     Score         DG    S(hbond)    S(metal)    S(lipo)     H(rot)  DE(clash)    DE(int)     intcor
     14.54     -18.59       1.95        0.00      97.59       1.89       0.04       4.01       ----

> <Gold.Chemscore.Fitness>
14.5413

> <Gold.Chemscore.DG>
-18.5886

> <Gold.Chemscore.ZeroCoef>
-5.4800

> <Gold.Chemscore.Hbond>
1.9520

> <Gold.Chemscore.Metal>
0.0000

> <Gold.Chemscore.Lipo>
97.5930

> <Gold.Chemscore.Internal_Hbond>
0.0000

> <Gold.Chemscore.DEClash>
0.0416

> <Gold.Chemscore.DEInternal>
4.0057

> <Gold.Chemscore.Rot>
1.8865

> <Gold.Chemscore.Internal.Correction>
   9.000000E+99

> <Gold.Chemscore.Hbonds>
donor molecule, donor type, donor heavy atom, donor atom, acceptor molecule, acceptor atom, score
      P1  H  7997  8009       L1     4  0.89
      P1  H 10752 10763       L1    17  0.74

> <Gold.Chemscore.Hbond.Weighted>
-6.5197

> <Gold.Chemscore.Metal.Weighted>
-0.0000

> <Gold.Chemscore.Lipo.Weighted>
-11.4184

> <Gold.Chemscore.Internal_Hbond.Weighted>
0.0000

> <Gold.Chemscore.DEClash.Weighted>
0.0416

> <Gold.Chemscore.DEInternal.Weighted>
4.0057

> <Gold.Chemscore.Rot.Weighted>
4.8295

> <Gold.Chemscore.Internal.Correction.Weighted>
   9.000000E+99

> <Gold.Protein.RotatedTorsions>
[ 6907 6896 6895 6894 ] final  -32.93 input  -60.11 | X-H torsion
[ 7974 7965 7964 7962 ] final  146.05 input  175.53 | X-H torsion
[ 8008 7997 7996 7995 ] final  143.26 input   59.86 | X-H torsion
[ 10167 10162 10161 10158 ] final -107.30 input  -65.29 | X-H torsion
[ 10718 10713 10712 10709 ] final    2.63 input   66.30 | X-H torsion
[ 10763 10752 10751 10750 ] final  164.45 input  -60.55 | X-H torsion
[ 11005 11000 10999 10996 ] final  131.53 input  -57.11 | X-H torsion

> <Gold.Protein.ActiveResidues>
 VAL166  LYS551  ARG553  GLY616  TRP617  ASP618  TYR619  PRO620  LYS621  CYS622 
 ASP623  PHE694  ASN695  SER759  ASP760  ASP761  ALA762  ILE779  LEU786  VAL792 
 PHE793  MET794  SER795  GLU796  ALA797  LYS798  CYS799  TRP800  GLU811  SER814 

> <Gold.Protein.RotatedAtoms>
  151.0723  134.9806  159.8314 H   0  0  0  0  0  0  0  0  0  0  0  0  # atno 6907 bound_to 6896
  152.5410  134.2283  159.8825 H   0  0  0  0  0  0  0  0  0  0  0  0  # atno 6908 bound_to 6896
  151.2309  133.4407  159.2637 H   0  0  0  0  0  0  0  0  0  0  0  0  # atno 6909 bound_to 6896
  144.8702  139.5858  143.5890 H   0  0  0  0  0  0  0  0  0  0  0  0  # atno 7974 bound_to 7965
  156.2934  140.2267  156.4861 H   0  0  0  0  0  0  0  0  0  0  0  0  # atno 8008 bound_to 7997
  154.7811  140.0460  157.1149 H   0  0  0  0  0  0  0  0  0  0  0  0  # atno 8009 bound_to 7997
  154.9758  140.3072  155.4971 H   0  0  0  0  0  0  0  0  0  0  0  0  # atno 8010 bound_to 7997
  140.1784  143.3986  152.1300 H   0  0  0  0  0  0  0  0  0  0  0  0  # atno 10167 bound_to 10162
  156.8659  130.5603  149.5660 H   0  0  0  0  0  0  0  0  0  0  0  0  # atno 10718 bound_to 10713
  154.3092  135.2757  155.2574 H   0  0  0  0  0  0  0  0  0  0  0  0  # atno 10763 bound_to 10752
  154.4977  135.5816  153.6510 H   0  0  0  0  0  0  0  0  0  0  0  0  # atno 10764 bound_to 10752
  152.9890  135.6150  154.3268 H   0  0  0  0  0  0  0  0  0  0  0  0  # atno 10765 bound_to 10752
  139.9736  134.9570  156.9452 H   0  0  0  0  0  0  0  0  0  0  0  0  # atno 11005 bound_to 11000
  146.2925  139.7180  142.9151 LP  0  0  0  0  0  0  0  0  0  0  0  0  # atno 17320 bound_to 7965
  145.4145  141.0400  143.2998 LP  0  0  0  0  0  0  0  0  0  0  0  0  # atno 17321 bound_to 7965
  139.5307  144.7155  151.5068 LP  0  0  0  0  0  0  0  0  0  0  0  0  # atno 17342 bound_to 10162
  140.6536  143.8646  150.6811 LP  0  0  0  0  0  0  0  0  0  0  0  0  # atno 17343 bound_to 10162
  156.0752  130.5776  150.9460 LP  0  0  0  0  0  0  0  0  0  0  0  0  # atno 17370 bound_to 10713
  157.6224  131.0928  150.8598 LP  0  0  0  0  0  0  0  0  0  0  0  0  # atno 17371 bound_to 10713
  140.5242  134.0878  155.7299 LP  0  0  0  0  0  0  0  0  0  0  0  0  # atno 17394 bound_to 11000
  141.1414  133.9131  157.2316 LP  0  0  0  0  0  0  0  0  0  0  0  0  # atno 17395 bound_to 11000

$$$$
