AV-unprocessed.smi:1769|AV-procd|sdf|7152|dock1
  -GOLD-   22720 8393D 1   1.00000     0.00000
 Structure written by MMmdl.
 41 42  0  0  0  0  0  0  0  0  1 V2000
  151.6773  137.6163  155.1590 C   0  0  0  0  0  0  0  0  0  0  0  0
  151.4454  139.1255  155.2621 C   0  0  0  0  0  0  0  0  0  0  0  0
  152.4239  139.8682  155.1781 O   0  0  0  0  0  0  0  0  0  0  0  0
  150.1862  139.5912  155.4442 N   0  0  0  0  0  0  0  0  0  0  0  0
  149.7996  141.0076  155.4771 C   0  0  0  0  0  0  0  0  0  0  0  0
  149.0227  141.3371  154.1896 C   0  0  0  0  0  0  0  0  0  0  0  0
  147.8081  140.4030  154.0232 C   0  0  0  0  0  0  0  0  0  0  0  0
  148.2058  138.9149  154.1697 C   0  0  2  0  0  0  0  0  0  0  0  0
  146.9785  137.9957  154.1481 C   0  0  0  0  0  0  0  0  0  0  0  0
  146.0914  138.1256  154.9922 O   0  0  0  0  0  0  0  0  0  0  0  0
  146.9560  137.0531  153.1918 N   0  0  0  0  0  0  0  0  0  0  0  0
  145.9380  136.0152  153.0463 C   0  0  0  0  0  0  0  0  0  0  0  0
  145.2875  136.0324  151.6491 C   0  0  0  0  0  0  0  0  0  0  0  0
  145.2397  134.6679  150.9832 C   0  0  0  0  0  0  0  0  0  0  0  0
  146.4090  133.8955  150.8233 C   0  0  0  0  0  0  0  0  0  0  0  0
  146.3057  132.6226  150.2309 C   0  0  0  0  0  0  0  0  0  0  0  0
  145.0345  132.1773  149.8169 C   0  0  0  0  0  0  0  0  0  0  0  0
  143.9094  132.9105  149.9583 N   0  0  0  0  0  0  0  0  0  0  0  0
  144.0168  134.1286  150.5312 C   0  0  0  0  0  0  0  0  0  0  0  0
  149.0127  138.7100  155.4716 C   0  0  0  0  0  0  0  0  0  0  0  0
  151.3278  137.1083  156.0584 H   0  0  0  0  0  0  0  0  0  0  0  0
  152.7396  137.3970  155.0460 H   0  0  0  0  0  0  0  0  0  0  0  0
  151.1583  137.2041  154.2934 H   0  0  0  0  0  0  0  0  0  0  0  0
  149.1675  141.1848  156.3483 H   0  0  0  0  0  0  0  0  0  0  0  0
  150.6421  141.6888  155.5877 H   0  0  0  0  0  0  0  0  0  0  0  0
  148.6938  142.3764  154.2053 H   0  0  0  0  0  0  0  0  0  0  0  0
  149.6847  141.2340  153.3289 H   0  0  0  0  0  0  0  0  0  0  0  0
  147.0628  140.6650  154.7760 H   0  0  0  0  0  0  0  0  0  0  0  0
  147.3388  140.5760  153.0539 H   0  0  0  0  0  0  0  0  0  0  0  0
  148.8474  138.6518  153.3263 H   0  0  0  0  0  0  0  0  0  0  0  0
  147.7291  137.0232  152.5429 H   0  0  0  0  0  0  0  0  0  0  0  0
  146.3598  135.0295  153.2502 H   0  0  0  0  0  0  0  0  0  0  0  0
  145.1739  136.1787  153.8064 H   0  0  0  0  0  0  0  0  0  0  0  0
  144.2712  136.4208  151.7239 H   0  0  0  0  0  0  0  0  0  0  0  0
  145.8278  136.7240  151.0016 H   0  0  0  0  0  0  0  0  0  0  0  0
  147.3664  134.2634  151.1620 H   0  0  0  0  0  0  0  0  0  0  0  0
  147.1791  132.0006  150.1014 H   0  0  0  0  0  0  0  0  0  0  0  0
  144.9185  131.2057  149.3600 H   0  0  0  0  0  0  0  0  0  0  0  0
  143.0982  134.6863  150.6398 H   0  0  0  0  0  0  0  0  0  0  0  0
  149.2845  137.6599  155.5884 H   0  0  0  0  0  0  0  0  0  0  0  0
  148.4038  138.9529  156.3441 H   0  0  0  0  0  0  0  0  0  0  0  0
  1  2  1  0  0  0  0
  1 21  1  0  0  0  0
  1 22  1  0  0  0  0
  1 23  1  0  0  0  0
  2  3  2  0  0  0  0
  2  4  1  0  0  0  0
  4 20  1  0  0  0  0
  4  5  1  0  0  0  0
  5  6  1  0  0  0  0
  5 24  1  0  0  0  0
  5 25  1  0  0  0  0
  6  7  1  0  0  0  0
  6 26  1  0  0  0  0
  6 27  1  0  0  0  0
  7  8  1  0  0  0  0
  7 28  1  0  0  0  0
  7 29  1  0  0  0  0
  8  9  1  0  0  0  0
  8 20  1  0  0  0  0
  8 30  1  0  0  0  0
  9 10  2  0  0  0  0
  9 11  1  0  0  0  0
 11 12  1  0  0  0  0
 11 31  1  0  0  0  0
 12 13  1  0  0  0  0
 12 32  1  0  0  0  0
 12 33  1  0  0  0  0
 13 14  1  0  0  0  0
 13 34  1  0  0  0  0
 13 35  1  0  0  0  0
 14 19  1  0  0  0  0
 14 15  2  0  0  0  0
 15 16  1  0  0  0  0
 15 36  1  0  0  0  0
 16 17  2  0  0  0  0
 16 37  1  0  0  0  0
 17 18  1  0  0  0  0
 17 38  1  0  0  0  0
 18 19  2  0  0  0  0
 19 39  1  0  0  0  0
 20 40  1  0  0  0  0
 20 41  1  0  0  0  0
M  END
> <s_m_source_file>
AV-unprocessed.smi

> <i_m_source_file_index>
1769

> <i_lp_mmshare_version>
43012

> <i_f3d_flags>
0

> <s_epik_input>
W0NIM11DKD1PKU4xW0NIMl1bQ0gyXVtDSDJdW0NASF0oW0NIMl0xKUMoPU8pW05IXVtDSDJdW0NIMl1jMltjSF1bY0hdW2NIXW5bY0hdMg==

> <s_epik_cmdline>
J2VwaWtfcHl0aG9uJywgJy1waCcsICc3LjAnLCAnLXRuJywgJzgnLCAnLW1hJywgJzIwMCcsICctbWV0YWxfYmluZGluZycsICctaW1hZScsICc8aW5maWxlLm1hZT4nLCAnLW9tYWUnLCAnPG91dGZpbGUubWFlPic=

> <r_epik_Ionization_Penalty>
0.0134099

> <r_epik_Ionization_Penalty_Charging>
0

> <r_epik_Ionization_Penalty_Neutral>
0.0134099

> <r_epik_State_Penalty>
0.010434

> <r_epik_Charging_Adjusted_Penalty>
0.010434

> <i_epik_Tot_Q>
0

> <i_epik_Tot_abs_Q>
0

> <r_epik_Metal_State_Penalty>
0.0102025

> <b_epik_Metal_Only>
0

> <s_lp_Force_Field>
OPLS_2005

> <r_lp_Energy>
22.8084

> <b_lp_Chiralities_Consistent>
1

> <s_lp_Variant>
AV-unprocessed.smi:1769-2

> <Gold.Version>
5.8.1

> <Gold.Id.Protein>
6NUR|6NUR_protein|mol2

> <Gold.PLP.Fitness>
43.1492

> <Gold.PLP.PLP>
-34.7252

> <Gold.PLP.part.hbond>
-2.4248

> <Gold.PLP.part.metal>
0.0000

> <Gold.PLP.part.buried>
-1.5624

> <Gold.PLP.part.nonpolar>
-30.9492

> <Gold.PLP.part.repulsive>
0.3084

> <Gold.PLP.ligand.clash>
0.0000

> <Gold.PLP.ligand.torsion>
0.4079

> <Gold.PLP.Chemscore.Hbond>
2.0697

> <Gold.PLP.Chemscore.CHOScore>
0.9987

> <Gold.PLP.Chemscore.Metal>
0.0000

> <Gold.Chemscore.Hbonds>
donor molecule, donor type, donor heavy atom, donor atom, acceptor molecule, acceptor atom, score
      L1  H    11    31       P1  7948  1.00
      P1  H  7989  7998       L1     3  0.40
      P1  H  7997  8010       L1     3  0.67
      L1  C    19    39       P1 10186  1.00

> <Gold.PLP.Chemscore.Internal.Correction>
0.0346

> <Gold.Rescore>
     Score         DG    S(hbond)    S(metal)    S(lipo)     H(rot)  DE(clash)    DE(int)     intcor
     16.93     -17.35       1.87        0.00      81.31       1.52       0.01       0.40       ----

> <Gold.Chemscore.Fitness>
16.9328

> <Gold.Chemscore.DG>
-17.3472

> <Gold.Chemscore.ZeroCoef>
-5.4800

> <Gold.Chemscore.Hbond>
1.8703

> <Gold.Chemscore.Metal>
0.0000

> <Gold.Chemscore.Lipo>
81.3084

> <Gold.Chemscore.Internal_Hbond>
0.0000

> <Gold.Chemscore.DEClash>
0.0098

> <Gold.Chemscore.DEInternal>
0.4046

> <Gold.Chemscore.Rot>
1.5205

> <Gold.Chemscore.Internal.Correction>
   9.000000E+99

> <Gold.Chemscore.Hbonds>
donor molecule, donor type, donor heavy atom, donor atom, acceptor molecule, acceptor atom, score
      L1  H    11    31       P1  7948  0.94
      P1  H  7989  7998       L1     3  0.04
      P1  H  7997  8010       L1     3  0.67

> <Gold.Chemscore.Hbond.Weighted>
-6.2467

> <Gold.Chemscore.Metal.Weighted>
-0.0000

> <Gold.Chemscore.Lipo.Weighted>
-9.5131

> <Gold.Chemscore.Internal_Hbond.Weighted>
0.0000

> <Gold.Chemscore.DEClash.Weighted>
0.0098

> <Gold.Chemscore.DEInternal.Weighted>
0.4046

> <Gold.Chemscore.Rot.Weighted>
3.8926

> <Gold.Chemscore.Internal.Correction.Weighted>
   9.000000E+99

> <Gold.Protein.RotatedTorsions>
[ 6907 6896 6895 6894 ] final   96.10 input  -60.11 | X-H torsion
[ 7974 7965 7964 7962 ] final   31.27 input  175.53 | X-H torsion
[ 8008 7997 7996 7995 ] final  101.50 input   59.86 | X-H torsion
[ 10167 10162 10161 10158 ] final   48.28 input  -65.29 | X-H torsion
[ 10718 10713 10712 10709 ] final   14.23 input   66.30 | X-H torsion
[ 10763 10752 10751 10750 ] final -115.67 input  -60.55 | X-H torsion
[ 11005 11000 10999 10996 ] final  120.49 input  -57.11 | X-H torsion

> <Gold.Protein.ActiveResidues>
 VAL166  LYS551  ARG553  GLY616  TRP617  ASP618  TYR619  PRO620  LYS621  CYS622 
 ASP623  PHE694  ASN695  SER759  ASP760  ASP761  ALA762  ILE779  LEU786  VAL792 
 PHE793  MET794  SER795  GLU796  ALA797  LYS798  CYS799  TRP800  GLU811  SER814 

> <Gold.Protein.RotatedAtoms>
  152.5438  134.0939  159.8288 H   0  0  0  0  0  0  0  0  0  0  0  0  # atno 6907 bound_to 6896
  151.1025  133.5225  159.2616 H   0  0  0  0  0  0  0  0  0  0  0  0  # atno 6908 bound_to 6896
  151.1975  135.0438  159.8913 H   0  0  0  0  0  0  0  0  0  0  0  0  # atno 6909 bound_to 6896
  146.1561  139.6679  142.9066 H   0  0  0  0  0  0  0  0  0  0  0  0  # atno 7974 bound_to 7965
  156.1305  140.3196  155.8341 H   0  0  0  0  0  0  0  0  0  0  0  0  # atno 8008 bound_to 7997
  155.4341  140.0521  157.3033 H   0  0  0  0  0  0  0  0  0  0  0  0  # atno 8009 bound_to 7997
  154.4895  140.2086  155.9592 H   0  0  0  0  0  0  0  0  0  0  0  0  # atno 8010 bound_to 7997
  140.2949  144.3002  150.6232 H   0  0  0  0  0  0  0  0  0  0  0  0  # atno 10167 bound_to 10162
  157.0360  130.6212  149.5743 H   0  0  0  0  0  0  0  0  0  0  0  0  # atno 10718 bound_to 10713
  154.8490  135.4373  154.1699 H   0  0  0  0  0  0  0  0  0  0  0  0  # atno 10763 bound_to 10752
  153.2815  135.6954  153.7387 H   0  0  0  0  0  0  0  0  0  0  0  0  # atno 10764 bound_to 10752
  153.6589  135.3438  155.3096 H   0  0  0  0  0  0  0  0  0  0  0  0  # atno 10765 bound_to 10752
  139.9187  134.9635  156.7814 H   0  0  0  0  0  0  0  0  0  0  0  0  # atno 11005 bound_to 11000
  145.4706  141.0436  143.2701 LP  0  0  0  0  0  0  0  0  0  0  0  0  # atno 17320 bound_to 7965
  144.7965  139.6225  143.7090 LP  0  0  0  0  0  0  0  0  0  0  0  0  # atno 17321 bound_to 7965
  140.5700  143.2182  151.7615 LP  0  0  0  0  0  0  0  0  0  0  0  0  # atno 17342 bound_to 10162
  139.4929  144.4229  151.9957 LP  0  0  0  0  0  0  0  0  0  0  0  0  # atno 17343 bound_to 10162
  156.0053  130.5139  150.7809 LP  0  0  0  0  0  0  0  0  0  0  0  0  # atno 17370 bound_to 10713
  157.5141  131.0927  151.0162 LP  0  0  0  0  0  0  0  0  0  0  0  0  # atno 17371 bound_to 10713
  140.6541  133.9705  155.7770 LP  0  0  0  0  0  0  0  0  0  0  0  0  # atno 17394 bound_to 11000
  141.0688  134.0236  157.3556 LP  0  0  0  0  0  0  0  0  0  0  0  0  # atno 17395 bound_to 11000

$$$$
