AV-unprocessed.smi:157|AV-procd|sdf|1318|dock4
  -GOLD-   2262019 13D 1   1.00000     0.00000
 Structure written by MMmdl.
 36 38  0  0  0  0  0  0  0  0  2 V2000
  142.6003  132.1961  148.5741 O   0  0  0  0  0  0  0  0  0  0  0  0
  143.8702  132.7830  148.7642 C   0  0  0  0  0  0  0  0  0  0  0  0
  144.3208  132.6141  150.2231 C   0  0  2  0  0  0  0  0  0  0  0  0
  143.7205  133.6450  151.0048 O   0  0  0  0  0  0  0  0  0  0  0  0
  144.6124  133.9867  152.0104 C   0  0  2  0  0  0  0  0  0  0  0  0
  144.2818  135.3531  152.5120 N   0  0  0  0  0  0  0  0  0  0  0  0
  144.3021  136.4976  151.7969 C   0  0  0  0  0  0  0  0  0  0  0  0
  143.9738  137.5767  152.4873 N   0  3  0  0  0  0  0  0  0  0  0  0
  143.7108  137.1532  153.7731 C   0  0  0  0  0  0  0  0  0  0  0  0
  143.9195  135.7716  153.7711 C   0  0  0  0  0  0  0  0  0  0  0  0
  143.8107  134.8435  154.8178 N   0  0  0  0  0  0  0  0  0  0  0  0
  143.7692  135.1904  156.0630 C   0  0  0  0  0  0  0  0  0  0  0  0
  143.7272  136.4600  156.6148 N   0  0  0  0  0  0  0  0  0  0  0  0
  142.8363  137.5025  156.1366 C   0  0  0  0  0  0  0  0  0  0  0  0
  143.2861  138.1403  154.8155 C   0  0  1  0  0  0  0  0  0  0  0  0
  144.2862  139.0983  155.0945 O   0  0  0  0  0  0  0  0  0  0  0  0
  145.9803  133.9680  151.3481 C   0  0  0  0  0  0  0  0  0  0  0  0
  145.8457  132.7614  150.4335 C   0  0  1  0  0  0  0  0  0  0  0  0
  146.3652  131.6124  151.0728 O   0  0  0  0  0  0  0  0  0  0  0  0
  143.9647  131.6580  150.6120 H   0  0  0  0  0  0  0  0  0  0  0  0
  144.5215  133.3130  152.8641 H   0  0  0  0  0  0  0  0  0  0  0  0
  142.4398  138.6991  154.4147 H   0  0  0  0  0  0  0  0  0  0  0  0
  146.3868  132.9172  149.4995 H   0  0  0  0  0  0  0  0  0  0  0  0
  141.9383  132.8528  148.7297 H   0  0  0  0  0  0  0  0  0  0  0  0
  144.5900  132.3359  148.0779 H   0  0  0  0  0  0  0  0  0  0  0  0
  143.7983  133.8418  148.5139 H   0  0  0  0  0  0  0  0  0  0  0  0
  144.5625  136.5244  150.7538 H   0  0  0  0  0  0  0  0  0  0  0  0
  143.7568  134.4120  156.8274 H   0  0  0  0  0  0  0  0  0  0  0  0
  143.9230  136.5647  157.6001 H   0  0  0  0  0  0  0  0  0  0  0  0
  141.8536  137.0500  155.9938 H   0  0  0  0  0  0  0  0  0  0  0  0
  142.7099  138.2609  156.9100 H   0  0  0  0  0  0  0  0  0  0  0  0
  144.3867  139.6612  154.3423 H   0  0  0  0  0  0  0  0  0  0  0  0
  146.1076  134.8765  150.7573 H   0  0  0  0  0  0  0  0  0  0  0  0
  146.7833  133.9022  152.0837 H   0  0  0  0  0  0  0  0  0  0  0  0
  147.0628  131.2623  150.5394 H   0  0  0  0  0  0  0  0  0  0  0  0
  143.9227  138.5239  152.1344 H   0  0  0  0  0  0  0  0  0  0  0  0
  1  2  1  0  0  0  0
  1 24  1  0  0  0  0
  2  3  1  0  0  0  0
  2 25  1  0  0  0  0
  2 26  1  0  0  0  0
  3 20  1  0  0  0  0
  3 18  1  0  0  0  0
  3  4  1  0  0  0  0
  4  5  1  0  0  0  0
  5 21  1  0  0  0  0
  5  6  1  0  0  0  0
  5 17  1  0  0  0  0
  6 10  1  0  0  0  0
  6  7  1  0  0  0  0
  7  8  2  0  0  0  0
  7 27  1  0  0  0  0
  8  9  1  0  0  0  0
  8 36  1  0  0  0  0
  9 15  1  0  0  0  0
  9 10  2  0  0  0  0
 10 11  1  0  0  0  0
 11 12  2  0  0  0  0
 12 13  1  0  0  0  0
 12 28  1  0  0  0  0
 13 14  1  0  0  0  0
 13 29  1  0  0  0  0
 14 15  1  0  0  0  0
 14 30  1  0  0  0  0
 14 31  1  0  0  0  0
 15 22  1  0  0  0  0
 15 16  1  0  0  0  0
 16 32  1  0  0  0  0
 17 18  1  0  0  0  0
 17 33  1  0  0  0  0
 17 34  1  0  0  0  0
 18 23  1  0  0  0  0
 18 19  1  0  0  0  0
 19 35  1  0  0  0  0
M  CHG  1   8   1
M  END
> <s_m_source_file>
AV-unprocessed.smi

> <i_m_source_file_index>
157

> <i_lp_mmshare_version>
43012

> <i_f3d_flags>
0

> <s_epik_input>
W09IXVtDSDJdW0NASF0xT1tDQEhdKFtDSDJdW0NAQEhdMVtPSF0pbihbY0hdbjIpYyhjMjMpTj1bQ0hdW05IXVtDSDJdW0NASF0zW09IXQ==

> <s_epik_cmdline>
J2VwaWtfcHl0aG9uJywgJy1waCcsICc3LjAnLCAnLXRuJywgJzgnLCAnLW1hJywgJzIwMCcsICctbWV0YWxfYmluZGluZycsICctaW1hZScsICc8aW5maWxlLm1hZT4nLCAnLW9tYWUnLCAnPG91dGZpbGUubWFlPic=

> <r_epik_Ionization_Penalty>
1.68594

> <r_epik_Ionization_Penalty_Charging>
0

> <r_epik_Ionization_Penalty_Neutral>
1.68594

> <r_epik_State_Penalty>
1.79006

> <r_epik_Charging_Adjusted_Penalty>
1.79006

> <i_epik_Tot_Q>
1

> <i_epik_Tot_abs_Q>
1

> <r_epik_Metal_State_Penalty>
5.85324

> <b_epik_Metal_Only>
0

> <s_epik_Chemistry_Notes>
This compound has an imine and may undergo hydrolysis. This compound contains an acetal/aminal-like group ( X-CH(R)-Y where X, Y are N, S, or O) that may be acid/base labile, releasing an aldehyde.

> <s_lp_Force_Field>
OPLS_2005

> <r_lp_Energy>
52.5204

> <b_lp_Chiralities_Consistent>
1

> <s_lp_Variant>
AV-unprocessed.smi:157-28

> <Gold.Version>
5.8.1

> <Gold.Id.Protein>
6NUR|6NUR_protein|mol2

> <Gold.PLP.Fitness>
47.4593

> <Gold.PLP.PLP>
-28.2993

> <Gold.PLP.part.hbond>
-7.0000

> <Gold.PLP.part.metal>
0.0000

> <Gold.PLP.part.buried>
-4.8328

> <Gold.PLP.part.nonpolar>
-16.9155

> <Gold.PLP.part.repulsive>
0.3232

> <Gold.PLP.ligand.clash>
0.0000

> <Gold.PLP.ligand.torsion>
0.2472

> <Gold.PLP.Chemscore.Hbond>
5.9270

> <Gold.PLP.Chemscore.CHOScore>
0.6155

> <Gold.PLP.Chemscore.Metal>
0.0000

> <Gold.Chemscore.Hbonds>
donor molecule, donor type, donor heavy atom, donor atom, acceptor molecule, acceptor atom, score
      L1  H     1    24       P1 10186  1.00
      L1  H     8    36       P1 10175  2.00
      L1  H    16    32       P1 10175  0.71
      L1  H    19    35       P1 10747  1.00
      P1  H 10785 10796       L1     1  0.64
      L1  C     7    27       P1 10171  0.60

> <Gold.PLP.Chemscore.Internal.Correction>
0.0270

> <Gold.Rescore>
     Score         DG    S(hbond)    S(metal)    S(lipo)     H(rot)  DE(clash)    DE(int)     intcor
     14.17     -15.71       4.57        0.00      37.23       3.67       1.26       0.28       ----

> <Gold.Chemscore.Fitness>
14.1744

> <Gold.Chemscore.DG>
-15.7115

> <Gold.Chemscore.ZeroCoef>
-5.4800

> <Gold.Chemscore.Hbond>
4.5691

> <Gold.Chemscore.Metal>
0.0000

> <Gold.Chemscore.Lipo>
37.2253

> <Gold.Chemscore.Internal_Hbond>
0.0000

> <Gold.Chemscore.DEClash>
1.2554

> <Gold.Chemscore.DEInternal>
0.2817

> <Gold.Chemscore.Rot>
3.6659

> <Gold.Chemscore.Internal.Correction>
   9.000000E+99

> <Gold.Chemscore.Hbonds>
donor molecule, donor type, donor heavy atom, donor atom, acceptor molecule, acceptor atom, score
      L1  H     1    24       P1 10186  0.98
      L1  H     8    36       P1 10175  0.93
      L1  H    16    32       P1 10175  0.68
      L1  H    19    35       P1 10747  0.94
      P1  H 10785 10796       L1     1  0.12

> <Gold.Chemscore.Hbond.Weighted>
-15.2609

> <Gold.Chemscore.Metal.Weighted>
-0.0000

> <Gold.Chemscore.Lipo.Weighted>
-4.3554

> <Gold.Chemscore.Internal_Hbond.Weighted>
0.0000

> <Gold.Chemscore.DEClash.Weighted>
1.2554

> <Gold.Chemscore.DEInternal.Weighted>
0.2817

> <Gold.Chemscore.Rot.Weighted>
9.3848

> <Gold.Chemscore.Internal.Correction.Weighted>
   9.000000E+99

> <Gold.Protein.RotatedTorsions>
[ 6907 6896 6895 6894 ] final -117.06 input  -60.11 | X-H torsion
[ 7974 7965 7964 7962 ] final   33.63 input  175.53 | X-H torsion
[ 8008 7997 7996 7995 ] final  -70.17 input   59.86 | X-H torsion
[ 10167 10162 10161 10158 ] final  -34.06 input  -65.29 | X-H torsion
[ 10718 10713 10712 10709 ] final -157.68 input   66.30 | X-H torsion
[ 10763 10752 10751 10750 ] final   91.16 input  -60.55 | X-H torsion
[ 11005 11000 10999 10996 ] final  150.57 input  -57.11 | X-H torsion

> <Gold.Protein.ActiveResidues>
 VAL166  LYS551  ARG553  GLY616  TRP617  ASP618  TYR619  PRO620  LYS621  CYS622 
 ASP623  PHE694  ASN695  SER759  ASP760  ASP761  ALA762  ILE779  LEU786  VAL792 
 PHE793  MET794  SER795  GLU796  ALA797  LYS798  CYS799  TRP800  GLU811  SER814 

> <Gold.Protein.RotatedAtoms>
  150.8106  133.8429  159.3184 H   0  0  0  0  0  0  0  0  0  0  0  0  # atno 6907 bound_to 6896
  151.6216  135.1030  160.0112 H   0  0  0  0  0  0  0  0  0  0  0  0  # atno 6908 bound_to 6896
  152.4198  133.7057  159.6506 H   0  0  0  0  0  0  0  0  0  0  0  0  # atno 6909 bound_to 6896
  146.1408  139.6372  142.9164 H   0  0  0  0  0  0  0  0  0  0  0  0  # atno 7974 bound_to 7965
  154.4992  140.0839  156.7762 H   0  0  0  0  0  0  0  0  0  0  0  0  # atno 8008 bound_to 7997
  155.4042  140.3438  155.4241 H   0  0  0  0  0  0  0  0  0  0  0  0  # atno 8009 bound_to 7997
  156.1435  140.1536  156.8872 H   0  0  0  0  0  0  0  0  0  0  0  0  # atno 8010 bound_to 7997
  140.7193  143.3575  151.2029 H   0  0  0  0  0  0  0  0  0  0  0  0  # atno 10167 bound_to 10162
  156.5436  130.8574  151.2757 H   0  0  0  0  0  0  0  0  0  0  0  0  # atno 10718 bound_to 10713
  153.2052  135.4408  155.0314 H   0  0  0  0  0  0  0  0  0  0  0  0  # atno 10763 bound_to 10752
  154.8170  135.3319  154.7151 H   0  0  0  0  0  0  0  0  0  0  0  0  # atno 10764 bound_to 10752
  153.7593  135.6992  153.4984 H   0  0  0  0  0  0  0  0  0  0  0  0  # atno 10765 bound_to 10752
  140.1143  134.8904  157.1981 H   0  0  0  0  0  0  0  0  0  0  0  0  # atno 11005 bound_to 11000
  145.5052  141.0437  143.2518 LP  0  0  0  0  0  0  0  0  0  0  0  0  # atno 17320 bound_to 7965
  144.7790  139.6567  143.7162 LP  0  0  0  0  0  0  0  0  0  0  0  0  # atno 17321 bound_to 7965
  139.7120  143.9361  152.2951 LP  0  0  0  0  0  0  0  0  0  0  0  0  # atno 17342 bound_to 10162
  139.9089  144.6868  150.8583 LP  0  0  0  0  0  0  0  0  0  0  0  0  # atno 17343 bound_to 10162
  157.7401  130.9843  150.2353 LP  0  0  0  0  0  0  0  0  0  0  0  0  # atno 17370 bound_to 10713
  156.2948  130.3750  149.7806 LP  0  0  0  0  0  0  0  0  0  0  0  0  # atno 17371 bound_to 10713
  140.3049  134.3089  155.7280 LP  0  0  0  0  0  0  0  0  0  0  0  0  # atno 17394 bound_to 11000
  141.2137  133.7615  156.9694 LP  0  0  0  0  0  0  0  0  0  0  0  0  # atno 17395 bound_to 11000

$$$$
