AV-unprocessed.smi:2693|AV-procd|sdf|10399|dock1
  -GOLD-   2272014433D 1   1.00000     0.00000
 Structure written by MMmdl.
 45 47  0  0  0  0  0  0  0  0  1 V2000
  155.4430  143.8893  167.4144 C   0  0  0  0  0  0  0  0  0  0  0  0
  155.5184  142.5726  166.7880 N   0  0  0  0  0  0  0  0  0  0  0  0
  156.0985  141.4833  167.5687 C   0  0  0  0  0  0  0  0  0  0  0  0
  155.0721  142.3667  165.4791 C   0  0  0  0  0  0  0  0  0  0  0  0
  154.1695  143.2281  164.9926 N   0  0  0  0  0  0  0  0  0  0  0  0
  153.7322  143.0370  163.7298 C   0  0  0  0  0  0  0  0  0  0  0  0
  154.2068  141.9674  162.9329 C   0  0  0  0  0  0  0  0  0  0  0  0
  153.7945  141.6826  161.6028 N   0  0  0  0  0  0  0  0  0  0  0  0
  152.6272  141.9734  161.0038 C   0  0  0  0  0  0  0  0  0  0  0  0
  151.6847  142.5683  161.5248 O   0  0  0  0  0  0  0  0  0  0  0  0
  152.6153  141.5446  159.7349 N   0  0  0  0  0  0  0  0  0  0  0  0
  151.4918  141.7155  158.8191 C   0  0  2  0  0  0  0  0  0  0  0  0
  151.8189  141.2493  157.3920 C   0  0  1  0  0  0  0  0  0  0  0  0
  151.0918  140.0709  156.8031 C   0  0  0  0  0  0  0  0  0  0  0  0
  149.9567  140.7291  156.0138 C   0  0  0  0  0  0  0  0  0  0  0  0
  149.8038  142.0157  156.6091 O   0  0  0  0  0  0  0  0  0  0  0  0
  151.1078  142.5053  156.9119 C   0  0  1  0  0  0  0  0  0  0  0  0
  151.2972  143.1617  158.2957 C   0  0  0  0  0  0  0  0  0  0  0  0
  150.0908  143.9229  158.8477 C   0  0  0  0  0  0  0  0  0  0  0  0
  152.4977  144.1153  158.3790 C   0  0  0  0  0  0  0  0  0  0  0  0
  155.1478  141.1182  163.5488 C   0  0  0  0  0  0  0  0  0  0  0  0
  155.5774  141.3208  164.8119 N   0  0  0  0  0  0  0  0  0  0  0  0
  154.4136  144.2496  167.4228 H   0  0  0  0  0  0  0  0  0  0  0  0
  156.0541  144.6061  166.8646 H   0  0  0  0  0  0  0  0  0  0  0  0
  155.7960  143.8719  168.4454 H   0  0  0  0  0  0  0  0  0  0  0  0
  156.9740  141.0762  167.0617 H   0  0  0  0  0  0  0  0  0  0  0  0
  155.3724  140.6802  167.6992 H   0  0  0  0  0  0  0  0  0  0  0  0
  156.4126  141.8124  168.5590 H   0  0  0  0  0  0  0  0  0  0  0  0
  152.9928  143.7434  163.3886 H   0  0  0  0  0  0  0  0  0  0  0  0
  154.4877  141.2309  161.0244 H   0  0  0  0  0  0  0  0  0  0  0  0
  153.4317  141.0698  159.3782 H   0  0  0  0  0  0  0  0  0  0  0  0
  150.5588  141.2781  159.1821 H   0  0  0  0  0  0  0  0  0  0  0  0
  152.8872  141.2847  157.1702 H   0  0  0  0  0  0  0  0  0  0  0  0
  151.7286  139.4640  156.1589 H   0  0  0  0  0  0  0  0  0  0  0  0
  150.6956  139.4259  157.5881 H   0  0  0  0  0  0  0  0  0  0  0  0
  150.2402  140.8535  154.9675 H   0  0  0  0  0  0  0  0  0  0  0  0
  149.0298  140.1565  156.0505 H   0  0  0  0  0  0  0  0  0  0  0  0
  151.5957  143.0008  156.0713 H   0  0  0  0  0  0  0  0  0  0  0  0
  149.8640  144.8034  158.2459 H   0  0  0  0  0  0  0  0  0  0  0  0
  150.2627  144.2560  159.8717 H   0  0  0  0  0  0  0  0  0  0  0  0
  149.1949  143.3014  158.8610 H   0  0  0  0  0  0  0  0  0  0  0  0
  152.3342  145.0120  157.7805 H   0  0  0  0  0  0  0  0  0  0  0  0
  153.4117  143.6490  158.0103 H   0  0  0  0  0  0  0  0  0  0  0  0
  152.6877  144.4368  159.4036 H   0  0  0  0  0  0  0  0  0  0  0  0
  155.5632  140.2693  163.0257 H   0  0  0  0  0  0  0  0  0  0  0  0
  1  2  1  0  0  0  0
  1 23  1  0  0  0  0
  1 24  1  0  0  0  0
  1 25  1  0  0  0  0
  2  3  1  0  0  0  0
  2  4  1  0  0  0  0
  3 26  1  0  0  0  0
  3 27  1  0  0  0  0
  3 28  1  0  0  0  0
  4 22  1  0  0  0  0
  4  5  2  0  0  0  0
  5  6  1  0  0  0  0
  6  7  2  0  0  0  0
  6 29  1  0  0  0  0
  7  8  1  0  0  0  0
  7 21  1  0  0  0  0
  8  9  1  0  0  0  0
  8 30  1  0  0  0  0
  9 10  2  0  0  0  0
  9 11  1  0  0  0  0
 11 12  1  0  0  0  0
 11 31  1  0  0  0  0
 12 18  1  0  0  0  0
 12 13  1  0  0  0  0
 12 32  1  0  0  0  0
 13 17  1  0  0  0  0
 13 14  1  0  0  0  0
 13 33  1  0  0  0  0
 14 15  1  0  0  0  0
 14 34  1  0  0  0  0
 14 35  1  0  0  0  0
 15 16  1  0  0  0  0
 15 36  1  0  0  0  0
 15 37  1  0  0  0  0
 16 17  1  0  0  0  0
 17 18  1  0  0  0  0
 17 38  1  0  0  0  0
 18 19  1  0  0  0  0
 18 20  1  0  0  0  0
 19 39  1  0  0  0  0
 19 40  1  0  0  0  0
 19 41  1  0  0  0  0
 20 42  1  0  0  0  0
 20 43  1  0  0  0  0
 20 44  1  0  0  0  0
 21 22  2  0  0  0  0
 21 45  1  0  0  0  0
M  END
> <s_m_source_file>
AV-unprocessed.smi

> <i_m_source_file_index>
2693

> <i_lp_mmshare_version>
43012

> <i_f3d_flags>
0

> <s_epik_input>
W0NIM11OKFtDSDNdKWMxbltjSF1jKFtjSF1uMSlbTkhdQyg9TylbTkhdW0NASF0yQyhbQ0gzXSkoW0NIM10pW0NAQEhdKFtDQEhdMjMpT1tDSDJdW0NIMl0z

> <s_epik_cmdline>
J2VwaWtfcHl0aG9uJywgJy1waCcsICc3LjAnLCAnLXRuJywgJzgnLCAnLW1hJywgJzIwMCcsICctbWV0YWxfYmluZGluZycsICctaW1hZScsICc8aW5maWxlLm1hZT4nLCAnLW9tYWUnLCAnPG91dGZpbGUubWFlPic=

> <r_lp_tautomer_probability>
1

> <r_epik_Ionization_Penalty>
0.00031779

> <r_epik_Ionization_Penalty_Charging>
0

> <r_epik_Ionization_Penalty_Neutral>
0.00031779

> <r_epik_State_Penalty>
-0

> <r_epik_Charging_Adjusted_Penalty>
0

> <i_epik_Tot_Q>
0

> <i_epik_Tot_abs_Q>
0

> <r_epik_Metal_State_Penalty>
-0

> <b_epik_Metal_Only>
0

> <s_lp_Force_Field>
OPLS_2005

> <r_lp_Energy>
29.3552

> <b_lp_Chiralities_Consistent>
1

> <s_lp_Variant>
AV-unprocessed.smi:2693-3

> <Gold.Version>
5.8.1

> <Gold.Id.Protein>
6NUR|6NUR_protein|mol2

> <Gold.PLP.Fitness>
40.7553

> <Gold.PLP.PLP>
-39.6942

> <Gold.PLP.part.hbond>
-1.9497

> <Gold.PLP.part.metal>
0.0000

> <Gold.PLP.part.buried>
-3.7301

> <Gold.PLP.part.nonpolar>
-34.2715

> <Gold.PLP.part.repulsive>
1.1151

> <Gold.PLP.ligand.clash>
0.0000

> <Gold.PLP.ligand.torsion>
0.4729

> <Gold.PLP.Chemscore.Hbond>
0.6080

> <Gold.PLP.Chemscore.CHOScore>
0.0000

> <Gold.PLP.Chemscore.Metal>
0.0000

> <Gold.Chemscore.Hbonds>
donor molecule, donor type, donor heavy atom, donor atom, acceptor molecule, acceptor atom, score
      P1  H  6933  6945       L1    10  0.61

> <Gold.PLP.Chemscore.Internal.Correction>
0.1829

> <Gold.Rescore>
     Score         DG    S(hbond)    S(metal)    S(lipo)     H(rot)  DE(clash)    DE(int)     intcor
     13.38     -17.23       0.47        0.00     108.85       1.00       2.46       1.39       ----

> <Gold.Chemscore.Fitness>
13.3832

> <Gold.Chemscore.DG>
-17.2298

> <Gold.Chemscore.ZeroCoef>
-5.4800

> <Gold.Chemscore.Hbond>
0.4714

> <Gold.Chemscore.Metal>
0.0000

> <Gold.Chemscore.Lipo>
108.8478

> <Gold.Chemscore.Internal_Hbond>
0.0000

> <Gold.Chemscore.DEClash>
2.4562

> <Gold.Chemscore.DEInternal>
1.3904

> <Gold.Chemscore.Rot>
1.0000

> <Gold.Chemscore.Internal.Correction>
   9.000000E+99

> <Gold.Chemscore.Hbonds>
donor molecule, donor type, donor heavy atom, donor atom, acceptor molecule, acceptor atom, score
      P1  H  6933  6945       L1    10  0.59

> <Gold.Chemscore.Hbond.Weighted>
-1.5746

> <Gold.Chemscore.Metal.Weighted>
-0.0000

> <Gold.Chemscore.Lipo.Weighted>
-12.7352

> <Gold.Chemscore.Internal_Hbond.Weighted>
0.0000

> <Gold.Chemscore.DEClash.Weighted>
2.4562

> <Gold.Chemscore.DEInternal.Weighted>
1.3904

> <Gold.Chemscore.Rot.Weighted>
2.5600

> <Gold.Chemscore.Internal.Correction.Weighted>
   9.000000E+99

> <Gold.Protein.RotatedTorsions>
[ 6907 6896 6895 6894 ] final  -18.18 input  -60.11 | X-H torsion
[ 7974 7965 7964 7962 ] final -146.56 input  175.53 | X-H torsion
[ 8008 7997 7996 7995 ] final   49.71 input   59.86 | X-H torsion
[ 10167 10162 10161 10158 ] final  164.44 input  -65.29 | X-H torsion
[ 10718 10713 10712 10709 ] final   73.01 input   66.30 | X-H torsion
[ 10763 10752 10751 10750 ] final  166.44 input  -60.55 | X-H torsion
[ 11005 11000 10999 10996 ] final -130.36 input  -57.11 | X-H torsion

> <Gold.Protein.ActiveResidues>
 VAL166  LYS551  ARG553  GLY616  TRP617  ASP618  TYR619  PRO620  LYS621  CYS622 
 ASP623  PHE694  ASN695  SER759  ASP760  ASP761  ALA762  ILE779  LEU786  VAL792 
 PHE793  MET794  SER795  GLU796  ALA797  LYS798  CYS799  TRP800  GLU811  SER814 

> <Gold.Protein.RotatedAtoms>
  151.2821  135.0717  159.9172 H   0  0  0  0  0  0  0  0  0  0  0  0  # atno 6907 bound_to 6896
  152.5332  134.0020  159.7909 H   0  0  0  0  0  0  0  0  0  0  0  0  # atno 6908 bound_to 6896
  151.0275  133.5769  159.2695 H   0  0  0  0  0  0  0  0  0  0  0  0  # atno 6909 bound_to 6896
  144.8151  140.5440  143.5616 H   0  0  0  0  0  0  0  0  0  0  0  0  # atno 7974 bound_to 7965
  155.4067  140.3440  155.4260 H   0  0  0  0  0  0  0  0  0  0  0  0  # atno 8008 bound_to 7997
  156.1472  140.1560  156.8859 H   0  0  0  0  0  0  0  0  0  0  0  0  # atno 8009 bound_to 7997
  154.5021  140.0812  156.7800 H   0  0  0  0  0  0  0  0  0  0  0  0  # atno 8010 bound_to 7997
  139.4889  144.4235  151.9158 H   0  0  0  0  0  0  0  0  0  0  0  0  # atno 10167 bound_to 10162
  157.6528  130.9607  150.1008 H   0  0  0  0  0  0  0  0  0  0  0  0  # atno 10718 bound_to 10713
  154.3391  135.2754  155.2432 H   0  0  0  0  0  0  0  0  0  0  0  0  # atno 10763 bound_to 10752
  154.4711  135.5883  153.6325 H   0  0  0  0  0  0  0  0  0  0  0  0  # atno 10764 bound_to 10752
  152.9859  135.6088  154.3590 H   0  0  0  0  0  0  0  0  0  0  0  0  # atno 10765 bound_to 10752
  140.9352  134.1266  157.4199 H   0  0  0  0  0  0  0  0  0  0  0  0  # atno 11005 bound_to 11000
  145.5233  139.1476  143.3540 LP  0  0  0  0  0  0  0  0  0  0  0  0  # atno 17320 bound_to 7965
  146.2454  140.5374  142.8916 LP  0  0  0  0  0  0  0  0  0  0  0  0  # atno 17321 bound_to 7965
  140.3680  144.2891  150.5924 LP  0  0  0  0  0  0  0  0  0  0  0  0  # atno 17342 bound_to 10162
  140.5344  143.2236  151.8186 LP  0  0  0  0  0  0  0  0  0  0  0  0  # atno 17343 bound_to 10162
  156.1931  130.3656  149.8883 LP  0  0  0  0  0  0  0  0  0  0  0  0  # atno 17370 bound_to 10713
  156.6807  130.8857  151.3575 LP  0  0  0  0  0  0  0  0  0  0  0  0  # atno 17371 bound_to 10713
  139.8806  135.0018  156.6092 LP  0  0  0  0  0  0  0  0  0  0  0  0  # atno 17394 bound_to 11000
  140.7808  133.8661  155.8566 LP  0  0  0  0  0  0  0  0  0  0  0  0  # atno 17395 bound_to 11000

$$$$
