AV-unprocessed.smi:3145|AV-procd|sdf|11980|dock6
  -GOLD-   2272017383D 1   1.00000     0.00000
 Structure written by MMmdl.
 35 35  0  0  0  0  0  0  0  0  2 V2000
  145.3481  136.4895  150.3757 C   0  0  0  0  0  0  0  0  0  0  0  0
  145.5768  135.9147  151.7802 C   0  0  1  0  0  0  0  0  0  0  0  0
  146.1277  134.4752  151.6953 C   0  0  0  0  0  0  0  0  0  0  0  0
  145.1738  133.5341  151.1368 N   0  0  0  0  0  0  0  0  0  0  0  0
  144.4888  133.6141  149.9426 C   0  0  0  0  0  0  0  0  0  0  0  0
  143.6990  132.5039  149.8531 C   0  0  0  0  0  0  0  0  0  0  0  0
  143.9760  131.7927  151.0540 C   0  0  0  0  0  0  0  0  0  0  0  0
  144.8583  132.4128  151.8212 N   0  0  0  0  0  0  0  0  0  0  0  0
  146.4995  136.7994  152.5275 N   0  3  0  0  0  0  0  0  0  0  0  0
  146.3577  138.2430  152.2396 C   0  0  0  0  0  0  0  0  0  0  0  0
  147.1991  139.0955  153.1893 C   0  0  0  0  0  0  0  0  0  0  0  0
  146.7050  140.0696  153.7579 O   0  0  0  0  0  0  0  0  0  0  0  0
  148.4707  138.7089  153.3650 N   0  0  0  0  0  0  0  0  0  0  0  0
  149.4237  139.3866  154.2334 C   0  0  0  0  0  0  0  0  0  0  0  0
  150.8070  138.7363  154.1270 C   0  0  0  0  0  0  0  0  0  0  0  0
  151.7707  139.2953  155.0872 C   0  0  0  0  0  0  0  0  0  0  0  0
  152.5285  139.7350  155.8426 N   0  0  0  0  0  0  0  0  0  0  0  0
  144.6498  135.8736  149.8081 H   0  0  0  0  0  0  0  0  0  0  0  0
  146.2793  136.5414  149.8103 H   0  0  0  0  0  0  0  0  0  0  0  0
  144.9310  137.4960  150.4247 H   0  0  0  0  0  0  0  0  0  0  0  0
  144.6090  135.8967  152.2846 H   0  0  0  0  0  0  0  0  0  0  0  0
  147.0190  134.4541  151.0667 H   0  0  0  0  0  0  0  0  0  0  0  0
  146.4386  134.1243  152.6811 H   0  0  0  0  0  0  0  0  0  0  0  0
  144.6167  134.4456  149.2650 H   0  0  0  0  0  0  0  0  0  0  0  0
  143.0275  132.2383  149.0500 H   0  0  0  0  0  0  0  0  0  0  0  0
  143.5643  130.8517  151.3888 H   0  0  0  0  0  0  0  0  0  0  0  0
  146.3616  136.6471  153.5166 H   0  0  0  0  0  0  0  0  0  0  0  0
  146.6747  138.4397  151.2148 H   0  0  0  0  0  0  0  0  0  0  0  0
  145.3121  138.5412  152.3163 H   0  0  0  0  0  0  0  0  0  0  0  0
  148.8008  137.8956  152.8651 H   0  0  0  0  0  0  0  0  0  0  0  0
  149.4880  140.4407  153.9583 H   0  0  0  0  0  0  0  0  0  0  0  0
  149.0683  139.3420  155.2639 H   0  0  0  0  0  0  0  0  0  0  0  0
  150.7404  137.6634  154.3082 H   0  0  0  0  0  0  0  0  0  0  0  0
  151.2175  138.8731  153.1263 H   0  0  0  0  0  0  0  0  0  0  0  0
  147.4479  136.5400  152.2961 H   0  0  0  0  0  0  0  0  0  0  0  0
  1  2  1  0  0  0  0
  1 18  1  0  0  0  0
  1 19  1  0  0  0  0
  1 20  1  0  0  0  0
  2  3  1  0  0  0  0
  2  9  1  0  0  0  0
  2 21  1  0  0  0  0
  3  4  1  0  0  0  0
  3 22  1  0  0  0  0
  3 23  1  0  0  0  0
  4  8  1  0  0  0  0
  4  5  1  0  0  0  0
  5  6  2  0  0  0  0
  5 24  1  0  0  0  0
  6  7  1  0  0  0  0
  6 25  1  0  0  0  0
  7  8  2  0  0  0  0
  7 26  1  0  0  0  0
  9 10  1  0  0  0  0
  9 27  1  0  0  0  0
  9 35  1  0  0  0  0
 10 11  1  0  0  0  0
 10 28  1  0  0  0  0
 10 29  1  0  0  0  0
 11 12  2  0  0  0  0
 11 13  1  0  0  0  0
 13 14  1  0  0  0  0
 13 30  1  0  0  0  0
 14 15  1  0  0  0  0
 14 31  1  0  0  0  0
 14 32  1  0  0  0  0
 15 16  1  0  0  0  0
 15 33  1  0  0  0  0
 15 34  1  0  0  0  0
 16 17  3  0  0  0  0
M  CHG  1   9   1
M  END
> <s_m_source_file>
AV-unprocessed.smi

> <i_m_source_file_index>
3145

> <i_lp_mmshare_version>
43012

> <i_f3d_flags>
0

> <s_epik_input>
bjFbY0hdW2NIXVtjSF1uMVtDSDJdW0NAQEhdKFtDSDNdKVtOSF1bQ0gyXUMoPU8pW05IXVtDSDJdW0NIMl1DI04=

> <s_epik_cmdline>
J2VwaWtfcHl0aG9uJywgJy1waCcsICc3LjAnLCAnLXRuJywgJzgnLCAnLW1hJywgJzIwMCcsICctbWV0YWxfYmluZGluZycsICctaW1hZScsICc8aW5maWxlLm1hZT4nLCAnLW9tYWUnLCAnPG91dGZpbGUubWFlPic=

> <r_lp_tautomer_probability>
1

> <r_epik_Ionization_Penalty>
0.190162

> <r_epik_Ionization_Penalty_Charging>
0.190142

> <r_epik_Ionization_Penalty_Neutral>
2.0165e-05

> <r_epik_State_Penalty>
0.179787

> <r_epik_Charging_Adjusted_Penalty>
0.369929

> <i_epik_Tot_Q>
1

> <i_epik_Tot_abs_Q>
1

> <r_epik_Metal_State_Penalty>
0.191786

> <b_epik_Metal_Only>
0

> <s_lp_Force_Field>
OPLS_2005

> <r_lp_Energy>
4.60732

> <b_lp_Chiralities_Consistent>
1

> <s_lp_Variant>
AV-unprocessed.smi:3145-2

> <Gold.Version>
5.8.1

> <Gold.Id.Protein>
6NUR|6NUR_protein|mol2

> <Gold.PLP.Fitness>
47.5403

> <Gold.PLP.PLP>
-33.3888

> <Gold.PLP.part.hbond>
-4.0000

> <Gold.PLP.part.metal>
0.0000

> <Gold.PLP.part.buried>
1.9395

> <Gold.PLP.part.nonpolar>
-31.4950

> <Gold.PLP.part.repulsive>
0.3567

> <Gold.PLP.ligand.clash>
0.0000

> <Gold.PLP.ligand.torsion>
0.4813

> <Gold.PLP.Chemscore.Hbond>
4.0000

> <Gold.PLP.Chemscore.CHOScore>
1.0000

> <Gold.PLP.Chemscore.Metal>
0.0000

> <Gold.Chemscore.Hbonds>
donor molecule, donor type, donor heavy atom, donor atom, acceptor molecule, acceptor atom, score
      L1  H     9    35       P1  7948  2.00
      L1  H    13    30       P1  7948  1.00
      P1  H  7997  8008       L1    17  1.00
      L1  C     5    24       P1  7921  1.00

> <Gold.PLP.Chemscore.Internal.Correction>
0.1142

> <Gold.Rescore>
     Score         DG    S(hbond)    S(metal)    S(lipo)     H(rot)  DE(clash)    DE(int)     intcor
     14.41     -16.35       2.94        0.00      72.28       2.89       1.57       0.37       ----

> <Gold.Chemscore.Fitness>
14.4128

> <Gold.Chemscore.DG>
-16.3470

> <Gold.Chemscore.ZeroCoef>
-5.4800

> <Gold.Chemscore.Hbond>
2.9364

> <Gold.Chemscore.Metal>
0.0000

> <Gold.Chemscore.Lipo>
72.2768

> <Gold.Chemscore.Internal_Hbond>
0.0000

> <Gold.Chemscore.DEClash>
1.5692

> <Gold.Chemscore.DEInternal>
0.3651

> <Gold.Chemscore.Rot>
2.8894

> <Gold.Chemscore.Internal.Correction>
   9.000000E+99

> <Gold.Chemscore.Hbonds>
donor molecule, donor type, donor heavy atom, donor atom, acceptor molecule, acceptor atom, score
      L1  H     9    35       P1  7948  0.98
      L1  H    13    30       P1  7948  1.00
      P1  H  7997  8008       L1    17  1.00

> <Gold.Chemscore.Hbond.Weighted>
-9.8074

> <Gold.Chemscore.Metal.Weighted>
-0.0000

> <Gold.Chemscore.Lipo.Weighted>
-8.4564

> <Gold.Chemscore.Internal_Hbond.Weighted>
0.0000

> <Gold.Chemscore.DEClash.Weighted>
1.5692

> <Gold.Chemscore.DEInternal.Weighted>
0.3651

> <Gold.Chemscore.Rot.Weighted>
7.3968

> <Gold.Chemscore.Internal.Correction.Weighted>
   9.000000E+99

> <Gold.Protein.RotatedTorsions>
[ 6907 6896 6895 6894 ] final  -95.68 input  -60.11 | X-H torsion
[ 7974 7965 7964 7962 ] final -135.21 input  175.53 | X-H torsion
[ 8008 7997 7996 7995 ] final  -37.77 input   59.86 | X-H torsion
[ 10167 10162 10161 10158 ] final -168.56 input  -65.29 | X-H torsion
[ 10718 10713 10712 10709 ] final  -96.24 input   66.30 | X-H torsion
[ 10763 10752 10751 10750 ] final   51.39 input  -60.55 | X-H torsion
[ 11005 11000 10999 10996 ] final  159.47 input  -57.11 | X-H torsion

> <Gold.Protein.ActiveResidues>
 VAL166  LYS551  ARG553  GLY616  TRP617  ASP618  TYR619  PRO620  LYS621  CYS622 
 ASP623  PHE694  ASN695  SER759  ASP760  ASP761  ALA762  ILE779  LEU786  VAL792 
 PHE793  MET794  SER795  GLU796  ALA797  LYS798  CYS799  TRP800  GLU811  SER814 

> <Gold.Protein.RotatedAtoms>
  150.6970  134.1620  159.4179 H   0  0  0  0  0  0  0  0  0  0  0  0  # atno 6907 bound_to 6896
  151.9600  135.0126  160.0556 H   0  0  0  0  0  0  0  0  0  0  0  0  # atno 6908 bound_to 6896
  152.1935  133.4755  159.5057 H   0  0  0  0  0  0  0  0  0  0  0  0  # atno 6909 bound_to 6896
  144.9034  140.6801  143.5071 H   0  0  0  0  0  0  0  0  0  0  0  0  # atno 7974 bound_to 7965
  154.4048  140.1595  156.2591 H   0  0  0  0  0  0  0  0  0  0  0  0  # atno 8008 bound_to 7997
  155.9052  140.3430  155.6034 H   0  0  0  0  0  0  0  0  0  0  0  0  # atno 8009 bound_to 7997
  155.7401  140.0791  157.2240 H   0  0  0  0  0  0  0  0  0  0  0  0  # atno 8010 bound_to 7997
  139.5977  144.1076  152.1708 H   0  0  0  0  0  0  0  0  0  0  0  0  # atno 10167 bound_to 10162
  156.0058  130.5143  150.6197 H   0  0  0  0  0  0  0  0  0  0  0  0  # atno 10718 bound_to 10713
  152.9785  135.5847  154.4408 H   0  0  0  0  0  0  0  0  0  0  0  0  # atno 10763 bound_to 10752
  154.4010  135.2769  155.2098 H   0  0  0  0  0  0  0  0  0  0  0  0  # atno 10764 bound_to 10752
  154.3930  135.6121  153.5908 H   0  0  0  0  0  0  0  0  0  0  0  0  # atno 10765 bound_to 10752
  140.1965  134.8369  157.2970 H   0  0  0  0  0  0  0  0  0  0  0  0  # atno 11005 bound_to 11000
  145.3577  139.1689  143.4400 LP  0  0  0  0  0  0  0  0  0  0  0  0  # atno 17320 bound_to 7965
  146.3120  140.3636  142.8667 LP  0  0  0  0  0  0  0  0  0  0  0  0  # atno 17321 bound_to 7965
  140.0665  144.5814  150.7223 LP  0  0  0  0  0  0  0  0  0  0  0  0  # atno 17342 bound_to 10162
  140.7225  143.2603  151.4230 LP  0  0  0  0  0  0  0  0  0  0  0  0  # atno 17343 bound_to 10162
  157.4015  131.0810  151.1304 LP  0  0  0  0  0  0  0  0  0  0  0  0  # atno 17370 bound_to 10713
  157.1964  130.6375  149.5723 LP  0  0  0  0  0  0  0  0  0  0  0  0  # atno 17371 bound_to 10713
  140.2102  134.4148  155.7617 LP  0  0  0  0  0  0  0  0  0  0  0  0  # atno 17394 bound_to 11000
  141.2227  133.7114  156.8325 LP  0  0  0  0  0  0  0  0  0  0  0  0  # atno 17395 bound_to 11000

$$$$
