AV-unprocessed.smi:1103|AV-procd|sdf|4772|dock9
  -GOLD-   22720 3313D 1   1.00000     0.00000
 Structure written by MMmdl.
 44 45  0  0  0  0  0  0  0  0  2 V2000
  146.7202  133.8080  152.5101 C   0  0  0  0  0  0  0  0  0  0  0  0
  146.8712  134.6650  153.7747 C   0  0  0  0  0  0  0  0  0  0  0  0
  148.2896  134.8573  154.1715 N   0  3  2  0  0  0  0  0  0  0  0  0
  149.0706  133.5972  154.0650 C   0  0  0  0  0  0  0  0  0  0  0  0
  150.5602  133.8298  154.3644 C   0  0  0  0  0  0  0  0  0  0  0  0
  150.7518  134.4951  155.7351 C   0  0  0  0  0  0  0  0  0  0  0  0
  149.9181  135.7852  155.8501 C   0  0  1  0  0  0  0  0  0  0  0  0
  150.5289  136.9425  155.0245 C   0  0  0  0  0  0  0  0  0  0  0  0
  150.0785  138.2564  155.4733 N   0  0  0  0  0  0  0  0  0  0  0  0
  150.6281  139.4291  155.1212 C   0  0  0  0  0  0  0  0  0  0  0  0
  151.5695  139.5270  154.3343 O   0  0  0  0  0  0  0  0  0  0  0  0
  150.0262  140.6850  155.7528 C   0  0  0  0  0  0  0  0  0  0  0  0
  150.8653  141.1754  156.8305 N   0  0  0  0  0  0  0  0  0  0  0  0
  150.7895  142.3822  157.4939 C   0  0  0  0  0  0  0  0  0  0  0  0
  151.7930  142.4060  158.4206 C   0  0  0  0  0  0  0  0  0  0  0  0
  152.1429  143.4927  159.3960 C   0  0  0  0  0  0  0  0  0  0  0  0
  152.4362  141.1478  158.2436 C   0  0  0  0  0  0  0  0  0  0  0  0
  151.8811  140.4147  157.2919 N   0  0  0  0  0  0  0  0  0  0  0  0
  148.4392  135.4781  155.5160 C   0  0  0  0  0  0  0  0  0  0  0  0
  145.6666  133.6488  152.2800 H   0  0  0  0  0  0  0  0  0  0  0  0
  147.1767  132.8272  152.6444 H   0  0  0  0  0  0  0  0  0  0  0  0
  147.1739  134.2758  151.6369 H   0  0  0  0  0  0  0  0  0  0  0  0
  146.3848  135.6329  153.6445 H   0  0  0  0  0  0  0  0  0  0  0  0
  146.3365  134.1588  154.5795 H   0  0  0  0  0  0  0  0  0  0  0  0
  148.6611  132.8571  154.7545 H   0  0  0  0  0  0  0  0  0  0  0  0
  148.9703  133.1837  153.0607 H   0  0  0  0  0  0  0  0  0  0  0  0
  151.0950  132.8798  154.3378 H   0  0  0  0  0  0  0  0  0  0  0  0
  151.0020  134.4470  153.5817 H   0  0  0  0  0  0  0  0  0  0  0  0
  150.4447  133.7974  156.5154 H   0  0  0  0  0  0  0  0  0  0  0  0
  151.8078  134.7023  155.9119 H   0  0  0  0  0  0  0  0  0  0  0  0
  149.9555  136.0971  156.8950 H   0  0  0  0  0  0  0  0  0  0  0  0
  151.6144  136.9263  155.1279 H   0  0  0  0  0  0  0  0  0  0  0  0
  150.3310  136.8117  153.9599 H   0  0  0  0  0  0  0  0  0  0  0  0
  149.3109  138.2747  156.1299 H   0  0  0  0  0  0  0  0  0  0  0  0
  149.9336  141.4653  154.9963 H   0  0  0  0  0  0  0  0  0  0  0  0
  149.0227  140.4872  156.1341 H   0  0  0  0  0  0  0  0  0  0  0  0
  150.0368  143.1181  157.2511 H   0  0  0  0  0  0  0  0  0  0  0  0
  153.1735  143.4099  159.7420 H   0  0  0  0  0  0  0  0  0  0  0  0
  151.5037  143.4608  160.2783 H   0  0  0  0  0  0  0  0  0  0  0  0
  152.0322  144.4831  158.9538 H   0  0  0  0  0  0  0  0  0  0  0  0
  153.2876  140.7486  158.7751 H   0  0  0  0  0  0  0  0  0  0  0  0
  147.8419  136.3849  155.5920 H   0  0  0  0  0  0  0  0  0  0  0  0
  148.0345  134.7935  156.2633 H   0  0  0  0  0  0  0  0  0  0  0  0
  148.6904  135.4995  153.5023 H   0  0  0  0  0  0  0  0  0  0  0  0
  1  2  1  0  0  0  0
  1 20  1  0  0  0  0
  1 21  1  0  0  0  0
  1 22  1  0  0  0  0
  2  3  1  0  0  0  0
  2 23  1  0  0  0  0
  2 24  1  0  0  0  0
  3 19  1  0  0  0  0
  3  4  1  0  0  0  0
  3 44  1  0  0  0  0
  4  5  1  0  0  0  0
  4 25  1  0  0  0  0
  4 26  1  0  0  0  0
  5  6  1  0  0  0  0
  5 27  1  0  0  0  0
  5 28  1  0  0  0  0
  6  7  1  0  0  0  0
  6 29  1  0  0  0  0
  6 30  1  0  0  0  0
  7  8  1  0  0  0  0
  7 19  1  0  0  0  0
  7 31  1  0  0  0  0
  8  9  1  0  0  0  0
  8 32  1  0  0  0  0
  8 33  1  0  0  0  0
  9 10  1  0  0  0  0
  9 34  1  0  0  0  0
 10 11  2  0  0  0  0
 10 12  1  0  0  0  0
 12 13  1  0  0  0  0
 12 35  1  0  0  0  0
 12 36  1  0  0  0  0
 13 18  1  0  0  0  0
 13 14  1  0  0  0  0
 14 15  2  0  0  0  0
 14 37  1  0  0  0  0
 15 16  1  0  0  0  0
 15 17  1  0  0  0  0
 16 38  1  0  0  0  0
 16 39  1  0  0  0  0
 16 40  1  0  0  0  0
 17 18  2  0  0  0  0
 17 41  1  0  0  0  0
 19 42  1  0  0  0  0
 19 43  1  0  0  0  0
M  CHG  1   3   1
M  END
> <s_m_source_file>
AV-unprocessed.smi

> <i_m_source_file_index>
1103

> <i_lp_mmshare_version>
43012

> <i_f3d_flags>
0

> <s_epik_input>
W0NIM11bQ0gyXU4xW0NIMl1bQ0gyXVtDSDJdW0NASF0oW0NIMl0xKVtDSDJdW05IXUMoPU8pW0NIMl1uMltjSF1jKFtDSDNdKVtjSF1uMg==

> <s_epik_cmdline>
J2VwaWtfcHl0aG9uJywgJy1waCcsICc3LjAnLCAnLXRuJywgJzgnLCAnLW1hJywgJzIwMCcsICctbWV0YWxfYmluZGluZycsICctaW1hZScsICc8aW5maWxlLm1hZT4nLCAnLW9tYWUnLCAnPG91dGZpbGUubWFlPic=

> <r_lp_tautomer_probability>
1

> <r_epik_Ionization_Penalty>
0.000672456

> <r_epik_Ionization_Penalty_Charging>
0.000647327

> <r_epik_Ionization_Penalty_Neutral>
2.51297e-05

> <r_epik_State_Penalty>
0.000409793

> <r_epik_Charging_Adjusted_Penalty>
0.00105712

> <i_epik_Tot_Q>
1

> <i_epik_Tot_abs_Q>
1

> <r_epik_Metal_State_Penalty>
-0

> <b_epik_Metal_Only>
0

> <s_lp_Force_Field>
OPLS_2005

> <r_lp_Energy>
19.6745

> <b_lp_Chiralities_Consistent>
1

> <s_lp_Variant>
AV-unprocessed.smi:1103-2

> <Gold.Version>
5.8.1

> <Gold.Id.Protein>
6NUR|6NUR_protein|mol2

> <Gold.PLP.Fitness>
40.8974

> <Gold.PLP.PLP>
-30.2338

> <Gold.PLP.part.hbond>
-2.0000

> <Gold.PLP.part.metal>
0.0000

> <Gold.PLP.part.buried>
-2.3726

> <Gold.PLP.part.nonpolar>
-25.4698

> <Gold.PLP.part.repulsive>
0.1222

> <Gold.PLP.ligand.clash>
0.0000

> <Gold.PLP.ligand.torsion>
0.6899

> <Gold.PLP.Chemscore.Hbond>
3.0000

> <Gold.PLP.Chemscore.CHOScore>
1.0000

> <Gold.PLP.Chemscore.Metal>
0.0000

> <Gold.Chemscore.Hbonds>
donor molecule, donor type, donor heavy atom, donor atom, acceptor molecule, acceptor atom, score
      L1  H     3    44       P1  7948  2.00
      P1  H  7989  7998       L1    11  1.00
      L1  C    14    37       P1  8028  1.00

> <Gold.PLP.Chemscore.Internal.Correction>
0.0432

> <Gold.Rescore>
     Score         DG    S(hbond)    S(metal)    S(lipo)     H(rot)  DE(clash)    DE(int)     intcor
     15.40     -15.98       1.96        0.00      70.45       1.68       0.06       0.52       ----

> <Gold.Chemscore.Fitness>
15.4012

> <Gold.Chemscore.DG>
-15.9769

> <Gold.Chemscore.ZeroCoef>
-5.4800

> <Gold.Chemscore.Hbond>
1.9643

> <Gold.Chemscore.Metal>
0.0000

> <Gold.Chemscore.Lipo>
70.4500

> <Gold.Chemscore.Internal_Hbond>
0.0000

> <Gold.Chemscore.DEClash>
0.0580

> <Gold.Chemscore.DEInternal>
0.5177

> <Gold.Chemscore.Rot>
1.6823

> <Gold.Chemscore.Internal.Correction>
   9.000000E+99

> <Gold.Chemscore.Hbonds>
donor molecule, donor type, donor heavy atom, donor atom, acceptor molecule, acceptor atom, score
      L1  H     3    44       P1  7948  0.93
      P1  H  7989  7998       L1    11  0.90

> <Gold.Chemscore.Hbond.Weighted>
-6.5608

> <Gold.Chemscore.Metal.Weighted>
-0.0000

> <Gold.Chemscore.Lipo.Weighted>
-8.2427

> <Gold.Chemscore.Internal_Hbond.Weighted>
0.0000

> <Gold.Chemscore.DEClash.Weighted>
0.0580

> <Gold.Chemscore.DEInternal.Weighted>
0.5177

> <Gold.Chemscore.Rot.Weighted>
4.3066

> <Gold.Chemscore.Internal.Correction.Weighted>
   9.000000E+99

> <Gold.Protein.RotatedTorsions>
[ 6907 6896 6895 6894 ] final  170.42 input  -60.11 | X-H torsion
[ 7974 7965 7964 7962 ] final  -42.54 input  175.53 | X-H torsion
[ 8008 7997 7996 7995 ] final  175.70 input   59.86 | X-H torsion
[ 10167 10162 10161 10158 ] final   55.56 input  -65.29 | X-H torsion
[ 10718 10713 10712 10709 ] final -171.73 input   66.30 | X-H torsion
[ 10763 10752 10751 10750 ] final   44.60 input  -60.55 | X-H torsion
[ 11005 11000 10999 10996 ] final  -76.51 input  -57.11 | X-H torsion

> <Gold.Protein.ActiveResidues>
 VAL166  LYS551  ARG553  GLY616  TRP617  ASP618  TYR619  PRO620  LYS621  CYS622 
 ASP623  PHE694  ASN695  SER759  ASP760  ASP761  ALA762  ILE779  LEU786  VAL792 
 PHE793  MET794  SER795  GLU796  ALA797  LYS798  CYS799  TRP800  GLU811  SER814 

> <Gold.Protein.RotatedAtoms>
  151.8163  133.3388  159.3570 H   0  0  0  0  0  0  0  0  0  0  0  0  # atno 6907 bound_to 6896
  150.7309  134.5616  159.5854 H   0  0  0  0  0  0  0  0  0  0  0  0  # atno 6908 bound_to 6896
  152.3038  134.7580  160.0403 H   0  0  0  0  0  0  0  0  0  0  0  0  # atno 6909 bound_to 6896
  146.0105  140.6969  142.9226 H   0  0  0  0  0  0  0  0  0  0  0  0  # atno 7974 bound_to 7965
  156.0843  140.1402  156.9673 H   0  0  0  0  0  0  0  0  0  0  0  0  # atno 8008 bound_to 7997
  154.4603  140.0945  156.6924 H   0  0  0  0  0  0  0  0  0  0  0  0  # atno 8009 bound_to 7997
  155.5024  140.3451  155.4376 H   0  0  0  0  0  0  0  0  0  0  0  0  # atno 8010 bound_to 7997
  140.2181  144.3818  150.6461 H   0  0  0  0  0  0  0  0  0  0  0  0  # atno 10167 bound_to 10162
  156.7452  130.9357  151.3112 H   0  0  0  0  0  0  0  0  0  0  0  0  # atno 10718 bound_to 10713
  152.9838  135.6065  154.3300 H   0  0  0  0  0  0  0  0  0  0  0  0  # atno 10763 bound_to 10752
  154.3004  135.2773  155.2615 H   0  0  0  0  0  0  0  0  0  0  0  0  # atno 10764 bound_to 10752
  154.4870  135.5902  153.6487 H   0  0  0  0  0  0  0  0  0  0  0  0  # atno 10765 bound_to 10752
  141.1654  133.6986  156.7679 H   0  0  0  0  0  0  0  0  0  0  0  0  # atno 11005 bound_to 11000
  144.6951  140.3391  143.7202 LP  0  0  0  0  0  0  0  0  0  0  0  0  # atno 17320 bound_to 7965
  145.7348  139.1747  143.2409 LP  0  0  0  0  0  0  0  0  0  0  0  0  # atno 17321 bound_to 7965
  140.6275  143.2183  151.6566 LP  0  0  0  0  0  0  0  0  0  0  0  0  # atno 17342 bound_to 10162
  139.5154  144.3378  152.0767 LP  0  0  0  0  0  0  0  0  0  0  0  0  # atno 17343 bound_to 10162
  157.6801  130.9132  150.0246 LP  0  0  0  0  0  0  0  0  0  0  0  0  # atno 17370 bound_to 10713
  156.1438  130.3642  149.9542 LP  0  0  0  0  0  0  0  0  0  0  0  0  # atno 17371 bound_to 10713
  140.2485  134.8558  157.3644 LP  0  0  0  0  0  0  0  0  0  0  0  0  # atno 17394 bound_to 11000
  140.1725  134.4590  155.7822 LP  0  0  0  0  0  0  0  0  0  0  0  0  # atno 17395 bound_to 11000

$$$$
