AV-unprocessed.smi:83|AV-procd|sdf|801|dock4
  -GOLD-   2262017183D 1   1.00000     0.00000
 Structure written by MMmdl.
 56 59  0  0  0  0  0  0  0  0  1 V2000
  153.1713  142.2304  161.5529 C   0  0  0  0  0  0  0  0  0  0  0  0
  152.5470  142.9495  160.3558 C   0  0  0  0  0  0  0  0  0  0  0  0
  152.4724  144.1782  160.3692 O   0  0  0  0  0  0  0  0  0  0  0  0
  152.0970  142.2061  159.3250 N   0  0  0  0  0  0  0  0  0  0  0  0
  152.1576  140.7482  159.2342 C   0  0  0  0  0  0  0  0  0  0  0  0
  151.7067  140.4075  157.8125 C   0  0  0  0  0  0  0  0  0  0  0  0
  150.8187  141.5809  157.4127 C   0  0  2  0  0  0  0  0  0  0  0  0
  150.6586  141.7526  155.8893 C   0  0  0  0  0  0  0  0  0  0  0  0
  149.8509  140.6923  155.2831 N   0  0  0  0  0  0  0  0  0  0  0  0
  148.7430  141.0783  154.4187 C   0  0  0  0  0  0  0  0  0  0  0  0
  150.3691  139.4366  155.1926 C   0  0  0  0  0  0  0  0  0  0  0  0
  151.5388  139.2777  154.5182 N   0  0  0  0  0  0  0  0  0  0  0  0
  152.0956  138.0708  154.3901 C   0  0  0  0  0  0  0  0  0  0  0  0
  151.6582  136.8986  154.8495 N   0  0  0  0  0  0  0  0  0  0  0  0
  150.4825  137.0421  155.5239 C   0  0  0  0  0  0  0  0  0  0  0  0
  149.7755  138.2604  155.7455 C   0  0  0  0  0  0  0  0  0  0  0  0
  148.6143  137.9946  156.4656 N   0  0  0  0  0  0  0  0  0  0  0  0
  148.6384  136.7055  156.6624 C   0  0  0  0  0  0  0  0  0  0  0  0
  149.7268  136.0550  156.1311 N   0  0  0  0  0  0  0  0  0  0  0  0
  150.0012  134.6305  156.2010 C   0  0  0  0  0  0  0  0  0  0  0  0
  149.7640  133.9215  154.8540 C   0  0  2  0  0  0  0  0  0  0  0  0
  148.7603  134.5863  154.1101 O   0  0  0  0  0  0  0  0  0  0  0  0
  149.4251  132.4258  155.0185 C   0  0  2  0  0  0  0  0  0  0  0  0
  150.5537  131.5183  155.5142 C   0  0  0  0  0  0  0  0  0  0  0  0
  150.0740  130.1675  155.0318 C   0  0  0  0  0  0  0  0  0  0  0  0
  149.4612  130.5177  153.6774 C   0  0  0  0  0  0  0  0  0  0  0  0
  148.9523  131.8432  153.8064 O   0  0  0  0  0  0  0  0  0  0  0  0
  151.4690  142.7680  158.1326 C   0  0  0  0  0  0  0  0  0  0  0  0
  152.4726  141.5107  161.9800 H   0  0  0  0  0  0  0  0  0  0  0  0
  153.4377  142.9433  162.3339 H   0  0  0  0  0  0  0  0  0  0  0  0
  154.0785  141.7042  161.2554 H   0  0  0  0  0  0  0  0  0  0  0  0
  153.1590  140.3629  159.4307 H   0  0  0  0  0  0  0  0  0  0  0  0
  151.4735  140.3154  159.9656 H   0  0  0  0  0  0  0  0  0  0  0  0
  152.5775  140.3590  157.1570 H   0  0  0  0  0  0  0  0  0  0  0  0
  151.1910  139.4487  157.7534 H   0  0  0  0  0  0  0  0  0  0  0  0
  149.8372  141.4114  157.8587 H   0  0  0  0  0  0  0  0  0  0  0  0
  150.2628  142.7422  155.6612 H   0  0  0  0  0  0  0  0  0  0  0  0
  151.6448  141.7250  155.4248 H   0  0  0  0  0  0  0  0  0  0  0  0
  147.9843  140.2958  154.3825 H   0  0  0  0  0  0  0  0  0  0  0  0
  149.0939  141.2772  153.4058 H   0  0  0  0  0  0  0  0  0  0  0  0
  148.2645  141.9839  154.7923 H   0  0  0  0  0  0  0  0  0  0  0  0
  153.0242  138.0404  153.8393 H   0  0  0  0  0  0  0  0  0  0  0  0
  147.8578  136.1899  157.2029 H   0  0  0  0  0  0  0  0  0  0  0  0
  151.0374  134.5008  156.5161 H   0  0  0  0  0  0  0  0  0  0  0  0
  149.3814  134.1905  156.9834 H   0  0  0  0  0  0  0  0  0  0  0  0
  150.6790  133.9890  154.2640 H   0  0  0  0  0  0  0  0  0  0  0  0
  149.1788  135.1281  153.4589 H   0  0  0  0  0  0  0  0  0  0  0  0
  148.5994  132.3417  155.7274 H   0  0  0  0  0  0  0  0  0  0  0  0
  151.5045  131.7589  155.0367 H   0  0  0  0  0  0  0  0  0  0  0  0
  150.6926  131.5638  156.5947 H   0  0  0  0  0  0  0  0  0  0  0  0
  150.8718  129.4278  154.9608 H   0  0  0  0  0  0  0  0  0  0  0  0
  149.3062  129.7805  155.7034 H   0  0  0  0  0  0  0  0  0  0  0  0
  150.2288  130.5170  152.9025 H   0  0  0  0  0  0  0  0  0  0  0  0
  148.6800  129.8176  153.3802 H   0  0  0  0  0  0  0  0  0  0  0  0
  150.7312  143.5337  158.3788 H   0  0  0  0  0  0  0  0  0  0  0  0
  152.2419  143.2279  157.5151 H   0  0  0  0  0  0  0  0  0  0  0  0
  1  2  1  0  0  0  0
  1 29  1  0  0  0  0
  1 30  1  0  0  0  0
  1 31  1  0  0  0  0
  2  3  2  0  0  0  0
  2  4  1  0  0  0  0
  4 28  1  0  0  0  0
  4  5  1  0  0  0  0
  5  6  1  0  0  0  0
  5 32  1  0  0  0  0
  5 33  1  0  0  0  0
  6  7  1  0  0  0  0
  6 34  1  0  0  0  0
  6 35  1  0  0  0  0
  7  8  1  0  0  0  0
  7 28  1  0  0  0  0
  7 36  1  0  0  0  0
  8  9  1  0  0  0  0
  8 37  1  0  0  0  0
  8 38  1  0  0  0  0
  9 10  1  0  0  0  0
  9 11  1  0  0  0  0
 10 39  1  0  0  0  0
 10 40  1  0  0  0  0
 10 41  1  0  0  0  0
 11 16  1  0  0  0  0
 11 12  2  0  0  0  0
 12 13  1  0  0  0  0
 13 14  2  0  0  0  0
 13 42  1  0  0  0  0
 14 15  1  0  0  0  0
 15 19  1  0  0  0  0
 15 16  2  0  0  0  0
 16 17  1  0  0  0  0
 17 18  2  0  0  0  0
 18 19  1  0  0  0  0
 18 43  1  0  0  0  0
 19 20  1  0  0  0  0
 20 21  1  0  0  0  0
 20 44  1  0  0  0  0
 20 45  1  0  0  0  0
 21 22  1  0  0  0  0
 21 23  1  0  0  0  0
 21 46  1  0  0  0  0
 22 47  1  0  0  0  0
 23 27  1  0  0  0  0
 23 24  1  0  0  0  0
 23 48  1  0  0  0  0
 24 25  1  0  0  0  0
 24 49  1  0  0  0  0
 24 50  1  0  0  0  0
 25 26  1  0  0  0  0
 25 51  1  0  0  0  0
 25 52  1  0  0  0  0
 26 27  1  0  0  0  0
 26 53  1  0  0  0  0
 26 54  1  0  0  0  0
 28 55  1  0  0  0  0
 28 56  1  0  0  0  0
M  END
> <s_m_source_file>
AV-unprocessed.smi

> <i_m_source_file_index>
83

> <i_lp_mmshare_version>
43012

> <i_f3d_flags>
0

> <s_epik_input>
W0NIM11DKD1PKU4xW0NIMl1bQ0gyXVtDQEhdKFtDSDJdMSlbQ0gyXU4oW0NIM10pYyhuW2NIXW4yKWMoYzIzKW5bY0hdbjNbQ0gyXVtDQEhdKFtPSF0pW0NAQEhdNFtDSDJdW0NIMl1bQ0gyXU80

> <s_epik_cmdline>
J2VwaWtfcHl0aG9uJywgJy1waCcsICc3LjAnLCAnLXRuJywgJzgnLCAnLW1hJywgJzIwMCcsICctbWV0YWxfYmluZGluZycsICctaW1hZScsICc8aW5maWxlLm1hZT4nLCAnLW9tYWUnLCAnPG91dGZpbGUubWFlPic=

> <r_lp_tautomer_probability>
1

> <r_epik_Ionization_Penalty>
0.00109752

> <r_epik_Ionization_Penalty_Charging>
0

> <r_epik_Ionization_Penalty_Neutral>
0.00109752

> <r_epik_State_Penalty>
0.000634803

> <r_epik_Charging_Adjusted_Penalty>
0.000634803

> <i_epik_Tot_Q>
0

> <i_epik_Tot_abs_Q>
0

> <r_epik_Metal_State_Penalty>
-0

> <b_epik_Metal_Only>
0

> <s_lp_Force_Field>
OPLS_2005

> <r_lp_Energy>
56.4298

> <b_lp_Chiralities_Consistent>
1

> <s_lp_Variant>
AV-unprocessed.smi:83-2

> <Gold.Version>
5.8.1

> <Gold.Id.Protein>
6NUR|6NUR_protein|mol2

> <Gold.PLP.Fitness>
54.9067

> <Gold.PLP.PLP>
-49.6704

> <Gold.PLP.part.hbond>
-3.0000

> <Gold.PLP.part.metal>
0.0000

> <Gold.PLP.part.buried>
-7.8463

> <Gold.PLP.part.nonpolar>
-39.6556

> <Gold.PLP.part.repulsive>
0.3700

> <Gold.PLP.ligand.clash>
0.0000

> <Gold.PLP.ligand.torsion>
2.0583

> <Gold.PLP.Chemscore.Hbond>
2.9760

> <Gold.PLP.Chemscore.CHOScore>
0.0000

> <Gold.PLP.Chemscore.Metal>
0.0000

> <Gold.Chemscore.Hbonds>
donor molecule, donor type, donor heavy atom, donor atom, acceptor molecule, acceptor atom, score
      L1  H    22    47       P1  7948  0.91
      P1  H  7989  7998       L1    12  1.00
      P1  H 10752 10763       L1    14  1.00

> <Gold.PLP.Chemscore.Internal.Correction>
0.4248

> <Gold.Rescore>
     Score         DG    S(hbond)    S(metal)    S(lipo)     H(rot)  DE(clash)    DE(int)     intcor
     14.25     -16.45       2.37        0.00      83.32       2.62       0.19       2.01       ----

> <Gold.Chemscore.Fitness>
14.2517

> <Gold.Chemscore.DG>
-16.4518

> <Gold.Chemscore.ZeroCoef>
-5.4800

> <Gold.Chemscore.Hbond>
2.3707

> <Gold.Chemscore.Metal>
0.0000

> <Gold.Chemscore.Lipo>
83.3204

> <Gold.Chemscore.Internal_Hbond>
0.0000

> <Gold.Chemscore.DEClash>
0.1904

> <Gold.Chemscore.DEInternal>
2.0096

> <Gold.Chemscore.Rot>
2.6152

> <Gold.Chemscore.Internal.Correction>
   9.000000E+99

> <Gold.Chemscore.Hbonds>
donor molecule, donor type, donor heavy atom, donor atom, acceptor molecule, acceptor atom, score
      L1  H    22    47       P1  7948  0.20
      P1  H  7989  7998       L1    12  0.39
      P1  H 10752 10763       L1    14  0.74

> <Gold.Chemscore.Hbond.Weighted>
-7.9182

> <Gold.Chemscore.Metal.Weighted>
-0.0000

> <Gold.Chemscore.Lipo.Weighted>
-9.7485

> <Gold.Chemscore.Internal_Hbond.Weighted>
0.0000

> <Gold.Chemscore.DEClash.Weighted>
0.1904

> <Gold.Chemscore.DEInternal.Weighted>
2.0096

> <Gold.Chemscore.Rot.Weighted>
6.6949

> <Gold.Chemscore.Internal.Correction.Weighted>
   9.000000E+99

> <Gold.Protein.RotatedTorsions>
[ 6907 6896 6895 6894 ] final -163.50 input  -60.11 | X-H torsion
[ 7974 7965 7964 7962 ] final   25.68 input  175.53 | X-H torsion
[ 8008 7997 7996 7995 ] final  142.10 input   59.86 | X-H torsion
[ 10167 10162 10161 10158 ] final  108.74 input  -65.29 | X-H torsion
[ 10718 10713 10712 10709 ] final  -60.94 input   66.30 | X-H torsion
[ 10763 10752 10751 10750 ] final   62.16 input  -60.55 | X-H torsion
[ 11005 11000 10999 10996 ] final  101.94 input  -57.11 | X-H torsion

> <Gold.Protein.ActiveResidues>
 VAL166  LYS551  ARG553  GLY616  TRP617  ASP618  TYR619  PRO620  LYS621  CYS622 
 ASP623  PHE694  ASN695  SER759  ASP760  ASP761  ALA762  ILE779  LEU786  VAL792 
 PHE793  MET794  SER795  GLU796  ALA797  LYS798  CYS799  TRP800  GLU811  SER814 

> <Gold.Protein.RotatedAtoms>
  151.3970  133.3770  159.2727 H   0  0  0  0  0  0  0  0  0  0  0  0  # atno 6907 bound_to 6896
  150.9462  134.8868  159.7654 H   0  0  0  0  0  0  0  0  0  0  0  0  # atno 6908 bound_to 6896
  152.5092  134.3923  159.9440 H   0  0  0  0  0  0  0  0  0  0  0  0  # atno 6909 bound_to 6896
  146.1876  139.7432  142.8855 H   0  0  0  0  0  0  0  0  0  0  0  0  # atno 7974 bound_to 7965
  156.2955  140.2298  156.4672 H   0  0  0  0  0  0  0  0  0  0  0  0  # atno 8008 bound_to 7997
  154.7966  140.0451  157.1262 H   0  0  0  0  0  0  0  0  0  0  0  0  # atno 8009 bound_to 7997
  154.9582  140.3051  155.5046 H   0  0  0  0  0  0  0  0  0  0  0  0  # atno 8010 bound_to 7997
  139.6822  144.7117  151.1495 H   0  0  0  0  0  0  0  0  0  0  0  0  # atno 10167 bound_to 10162
  156.0955  130.4193  150.0925 H   0  0  0  0  0  0  0  0  0  0  0  0  # atno 10718 bound_to 10713
  152.9973  135.5475  154.6148 H   0  0  0  0  0  0  0  0  0  0  0  0  # atno 10763 bound_to 10752
  154.5461  135.2823  155.1054 H   0  0  0  0  0  0  0  0  0  0  0  0  # atno 10764 bound_to 10752
  154.2312  135.6433  153.5228 H   0  0  0  0  0  0  0  0  0  0  0  0  # atno 10765 bound_to 10752
  139.8775  134.9204  156.4983 H   0  0  0  0  0  0  0  0  0  0  0  0  # atno 11005 bound_to 11000
  145.3891  141.0370  143.3134 LP  0  0  0  0  0  0  0  0  0  0  0  0  # atno 17320 bound_to 7965
  144.8426  139.5447  143.6893 LP  0  0  0  0  0  0  0  0  0  0  0  0  # atno 17321 bound_to 7965
  140.7656  143.5682  150.9024 LP  0  0  0  0  0  0  0  0  0  0  0  0  # atno 17342 bound_to 10162
  139.9355  143.6443  152.3066 LP  0  0  0  0  0  0  0  0  0  0  0  0  # atno 17343 bound_to 10162
  156.8925  130.9593  151.3586 LP  0  0  0  0  0  0  0  0  0  0  0  0  # atno 17370 bound_to 10713
  157.6115  130.8587  149.8960 LP  0  0  0  0  0  0  0  0  0  0  0  0  # atno 17371 bound_to 10713
  140.8608  133.8061  155.9263 LP  0  0  0  0  0  0  0  0  0  0  0  0  # atno 17394 bound_to 11000
  140.9051  134.2330  157.5019 LP  0  0  0  0  0  0  0  0  0  0  0  0  # atno 17395 bound_to 11000

$$$$
