AV-unprocessed.smi:157|AV-procd|sdf|1304|dock4
  -GOLD-   2262018593D 1   1.00000     0.00000
 Structure written by MMmdl.
 35 37  0  0  0  0  0  0  0  0  1 V2000
  147.2620  143.1094  154.1307 O   0  0  0  0  0  0  0  0  0  0  0  0
  146.7645  142.0973  154.9799 C   0  0  0  0  0  0  0  0  0  0  0  0
  147.8790  141.1048  155.3477 C   0  0  2  0  0  0  0  0  0  0  0  0
  148.7469  141.7049  156.3115 O   0  0  0  0  0  0  0  0  0  0  0  0
  150.0677  141.6338  155.8713 C   0  0  1  0  0  0  0  0  0  0  0  0
  150.9520  141.3293  157.0390 N   0  0  0  0  0  0  0  0  0  0  0  0
  151.5731  140.1669  157.2783 C   0  0  0  0  0  0  0  0  0  0  0  0
  152.3070  140.1525  158.3778 N   0  0  0  0  0  0  0  0  0  0  0  0
  152.1549  141.4356  158.9001 C   0  0  0  0  0  0  0  0  0  0  0  0
  151.3229  142.1850  158.0805 C   0  0  0  0  0  0  0  0  0  0  0  0
  150.8227  143.4732  158.0796 N   0  0  0  0  0  0  0  0  0  0  0  0
  151.4088  144.3564  158.8250 C   0  0  0  0  0  0  0  0  0  0  0  0
  152.4480  144.2159  159.7336 N   0  0  0  0  0  0  0  0  0  0  0  0
  152.4886  143.1776  160.7489 C   0  0  0  0  0  0  0  0  0  0  0  0
  152.8335  141.7914  160.1914 C   0  0  2  0  0  0  0  0  0  0  0  0
  154.2256  141.7132  159.9618 O   0  0  0  0  0  0  0  0  0  0  0  0
  150.1206  140.5052  154.8520 C   0  0  0  0  0  0  0  0  0  0  0  0
  148.7831  140.6971  154.1722 C   0  0  1  0  0  0  0  0  0  0  0  0
  148.3614  139.5003  153.5512 O   0  0  0  0  0  0  0  0  0  0  0  0
  147.4550  140.2199  155.8258 H   0  0  0  0  0  0  0  0  0  0  0  0
  150.3835  142.6008  155.4781 H   0  0  0  0  0  0  0  0  0  0  0  0
  152.5971  141.0460  160.9513 H   0  0  0  0  0  0  0  0  0  0  0  0
  148.8541  141.4988  153.4357 H   0  0  0  0  0  0  0  0  0  0  0  0
  147.8395  143.6648  154.6317 H   0  0  0  0  0  0  0  0  0  0  0  0
  146.3278  142.5461  155.8727 H   0  0  0  0  0  0  0  0  0  0  0  0
  145.9618  141.5787  154.4549 H   0  0  0  0  0  0  0  0  0  0  0  0
  151.4839  139.3083  156.6289 H   0  0  0  0  0  0  0  0  0  0  0  0
  151.0623  145.3896  158.7717 H   0  0  0  0  0  0  0  0  0  0  0  0
  152.9337  145.0463  160.0408 H   0  0  0  0  0  0  0  0  0  0  0  0
  153.1823  143.4606  161.5412 H   0  0  0  0  0  0  0  0  0  0  0  0
  151.5003  143.1360  161.2093 H   0  0  0  0  0  0  0  0  0  0  0  0
  154.5952  141.1131  160.5917 H   0  0  0  0  0  0  0  0  0  0  0  0
  150.9799  140.6056  154.1882 H   0  0  0  0  0  0  0  0  0  0  0  0
  150.1682  139.5453  155.3699 H   0  0  0  0  0  0  0  0  0  0  0  0
  148.5967  139.5374  152.6368 H   0  0  0  0  0  0  0  0  0  0  0  0
  1  2  1  0  0  0  0
  1 24  1  0  0  0  0
  2  3  1  0  0  0  0
  2 25  1  0  0  0  0
  2 26  1  0  0  0  0
  3 20  1  0  0  0  0
  3 18  1  0  0  0  0
  3  4  1  0  0  0  0
  4  5  1  0  0  0  0
  5 21  1  0  0  0  0
  5  6  1  0  0  0  0
  5 17  1  0  0  0  0
  6 10  1  0  0  0  0
  6  7  1  0  0  0  0
  7  8  2  0  0  0  0
  7 27  1  0  0  0  0
  8  9  1  0  0  0  0
  9 15  1  0  0  0  0
  9 10  2  0  0  0  0
 10 11  1  0  0  0  0
 11 12  2  0  0  0  0
 12 13  1  0  0  0  0
 12 28  1  0  0  0  0
 13 14  1  0  0  0  0
 13 29  1  0  0  0  0
 14 15  1  0  0  0  0
 14 30  1  0  0  0  0
 14 31  1  0  0  0  0
 15 22  1  0  0  0  0
 15 16  1  0  0  0  0
 16 32  1  0  0  0  0
 17 18  1  0  0  0  0
 17 33  1  0  0  0  0
 17 34  1  0  0  0  0
 18 23  1  0  0  0  0
 18 19  1  0  0  0  0
 19 35  1  0  0  0  0
M  END
> <s_m_source_file>
AV-unprocessed.smi

> <i_m_source_file_index>
157

> <i_lp_mmshare_version>
43012

> <i_f3d_flags>
0

> <s_epik_input>
W09IXVtDSDJdW0NASF0xT1tDQEhdKFtDSDJdW0NAQEhdMVtPSF0pbihbY0hdbjIpYyhjMjMpTj1bQ0hdW05IXVtDSDJdW0NASF0zW09IXQ==

> <s_epik_cmdline>
J2VwaWtfcHl0aG9uJywgJy1waCcsICc3LjAnLCAnLXRuJywgJzgnLCAnLW1hJywgJzIwMCcsICctbWV0YWxfYmluZGluZycsICctaW1hZScsICc8aW5maWxlLm1hZT4nLCAnLW9tYWUnLCAnPG91dGZpbGUubWFlPic=

> <r_lp_tautomer_probability>
1

> <r_epik_Ionization_Penalty>
0.0357149

> <r_epik_Ionization_Penalty_Charging>
0.0355056

> <r_epik_Ionization_Penalty_Neutral>
0.000209255

> <r_epik_State_Penalty>
0.0296046

> <r_epik_Charging_Adjusted_Penalty>
0.0651102

> <i_epik_Tot_Q>
0

> <i_epik_Tot_abs_Q>
0

> <r_epik_Metal_State_Penalty>
3.03559e-05

> <b_epik_Metal_Only>
0

> <s_epik_Chemistry_Notes>
This compound has an imine and may undergo hydrolysis. This compound contains an acetal/aminal-like group ( X-CH(R)-Y where X, Y are N, S, or O) that may be acid/base labile, releasing an aldehyde.

> <s_lp_Force_Field>
OPLS_2005

> <r_lp_Energy>
43.9106

> <b_lp_Chiralities_Consistent>
1

> <s_lp_Variant>
AV-unprocessed.smi:157-14

> <Gold.Version>
5.8.1

> <Gold.Id.Protein>
6NUR|6NUR_protein|mol2

> <Gold.PLP.Fitness>
40.6221

> <Gold.PLP.PLP>
-35.3069

> <Gold.PLP.part.hbond>
-3.0000

> <Gold.PLP.part.metal>
0.0000

> <Gold.PLP.part.buried>
-3.6634

> <Gold.PLP.part.nonpolar>
-29.4089

> <Gold.PLP.part.repulsive>
0.6987

> <Gold.PLP.ligand.clash>
0.0000

> <Gold.PLP.ligand.torsion>
0.3498

> <Gold.PLP.Chemscore.Hbond>
2.0000

> <Gold.PLP.Chemscore.CHOScore>
0.0000

> <Gold.PLP.Chemscore.Metal>
0.0000

> <Gold.Chemscore.Hbonds>
donor molecule, donor type, donor heavy atom, donor atom, acceptor molecule, acceptor atom, score
      L1  H     1    24       P1  8028  1.00
      L1  H    19    35       P1  7957  1.00

> <Gold.PLP.Chemscore.Internal.Correction>
0.0148

> <Gold.Rescore>
     Score         DG    S(hbond)    S(metal)    S(lipo)     H(rot)  DE(clash)    DE(int)     intcor
      7.87      -8.59       1.81        0.00      54.47       3.64       0.47       0.25       ----

> <Gold.Chemscore.Fitness>
7.8718

> <Gold.Chemscore.DG>
-8.5892

> <Gold.Chemscore.ZeroCoef>
-5.4800

> <Gold.Chemscore.Hbond>
1.8099

> <Gold.Chemscore.Metal>
0.0000

> <Gold.Chemscore.Lipo>
54.4678

> <Gold.Chemscore.Internal_Hbond>
0.0000

> <Gold.Chemscore.DEClash>
0.4662

> <Gold.Chemscore.DEInternal>
0.2512

> <Gold.Chemscore.Rot>
3.6362

> <Gold.Chemscore.Internal.Correction>
   9.000000E+99

> <Gold.Chemscore.Hbonds>
donor molecule, donor type, donor heavy atom, donor atom, acceptor molecule, acceptor atom, score
      L1  H     1    24       P1  8028  0.45
      L1  H    19    35       P1  7957  0.99

> <Gold.Chemscore.Hbond.Weighted>
-6.0452

> <Gold.Chemscore.Metal.Weighted>
-0.0000

> <Gold.Chemscore.Lipo.Weighted>
-6.3727

> <Gold.Chemscore.Internal_Hbond.Weighted>
0.0000

> <Gold.Chemscore.DEClash.Weighted>
0.4662

> <Gold.Chemscore.DEInternal.Weighted>
0.2512

> <Gold.Chemscore.Rot.Weighted>
9.3087

> <Gold.Chemscore.Internal.Correction.Weighted>
   9.000000E+99

> <Gold.Protein.RotatedTorsions>
[ 6907 6896 6895 6894 ] final -131.07 input  -60.11 | X-H torsion
[ 7974 7965 7964 7962 ] final  120.86 input  175.53 | X-H torsion
[ 8008 7997 7996 7995 ] final  -54.16 input   59.86 | X-H torsion
[ 10167 10162 10161 10158 ] final  -30.53 input  -65.29 | X-H torsion
[ 10718 10713 10712 10709 ] final  170.03 input   66.30 | X-H torsion
[ 10763 10752 10751 10750 ] final  148.15 input  -60.55 | X-H torsion
[ 11005 11000 10999 10996 ] final  179.76 input  -57.11 | X-H torsion

> <Gold.Protein.ActiveResidues>
 VAL166  LYS551  ARG553  GLY616  TRP617  ASP618  TYR619  PRO620  LYS621  CYS622 
 ASP623  PHE694  ASN695  SER759  ASP760  ASP761  ALA762  ILE779  LEU786  VAL792 
 PHE793  MET794  SER795  GLU796  ALA797  LYS798  CYS799  TRP800  GLU811  SER814 

> <Gold.Protein.RotatedAtoms>
  150.9468  133.6593  159.2779 H   0  0  0  0  0  0  0  0  0  0  0  0  # atno 6907 bound_to 6896
  151.3963  135.0963  159.9551 H   0  0  0  0  0  0  0  0  0  0  0  0  # atno 6908 bound_to 6896
  152.5093  133.8972  159.7478 H   0  0  0  0  0  0  0  0  0  0  0  0  # atno 6909 bound_to 6896
  145.1261  139.3357  143.4689 H   0  0  0  0  0  0  0  0  0  0  0  0  # atno 7974 bound_to 7965
  154.4154  140.1183  156.5270 H   0  0  0  0  0  0  0  0  0  0  0  0  # atno 8008 bound_to 7997
  155.6644  140.3496  155.4775 H   0  0  0  0  0  0  0  0  0  0  0  0  # atno 8009 bound_to 7997
  155.9686  140.1137  157.0822 H   0  0  0  0  0  0  0  0  0  0  0  0  # atno 8010 bound_to 7997
  140.7248  143.3842  151.1546 H   0  0  0  0  0  0  0  0  0  0  0  0  # atno 10167 bound_to 10162
  157.0140  131.0212  151.2795 H   0  0  0  0  0  0  0  0  0  0  0  0  # atno 10718 bound_to 10713
  154.0501  135.2882  155.3342 H   0  0  0  0  0  0  0  0  0  0  0  0  # atno 10763 bound_to 10752
  154.6875  135.5239  153.8349 H   0  0  0  0  0  0  0  0  0  0  0  0  # atno 10764 bound_to 10752
  153.0564  135.6597  154.0698 H   0  0  0  0  0  0  0  0  0  0  0  0  # atno 10765 bound_to 10752
  140.4098  134.6702  157.4608 H   0  0  0  0  0  0  0  0  0  0  0  0  # atno 11005 bound_to 11000
  146.3517  140.1241  142.8599 LP  0  0  0  0  0  0  0  0  0  0  0  0  # atno 17320 bound_to 7965
  145.0686  140.9139  143.4895 LP  0  0  0  0  0  0  0  0  0  0  0  0  # atno 17321 bound_to 7965
  139.7436  143.8886  152.3057 LP  0  0  0  0  0  0  0  0  0  0  0  0  # atno 17342 bound_to 10162
  139.8716  144.7065  150.8981 LP  0  0  0  0  0  0  0  0  0  0  0  0  # atno 17343 bound_to 10162
  157.5299  130.8052  149.7905 LP  0  0  0  0  0  0  0  0  0  0  0  0  # atno 17370 bound_to 10713
  156.0126  130.3827  150.2215 LP  0  0  0  0  0  0  0  0  0  0  0  0  # atno 17371 bound_to 10713
  140.0276  134.6454  155.9151 LP  0  0  0  0  0  0  0  0  0  0  0  0  # atno 17394 bound_to 11000
  141.1825  133.6549  156.5081 LP  0  0  0  0  0  0  0  0  0  0  0  0  # atno 17395 bound_to 11000

$$$$
