AV-unprocessed.smi:1601|AV-procd|sdf|6435|dock10
  -GOLD-   22720 7 83D 1   1.00000     0.00000
 Structure written by MMmdl.
 42 43  0  0  0  0  0  0  0  0  2 V2000
  144.4696  137.8933  153.4690 C   0  0  0  0  0  0  0  0  0  0  0  0
  145.9270  137.4064  153.2758 C   0  0  2  0  0  0  0  0  0  0  0  0
  146.8227  138.5555  152.7323 C   0  0  0  0  0  0  0  0  0  0  0  0
  148.2287  138.4210  153.1061 N   0  0  0  0  0  0  0  0  0  0  0  0
  148.6904  138.2181  154.3515 C   0  0  0  0  0  0  0  0  0  0  0  0
  147.9517  138.0852  155.3278 O   0  0  0  0  0  0  0  0  0  0  0  0
  150.2188  138.1454  154.5048 C   0  0  2  0  0  0  0  0  0  0  0  0
  150.7342  136.7078  154.7206 C   0  0  0  0  0  0  0  0  0  0  0  0
  150.6709  139.0504  155.5553 N   0  0  0  0  0  0  0  0  0  0  0  0
  151.4356  138.7494  156.6644 C   0  0  0  0  0  0  0  0  0  0  0  0
  151.6384  139.9116  157.3517 C   0  0  0  0  0  0  0  0  0  0  0  0
  150.9585  140.8881  156.5722 C   0  0  0  0  0  0  0  0  0  0  0  0
  150.3867  140.3726  155.4966 N   0  0  0  0  0  0  0  0  0  0  0  0
  145.9830  136.1817  152.4070 N   0  3  0  0  0  0  0  0  0  0  0  0
  145.6448  134.9130  153.1132 C   0  0  0  0  0  0  0  0  0  0  0  0
  145.7263  133.6998  152.1709 C   0  0  0  0  0  0  0  0  0  0  0  0
  144.8712  133.8974  151.0569 O   0  0  0  0  0  0  0  0  0  0  0  0
  145.2699  135.0288  150.3006 C   0  0  0  0  0  0  0  0  0  0  0  0
  145.1629  136.2946  151.1673 C   0  0  0  0  0  0  0  0  0  0  0  0
  144.4158  138.8017  154.0677 H   0  0  0  0  0  0  0  0  0  0  0  0
  143.8547  137.1728  154.0052 H   0  0  0  0  0  0  0  0  0  0  0  0
  143.9927  138.1031  152.5112 H   0  0  0  0  0  0  0  0  0  0  0  0
  146.3157  137.1281  154.2568 H   0  0  0  0  0  0  0  0  0  0  0  0
  146.8320  138.5554  151.6434 H   0  0  0  0  0  0  0  0  0  0  0  0
  146.4224  139.5238  153.0377 H   0  0  0  0  0  0  0  0  0  0  0  0
  148.9070  138.5145  152.3637 H   0  0  0  0  0  0  0  0  0  0  0  0
  150.6497  138.5009  153.5672 H   0  0  0  0  0  0  0  0  0  0  0  0
  150.4342  136.0545  153.9005 H   0  0  0  0  0  0  0  0  0  0  0  0
  150.3569  136.2709  155.6462 H   0  0  0  0  0  0  0  0  0  0  0  0
  151.8233  136.6907  154.7689 H   0  0  0  0  0  0  0  0  0  0  0  0
  151.7684  137.7429  156.8713 H   0  0  0  0  0  0  0  0  0  0  0  0
  152.1910  140.0441  158.2698 H   0  0  0  0  0  0  0  0  0  0  0  0
  150.8670  141.9491  156.7523 H   0  0  0  0  0  0  0  0  0  0  0  0
  146.3376  134.7224  153.9310 H   0  0  0  0  0  0  0  0  0  0  0  0
  144.6440  134.9878  153.5415 H   0  0  0  0  0  0  0  0  0  0  0  0
  146.7517  133.5338  151.8361 H   0  0  0  0  0  0  0  0  0  0  0  0
  145.4152  132.7970  152.6966 H   0  0  0  0  0  0  0  0  0  0  0  0
  146.2863  134.8958  149.9259 H   0  0  0  0  0  0  0  0  0  0  0  0
  144.6202  135.1157  149.4295 H   0  0  0  0  0  0  0  0  0  0  0  0
  144.1204  136.4755  151.4340 H   0  0  0  0  0  0  0  0  0  0  0  0
  145.4885  137.1308  150.5522 H   0  0  0  0  0  0  0  0  0  0  0  0
  146.9435  136.0892  152.1080 H   0  0  0  0  0  0  0  0  0  0  0  0
  1  2  1  0  0  0  0
  1 20  1  0  0  0  0
  1 21  1  0  0  0  0
  1 22  1  0  0  0  0
  2  3  1  0  0  0  0
  2 14  1  0  0  0  0
  2 23  1  0  0  0  0
  3  4  1  0  0  0  0
  3 24  1  0  0  0  0
  3 25  1  0  0  0  0
  4  5  1  0  0  0  0
  4 26  1  0  0  0  0
  5  6  2  0  0  0  0
  5  7  1  0  0  0  0
  7  8  1  0  0  0  0
  7  9  1  0  0  0  0
  7 27  1  0  0  0  0
  8 28  1  0  0  0  0
  8 29  1  0  0  0  0
  8 30  1  0  0  0  0
  9 13  1  0  0  0  0
  9 10  1  0  0  0  0
 10 11  2  0  0  0  0
 10 31  1  0  0  0  0
 11 12  1  0  0  0  0
 11 32  1  0  0  0  0
 12 13  2  0  0  0  0
 12 33  1  0  0  0  0
 14 19  1  0  0  0  0
 14 15  1  0  0  0  0
 14 42  1  0  0  0  0
 15 16  1  0  0  0  0
 15 34  1  0  0  0  0
 15 35  1  0  0  0  0
 16 17  1  0  0  0  0
 16 36  1  0  0  0  0
 16 37  1  0  0  0  0
 17 18  1  0  0  0  0
 18 19  1  0  0  0  0
 18 38  1  0  0  0  0
 18 39  1  0  0  0  0
 19 40  1  0  0  0  0
 19 41  1  0  0  0  0
M  CHG  1  14   1
M  END
> <s_m_source_file>
AV-unprocessed.smi

> <i_m_source_file_index>
1601

> <i_lp_mmshare_version>
43012

> <i_f3d_flags>
0

> <s_epik_input>
W0NIMl0xW0NIMl1PW0NIMl1bQ0gyXU4xW0NASF0oW0NIM10pW0NIMl1bTkhdQyg9TylbQ0BIXShbQ0gzXSluMltjSF1bY0hdW2NIXW4y

> <s_epik_cmdline>
J2VwaWtfcHl0aG9uJywgJy1waCcsICc3LjAnLCAnLXRuJywgJzgnLCAnLW1hJywgJzIwMCcsICctbWV0YWxfYmluZGluZycsICctaW1hZScsICc8aW5maWxlLm1hZT4nLCAnLW9tYWUnLCAnPG91dGZpbGUubWFlPic=

> <r_lp_tautomer_probability>
1

> <r_epik_Ionization_Penalty>
0.732551

> <r_epik_Ionization_Penalty_Charging>
0.732531

> <r_epik_Ionization_Penalty_Neutral>
2.04647e-05

> <r_epik_State_Penalty>
0.757939

> <r_epik_Charging_Adjusted_Penalty>
1.49047

> <i_epik_Tot_Q>
1

> <i_epik_Tot_abs_Q>
1

> <r_epik_Metal_State_Penalty>
0.757952

> <b_epik_Metal_Only>
0

> <s_lp_Force_Field>
OPLS_2005

> <r_lp_Energy>
26.1921

> <b_lp_Chiralities_Consistent>
1

> <s_lp_Variant>
AV-unprocessed.smi:1601-5

> <Gold.Version>
5.8.1

> <Gold.Id.Protein>
6NUR|6NUR_protein|mol2

> <Gold.PLP.Fitness>
42.8792

> <Gold.PLP.PLP>
-32.5893

> <Gold.PLP.part.hbond>
-4.0000

> <Gold.PLP.part.metal>
0.0000

> <Gold.PLP.part.buried>
-2.2098

> <Gold.PLP.part.nonpolar>
-26.3536

> <Gold.PLP.part.repulsive>
0.3632

> <Gold.PLP.ligand.clash>
0.0000

> <Gold.PLP.ligand.torsion>
0.9300

> <Gold.PLP.Chemscore.Hbond>
3.0000

> <Gold.PLP.Chemscore.CHOScore>
1.0000

> <Gold.PLP.Chemscore.Metal>
0.0000

> <Gold.Chemscore.Hbonds>
donor molecule, donor type, donor heavy atom, donor atom, acceptor molecule, acceptor atom, score
      L1  H     4    26       P1  7957  0.73
      L1  H    14    42       P1  7948  2.00
      P1  H  7989  7998       L1    13  0.06

> <Gold.PLP.Chemscore.Internal.Correction>
0.1499

> <Gold.Rescore>
     Score         DG    S(hbond)    S(metal)    S(lipo)     H(rot)  DE(clash)    DE(int)     intcor
     12.95     -15.16       1.98        0.00      66.94       1.86       0.21       2.00       ----

> <Gold.Chemscore.Fitness>
12.9503

> <Gold.Chemscore.DG>
-15.1563

> <Gold.Chemscore.ZeroCoef>
-5.4800

> <Gold.Chemscore.Hbond>
1.9801

> <Gold.Chemscore.Metal>
0.0000

> <Gold.Chemscore.Lipo>
66.9446

> <Gold.Chemscore.Internal_Hbond>
0.0000

> <Gold.Chemscore.DEClash>
0.2101

> <Gold.Chemscore.DEInternal>
1.9959

> <Gold.Chemscore.Rot>
1.8631

> <Gold.Chemscore.Internal.Correction>
   9.000000E+99

> <Gold.Chemscore.Hbonds>
donor molecule, donor type, donor heavy atom, donor atom, acceptor molecule, acceptor atom, score
      L1  H     4    26       P1  7957  0.53
      L1  H    14    42       P1  7948  0.95
      P1  H  7989  7998       L1    13  0.02

> <Gold.Chemscore.Hbond.Weighted>
-6.6134

> <Gold.Chemscore.Metal.Weighted>
-0.0000

> <Gold.Chemscore.Lipo.Weighted>
-7.8325

> <Gold.Chemscore.Internal_Hbond.Weighted>
0.0000

> <Gold.Chemscore.DEClash.Weighted>
0.2101

> <Gold.Chemscore.DEInternal.Weighted>
1.9959

> <Gold.Chemscore.Rot.Weighted>
4.7697

> <Gold.Chemscore.Internal.Correction.Weighted>
   9.000000E+99

> <Gold.Protein.RotatedTorsions>
[ 6907 6896 6895 6894 ] final   62.89 input  -60.11 | X-H torsion
[ 7974 7965 7964 7962 ] final  -64.46 input  175.53 | X-H torsion
[ 8008 7997 7996 7995 ] final  129.60 input   59.86 | X-H torsion
[ 10167 10162 10161 10158 ] final  -24.58 input  -65.29 | X-H torsion
[ 10718 10713 10712 10709 ] final   99.41 input   66.30 | X-H torsion
[ 10763 10752 10751 10750 ] final  171.97 input  -60.55 | X-H torsion
[ 11005 11000 10999 10996 ] final   15.36 input  -57.11 | X-H torsion

> <Gold.Protein.ActiveResidues>
 VAL166  LYS551  ARG553  GLY616  TRP617  ASP618  TYR619  PRO620  LYS621  CYS622 
 ASP623  PHE694  ASN695  SER759  ASP760  ASP761  ALA762  ILE779  LEU786  VAL792 
 PHE793  MET794  SER795  GLU796  ALA797  LYS798  CYS799  TRP800  GLU811  SER814 

> <Gold.Protein.RotatedAtoms>
  152.4209  134.5957  159.9986 H   0  0  0  0  0  0  0  0  0  0  0  0  # atno 6907 bound_to 6896
  151.6107  133.3342  159.3075 H   0  0  0  0  0  0  0  0  0  0  0  0  # atno 6908 bound_to 6896
  150.8097  134.7283  159.6742 H   0  0  0  0  0  0  0  0  0  0  0  0  # atno 6909 bound_to 6896
  145.7665  140.8835  143.0402 H   0  0  0  0  0  0  0  0  0  0  0  0  # atno 7974 bound_to 7965
  156.2939  140.2616  156.2625 H   0  0  0  0  0  0  0  0  0  0  0  0  # atno 8008 bound_to 7997
  154.9774  140.0390  157.2281 H   0  0  0  0  0  0  0  0  0  0  0  0  # atno 8009 bound_to 7997
  154.7803  140.2794  155.6074 H   0  0  0  0  0  0  0  0  0  0  0  0  # atno 8010 bound_to 7997
  140.7288  143.4340  151.0757 H   0  0  0  0  0  0  0  0  0  0  0  0  # atno 10167 bound_to 10162
  157.6876  131.0668  150.4943 H   0  0  0  0  0  0  0  0  0  0  0  0  # atno 10718 bound_to 10713
  154.4194  135.2757  155.1985 H   0  0  0  0  0  0  0  0  0  0  0  0  # atno 10763 bound_to 10752
  154.3937  135.6060  153.5861 H   0  0  0  0  0  0  0  0  0  0  0  0  # atno 10764 bound_to 10752
  152.9832  135.5909  154.4488 H   0  0  0  0  0  0  0  0  0  0  0  0  # atno 10765 bound_to 10752
  140.4591  134.1145  155.7714 H   0  0  0  0  0  0  0  0  0  0  0  0  # atno 11005 bound_to 11000
  144.6820  139.9795  143.7483 LP  0  0  0  0  0  0  0  0  0  0  0  0  # atno 17320 bound_to 7965
  146.0213  139.3253  143.0811 LP  0  0  0  0  0  0  0  0  0  0  0  0  # atno 17321 bound_to 7965
  139.8000  143.8097  152.3162 LP  0  0  0  0  0  0  0  0  0  0  0  0  # atno 17342 bound_to 10162
  139.8110  144.7336  150.9697 LP  0  0  0  0  0  0  0  0  0  0  0  0  # atno 17343 bound_to 10162
  156.5268  130.4175  149.6222 LP  0  0  0  0  0  0  0  0  0  0  0  0  # atno 17370 bound_to 10713
  156.3105  130.7226  151.2117 LP  0  0  0  0  0  0  0  0  0  0  0  0  # atno 17371 bound_to 10713
  141.1629  133.8758  157.1797 LP  0  0  0  0  0  0  0  0  0  0  0  0  # atno 17394 bound_to 11000
  139.9957  135.0048  157.0076 LP  0  0  0  0  0  0  0  0  0  0  0  0  # atno 17395 bound_to 11000

$$$$
