AV-unprocessed.smi:131|AV-procd|sdf|1162|dock10
  -GOLD-   2262018303D 1   1.00000     0.00000
 Structure written by MMmdl.
 55 58  0  0  0  0  0  0  0  0  1 V2000
  151.6476  136.0376  155.6352 O   0  0  0  0  0  0  0  0  0  0  0  0
  151.2691  137.1473  156.0076 C   0  0  0  0  0  0  0  0  0  0  0  0
  152.0923  138.3784  155.5858 C   0  0  0  0  0  0  0  0  0  0  0  0
  151.4885  139.6892  155.9214 N   0  0  0  0  0  0  0  0  0  0  0  0
  150.4823  140.2117  155.0713 C   0  0  0  0  0  0  0  0  0  0  0  0
  150.1038  139.5930  154.0759 O   0  0  0  0  0  0  0  0  0  0  0  0
  149.9331  141.5042  155.4653 C   0  0  0  0  0  0  0  0  0  0  0  0
  148.9721  142.0740  154.7187 F   0  0  0  0  0  0  0  0  0  0  0  0
  150.3714  142.1376  156.5727 C   0  0  0  0  0  0  0  0  0  0  0  0
  151.3549  141.6157  157.3945 N   0  0  0  0  0  0  0  0  0  0  0  0
  151.8264  142.3332  158.6430 C   0  0  1  0  0  0  0  0  0  0  0  0
  152.4999  143.6714  158.2805 C   0  0  0  0  0  0  0  0  0  0  0  0
  151.7620  144.6679  159.1530 C   0  0  0  0  0  0  0  0  0  0  0  0
  150.3987  144.0101  159.3008 C   0  0  0  0  0  0  0  0  0  0  0  0
  150.7315  142.6374  159.4595 O   0  0  0  0  0  0  0  0  0  0  0  0
  151.9272  140.3623  157.0864 C   0  0  0  0  0  0  0  0  0  0  0  0
  152.7838  139.8661  157.8213 O   0  0  0  0  0  0  0  0  0  0  0  0
  150.1863  137.3525  156.7840 N   0  0  0  0  0  0  0  0  0  0  0  0
  149.2677  136.3979  157.2949 C   0  0  0  0  0  0  0  0  0  0  0  0
  148.1934  136.8856  158.0694 C   0  0  0  0  0  0  0  0  0  0  0  0
  147.2325  136.0014  158.5968 C   0  0  0  0  0  0  0  0  0  0  0  0
  147.3394  134.6222  158.3332 C   0  0  0  0  0  0  0  0  0  0  0  0
  146.1386  133.4848  159.0125 S   0  0  0  0  0  0  0  0  0  0  0  0
  144.7803  133.9676  158.7172 O   0  0  0  0  0  0  0  0  0  0  0  0
  146.5450  132.1258  158.6218 O   0  0  0  0  0  0  0  0  0  0  0  0
  146.3982  133.6365  160.7176 N   0  0  0  0  0  0  0  0  0  0  0  0
  145.2407  133.6785  161.6198 C   0  0  0  0  0  0  0  0  0  0  0  0
  145.5164  134.8295  162.5888 C   0  0  0  0  0  0  0  0  0  0  0  0
  147.0367  134.8961  162.6363 C   0  0  0  0  0  0  0  0  0  0  0  0
  147.4464  134.5398  161.2079 C   0  0  0  0  0  0  0  0  0  0  0  0
  148.3962  134.1233  157.5478 C   0  0  0  0  0  0  0  0  0  0  0  0
  149.3563  135.0102  157.0240 C   0  0  0  0  0  0  0  0  0  0  0  0
  153.0851  138.2868  156.0290 H   0  0  0  0  0  0  0  0  0  0  0  0
  152.2829  138.3038  154.5140 H   0  0  0  0  0  0  0  0  0  0  0  0
  149.9189  143.0883  156.8097 H   0  0  0  0  0  0  0  0  0  0  0  0
  152.4809  141.6276  159.1579 H   0  0  0  0  0  0  0  0  0  0  0  0
  153.5711  143.6366  158.4816 H   0  0  0  0  0  0  0  0  0  0  0  0
  152.3443  143.9014  157.2252 H   0  0  0  0  0  0  0  0  0  0  0  0
  152.2464  144.7461  160.1271 H   0  0  0  0  0  0  0  0  0  0  0  0
  151.7103  145.6648  158.7144 H   0  0  0  0  0  0  0  0  0  0  0  0
  149.8362  144.3886  160.1545 H   0  0  0  0  0  0  0  0  0  0  0  0
  149.7989  144.1525  158.4007 H   0  0  0  0  0  0  0  0  0  0  0  0
  150.0468  138.3008  157.1011 H   0  0  0  0  0  0  0  0  0  0  0  0
  148.1063  137.9438  158.2696 H   0  0  0  0  0  0  0  0  0  0  0  0
  146.4206  136.3857  159.1962 H   0  0  0  0  0  0  0  0  0  0  0  0
  144.3118  133.8314  161.0691 H   0  0  0  0  0  0  0  0  0  0  0  0
  145.1722  132.7271  162.1482 H   0  0  0  0  0  0  0  0  0  0  0  0
  145.1188  135.7599  162.1810 H   0  0  0  0  0  0  0  0  0  0  0  0
  145.0677  134.6729  163.5703 H   0  0  0  0  0  0  0  0  0  0  0  0
  147.4090  135.8709  162.9526 H   0  0  0  0  0  0  0  0  0  0  0  0
  147.4191  134.1468  163.3306 H   0  0  0  0  0  0  0  0  0  0  0  0
  148.4259  134.0634  161.1583 H   0  0  0  0  0  0  0  0  0  0  0  0
  147.4710  135.4381  160.5902 H   0  0  0  0  0  0  0  0  0  0  0  0
  148.4695  133.0652  157.3427 H   0  0  0  0  0  0  0  0  0  0  0  0
  150.1438  134.6067  156.4065 H   0  0  0  0  0  0  0  0  0  0  0  0
  1  2  2  0  0  0  0
  2  3  1  0  0  0  0
  2 18  1  0  0  0  0
  3  4  1  0  0  0  0
  3 33  1  0  0  0  0
  3 34  1  0  0  0  0
  4 16  1  0  0  0  0
  4  5  1  0  0  0  0
  5  6  2  0  0  0  0
  5  7  1  0  0  0  0
  7  8  1  0  0  0  0
  7  9  2  0  0  0  0
  9 10  1  0  0  0  0
  9 35  1  0  0  0  0
 10 11  1  0  0  0  0
 10 16  1  0  0  0  0
 11 15  1  0  0  0  0
 11 12  1  0  0  0  0
 11 36  1  0  0  0  0
 12 13  1  0  0  0  0
 12 37  1  0  0  0  0
 12 38  1  0  0  0  0
 13 14  1  0  0  0  0
 13 39  1  0  0  0  0
 13 40  1  0  0  0  0
 14 15  1  0  0  0  0
 14 41  1  0  0  0  0
 14 42  1  0  0  0  0
 16 17  2  0  0  0  0
 18 19  1  0  0  0  0
 18 43  1  0  0  0  0
 19 32  1  0  0  0  0
 19 20  2  0  0  0  0
 20 21  1  0  0  0  0
 20 44  1  0  0  0  0
 21 22  2  0  0  0  0
 21 45  1  0  0  0  0
 22 23  1  0  0  0  0
 22 31  1  0  0  0  0
 23 24  2  0  0  0  0
 23 25  2  0  0  0  0
 23 26  1  0  0  0  0
 26 30  1  0  0  0  0
 26 27  1  0  0  0  0
 27 28  1  0  0  0  0
 27 46  1  0  0  0  0
 27 47  1  0  0  0  0
 28 29  1  0  0  0  0
 28 48  1  0  0  0  0
 28 49  1  0  0  0  0
 29 30  1  0  0  0  0
 29 50  1  0  0  0  0
 29 51  1  0  0  0  0
 30 52  1  0  0  0  0
 30 53  1  0  0  0  0
 31 32  2  0  0  0  0
 31 54  1  0  0  0  0
 32 55  1  0  0  0  0
M  END
> <s_m_source_file>
AV-unprocessed.smi

> <i_m_source_file_index>
131

> <i_lp_mmshare_version>
43012

> <i_f3d_flags>
0

> <s_epik_input>
W0NIMl0xW0NIMl1bQ0gyXVtDSDJdTjFTKD1PKSg9TyljKFtjSF1bY0hdMilbY0hdW2NIXWMyW05IXUMoPU8pW0NIMl1uM2MoPU8pYyhGKVtjSF1uKGMzPU8pW0NAQEhdNFtDSDJdW0NIMl1bQ0gyXU80

> <s_epik_cmdline>
J2VwaWtfcHl0aG9uJywgJy1waCcsICc3LjAnLCAnLXRuJywgJzgnLCAnLW1hJywgJzIwMCcsICctbWV0YWxfYmluZGluZycsICctaW1hZScsICc8aW5maWxlLm1hZT4nLCAnLW9tYWUnLCAnPG91dGZpbGUubWFlPic=

> <r_lp_tautomer_probability>
1

> <r_epik_Ionization_Penalty>
1.92533e-06

> <r_epik_Ionization_Penalty_Charging>
3.88729e-08

> <r_epik_Ionization_Penalty_Neutral>
1.88646e-06

> <r_epik_State_Penalty>
-0

> <r_epik_Charging_Adjusted_Penalty>
3.88729e-08

> <i_epik_Tot_Q>
0

> <i_epik_Tot_abs_Q>
0

> <r_epik_Metal_State_Penalty>
-0

> <b_epik_Metal_Only>
0

> <s_epik_Chemistry_Notes>
This compound contains an acetal/aminal-like group ( X-CH(R)-Y where X, Y are N, S, or O) that may be acid/base labile, releasing an aldehyde.

> <s_lp_Force_Field>
OPLS_2005

> <r_lp_Energy>
42.789

> <b_lp_Chiralities_Consistent>
1

> <s_lp_Variant>
AV-unprocessed.smi:131-2

> <Gold.Version>
5.8.1

> <Gold.Id.Protein>
6NUR|6NUR_protein|mol2

> <Gold.PLP.Fitness>
56.6923

> <Gold.PLP.PLP>
-48.7528

> <Gold.PLP.part.hbond>
-3.8625

> <Gold.PLP.part.metal>
0.0000

> <Gold.PLP.part.buried>
-3.0405

> <Gold.PLP.part.nonpolar>
-43.2114

> <Gold.PLP.part.repulsive>
0.2799

> <Gold.PLP.ligand.clash>
0.0009

> <Gold.PLP.ligand.torsion>
1.8536

> <Gold.PLP.Chemscore.Hbond>
2.0000

> <Gold.PLP.Chemscore.CHOScore>
1.0000

> <Gold.PLP.Chemscore.Metal>
0.0000

> <Gold.Chemscore.Hbonds>
donor molecule, donor type, donor heavy atom, donor atom, acceptor molecule, acceptor atom, score
      P1  H  7997  8010       L1    17  1.00
      P1  H 10752 10765       L1     1  1.00
      L1  C     9    35       P1  8028  1.00

> <Gold.PLP.Chemscore.Internal.Correction>
2.6476

> <Gold.Rescore>
     Score         DG    S(hbond)    S(metal)    S(lipo)     H(rot)  DE(clash)    DE(int)     intcor
     15.14     -18.73       1.86        0.00     102.25       1.92       0.55       3.04       ----

> <Gold.Chemscore.Fitness>
15.1426

> <Gold.Chemscore.DG>
-18.7342

> <Gold.Chemscore.ZeroCoef>
-5.4800

> <Gold.Chemscore.Hbond>
1.8555

> <Gold.Chemscore.Metal>
0.0000

> <Gold.Chemscore.Lipo>
102.2504

> <Gold.Chemscore.Internal_Hbond>
0.0000

> <Gold.Chemscore.DEClash>
0.5501

> <Gold.Chemscore.DEInternal>
3.0415

> <Gold.Chemscore.Rot>
1.9166

> <Gold.Chemscore.Internal.Correction>
   9.000000E+99

> <Gold.Chemscore.Hbonds>
donor molecule, donor type, donor heavy atom, donor atom, acceptor molecule, acceptor atom, score
      P1  H  7997  8010       L1    17  0.68
      P1  H 10752 10765       L1     1  0.99

> <Gold.Chemscore.Hbond.Weighted>
-6.1972

> <Gold.Chemscore.Metal.Weighted>
-0.0000

> <Gold.Chemscore.Lipo.Weighted>
-11.9633

> <Gold.Chemscore.Internal_Hbond.Weighted>
0.0000

> <Gold.Chemscore.DEClash.Weighted>
0.5501

> <Gold.Chemscore.DEInternal.Weighted>
3.0415

> <Gold.Chemscore.Rot.Weighted>
4.9064

> <Gold.Chemscore.Internal.Correction.Weighted>
   9.000000E+99

> <Gold.Protein.RotatedTorsions>
[ 6907 6896 6895 6894 ] final  124.09 input  -60.11 | X-H torsion
[ 7974 7965 7964 7962 ] final -178.65 input  175.53 | X-H torsion
[ 8008 7997 7996 7995 ] final   38.16 input   59.86 | X-H torsion
[ 10167 10162 10161 10158 ] final   -1.46 input  -65.29 | X-H torsion
[ 10718 10713 10712 10709 ] final  -29.02 input   66.30 | X-H torsion
[ 10763 10752 10751 10750 ] final -150.08 input  -60.55 | X-H torsion
[ 11005 11000 10999 10996 ] final  -74.66 input  -57.11 | X-H torsion

> <Gold.Protein.ActiveResidues>
 VAL166  LYS551  ARG553  GLY616  TRP617  ASP618  TYR619  PRO620  LYS621  CYS622 
 ASP623  PHE694  ASN695  SER759  ASP760  ASP761  ALA762  ILE779  LEU786  VAL792 
 PHE793  MET794  SER795  GLU796  ALA797  LYS798  CYS799  TRP800  GLU811  SER814 

> <Gold.Protein.RotatedAtoms>
  152.4107  133.6959  159.6395 H   0  0  0  0  0  0  0  0  0  0  0  0  # atno 6907 bound_to 6896
  150.7988  133.8629  159.3245 H   0  0  0  0  0  0  0  0  0  0  0  0  # atno 6908 bound_to 6896
  151.6372  135.1018  160.0185 H   0  0  0  0  0  0  0  0  0  0  0  0  # atno 6909 bound_to 6896
  144.7132  140.0836  143.6424 H   0  0  0  0  0  0  0  0  0  0  0  0  # atno 7974 bound_to 7965
  155.2156  140.3327  155.4322 H   0  0  0  0  0  0  0  0  0  0  0  0  # atno 8008 bound_to 7997
  156.2353  140.1869  156.7182 H   0  0  0  0  0  0  0  0  0  0  0  0  # atno 8009 bound_to 7997
  154.6049  140.0617  156.9403 H   0  0  0  0  0  0  0  0  0  0  0  0  # atno 8010 bound_to 7997
  140.6811  143.6773  150.8135 H   0  0  0  0  0  0  0  0  0  0  0  0  # atno 10167 bound_to 10162
  156.4178  130.4420  149.7205 H   0  0  0  0  0  0  0  0  0  0  0  0  # atno 10718 bound_to 10713
  154.8140  135.3293  154.7228 H   0  0  0  0  0  0  0  0  0  0  0  0  # atno 10763 bound_to 10752
  153.7872  135.6914  153.4882 H   0  0  0  0  0  0  0  0  0  0  0  0  # atno 10764 bound_to 10752
  153.1941  135.4540  155.0132 H   0  0  0  0  0  0  0  0  0  0  0  0  # atno 10765 bound_to 10752
  141.1637  133.6919  156.7398 H   0  0  0  0  0  0  0  0  0  0  0  0  # atno 11005 bound_to 11000
  145.9680  139.2849  143.1115 LP  0  0  0  0  0  0  0  0  0  0  0  0  # atno 17320 bound_to 7965
  145.9147  140.9156  143.0436 LP  0  0  0  0  0  0  0  0  0  0  0  0  # atno 17321 bound_to 7965
  140.0474  143.5285  152.2690 LP  0  0  0  0  0  0  0  0  0  0  0  0  # atno 17342 bound_to 10162
  139.6134  144.7614  151.2901 LP  0  0  0  0  0  0  0  0  0  0  0  0  # atno 17343 bound_to 10162
  156.4158  130.7744  151.2760 LP  0  0  0  0  0  0  0  0  0  0  0  0  # atno 17370 bound_to 10713
  157.7508  131.0197  150.3680 LP  0  0  0  0  0  0  0  0  0  0  0  0  # atno 17371 bound_to 10713
  140.2683  134.8412  157.3823 LP  0  0  0  0  0  0  0  0  0  0  0  0  # atno 17394 bound_to 11000
  140.1546  134.4806  155.7937 LP  0  0  0  0  0  0  0  0  0  0  0  0  # atno 17395 bound_to 11000

$$$$
