AV-unprocessed.smi:2226|AV-procd|sdf|9003|dock1
  -GOLD-   2272012213D 1   1.00000     0.00000
 Structure written by MMmdl.
 40 42  0  0  0  0  0  0  0  0  2 V2000
  144.8738  142.3987  154.9982 C   0  0  0  0  0  0  0  0  0  0  0  0
  145.6028  141.1754  154.5867 N   0  3  2  0  0  0  0  0  0  0  0  0
  145.9335  140.2445  155.6931 C   0  0  2  0  0  0  0  0  0  0  0  0
  147.0274  140.8353  156.6184 C   0  0  0  0  0  0  0  0  0  0  0  0
  148.2830  141.3257  155.8728 C   0  0  0  0  0  0  0  0  0  0  0  0
  147.9422  142.0699  154.5676 C   0  0  0  0  0  0  0  0  0  0  0  0
  146.8013  141.4161  153.7471 C   0  0  1  0  0  0  0  0  0  0  0  0
  147.1859  140.0977  153.0363 C   0  0  0  0  0  0  0  0  0  0  0  0
  147.3423  138.8819  153.9816 C   0  0  2  0  0  0  0  0  0  0  0  0
  147.2530  137.6493  153.1996 N   0  0  0  0  0  0  0  0  0  0  0  0
  146.1210  137.0352  152.8231 C   0  0  0  0  0  0  0  0  0  0  0  0
  144.9949  137.4488  153.0994 O   0  0  0  0  0  0  0  0  0  0  0  0
  146.3832  135.9243  152.1143 N   0  0  0  0  0  0  0  0  0  0  0  0
  145.4477  135.0200  151.5513 C   0  0  0  0  0  0  0  0  0  0  0  0
  145.7142  134.0309  150.6973 N   0  0  0  0  0  0  0  0  0  0  0  0
  144.4824  133.4438  150.4472 C   0  0  0  0  0  0  0  0  0  0  0  0
  143.5327  134.1177  151.1711 C   0  0  0  0  0  0  0  0  0  0  0  0
  144.1327  135.1242  151.8792 O   0  0  0  0  0  0  0  0  0  0  0  0
  146.2678  138.8579  155.0957 C   0  0  0  0  0  0  0  0  0  0  0  0
  145.4706  143.0374  155.6484 H   0  0  0  0  0  0  0  0  0  0  0  0
  143.9601  142.1345  155.5310 H   0  0  0  0  0  0  0  0  0  0  0  0
  144.5876  142.9821  154.1226 H   0  0  0  0  0  0  0  0  0  0  0  0
  145.0346  140.1120  156.2969 H   0  0  0  0  0  0  0  0  0  0  0  0
  146.6049  141.6758  157.1696 H   0  0  0  0  0  0  0  0  0  0  0  0
  147.3112  140.1060  157.3777 H   0  0  0  0  0  0  0  0  0  0  0  0
  148.8593  141.9826  156.5252 H   0  0  0  0  0  0  0  0  0  0  0  0
  148.9517  140.4936  155.6702 H   0  0  0  0  0  0  0  0  0  0  0  0
  147.6532  143.0906  154.8195 H   0  0  0  0  0  0  0  0  0  0  0  0
  148.8383  142.1668  153.9540 H   0  0  0  0  0  0  0  0  0  0  0  0
  146.5221  142.1201  152.9619 H   0  0  0  0  0  0  0  0  0  0  0  0
  146.3995  139.8770  152.3126 H   0  0  0  0  0  0  0  0  0  0  0  0
  148.0954  140.2346  152.4500 H   0  0  0  0  0  0  0  0  0  0  0  0
  148.3221  138.9323  154.4487 H   0  0  0  0  0  0  0  0  0  0  0  0
  148.1272  137.2281  152.9214 H   0  0  0  0  0  0  0  0  0  0  0  0
  147.3546  135.6990  151.9592 H   0  0  0  0  0  0  0  0  0  0  0  0
  144.3793  132.6006  149.7802 H   0  0  0  0  0  0  0  0  0  0  0  0
  142.4637  134.0145  151.2848 H   0  0  0  0  0  0  0  0  0  0  0  0
  146.5638  138.1664  155.8856 H   0  0  0  0  0  0  0  0  0  0  0  0
  145.3441  138.4516  154.6798 H   0  0  0  0  0  0  0  0  0  0  0  0
  144.9517  140.6775  153.9966 H   0  0  0  0  0  0  0  0  0  0  0  0
  1  2  1  0  0  0  0
  1 20  1  0  0  0  0
  1 21  1  0  0  0  0
  1 22  1  0  0  0  0
  2  7  1  0  0  0  0
  2  3  1  0  0  0  0
  2 40  1  0  0  0  0
  3 19  1  0  0  0  0
  3  4  1  0  0  0  0
  3 23  1  0  0  0  0
  4  5  1  0  0  0  0
  4 24  1  0  0  0  0
  4 25  1  0  0  0  0
  5  6  1  0  0  0  0
  5 26  1  0  0  0  0
  5 27  1  0  0  0  0
  6  7  1  0  0  0  0
  6 28  1  0  0  0  0
  6 29  1  0  0  0  0
  7  8  1  0  0  0  0
  7 30  1  0  0  0  0
  8  9  1  0  0  0  0
  8 31  1  0  0  0  0
  8 32  1  0  0  0  0
  9 10  1  0  0  0  0
  9 19  1  0  0  0  0
  9 33  1  0  0  0  0
 10 11  1  0  0  0  0
 10 34  1  0  0  0  0
 11 12  2  0  0  0  0
 11 13  1  0  0  0  0
 13 14  1  0  0  0  0
 13 35  1  0  0  0  0
 14 18  1  0  0  0  0
 14 15  2  0  0  0  0
 15 16  1  0  0  0  0
 16 17  2  0  0  0  0
 16 36  1  0  0  0  0
 17 18  1  0  0  0  0
 17 37  1  0  0  0  0
 19 38  1  0  0  0  0
 19 39  1  0  0  0  0
M  CHG  1   2   1
M  END
> <s_m_source_file>
AV-unprocessed.smi

> <i_m_source_file_index>
2226

> <i_lp_mmshare_version>
43012

> <i_f3d_flags>
0

> <s_epik_input>
W0NIMl0xW0NIMl1bQ0gyXVtDQEhdKE4oW0NIM10pW0NIXTEyKVtDSDJdW0NASF0oW0NIMl0yKVtOSF1DKD1PKVtOSF1jM25bY0hdW2NIXW8z

> <s_epik_cmdline>
J2VwaWtfcHl0aG9uJywgJy1waCcsICc3LjAnLCAnLXRuJywgJzgnLCAnLW1hJywgJzIwMCcsICctbWV0YWxfYmluZGluZycsICctaW1hZScsICc8aW5maWxlLm1hZT4nLCAnLW9tYWUnLCAnPG91dGZpbGUubWFlPic=

> <r_lp_tautomer_probability>
0.785861

> <r_epik_Ionization_Penalty>
0.000929358

> <r_epik_Ionization_Penalty_Charging>
0.000890041

> <r_epik_Ionization_Penalty_Neutral>
3.93161e-05

> <r_epik_State_Penalty>
0.0312137

> <r_epik_Charging_Adjusted_Penalty>
0.0321037

> <i_epik_Tot_Q>
1

> <i_epik_Tot_abs_Q>
1

> <r_epik_Metal_State_Penalty>
0.0605703

> <b_epik_Metal_Only>
0

> <s_lp_Force_Field>
OPLS_2005

> <r_lp_Energy>
34.3269

> <b_lp_Chiralities_Consistent>
1

> <s_lp_Variant>
AV-unprocessed.smi:2226-3

> <Gold.Version>
5.8.1

> <Gold.Id.Protein>
6NUR|6NUR_protein|mol2

> <Gold.PLP.Fitness>
34.9374

> <Gold.PLP.PLP>
-21.6415

> <Gold.PLP.part.hbond>
-3.0000

> <Gold.PLP.part.metal>
0.0000

> <Gold.PLP.part.buried>
-0.4881

> <Gold.PLP.part.nonpolar>
-18.9744

> <Gold.PLP.part.repulsive>
0.5376

> <Gold.PLP.ligand.clash>
0.0000

> <Gold.PLP.ligand.torsion>
0.3275

> <Gold.PLP.Chemscore.Hbond>
3.9840

> <Gold.PLP.Chemscore.CHOScore>
0.6643

> <Gold.PLP.Chemscore.Metal>
0.0000

> <Gold.Chemscore.Hbonds>
donor molecule, donor type, donor heavy atom, donor atom, acceptor molecule, acceptor atom, score
      L1  H     2    40       P1 10175  2.00
      L1  H    10    34       P1  7948  0.98
      L1  H    13    35       P1  7948  0.99
      L1  C    17    37       P1 10186  0.81

> <Gold.PLP.Chemscore.Internal.Correction>
0.0061

> <Gold.Rescore>
     Score         DG    S(hbond)    S(metal)    S(lipo)     H(rot)  DE(clash)    DE(int)     intcor
     15.40     -19.06       2.86        0.00      56.44       1.00       0.45       3.21       ----

> <Gold.Chemscore.Fitness>
15.3980

> <Gold.Chemscore.DG>
-19.0648

> <Gold.Chemscore.ZeroCoef>
-5.4800

> <Gold.Chemscore.Hbond>
2.8568

> <Gold.Chemscore.Metal>
0.0000

> <Gold.Chemscore.Lipo>
56.4376

> <Gold.Chemscore.Internal_Hbond>
0.0000

> <Gold.Chemscore.DEClash>
0.4523

> <Gold.Chemscore.DEInternal>
3.2146

> <Gold.Chemscore.Rot>
1.0000

> <Gold.Chemscore.Internal.Correction>
   9.000000E+99

> <Gold.Chemscore.Hbonds>
donor molecule, donor type, donor heavy atom, donor atom, acceptor molecule, acceptor atom, score
      L1  H     2    40       P1 10175  0.94
      L1  H    10    34       P1  7948  0.93
      L1  H    13    35       P1  7948  0.93

> <Gold.Chemscore.Hbond.Weighted>
-9.5416

> <Gold.Chemscore.Metal.Weighted>
-0.0000

> <Gold.Chemscore.Lipo.Weighted>
-6.6032

> <Gold.Chemscore.Internal_Hbond.Weighted>
0.0000

> <Gold.Chemscore.DEClash.Weighted>
0.4523

> <Gold.Chemscore.DEInternal.Weighted>
3.2146

> <Gold.Chemscore.Rot.Weighted>
2.5600

> <Gold.Chemscore.Internal.Correction.Weighted>
   9.000000E+99

> <Gold.Protein.RotatedTorsions>
[ 6907 6896 6895 6894 ] final  -11.90 input  -60.11 | X-H torsion
[ 7974 7965 7964 7962 ] final   67.12 input  175.53 | X-H torsion
[ 8008 7997 7996 7995 ] final  -75.77 input   59.86 | X-H torsion
[ 10167 10162 10161 10158 ] final  135.35 input  -65.29 | X-H torsion
[ 10718 10713 10712 10709 ] final   -2.51 input   66.30 | X-H torsion
[ 10763 10752 10751 10750 ] final    7.15 input  -60.55 | X-H torsion
[ 11005 11000 10999 10996 ] final   59.70 input  -57.11 | X-H torsion

> <Gold.Protein.ActiveResidues>
 VAL166  LYS551  ARG553  GLY616  TRP617  ASP618  TYR619  PRO620  LYS621  CYS622 
 ASP623  PHE694  ASN695  SER759  ASP760  ASP761  ALA762  ILE779  LEU786  VAL792 
 PHE793  MET794  SER795  GLU796  ALA797  LYS798  CYS799  TRP800  GLU811  SER814 

> <Gold.Protein.RotatedAtoms>
  151.3789  135.0936  159.9489 H   0  0  0  0  0  0  0  0  0  0  0  0  # atno 6907 bound_to 6896
  152.5114  133.9091  159.7489 H   0  0  0  0  0  0  0  0  0  0  0  0  # atno 6908 bound_to 6896
  150.9520  133.6483  159.2799 H   0  0  0  0  0  0  0  0  0  0  0  0  # atno 6909 bound_to 6896
  145.8185  139.3071  143.1057 H   0  0  0  0  0  0  0  0  0  0  0  0  # atno 7974 bound_to 7965
  154.5446  140.0738  156.8567 H   0  0  0  0  0  0  0  0  0  0  0  0  # atno 8008 bound_to 7997
  155.3113  140.3390  155.4225 H   0  0  0  0  0  0  0  0  0  0  0  0  # atno 8009 bound_to 7997
  156.1906  140.1685  156.8086 H   0  0  0  0  0  0  0  0  0  0  0  0  # atno 8010 bound_to 7997
  139.5221  144.6521  151.5270 H   0  0  0  0  0  0  0  0  0  0  0  0  # atno 10167 bound_to 10162
  156.7897  130.5358  149.5737 H   0  0  0  0  0  0  0  0  0  0  0  0  # atno 10718 bound_to 10713
  153.2396  135.6902  153.7798 H   0  0  0  0  0  0  0  0  0  0  0  0  # atno 10763 bound_to 10752
  153.6933  135.3309  155.3208 H   0  0  0  0  0  0  0  0  0  0  0  0  # atno 10764 bound_to 10752
  154.8349  135.4550  154.1312 H   0  0  0  0  0  0  0  0  0  0  0  0  # atno 10765 bound_to 10752
  140.0285  134.6048  155.9540 H   0  0  0  0  0  0  0  0  0  0  0  0  # atno 11005 bound_to 11000
  145.9701  140.8767  143.0167 LP  0  0  0  0  0  0  0  0  0  0  0  0  # atno 17320 bound_to 7965
  144.6750  140.1934  143.7394 LP  0  0  0  0  0  0  0  0  0  0  0  0  # atno 17321 bound_to 7965
  140.6331  143.9037  150.6623 LP  0  0  0  0  0  0  0  0  0  0  0  0  # atno 17342 bound_to 10162
  140.2348  143.3708  152.1536 LP  0  0  0  0  0  0  0  0  0  0  0  0  # atno 17343 bound_to 10162
  156.1166  130.6080  151.0130 LP  0  0  0  0  0  0  0  0  0  0  0  0  # atno 17370 bound_to 10713
  157.6606  131.0881  150.7846 LP  0  0  0  0  0  0  0  0  0  0  0  0  # atno 17371 bound_to 10713
  141.1817  133.6547  156.5046 LP  0  0  0  0  0  0  0  0  0  0  0  0  # atno 17394 bound_to 11000
  140.4266  134.7139  157.4919 LP  0  0  0  0  0  0  0  0  0  0  0  0  # atno 17395 bound_to 11000

$$$$
